=
 OpenBabel11062408263D

 32 37  0  0  1  0  0  0  0  0999 V2000
  161.6060  204.7480  150.1840 C   0  0  0  0  0  0  0  0  0  0  0  0
  162.2280  206.9210  150.8860 N   0  0  0  0  0  0  0  0  0  0  0  0
  160.9660  203.4260  150.5450 C   0  0  0  0  0  2  0  0  0  0  0  0
  161.9290  205.5890  151.1630 C   0  0  0  0  0  0  0  0  0  0  0  0
  162.0020  207.6260  152.0830 C   0  0  0  0  0  0  0  0  0  0  0  0
  162.0080  211.0990  148.4180 C   0  0  0  0  0  3  0  0  0  0  0  0
  162.0390  207.5030  149.6120 C   0  0  0  0  0  0  0  0  0  0  0  0
  161.9130  211.0530  150.8430 C   0  0  0  0  0  3  0  0  0  0  0  0
  161.9520  209.6570  150.8270 C   0  0  0  0  0  0  0  0  0  0  0  0
  161.6500  205.3680  152.5370 N   0  0  0  0  0  0  0  0  0  0  0  0
  161.8550  208.9200  152.0710 N   0  0  0  0  0  0  0  0  0  0  0  0
  160.9780  204.1490  152.9840 C   0  0  0  0  0  2  0  0  0  0  0  0
  161.7570  206.6870  148.5840 C   0  0  0  0  0  3  0  0  0  0  0  0
  161.6280  205.2580  148.8190 N   0  0  0  0  0  0  0  0  0  0  0  0
  162.0150  208.9760  149.5780 C   0  0  0  0  0  0  0  0  0  0  0  0
  161.6520  206.6810  153.2160 C   0  0  2  0  0  3  0  0  0  0  0  0
  161.2690  203.0070  151.9980 C   0  0  0  0  0  2  0  0  0  0  0  0
  161.9460  211.7720  149.6440 C   0  0  0  0  0  3  0  0  0  0  0  0
  162.0390  209.7020  148.3830 C   0  0  0  0  0  3  0  0  0  0  0  0
  160.8540  204.0440  145.3450 C   0  0  0  0  0  0  0  0  0  0  0  0
  160.5890  204.5370  144.0730 O   0  0  0  0  0  1  0  0  0  0  0  0
  161.3680  203.0080  147.8900 C   0  0  0  0  0  3  0  0  0  0  0  0
  160.8700  202.6620  145.5510 C   0  0  0  0  0  3  0  0  0  0  0  0
  161.3680  204.3960  147.7000 C   0  0  0  0  0  0  0  0  0  0  0  0
  161.0980  204.9200  146.4160 C   0  0  0  0  0  0  0  0  0  0  0  0
  161.0210  206.3960  146.1910 C   0  0  0  0  0  1  0  0  0  0  0  0
  161.1220  202.1400  146.8240 C   0  0  0  0  0  0  0  0  0  0  0  0
  161.4760  200.2180  148.1750 O   0  0  0  0  0  0  0  0  0  0  0  0
  161.1360  200.6940  147.0590 C   0  0  0  0  0  3  0  0  0  0  0  0
  160.2600  206.9940  153.7550 C   0  0  0  0  0  2  0  0  0  0  0  0
  160.2770  206.9910  155.2070 N   0  0  0  0  0  2  0  0  0  0  0  0
  161.2630  207.9730  155.6150 C   0  0  0  0  0  1  0  0  0  0  0  0
  1  3  1  0  0  0  0
  1  4  2  0  0  0  0
  2  4  1  0  0  0  0
  2  5  1  0  0  0  0
  3 17  1  0  0  0  0
  4 10  1  0  0  0  0
  5 16  1  0  0  0  0
  6 18  1  0  0  0  0
  7  2  1  0  0  0  0
  9  8  1  0  0  0  0
  9 11  1  0  0  0  0
 10 12  1  0  0  0  0
 10 16  1  0  0  0  0
 11  5  2  0  0  0  0
 13 14  1  0  0  0  0
 13  7  2  0  0  0  0
 14  1  1  0  0  0  0
 15  7  1  0  0  0  0
 15  9  2  0  0  0  0
 16 30  1  6  0  0  0
 17 12  1  0  0  0  0
 18  8  2  0  0  0  0
 19  6  2  0  0  0  0
 19 15  1  0  0  0  0
 20 23  2  0  0  0  0
 20 25  1  0  0  0  0
 21 20  1  0  0  0  0
 23 27  1  0  0  0  0
 24 22  1  0  0  0  0
 24 14  1  0  0  0  0
 25 24  2  0  0  0  0
 26 25  1  0  0  0  0
 27 29  1  0  0  0  0
 27 22  2  0  0  0  0
 29 28  2  0  0  0  0
 30 31  1  0  0  0  0
 31 32  1  0  0  0  0
M  END
>  <MODEL>
1

>  <REMARK>
 VINA RESULT:      -8.6      0.000      0.000
  Name = 
  4 active torsions:
  status: ('A' for Active; 'I' for Inactive)
    1  A    between atoms: N_13  and  C_18
    2  A    between atoms: C_15  and  C_26
    3  A    between atoms: C_18  and  C_29
    4  A    between atoms: C_20  and  N_27
                            x       y       z     vdW  Elec       q    Type
                         _______ _______ _______ _____ _____    ______ ____

>  <TORSDO>
F 4

$$$$
=
 OpenBabel11062408263D

 32 37  0  0  1  0  0  0  0  0999 V2000
  161.5790  206.5340  151.2650 C   0  0  0  0  0  0  0  0  0  0  0  0
  161.9910  208.8640  151.2080 N   0  0  0  0  0  0  0  0  0  0  0  0
  161.0370  205.3540  152.0400 C   0  0  0  0  0  2  0  0  0  0  0  0
  161.7920  207.6780  151.9110 C   0  0  0  0  0  0  0  0  0  0  0  0
  161.6600  209.9030  152.0990 C   0  0  0  0  0  0  0  0  0  0  0  0
  161.5260  211.9490  147.4850 C   0  0  0  0  0  3  0  0  0  0  0  0
  161.8060  208.9710  149.8100 C   0  0  0  0  0  0  0  0  0  0  0  0
  161.3370  212.7010  149.7850 C   0  0  0  0  0  3  0  0  0  0  0  0
  161.4930  211.3880  150.2360 C   0  0  0  0  0  0  0  0  0  0  0  0
  161.4770  207.9010  153.2770 N   0  0  0  0  0  0  0  0  0  0  0  0
  161.4070  211.1010  151.6540 N   0  0  0  0  0  0  0  0  0  0  0  0
  160.8910  206.8430  154.0980 C   0  0  0  0  0  2  0  0  0  0  0  0
  161.6340  207.8380  149.1110 C   0  0  0  0  0  3  0  0  0  0  0  0
  161.6150  206.5630  149.8090 N   0  0  0  0  0  0  0  0  0  0  0  0
  161.6620  210.3400  149.2860 C   0  0  0  0  0  0  0  0  0  0  0  0
  161.3430  209.3590  153.4780 C   0  0  2  0  0  3  0  0  0  0  0  0
  161.3150  205.4700  153.5530 C   0  0  0  0  0  2  0  0  0  0  0  0
  161.3600  212.9810  148.4150 C   0  0  0  0  0  3  0  0  0  0  0  0
  161.6740  210.6280  147.9180 C   0  0  0  0  0  3  0  0  0  0  0  0
  161.6340  204.1270  146.9430 C   0  0  0  0  0  0  0  0  0  0  0  0
  161.9360  204.0710  145.5870 O   0  0  0  0  0  1  0  0  0  0  0  0
  161.0020  204.1960  149.6650 C   0  0  0  0  0  3  0  0  0  0  0  0
  161.1760  202.9750  147.5880 C   0  0  0  0  0  3  0  0  0  0  0  0
  161.4720  205.3580  149.0390 C   0  0  0  0  0  0  0  0  0  0  0  0
  161.7810  205.3260  147.6610 C   0  0  0  0  0  0  0  0  0  0  0  0
  162.2190  206.5630  146.9440 C   0  0  0  0  0  1  0  0  0  0  0  0
  160.8540  203.0070  148.9490 C   0  0  0  0  0  0  0  0  0  0  0  0
  161.1640  200.9790  150.1480 O   0  0  0  0  0  0  0  0  0  0  0  0
  160.3660  201.8110  149.6390 C   0  0  0  0  0  3  0  0  0  0  0  0
  159.9090  209.7040  153.8670 C   0  0  0  0  0  2  0  0  0  0  0  0
  159.8680  210.1880  155.2360 N   0  0  0  0  0  2  0  0  0  0  0  0
  160.5180  211.4850  155.2390 C   0  0  0  0  0  1  0  0  0  0  0  0
  1  4  2  0  0  0  0
  1  3  1  0  0  0  0
  2  4  1  0  0  0  0
  2  5  1  0  0  0  0
  3 17  1  0  0  0  0
  4 10  1  0  0  0  0
  5 16  1  0  0  0  0
  6 19  2  0  0  0  0
  6 18  1  0  0  0  0
  7  2  1  0  0  0  0
  8  9  1  0  0  0  0
  9 11  1  0  0  0  0
 10 16  1  0  0  0  0
 10 12  1  0  0  0  0
 11  5  2  0  0  0  0
 13 14  1  0  0  0  0
 13  7  2  0  0  0  0
 14  1  1  0  0  0  0
 15  7  1  0  0  0  0
 15  9  2  0  0  0  0
 16 30  1  6  0  0  0
 17 12  1  0  0  0  0
 18  8  2  0  0  0  0
 19 15  1  0  0  0  0
 20 23  2  0  0  0  0
 20 25  1  0  0  0  0
 21 20  1  0  0  0  0
 23 27  1  0  0  0  0
 24 22  1  0  0  0  0
 24 14  1  0  0  0  0
 25 24  2  0  0  0  0
 26 25  1  0  0  0  0
 27 29  1  0  0  0  0
 27 22  2  0  0  0  0
 29 28  2  0  0  0  0
 30 31  1  0  0  0  0
 31 32  1  0  0  0  0
M  END
>  <MODEL>
2

>  <REMARK>
 VINA RESULT:      -8.2      1.615      2.211
  Name = 
  4 active torsions:
  status: ('A' for Active; 'I' for Inactive)
    1  A    between atoms: N_13  and  C_18
    2  A    between atoms: C_15  and  C_26
    3  A    between atoms: C_18  and  C_29
    4  A    between atoms: C_20  and  N_27
                            x       y       z     vdW  Elec       q    Type
                         _______ _______ _______ _____ _____    ______ ____

>  <TORSDO>
F 4

$$$$
=
 OpenBabel11062408263D

 32 37  0  0  1  0  0  0  0  0999 V2000
  161.6940  207.7700  150.4290 C   0  0  0  0  0  0  0  0  0  0  0  0
  161.9990  205.6700  149.3810 N   0  0  0  0  0  0  0  0  0  0  0  0
  161.4050  209.2460  150.2660 C   0  0  0  0  0  2  0  0  0  0  0  0
  162.0240  207.0620  149.3510 C   0  0  0  0  0  0  0  0  0  0  0  0
  161.8670  205.2550  148.0420 C   0  0  0  0  0  0  0  0  0  0  0  0
  160.5050  201.2880  150.8520 C   0  0  0  0  0  3  0  0  0  0  0  0
  161.4630  204.9330  150.4630 C   0  0  0  0  0  0  0  0  0  0  0  0
  160.8760  201.7780  148.5040 C   0  0  0  0  0  3  0  0  0  0  0  0
  161.1850  203.1030  148.8210 C   0  0  0  0  0  0  0  0  0  0  0  0
  162.0560  207.5770  148.0290 N   0  0  0  0  0  0  0  0  0  0  0  0
  161.4690  204.0480  147.7590 N   0  0  0  0  0  0  0  0  0  0  0  0
  161.7320  208.9770  147.7570 C   0  0  0  0  0  2  0  0  0  0  0  0
  161.1600  205.5990  151.5880 C   0  0  0  0  0  3  0  0  0  0  0  0
  161.3600  207.0380  151.6430 N   0  0  0  0  0  0  0  0  0  0  0  0
  161.1450  203.5220  150.1810 C   0  0  0  0  0  0  0  0  0  0  0  0
  161.9270  206.4390  147.0970 C   0  0  2  0  0  3  0  0  0  0  0  0
  162.0520  209.8320  148.9940 C   0  0  0  0  0  2  0  0  0  0  0  0
  160.5430  200.8720  149.5170 C   0  0  0  0  0  3  0  0  0  0  0  0
  160.8020  202.6120  151.1860 C   0  0  0  0  0  3  0  0  0  0  0  0
  160.6610  207.7410  155.2710 C   0  0  0  0  0  0  0  0  0  0  0  0
  160.5330  207.0770  156.4850 O   0  0  0  0  0  1  0  0  0  0  0  0
  160.8950  209.1180  152.8490 C   0  0  0  0  0  3  0  0  0  0  0  0
  160.5030  209.1290  155.2330 C   0  0  0  0  0  3  0  0  0  0  0  0
  161.0690  207.7270  152.8700 C   0  0  0  0  0  0  0  0  0  0  0  0
  160.9400  207.0310  154.0920 C   0  0  0  0  0  0  0  0  0  0  0  0
  161.0500  205.5400  154.1400 C   0  0  0  0  0  1  0  0  0  0  0  0
  160.6150  209.8200  154.0230 C   0  0  0  0  0  0  0  0  0  0  0  0
  160.3710  211.8790  152.8610 O   0  0  0  0  0  0  0  0  0  0  0  0
  160.4460  211.2740  153.9640 C   0  0  0  0  0  3  0  0  0  0  0  0
  160.6270  206.5520  146.3070 C   0  0  0  0  0  2  0  0  0  0  0  0
  160.8780  206.3060  144.8980 N   0  0  0  0  0  2  0  0  0  0  0  0
  160.5520  204.9140  144.6540 C   0  0  0  0  0  1  0  0  0  0  0  0
  1 14  1  0  0  0  0
  2  7  1  0  0  0  0
  3  1  1  0  0  0  0
  4  2  1  0  0  0  0
  4  1  2  0  0  0  0
  5  2  1  0  0  0  0
  6 19  1  0  0  0  0
  7 13  2  0  0  0  0
  8  9  2  0  0  0  0
  8 18  1  0  0  0  0
  9 15  1  0  0  0  0
 10  4  1  0  0  0  0
 11  5  2  0  0  0  0
 11  9  1  0  0  0  0
 12 10  1  0  0  0  0
 12 17  1  0  0  0  0
 13 14  1  0  0  0  0
 14 24  1  0  0  0  0
 15  7  1  0  0  0  0
 15 19  2  0  0  0  0
 16 30  1  1  0  0  0
 16 10  1  0  0  0  0
 16  5  1  0  0  0  0
 17  3  1  0  0  0  0
 18  6  2  0  0  0  0
 20 21  1  0  0  0  0
 22 24  2  0  0  0  0
 22 27  1  0  0  0  0
 23 20  1  0  0  0  0
 24 25  1  0  0  0  0
 25 26  1  0  0  0  0
 25 20  2  0  0  0  0
 27 23  2  0  0  0  0
 28 29  2  0  0  0  0
 29 27  1  0  0  0  0
 31 30  1  0  0  0  0
 32 31  1  0  0  0  0
M  END
>  <MODEL>
3

>  <REMARK>
 VINA RESULT:      -7.9      3.209      8.162
  Name = 
  4 active torsions:
  status: ('A' for Active; 'I' for Inactive)
    1  A    between atoms: N_13  and  C_18
    2  A    between atoms: C_15  and  C_26
    3  A    between atoms: C_18  and  C_29
    4  A    between atoms: C_20  and  N_27
                            x       y       z     vdW  Elec       q    Type
                         _______ _______ _______ _____ _____    ______ ____

>  <TORSDO>
F 4

$$$$
=
 OpenBabel11062408263D

 32 37  0  0  1  0  0  0  0  0999 V2000
  161.9390  208.7900  150.1270 C   0  0  0  0  0  0  0  0  0  0  0  0
  161.9680  207.7340  152.2440 N   0  0  0  0  0  0  0  0  0  0  0  0
  161.7830  208.6400  148.6290 C   0  0  0  0  0  2  0  0  0  0  0  0
  162.1250  207.6960  150.8610 C   0  0  0  0  0  0  0  0  0  0  0  0
  161.7060  206.4090  152.6420 C   0  0  0  0  0  0  0  0  0  0  0  0
  160.1620  209.3240  156.4650 C   0  0  0  0  0  3  0  0  0  0  0  0
  161.4390  208.8530  152.9280 C   0  0  0  0  0  0  0  0  0  0  0  0
  160.4190  206.9540  156.0090 C   0  0  0  0  0  3  0  0  0  0  0  0
  160.8750  207.2420  154.7200 C   0  0  0  0  0  0  0  0  0  0  0  0
  162.1170  206.3720  150.3490 N   0  0  0  0  0  0  0  0  0  0  0  0
  161.1760  206.1590  153.8050 N   0  0  0  0  0  0  0  0  0  0  0  0
  161.9110  206.1160  148.9240 C   0  0  0  0  0  2  0  0  0  0  0  0
  161.2780  209.9930  152.2380 C   0  0  0  0  0  3  0  0  0  0  0  0
  161.6200  210.0280  150.8250 N   0  0  0  0  0  0  0  0  0  0  0  0
  160.9680  208.6000  154.3010 C   0  0  0  0  0  0  0  0  0  0  0  0
  161.8150  205.4560  151.4680 C   0  0  2  0  0  3  0  0  0  0  0  0
  162.3950  207.3240  148.1060 C   0  0  0  0  0  2  0  0  0  0  0  0
  160.0700  207.9910  156.8800 C   0  0  0  0  0  3  0  0  0  0  0  0
  160.6080  209.6310  155.1760 C   0  0  0  0  0  3  0  0  0  0  0  0
  160.4540  213.4560  149.8080 C   0  0  0  0  0  0  0  0  0  0  0  0
  159.5550  214.4410  150.2000 O   0  0  0  0  0  1  0  0  0  0  0  0
  162.2670  211.4970  148.9760 C   0  0  0  0  0  3  0  0  0  0  0  0
  161.2550  213.6720  148.6840 C   0  0  0  0  0  3  0  0  0  0  0  0
  161.4800  211.2680  150.1130 C   0  0  0  0  0  0  0  0  0  0  0  0
  160.5570  212.2530  150.5270 C   0  0  0  0  0  0  0  0  0  0  0  0
  159.6520  212.0150  151.6940 C   0  0  0  0  0  1  0  0  0  0  0  0
  162.1600  212.6920  148.2620 C   0  0  0  0  0  0  0  0  0  0  0  0
  162.5200  213.3300  146.0020 O   0  0  0  0  0  0  0  0  0  0  0  0
  163.0030  212.8990  147.0830 C   0  0  0  0  0  3  0  0  0  0  0  0
  160.4820  204.7560  151.2290 C   0  0  0  0  0  2  0  0  0  0  0  0
  160.6600  203.3160  151.2770 N   0  0  0  0  0  2  0  0  0  0  0  0
  160.6510  202.8480  149.9040 C   0  0  0  0  0  1  0  0  0  0  0  0
  1 14  1  0  0  0  0
  1  4  2  0  0  0  0
  2  5  1  0  0  0  0
  2  7  1  0  0  0  0
  3  1  1  0  0  0  0
  4  2  1  0  0  0  0
  5 11  2  0  0  0  0
  6 18  1  0  0  0  0
  7 15  1  0  0  0  0
  8 18  2  0  0  0  0
  9  8  1  0  0  0  0
 10  4  1  0  0  0  0
 10 16  1  0  0  0  0
 11  9  1  0  0  0  0
 12 10  1  0  0  0  0
 13  7  2  0  0  0  0
 14 13  1  0  0  0  0
 15  9  2  0  0  0  0
 15 19  1  0  0  0  0
 16 30  1  6  0  0  0
 16  5  1  0  0  0  0
 17  3  1  0  0  0  0
 17 12  1  0  0  0  0
 19  6  2  0  0  0  0
 20 21  1  0  0  0  0
 20 25  1  0  0  0  0
 22 24  1  0  0  0  0
 23 20  2  0  0  0  0
 24 25  2  0  0  0  0
 24 14  1  0  0  0  0
 25 26  1  0  0  0  0
 27 23  1  0  0  0  0
 27 22  2  0  0  0  0
 28 29  2  0  0  0  0
 29 27  1  0  0  0  0
 30 31  1  0  0  0  0
 32 31  1  0  0  0  0
M  END
>  <MODEL>
4

>  <REMARK>
 VINA RESULT:      -7.8      3.453      7.210
  Name = 
  4 active torsions:
  status: ('A' for Active; 'I' for Inactive)
    1  A    between atoms: N_13  and  C_18
    2  A    between atoms: C_15  and  C_26
    3  A    between atoms: C_18  and  C_29
    4  A    between atoms: C_20  and  N_27
                            x       y       z     vdW  Elec       q    Type
                         _______ _______ _______ _____ _____    ______ ____

>  <TORSDO>
F 4

$$$$
=
 OpenBabel11062408263D

 32 37  0  0  1  0  0  0  0  0999 V2000
  161.4650  210.0220  151.1800 C   0  0  0  0  0  0  0  0  0  0  0  0
  162.1050  207.7730  150.8130 N   0  0  0  0  0  0  0  0  0  0  0  0
  161.1210  211.3640  150.5740 C   0  0  0  0  0  2  0  0  0  0  0  0
  162.0470  209.1050  150.4100 C   0  0  0  0  0  0  0  0  0  0  0  0
  162.2690  207.0190  149.6360 C   0  0  0  0  0  0  0  0  0  0  0  0
  160.6300  203.7690  153.1360 C   0  0  0  0  0  3  0  0  0  0  0  0
  161.4130  207.2800  151.9430 C   0  0  0  0  0  0  0  0  0  0  0  0
  161.4290  203.6840  150.8460 C   0  0  0  0  0  3  0  0  0  0  0  0
  161.5840  205.0720  150.8390 C   0  0  0  0  0  0  0  0  0  0  0  0
  162.3080  209.2660  149.0250 N   0  0  0  0  0  0  0  0  0  0  0  0
  162.0130  205.7410  149.6270 N   0  0  0  0  0  0  0  0  0  0  0  0
  161.9560  210.5040  148.3300 C   0  0  0  0  0  2  0  0  0  0  0  0
  160.8500  208.1710  152.7740 C   0  0  0  0  0  3  0  0  0  0  0  0
  160.9440  209.5900  152.4700 N   0  0  0  0  0  0  0  0  0  0  0  0
  161.2480  205.8170  152.0050 C   0  0  0  0  0  0  0  0  0  0  0  0
  162.4390  207.9210  148.4290 C   0  0  2  0  0  3  0  0  0  0  0  0
  161.9680  211.6760  149.3240 C   0  0  0  0  0  2  0  0  0  0  0  0
  160.9590  203.0340  151.9920 C   0  0  0  0  0  3  0  0  0  0  0  0
  160.7700  205.1600  153.1440 C   0  0  0  0  0  3  0  0  0  0  0  0
  160.4560  211.8330  155.4500 C   0  0  0  0  0  0  0  0  0  0  0  0
  161.1040  212.2170  156.6180 O   0  0  0  0  0  1  0  0  0  0  0  0
  159.1100  211.0780  153.1180 C   0  0  0  0  0  3  0  0  0  0  0  0
  159.2040  212.3770  155.1540 C   0  0  0  0  0  3  0  0  0  0  0  0
  160.3710  210.5310  153.3930 C   0  0  0  0  0  0  0  0  0  0  0  0
  161.0460  210.9050  154.5760 C   0  0  0  0  0  0  0  0  0  0  0  0
  162.3610  210.2900  154.9350 C   0  0  0  0  0  1  0  0  0  0  0  0
  158.5260  211.9980  153.9910 C   0  0  0  0  0  0  0  0  0  0  0  0
  156.2200  212.3730  154.4280 O   0  0  0  0  0  0  0  0  0  0  0  0
  157.2090  212.5540  153.6680 C   0  0  0  0  0  3  0  0  0  0  0  0
  161.3180  207.6800  147.4250 C   0  0  0  0  0  2  0  0  0  0  0  0
  161.6670  206.5780  146.5440 N   0  0  0  0  0  2  0  0  0  0  0  0
  160.4520  206.2030  145.8450 C   0  0  0  0  0  1  0  0  0  0  0  0
  1 14  1  0  0  0  0
  2  7  1  0  0  0  0
  3  1  1  0  0  0  0
  4  2  1  0  0  0  0
  4  1  2  0  0  0  0
  5  2  1  0  0  0  0
  6 19  1  0  0  0  0
  7 15  1  0  0  0  0
  7 13  2  0  0  0  0
  8 18  1  0  0  0  0
  9  8  2  0  0  0  0
  9 15  1  0  0  0  0
 10  4  1  0  0  0  0
 11  5  2  0  0  0  0
 11  9  1  0  0  0  0
 12 10  1  0  0  0  0
 12 17  1  0  0  0  0
 14 13  1  0  0  0  0
 14 24  1  0  0  0  0
 15 19  2  0  0  0  0
 16 30  1  6  0  0  0
 16 10  1  0  0  0  0
 16  5  1  0  0  0  0
 17  3  1  0  0  0  0
 18  6  2  0  0  0  0
 20 21  1  0  0  0  0
 22 24  2  0  0  0  0
 22 27  1  0  0  0  0
 23 20  1  0  0  0  0
 24 25  1  0  0  0  0
 25 26  1  0  0  0  0
 25 20  2  0  0  0  0
 27 23  2  0  0  0  0
 29 27  1  0  0  0  0
 29 28  2  0  0  0  0
 31 30  1  0  0  0  0
 32 31  1  0  0  0  0
M  END
>  <MODEL>
5

>  <REMARK>
 VINA RESULT:      -7.7      4.216      8.669
  Name = 
  4 active torsions:
  status: ('A' for Active; 'I' for Inactive)
    1  A    between atoms: N_13  and  C_18
    2  A    between atoms: C_15  and  C_26
    3  A    between atoms: C_18  and  C_29
    4  A    between atoms: C_20  and  N_27
                            x       y       z     vdW  Elec       q    Type
                         _______ _______ _______ _____ _____    ______ ____

>  <TORSDO>
F 4

$$$$
=
 OpenBabel11062408263D

 32 37  0  0  1  0  0  0  0  0999 V2000
  161.9380  209.4120  151.2250 C   0  0  0  0  0  0  0  0  0  0  0  0
  162.2240  207.1830  150.4850 N   0  0  0  0  0  0  0  0  0  0  0  0
  161.6550  210.8520  150.8550 C   0  0  0  0  0  2  0  0  0  0  0  0
  162.2550  208.5560  150.2570 C   0  0  0  0  0  0  0  0  0  0  0  0
  162.0790  206.5820  149.2200 C   0  0  0  0  0  0  0  0  0  0  0  0
  160.7200  203.0630  152.5760 C   0  0  0  0  0  3  0  0  0  0  0  0
  161.6930  206.6100  151.6640 C   0  0  0  0  0  0  0  0  0  0  0  0
  161.0750  203.2120  150.1800 C   0  0  0  0  0  3  0  0  0  0  0  0
  161.3930  204.5670  150.3020 C   0  0  0  0  0  0  0  0  0  0  0  0
  162.2790  208.8780  148.8750 N   0  0  0  0  0  0  0  0  0  0  0  0
  161.6730  205.3490  149.1140 N   0  0  0  0  0  0  0  0  0  0  0  0
  161.9600  210.2260  148.4080 C   0  0  0  0  0  2  0  0  0  0  0  0
  161.4020  207.4320  152.6860 C   0  0  0  0  0  3  0  0  0  0  0  0
  161.6100  208.8630  152.5340 N   0  0  0  0  0  0  0  0  0  0  0  0
  161.3660  205.1760  151.5890 C   0  0  0  0  0  0  0  0  0  0  0  0
  162.1370  207.6190  148.1150 C   0  0  2  0  0  3  0  0  0  0  0  0
  162.2940  211.2460  149.5080 C   0  0  0  0  0  2  0  0  0  0  0  0
  160.7460  202.4620  151.3130 C   0  0  0  0  0  3  0  0  0  0  0  0
  161.0270  204.4200  152.7160 C   0  0  0  0  0  3  0  0  0  0  0  0
  159.8750  211.2500  154.8650 C   0  0  0  0  0  0  0  0  0  0  0  0
  158.6790  211.9480  154.9870 O   0  0  0  0  0  1  0  0  0  0  0  0
  162.3000  209.8750  154.6540 C   0  0  0  0  0  3  0  0  0  0  0  0
  160.8450  211.3810  155.8610 C   0  0  0  0  0  3  0  0  0  0  0  0
  161.3330  209.7210  153.6520 C   0  0  0  0  0  0  0  0  0  0  0  0
  160.1120  210.4240  153.7530 C   0  0  0  0  0  0  0  0  0  0  0  0
  159.0850  210.3390  152.6680 C   0  0  0  0  0  1  0  0  0  0  0  0
  162.0620  210.6980  155.7560 C   0  0  0  0  0  0  0  0  0  0  0  0
  164.1650  211.4530  156.5640 O   0  0  0  0  0  0  0  0  0  0  0  0
  163.0940  210.8300  156.7880 C   0  0  0  0  0  3  0  0  0  0  0  0
  160.8310  207.6260  147.3270 C   0  0  0  0  0  2  0  0  0  0  0  0
  160.4570  206.2680  146.9710 N   0  0  0  0  0  2  0  0  0  0  0  0
  160.4560  206.2030  145.5220 C   0  0  0  0  0  1  0  0  0  0  0  0
  1 14  1  0  0  0  0
  2  7  1  0  0  0  0
  3  1  1  0  0  0  0
  4  2  1  0  0  0  0
  4  1  2  0  0  0  0
  5  2  1  0  0  0  0
  6 19  1  0  0  0  0
  7 13  2  0  0  0  0
  8  9  2  0  0  0  0
  8 18  1  0  0  0  0
  9 15  1  0  0  0  0
 10  4  1  0  0  0  0
 11  5  2  0  0  0  0
 11  9  1  0  0  0  0
 12 10  1  0  0  0  0
 12 17  1  0  0  0  0
 14 13  1  0  0  0  0
 14 24  1  0  0  0  0
 15  7  1  0  0  0  0
 15 19  2  0  0  0  0
 16 30  1  1  0  0  0
 16 10  1  0  0  0  0
 16  5  1  0  0  0  0
 17  3  1  0  0  0  0
 18  6  2  0  0  0  0
 20 21  1  0  0  0  0
 20 23  1  0  0  0  0
 22 27  1  0  0  0  0
 24 25  1  0  0  0  0
 24 22  2  0  0  0  0
 25 20  2  0  0  0  0
 26 25  1  0  0  0  0
 27 23  2  0  0  0  0
 27 29  1  0  0  0  0
 28 29  2  0  0  0  0
 31 30  1  0  0  0  0
 32 31  1  0  0  0  0
M  END
>  <MODEL>
6

>  <REMARK>
 VINA RESULT:      -7.3      3.909      8.420
  Name = 
  4 active torsions:
  status: ('A' for Active; 'I' for Inactive)
    1  A    between atoms: N_13  and  C_18
    2  A    between atoms: C_15  and  C_26
    3  A    between atoms: C_18  and  C_29
    4  A    between atoms: C_20  and  N_27
                            x       y       z     vdW  Elec       q    Type
                         _______ _______ _______ _____ _____    ______ ____

>  <TORSDO>
F 4

$$$$
=
 OpenBabel11062408263D

 32 37  0  0  1  0  0  0  0  0999 V2000
  161.0970  207.9070  152.9630 C   0  0  0  0  0  0  0  0  0  0  0  0
  161.0400  210.2650  153.1530 N   0  0  0  0  0  0  0  0  0  0  0  0
  160.7730  206.5690  153.5920 C   0  0  0  0  0  2  0  0  0  0  0  0
  161.0560  208.9960  153.7270 C   0  0  0  0  0  0  0  0  0  0  0  0
  160.4770  211.1210  154.1190 C   0  0  0  0  0  0  0  0  0  0  0  0
  160.1020  213.5740  149.7220 C   0  0  0  0  0  3  0  0  0  0  0  0
  160.8860  210.4800  151.7640 C   0  0  0  0  0  0  0  0  0  0  0  0
  159.6870  214.0300  152.0690 C   0  0  0  0  0  3  0  0  0  0  0  0
  160.0840  212.7320  152.4000 C   0  0  0  0  0  0  0  0  0  0  0  0
  160.6550  209.0100  155.0880 N   0  0  0  0  0  0  0  0  0  0  0  0
  160.0070  212.2860  153.7770 N   0  0  0  0  0  0  0  0  0  0  0  0
  160.2620  207.7780  155.7710 C   0  0  0  0  0  2  0  0  0  0  0  0
  160.9680  209.4140  150.9500 C   0  0  0  0  0  3  0  0  0  0  0  0
  161.1780  208.0940  151.5210 N   0  0  0  0  0  0  0  0  0  0  0  0
  160.4910  211.8420  151.3660 C   0  0  0  0  0  0  0  0  0  0  0  0
  160.2260  210.3840  155.4200 C   0  0  2  0  0  3  0  0  0  0  0  0
  160.9690  206.5780  155.1210 C   0  0  0  0  0  2  0  0  0  0  0  0
  159.7010  214.4500  150.7350 C   0  0  0  0  0  3  0  0  0  0  0  0
  160.4940  212.2690  150.0340 C   0  0  0  0  0  3  0  0  0  0  0  0
  161.8530  206.0130  148.4610 C   0  0  0  0  0  0  0  0  0  0  0  0
  162.2790  206.1520  147.1450 O   0  0  0  0  0  1  0  0  0  0  0  0
  160.9780  205.6900  151.0970 C   0  0  0  0  0  3  0  0  0  0  0  0
  161.5350  204.7420  148.9450 C   0  0  0  0  0  3  0  0  0  0  0  0
  161.3040  206.9720  150.6320 C   0  0  0  0  0  0  0  0  0  0  0  0
  161.7360  207.1360  149.2980 C   0  0  0  0  0  0  0  0  0  0  0  0
  162.0260  208.4960  148.7470 C   0  0  0  0  0  1  0  0  0  0  0  0
  161.0930  204.5770  150.2620 C   0  0  0  0  0  0  0  0  0  0  0  0
  161.2490  202.8240  151.8590 O   0  0  0  0  0  0  0  0  0  0  0  0
  160.7500  203.2520  150.7840 C   0  0  0  0  0  3  0  0  0  0  0  0
  158.7400  210.4020  155.7610 C   0  0  0  0  0  2  0  0  0  0  0  0
  158.4160  211.6030  156.5120 N   0  0  0  0  0  2  0  0  0  0  0  0
  156.9850  211.7980  156.3880 C   0  0  0  0  0  1  0  0  0  0  0  0
  1  3  1  0  0  0  0
  1  4  2  0  0  0  0
  2  4  1  0  0  0  0
  2  5  1  0  0  0  0
  3 17  1  0  0  0  0
  4 10  1  0  0  0  0
  5 16  1  0  0  0  0
  6 19  2  0  0  0  0
  6 18  1  0  0  0  0
  7  2  1  0  0  0  0
  8  9  1  0  0  0  0
  9 11  1  0  0  0  0
 10 16  1  0  0  0  0
 10 12  1  0  0  0  0
 11  5  2  0  0  0  0
 13 14  1  0  0  0  0
 13  7  2  0  0  0  0
 14  1  1  0  0  0  0
 15  7  1  0  0  0  0
 15  9  2  0  0  0  0
 16 30  1  6  0  0  0
 17 12  1  0  0  0  0
 18  8  2  0  0  0  0
 19 15  1  0  0  0  0
 20 23  2  0  0  0  0
 20 25  1  0  0  0  0
 21 20  1  0  0  0  0
 23 27  1  0  0  0  0
 24 22  1  0  0  0  0
 24 14  1  0  0  0  0
 25 24  2  0  0  0  0
 26 25  1  0  0  0  0
 27 29  1  0  0  0  0
 27 22  2  0  0  0  0
 29 28  2  0  0  0  0
 30 31  1  0  0  0  0
 32 31  1  0  0  0  0
M  END
>  <MODEL>
7

>  <REMARK>
 VINA RESULT:      -6.6      2.643      4.189
  Name = 
  4 active torsions:
  status: ('A' for Active; 'I' for Inactive)
    1  A    between atoms: N_13  and  C_18
    2  A    between atoms: C_15  and  C_26
    3  A    between atoms: C_18  and  C_29
    4  A    between atoms: C_20  and  N_27
                            x       y       z     vdW  Elec       q    Type
                         _______ _______ _______ _____ _____    ______ ____

>  <TORSDO>
F 4

$$$$
=
 OpenBabel11062408263D

 32 37  0  0  1  0  0  0  0  0999 V2000
  161.8130  210.2510  149.4000 C   0  0  0  0  0  0  0  0  0  0  0  0
  161.6030  210.4880  151.7450 N   0  0  0  0  0  0  0  0  0  0  0  0
  161.9570  209.3130  148.2210 C   0  0  0  0  0  2  0  0  0  0  0  0
  162.0140  209.7700  150.6250 C   0  0  0  0  0  0  0  0  0  0  0  0
  161.4630  209.5440  152.7810 C   0  0  0  0  0  0  0  0  0  0  0  0
  158.8480  213.6030  154.2560 C   0  0  0  0  0  3  0  0  0  0  0  0
  160.8040  211.6520  151.6630 C   0  0  0  0  0  0  0  0  0  0  0  0
  159.5170  211.4660  155.1910 C   0  0  0  0  0  3  0  0  0  0  0  0
  160.1560  211.1320  153.9940 C   0  0  0  0  0  0  0  0  0  0  0  0
  162.2870  208.4090  150.9200 N   0  0  0  0  0  0  0  0  0  0  0  0
  160.7700  209.8280  153.8460 N   0  0  0  0  0  0  0  0  0  0  0  0
  162.3850  207.4110  149.8560 C   0  0  0  0  0  2  0  0  0  0  0  0
  160.6130  212.1990  150.4520 C   0  0  0  0  0  3  0  0  0  0  0  0
  161.1990  211.5660  149.2810 N   0  0  0  0  0  0  0  0  0  0  0  0
  160.1310  212.0550  152.9100 C   0  0  0  0  0  0  0  0  0  0  0  0
  161.9190  208.1700  152.3310 C   0  0  2  0  0  3  0  0  0  0  0  0
  162.8340  208.0880  148.5520 C   0  0  0  0  0  2  0  0  0  0  0  0
  158.8710  212.6990  155.3230 C   0  0  0  0  0  3  0  0  0  0  0  0
  159.4740  213.2830  153.0480 C   0  0  0  0  0  3  0  0  0  0  0  0
  161.9000  213.2600  145.9970 C   0  0  0  0  0  0  0  0  0  0  0  0
  162.9680  213.7300  145.2420 O   0  0  0  0  0  1  0  0  0  0  0  0
  159.7210  212.3420  147.4890 C   0  0  0  0  0  3  0  0  0  0  0  0
  160.6020  213.3930  145.5000 C   0  0  0  0  0  3  0  0  0  0  0  0
  161.0180  212.1890  147.9990 C   0  0  0  0  0  0  0  0  0  0  0  0
  162.1170  212.6630  147.2500 C   0  0  0  0  0  0  0  0  0  0  0  0
  163.5080  212.5790  147.7940 C   0  0  0  0  0  1  0  0  0  0  0  0
  159.5090  212.9380  146.2450 C   0  0  0  0  0  0  0  0  0  0  0  0
  157.2630  212.2060  145.9900 O   0  0  0  0  0  0  0  0  0  0  0  0
  158.1400  213.0750  145.7410 C   0  0  0  0  0  3  0  0  0  0  0  0
  160.7650  207.1770  152.4100 C   0  0  0  0  0  2  0  0  0  0  0  0
  161.0960  206.1020  153.3300 N   0  0  0  0  0  2  0  0  0  0  0  0
  161.2190  204.8960  152.5340 C   0  0  0  0  0  1  0  0  0  0  0  0
  1  4  2  0  0  0  0
  2  5  1  0  0  0  0
  3 17  1  0  0  0  0
  3  1  1  0  0  0  0
  4 10  1  0  0  0  0
  4  2  1  0  0  0  0
  5 11  2  0  0  0  0
  6 18  1  0  0  0  0
  7  2  1  0  0  0  0
  7 15  1  0  0  0  0
  8 18  2  0  0  0  0
  9  8  1  0  0  0  0
 10 16  1  0  0  0  0
 11  9  1  0  0  0  0
 12 10  1  0  0  0  0
 13  7  2  0  0  0  0
 14  1  1  0  0  0  0
 14 13  1  0  0  0  0
 15 19  1  0  0  0  0
 15  9  2  0  0  0  0
 16 30  1  6  0  0  0
 16  5  1  0  0  0  0
 17 12  1  0  0  0  0
 19  6  2  0  0  0  0
 20 25  1  0  0  0  0
 21 20  1  0  0  0  0
 22 24  1  0  0  0  0
 23 20  2  0  0  0  0
 23 27  1  0  0  0  0
 24 14  1  0  0  0  0
 25 26  1  0  0  0  0
 25 24  2  0  0  0  0
 27 22  2  0  0  0  0
 29 28  2  0  0  0  0
 29 27  1  0  0  0  0
 30 31  1  0  0  0  0
 32 31  1  0  0  0  0
M  END
>  <MODEL>
8

>  <REMARK>
 VINA RESULT:      -6.6      4.097      6.884
  Name = 
  4 active torsions:
  status: ('A' for Active; 'I' for Inactive)
    1  A    between atoms: N_13  and  C_18
    2  A    between atoms: C_15  and  C_26
    3  A    between atoms: C_18  and  C_29
    4  A    between atoms: C_20  and  N_27
                            x       y       z     vdW  Elec       q    Type
                         _______ _______ _______ _____ _____    ______ ____

>  <TORSDO>
F 4

$$$$
=
 OpenBabel11062408263D

 32 37  0  0  1  0  0  0  0  0999 V2000
  161.2150  211.0820  151.0910 C   0  0  0  0  0  0  0  0  0  0  0  0
  162.0330  208.8610  151.0570 N   0  0  0  0  0  0  0  0  0  0  0  0
  160.7920  212.2970  150.2950 C   0  0  0  0  0  2  0  0  0  0  0  0
  161.8890  210.1160  150.4710 C   0  0  0  0  0  0  0  0  0  0  0  0
  162.2910  207.9670  150.0020 C   0  0  0  0  0  0  0  0  0  0  0  0
  160.7850  205.1130  153.8850 C   0  0  0  0  0  3  0  0  0  0  0  0
  161.3420  208.4760  152.2300 C   0  0  0  0  0  0  0  0  0  0  0  0
  161.6640  204.7760  151.6480 C   0  0  0  0  0  3  0  0  0  0  0  0
  161.7140  206.1580  151.4500 C   0  0  0  0  0  0  0  0  0  0  0  0
  162.1830  210.1050  149.0820 N   0  0  0  0  0  0  0  0  0  0  0  0
  162.1320  206.6850  150.1660 N   0  0  0  0  0  0  0  0  0  0  0  0
  161.7630  211.2030  148.2130 C   0  0  0  0  0  2  0  0  0  0  0  0
  160.6870  209.4270  152.9150 C   0  0  0  0  0  3  0  0  0  0  0  0
  160.6850  210.7930  152.4170 N   0  0  0  0  0  0  0  0  0  0  0  0
  161.2850  207.0270  152.4920 C   0  0  0  0  0  0  0  0  0  0  0  0
  162.4350  208.7040  148.6850 C   0  0  2  0  0  3  0  0  0  0  0  0
  161.6550  212.4990  149.0330 C   0  0  0  0  0  2  0  0  0  0  0  0
  161.2060  204.2560  152.8630 C   0  0  0  0  0  3  0  0  0  0  0  0
  160.8200  206.4990  153.7010 C   0  0  0  0  0  3  0  0  0  0  0  0
  159.6230  213.0010  155.2710 C   0  0  0  0  0  0  0  0  0  0  0  0
  159.8880  213.2090  156.6190 O   0  0  0  0  0  1  0  0  0  0  0  0
  159.0460  212.6070  152.5630 C   0  0  0  0  0  3  0  0  0  0  0  0
  158.6710  213.7990  154.6320 C   0  0  0  0  0  3  0  0  0  0  0  0
  160.0130  211.8050  153.1850 C   0  0  0  0  0  0  0  0  0  0  0  0
  160.2960  211.9960  154.5550 C   0  0  0  0  0  0  0  0  0  0  0  0
  161.2710  211.1140  155.2680 C   0  0  0  0  0  1  0  0  0  0  0  0
  158.3770  213.6020  153.2780 C   0  0  0  0  0  0  0  0  0  0  0  0
  156.2980  213.9290  152.1760 O   0  0  0  0  0  0  0  0  0  0  0  0
  157.3770  214.4260  152.5940 C   0  0  0  0  0  3  0  0  0  0  0  0
  161.3680  208.2400  147.6990 C   0  0  0  0  0  2  0  0  0  0  0  0
  161.8500  207.0930  146.9490 N   0  0  0  0  0  2  0  0  0  0  0  0
  160.8350  206.0640  147.0630 C   0  0  0  0  0  1  0  0  0  0  0  0
  1 14  1  0  0  0  0
  2  7  1  0  0  0  0
  3  1  1  0  0  0  0
  4  2  1  0  0  0  0
  4  1  2  0  0  0  0
  5 11  2  0  0  0  0
  5  2  1  0  0  0  0
  7 15  1  0  0  0  0
  7 13  2  0  0  0  0
  8 18  1  0  0  0  0
  9  8  2  0  0  0  0
  9 15  1  0  0  0  0
 10  4  1  0  0  0  0
 11  9  1  0  0  0  0
 12 17  1  0  0  0  0
 12 10  1  0  0  0  0
 14 13  1  0  0  0  0
 14 24  1  0  0  0  0
 15 19  2  0  0  0  0
 16 30  1  6  0  0  0
 16 10  1  0  0  0  0
 16  5  1  0  0  0  0
 17  3  1  0  0  0  0
 18  6  2  0  0  0  0
 19  6  1  0  0  0  0
 20 21  1  0  0  0  0
 22 24  2  0  0  0  0
 22 27  1  0  0  0  0
 23 20  1  0  0  0  0
 24 25  1  0  0  0  0
 25 26  1  0  0  0  0
 25 20  2  0  0  0  0
 27 23  2  0  0  0  0
 28 29  2  0  0  0  0
 29 27  1  0  0  0  0
 31 32  1  0  0  0  0
 31 30  1  0  0  0  0
M  END
>  <MODEL>
9

>  <REMARK>
 VINA RESULT:      -6.5      4.406      9.005
  Name = 
  4 active torsions:
  status: ('A' for Active; 'I' for Inactive)
    1  A    between atoms: N_13  and  C_18
    2  A    between atoms: C_15  and  C_26
    3  A    between atoms: C_18  and  C_29
    4  A    between atoms: C_20  and  N_27
                            x       y       z     vdW  Elec       q    Type
                         _______ _______ _______ _____ _____    ______ ____

>  <TORSDO>
F 4

$$$$
