=
 OpenBabel11052422433D

 31 34  0  0  1  0  0  0  0  0999 V2000
  160.9930  210.1370  152.5080 C   0  0  2  0  0  3  0  0  0  0  0  0
  161.6790  208.0460  151.5240 C   0  0  2  0  0  3  0  0  0  0  0  0
  161.2510  207.7710  152.9570 C   0  0  0  0  0  2  0  0  0  0  0  0
  161.2220  209.4610  151.1710 C   0  0  2  0  0  3  0  0  0  0  0  0
  160.5950  209.0440  153.4790 C   0  0  1  0  0  3  0  0  0  0  0  0
  160.0000  211.2580  152.4310 C   0  0  0  0  0  0  0  0  0  0  0  0
  159.3600  213.4020  151.4940 C   0  0  0  0  0  3  0  0  0  0  0  0
  160.2620  212.3380  151.5810 C   0  0  0  0  0  3  0  0  0  0  0  0
  158.1950  213.3890  152.2620 C   0  0  0  0  0  3  0  0  0  0  0  0
  156.7990  212.3220  153.8700 F   0  0  0  0  0  0  0  0  0  0  0  0
  158.8270  211.2510  153.2030 C   0  0  0  0  0  3  0  0  0  0  0  0
  157.9280  212.3180  153.1190 C   0  0  0  0  0  0  0  0  0  0  0  0
  162.3970  210.7510  156.2680 C   0  0  0  0  0  2  0  0  0  0  0  0
  161.0350  209.3900  154.9060 C   0  0  2  0  0  3  0  0  0  0  0  0
  161.9880  208.4270  157.0260 C   0  0  0  0  0  3  0  0  0  0  0  0
  162.5460  209.6240  157.2610 C   0  0  0  0  0  3  0  0  0  0  0  0
  162.2340  210.2300  154.9130 N   0  0  0  0  0  2  0  0  0  0  0  0
  161.2780  208.1180  155.7310 C   0  0  0  0  0  2  0  0  0  0  0  0
  161.1920  205.6350  151.3660 C   0  0  0  0  0  1  0  0  0  0  0  0
  161.1720  206.9420  150.5870 C   0  0  2  0  0  3  0  0  0  0  0  0
  161.9840  206.8430  149.4430 O   0  0  0  0  0  0  0  0  0  0  0  0
  160.1130  206.1950  148.3130 O   0  0  0  0  0  0  0  0  0  0  0  0
  160.5600  206.2690  145.9640 C   0  0  0  0  0  1  0  0  0  0  0  0
  161.1160  205.9910  147.3520 C   0  0  1  0  0  0  0  0  0  0  0  0
  161.1800  207.1150  148.3230 C   0  0  2  0  0  3  0  0  0  0  0  0
  161.8730  204.6850  147.6160 C   0  0  0  0  0  2  0  0  0  0  0  0
  160.9290  203.4890  147.6550 C   0  0  0  0  0  3  0  0  0  0  0  0
  161.0980  202.7420  148.9610 C   0  0  0  0  0  1  0  0  0  0  0  0
  161.1910  202.5450  146.4960 C   0  0  0  0  0  1  0  0  0  0  0  0
  161.9620  210.4430  149.1150 O   0  0  0  0  0  1  0  0  0  0  0  0
  162.3300  210.2020  150.4370 C   0  0  0  0  0  2  0  0  0  0  0  0
  1  6  1  6  0  0  0
  1  5  1  0  0  0  0
  2 20  1  6  0  0  0
  2  3  1  0  0  0  0
  4 31  1  1  0  0  0
  4  2  1  0  0  0  0
  4  1  1  0  0  0  0
  5  3  1  6  0  0  0
  5 14  1  0  0  0  0
  6 11  1  0  0  0  0
  7  8  1  0  0  0  0
  7  9  2  0  0  0  0
  8  6  2  0  0  0  0
  9 12  1  0  0  0  0
 12 11  2  0  0  0  0
 12 10  1  0  0  0  0
 13 16  1  0  0  0  0
 14 17  1  0  0  0  0
 14 18  1  1  0  0  0
 15 16  2  0  0  0  0
 17 13  1  0  0  0  0
 18 15  1  0  0  0  0
 20 19  1  1  0  0  0
 21 20  1  0  0  0  0
 22 25  1  0  0  0  0
 24 23  1  6  0  0  0
 24 26  1  0  0  0  0
 24 22  1  0  0  0  0
 24 25  1  0  0  0  0
 25 21  1  1  0  0  0
 26 27  1  0  0  0  0
 27 28  1  0  0  0  0
 29 27  1  0  0  0  0
 30 31  1  0  0  0  0
M  END
>  <MODEL>
1

>  <REMARK>
 VINA RESULT:      -7.5      0.000      0.000
  Name = 
  8 active torsions:
  status: ('A' for Active; 'I' for Inactive)
    1  A    between atoms: C_1  and  C_24
    2  A    between atoms: C_4  and  C_5
    3  A    between atoms: C_9  and  C_15
    4  A    between atoms: C_9  and  O_23
    5  A    between atoms: C_12  and  C_27
    6  A    between atoms: C_19  and  C_24
    7  A    between atoms: C_21  and  C_29
    8  A    between atoms: C_22  and  O_23
                            x       y       z     vdW  Elec       q    Type
                         _______ _______ _______ _____ _____    ______ ____

>  <TORSDO>
F 8

$$$$
=
 OpenBabel11052422433D

 31 34  0  0  1  0  0  0  0  0999 V2000
  160.9900  209.5290  153.4880 C   0  0  2  0  0  3  0  0  0  0  0  0
  161.1900  208.7770  151.2060 C   0  0  2  0  0  3  0  0  0  0  0  0
  160.9190  210.2730  151.1840 C   0  0  0  0  0  2  0  0  0  0  0  0
  161.5340  208.3940  152.6450 C   0  0  2  0  0  3  0  0  0  0  0  0
  161.0410  210.7710  152.6190 C   0  0  1  0  0  3  0  0  0  0  0  0
  161.7120  209.6850  154.7920 C   0  0  0  0  0  0  0  0  0  0  0  0
  161.9520  209.0420  157.1200 C   0  0  0  0  0  3  0  0  0  0  0  0
  161.3050  208.9140  155.8870 C   0  0  0  0  0  3  0  0  0  0  0  0
  163.0070  209.9460  157.2590 C   0  0  0  0  0  3  0  0  0  0  0  0
  164.4340  211.6080  156.3240 F   0  0  0  0  0  0  0  0  0  0  0  0
  162.7730  210.5930  154.9390 C   0  0  0  0  0  3  0  0  0  0  0  0
  163.4160  210.7240  156.1730 C   0  0  0  0  0  0  0  0  0  0  0  0
  157.7970  212.0280  153.9750 C   0  0  0  0  0  2  0  0  0  0  0  0
  159.9260  211.7530  152.9980 C   0  0  2  0  0  3  0  0  0  0  0  0
  158.3900  213.5280  152.0920 C   0  0  0  0  0  3  0  0  0  0  0  0
  157.5030  213.1710  153.0330 C   0  0  0  0  0  3  0  0  0  0  0  0
  158.6880  211.0540  153.3470 N   0  0  0  0  0  2  0  0  0  0  0  0
  159.6660  212.7540  151.8640 C   0  0  0  0  0  2  0  0  0  0  0  0
  162.1780  209.4410  149.0480 C   0  0  0  0  0  1  0  0  0  0  0  0
  162.2460  208.4030  150.1580 C   0  0  2  0  0  3  0  0  0  0  0  0
  162.0070  207.1170  149.6420 O   0  0  0  0  0  0  0  0  0  0  0  0
  160.1570  206.4130  148.5100 O   0  0  0  0  0  0  0  0  0  0  0  0
  160.7250  206.1100  146.2060 C   0  0  0  0  0  1  0  0  0  0  0  0
  161.1930  206.0120  147.6510 C   0  0  1  0  0  0  0  0  0  0  0  0
  161.2800  207.2630  148.4490 C   0  0  2  0  0  3  0  0  0  0  0  0
  161.8510  204.7200  148.1460 C   0  0  0  0  0  2  0  0  0  0  0  0
  160.8670  203.8540  148.9240 C   0  0  0  0  0  3  0  0  0  0  0  0
  161.2100  203.8840  150.3990 C   0  0  0  0  0  1  0  0  0  0  0  0
  160.8890  202.4190  148.4310 C   0  0  0  0  0  1  0  0  0  0  0  0
  161.6980  206.2110  153.6170 O   0  0  0  0  0  1  0  0  0  0  0  0
  160.8110  207.1130  153.0330 C   0  0  0  0  0  2  0  0  0  0  0  0
  1  6  1  1  0  0  0
  2 20  1  6  0  0  0
  2  4  1  0  0  0  0
  3  2  1  0  0  0  0
  4 31  1  1  0  0  0
  4  1  1  0  0  0  0
  5  3  1  6  0  0  0
  5 14  1  0  0  0  0
  5  1  1  0  0  0  0
  6 11  2  0  0  0  0
  6  8  1  0  0  0  0
  7  9  1  0  0  0  0
  8  7  2  0  0  0  0
 11 12  1  0  0  0  0
 12 10  1  0  0  0  0
 12  9  2  0  0  0  0
 14 18  1  6  0  0  0
 14 17  1  0  0  0  0
 15 16  2  0  0  0  0
 16 13  1  0  0  0  0
 17 13  1  0  0  0  0
 18 15  1  0  0  0  0
 20 19  1  6  0  0  0
 21 20  1  0  0  0  0
 24 23  1  6  0  0  0
 24 26  1  0  0  0  0
 24 25  1  0  0  0  0
 24 22  1  0  0  0  0
 25 22  1  0  0  0  0
 25 21  1  1  0  0  0
 26 27  1  0  0  0  0
 27 28  1  0  0  0  0
 29 27  1  0  0  0  0
 31 30  1  0  0  0  0
M  END
>  <MODEL>
2

>  <REMARK>
 VINA RESULT:      -7.3      1.970      4.428
  Name = 
  8 active torsions:
  status: ('A' for Active; 'I' for Inactive)
    1  A    between atoms: C_1  and  C_24
    2  A    between atoms: C_4  and  C_5
    3  A    between atoms: C_9  and  C_15
    4  A    between atoms: C_9  and  O_23
    5  A    between atoms: C_12  and  C_27
    6  A    between atoms: C_19  and  C_24
    7  A    between atoms: C_21  and  C_29
    8  A    between atoms: C_22  and  O_23
                            x       y       z     vdW  Elec       q    Type
                         _______ _______ _______ _____ _____    ______ ____

>  <TORSDO>
F 8

$$$$
=
 OpenBabel11052422433D

 31 34  0  0  1  0  0  0  0  0999 V2000
  161.7690  205.9230  149.5320 C   0  0  2  0  0  3  0  0  0  0  0  0
  161.8720  208.1660  150.4090 C   0  0  2  0  0  3  0  0  0  0  0  0
  161.2480  208.2330  149.0240 C   0  0  0  0  0  2  0  0  0  0  0  0
  161.9050  206.6970  150.8270 C   0  0  2  0  0  3  0  0  0  0  0  0
  160.9660  206.7990  148.5910 C   0  0  1  0  0  3  0  0  0  0  0  0
  161.1780  204.5590  149.7270 C   0  0  0  0  0  0  0  0  0  0  0  0
  160.1110  202.9520  151.1990 C   0  0  0  0  0  3  0  0  0  0  0  0
  160.6620  204.2180  150.9830 C   0  0  0  0  0  3  0  0  0  0  0  0
  160.0800  202.0210  150.1590 C   0  0  0  0  0  3  0  0  0  0  0  0
  160.5750  201.4340  147.9040 F   0  0  0  0  0  0  0  0  0  0  0  0
  161.1450  203.6190  148.6850 C   0  0  0  0  0  3  0  0  0  0  0  0
  160.5990  202.3510  148.9040 C   0  0  0  0  0  0  0  0  0  0  0  0
  160.5960  206.0330  144.9560 C   0  0  0  0  0  2  0  0  0  0  0  0
  161.3540  206.5380  147.1310 C   0  0  2  0  0  3  0  0  0  0  0  0
  162.7960  205.1170  145.6380 C   0  0  0  0  0  3  0  0  0  0  0  0
  161.8650  205.2630  144.6830 C   0  0  0  0  0  3  0  0  0  0  0  0
  160.2420  205.9640  146.3720 N   0  0  0  0  0  2  0  0  0  0  0  0
  162.5820  205.6210  147.0440 C   0  0  0  0  0  2  0  0  0  0  0  0
  161.3730  210.5310  150.8940 C   0  0  0  0  0  1  0  0  0  0  0  0
  161.1420  209.1060  151.3770 C   0  0  2  0  0  3  0  0  0  0  0  0
  161.6260  208.9500  152.6880 O   0  0  0  0  0  0  0  0  0  0  0  0
  162.3130  210.4320  154.2780 O   0  0  0  0  0  0  0  0  0  0  0  0
  160.4880  210.8870  155.7560 C   0  0  0  0  0  1  0  0  0  0  0  0
  161.1900  209.8530  154.8890 C   0  0  1  0  0  0  0  0  0  0  0  0
  161.2480  210.0870  153.4220 C   0  0  2  0  0  3  0  0  0  0  0  0
  161.5300  208.4790  155.4770 C   0  0  0  0  0  2  0  0  0  0  0  0
  160.2880  207.6060  155.6140 C   0  0  0  0  0  3  0  0  0  0  0  0
  160.1750  207.0920  157.0340 C   0  0  0  0  0  1  0  0  0  0  0  0
  160.3340  206.4320  154.6550 C   0  0  0  0  0  1  0  0  0  0  0  0
  163.0750  205.8320  152.7310 O   0  0  0  0  0  1  0  0  0  0  0  0
  163.2510  206.3610  151.4540 C   0  0  0  0  0  2  0  0  0  0  0  0
  1  6  1  1  0  0  0
  1  4  1  0  0  0  0
  2  4  1  0  0  0  0
  2 20  1  1  0  0  0
  3  2  1  0  0  0  0
  4 31  1  6  0  0  0
  5  3  1  1  0  0  0
  5  1  1  0  0  0  0
  6  8  1  0  0  0  0
  8  7  2  0  0  0  0
  9  7  1  0  0  0  0
 10 12  1  0  0  0  0
 11 12  1  0  0  0  0
 11  6  2  0  0  0  0
 12  9  2  0  0  0  0
 13 17  1  0  0  0  0
 14 18  1  1  0  0  0
 14  5  1  0  0  0  0
 15 18  1  0  0  0  0
 16 13  1  0  0  0  0
 16 15  2  0  0  0  0
 17 14  1  0  0  0  0
 20 19  1  6  0  0  0
 20 21  1  0  0  0  0
 22 24  1  0  0  0  0
 24 26  1  0  0  0  0
 24 23  1  1  0  0  0
 25 21  1  6  0  0  0
 25 22  1  0  0  0  0
 25 24  1  0  0  0  0
 26 27  1  0  0  0  0
 27 28  1  0  0  0  0
 29 27  1  0  0  0  0
 31 30  1  0  0  0  0
M  END
>  <MODEL>
3

>  <REMARK>
 VINA RESULT:      -6.8      3.681      8.516
  Name = 
  8 active torsions:
  status: ('A' for Active; 'I' for Inactive)
    1  A    between atoms: C_1  and  C_24
    2  A    between atoms: C_4  and  C_5
    3  A    between atoms: C_9  and  C_15
    4  A    between atoms: C_9  and  O_23
    5  A    between atoms: C_12  and  C_27
    6  A    between atoms: C_19  and  C_24
    7  A    between atoms: C_21  and  C_29
    8  A    between atoms: C_22  and  O_23
                            x       y       z     vdW  Elec       q    Type
                         _______ _______ _______ _____ _____    ______ ____

>  <TORSDO>
F 8

$$$$
=
 OpenBabel11052422433D

 31 34  0  0  1  0  0  0  0  0999 V2000
  161.6610  205.7630  149.5880 C   0  0  2  0  0  3  0  0  0  0  0  0
  161.6390  207.9670  150.5630 C   0  0  2  0  0  3  0  0  0  0  0  0
  161.0650  208.0710  149.1600 C   0  0  0  0  0  2  0  0  0  0  0  0
  161.7170  206.4830  150.9200 C   0  0  2  0  0  3  0  0  0  0  0  0
  160.8590  206.6480  148.6550 C   0  0  1  0  0  3  0  0  0  0  0  0
  161.1190  204.3690  149.7020 C   0  0  0  0  0  0  0  0  0  0  0  0
  160.1050  202.6440  151.0730 C   0  0  0  0  0  3  0  0  0  0  0  0
  160.6100  203.9390  150.9330 C   0  0  0  0  0  3  0  0  0  0  0  0
  160.1130  201.7730  149.9820 C   0  0  0  0  0  3  0  0  0  0  0  0
  160.6390  201.3330  147.7010 F   0  0  0  0  0  0  0  0  0  0  0  0
  161.1260  203.4890  148.6080 C   0  0  0  0  0  3  0  0  0  0  0  0
  160.6250  202.1920  148.7510 C   0  0  0  0  0  0  0  0  0  0  0  0
  160.6530  206.0570  144.9740 C   0  0  0  0  0  2  0  0  0  0  0  0
  161.3110  206.4670  147.2010 C   0  0  2  0  0  3  0  0  0  0  0  0
  162.8400  205.1470  145.7020 C   0  0  0  0  0  3  0  0  0  0  0  0
  161.9470  205.3240  144.7170 C   0  0  0  0  0  3  0  0  0  0  0  0
  160.2430  205.9120  146.3690 N   0  0  0  0  0  2  0  0  0  0  0  0
  162.5590  205.5760  147.1210 C   0  0  0  0  0  2  0  0  0  0  0  0
  161.5470  210.1760  151.6540 C   0  0  0  0  0  1  0  0  0  0  0  0
  160.8370  208.8350  151.5420 C   0  0  2  0  0  3  0  0  0  0  0  0
  160.7500  208.2190  152.8030 O   0  0  0  0  0  0  0  0  0  0  0  0
  161.5470  208.2870  154.9380 O   0  0  0  0  0  0  0  0  0  0  0  0
  161.8710  210.5700  155.5740 C   0  0  0  0  0  1  0  0  0  0  0  0
  161.0280  209.5820  154.7820 C   0  0  1  0  0  0  0  0  0  0  0  0
  161.6690  208.8550  153.6540 C   0  0  2  0  0  3  0  0  0  0  0  0
  159.5040  209.5880  154.9440 C   0  0  0  0  0  2  0  0  0  0  0  0
  158.9360  210.9980  154.8400 C   0  0  0  0  0  3  0  0  0  0  0  0
  157.6600  211.1000  155.6490 C   0  0  0  0  0  1  0  0  0  0  0  0
  158.6490  211.3700  153.3970 C   0  0  0  0  0  1  0  0  0  0  0  0
  162.8530  205.7180  152.8860 O   0  0  0  0  0  1  0  0  0  0  0  0
  163.0510  206.1730  151.5840 C   0  0  0  0  0  2  0  0  0  0  0  0
  1  6  1  1  0  0  0
  1  4  1  0  0  0  0
  2  4  1  0  0  0  0
  2 20  1  1  0  0  0
  3  2  1  0  0  0  0
  4 31  1  6  0  0  0
  5  3  1  1  0  0  0
  5  1  1  0  0  0  0
  6  8  1  0  0  0  0
  8  7  2  0  0  0  0
  9  7  1  0  0  0  0
 10 12  1  0  0  0  0
 11 12  1  0  0  0  0
 11  6  2  0  0  0  0
 12  9  2  0  0  0  0
 13 17  1  0  0  0  0
 14 18  1  1  0  0  0
 14  5  1  0  0  0  0
 15 18  1  0  0  0  0
 16 13  1  0  0  0  0
 16 15  2  0  0  0  0
 17 14  1  0  0  0  0
 20 19  1  1  0  0  0
 20 21  1  0  0  0  0
 24 22  1  0  0  0  0
 24 26  1  0  0  0  0
 24 23  1  1  0  0  0
 25 21  1  6  0  0  0
 25 24  1  0  0  0  0
 25 22  1  0  0  0  0
 27 26  1  0  0  0  0
 27 28  1  0  0  0  0
 29 27  1  0  0  0  0
 31 30  1  0  0  0  0
M  END
>  <MODEL>
4

>  <REMARK>
 VINA RESULT:      -6.7      3.533      8.771
  Name = 
  8 active torsions:
  status: ('A' for Active; 'I' for Inactive)
    1  A    between atoms: C_1  and  C_24
    2  A    between atoms: C_4  and  C_5
    3  A    between atoms: C_9  and  C_15
    4  A    between atoms: C_9  and  O_23
    5  A    between atoms: C_12  and  C_27
    6  A    between atoms: C_19  and  C_24
    7  A    between atoms: C_21  and  C_29
    8  A    between atoms: C_22  and  O_23
                            x       y       z     vdW  Elec       q    Type
                         _______ _______ _______ _____ _____    ______ ____

>  <TORSDO>
F 8

$$$$
=
 OpenBabel11052422433D

 31 34  0  0  1  0  0  0  0  0999 V2000
  161.1980  209.2280  152.5620 C   0  0  2  0  0  3  0  0  0  0  0  0
  161.4050  206.8940  151.9960 C   0  0  2  0  0  3  0  0  0  0  0  0
  161.0730  206.9890  153.4760 C   0  0  0  0  0  2  0  0  0  0  0  0
  161.1750  208.2760  151.3840 C   0  0  2  0  0  3  0  0  0  0  0  0
  160.7060  208.4400  153.7600 C   0  0  1  0  0  3  0  0  0  0  0  0
  160.4160  210.4830  152.3120 C   0  0  0  0  0  0  0  0  0  0  0  0
  158.4530  211.8310  152.7770 C   0  0  0  0  0  3  0  0  0  0  0  0
  159.2100  210.6760  152.9940 C   0  0  0  0  0  3  0  0  0  0  0  0
  158.9010  212.7940  151.8720 C   0  0  0  0  0  3  0  0  0  0  0  0
  160.5200  213.5440  150.2930 F   0  0  0  0  0  0  0  0  0  0  0  0
  160.8610  211.4540  151.4000 C   0  0  0  0  0  3  0  0  0  0  0  0
  160.1010  212.6070  151.1800 C   0  0  0  0  0  0  0  0  0  0  0  0
  160.9540  209.7320  157.2540 C   0  0  0  0  0  2  0  0  0  0  0  0
  161.3340  208.9640  155.0570 C   0  0  2  0  0  3  0  0  0  0  0  0
  162.8480  210.7340  156.0080 C   0  0  0  0  0  3  0  0  0  0  0  0
  162.1460  210.6520  157.1480 C   0  0  0  0  0  3  0  0  0  0  0  0
  160.3270  209.5430  155.9480 N   0  0  0  0  0  2  0  0  0  0  0  0
  162.4300  209.9960  154.7600 C   0  0  0  0  0  2  0  0  0  0  0  0
  160.9220  204.4800  152.1250 C   0  0  0  0  0  1  0  0  0  0  0  0
  160.6240  205.7490  151.3390 C   0  0  2  0  0  3  0  0  0  0  0  0
  161.0010  205.5910  149.9930 O   0  0  0  0  0  0  0  0  0  0  0  0
  162.3600  204.0060  149.0770 O   0  0  0  0  0  0  0  0  0  0  0  0
  161.0170  202.4230  147.8910 C   0  0  0  0  0  1  0  0  0  0  0  0
  161.1990  203.8770  148.2990 C   0  0  1  0  0  0  0  0  0  0  0  0
  161.1370  204.2150  149.7450 C   0  0  2  0  0  3  0  0  0  0  0  0
  161.1250  204.9770  147.2340 C   0  0  0  0  0  2  0  0  0  0  0  0
  161.6280  204.4820  145.8830 C   0  0  0  0  0  3  0  0  0  0  0  0
  163.1190  204.7250  145.7690 C   0  0  0  0  0  1  0  0  0  0  0  0
  160.9150  205.1820  144.7420 C   0  0  0  0  0  1  0  0  0  0  0  0
  161.8750  208.6960  149.1320 O   0  0  0  0  0  1  0  0  0  0  0  0
  162.3220  208.6320  150.4500 C   0  0  0  0  0  2  0  0  0  0  0  0
  1  6  1  6  0  0  0
  1  5  1  0  0  0  0
  2 20  1  6  0  0  0
  2  3  1  0  0  0  0
  4 31  1  6  0  0  0
  4  2  1  0  0  0  0
  4  1  1  0  0  0  0
  5  3  1  6  0  0  0
  5 14  1  0  0  0  0
  6  8  1  0  0  0  0
  7  8  2  0  0  0  0
  9  7  1  0  0  0  0
 10 12  1  0  0  0  0
 11  6  2  0  0  0  0
 12 11  1  0  0  0  0
 12  9  2  0  0  0  0
 14 18  1  6  0  0  0
 14 17  1  0  0  0  0
 15 16  2  0  0  0  0
 16 13  1  0  0  0  0
 17 13  1  0  0  0  0
 18 15  1  0  0  0  0
 20 19  1  1  0  0  0
 21 20  1  0  0  0  0
 22 25  1  0  0  0  0
 24 23  1  6  0  0  0
 24 22  1  0  0  0  0
 24 25  1  0  0  0  0
 25 21  1  6  0  0  0
 26 24  1  0  0  0  0
 27 26  1  0  0  0  0
 28 27  1  0  0  0  0
 29 27  1  0  0  0  0
 30 31  1  0  0  0  0
M  END
>  <MODEL>
5

>  <REMARK>
 VINA RESULT:      -6.6      1.630      2.390
  Name = 
  8 active torsions:
  status: ('A' for Active; 'I' for Inactive)
    1  A    between atoms: C_1  and  C_24
    2  A    between atoms: C_4  and  C_5
    3  A    between atoms: C_9  and  C_15
    4  A    between atoms: C_9  and  O_23
    5  A    between atoms: C_12  and  C_27
    6  A    between atoms: C_19  and  C_24
    7  A    between atoms: C_21  and  C_29
    8  A    between atoms: C_22  and  O_23
                            x       y       z     vdW  Elec       q    Type
                         _______ _______ _______ _____ _____    ______ ____

>  <TORSDO>
F 8

$$$$
=
 OpenBabel11052422433D

 31 34  0  0  1  0  0  0  0  0999 V2000
  161.7810  205.8030  149.4070 C   0  0  2  0  0  3  0  0  0  0  0  0
  161.9100  208.0580  150.2490 C   0  0  2  0  0  3  0  0  0  0  0  0
  161.2520  208.1070  148.8800 C   0  0  0  0  0  2  0  0  0  0  0  0
  161.9500  206.5940  150.6870 C   0  0  2  0  0  3  0  0  0  0  0  0
  160.9560  206.6680  148.4740 C   0  0  1  0  0  3  0  0  0  0  0  0
  161.1910  204.4430  149.6360 C   0  0  0  0  0  0  0  0  0  0  0  0
  160.0810  202.8890  151.1320 C   0  0  0  0  0  3  0  0  0  0  0  0
  160.6310  204.1500  150.8840 C   0  0  0  0  0  3  0  0  0  0  0  0
  160.0960  201.9170  150.1310 C   0  0  0  0  0  3  0  0  0  0  0  0
  160.6780  201.2420  147.9220 F   0  0  0  0  0  0  0  0  0  0  0  0
  161.2040  203.4610  148.6330 C   0  0  0  0  0  3  0  0  0  0  0  0
  160.6590  202.1980  148.8830 C   0  0  0  0  0  0  0  0  0  0  0  0
  160.4960  205.8280  144.8660 C   0  0  0  0  0  2  0  0  0  0  0  0
  161.3070  206.3850  147.0080 C   0  0  2  0  0  3  0  0  0  0  0  0
  162.7280  204.9580  145.5010 C   0  0  0  0  0  3  0  0  0  0  0  0
  161.7690  205.0720  144.5710 C   0  0  0  0  0  3  0  0  0  0  0  0
  160.1830  205.7800  146.2920 N   0  0  0  0  0  2  0  0  0  0  0  0
  162.5460  205.4850  146.9030 C   0  0  0  0  0  2  0  0  0  0  0  0
  161.9290  210.3510  151.1520 C   0  0  0  0  0  1  0  0  0  0  0  0
  161.2070  209.0140  151.2220 C   0  0  2  0  0  3  0  0  0  0  0  0
  161.2390  208.5080  152.5340 O   0  0  0  0  0  0  0  0  0  0  0  0
  160.1950  210.3840  153.2980 O   0  0  0  0  0  0  0  0  0  0  0  0
  159.2620  209.9300  155.4540 C   0  0  0  0  0  1  0  0  0  0  0  0
  160.4060  209.6670  154.4860 C   0  0  1  0  0  0  0  0  0  0  0  0
  160.0980  208.9810  153.2030 C   0  0  2  0  0  3  0  0  0  0  0  0
  161.8540  209.8130  154.9680 C   0  0  0  0  0  2  0  0  0  0  0  0
  161.9350  209.8590  156.4890 C   0  0  0  0  0  3  0  0  0  0  0  0
  163.1170  210.7040  156.9160 C   0  0  0  0  0  1  0  0  0  0  0  0
  162.0740  208.4650  157.0730 C   0  0  0  0  0  1  0  0  0  0  0  0
  163.1710  205.8250  152.6000 O   0  0  0  0  0  1  0  0  0  0  0  0
  163.3110  206.2640  151.2850 C   0  0  0  0  0  2  0  0  0  0  0  0
  1  6  1  1  0  0  0
  1  4  1  0  0  0  0
  2  4  1  0  0  0  0
  2 20  1  1  0  0  0
  3  2  1  0  0  0  0
  4 31  1  6  0  0  0
  5  3  1  1  0  0  0
  5  1  1  0  0  0  0
  6  8  1  0  0  0  0
  8  7  2  0  0  0  0
  9  7  1  0  0  0  0
 10 12  1  0  0  0  0
 11 12  1  0  0  0  0
 11  6  2  0  0  0  0
 12  9  2  0  0  0  0
 13 17  1  0  0  0  0
 14 18  1  1  0  0  0
 14  5  1  0  0  0  0
 15 18  1  0  0  0  0
 16 13  1  0  0  0  0
 16 15  2  0  0  0  0
 17 14  1  0  0  0  0
 20 19  1  1  0  0  0
 20 21  1  0  0  0  0
 22 24  1  0  0  0  0
 24 26  1  0  0  0  0
 24 23  1  1  0  0  0
 25 21  1  6  0  0  0
 25 22  1  0  0  0  0
 25 24  1  0  0  0  0
 26 27  1  0  0  0  0
 27 28  1  0  0  0  0
 27 29  1  0  0  0  0
 31 30  1  0  0  0  0
M  END
>  <MODEL>
6

>  <REMARK>
 VINA RESULT:      -5.8      3.691      8.805
  Name = 
  8 active torsions:
  status: ('A' for Active; 'I' for Inactive)
    1  A    between atoms: C_1  and  C_24
    2  A    between atoms: C_4  and  C_5
    3  A    between atoms: C_9  and  C_15
    4  A    between atoms: C_9  and  O_23
    5  A    between atoms: C_12  and  C_27
    6  A    between atoms: C_19  and  C_24
    7  A    between atoms: C_21  and  C_29
    8  A    between atoms: C_22  and  O_23
                            x       y       z     vdW  Elec       q    Type
                         _______ _______ _______ _____ _____    ______ ____

>  <TORSDO>
F 8

$$$$
=
 OpenBabel11052422433D

 31 34  0  0  1  0  0  0  0  0999 V2000
  161.8090  205.6950  149.8680 C   0  0  2  0  0  3  0  0  0  0  0  0
  162.0220  207.7660  151.0830 C   0  0  2  0  0  3  0  0  0  0  0  0
  161.2370  208.0480  149.8120 C   0  0  0  0  0  2  0  0  0  0  0  0
  162.1000  206.2490  151.2480 C   0  0  2  0  0  3  0  0  0  0  0  0
  160.9020  206.7000  149.1860 C   0  0  1  0  0  3  0  0  0  0  0  0
  161.2410  204.3080  149.9050 C   0  0  0  0  0  0  0  0  0  0  0  0
  160.2590  202.5030  151.1940 C   0  0  0  0  0  3  0  0  0  0  0  0
  160.7860  203.7950  151.1250 C   0  0  0  0  0  3  0  0  0  0  0  0
  160.1910  201.7180  150.0420 C   0  0  0  0  0  3  0  0  0  0  0  0
  160.5920  201.4420  147.7100 F   0  0  0  0  0  0  0  0  0  0  0  0
  161.1730  203.5130  148.7500 C   0  0  0  0  0  3  0  0  0  0  0  0
  160.6500  202.2190  148.8210 C   0  0  0  0  0  0  0  0  0  0  0  0
  160.1600  206.2510  145.5540 C   0  0  0  0  0  2  0  0  0  0  0  0
  161.1130  206.6870  147.6670 C   0  0  2  0  0  3  0  0  0  0  0  0
  162.5810  205.7960  145.8300 C   0  0  0  0  0  3  0  0  0  0  0  0
  161.5080  205.8240  145.0250 C   0  0  0  0  0  3  0  0  0  0  0  0
  160.0460  205.9560  146.9810 N   0  0  0  0  0  2  0  0  0  0  0  0
  162.4790  206.0880  147.3060 C   0  0  0  0  0  2  0  0  0  0  0  0
  160.7220  207.5010  153.1610 C   0  0  0  0  0  1  0  0  0  0  0  0
  161.4150  208.5230  152.2720 C   0  0  2  0  0  3  0  0  0  0  0  0
  160.4970  209.4940  151.8340 O   0  0  0  0  0  0  0  0  0  0  0  0
  158.7850  210.7080  152.7230 O   0  0  0  0  0  0  0  0  0  0  0  0
  159.6850  212.6390  153.8110 C   0  0  0  0  0  1  0  0  0  0  0  0
  159.8100  211.6640  152.6490 C   0  0  1  0  0  0  0  0  0  0  0  0
  160.0930  210.2370  152.9560 C   0  0  2  0  0  3  0  0  0  0  0  0
  159.9580  212.2030  151.2230 C   0  0  0  0  0  2  0  0  0  0  0  0
  159.5670  213.6740  151.1360 C   0  0  0  0  0  3  0  0  0  0  0  0
  158.1280  213.7970  150.6810 C   0  0  0  0  0  1  0  0  0  0  0  0
  160.4670  214.4260  150.1750 C   0  0  0  0  0  1  0  0  0  0  0  0
  163.5500  205.4820  152.9940 O   0  0  0  0  0  1  0  0  0  0  0  0
  163.5100  205.8380  151.6480 C   0  0  0  0  0  2  0  0  0  0  0  0
  1  6  1  1  0  0  0
  1  4  1  0  0  0  0
  2  4  1  0  0  0  0
  2 20  1  1  0  0  0
  3  2  1  0  0  0  0
  4 31  1  6  0  0  0
  5  3  1  1  0  0  0
  5  1  1  0  0  0  0
  6  8  1  0  0  0  0
  8  7  2  0  0  0  0
  9  7  1  0  0  0  0
 10 12  1  0  0  0  0
 11 12  1  0  0  0  0
 11  6  2  0  0  0  0
 12  9  2  0  0  0  0
 13 17  1  0  0  0  0
 14 18  1  1  0  0  0
 14  5  1  0  0  0  0
 15 18  1  0  0  0  0
 16 13  1  0  0  0  0
 16 15  2  0  0  0  0
 17 14  1  0  0  0  0
 20 19  1  1  0  0  0
 21 20  1  0  0  0  0
 22 25  1  0  0  0  0
 24 22  1  0  0  0  0
 24 25  1  0  0  0  0
 24 23  1  1  0  0  0
 25 21  1  6  0  0  0
 26 24  1  0  0  0  0
 27 26  1  0  0  0  0
 28 27  1  0  0  0  0
 29 27  1  0  0  0  0
 31 30  1  0  0  0  0
M  END
>  <MODEL>
7

>  <REMARK>
 VINA RESULT:      -5.4      3.645      8.654
  Name = 
  8 active torsions:
  status: ('A' for Active; 'I' for Inactive)
    1  A    between atoms: C_1  and  C_24
    2  A    between atoms: C_4  and  C_5
    3  A    between atoms: C_9  and  C_15
    4  A    between atoms: C_9  and  O_23
    5  A    between atoms: C_12  and  C_27
    6  A    between atoms: C_19  and  C_24
    7  A    between atoms: C_21  and  C_29
    8  A    between atoms: C_22  and  O_23
                            x       y       z     vdW  Elec       q    Type
                         _______ _______ _______ _____ _____    ______ ____

>  <TORSDO>
F 8

$$$$
=
 OpenBabel11052422433D

 31 34  0  0  1  0  0  0  0  0999 V2000
  159.7170  210.5520  154.1920 C   0  0  2  0  0  3  0  0  0  0  0  0
  159.3670  211.9130  152.2340 C   0  0  2  0  0  3  0  0  0  0  0  0
  158.4440  212.4230  153.3290 C   0  0  0  0  0  2  0  0  0  0  0  0
  160.3640  210.9540  152.8830 C   0  0  2  0  0  3  0  0  0  0  0  0
  158.8510  211.7200  154.6190 C   0  0  1  0  0  3  0  0  0  0  0  0
  160.7150  210.1380  155.2320 C   0  0  0  0  0  0  0  0  0  0  0  0
  161.5400  208.4390  156.7550 C   0  0  0  0  0  3  0  0  0  0  0  0
  160.6300  208.8520  155.7770 C   0  0  0  0  0  3  0  0  0  0  0  0
  162.5350  209.3150  157.1920 C   0  0  0  0  0  3  0  0  0  0  0  0
  163.5860  211.4510  157.0990 F   0  0  0  0  0  0  0  0  0  0  0  0
  161.7170  211.0160  155.6770 C   0  0  0  0  0  3  0  0  0  0  0  0
  162.6230  210.6030  156.6580 C   0  0  0  0  0  0  0  0  0  0  0  0
  155.4430  210.3960  155.3760 C   0  0  0  0  0  2  0  0  0  0  0  0
  157.6440  211.2400  155.4340 C   0  0  2  0  0  3  0  0  0  0  0  0
  156.0410  211.8910  157.2610 C   0  0  0  0  0  3  0  0  0  0  0  0
  155.1250  211.1110  156.6670 C   0  0  0  0  0  3  0  0  0  0  0  0
  156.4420  211.1340  154.6060 N   0  0  0  0  0  2  0  0  0  0  0  0
  157.3830  212.1690  156.6280 C   0  0  0  0  0  2  0  0  0  0  0  0
  159.2020  214.3370  151.8170 C   0  0  0  0  0  1  0  0  0  0  0  0
  159.9910  213.0840  151.4640 C   0  0  2  0  0  3  0  0  0  0  0  0
  159.9480  212.8530  150.0770 O   0  0  0  0  0  0  0  0  0  0  0  0
  161.3410  214.0670  148.7410 O   0  0  0  0  0  0  0  0  0  0  0  0
  162.7220  212.5650  147.4920 C   0  0  0  0  0  1  0  0  0  0  0  0
  161.3540  212.8130  148.1100 C   0  0  1  0  0  0  0  0  0  0  0  0
  161.2620  212.9430  149.5880 C   0  0  2  0  0  3  0  0  0  0  0  0
  160.0930  212.6110  147.2620 C   0  0  0  0  0  2  0  0  0  0  0  0
  160.1150  213.4800  146.0100 C   0  0  0  0  0  3  0  0  0  0  0  0
  158.8360  214.2860  145.9200 C   0  0  0  0  0  1  0  0  0  0  0  0
  160.2690  212.6370  144.7590 C   0  0  0  0  0  1  0  0  0  0  0  0
  161.8550  209.5720  151.6140 O   0  0  0  0  0  1  0  0  0  0  0  0
  160.5300  209.7100  152.0220 C   0  0  0  0  0  2  0  0  0  0  0  0
  1  5  1  0  0  0  0
  1  6  1  1  0  0  0
  2 20  1  1  0  0  0
  2  4  1  0  0  0  0
  2  3  1  0  0  0  0
  4 31  1  6  0  0  0
  4  1  1  0  0  0  0
  5  3  1  6  0  0  0
  5 14  1  0  0  0  0
  6 11  2  0  0  0  0
  6  8  1  0  0  0  0
  7  9  1  0  0  0  0
  8  7  2  0  0  0  0
 11 12  1  0  0  0  0
 12 10  1  0  0  0  0
 12  9  2  0  0  0  0
 13 16  1  0  0  0  0
 14 18  1  1  0  0  0
 16 15  2  0  0  0  0
 17 13  1  0  0  0  0
 17 14  1  0  0  0  0
 18 15  1  0  0  0  0
 20 19  1  6  0  0  0
 21 20  1  0  0  0  0
 22 25  1  0  0  0  0
 24 23  1  6  0  0  0
 24 22  1  0  0  0  0
 24 25  1  0  0  0  0
 25 21  1  6  0  0  0
 26 24  1  0  0  0  0
 27 26  1  0  0  0  0
 28 27  1  0  0  0  0
 29 27  1  0  0  0  0
 30 31  1  0  0  0  0
M  END
>  <MODEL>
8

>  <REMARK>
 VINA RESULT:      -5.1      4.156      6.632
  Name = 
  8 active torsions:
  status: ('A' for Active; 'I' for Inactive)
    1  A    between atoms: C_1  and  C_24
    2  A    between atoms: C_4  and  C_5
    3  A    between atoms: C_9  and  C_15
    4  A    between atoms: C_9  and  O_23
    5  A    between atoms: C_12  and  C_27
    6  A    between atoms: C_19  and  C_24
    7  A    between atoms: C_21  and  C_29
    8  A    between atoms: C_22  and  O_23
                            x       y       z     vdW  Elec       q    Type
                         _______ _______ _______ _____ _____    ______ ____

>  <TORSDO>
F 8

$$$$
=
 OpenBabel11052422433D

 31 34  0  0  1  0  0  0  0  0999 V2000
  160.8900  208.5010  152.0340 C   0  0  2  0  0  3  0  0  0  0  0  0
  160.7370  208.6920  154.4320 C   0  0  2  0  0  3  0  0  0  0  0  0
  161.5470  207.4460  154.1130 C   0  0  0  0  0  2  0  0  0  0  0  0
  160.6020  209.4960  153.1390 C   0  0  2  0  0  3  0  0  0  0  0  0
  161.8410  207.4750  152.6180 C   0  0  1  0  0  3  0  0  0  0  0  0
  161.4070  209.1500  150.7850 C   0  0  0  0  0  0  0  0  0  0  0  0
  162.2740  208.9150  148.5320 C   0  0  0  0  0  3  0  0  0  0  0  0
  161.7810  208.3410  149.7070 C   0  0  0  0  0  3  0  0  0  0  0  0
  162.3990  210.3020  148.4360 C   0  0  0  0  0  3  0  0  0  0  0  0
  162.1710  212.4630  149.4100 F   0  0  0  0  0  0  0  0  0  0  0  0
  161.5360  210.5450  150.6840 C   0  0  0  0  0  3  0  0  0  0  0  0
  162.0340  211.1170  149.5100 C   0  0  0  0  0  0  0  0  0  0  0  0
  160.6870  204.9080  150.1650 C   0  0  0  0  0  2  0  0  0  0  0  0
  161.6490  206.1070  151.9540 C   0  0  2  0  0  3  0  0  0  0  0  0
  160.8610  203.7510  152.3500 C   0  0  0  0  0  3  0  0  0  0  0  0
  160.5140  203.7010  151.0550 C   0  0  0  0  0  3  0  0  0  0  0  0
  160.5930  206.1430  150.9400 N   0  0  0  0  0  2  0  0  0  0  0  0
  161.3410  205.0260  152.9990 C   0  0  0  0  0  2  0  0  0  0  0  0
  162.0140  208.4250  156.5240 C   0  0  0  0  0  1  0  0  0  0  0  0
  161.3550  209.4520  155.6140 C   0  0  2  0  0  3  0  0  0  0  0  0
  160.3730  210.1710  156.3170 O   0  0  0  0  0  0  0  0  0  0  0  0
  160.2590  212.2430  157.2610 O   0  0  0  0  0  0  0  0  0  0  0  0
  159.4100  213.7870  155.6420 C   0  0  0  0  0  1  0  0  0  0  0  0
  159.3670  212.3660  156.1840 C   0  0  1  0  0  0  0  0  0  0  0  0
  160.5980  211.5390  156.0880 C   0  0  2  0  0  3  0  0  0  0  0  0
  158.0150  211.7230  156.5120 C   0  0  0  0  0  2  0  0  0  0  0  0
  156.9010  212.2820  155.6340 C   0  0  0  0  0  3  0  0  0  0  0  0
  155.9170  213.0580  156.4840 C   0  0  0  0  0  1  0  0  0  0  0  0
  156.1710  211.1730  154.9010 C   0  0  0  0  0  1  0  0  0  0  0  0
  159.1540  211.3840  152.8570 O   0  0  0  0  0  1  0  0  0  0  0  0
  159.1730  209.9960  152.9810 C   0  0  0  0  0  2  0  0  0  0  0  0
  1  6  1  6  0  0  0
  1  5  1  0  0  0  0
  1  4  1  0  0  0  0
  2 20  1  1  0  0  0
  3  2  1  0  0  0  0
  4 31  1  6  0  0  0
  4  2  1  0  0  0  0
  5  3  1  1  0  0  0
  7  8  1  0  0  0  0
  8  6  2  0  0  0  0
  9  7  2  0  0  0  0
  9 12  1  0  0  0  0
 10 12  1  0  0  0  0
 11  6  1  0  0  0  0
 12 11  2  0  0  0  0
 13 17  1  0  0  0  0
 13 16  1  0  0  0  0
 14  5  1  0  0  0  0
 14 18  1  1  0  0  0
 15 18  1  0  0  0  0
 16 15  2  0  0  0  0
 17 14  1  0  0  0  0
 20 21  1  0  0  0  0
 20 19  1  1  0  0  0
 24 23  1  6  0  0  0
 24 26  1  0  0  0  0
 24 22  1  0  0  0  0
 25 24  1  0  0  0  0
 25 21  1  1  0  0  0
 25 22  1  0  0  0  0
 27 28  1  0  0  0  0
 27 26  1  0  0  0  0
 29 27  1  0  0  0  0
 30 31  1  0  0  0  0
M  END
>  <MODEL>
9

>  <REMARK>
 VINA RESULT:      -5.0      3.301      7.609
  Name = 
  8 active torsions:
  status: ('A' for Active; 'I' for Inactive)
    1  A    between atoms: C_1  and  C_24
    2  A    between atoms: C_4  and  C_5
    3  A    between atoms: C_9  and  C_15
    4  A    between atoms: C_9  and  O_23
    5  A    between atoms: C_12  and  C_27
    6  A    between atoms: C_19  and  C_24
    7  A    between atoms: C_21  and  C_29
    8  A    between atoms: C_22  and  O_23
                            x       y       z     vdW  Elec       q    Type
                         _______ _______ _______ _____ _____    ______ ____

>  <TORSDO>
F 8

$$$$
