=
 OpenBabel11062408093D

 34 40  0  0  1  0  0  0  0  0999 V2000
  160.9690  207.5580  154.5520 N   0  0  0  0  0  0  0  0  0  0  0  0
  161.4070  209.8710  154.1940 C   0  0  2  0  0  3  0  0  0  0  0  0
  161.3400  208.1900  152.2550 C   0  0  0  0  0  0  0  0  0  0  0  0
  161.7050  208.6590  149.8480 C   0  0  0  0  0  0  0  0  0  0  0  0
  160.8200  208.1390  155.8710 C   0  0  1  0  0  3  0  0  0  0  0  0
  161.0800  209.6380  155.6850 C   0  0  2  0  0  3  0  0  0  0  0  0
  161.5330  210.5560  151.3360 C   0  0  0  0  0  3  0  0  0  0  0  0
  161.2760  208.5260  153.5660 C   0  0  0  0  0  0  0  0  0  0  0  0
  161.7250  211.4230  150.2580 C   0  0  0  0  0  3  0  0  0  0  0  0
  161.9020  209.5270  148.7700 C   0  0  0  0  0  3  0  0  0  0  0  0
  159.6630  209.1280  155.8860 C   0  0  0  0  0  2  0  0  0  0  0  0
  161.2050  206.7390  151.9010 C   0  0  0  0  0  0  0  0  0  0  0  0
  160.8320  206.1690  154.2550 C   0  0  0  0  0  3  0  0  0  0  0  0
  162.8480  210.3450  154.1110 C   0  0  0  0  0  1  0  0  0  0  0  0
  161.6560  207.2830  149.6160 O   0  0  0  0  0  0  0  0  0  0  0  0
  161.3630  206.3390  150.6140 C   0  0  0  0  0  0  0  0  0  0  0  0
  161.9190  210.9090  148.9700 C   0  0  0  0  0  0  0  0  0  0  0  0
  161.5380  209.1650  151.1470 C   0  0  0  0  0  0  0  0  0  0  0  0
  160.9500  205.7630  152.9920 C   0  0  0  0  0  3  0  0  0  0  0  0
  161.1890  203.3250  148.3380 C   0  0  0  0  0  0  0  0  0  0  0  0
  160.9540  202.2870  149.2430 C   0  0  0  0  0  3  0  0  0  0  0  0
  161.2550  204.9250  150.1710 C   0  0  0  0  0  0  0  0  0  0  0  0
  160.8580  202.5630  150.6100 C   0  0  0  0  0  3  0  0  0  0  0  0
  161.3310  204.6360  148.7990 C   0  0  0  0  0  3  0  0  0  0  0  0
  161.0020  203.8750  151.0700 C   0  0  0  0  0  3  0  0  0  0  0  0
  161.2780  203.0530  146.9800 O   0  0  0  0  0  1  0  0  0  0  0  0
  162.1190  211.7770  147.8550 N   0  0  0  0  0  2  0  0  0  0  0  0
  161.0650  212.1240  146.9980 N   0  0  0  0  0  2  0  0  0  0  0  0
  159.9150  213.9210  148.1420 C   0  0  0  0  0  2  0  0  0  0  0  0
  159.5210  214.0590  146.6830 C   0  0  1  0  0  3  0  0  0  0  0  0
  160.9260  213.5700  147.0700 C   0  0  2  0  0  3  0  0  0  0  0  0
  158.5090  212.5520  144.9580 O   0  0  0  0  0  0  0  0  0  0  0  0
  158.5640  212.9720  146.2810 C   0  0  0  0  0  0  0  0  0  0  0  0
  157.7710  212.4760  147.1260 O   0  0  0  0  0  1  0  0  0  0  0  0
  1  5  1  0  0  0  0
  2 14  1  1  0  0  0
  2  6  1  0  0  0  0
  3  8  2  0  0  0  0
  4 18  1  0  0  0  0
  5 11  1  6  0  0  0
  6  5  1  0  0  0  0
  6 11  1  6  0  0  0
  8  2  1  0  0  0  0
  8  1  1  0  0  0  0
  9  7  1  0  0  0  0
 10 17  1  0  0  0  0
 10  4  2  0  0  0  0
 12  3  1  0  0  0  0
 12 19  1  0  0  0  0
 13  1  1  0  0  0  0
 15  4  1  0  0  0  0
 15 16  1  0  0  0  0
 16 12  2  0  0  0  0
 17  9  2  0  0  0  0
 18  7  2  0  0  0  0
 18  3  1  0  0  0  0
 19 13  2  0  0  0  0
 20 24  2  0  0  0  0
 20 21  1  0  0  0  0
 21 23  2  0  0  0  0
 22 16  1  0  0  0  0
 22 25  2  0  0  0  0
 23 25  1  0  0  0  0
 24 22  1  0  0  0  0
 26 20  1  0  0  0  0
 27 17  1  0  0  0  0
 28 27  1  0  0  0  0
 30 33  1  6  0  0  0
 30 31  1  0  0  0  0
 30 29  1  0  0  0  0
 31 28  1  6  0  0  0
 31 29  1  0  0  0  0
 32 33  2  0  0  0  0
 33 34  1  0  0  0  0
M  END
>  <MODEL>
1

>  <REMARK>
 VINA RESULT:      -8.9      0.000      0.000
  Name = 
  5 active torsions:
  status: ('A' for Active; 'I' for Inactive)
    1  A    between atoms: N_3  and  N_13
    2  A    between atoms: N_3  and  C_29
    3  A    between atoms: C_12  and  C_28
    4  A    between atoms: N_13  and  C_33
    5  A    between atoms: C_20  and  C_22
                            x       y       z     vdW  Elec       q    Type
                         _______ _______ _______ _____ _____    ______ ____

>  <TORSDO>
F 5

$$$$
=
 OpenBabel11062408093D

 34 40  0  0  1  0  0  0  0  0999 V2000
  160.9960  207.0780  154.0240 N   0  0  0  0  0  0  0  0  0  0  0  0
  161.3110  209.4360  154.0890 C   0  0  2  0  0  3  0  0  0  0  0  0
  161.3390  208.1270  151.8810 C   0  0  0  0  0  0  0  0  0  0  0  0
  161.6820  209.0370  149.6000 C   0  0  0  0  0  0  0  0  0  0  0  0
  160.8130  207.4060  155.4230 C   0  0  1  0  0  3  0  0  0  0  0  0
  160.9940  208.9250  155.5100 C   0  0  2  0  0  3  0  0  0  0  0  0
  161.4070  210.6260  151.4000 C   0  0  0  0  0  3  0  0  0  0  0  0
  161.2530  208.2200  153.2300 C   0  0  0  0  0  0  0  0  0  0  0  0
  161.5550  211.6800  150.4960 C   0  0  0  0  0  3  0  0  0  0  0  0
  161.8360  210.0920  148.6960 C   0  0  0  0  0  3  0  0  0  0  0  0
  159.6060  208.3140  155.6010 C   0  0  0  0  0  2  0  0  0  0  0  0
  161.2810  206.7580  151.2720 C   0  0  0  0  0  0  0  0  0  0  0  0
  160.9340  205.7590  153.4830 C   0  0  0  0  0  3  0  0  0  0  0  0
  162.7250  209.9920  154.1080 C   0  0  0  0  0  1  0  0  0  0  0  0
  161.7080  207.7230  149.1260 O   0  0  0  0  0  0  0  0  0  0  0  0
  161.4630  206.6020  149.9370 C   0  0  0  0  0  0  0  0  0  0  0  0
  161.7790  211.4150  149.1390 C   0  0  0  0  0  0  0  0  0  0  0  0
  161.4860  209.2930  150.9670 C   0  0  0  0  0  0  0  0  0  0  0  0
  161.0760  205.5910  152.1700 C   0  0  0  0  0  3  0  0  0  0  0  0
  161.7360  204.0100  147.1980 C   0  0  0  0  0  0  0  0  0  0  0  0
  161.2970  202.8530  147.8450 C   0  0  0  0  0  3  0  0  0  0  0  0
  161.4320  205.2860  149.2480 C   0  0  0  0  0  0  0  0  0  0  0  0
  160.9140  202.9080  149.1880 C   0  0  0  0  0  3  0  0  0  0  0  0
  161.7960  205.2210  147.8940 C   0  0  0  0  0  3  0  0  0  0  0  0
  160.9750  204.1190  149.8830 C   0  0  0  0  0  3  0  0  0  0  0  0
  162.1110  203.9590  145.8620 O   0  0  0  0  0  1  0  0  0  0  0  0
  161.9340  212.4770  148.1990 N   0  0  0  0  0  2  0  0  0  0  0  0
  161.2050  212.5090  147.0020 N   0  0  0  0  0  2  0  0  0  0  0  0
  159.8860  213.9830  145.6060 C   0  0  0  0  0  2  0  0  0  0  0  0
  161.3290  214.3870  145.3630 C   0  0  1  0  0  3  0  0  0  0  0  0
  160.8750  213.9030  146.7500 C   0  0  2  0  0  3  0  0  0  0  0  0
  161.3130  212.4280  143.8040 O   0  0  0  0  0  0  0  0  0  0  0  0
  162.0430  213.3540  144.5370 C   0  0  0  0  0  0  0  0  0  0  0  0
  163.3020  213.2890  144.5470 O   0  0  0  0  0  1  0  0  0  0  0  0
  1  5  1  0  0  0  0
  2 14  1  1  0  0  0
  2  6  1  0  0  0  0
  3  8  2  0  0  0  0
  4 18  1  0  0  0  0
  5  6  1  0  0  0  0
  5 11  1  6  0  0  0
  6 11  1  6  0  0  0
  8  1  1  0  0  0  0
  8  2  1  0  0  0  0
  9  7  1  0  0  0  0
 10 17  1  0  0  0  0
 10  4  2  0  0  0  0
 12  3  1  0  0  0  0
 12 19  1  0  0  0  0
 13  1  1  0  0  0  0
 15  4  1  0  0  0  0
 15 16  1  0  0  0  0
 16 12  2  0  0  0  0
 17  9  2  0  0  0  0
 18  7  2  0  0  0  0
 18  3  1  0  0  0  0
 19 13  2  0  0  0  0
 20 21  2  0  0  0  0
 20 24  1  0  0  0  0
 21 23  1  0  0  0  0
 22 25  1  0  0  0  0
 22 16  1  0  0  0  0
 23 25  2  0  0  0  0
 24 22  2  0  0  0  0
 26 20  1  0  0  0  0
 27 17  1  0  0  0  0
 28 27  1  0  0  0  0
 29 31  1  0  0  0  0
 30 33  1  6  0  0  0
 30 29  1  0  0  0  0
 30 31  1  0  0  0  0
 31 28  1  6  0  0  0
 32 33  2  0  0  0  0
 33 34  1  0  0  0  0
M  END
>  <MODEL>
2

>  <REMARK>
 VINA RESULT:      -8.2      1.349      1.675
  Name = 
  5 active torsions:
  status: ('A' for Active; 'I' for Inactive)
    1  A    between atoms: N_3  and  N_13
    2  A    between atoms: N_3  and  C_29
    3  A    between atoms: C_12  and  C_28
    4  A    between atoms: N_13  and  C_33
    5  A    between atoms: C_20  and  C_22
                            x       y       z     vdW  Elec       q    Type
                         _______ _______ _______ _____ _____    ______ ____

>  <TORSDO>
F 5

$$$$
=
 OpenBabel11062408093D

 34 40  0  0  1  0  0  0  0  0999 V2000
  161.1930  209.8630  155.2970 N   0  0  0  0  0  0  0  0  0  0  0  0
  160.8520  207.5520  155.7500 C   0  0  2  0  0  3  0  0  0  0  0  0
  161.1590  208.4320  153.3580 C   0  0  0  0  0  0  0  0  0  0  0  0
  161.1450  207.1130  151.2590 C   0  0  0  0  0  0  0  0  0  0  0  0
  161.1670  209.8020  156.7450 C   0  0  1  0  0  3  0  0  0  0  0  0
  160.9630  208.3210  157.0840 C   0  0  2  0  0  3  0  0  0  0  0  0
  161.1410  205.8870  153.3420 C   0  0  0  0  0  3  0  0  0  0  0  0
  161.0450  208.5900  154.6990 C   0  0  0  0  0  0  0  0  0  0  0  0
  161.1170  204.6820  152.6360 C   0  0  0  0  0  3  0  0  0  0  0  0
  161.1160  205.9070  150.5530 C   0  0  0  0  0  3  0  0  0  0  0  0
  162.3270  208.9640  157.2610 C   0  0  0  0  0  2  0  0  0  0  0  0
  161.3170  209.6670  152.5220 C   0  0  0  0  0  0  0  0  0  0  0  0
  161.3460  211.0620  154.5370 C   0  0  0  0  0  3  0  0  0  0  0  0
  159.4460  206.9820  155.6650 C   0  0  0  0  0  1  0  0  0  0  0  0
  161.2010  208.3160  150.5530 O   0  0  0  0  0  0  0  0  0  0  0  0
  161.3340  209.5710  151.1690 C   0  0  0  0  0  0  0  0  0  0  0  0
  161.0970  204.6890  151.2360 C   0  0  0  0  0  0  0  0  0  0  0  0
  161.1370  207.1150  152.6630 C   0  0  0  0  0  0  0  0  0  0  0  0
  161.3980  210.9830  153.2090 C   0  0  0  0  0  3  0  0  0  0  0  0
  160.8180  213.0080  149.6810 C   0  0  0  0  0  0  0  0  0  0  0  0
  161.6110  212.9530  148.5330 C   0  0  0  0  0  3  0  0  0  0  0  0
  161.4770  210.7390  150.2610 C   0  0  0  0  0  0  0  0  0  0  0  0
  162.3300  211.7910  148.2380 C   0  0  0  0  0  3  0  0  0  0  0  0
  160.7460  211.9050  150.5360 C   0  0  0  0  0  3  0  0  0  0  0  0
  162.2580  210.6890  149.0940 C   0  0  0  0  0  3  0  0  0  0  0  0
  160.0980  214.1590  149.9720 O   0  0  0  0  0  1  0  0  0  0  0  0
  161.0710  203.4700  150.4950 N   0  0  0  0  0  2  0  0  0  0  0  0
  160.5670  203.4170  149.1880 N   0  0  0  0  0  2  0  0  0  0  0  0
  161.6100  201.2910  148.6850 C   0  0  0  0  0  2  0  0  0  0  0  0
  160.7340  201.6000  147.4850 C   0  0  1  0  0  3  0  0  0  0  0  0
  160.2980  202.0160  148.8990 C   0  0  2  0  0  3  0  0  0  0  0  0
  162.3630  203.4760  147.1730 O   0  0  0  0  0  1  0  0  0  0  0  0
  161.3290  202.7050  146.6570 C   0  0  0  0  0  0  0  0  0  0  0  0
  160.8600  202.9720  145.5180 O   0  0  0  0  0  0  0  0  0  0  0  0
  1  5  1  0  0  0  0
  2 14  1  6  0  0  0
  2  6  1  0  0  0  0
  3  8  2  0  0  0  0
  4 18  1  0  0  0  0
  5  6  1  0  0  0  0
  5 11  1  1  0  0  0
  6 11  1  6  0  0  0
  8  1  1  0  0  0  0
  8  2  1  0  0  0  0
  9  7  1  0  0  0  0
 10 17  1  0  0  0  0
 10  4  2  0  0  0  0
 12 19  1  0  0  0  0
 12  3  1  0  0  0  0
 13  1  1  0  0  0  0
 15 16  1  0  0  0  0
 15  4  1  0  0  0  0
 16 12  2  0  0  0  0
 17  9  2  0  0  0  0
 18  7  2  0  0  0  0
 18  3  1  0  0  0  0
 19 13  2  0  0  0  0
 20 26  1  0  0  0  0
 20 24  1  0  0  0  0
 21 20  2  0  0  0  0
 22 24  2  0  0  0  0
 22 16  1  0  0  0  0
 23 21  1  0  0  0  0
 23 25  2  0  0  0  0
 25 22  1  0  0  0  0
 27 17  1  0  0  0  0
 28 27  1  0  0  0  0
 29 31  1  0  0  0  0
 30 33  1  6  0  0  0
 30 29  1  0  0  0  0
 30 31  1  0  0  0  0
 31 28  1  6  0  0  0
 33 32  1  0  0  0  0
 34 33  2  0  0  0  0
M  END
>  <MODEL>
3

>  <REMARK>
 VINA RESULT:      -8.1      2.727      7.264
  Name = 
  5 active torsions:
  status: ('A' for Active; 'I' for Inactive)
    1  A    between atoms: N_3  and  N_13
    2  A    between atoms: N_3  and  C_29
    3  A    between atoms: C_12  and  C_28
    4  A    between atoms: N_13  and  C_33
    5  A    between atoms: C_20  and  C_22
                            x       y       z     vdW  Elec       q    Type
                         _______ _______ _______ _____ _____    ______ ____

>  <TORSDO>
F 5

$$$$
=
 OpenBabel11062408093D

 34 40  0  0  1  0  0  0  0  0999 V2000
  160.9900  205.7330  152.6290 N   0  0  0  0  0  0  0  0  0  0  0  0
  161.2590  205.8660  150.2670 C   0  0  2  0  0  3  0  0  0  0  0  0
  161.3260  207.9550  151.7580 C   0  0  0  0  0  0  0  0  0  0  0  0
  161.6510  210.3050  151.0350 C   0  0  0  0  0  0  0  0  0  0  0  0
  160.9820  204.3470  152.2080 C   0  0  1  0  0  3  0  0  0  0  0  0
  161.1680  204.3830  150.6870 C   0  0  2  0  0  3  0  0  0  0  0  0
  161.9660  208.5780  149.3740 C   0  0  0  0  0  3  0  0  0  0  0  0
  161.1760  206.6250  151.5470 C   0  0  0  0  0  0  0  0  0  0  0  0
  162.2540  209.5500  148.4140 C   0  0  0  0  0  3  0  0  0  0  0  0
  161.9350  211.2780  150.0720 C   0  0  0  0  0  3  0  0  0  0  0  0
  162.3200  203.9730  151.5890 C   0  0  0  0  0  2  0  0  0  0  0  0
  161.1580  208.4620  153.1590 C   0  0  0  0  0  0  0  0  0  0  0  0
  160.8270  206.1750  153.9760 C   0  0  0  0  0  3  0  0  0  0  0  0
  160.0480  206.1720  149.4020 C   0  0  0  0  0  1  0  0  0  0  0  0
  161.3930  210.7000  152.3500 O   0  0  0  0  0  0  0  0  0  0  0  0
  161.1970  209.7950  153.4060 C   0  0  0  0  0  0  0  0  0  0  0  0
  162.2320  210.9070  148.7590 C   0  0  0  0  0  0  0  0  0  0  0  0
  161.6440  208.9440  150.6900 C   0  0  0  0  0  0  0  0  0  0  0  0
  160.8960  207.4780  154.2420 C   0  0  0  0  0  3  0  0  0  0  0  0
  159.6140  211.5610  156.3500 C   0  0  0  0  0  0  0  0  0  0  0  0
  160.6730  211.6260  157.2580 C   0  0  0  0  0  3  0  0  0  0  0  0
  161.0330  210.3890  154.7590 C   0  0  0  0  0  0  0  0  0  0  0  0
  161.9160  211.0830  156.9180 C   0  0  0  0  0  3  0  0  0  0  0  0
  159.7960  210.9530  155.1050 C   0  0  0  0  0  3  0  0  0  0  0  0
  162.0960  210.4740  155.6730 C   0  0  0  0  0  3  0  0  0  0  0  0
  158.3810  212.1050  156.6840 O   0  0  0  0  0  1  0  0  0  0  0  0
  162.5220  211.9170  147.7940 N   0  0  0  0  0  2  0  0  0  0  0  0
  161.5530  212.3590  146.8820 N   0  0  0  0  0  2  0  0  0  0  0  0
  160.5500  214.3940  146.0400 C   0  0  0  0  0  2  0  0  0  0  0  0
  161.8150  214.2050  145.2230 C   0  0  1  0  0  3  0  0  0  0  0  0
  161.7680  213.7860  146.7010 C   0  0  2  0  0  3  0  0  0  0  0  0
  160.4110  212.4920  144.0540 O   0  0  0  0  0  1  0  0  0  0  0  0
  161.6580  213.0770  144.2430 C   0  0  0  0  0  0  0  0  0  0  0  0
  162.6590  212.6210  143.6280 O   0  0  0  0  0  0  0  0  0  0  0  0
  1 13  1  0  0  0  0
  2 14  1  6  0  0  0
  2  6  1  0  0  0  0
  2  8  1  0  0  0  0
  3 12  1  0  0  0  0
  4 15  1  0  0  0  0
  5 11  1  1  0  0  0
  5  1  1  0  0  0  0
  6 11  1  1  0  0  0
  6  5  1  0  0  0  0
  7 18  2  0  0  0  0
  8  3  2  0  0  0  0
  8  1  1  0  0  0  0
  9 17  2  0  0  0  0
  9  7  1  0  0  0  0
 10  4  2  0  0  0  0
 12 16  2  0  0  0  0
 12 19  1  0  0  0  0
 13 19  2  0  0  0  0
 15 16  1  0  0  0  0
 16 22  1  0  0  0  0
 17 10  1  0  0  0  0
 18  4  1  0  0  0  0
 18  3  1  0  0  0  0
 20 26  1  0  0  0  0
 20 21  1  0  0  0  0
 22 24  1  0  0  0  0
 22 25  2  0  0  0  0
 23 21  2  0  0  0  0
 24 20  2  0  0  0  0
 25 23  1  0  0  0  0
 27 17  1  0  0  0  0
 28 27  1  0  0  0  0
 29 31  1  0  0  0  0
 30 33  1  6  0  0  0
 30 29  1  0  0  0  0
 30 31  1  0  0  0  0
 31 28  1  6  0  0  0
 32 33  1  0  0  0  0
 34 33  2  0  0  0  0
M  END
>  <MODEL>
4

>  <REMARK>
 VINA RESULT:      -8.1      2.335      5.816
  Name = 
  5 active torsions:
  status: ('A' for Active; 'I' for Inactive)
    1  A    between atoms: N_3  and  N_13
    2  A    between atoms: N_3  and  C_29
    3  A    between atoms: C_12  and  C_28
    4  A    between atoms: N_13  and  C_33
    5  A    between atoms: C_20  and  C_22
                            x       y       z     vdW  Elec       q    Type
                         _______ _______ _______ _____ _____    ______ ____

>  <TORSDO>
F 5

$$$$
=
 OpenBabel11062408093D

 34 40  0  0  1  0  0  0  0  0999 V2000
  161.6850  206.2490  149.2180 N   0  0  0  0  0  0  0  0  0  0  0  0
  161.4440  205.6200  151.5010 C   0  0  2  0  0  3  0  0  0  0  0  0
  161.5400  208.0810  150.7780 C   0  0  0  0  0  0  0  0  0  0  0  0
  161.4150  210.0820  152.2380 C   0  0  0  0  0  0  0  0  0  0  0  0
  161.5810  204.8050  149.1630 C   0  0  1  0  0  3  0  0  0  0  0  0
  161.4090  204.3550  150.6180 C   0  0  2  0  0  3  0  0  0  0  0  0
  160.9700  207.9340  153.2550 C   0  0  0  0  0  3  0  0  0  0  0  0
  161.5810  206.7480  150.5380 C   0  0  0  0  0  0  0  0  0  0  0  0
  160.7690  208.5570  154.4880 C   0  0  0  0  0  3  0  0  0  0  0  0
  161.2200  210.7030  153.4750 C   0  0  0  0  0  3  0  0  0  0  0  0
  160.2210  204.3520  149.6710 C   0  0  0  0  0  2  0  0  0  0  0  0
  161.7400  209.0050  149.6140 C   0  0  0  0  0  0  0  0  0  0  0  0
  161.8750  207.0950  148.0850 C   0  0  0  0  0  3  0  0  0  0  0  0
  162.6820  205.5320  152.3780 C   0  0  0  0  0  1  0  0  0  0  0  0
  161.6970  210.8650  151.1160 O   0  0  0  0  0  0  0  0  0  0  0  0
  161.8090  210.3450  149.8160 C   0  0  0  0  0  0  0  0  0  0  0  0
  160.9020  209.9460  154.6040 C   0  0  0  0  0  0  0  0  0  0  0  0
  161.3120  208.6860  152.1200 C   0  0  0  0  0  0  0  0  0  0  0  0
  161.9120  208.4140  148.2610 C   0  0  0  0  0  3  0  0  0  0  0  0
  161.0600  212.6570  146.9210 C   0  0  0  0  0  0  0  0  0  0  0  0
  162.3310  213.1230  146.5820 C   0  0  0  0  0  3  0  0  0  0  0  0
  162.0140  211.3350  148.7270 C   0  0  0  0  0  0  0  0  0  0  0  0
  163.4480  212.6920  147.3030 C   0  0  0  0  0  3  0  0  0  0  0  0
  160.9030  211.7620  147.9830 C   0  0  0  0  0  3  0  0  0  0  0  0
  163.2900  211.7980  148.3660 C   0  0  0  0  0  3  0  0  0  0  0  0
  159.9500  213.0800  146.2010 O   0  0  0  0  0  1  0  0  0  0  0  0
  160.7030  210.6020  155.8550 N   0  0  0  0  0  2  0  0  0  0  0  0
  159.4290  210.7190  156.4280 N   0  0  0  0  0  2  0  0  0  0  0  0
  157.8130  212.3320  157.2310 C   0  0  0  0  0  2  0  0  0  0  0  0
  158.0200  212.6700  155.7660 C   0  0  1  0  0  3  0  0  0  0  0  0
  159.1840  212.1400  156.6190 C   0  0  2  0  0  3  0  0  0  0  0  0
  157.8310  211.4530  153.5850 O   0  0  0  0  0  0  0  0  0  0  0  0
  157.3690  211.6440  154.8810 C   0  0  0  0  0  0  0  0  0  0  0  0
  156.3700  210.9920  155.2890 O   0  0  0  0  0  1  0  0  0  0  0  0
  1  8  1  0  0  0  0
  2 14  1  1  0  0  0
  3 18  1  0  0  0  0
  4 10  1  0  0  0  0
  5  1  1  0  0  0  0
  5 11  1  6  0  0  0
  5  6  1  0  0  0  0
  6 11  1  6  0  0  0
  6  2  1  0  0  0  0
  7  9  2  0  0  0  0
  8  3  2  0  0  0  0
  8  2  1  0  0  0  0
  9 17  1  0  0  0  0
 10 17  2  0  0  0  0
 12 16  2  0  0  0  0
 12  3  1  0  0  0  0
 13 19  2  0  0  0  0
 13  1  1  0  0  0  0
 15  4  1  0  0  0  0
 16 15  1  0  0  0  0
 17 27  1  0  0  0  0
 18  4  2  0  0  0  0
 18  7  1  0  0  0  0
 19 12  1  0  0  0  0
 20 24  1  0  0  0  0
 21 20  2  0  0  0  0
 21 23  1  0  0  0  0
 22 16  1  0  0  0  0
 23 25  2  0  0  0  0
 24 22  2  0  0  0  0
 25 22  1  0  0  0  0
 26 20  1  0  0  0  0
 27 28  1  0  0  0  0
 30 33  1  6  0  0  0
 30 31  1  0  0  0  0
 30 29  1  0  0  0  0
 31 28  1  6  0  0  0
 31 29  1  0  0  0  0
 32 33  2  0  0  0  0
 33 34  1  0  0  0  0
M  END
>  <MODEL>
5

>  <REMARK>
 VINA RESULT:      -8.0      2.877      7.181
  Name = 
  5 active torsions:
  status: ('A' for Active; 'I' for Inactive)
    1  A    between atoms: N_3  and  N_13
    2  A    between atoms: N_3  and  C_29
    3  A    between atoms: C_12  and  C_28
    4  A    between atoms: N_13  and  C_33
    5  A    between atoms: C_20  and  C_22
                            x       y       z     vdW  Elec       q    Type
                         _______ _______ _______ _____ _____    ______ ____

>  <TORSDO>
F 5

$$$$
=
 OpenBabel11062408093D

 34 40  0  0  1  0  0  0  0  0999 V2000
  160.9890  204.5090  150.5100 N   0  0  0  0  0  0  0  0  0  0  0  0
  161.2470  205.5910  148.4050 C   0  0  2  0  0  3  0  0  0  0  0  0
  161.3330  206.8930  150.6170 C   0  0  0  0  0  0  0  0  0  0  0  0
  161.6690  209.3320  150.9120 C   0  0  0  0  0  0  0  0  0  0  0  0
  160.9700  203.4140  149.5610 C   0  0  1  0  0  3  0  0  0  0  0  0
  161.1500  204.0670  148.1860 C   0  0  2  0  0  3  0  0  0  0  0  0
  161.9660  208.4300  148.6890 C   0  0  0  0  0  3  0  0  0  0  0  0
  161.1750  205.7640  149.8840 C   0  0  0  0  0  0  0  0  0  0  0  0
  162.2560  209.7080  148.2060 C   0  0  0  0  0  3  0  0  0  0  0  0
  161.9540  210.6110  150.4270 C   0  0  0  0  0  3  0  0  0  0  0  0
  162.3040  203.3210  148.8340 C   0  0  0  0  0  2  0  0  0  0  0  0
  161.1750  206.7850  152.1040 C   0  0  0  0  0  0  0  0  0  0  0  0
  160.8340  204.3650  151.9210 C   0  0  0  0  0  3  0  0  0  0  0  0
  160.0340  206.2270  147.7480 C   0  0  0  0  0  1  0  0  0  0  0  0
  161.4190  209.1580  152.2750 O   0  0  0  0  0  0  0  0  0  0  0  0
  161.2230  207.9020  152.8730 C   0  0  0  0  0  0  0  0  0  0  0  0
  162.2430  210.8060  149.0740 C   0  0  0  0  0  0  0  0  0  0  0  0
  161.6530  208.2290  150.0420 C   0  0  0  0  0  0  0  0  0  0  0  0
  160.9120  205.4460  152.6940 C   0  0  0  0  0  3  0  0  0  0  0  0
  161.7660  208.7620  156.5140 C   0  0  0  0  0  0  0  0  0  0  0  0
  160.9110  207.8650  157.1580 C   0  0  0  0  0  3  0  0  0  0  0  0
  161.0680  207.8940  154.3510 C   0  0  0  0  0  0  0  0  0  0  0  0
  160.1410  206.9740  156.4050 C   0  0  0  0  0  3  0  0  0  0  0  0
  161.8490  208.7710  155.1190 C   0  0  0  0  0  3  0  0  0  0  0  0
  160.2240  206.9840  155.0100 C   0  0  0  0  0  3  0  0  0  0  0  0
  162.5360  209.6430  157.2610 O   0  0  0  0  0  1  0  0  0  0  0  0
  162.5340  212.1210  148.6020 N   0  0  0  0  0  2  0  0  0  0  0  0
  162.1780  212.5310  147.3100 N   0  0  0  0  0  2  0  0  0  0  0  0
  159.8050  212.9860  147.4510 C   0  0  0  0  0  2  0  0  0  0  0  0
  160.2860  213.7510  146.2320 C   0  0  1  0  0  3  0  0  0  0  0  0
  161.1930  213.5910  147.4630 C   0  0  2  0  0  3  0  0  0  0  0  0
  161.7000  213.0430  144.2900 O   0  0  0  0  0  0  0  0  0  0  0  0
  160.5920  212.8150  145.0970 C   0  0  0  0  0  0  0  0  0  0  0  0
  159.8200  211.8530  144.8380 O   0  0  0  0  0  1  0  0  0  0  0  0
  1 13  1  0  0  0  0
  2 14  1  6  0  0  0
  2  8  1  0  0  0  0
  3 12  1  0  0  0  0
  4 15  1  0  0  0  0
  5 11  1  1  0  0  0
  5  1  1  0  0  0  0
  6  2  1  0  0  0  0
  6 11  1  1  0  0  0
  6  5  1  0  0  0  0
  7 18  1  0  0  0  0
  8  1  1  0  0  0  0
  8  3  2  0  0  0  0
  9  7  2  0  0  0  0
  9 17  1  0  0  0  0
 10  4  1  0  0  0  0
 12 19  1  0  0  0  0
 12 16  2  0  0  0  0
 13 19  2  0  0  0  0
 15 16  1  0  0  0  0
 16 22  1  0  0  0  0
 17 10  2  0  0  0  0
 18  3  1  0  0  0  0
 18  4  2  0  0  0  0
 20 21  1  0  0  0  0
 20 26  1  0  0  0  0
 22 25  2  0  0  0  0
 22 24  1  0  0  0  0
 23 21  2  0  0  0  0
 24 20  2  0  0  0  0
 25 23  1  0  0  0  0
 27 17  1  0  0  0  0
 28 27  1  0  0  0  0
 29 31  1  0  0  0  0
 30 33  1  6  0  0  0
 30 29  1  0  0  0  0
 30 31  1  0  0  0  0
 31 28  1  6  0  0  0
 32 33  2  0  0  0  0
 34 33  1  0  0  0  0
M  END
>  <MODEL>
6

>  <REMARK>
 VINA RESULT:      -7.8      2.091      5.417
  Name = 
  5 active torsions:
  status: ('A' for Active; 'I' for Inactive)
    1  A    between atoms: N_3  and  N_13
    2  A    between atoms: N_3  and  C_29
    3  A    between atoms: C_12  and  C_28
    4  A    between atoms: N_13  and  C_33
    5  A    between atoms: C_20  and  C_22
                            x       y       z     vdW  Elec       q    Type
                         _______ _______ _______ _____ _____    ______ ____

>  <TORSDO>
F 5

$$$$
=
 OpenBabel11062408093D

 34 40  0  0  1  0  0  0  0  0999 V2000
  161.0830  209.8520  155.3810 N   0  0  0  0  0  0  0  0  0  0  0  0
  160.8800  207.5010  155.6910 C   0  0  2  0  0  3  0  0  0  0  0  0
  161.0840  208.5460  153.3550 C   0  0  0  0  0  0  0  0  0  0  0  0
  161.0960  207.3620  151.1760 C   0  0  0  0  0  0  0  0  0  0  0  0
  161.0920  209.6980  156.8220 C   0  0  1  0  0  3  0  0  0  0  0  0
  160.9780  208.1900  157.0690 C   0  0  2  0  0  3  0  0  0  0  0  0
  161.2060  206.0090  153.1760 C   0  0  0  0  0  3  0  0  0  0  0  0
  160.9920  208.6120  154.7050 C   0  0  0  0  0  0  0  0  0  0  0  0
  161.2330  204.8520  152.3950 C   0  0  0  0  0  3  0  0  0  0  0  0
  161.1170  206.2030  150.3950 C   0  0  0  0  0  3  0  0  0  0  0  0
  162.3090  208.8970  157.2610 C   0  0  0  0  0  2  0  0  0  0  0  0
  161.1550  209.8380  152.5970 C   0  0  0  0  0  0  0  0  0  0  0  0
  161.1520  211.1020  154.6960 C   0  0  0  0  0  3  0  0  0  0  0  0
  159.5060  206.8590  155.5970 C   0  0  0  0  0  1  0  0  0  0  0  0
  161.0690  208.6090  150.5480 O   0  0  0  0  0  0  0  0  0  0  0  0
  161.1460  209.8280  151.2400 C   0  0  0  0  0  0  0  0  0  0  0  0
  161.1810  204.9450  150.9990 C   0  0  0  0  0  0  0  0  0  0  0  0
  161.1190  207.2760  152.5780 C   0  0  0  0  0  0  0  0  0  0  0  0
  161.1780  211.1100  153.3650 C   0  0  0  0  0  3  0  0  0  0  0  0
  162.2670  212.2850  148.5950 C   0  0  0  0  0  0  0  0  0  0  0  0
  161.4490  213.3870  148.8530 C   0  0  0  0  0  3  0  0  0  0  0  0
  161.2040  211.0570  150.4060 C   0  0  0  0  0  0  0  0  0  0  0  0
  160.5150  213.3340  149.8910 C   0  0  0  0  0  3  0  0  0  0  0  0
  162.1500  211.1300  149.3720 C   0  0  0  0  0  3  0  0  0  0  0  0
  160.3980  212.1780  150.6680 C   0  0  0  0  0  3  0  0  0  0  0  0
  163.1990  212.3380  147.5670 O   0  0  0  0  0  1  0  0  0  0  0  0
  161.2060  203.7760  150.1830 N   0  0  0  0  0  2  0  0  0  0  0  0
  161.8730  203.7570  148.9500 N   0  0  0  0  0  2  0  0  0  0  0  0
  161.4640  202.9200  146.7160 C   0  0  0  0  0  2  0  0  0  0  0  0
  161.1520  204.4040  146.6500 C   0  0  1  0  0  3  0  0  0  0  0  0
  160.8540  203.5980  147.9240 C   0  0  2  0  0  3  0  0  0  0  0  0
  162.3780  206.5180  147.1950 O   0  0  0  0  0  1  0  0  0  0  0  0
  162.4130  205.2200  146.7010 C   0  0  0  0  0  0  0  0  0  0  0  0
  163.4930  204.7540  146.2490 O   0  0  0  0  0  0  0  0  0  0  0  0
  1  5  1  0  0  0  0
  2 14  1  1  0  0  0
  2  6  1  0  0  0  0
  3  8  2  0  0  0  0
  4 18  1  0  0  0  0
  5  6  1  0  0  0  0
  5 11  1  6  0  0  0
  6 11  1  6  0  0  0
  8  1  1  0  0  0  0
  8  2  1  0  0  0  0
  9  7  1  0  0  0  0
 10 17  1  0  0  0  0
 10  4  2  0  0  0  0
 12  3  1  0  0  0  0
 12 19  1  0  0  0  0
 13  1  1  0  0  0  0
 15  4  1  0  0  0  0
 15 16  1  0  0  0  0
 16 12  2  0  0  0  0
 17  9  2  0  0  0  0
 18  7  2  0  0  0  0
 18  3  1  0  0  0  0
 19 13  2  0  0  0  0
 20 21  2  0  0  0  0
 20 24  1  0  0  0  0
 21 23  1  0  0  0  0
 22 25  1  0  0  0  0
 22 16  1  0  0  0  0
 23 25  2  0  0  0  0
 24 22  2  0  0  0  0
 26 20  1  0  0  0  0
 27 17  1  0  0  0  0
 28 27  1  0  0  0  0
 29 31  1  0  0  0  0
 30 33  1  1  0  0  0
 30 29  1  0  0  0  0
 30 31  1  0  0  0  0
 31 28  1  1  0  0  0
 33 32  1  0  0  0  0
 34 33  2  0  0  0  0
M  END
>  <MODEL>
7

>  <REMARK>
 VINA RESULT:      -7.7      2.863      6.702
  Name = 
  5 active torsions:
  status: ('A' for Active; 'I' for Inactive)
    1  A    between atoms: N_3  and  N_13
    2  A    between atoms: N_3  and  C_29
    3  A    between atoms: C_12  and  C_28
    4  A    between atoms: N_13  and  C_33
    5  A    between atoms: C_20  and  C_22
                            x       y       z     vdW  Elec       q    Type
                         _______ _______ _______ _____ _____    ______ ____

>  <TORSDO>
F 5

$$$$
=
 OpenBabel11062408093D

 34 40  0  0  1  0  0  0  0  0999 V2000
  158.9950  213.7410  152.9410 N   0  0  0  0  0  0  0  0  0  0  0  0
  158.8080  211.9640  154.5140 C   0  0  2  0  0  3  0  0  0  0  0  0
  160.0880  211.6890  152.3050 C   0  0  0  0  0  0  0  0  0  0  0  0
  161.2600  209.6610  151.4910 C   0  0  0  0  0  0  0  0  0  0  0  0
  158.2920  214.3460  154.0550 C   0  0  1  0  0  3  0  0  0  0  0  0
  158.1620  213.2360  155.1030 C   0  0  2  0  0  3  0  0  0  0  0  0
  160.4370  209.6320  153.7640 C   0  0  0  0  0  3  0  0  0  0  0  0
  159.3300  212.3880  153.1840 C   0  0  0  0  0  0  0  0  0  0  0  0
  160.9220  208.3320  153.9250 C   0  0  0  0  0  3  0  0  0  0  0  0
  161.7390  208.3580  151.6520 C   0  0  0  0  0  3  0  0  0  0  0  0
  159.1730  214.3530  155.2960 C   0  0  0  0  0  2  0  0  0  0  0  0
  160.4500  212.3570  151.0120 C   0  0  0  0  0  0  0  0  0  0  0  0
  159.3200  214.4120  151.7240 C   0  0  0  0  0  3  0  0  0  0  0  0
  157.7070  210.9320  154.3350 C   0  0  0  0  0  1  0  0  0  0  0  0
  161.4750  210.3240  150.2810 O   0  0  0  0  0  0  0  0  0  0  0  0
  161.1210  211.6650  150.0570 C   0  0  0  0  0  0  0  0  0  0  0  0
  161.5690  207.6870  152.8650 C   0  0  0  0  0  0  0  0  0  0  0  0
  160.5840  210.3050  152.5410 C   0  0  0  0  0  0  0  0  0  0  0  0
  160.0080  213.7590  150.7900 C   0  0  0  0  0  3  0  0  0  0  0  0
  160.8450  213.0100  146.5350 C   0  0  0  0  0  0  0  0  0  0  0  0
  162.1820  213.2270  146.1980 C   0  0  0  0  0  3  0  0  0  0  0  0
  161.5130  212.2390  148.7440 C   0  0  0  0  0  0  0  0  0  0  0  0
  163.1890  212.9420  147.1250 C   0  0  0  0  0  3  0  0  0  0  0  0
  160.5130  212.5120  147.7980 C   0  0  0  0  0  3  0  0  0  0  0  0
  162.8570  212.4450  148.3880 C   0  0  0  0  0  3  0  0  0  0  0  0
  159.8440  213.2860  145.6130 O   0  0  0  0  0  1  0  0  0  0  0  0
  162.0700  206.3590  153.0070 N   0  0  0  0  0  2  0  0  0  0  0  0
  162.1210  205.4740  151.9220 N   0  0  0  0  0  2  0  0  0  0  0  0
  161.5660  203.1560  151.4990 C   0  0  0  0  0  2  0  0  0  0  0  0
  160.4190  203.9550  150.9070 C   0  0  1  0  0  3  0  0  0  0  0  0
  161.1340  204.4370  152.1800 C   0  0  2  0  0  3  0  0  0  0  0  0
  160.4100  205.9440  149.3850 O   0  0  0  0  0  1  0  0  0  0  0  0
  160.8450  204.6500  149.6440 C   0  0  0  0  0  0  0  0  0  0  0  0
  161.5520  204.0480  148.7920 O   0  0  0  0  0  0  0  0  0  0  0  0
  1  8  1  0  0  0  0
  1  5  1  0  0  0  0
  2 14  1  6  0  0  0
  2  6  1  0  0  0  0
  3 18  1  0  0  0  0
  3  8  2  0  0  0  0
  4 10  2  0  0  0  0
  4 18  1  0  0  0  0
  5  6  1  0  0  0  0
  5 11  1  1  0  0  0
  6 11  1  1  0  0  0
  7  9  1  0  0  0  0
  8  2  1  0  0  0  0
 10 17  1  0  0  0  0
 12  3  1  0  0  0  0
 13  1  1  0  0  0  0
 15  4  1  0  0  0  0
 16 15  1  0  0  0  0
 16 12  2  0  0  0  0
 17 27  1  0  0  0  0
 17  9  2  0  0  0  0
 18  7  2  0  0  0  0
 19 12  1  0  0  0  0
 19 13  2  0  0  0  0
 20 24  1  0  0  0  0
 21 20  2  0  0  0  0
 21 23  1  0  0  0  0
 22 16  1  0  0  0  0
 23 25  2  0  0  0  0
 24 22  2  0  0  0  0
 25 22  1  0  0  0  0
 26 20  1  0  0  0  0
 28 27  1  0  0  0  0
 29 31  1  0  0  0  0
 30 33  1  6  0  0  0
 30 29  1  0  0  0  0
 30 31  1  0  0  0  0
 31 28  1  6  0  0  0
 32 33  1  0  0  0  0
 34 33  2  0  0  0  0
M  END
>  <MODEL>
8

>  <REMARK>
 VINA RESULT:      -7.4      2.645      7.470
  Name = 
  5 active torsions:
  status: ('A' for Active; 'I' for Inactive)
    1  A    between atoms: N_3  and  N_13
    2  A    between atoms: N_3  and  C_29
    3  A    between atoms: C_12  and  C_28
    4  A    between atoms: N_13  and  C_33
    5  A    between atoms: C_20  and  C_22
                            x       y       z     vdW  Elec       q    Type
                         _______ _______ _______ _____ _____    ______ ____

>  <TORSDO>
F 5

$$$$
=
 OpenBabel11062408093D

 34 40  0  0  1  0  0  0  0  0999 V2000
  160.5160  213.4810  149.2060 N   0  0  0  0  0  0  0  0  0  0  0  0
  161.8710  211.7240  148.3420 C   0  0  2  0  0  3  0  0  0  0  0  0
  160.8280  211.6030  150.6850 C   0  0  0  0  0  0  0  0  0  0  0  0
  161.0480  209.7640  152.3330 C   0  0  0  0  0  0  0  0  0  0  0  0
  160.8060  213.9110  147.8530 C   0  0  1  0  0  3  0  0  0  0  0  0
  161.6690  212.7970  147.2500 C   0  0  2  0  0  3  0  0  0  0  0  0
  161.9160  209.3740  150.1110 C   0  0  0  0  0  3  0  0  0  0  0  0
  161.0860  212.2210  149.5070 C   0  0  0  0  0  0  0  0  0  0  0  0
  162.3280  208.0960  150.4930 C   0  0  0  0  0  3  0  0  0  0  0  0
  161.4660  208.4860  152.7160 C   0  0  0  0  0  3  0  0  0  0  0  0
  160.2110  212.9360  146.8480 C   0  0  0  0  0  2  0  0  0  0  0  0
  160.0270  212.3550  151.7060 C   0  0  0  0  0  0  0  0  0  0  0  0
  159.7480  214.2270  150.1490 C   0  0  0  0  0  3  0  0  0  0  0  0
  163.3500  211.6950  148.6870 C   0  0  0  0  0  1  0  0  0  0  0  0
  160.3740  210.5670  153.2550 O   0  0  0  0  0  0  0  0  0  0  0  0
  159.8280  211.8210  152.9370 C   0  0  0  0  0  0  0  0  0  0  0  0
  162.1100  207.6490  151.8020 C   0  0  0  0  0  0  0  0  0  0  0  0
  161.2880  210.2290  151.0300 C   0  0  0  0  0  0  0  0  0  0  0  0
  159.5140  213.7040  151.3510 C   0  0  0  0  0  3  0  0  0  0  0  0
  156.9000  213.2120  154.8820 C   0  0  0  0  0  0  0  0  0  0  0  0
  157.5340  213.8450  155.9530 C   0  0  0  0  0  3  0  0  0  0  0  0
  159.0570  212.4960  154.0130 C   0  0  0  0  0  0  0  0  0  0  0  0
  158.9270  213.8160  156.0540 C   0  0  0  0  0  3  0  0  0  0  0  0
  157.6580  212.5480  153.9140 C   0  0  0  0  0  3  0  0  0  0  0  0
  159.6850  213.1510  155.0860 C   0  0  0  0  0  3  0  0  0  0  0  0
  155.5160  213.2450  154.7780 O   0  0  0  0  0  1  0  0  0  0  0  0
  162.5250  206.3480  152.2140 N   0  0  0  0  0  2  0  0  0  0  0  0
  162.3610  205.2300  151.3840 N   0  0  0  0  0  2  0  0  0  0  0  0
  161.3000  203.0560  151.4740 C   0  0  0  0  0  2  0  0  0  0  0  0
  160.3150  203.9510  150.7430 C   0  0  1  0  0  3  0  0  0  0  0  0
  161.1930  204.5120  151.8730 C   0  0  2  0  0  3  0  0  0  0  0  0
  160.5420  205.5030  148.7920 O   0  0  0  0  0  1  0  0  0  0  0  0
  160.8010  204.2600  149.3550 C   0  0  0  0  0  0  0  0  0  0  0  0
  161.3950  203.3800  148.6760 O   0  0  0  0  0  0  0  0  0  0  0  0
  1  8  1  0  0  0  0
  1 13  1  0  0  0  0
  2 14  1  1  0  0  0
  2  8  1  0  0  0  0
  3 18  1  0  0  0  0
  3 12  1  0  0  0  0
  4 10  1  0  0  0  0
  4 15  1  0  0  0  0
  5 11  1  6  0  0  0
  5  1  1  0  0  0  0
  6 11  1  6  0  0  0
  6  5  1  0  0  0  0
  6  2  1  0  0  0  0
  7  9  2  0  0  0  0
  7 18  1  0  0  0  0
  8  3  2  0  0  0  0
  9 17  1  0  0  0  0
 12 16  2  0  0  0  0
 13 19  2  0  0  0  0
 16 15  1  0  0  0  0
 16 22  1  0  0  0  0
 17 27  1  0  0  0  0
 17 10  2  0  0  0  0
 18  4  2  0  0  0  0
 19 12  1  0  0  0  0
 20 21  1  0  0  0  0
 21 23  2  0  0  0  0
 22 25  2  0  0  0  0
 24 22  1  0  0  0  0
 24 20  2  0  0  0  0
 25 23  1  0  0  0  0
 26 20  1  0  0  0  0
 28 27  1  0  0  0  0
 29 31  1  0  0  0  0
 30 33  1  6  0  0  0
 30 29  1  0  0  0  0
 30 31  1  0  0  0  0
 31 28  1  6  0  0  0
 32 33  1  0  0  0  0
 34 33  2  0  0  0  0
M  END
>  <MODEL>
9

>  <REMARK>
 VINA RESULT:      -7.0      2.960      8.540
  Name = 
  5 active torsions:
  status: ('A' for Active; 'I' for Inactive)
    1  A    between atoms: N_3  and  N_13
    2  A    between atoms: N_3  and  C_29
    3  A    between atoms: C_12  and  C_28
    4  A    between atoms: N_13  and  C_33
    5  A    between atoms: C_20  and  C_22
                            x       y       z     vdW  Elec       q    Type
                         _______ _______ _______ _____ _____    ______ ____

>  <TORSDO>
F 5

$$$$
