=
 OpenBabel11062408213D

 32 38  0  0  1  0  0  0  0  0999 V2000
  161.5980  207.6390  150.6440 C   0  0  0  0  0  0  0  0  0  0  0  0
  160.3960  205.8460  149.2830 C   0  0  1  0  0  3  0  0  0  0  0  0
  162.3310  208.8360  150.6670 C   0  0  0  0  0  3  0  0  0  0  0  0
  161.2020  207.1050  149.3990 C   0  0  0  0  0  0  0  0  0  0  0  0
  161.0120  205.0420  148.1310 C   0  0  1  0  0  3  0  0  0  0  0  0
  162.1190  201.9150  151.8710 C   0  0  0  0  0  2  0  0  0  0  0  0
  160.2090  205.0410  150.5880 C   0  0  2  0  0  3  0  0  0  0  0  0
  161.7840  201.7690  149.3710 C   0  0  0  0  0  2  0  0  0  0  0  0
  160.7570  202.8880  149.4810 C   0  0  2  0  0  3  0  0  0  0  0  0
  161.5720  207.7490  148.2030 C   0  0  0  0  0  0  0  0  0  0  0  0
  160.5070  203.5900  148.1330 C   0  0  0  0  0  2  0  0  0  0  0  0
  161.3460  207.0980  146.8510 C   0  0  0  0  0  2  0  0  0  0  0  0
  162.2810  208.9510  148.2530 C   0  0  0  0  0  3  0  0  0  0  0  0
  160.1920  205.9170  151.8400 C   0  0  0  0  0  2  0  0  0  0  0  0
  161.4100  206.8400  151.9150 C   0  0  2  0  0  3  0  0  0  0  0  0
  161.1480  203.8380  150.6260 C   0  0  2  0  0  3  0  0  0  0  0  0
  160.7290  205.7520  146.8730 N   0  0  0  0  0  0  0  0  0  0  0  0
  162.6480  209.5010  149.4820 C   0  0  0  0  0  3  0  0  0  0  0  0
  161.8190  200.9890  150.6880 C   0  0  0  0  0  2  0  0  0  0  0  0
  161.1080  203.0610  151.9390 C   0  0  0  0  0  2  0  0  0  0  0  0
  159.9390  207.4320  155.3490 C   0  0  1  0  0  3  0  0  0  0  0  0
  161.3390  210.8730  156.2080 C   0  0  0  0  0  1  0  0  0  0  0  0
  160.0600  206.8280  156.6010 O   0  0  0  0  0  1  0  0  0  0  0  0
  160.2400  209.7860  154.2750 C   0  0  2  0  0  3  0  0  0  0  0  0
  161.3840  207.7060  153.1870 C   0  0  1  0  0  3  0  0  0  0  0  0
  159.9140  208.9670  155.5240 C   0  0  2  0  0  3  0  0  0  0  0  0
  160.5010  208.9510  153.0070 C   0  0  0  0  0  2  0  0  0  0  0  0
  160.9890  206.9080  154.3990 C   0  0  0  0  0  0  0  0  0  0  0  0
  161.5220  205.8270  154.6110 O   0  0  0  0  0  0  0  0  0  0  0  0
  161.2870  209.6140  155.3690 C   0  0  2  0  0  3  0  0  0  0  0  0
  161.3500  205.0230  145.7740 C   0  0  0  0  0  2  0  0  0  0  0  0
  162.8570  205.0260  145.9430 C   0  0  0  0  0  1  0  0  0  0  0  0
  1  3  1  0  0  0  0
  1 15  1  0  0  0  0
  2  4  1  1  0  0  0
  2  7  1  0  0  0  0
  4  1  2  0  0  0  0
  5 11  1  6  0  0  0
  5  2  1  0  0  0  0
  6 20  1  0  0  0  0
  7 16  1  0  0  0  0
  7 14  1  1  0  0  0
  8  9  1  0  0  0  0
  8 19  1  0  0  0  0
  9 11  1  6  0  0  0
  9 16  1  0  0  0  0
 10 13  2  0  0  0  0
 10  4  1  0  0  0  0
 12 17  1  0  0  0  0
 12 10  1  0  0  0  0
 13 18  1  0  0  0  0
 15 14  1  6  0  0  0
 15 25  1  0  0  0  0
 16 20  1  1  0  0  0
 17  5  1  0  0  0  0
 18  3  2  0  0  0  0
 19  6  1  0  0  0  0
 21 26  1  0  0  0  0
 21 23  1  1  0  0  0
 24 27  1  6  0  0  0
 24 30  1  0  0  0  0
 24 26  1  0  0  0  0
 25 27  1  6  0  0  0
 25 28  1  0  0  0  0
 28 29  2  0  0  0  0
 28 21  1  0  0  0  0
 30 26  1  0  0  0  0
 30 22  1  0  0  0  0
 31 32  1  0  0  0  0
 31 17  1  0  0  0  0
M  END
>  <MODEL>
1

>  <REMARK>
 VINA RESULT:      -6.6      0.000      0.000
  Name = 
  2 active torsions:
  status: ('A' for Active; 'I' for Inactive)
    1  A    between atoms: C_13  and  N_29
    2  A    between atoms: C_16  and  C_27
                            x       y       z     vdW  Elec       q    Type
                         _______ _______ _______ _____ _____    ______ ____

>  <TORSDO>
F 2

$$$$
=
 OpenBabel11062408213D

 32 38  0  0  1  0  0  0  0  0999 V2000
  161.7750  209.0570  150.0290 C   0  0  0  0  0  0  0  0  0  0  0  0
  160.5240  207.9440  151.9550 C   0  0  1  0  0  3  0  0  0  0  0  0
  162.4650  208.9270  148.8120 C   0  0  0  0  0  3  0  0  0  0  0  0
  161.2920  207.8950  150.6680 C   0  0  0  0  0  0  0  0  0  0  0  0
  161.0670  206.8040  152.8260 C   0  0  1  0  0  3  0  0  0  0  0  0
  162.6020  210.6520  155.6250 C   0  0  0  0  0  2  0  0  0  0  0  0
  160.4800  209.3160  152.6620 C   0  0  2  0  0  3  0  0  0  0  0  0
  162.0590  208.2090  155.9710 C   0  0  0  0  0  2  0  0  0  0  0  0
  161.0060  208.3270  154.8770 C   0  0  2  0  0  3  0  0  0  0  0  0
  161.5350  206.6260  150.1070 C   0  0  0  0  0  0  0  0  0  0  0  0
  160.6160  206.9580  154.2880 C   0  0  0  0  0  2  0  0  0  0  0  0
  161.2160  205.3520  150.8660 C   0  0  0  0  0  2  0  0  0  0  0  0
  162.2030  206.5250  148.8840 C   0  0  0  0  0  3  0  0  0  0  0  0
  160.5400  210.4970  151.6940 C   0  0  0  0  0  2  0  0  0  0  0  0
  161.7260  210.3950  150.7330 C   0  0  2  0  0  3  0  0  0  0  0  0
  161.4600  209.3590  153.8320 C   0  0  2  0  0  3  0  0  0  0  0  0
  160.6510  205.5280  152.2230 N   0  0  0  0  0  0  0  0  0  0  0  0
  162.6550  207.6720  148.2320 C   0  0  0  0  0  3  0  0  0  0  0  0
  162.2340  209.5710  156.6470 C   0  0  0  0  0  2  0  0  0  0  0  0
  161.5620  210.7240  154.5070 C   0  0  0  0  0  2  0  0  0  0  0  0
  159.8650  213.2210  149.0420 C   0  0  1  0  0  3  0  0  0  0  0  0
  162.4490  214.4530  146.5250 C   0  0  0  0  0  1  0  0  0  0  0  0
  159.3470  214.4530  149.4460 O   0  0  0  0  0  1  0  0  0  0  0  0
  161.5220  212.2810  147.2660 C   0  0  2  0  0  3  0  0  0  0  0  0
  161.7800  211.5970  149.7740 C   0  0  1  0  0  3  0  0  0  0  0  0
  160.5280  213.3750  147.6560 C   0  0  2  0  0  3  0  0  0  0  0  0
  161.6790  211.1550  148.3050 C   0  0  0  0  0  2  0  0  0  0  0  0
  160.7470  212.6350  150.1190 C   0  0  0  0  0  0  0  0  0  0  0  0
  160.6240  213.0020  151.2790 O   0  0  0  0  0  0  0  0  0  0  0  0
  162.0280  213.6410  147.7310 C   0  0  2  0  0  3  0  0  0  0  0  0
  161.2010  204.4340  153.0150 C   0  0  0  0  0  2  0  0  0  0  0  0
  161.2110  203.1600  152.1940 C   0  0  0  0  0  1  0  0  0  0  0  0
  1  4  1  0  0  0  0
  1 15  1  0  0  0  0
  2  4  1  6  0  0  0
  2  7  1  0  0  0  0
  2  5  1  0  0  0  0
  3  1  2  0  0  0  0
  5 11  1  1  0  0  0
  6 19  1  0  0  0  0
  7 14  1  6  0  0  0
  7 16  1  0  0  0  0
  8 19  1  0  0  0  0
  9 11  1  6  0  0  0
  9  8  1  0  0  0  0
 10  4  2  0  0  0  0
 10 12  1  0  0  0  0
 12 17  1  0  0  0  0
 13 10  1  0  0  0  0
 15 14  1  6  0  0  0
 16 20  1  1  0  0  0
 16  9  1  0  0  0  0
 17  5  1  0  0  0  0
 17 31  1  0  0  0  0
 18  3  1  0  0  0  0
 18 13  2  0  0  0  0
 20  6  1  0  0  0  0
 21 23  1  1  0  0  0
 21 28  1  0  0  0  0
 22 30  1  0  0  0  0
 24 26  1  0  0  0  0
 24 30  1  0  0  0  0
 24 27  1  1  0  0  0
 25 27  1  6  0  0  0
 25 28  1  0  0  0  0
 25 15  1  0  0  0  0
 26 30  1  0  0  0  0
 26 21  1  0  0  0  0
 28 29  2  0  0  0  0
 32 31  1  0  0  0  0
M  END
>  <MODEL>
2

>  <REMARK>
 VINA RESULT:      -5.4      3.381      6.706
  Name = 
  2 active torsions:
  status: ('A' for Active; 'I' for Inactive)
    1  A    between atoms: C_13  and  N_29
    2  A    between atoms: C_16  and  C_27
                            x       y       z     vdW  Elec       q    Type
                         _______ _______ _______ _____ _____    ______ ____

>  <TORSDO>
F 2

$$$$
=
 OpenBabel11062408213D

 32 38  0  0  1  0  0  0  0  0999 V2000
  160.8380  210.9680  151.2390 C   0  0  0  0  0  0  0  0  0  0  0  0
  160.4830  213.1370  149.9420 C   0  0  1  0  0  3  0  0  0  0  0  0
  161.4380  209.7010  151.3150 C   0  0  0  0  0  3  0  0  0  0  0  0
  161.0630  211.7630  150.0950 C   0  0  0  0  0  0  0  0  0  0  0  0
  159.9800  213.2360  148.4960 C   0  0  1  0  0  3  0  0  0  0  0  0
  155.5640  213.5290  150.8230 C   0  0  0  0  0  2  0  0  0  0  0  0
  159.4420  213.5510  151.0040 C   0  0  2  0  0  3  0  0  0  0  0  0
  156.5380  214.2350  148.6020 C   0  0  0  0  0  2  0  0  0  0  0  0
  157.8760  214.4460  149.2980 C   0  0  2  0  0  3  0  0  0  0  0  0
  161.8480  211.2700  149.0350 C   0  0  0  0  0  0  0  0  0  0  0  0
  159.0580  214.4530  148.3100 C   0  0  0  0  0  2  0  0  0  0  0  0
  161.9400  212.0050  147.7110 C   0  0  0  0  0  2  0  0  0  0  0  0
  162.4540  210.0170  149.1440 C   0  0  0  0  0  3  0  0  0  0  0  0
  159.6810  212.9060  152.3690 C   0  0  0  0  0  2  0  0  0  0  0  0
  159.8150  211.3850  152.2720 C   0  0  2  0  0  3  0  0  0  0  0  0
  158.0230  213.4390  150.4510 C   0  0  2  0  0  3  0  0  0  0  0  0
  161.1490  213.2530  147.6040 N   0  0  0  0  0  0  0  0  0  0  0  0
  162.2610  209.2390  150.2870 C   0  0  0  0  0  3  0  0  0  0  0  0
  155.4080  214.4530  149.6110 C   0  0  0  0  0  2  0  0  0  0  0  0
  156.9310  213.7170  151.4820 C   0  0  0  0  0  2  0  0  0  0  0  0
  159.3970  211.6550  156.0220 C   0  0  1  0  0  3  0  0  0  0  0  0
  161.5280  208.7420  157.2500 C   0  0  0  0  0  1  0  0  0  0  0  0
  158.3310  211.5380  156.9150 O   0  0  0  0  0  1  0  0  0  0  0  0
  161.7460  210.6000  155.6300 C   0  0  2  0  0  3  0  0  0  0  0  0
  160.0430  210.7500  153.6550 C   0  0  1  0  0  3  0  0  0  0  0  0
  160.6430  210.9680  156.6230 C   0  0  2  0  0  3  0  0  0  0  0  0
  161.4650  211.0160  154.1730 C   0  0  0  0  0  2  0  0  0  0  0  0
  158.9960  211.1770  154.6470 C   0  0  0  0  0  0  0  0  0  0  0  0
  157.8140  211.1370  154.3330 O   0  0  0  0  0  0  0  0  0  0  0  0
  160.8140  209.5220  156.1670 C   0  0  2  0  0  3  0  0  0  0  0  0
  160.6840  213.2990  146.2230 C   0  0  0  0  0  2  0  0  0  0  0  0
  159.6980  212.1730  145.9760 C   0  0  0  0  0  1  0  0  0  0  0  0
  1  3  1  0  0  0  0
  1 15  1  0  0  0  0
  2  4  1  1  0  0  0
  2  7  1  0  0  0  0
  4  1  2  0  0  0  0
  5 11  1  1  0  0  0
  5  2  1  0  0  0  0
  6 20  1  0  0  0  0
  7 14  1  1  0  0  0
  8  9  1  0  0  0  0
  8 19  1  0  0  0  0
  9 11  1  6  0  0  0
  9 16  1  0  0  0  0
 10 13  2  0  0  0  0
 10  4  1  0  0  0  0
 12 10  1  0  0  0  0
 13 18  1  0  0  0  0
 15 14  1  1  0  0  0
 15 25  1  0  0  0  0
 16  7  1  0  0  0  0
 16 20  1  1  0  0  0
 17 12  1  0  0  0  0
 17  5  1  0  0  0  0
 18  3  2  0  0  0  0
 19  6  1  0  0  0  0
 21 26  1  0  0  0  0
 21 23  1  1  0  0  0
 24 27  1  6  0  0  0
 24 30  1  0  0  0  0
 24 26  1  0  0  0  0
 25 27  1  1  0  0  0
 25 28  1  0  0  0  0
 28 21  1  0  0  0  0
 29 28  2  0  0  0  0
 30 26  1  0  0  0  0
 30 22  1  0  0  0  0
 31 17  1  0  0  0  0
 32 31  1  0  0  0  0
M  END
>  <MODEL>
3

>  <REMARK>
 VINA RESULT:      -4.9      4.631      7.409
  Name = 
  2 active torsions:
  status: ('A' for Active; 'I' for Inactive)
    1  A    between atoms: C_13  and  N_29
    2  A    between atoms: C_16  and  C_27
                            x       y       z     vdW  Elec       q    Type
                         _______ _______ _______ _____ _____    ______ ____

>  <TORSDO>
F 2

$$$$
