=
 OpenBabel11062410543D

 32 36  0  0  1  0  0  0  0  0999 V2000
  162.8850  210.6880  156.6100 C   0  0  0  0  0  3  0  0  0  0  0  0
  162.0760  211.6260  157.2490 C   0  0  0  0  0  3  0  0  0  0  0  0
  162.3860  209.9530  155.5350 C   0  0  0  0  0  3  0  0  0  0  0  0
  161.0690  210.1390  155.0810 C   0  0  0  0  0  0  0  0  0  0  0  0
  160.7710  211.8360  156.8040 C   0  0  0  0  0  3  0  0  0  0  0  0
  160.2550  211.1030  155.7230 C   0  0  0  0  0  0  0  0  0  0  0  0
  156.5370  211.9100  155.9340 N   0  0  0  0  0  0  0  0  0  0  0  0
  156.4100  212.7110  154.7570 C   0  0  0  0  0  0  0  0  0  0  0  0
  156.9350  213.8110  152.9780 C   0  0  0  0  0  0  0  0  0  0  0  0
  158.8710  211.4090  155.2340 C   0  0  2  0  0  3  0  0  0  0  0  0
  155.6090  213.9510  153.1920 N   0  0  0  0  0  0  0  0  0  0  0  0
  155.2820  213.2740  154.2890 N   0  0  0  0  0  2  0  0  0  0  0  0
  158.8750  212.6130  154.2650 C   0  0  0  0  0  2  0  0  0  0  0  0
  155.3730  211.5350  156.7210 C   0  0  0  0  0  1  0  0  0  0  0  0
  157.6760  214.4530  151.8580 C   0  0  0  0  0  1  0  0  0  0  0  0
  157.8830  211.5800  156.4120 C   0  0  0  0  0  2  0  0  0  0  0  0
  157.4690  213.0100  153.9590 C   0  0  0  0  0  0  0  0  0  0  0  0
  162.8510  205.7140  151.1930 C   0  0  0  0  0  2  0  0  0  0  0  0
  160.5670  209.8730  152.6260 C   0  0  0  0  0  2  0  0  0  0  0  0
  161.6090  207.2570  153.2390 C   0  0  2  0  0  3  0  0  0  0  0  0
  161.6890  209.2130  151.8330 C   0  0  0  0  0  2  0  0  0  0  0  0
  162.7170  207.2460  151.1250 C   0  0  0  0  0  2  0  0  0  0  0  0
  160.5840  209.3380  153.9830 N   0  0  0  0  0  0  0  0  0  0  0  0
  161.7140  205.0370  151.9550 C   0  0  1  0  0  3  0  0  0  0  0  0
  161.5510  207.7540  151.8490 N   0  0  1  0  0  0  0  0  0  0  0  0
  161.4510  205.7320  153.2980 C   0  0  0  0  0  2  0  0  0  0  0  0
  160.5040  207.8870  154.0900 C   0  0  0  0  0  2  0  0  0  0  0  0
  160.4550  204.9930  151.1020 C   0  0  0  0  0  2  0  0  0  0  0  0
  160.7950  204.5960  149.6780 C   0  0  0  0  0  2  0  0  0  0  0  0
  160.7500  203.0870  149.5570 C   0  0  0  0  0  2  0  0  0  0  0  0
  161.4470  203.8570  147.2910 C   0  0  0  0  0  1  0  0  0  0  0  0
  161.1780  202.6470  148.1680 C   0  0  0  0  0  2  0  0  0  0  0  0
  1  2  1  0  0  0  0
  3  1  2  0  0  0  0
  4  3  1  0  0  0  0
  4  6  2  0  0  0  0
  5  2  2  0  0  0  0
  6  5  1  0  0  0  0
  7 16  1  0  0  0  0
  7 14  1  0  0  0  0
  8  7  1  0  0  0  0
  9 11  2  0  0  0  0
  9 17  1  0  0  0  0
 10  6  1  1  0  0  0
 10 16  1  0  0  0  0
 11 12  1  0  0  0  0
 12  8  1  0  0  0  0
 13 10  1  0  0  0  0
 15  9  1  0  0  0  0
 17 13  1  0  0  0  0
 17  8  2  0  0  0  0
 18 24  1  0  0  0  0
 19 23  1  0  0  0  0
 20 26  1  6  0  0  0
 20 27  1  0  0  0  0
 21 25  1  0  0  0  0
 21 19  1  0  0  0  0
 22 18  1  0  0  0  0
 23 27  1  0  0  0  0
 23  4  1  0  0  0  0
 24 28  1  6  0  0  0
 24 26  1  0  0  0  0
 25 22  1  6  0  0  0
 25 20  1  0  0  0  0
 29 28  1  0  0  0  0
 30 29  1  0  0  0  0
 31 32  1  0  0  0  0
 32 30  1  0  0  0  0
M  END
>  <MODEL>
1

>  <REMARK>
 VINA RESULT:      -7.1      0.000      0.000
  Name = 
  6 active torsions:
  status: ('A' for Active; 'I' for Inactive)
    1  A    between atoms: C_10  and  C_20
    2  A    between atoms: C_10  and  C_24
    3  A    between atoms: N_14  and  C_15
    4  A    between atoms: C_16  and  C_26
    5  A    between atoms: C_17  and  C_20
    6  A    between atoms: C_19  and  C_24
                            x       y       z     vdW  Elec       q    Type
                         _______ _______ _______ _____ _____    ______ ____

>  <TORSDO>
F 6

$$$$
=
 OpenBabel11062410543D

 32 36  0  0  1  0  0  0  0  0999 V2000
  162.1860  210.5760  156.7510 C   0  0  0  0  0  3  0  0  0  0  0  0
  161.5270  211.7830  156.9790 C   0  0  0  0  0  3  0  0  0  0  0  0
  161.8060  209.7650  155.6810 C   0  0  0  0  0  3  0  0  0  0  0  0
  160.7600  210.1430  154.8230 C   0  0  0  0  0  0  0  0  0  0  0  0
  160.4960  212.1830  156.1300 C   0  0  0  0  0  3  0  0  0  0  0  0
  160.1030  211.3770  155.0490 C   0  0  0  0  0  0  0  0  0  0  0  0
  156.9140  213.1660  153.9780 N   0  0  0  0  0  0  0  0  0  0  0  0
  157.3120  213.5780  152.6690 C   0  0  0  0  0  0  0  0  0  0  0  0
  158.5350  213.9080  150.9240 C   0  0  0  0  0  0  0  0  0  0  0  0
  159.0360  211.8770  154.1220 C   0  0  2  0  0  3  0  0  0  0  0  0
  157.3190  214.4530  150.7030 N   0  0  0  0  0  0  0  0  0  0  0  0
  156.5630  214.2520  151.7780 N   0  0  0  0  0  0  0  0  0  0  0  0
  159.6460  212.6850  152.9550 C   0  0  0  0  0  2  0  0  0  0  0  0
  155.5550  213.3710  154.4520 C   0  0  0  0  0  1  0  0  0  0  0  0
  159.6650  213.9610  149.9560 C   0  0  0  0  0  1  0  0  0  0  0  0
  157.9390  212.6520  154.8900 C   0  0  0  0  0  2  0  0  0  0  0  0
  158.5520  213.3300  152.1700 C   0  0  1  0  0  3  0  0  0  0  0  0
  162.9760  205.6000  151.3130 C   0  0  0  0  0  2  0  0  0  0  0  0
  160.4280  209.7200  152.3620 C   0  0  0  0  0  2  0  0  0  0  0  0
  161.5400  207.1930  153.1870 C   0  0  2  0  0  3  0  0  0  0  0  0
  161.6260  209.0710  151.6790 C   0  0  0  0  0  2  0  0  0  0  0  0
  162.7810  207.1180  151.1490 C   0  0  0  0  0  2  0  0  0  0  0  0
  160.3810  209.2620  153.7460 N   0  0  0  0  0  0  0  0  0  0  0  0
  161.8220  204.9130  152.0420 C   0  0  1  0  0  3  0  0  0  0  0  0
  161.5510  207.6100  151.7700 N   0  0  1  0  0  0  0  0  0  0  0  0
  161.4440  205.6680  153.3240 C   0  0  0  0  0  2  0  0  0  0  0  0
  160.3570  207.8160  153.9300 C   0  0  0  0  0  2  0  0  0  0  0  0
  160.6250  204.7640  151.1160 C   0  0  0  0  0  2  0  0  0  0  0  0
  161.0250  204.0410  149.8450 C   0  0  0  0  0  2  0  0  0  0  0  0
  160.1040  202.8570  149.6340 C   0  0  0  0  0  2  0  0  0  0  0  0
  161.4140  200.8800  148.8680 C   0  0  0  0  0  1  0  0  0  0  0  0
  160.7810  201.5670  150.0640 C   0  0  0  0  0  2  0  0  0  0  0  0
  1  2  1  0  0  0  0
  3  1  2  0  0  0  0
  4  6  2  0  0  0  0
  4  3  1  0  0  0  0
  5  2  2  0  0  0  0
  6  5  1  0  0  0  0
  7 14  1  0  0  0  0
  7 16  1  0  0  0  0
  8  7  1  0  0  0  0
  9 17  1  0  0  0  0
 10 16  1  0  0  0  0
 10  6  1  1  0  0  0
 11  9  2  0  0  0  0
 11 12  1  0  0  0  0
 12  8  2  0  0  0  0
 13 10  1  0  0  0  0
 15  9  1  0  0  0  0
 17  8  1  0  0  0  0
 17 13  1  1  0  0  0
 18 24  1  0  0  0  0
 19 23  1  0  0  0  0
 20 26  1  6  0  0  0
 20 27  1  0  0  0  0
 21 25  1  0  0  0  0
 21 19  1  0  0  0  0
 22 18  1  0  0  0  0
 23 27  1  0  0  0  0
 23  4  1  0  0  0  0
 24 28  1  6  0  0  0
 24 26  1  0  0  0  0
 25 22  1  6  0  0  0
 25 20  1  0  0  0  0
 29 28  1  0  0  0  0
 30 29  1  0  0  0  0
 30 32  1  0  0  0  0
 31 32  1  0  0  0  0
M  END
>  <MODEL>
2

>  <REMARK>
 VINA RESULT:      -6.2      1.170      1.630
  Name = 
  6 active torsions:
  status: ('A' for Active; 'I' for Inactive)
    1  A    between atoms: C_10  and  C_20
    2  A    between atoms: C_10  and  C_24
    3  A    between atoms: N_14  and  C_15
    4  A    between atoms: C_16  and  C_26
    5  A    between atoms: C_17  and  C_20
    6  A    between atoms: C_19  and  C_24
                            x       y       z     vdW  Elec       q    Type
                         _______ _______ _______ _____ _____    ______ ____

>  <TORSDO>
F 6

$$$$
=
 OpenBabel11062410543D

 32 36  0  0  1  0  0  0  0  0999 V2000
  162.5020  211.0410  148.5000 C   0  0  0  0  0  3  0  0  0  0  0  0
  162.2720  211.5850  149.7630 C   0  0  0  0  0  3  0  0  0  0  0  0
  162.2970  209.6790  148.2800 C   0  0  0  0  0  3  0  0  0  0  0  0
  161.8610  208.8360  149.3170 C   0  0  0  0  0  0  0  0  0  0  0  0
  161.8260  210.7690  150.8010 C   0  0  0  0  0  3  0  0  0  0  0  0
  161.6140  209.3960  150.5940 C   0  0  0  0  0  0  0  0  0  0  0  0
  161.3850  206.4880  153.0450 N   0  0  0  0  0  0  0  0  0  0  0  0
  160.8260  207.1760  154.1650 C   0  0  0  0  0  0  0  0  0  0  0  0
  160.0800  208.7750  155.4050 C   0  0  0  0  0  0  0  0  0  0  0  0
  161.0690  208.5680  151.7200 C   0  0  2  0  0  3  0  0  0  0  0  0
  160.0320  207.6260  156.1130 N   0  0  0  0  0  0  0  0  0  0  0  0
  160.4920  206.6380  155.3510 N   0  0  0  0  0  2  0  0  0  0  0  0
  160.9230  209.4080  153.0090 C   0  0  0  0  0  2  0  0  0  0  0  0
  161.5670  205.0450  153.0600 C   0  0  0  0  0  1  0  0  0  0  0  0
  159.6750  210.1050  155.9370 C   0  0  0  0  0  1  0  0  0  0  0  0
  161.9000  207.2800  151.9240 C   0  0  0  0  0  2  0  0  0  0  0  0
  160.5710  208.5110  154.1490 C   0  0  0  0  0  0  0  0  0  0  0  0
  161.0860  204.8670  144.6790 C   0  0  0  0  0  2  0  0  0  0  0  0
  160.3750  206.8070  149.1850 C   0  0  0  0  0  2  0  0  0  0  0  0
  162.0610  206.3790  146.8880 C   0  0  2  0  0  3  0  0  0  0  0  0
  159.8310  206.5280  147.7880 C   0  0  0  0  0  2  0  0  0  0  0  0
  160.1620  205.5630  145.6940 C   0  0  0  0  0  2  0  0  0  0  0  0
  161.6870  207.4290  149.0530 N   0  0  0  0  0  0  0  0  0  0  0  0
  162.4140  204.4080  145.2800 C   0  0  1  0  0  3  0  0  0  0  0  0
  160.7600  205.6920  147.0230 N   0  0  1  0  0  0  0  0  0  0  0  0
  163.0680  205.5250  146.1050 C   0  0  0  0  0  2  0  0  0  0  0  0
  162.6600  206.6870  148.2610 C   0  0  0  0  0  2  0  0  0  0  0  0
  162.2120  203.1520  146.1140 C   0  0  0  0  0  2  0  0  0  0  0  0
  161.0240  202.3610  145.6020 C   0  0  0  0  0  2  0  0  0  0  0  0
  160.5280  201.4410  146.6980 C   0  0  0  0  0  2  0  0  0  0  0  0
  161.0990  200.9640  149.0770 C   0  0  0  0  0  1  0  0  0  0  0  0
  160.7820  202.0510  148.0660 C   0  0  0  0  0  2  0  0  0  0  0  0
  1  2  1  0  0  0  0
  2  5  2  0  0  0  0
  3  1  2  0  0  0  0
  3  4  1  0  0  0  0
  4  6  2  0  0  0  0
  6  5  1  0  0  0  0
  7 14  1  0  0  0  0
  7  8  1  0  0  0  0
  8 12  1  0  0  0  0
  9 15  1  0  0  0  0
  9 11  2  0  0  0  0
 10  6  1  6  0  0  0
 10 16  1  0  0  0  0
 10 13  1  0  0  0  0
 12 11  1  0  0  0  0
 13 17  1  0  0  0  0
 16  7  1  0  0  0  0
 17  8  2  0  0  0  0
 17  9  1  0  0  0  0
 18 24  1  0  0  0  0
 18 22  1  0  0  0  0
 20 26  1  6  0  0  0
 20 25  1  0  0  0  0
 20 27  1  0  0  0  0
 21 19  1  0  0  0  0
 23 19  1  0  0  0  0
 23  4  1  0  0  0  0
 24 26  1  0  0  0  0
 24 28  1  1  0  0  0
 25 22  1  6  0  0  0
 25 21  1  0  0  0  0
 27 23  1  0  0  0  0
 29 28  1  0  0  0  0
 29 30  1  0  0  0  0
 30 32  1  0  0  0  0
 32 31  1  0  0  0  0
M  END
>  <MODEL>
3

>  <REMARK>
 VINA RESULT:      -5.4      3.392      6.326
  Name = 
  6 active torsions:
  status: ('A' for Active; 'I' for Inactive)
    1  A    between atoms: C_10  and  C_20
    2  A    between atoms: C_10  and  C_24
    3  A    between atoms: N_14  and  C_15
    4  A    between atoms: C_16  and  C_26
    5  A    between atoms: C_17  and  C_20
    6  A    between atoms: C_19  and  C_24
                            x       y       z     vdW  Elec       q    Type
                         _______ _______ _______ _____ _____    ______ ____

>  <TORSDO>
F 6

$$$$
=
 OpenBabel11062410543D

 32 36  0  0  1  0  0  0  0  0999 V2000
  161.0530  209.6690  157.0370 C   0  0  0  0  0  3  0  0  0  0  0  0
  161.7990  208.5270  156.7470 C   0  0  0  0  0  3  0  0  0  0  0  0
  160.2480  210.2450  156.0540 C   0  0  0  0  0  3  0  0  0  0  0  0
  160.1770  209.6940  154.7630 C   0  0  0  0  0  0  0  0  0  0  0  0
  161.7300  207.9560  155.4770 C   0  0  0  0  0  3  0  0  0  0  0  0
  160.9250  208.5250  154.4770 C   0  0  0  0  0  0  0  0  0  0  0  0
  161.6690  207.8280  150.8060 N   0  0  0  0  0  0  0  0  0  0  0  0
  161.4830  206.4110  150.8000 C   0  0  0  0  0  0  0  0  0  0  0  0
  161.1160  204.4040  151.5000 C   0  0  0  0  0  0  0  0  0  0  0  0
  160.8280  207.8410  153.1460 C   0  0  2  0  0  3  0  0  0  0  0  0
  161.3640  204.3570  150.1730 N   0  0  0  0  0  0  0  0  0  0  0  0
  161.5900  205.5930  149.7390 N   0  0  0  0  0  0  0  0  0  0  0  0
  161.0790  206.3220  153.2820 C   0  0  0  0  0  2  0  0  0  0  0  0
  161.9160  208.5610  149.5750 C   0  0  0  0  0  1  0  0  0  0  0  0
  160.8470  203.2100  152.3460 C   0  0  0  0  0  1  0  0  0  0  0  0
  161.7410  208.5180  152.0970 C   0  0  0  0  0  2  0  0  0  0  0  0
  161.1720  205.7110  151.9230 C   0  0  1  0  0  3  0  0  0  0  0  0
  160.1750  214.4490  150.8570 C   0  0  0  0  0  2  0  0  0  0  0  0
  158.3030  211.2670  154.1650 C   0  0  0  0  0  2  0  0  0  0  0  0
  160.1910  211.8740  152.0740 C   0  0  2  0  0  3  0  0  0  0  0  0
  158.7640  212.6830  153.8400 C   0  0  0  0  0  2  0  0  0  0  0  0
  159.5930  214.1780  152.2560 C   0  0  0  0  0  2  0  0  0  0  0  0
  159.3540  210.3370  153.7690 N   0  0  0  0  0  0  0  0  0  0  0  0
  160.0710  213.2530  149.9130 C   0  0  1  0  0  3  0  0  0  0  0  0
  159.1000  212.8090  152.4190 N   0  0  1  0  0  0  0  0  0  0  0  0
  160.5600  211.9650  150.5880 C   0  0  0  0  0  2  0  0  0  0  0  0
  159.7880  210.4300  152.3800 C   0  0  0  0  0  2  0  0  0  0  0  0
  158.6450  213.1020  149.4030 C   0  0  0  0  0  2  0  0  0  0  0  0
  158.5190  213.6730  148.0040 C   0  0  0  0  0  2  0  0  0  0  0  0
  159.0590  212.6690  147.0060 C   0  0  0  0  0  2  0  0  0  0  0  0
  160.6000  214.4510  146.1900 C   0  0  0  0  0  1  0  0  0  0  0  0
  159.6090  213.3760  145.7790 C   0  0  0  0  0  2  0  0  0  0  0  0
  2  1  1  0  0  0  0
  3  1  2  0  0  0  0
  4  3  1  0  0  0  0
  5  2  2  0  0  0  0
  6  4  2  0  0  0  0
  6  5  1  0  0  0  0
  7 16  1  0  0  0  0
  8  7  1  0  0  0  0
  8 17  1  0  0  0  0
  9 17  1  0  0  0  0
  9 15  1  0  0  0  0
 10 13  1  0  0  0  0
 10  6  1  1  0  0  0
 11  9  2  0  0  0  0
 12 11  1  0  0  0  0
 12  8  2  0  0  0  0
 14  7  1  0  0  0  0
 16 10  1  0  0  0  0
 17 13  1  1  0  0  0
 18 22  1  0  0  0  0
 20 26  1  6  0  0  0
 20 27  1  0  0  0  0
 20 25  1  0  0  0  0
 21 19  1  0  0  0  0
 23 19  1  0  0  0  0
 23  4  1  0  0  0  0
 24 28  1  1  0  0  0
 24 26  1  0  0  0  0
 24 18  1  0  0  0  0
 25 22  1  1  0  0  0
 25 21  1  0  0  0  0
 27 23  1  0  0  0  0
 29 28  1  0  0  0  0
 30 29  1  0  0  0  0
 32 31  1  0  0  0  0
 32 30  1  0  0  0  0
M  END
>  <MODEL>
4

>  <REMARK>
 VINA RESULT:      -4.7      2.762      7.597
  Name = 
  6 active torsions:
  status: ('A' for Active; 'I' for Inactive)
    1  A    between atoms: C_10  and  C_20
    2  A    between atoms: C_10  and  C_24
    3  A    between atoms: N_14  and  C_15
    4  A    between atoms: C_16  and  C_26
    5  A    between atoms: C_17  and  C_20
    6  A    between atoms: C_19  and  C_24
                            x       y       z     vdW  Elec       q    Type
                         _______ _______ _______ _____ _____    ______ ____

>  <TORSDO>
F 6

$$$$
=
 OpenBabel11062410543D

 32 36  0  0  1  0  0  0  0  0999 V2000
  161.3800  210.8550  155.2420 C   0  0  0  0  0  3  0  0  0  0  0  0
  161.8170  209.5370  155.3700 C   0  0  0  0  0  3  0  0  0  0  0  0
  160.8430  211.2980  154.0340 C   0  0  0  0  0  3  0  0  0  0  0  0
  160.7350  210.4350  152.9310 C   0  0  0  0  0  0  0  0  0  0  0  0
  161.7040  208.6610  154.2920 C   0  0  0  0  0  3  0  0  0  0  0  0
  161.1660  209.0920  153.0690 C   0  0  0  0  0  0  0  0  0  0  0  0
  161.8310  207.4050  149.7180 N   0  0  0  0  0  0  0  0  0  0  0  0
  161.5120  206.0580  150.0730 C   0  0  0  0  0  0  0  0  0  0  0  0
  160.9610  204.3430  151.2580 C   0  0  0  0  0  0  0  0  0  0  0  0
  161.0010  208.0990  151.9580 C   0  0  2  0  0  3  0  0  0  0  0  0
  161.1990  203.9310  149.9930 N   0  0  0  0  0  0  0  0  0  0  0  0
  161.5400  204.9870  149.2610 N   0  0  0  0  0  0  0  0  0  0  0  0
  161.1100  206.6500  152.4850 C   0  0  0  0  0  2  0  0  0  0  0  0
  162.1410  207.7700  148.3450 C   0  0  0  0  0  1  0  0  0  0  0  0
  160.5840  203.4360  152.3770 C   0  0  0  0  0  1  0  0  0  0  0  0
  161.9710  208.3960  150.7900 C   0  0  0  0  0  2  0  0  0  0  0  0
  161.1410  205.7030  151.3320 C   0  0  1  0  0  3  0  0  0  0  0  0
  161.9670  214.4530  148.4360 C   0  0  0  0  0  2  0  0  0  0  0  0
  159.1720  211.9770  151.6960 C   0  0  0  0  0  2  0  0  0  0  0  0
  161.5030  212.1240  150.0080 C   0  0  2  0  0  3  0  0  0  0  0  0
  159.8120  213.2920  151.2660 C   0  0  0  0  0  2  0  0  0  0  0  0
  161.0820  214.4530  149.6950 C   0  0  0  0  0  2  0  0  0  0  0  0
  160.1990  210.9410  151.6910 N   0  0  0  0  0  0  0  0  0  0  0  0
  161.9610  213.1210  147.6880 C   0  0  1  0  0  3  0  0  0  0  0  0
  160.4500  213.1580  149.9540 N   0  0  1  0  0  0  0  0  0  0  0  0
  162.1830  211.9420  148.6450 C   0  0  0  0  0  2  0  0  0  0  0  0
  160.9210  210.7750  150.4360 C   0  0  0  0  0  2  0  0  0  0  0  0
  160.6670  212.9580  146.9040 C   0  0  0  0  0  2  0  0  0  0  0  0
  160.5850  213.9900  145.7960 C   0  0  0  0  0  2  0  0  0  0  0  0
  161.7050  213.7480  144.8060 C   0  0  0  0  0  2  0  0  0  0  0  0
  162.3220  212.5750  142.6950 C   0  0  0  0  0  1  0  0  0  0  0  0
  161.1730  213.0870  143.5460 C   0  0  0  0  0  2  0  0  0  0  0  0
  1  2  1  0  0  0  0
  3  1  2  0  0  0  0
  4  6  2  0  0  0  0
  4  3  1  0  0  0  0
  5  2  2  0  0  0  0
  6  5  1  0  0  0  0
  7  8  1  0  0  0  0
  7 16  1  0  0  0  0
  8 17  1  0  0  0  0
  9 17  1  0  0  0  0
  9 15  1  0  0  0  0
 10 13  1  0  0  0  0
 10  6  1  1  0  0  0
 11  9  2  0  0  0  0
 12 11  1  0  0  0  0
 12  8  2  0  0  0  0
 14  7  1  0  0  0  0
 16 10  1  0  0  0  0
 17 13  1  1  0  0  0
 18 22  1  0  0  0  0
 20 26  1  6  0  0  0
 20 27  1  0  0  0  0
 21 19  1  0  0  0  0
 23 19  1  0  0  0  0
 23  4  1  0  0  0  0
 24 28  1  1  0  0  0
 24 18  1  0  0  0  0
 24 26  1  0  0  0  0
 25 22  1  1  0  0  0
 25 20  1  0  0  0  0
 25 21  1  0  0  0  0
 27 23  1  0  0  0  0
 29 28  1  0  0  0  0
 30 29  1  0  0  0  0
 31 32  1  0  0  0  0
 32 30  1  0  0  0  0
M  END
>  <MODEL>
5

>  <REMARK>
 VINA RESULT:      -4.6      4.176      7.983
  Name = 
  6 active torsions:
  status: ('A' for Active; 'I' for Inactive)
    1  A    between atoms: C_10  and  C_20
    2  A    between atoms: C_10  and  C_24
    3  A    between atoms: N_14  and  C_15
    4  A    between atoms: C_16  and  C_26
    5  A    between atoms: C_17  and  C_20
    6  A    between atoms: C_19  and  C_24
                            x       y       z     vdW  Elec       q    Type
                         _______ _______ _______ _____ _____    ______ ____

>  <TORSDO>
F 6

$$$$
=
 OpenBabel11062410543D

 32 36  0  0  1  0  0  0  0  0999 V2000
  160.1940  207.8160  155.2630 C   0  0  0  0  0  3  0  0  0  0  0  0
  160.0300  209.1930  155.1140 C   0  0  0  0  0  3  0  0  0  0  0  0
  160.7730  207.0680  154.2370 C   0  0  0  0  0  3  0  0  0  0  0  0
  161.1930  207.6800  153.0440 C   0  0  0  0  0  0  0  0  0  0  0  0
  160.4540  209.8210  153.9440 C   0  0  0  0  0  3  0  0  0  0  0  0
  161.0380  209.0810  152.9030 C   0  0  0  0  0  0  0  0  0  0  0  0
  161.9730  209.6180  149.2490 N   0  0  0  0  0  0  0  0  0  0  0  0
  161.6830  211.0130  149.1420 C   0  0  0  0  0  0  0  0  0  0  0  0
  161.0170  212.9980  149.6570 C   0  0  0  0  0  0  0  0  0  0  0  0
  161.5420  209.8050  151.6910 C   0  0  2  0  0  3  0  0  0  0  0  0
  161.4370  213.0070  148.3730 N   0  0  0  0  0  0  0  0  0  0  0  0
  161.8480  211.7840  148.0530 N   0  0  0  0  0  0  0  0  0  0  0  0
  160.7930  211.1430  151.4910 C   0  0  0  0  0  2  0  0  0  0  0  0
  162.5930  208.8900  148.1530 C   0  0  0  0  0  1  0  0  0  0  0  0
  160.4550  214.1820  150.3640 C   0  0  0  0  0  1  0  0  0  0  0  0
  161.5100  208.8980  150.4390 C   0  0  0  0  0  2  0  0  0  0  0  0
  161.1780  211.7360  150.1760 C   0  0  1  0  0  3  0  0  0  0  0  0
  160.7900  202.0640  150.5610 C   0  0  0  0  0  2  0  0  0  0  0  0
  163.0270  206.1710  152.2050 C   0  0  0  0  0  2  0  0  0  0  0  0
  160.7130  204.8610  151.0930 C   0  0  2  0  0  3  0  0  0  0  0  0
  162.7380  204.6850  152.3880 C   0  0  0  0  0  2  0  0  0  0  0  0
  161.7250  202.7530  151.5720 C   0  0  0  0  0  2  0  0  0  0  0  0
  161.7610  206.8650  151.9990 N   0  0  0  0  0  0  0  0  0  0  0  0
  160.3860  202.9640  149.3950 C   0  0  1  0  0  3  0  0  0  0  0  0
  162.0010  204.1510  151.2400 N   0  0  1  0  0  0  0  0  0  0  0  0
  159.9190  204.3400  149.8880 C   0  0  0  0  0  2  0  0  0  0  0  0
  160.9370  206.3630  150.9060 C   0  0  0  0  0  2  0  0  0  0  0  0
  161.5320  203.0940  148.4030 C   0  0  0  0  0  2  0  0  0  0  0  0
  161.1940  204.1160  147.3340 C   0  0  0  0  0  2  0  0  0  0  0  0
  162.4610  204.8280  146.9080 C   0  0  0  0  0  2  0  0  0  0  0  0
  160.7840  206.0120  145.4940 C   0  0  0  0  0  1  0  0  0  0  0  0
  162.2380  205.5920  145.6140 C   0  0  0  0  0  2  0  0  0  0  0  0
  2  1  1  0  0  0  0
  3  1  2  0  0  0  0
  4  3  1  0  0  0  0
  5  2  2  0  0  0  0
  6  4  2  0  0  0  0
  6  5  1  0  0  0  0
  7 16  1  0  0  0  0
  8  7  1  0  0  0  0
  8 17  1  0  0  0  0
  9 17  1  0  0  0  0
  9 15  1  0  0  0  0
 10  6  1  1  0  0  0
 11  9  2  0  0  0  0
 12 11  1  0  0  0  0
 12  8  2  0  0  0  0
 13 10  1  0  0  0  0
 14  7  1  0  0  0  0
 16 10  1  0  0  0  0
 17 13  1  6  0  0  0
 18 22  1  0  0  0  0
 19 21  1  0  0  0  0
 20 26  1  6  0  0  0
 20 25  1  0  0  0  0
 23 19  1  0  0  0  0
 23  4  1  0  0  0  0
 24 28  1  6  0  0  0
 24 26  1  0  0  0  0
 24 18  1  0  0  0  0
 25 22  1  1  0  0  0
 25 21  1  0  0  0  0
 27 20  1  0  0  0  0
 27 23  1  0  0  0  0
 29 28  1  0  0  0  0
 30 29  1  0  0  0  0
 31 32  1  0  0  0  0
 32 30  1  0  0  0  0
M  END
>  <MODEL>
6

>  <REMARK>
 VINA RESULT:      -4.2      3.561      5.215
  Name = 
  6 active torsions:
  status: ('A' for Active; 'I' for Inactive)
    1  A    between atoms: C_10  and  C_20
    2  A    between atoms: C_10  and  C_24
    3  A    between atoms: N_14  and  C_15
    4  A    between atoms: C_16  and  C_26
    5  A    between atoms: C_17  and  C_20
    6  A    between atoms: C_19  and  C_24
                            x       y       z     vdW  Elec       q    Type
                         _______ _______ _______ _____ _____    ______ ____

>  <TORSDO>
F 6

$$$$
