=
 OpenBabel11062408163D

 32 35  0  0  1  0  0  0  0  0999 V2000
  159.9700  210.7500  153.8720 C   0  0  1  0  0  3  0  0  0  0  0  0
  160.4520  209.0220  152.0570 C   0  0  2  0  0  3  0  0  0  0  0  0
  161.1980  211.4160  154.5010 C   0  0  0  0  0  2  0  0  0  0  0  0
  160.1830  209.2570  153.5530 C   0  0  1  0  0  3  0  0  0  0  0  0
  160.6540  207.5250  151.7720 C   0  0  1  0  0  3  0  0  0  0  0  0
  162.0090  209.5170  150.1370 C   0  0  0  0  0  0  0  0  0  0  0  0
  161.7600  208.3070  149.5800 C   0  0  0  0  0  0  0  0  0  0  0  0
  161.2260  208.5580  154.4080 C   0  0  0  0  0  0  0  0  0  0  0  0
  160.8700  207.2970  150.2680 C   0  0  0  0  0  2  0  0  0  0  0  0
  161.5180  207.1200  154.1190 C   0  0  0  0  0  2  0  0  0  0  0  0
  161.9320  209.1940  155.3530 C   0  0  0  0  0  3  0  0  0  0  0  0
  161.6750  209.8030  151.5700 C   0  0  0  0  0  2  0  0  0  0  0  0
  161.7950  206.9240  152.6240 C   0  0  1  0  0  3  0  0  0  0  0  0
  161.6710  210.6260  155.7150 C   0  0  0  0  0  2  0  0  0  0  0  0
  162.7220  210.8890  149.2180 S   0  0  0  0  0  1  0  0  0  0  0  0
  162.0120  205.4410  152.3310 C   0  0  0  0  0  2  0  0  0  0  0  0
  161.2020  204.6460  153.1430 O   0  0  0  0  0  1  0  0  0  0  0  0
  158.5030  210.3140  155.6780 O   0  0  0  0  0  0  0  0  0  0  0  0
  158.7220  210.9780  154.6750 C   0  0  0  0  0  0  0  0  0  0  0  0
  155.7490  213.9400  153.2090 S   0  0  0  0  0  0  0  0  0  0  0  0
  157.5010  214.4500  153.4090 C   0  0  0  0  0  2  0  0  0  0  0  0
  155.5630  213.2290  154.8840 C   0  0  1  0  0  3  0  0  0  0  0  0
  157.7480  212.0300  154.2370 C   0  0  1  0  0  3  0  0  0  0  0  0
  156.5010  212.0370  155.1300 C   0  0  0  0  0  2  0  0  0  0  0  0
  158.4070  213.4110  154.0810 C   0  0  2  0  0  3  0  0  0  0  0  0
  158.9530  213.9680  155.3900 C   0  0  0  0  0  1  0  0  0  0  0  0
  155.7190  214.3030  155.9590 C   0  0  0  0  0  2  0  0  0  0  0  0
  153.3850  214.3690  156.4390 F   0  0  0  0  0  0  0  0  0  0  0  0
  154.6300  214.1810  157.0130 C   0  0  0  0  0  2  0  0  0  0  0  0
  162.2240  207.9300  148.3090 O   0  0  0  0  0  0  0  0  0  0  0  0
  162.1110  206.6220  147.7580 C   0  0  0  0  0  2  0  0  0  0  0  0
  160.9400  206.5580  146.7950 C   0  0  0  0  0  1  0  0  0  0  0  0
  1  3  1  0  0  0  0
  1 19  1  1  0  0  0
  2 12  1  1  0  0  0
  2  4  1  0  0  0  0
  3 14  1  0  0  0  0
  4  1  1  0  0  0  0
  4  8  1  1  0  0  0
  5  9  1  6  0  0  0
  5  2  1  0  0  0  0
  5 13  1  0  0  0  0
  6 12  1  0  0  0  0
  7  6  2  0  0  0  0
  7  9  1  0  0  0  0
  8 11  2  0  0  0  0
 10  8  1  0  0  0  0
 11 14  1  0  0  0  0
 13 16  1  1  0  0  0
 13 10  1  0  0  0  0
 15  6  1  0  0  0  0
 16 17  1  0  0  0  0
 19 18  2  0  0  0  0
 20 21  1  0  0  0  0
 20 22  1  0  0  0  0
 21 25  1  0  0  0  0
 22 24  1  0  0  0  0
 22 27  1  1  0  0  0
 23 19  1  1  0  0  0
 23 24  1  0  0  0  0
 25 23  1  0  0  0  0
 25 26  1  1  0  0  0
 27 29  1  0  0  0  0
 28 29  1  0  0  0  0
 30  7  1  0  0  0  0
 31 30  1  0  0  0  0
 32 31  1  0  0  0  0
M  END
>  <MODEL>
1

>  <REMARK>
 VINA RESULT:      -5.5      0.000      0.000
  Name = 
  7 active torsions:
  status: ('A' for Active; 'I' for Inactive)
    1  A    between atoms: C_1  and  C_27
    2  A    between atoms: C_7  and  C_15
    3  A    between atoms: C_7  and  C_26
    4  A    between atoms: C_9  and  O_11
    5  A    between atoms: O_11  and  C_12
    6  A    between atoms: C_13  and  C_29
    7  A    between atoms: C_16  and  C_27
                            x       y       z     vdW  Elec       q    Type
                         _______ _______ _______ _____ _____    ______ ____

>  <TORSDO>
F 7

$$$$
=
 OpenBabel11062408163D

 32 35  0  0  1  0  0  0  0  0999 V2000
  160.0400  210.3300  154.4030 C   0  0  1  0  0  3  0  0  0  0  0  0
  160.4440  208.8180  152.3860 C   0  0  2  0  0  3  0  0  0  0  0  0
  161.2940  210.9310  155.0460 C   0  0  0  0  0  2  0  0  0  0  0  0
  160.2430  208.8830  153.9100 C   0  0  1  0  0  3  0  0  0  0  0  0
  160.6370  207.3640  151.9270 C   0  0  1  0  0  3  0  0  0  0  0  0
  161.9100  209.5350  150.4650 C   0  0  0  0  0  0  0  0  0  0  0  0
  161.6390  208.3930  149.7880 C   0  0  0  0  0  0  0  0  0  0  0  0
  161.3260  208.1020  154.6340 C   0  0  0  0  0  0  0  0  0  0  0  0
  160.7840  207.3060  150.4000 C   0  0  0  0  0  2  0  0  0  0  0  0
  161.6080  206.7070  154.1740 C   0  0  0  0  0  2  0  0  0  0  0  0
  162.0720  208.6340  155.6110 C   0  0  0  0  0  3  0  0  0  0  0  0
  161.6400  209.6580  151.9350 C   0  0  0  0  0  2  0  0  0  0  0  0
  161.8160  206.6810  152.6550 C   0  0  1  0  0  3  0  0  0  0  0  0
  161.8240  210.0140  156.1420 C   0  0  0  0  0  2  0  0  0  0  0  0
  162.5770  211.0060  149.6740 S   0  0  0  0  0  1  0  0  0  0  0  0
  162.0240  205.2410  152.1900 C   0  0  0  0  0  2  0  0  0  0  0  0
  160.9900  204.4160  152.6340 O   0  0  0  0  0  1  0  0  0  0  0  0
  158.4280  209.4970  155.9240 O   0  0  0  0  0  0  0  0  0  0  0  0
  158.8300  210.4570  155.2820 C   0  0  0  0  0  0  0  0  0  0  0  0
  156.9120  214.4490  155.6630 S   0  0  0  0  0  0  0  0  0  0  0  0
  155.9400  212.9440  156.0670 C   0  0  0  0  0  2  0  0  0  0  0  0
  157.4810  213.8760  154.0220 C   0  0  1  0  0  3  0  0  0  0  0  0
  158.1190  211.7750  155.3670 C   0  0  1  0  0  3  0  0  0  0  0  0
  158.3550  212.6140  154.1050 C   0  0  0  0  0  2  0  0  0  0  0  0
  156.6340  211.6160  155.7380 C   0  0  2  0  0  3  0  0  0  0  0  0
  155.8300  210.8560  154.6920 C   0  0  0  0  0  1  0  0  0  0  0  0
  156.3060  213.6880  153.0650 C   0  0  0  0  0  2  0  0  0  0  0  0
  157.6600  213.4310  151.1200 F   0  0  0  0  0  0  0  0  0  0  0  0
  156.6500  214.1970  151.6740 C   0  0  0  0  0  2  0  0  0  0  0  0
  162.0450  208.1630  148.4640 O   0  0  0  0  0  0  0  0  0  0  0  0
  162.2840  206.8780  147.8990 C   0  0  0  0  0  2  0  0  0  0  0  0
  161.1520  206.4980  146.9640 C   0  0  0  0  0  1  0  0  0  0  0  0
  1  3  1  0  0  0  0
  1 19  1  1  0  0  0
  2 12  1  1  0  0  0
  2  4  1  0  0  0  0
  3 14  1  0  0  0  0
  4  1  1  0  0  0  0
  4  8  1  1  0  0  0
  5  9  1  6  0  0  0
  5  2  1  0  0  0  0
  5 13  1  0  0  0  0
  6 12  1  0  0  0  0
  7  9  1  0  0  0  0
  7  6  2  0  0  0  0
  8 11  2  0  0  0  0
 10  8  1  0  0  0  0
 11 14  1  0  0  0  0
 13 16  1  6  0  0  0
 13 10  1  0  0  0  0
 15  6  1  0  0  0  0
 16 17  1  0  0  0  0
 19 18  2  0  0  0  0
 20 21  1  0  0  0  0
 22 27  1  6  0  0  0
 22 24  1  0  0  0  0
 22 20  1  0  0  0  0
 23 19  1  6  0  0  0
 23 25  1  0  0  0  0
 24 23  1  0  0  0  0
 25 26  1  6  0  0  0
 25 21  1  0  0  0  0
 28 29  1  0  0  0  0
 29 27  1  0  0  0  0
 30  7  1  0  0  0  0
 31 30  1  0  0  0  0
 32 31  1  0  0  0  0
M  END
>  <MODEL>
2

>  <REMARK>
 VINA RESULT:      -5.3      1.530      2.196
  Name = 
  7 active torsions:
  status: ('A' for Active; 'I' for Inactive)
    1  A    between atoms: C_1  and  C_27
    2  A    between atoms: C_7  and  C_15
    3  A    between atoms: C_7  and  C_26
    4  A    between atoms: C_9  and  O_11
    5  A    between atoms: O_11  and  C_12
    6  A    between atoms: C_13  and  C_29
    7  A    between atoms: C_16  and  C_27
                            x       y       z     vdW  Elec       q    Type
                         _______ _______ _______ _____ _____    ______ ____

>  <TORSDO>
F 7

$$$$
=
 OpenBabel11062408163D

 32 35  0  0  1  0  0  0  0  0999 V2000
  160.3160  209.0450  153.4650 C   0  0  1  0  0  3  0  0  0  0  0  0
  159.1210  211.2130  154.0900 C   0  0  2  0  0  3  0  0  0  0  0  0
  160.2820  207.9370  154.5220 C   0  0  0  0  0  2  0  0  0  0  0  0
  160.4610  210.4570  154.0680 C   0  0  1  0  0  3  0  0  0  0  0  0
  159.3010  212.6160  154.6900 C   0  0  1  0  0  3  0  0  0  0  0  0
  156.7680  211.2140  154.9940 C   0  0  0  0  0  0  0  0  0  0  0  0
  156.7470  212.5680  155.0310 C   0  0  0  0  0  0  0  0  0  0  0  0
  161.1370  210.5110  155.4270 C   0  0  0  0  0  0  0  0  0  0  0  0
  157.9690  213.3800  154.6600 C   0  0  0  0  0  2  0  0  0  0  0  0
  161.2670  211.8450  156.0910 C   0  0  0  0  0  2  0  0  0  0  0  0
  161.5550  209.4140  156.0710 C   0  0  0  0  0  3  0  0  0  0  0  0
  158.0550  210.4530  154.8820 C   0  0  0  0  0  2  0  0  0  0  0  0
  159.9130  212.5630  156.1080 C   0  0  1  0  0  3  0  0  0  0  0  0
  161.4830  208.0490  155.4530 C   0  0  0  0  0  2  0  0  0  0  0  0
  155.2750  210.2120  155.0410 S   0  0  0  0  0  1  0  0  0  0  0  0
  160.0770  213.9550  156.7170 C   0  0  0  0  0  2  0  0  0  0  0  0
  158.8730  214.4110  157.2570 O   0  0  0  0  0  1  0  0  0  0  0  0
  162.4410  209.3110  152.4560 O   0  0  0  0  0  0  0  0  0  0  0  0
  161.3390  208.7850  152.3970 C   0  0  0  0  0  0  0  0  0  0  0  0
  160.1040  206.1870  149.0080 S   0  0  0  0  0  0  0  0  0  0  0  0
  160.8350  205.4200  150.5070 C   0  0  0  0  0  2  0  0  0  0  0  0
  161.4270  207.4240  148.7590 C   0  0  1  0  0  3  0  0  0  0  0  0
  160.9950  207.8720  151.2580 C   0  0  1  0  0  3  0  0  0  0  0  0
  161.5440  208.4120  149.9310 C   0  0  0  0  0  2  0  0  0  0  0  0
  161.3840  206.4110  151.5410 C   0  0  2  0  0  3  0  0  0  0  0  0
  162.8850  206.2080  151.7070 C   0  0  0  0  0  1  0  0  0  0  0  0
  162.7630  206.7490  148.4540 C   0  0  0  0  0  2  0  0  0  0  0  0
  162.0870  206.4350  146.1900 F   0  0  0  0  0  0  0  0  0  0  0  0
  162.6320  205.7870  147.2840 C   0  0  0  0  0  2  0  0  0  0  0  0
  155.5960  213.3180  155.3240 O   0  0  0  0  0  0  0  0  0  0  0  0
  155.1400  214.4340  154.5680 C   0  0  0  0  0  2  0  0  0  0  0  0
  154.8000  214.0050  153.1530 C   0  0  0  0  0  1  0  0  0  0  0  0
  1 19  1  6  0  0  0
  1  4  1  0  0  0  0
  1  3  1  0  0  0  0
  2  5  1  0  0  0  0
  2 12  1  1  0  0  0
  3 14  1  0  0  0  0
  4  2  1  0  0  0  0
  4  8  1  1  0  0  0
  5  9  1  1  0  0  0
  5 13  1  0  0  0  0
  6  7  2  0  0  0  0
  6 15  1  0  0  0  0
  7 30  1  0  0  0  0
  8 11  2  0  0  0  0
  8 10  1  0  0  0  0
  9  7  1  0  0  0  0
 10 13  1  0  0  0  0
 12  6  1  0  0  0  0
 13 16  1  6  0  0  0
 14 11  1  0  0  0  0
 16 17  1  0  0  0  0
 19 18  2  0  0  0  0
 20 21  1  0  0  0  0
 21 25  1  0  0  0  0
 22 27  1  1  0  0  0
 22 20  1  0  0  0  0
 22 24  1  0  0  0  0
 23 25  1  0  0  0  0
 23 19  1  1  0  0  0
 24 23  1  0  0  0  0
 25 26  1  6  0  0  0
 28 29  1  0  0  0  0
 29 27  1  0  0  0  0
 31 30  1  0  0  0  0
 32 31  1  0  0  0  0
M  END
>  <MODEL>
3

>  <REMARK>
 VINA RESULT:      -5.0      3.492      8.516
  Name = 
  7 active torsions:
  status: ('A' for Active; 'I' for Inactive)
    1  A    between atoms: C_1  and  C_27
    2  A    between atoms: C_7  and  C_15
    3  A    between atoms: C_7  and  C_26
    4  A    between atoms: C_9  and  O_11
    5  A    between atoms: O_11  and  C_12
    6  A    between atoms: C_13  and  C_29
    7  A    between atoms: C_16  and  C_27
                            x       y       z     vdW  Elec       q    Type
                         _______ _______ _______ _____ _____    ______ ____

>  <TORSDO>
F 7

$$$$
=
 OpenBabel11062408163D

 32 35  0  0  1  0  0  0  0  0999 V2000
  160.4910  210.2510  152.5580 C   0  0  1  0  0  3  0  0  0  0  0  0
  160.5640  208.1000  151.1850 C   0  0  2  0  0  3  0  0  0  0  0  0
  161.8320  210.7230  153.1280 C   0  0  0  0  0  2  0  0  0  0  0  0
  160.3290  208.7180  152.5740 C   0  0  1  0  0  3  0  0  0  0  0  0
  160.3890  206.5740  151.2350 C   0  0  1  0  0  3  0  0  0  0  0  0
  162.2400  207.7690  149.3310 C   0  0  0  0  0  0  0  0  0  0  0  0
  161.7070  206.5620  149.0200 C   0  0  0  0  0  0  0  0  0  0  0  0
  161.1420  207.9950  153.6340 C   0  0  0  0  0  0  0  0  0  0  0  0
  160.5750  205.9740  149.8330 C   0  0  0  0  0  2  0  0  0  0  0  0
  161.0680  206.5020  153.6750 C   0  0  0  0  0  2  0  0  0  0  0  0
  161.9620  208.6340  154.4780 C   0  0  0  0  0  3  0  0  0  0  0  0
  161.9550  208.4360  150.6430 C   0  0  0  0  0  2  0  0  0  0  0  0
  161.3210  205.9200  152.2790 C   0  0  1  0  0  3  0  0  0  0  0  0
  162.0630  210.1310  154.5130 C   0  0  0  0  0  2  0  0  0  0  0  0
  163.2970  208.6900  148.2050 S   0  0  0  0  0  1  0  0  0  0  0  0
  161.1650  204.4010  152.3200 C   0  0  0  0  0  2  0  0  0  0  0  0
  162.3620  203.7650  151.9890 O   0  0  0  0  0  1  0  0  0  0  0  0
  158.2600  211.0430  152.6000 O   0  0  0  0  0  0  0  0  0  0  0  0
  159.3230  210.9440  153.1970 C   0  0  0  0  0  0  0  0  0  0  0  0
  160.0010  212.6460  157.2470 S   0  0  0  0  0  0  0  0  0  0  0  0
  159.0000  211.1170  157.0720 C   0  0  0  0  0  2  0  0  0  0  0  0
  159.0830  213.6210  156.0020 C   0  0  1  0  0  3  0  0  0  0  0  0
  159.4710  211.5120  154.5770 C   0  0  1  0  0  3  0  0  0  0  0  0
  159.1710  213.0160  154.5920 C   0  0  0  0  0  2  0  0  0  0  0  0
  158.6820  210.7120  155.6280 C   0  0  2  0  0  3  0  0  0  0  0  0
  157.1760  210.7410  155.4010 C   0  0  0  0  0  1  0  0  0  0  0  0
  157.6340  213.8420  156.4330 C   0  0  0  0  0  2  0  0  0  0  0  0
  155.6570  213.7280  155.1060 F   0  0  0  0  0  0  0  0  0  0  0  0
  156.8180  214.4530  155.3050 C   0  0  0  0  0  2  0  0  0  0  0  0
  162.0900  205.8130  147.8960 O   0  0  0  0  0  0  0  0  0  0  0  0
  161.1910  205.2820  146.9290 C   0  0  0  0  0  2  0  0  0  0  0  0
  161.4200  203.7920  146.7630 C   0  0  0  0  0  1  0  0  0  0  0  0
  1  4  1  0  0  0  0
  1  3  1  0  0  0  0
  1 19  1  1  0  0  0
  2 12  1  1  0  0  0
  2  5  1  0  0  0  0
  2  4  1  0  0  0  0
  3 14  1  0  0  0  0
  4  8  1  1  0  0  0
  5  9  1  6  0  0  0
  5 13  1  0  0  0  0
  6 12  1  0  0  0  0
  7  6  2  0  0  0  0
  7  9  1  0  0  0  0
  8 10  1  0  0  0  0
  8 11  2  0  0  0  0
 11 14  1  0  0  0  0
 13 16  1  1  0  0  0
 13 10  1  0  0  0  0
 15  6  1  0  0  0  0
 17 16  1  0  0  0  0
 18 19  2  0  0  0  0
 21 20  1  0  0  0  0
 22 27  1  1  0  0  0
 22 20  1  0  0  0  0
 23 19  1  6  0  0  0
 23 24  1  0  0  0  0
 23 25  1  0  0  0  0
 24 22  1  0  0  0  0
 25 26  1  6  0  0  0
 25 21  1  0  0  0  0
 28 29  1  0  0  0  0
 29 27  1  0  0  0  0
 30  7  1  0  0  0  0
 31 30  1  0  0  0  0
 32 31  1  0  0  0  0
M  END
>  <MODEL>
4

>  <REMARK>
 VINA RESULT:      -3.2      1.886      2.487
  Name = 
  7 active torsions:
  status: ('A' for Active; 'I' for Inactive)
    1  A    between atoms: C_1  and  C_27
    2  A    between atoms: C_7  and  C_15
    3  A    between atoms: C_7  and  C_26
    4  A    between atoms: C_9  and  O_11
    5  A    between atoms: O_11  and  C_12
    6  A    between atoms: C_13  and  C_29
    7  A    between atoms: C_16  and  C_27
                            x       y       z     vdW  Elec       q    Type
                         _______ _______ _______ _____ _____    ______ ____

>  <TORSDO>
F 7

$$$$
=
 OpenBabel11062408163D

 32 35  0  0  1  0  0  0  0  0999 V2000
  161.3570  206.2880  151.6710 C   0  0  1  0  0  3  0  0  0  0  0  0
  160.3150  208.2640  152.9070 C   0  0  2  0  0  3  0  0  0  0  0  0
  162.8850  206.2000  151.7240 C   0  0  0  0  0  2  0  0  0  0  0  0
  160.8340  207.7340  151.5590 C   0  0  1  0  0  3  0  0  0  0  0  0
  159.7970  209.7030  152.7590 C   0  0  1  0  0  3  0  0  0  0  0  0
  160.9420  208.8180  155.2850 C   0  0  0  0  0  0  0  0  0  0  0  0
  160.0420  209.8300  155.3210 C   0  0  0  0  0  0  0  0  0  0  0  0
  161.7980  208.7200  150.9230 C   0  0  0  0  0  0  0  0  0  0  0  0
  159.2340  210.2030  154.0980 C   0  0  0  0  0  2  0  0  0  0  0  0
  161.3730  210.1510  150.8260 C   0  0  0  0  0  2  0  0  0  0  0  0
  163.0240  208.3710  150.5120 C   0  0  0  0  0  3  0  0  0  0  0  0
  161.3980  208.2200  153.9870 C   0  0  0  0  0  2  0  0  0  0  0  0
  160.8760  210.6500  152.1880 C   0  0  1  0  0  3  0  0  0  0  0  0
  163.5050  206.9510  150.5520 C   0  0  0  0  0  2  0  0  0  0  0  0
  161.6400  208.0770  156.7680 S   0  0  0  0  0  1  0  0  0  0  0  0
  160.3720  212.0860  152.0560 C   0  0  0  0  0  2  0  0  0  0  0  0
  160.4560  212.5280  150.7350 O   0  0  0  0  0  1  0  0  0  0  0  0
  159.6920  204.8470  150.7990 O   0  0  0  0  0  0  0  0  0  0  0  0
  160.7690  205.3970  150.6160 C   0  0  0  0  0  0  0  0  0  0  0  0
  163.1830  204.7470  146.9400 S   0  0  0  0  0  0  0  0  0  0  0  0
  162.0780  206.2100  147.0410 C   0  0  0  0  0  2  0  0  0  0  0  0
  161.9170  203.5160  147.4160 C   0  0  1  0  0  3  0  0  0  0  0  0
  161.5150  205.1890  149.3310 C   0  0  1  0  0  3  0  0  0  0  0  0
  161.3710  203.7450  148.8330 C   0  0  0  0  0  2  0  0  0  0  0  0
  161.1640  206.2490  148.2720 C   0  0  2  0  0  3  0  0  0  0  0  0
  159.7050  206.2040  147.8360 C   0  0  0  0  0  1  0  0  0  0  0  0
  160.7960  203.4500  146.3810 C   0  0  0  0  0  2  0  0  0  0  0  0
  159.7130  202.0150  144.8160 F   0  0  0  0  0  0  0  0  0  0  0  0
  160.8240  202.1270  145.6320 C   0  0  0  0  0  2  0  0  0  0  0  0
  159.7280  210.5470  156.4880 O   0  0  0  0  0  0  0  0  0  0  0  0
  159.0580  211.8020  156.5150 C   0  0  0  0  0  2  0  0  0  0  0  0
  160.0670  212.9350  156.4920 C   0  0  0  0  0  1  0  0  0  0  0  0
  1 19  1  6  0  0  0
  1  3  1  0  0  0  0
  2 12  1  1  0  0  0
  4  8  1  1  0  0  0
  4  1  1  0  0  0  0
  4  2  1  0  0  0  0
  5  2  1  0  0  0  0
  5  9  1  1  0  0  0
  6  7  2  0  0  0  0
  6 15  1  0  0  0  0
  7 30  1  0  0  0  0
  9  7  1  0  0  0  0
 10  8  1  0  0  0  0
 10 13  1  0  0  0  0
 11 14  1  0  0  0  0
 11  8  2  0  0  0  0
 12  6  1  0  0  0  0
 13 16  1  6  0  0  0
 13  5  1  0  0  0  0
 14  3  1  0  0  0  0
 17 16  1  0  0  0  0
 19 18  2  0  0  0  0
 20 21  1  0  0  0  0
 20 22  1  0  0  0  0
 21 25  1  0  0  0  0
 22 27  1  6  0  0  0
 22 24  1  0  0  0  0
 23 19  1  1  0  0  0
 24 23  1  0  0  0  0
 25 26  1  6  0  0  0
 25 23  1  0  0  0  0
 28 29  1  0  0  0  0
 29 27  1  0  0  0  0
 30 31  1  0  0  0  0
 32 31  1  0  0  0  0
M  END
>  <MODEL>
5

>  <REMARK>
 VINA RESULT:      -2.7      4.378      9.212
  Name = 
  7 active torsions:
  status: ('A' for Active; 'I' for Inactive)
    1  A    between atoms: C_1  and  C_27
    2  A    between atoms: C_7  and  C_15
    3  A    between atoms: C_7  and  C_26
    4  A    between atoms: C_9  and  O_11
    5  A    between atoms: O_11  and  C_12
    6  A    between atoms: C_13  and  C_29
    7  A    between atoms: C_16  and  C_27
                            x       y       z     vdW  Elec       q    Type
                         _______ _______ _______ _____ _____    ______ ____

>  <TORSDO>
F 7

$$$$
