=
 OpenBabel11062410333D

 43 48  0  0  1  0  0  0  0  0999 V2000
  161.6080  210.7120  153.5350 C   0  0  0  0  0  2  0  0  0  0  0  0
  160.8890  209.3850  153.8170 C   0  0  1  0  0  3  0  0  0  0  0  0
  160.6570  211.8940  153.6850 C   0  0  0  0  0  2  0  0  0  0  0  0
  159.3950  209.3950  153.4590 C   0  0  0  0  0  2  0  0  0  0  0  0
  159.0900  210.3660  152.3190 C   0  0  0  0  0  2  0  0  0  0  0  0
  159.5110  211.8070  152.6650 C   0  0  1  0  0  3  0  0  0  0  0  0
  161.6880  208.2440  151.6990 N   0  0  0  0  0  2  0  0  0  0  0  0
  161.5890  208.2600  153.1310 C   0  0  0  0  0  0  0  0  0  0  0  0
  162.0800  207.3290  153.8240 O   0  0  0  0  0  0  0  0  0  0  0  0
  162.3340  207.2070  150.8940 C   0  0  2  0  0  3  0  0  0  0  0  0
  161.2820  206.2730  148.9290 N   0  0  0  0  0  2  0  0  0  0  0  0
  160.9510  205.3600  150.0150 C   0  0  2  0  0  3  0  0  0  0  0  0
  162.0180  207.3540  149.4570 C   0  0  0  0  0  0  0  0  0  0  0  0
  161.8000  205.8150  151.2350 C   0  0  1  0  0  3  0  0  0  0  0  0
  162.8880  204.9620  151.4440 O   0  0  0  0  0  1  0  0  0  0  0  0
  162.3860  208.3310  148.7550 O   0  0  0  0  0  0  0  0  0  0  0  0
  161.1890  203.9620  149.6300 N   0  0  0  0  0  0  0  0  0  0  0  0
  160.4040  201.6630  149.9710 C   0  0  0  0  0  2  0  0  0  0  0  0
  161.2780  202.3970  147.7430 C   0  0  0  0  0  2  0  0  0  0  0  0
  160.3290  201.4460  148.4620 C   0  0  0  0  0  2  0  0  0  0  0  0
  160.9900  203.8310  148.1820 C   0  0  0  0  0  2  0  0  0  0  0  0
  160.1650  203.1380  150.2830 C   0  0  0  0  0  2  0  0  0  0  0  0
  158.3340  212.6870  153.0890 C   0  0  2  0  0  3  0  0  0  0  0  0
  158.0400  213.3670  147.3620 C   0  0  0  0  0  0  0  0  0  0  0  0
  158.3640  214.0780  152.4170 C   0  0  2  0  0  3  0  0  0  0  0  0
  158.8170  213.6690  149.6370 C   0  0  0  0  0  0  0  0  0  0  0  0
  156.7450  213.7190  147.7560 C   0  0  0  0  0  3  0  0  0  0  0  0
  158.3160  213.0150  145.9460 C   0  0  0  0  0  1  0  0  0  0  0  0
  157.5090  214.0000  150.0390 C   0  0  0  0  0  0  0  0  0  0  0  0
  159.0720  213.3380  148.3040 C   0  0  0  0  0  3  0  0  0  0  0  0
  156.4810  214.0370  149.0910 C   0  0  0  0  0  3  0  0  0  0  0  0
  157.2030  214.3840  151.4590 C   0  0  0  0  0  2  0  0  0  0  0  0
  159.6680  214.3880  151.8200 N   0  0  0  0  0  2  0  0  0  0  0  0
  159.9170  213.5480  150.6460 C   0  0  0  0  0  2  0  0  0  0  0  0
  158.2680  212.7690  154.5440 N   0  0  0  0  0  2  0  0  0  0  0  0
  157.4080  211.6890  155.0000 C   0  0  0  0  0  2  0  0  0  0  0  0
  155.4860  212.4980  156.3430 C   0  0  0  0  0  2  0  0  0  0  0  0
  155.5360  214.0110  156.2890 C   0  0  1  0  0  3  0  0  0  0  0  0
  157.9540  213.2190  157.2290 S   0  0  0  0  0  0  0  0  0  0  0  0
  156.9070  211.9700  156.4090 C   0  0  2  0  0  3  0  0  0  0  0  0
  156.6130  214.4460  157.2600 C   0  0  0  0  0  2  0  0  0  0  0  0
  154.9170  213.8290  154.1720 C   0  0  0  0  0  1  0  0  0  0  0  0
  155.8640  214.4330  154.9990 O   0  0  0  0  0  0  0  0  0  0  0  0
  1  3  1  0  0  0  0
  1  2  1  0  0  0  0
  2  8  1  6  0  0  0
  4  2  1  0  0  0  0
  5  6  1  0  0  0  0
  5  4  1  0  0  0  0
  6 23  1  1  0  0  0
  6  3  1  0  0  0  0
  7  8  1  0  0  0  0
  8  9  2  0  0  0  0
 10 14  1  0  0  0  0
 10  7  1  1  0  0  0
 11 13  1  0  0  0  0
 11 12  1  0  0  0  0
 12 17  1  6  0  0  0
 12 14  1  0  0  0  0
 13 10  1  0  0  0  0
 14 15  1  6  0  0  0
 16 13  2  0  0  0  0
 17 22  1  0  0  0  0
 18 22  1  0  0  0  0
 19 21  1  0  0  0  0
 19 20  1  0  0  0  0
 20 18  1  0  0  0  0
 21 17  1  0  0  0  0
 23 35  1  1  0  0  0
 24 27  2  0  0  0  0
 24 30  1  0  0  0  0
 25 23  1  6  0  0  0
 26 29  1  0  0  0  0
 26 34  1  0  0  0  0
 27 31  1  0  0  0  0
 28 24  1  0  0  0  0
 29 32  1  0  0  0  0
 30 26  2  0  0  0  0
 31 29  2  0  0  0  0
 32 25  1  0  0  0  0
 33 25  1  0  0  0  0
 34 33  1  0  0  0  0
 35 36  1  0  0  0  0
 37 40  1  0  0  0  0
 38 43  1  6  0  0  0
 38 37  1  0  0  0  0
 38 41  1  0  0  0  0
 39 41  1  0  0  0  0
 40 36  1  6  0  0  0
 40 39  1  0  0  0  0
 42 43  1  0  0  0  0
M  END
>  <MODEL>
1

>  <REMARK>
 VINA RESULT:      -5.3      0.000      0.000
  Name = 
  9 active torsions:
  status: ('A' for Active; 'I' for Inactive)
    1  A    between atoms: N_1  and  C_34
    2  A    between atoms: N_1  and  C_35
    3  A    between atoms: N_3  and  C_4
    4  A    between atoms: C_6  and  C_12
    5  A    between atoms: C_8  and  C_34
    6  A    between atoms: N_11  and  C_14
    7  A    between atoms: C_19  and  O_37
    8  A    between atoms: C_32  and  C_35
    9  A    between atoms: C_34  and  C_38
                            x       y       z     vdW  Elec       q    Type
                         _______ _______ _______ _____ _____    ______ ____

>  <TORSDO>
F 9

$$$$
=
 OpenBabel11062410333D

 43 48  0  0  1  0  0  0  0  0999 V2000
  162.2680  210.9260  150.3790 C   0  0  0  0  0  2  0  0  0  0  0  0
  162.9420  210.6940  149.0190 C   0  0  1  0  0  3  0  0  0  0  0  0
  162.1740  209.6280  151.1740 C   0  0  0  0  0  2  0  0  0  0  0  0
  162.7100  209.2910  148.4370 C   0  0  0  0  0  2  0  0  0  0  0  0
  161.3810  208.6970  148.9020 C   0  0  0  0  0  2  0  0  0  0  0  0
  161.3030  208.5980  150.4380 C   0  0  1  0  0  3  0  0  0  0  0  0
  161.1300  211.9920  147.8110 N   0  0  0  0  0  2  0  0  0  0  0  0
  162.5250  211.7460  148.0470 C   0  0  0  0  0  0  0  0  0  0  0  0
  163.4100  212.4030  147.4360 O   0  0  0  0  0  0  0  0  0  0  0  0
  160.5770  212.9800  146.8850 C   0  0  2  0  0  3  0  0  0  0  0  0
  158.8530  212.4120  145.2910 N   0  0  0  0  0  2  0  0  0  0  0  0
  160.1080  212.2880  144.5610 C   0  0  2  0  0  3  0  0  0  0  0  0
  159.1400  212.7450  146.6300 C   0  0  0  0  0  0  0  0  0  0  0  0
  161.2070  212.8650  145.4970 C   0  0  1  0  0  3  0  0  0  0  0  0
  161.6070  214.1400  145.0850 O   0  0  0  0  0  1  0  0  0  0  0  0
  158.2460  212.8530  147.5080 O   0  0  0  0  0  0  0  0  0  0  0  0
  160.0390  212.9650  143.2580 N   0  0  0  0  0  0  0  0  0  0  0  0
  160.2510  212.6120  140.8400 C   0  0  0  0  0  2  0  0  0  0  0  0
  158.5950  214.2540  141.7520 C   0  0  0  0  0  2  0  0  0  0  0  0
  158.9100  213.3010  140.6040 C   0  0  0  0  0  2  0  0  0  0  0  0
  158.6850  213.5010  143.0770 C   0  0  0  0  0  2  0  0  0  0  0  0
  160.2470  211.9520  142.2180 C   0  0  0  0  0  2  0  0  0  0  0  0
  161.5690  207.1850  150.9600 C   0  0  2  0  0  3  0  0  0  0  0  0
  161.5110  201.7660  148.9640 C   0  0  0  0  0  0  0  0  0  0  0  0
  160.2960  206.3100  150.9710 C   0  0  2  0  0  3  0  0  0  0  0  0
  160.7960  204.0550  149.3100 C   0  0  0  0  0  0  0  0  0  0  0  0
  161.5220  201.5590  150.3460 C   0  0  0  0  0  3  0  0  0  0  0  0
  161.8900  200.6640  148.0430 C   0  0  0  0  0  1  0  0  0  0  0  0
  160.8290  203.8540  150.7030 C   0  0  0  0  0  0  0  0  0  0  0  0
  161.1540  203.0150  148.4480 C   0  0  0  0  0  3  0  0  0  0  0  0
  161.1780  202.5990  151.2130 C   0  0  0  0  0  3  0  0  0  0  0  0
  160.4280  204.9420  151.6570 C   0  0  0  0  0  2  0  0  0  0  0  0
  159.6700  206.2060  149.6480 N   0  0  0  0  0  2  0  0  0  0  0  0
  160.5000  205.4090  148.7410 C   0  0  0  0  0  2  0  0  0  0  0  0
  162.2190  207.2460  152.2640 N   0  0  0  0  0  2  0  0  0  0  0  0
  161.1880  207.5360  153.2480 C   0  0  0  0  0  2  0  0  0  0  0  0
  161.6670  208.6890  155.3910 C   0  0  0  0  0  2  0  0  0  0  0  0
  160.3360  208.8390  156.1000 C   0  0  1  0  0  3  0  0  0  0  0  0
  160.0200  209.9990  153.6690 S   0  0  0  0  0  0  0  0  0  0  0  0
  161.4450  208.8850  153.9030 C   0  0  2  0  0  3  0  0  0  0  0  0
  159.6210  209.9990  155.4430 C   0  0  0  0  0  2  0  0  0  0  0  0
  160.0160  206.8300  156.9760 C   0  0  0  0  0  1  0  0  0  0  0  0
  159.5820  207.6720  155.9510 O   0  0  0  0  0  0  0  0  0  0  0  0
  1  3  1  0  0  0  0
  2  8  1  6  0  0  0
  2  1  1  0  0  0  0
  4  5  1  0  0  0  0
  4  2  1  0  0  0  0
  5  6  1  0  0  0  0
  6 23  1  6  0  0  0
  6  3  1  0  0  0  0
  7  8  1  0  0  0  0
  9  8  2  0  0  0  0
 10  7  1  1  0  0  0
 11 13  1  0  0  0  0
 12 17  1  6  0  0  0
 12 11  1  0  0  0  0
 12 14  1  0  0  0  0
 13 10  1  0  0  0  0
 13 16  2  0  0  0  0
 14 15  1  6  0  0  0
 14 10  1  0  0  0  0
 18 22  1  0  0  0  0
 19 21  1  0  0  0  0
 20 18  1  0  0  0  0
 20 19  1  0  0  0  0
 21 17  1  0  0  0  0
 22 17  1  0  0  0  0
 23 35  1  1  0  0  0
 24 27  1  0  0  0  0
 25 23  1  6  0  0  0
 25 32  1  0  0  0  0
 26 29  2  0  0  0  0
 27 31  2  0  0  0  0
 28 24  1  0  0  0  0
 29 31  1  0  0  0  0
 29 32  1  0  0  0  0
 30 24  2  0  0  0  0
 30 26  1  0  0  0  0
 33 25  1  0  0  0  0
 34 26  1  0  0  0  0
 34 33  1  0  0  0  0
 35 36  1  0  0  0  0
 37 38  1  0  0  0  0
 38 43  1  6  0  0  0
 39 40  1  0  0  0  0
 39 41  1  0  0  0  0
 40 36  1  6  0  0  0
 40 37  1  0  0  0  0
 41 38  1  0  0  0  0
 43 42  1  0  0  0  0
M  END
>  <MODEL>
2

>  <REMARK>
 VINA RESULT:      -5.1      3.680      9.002
  Name = 
  9 active torsions:
  status: ('A' for Active; 'I' for Inactive)
    1  A    between atoms: N_1  and  C_34
    2  A    between atoms: N_1  and  C_35
    3  A    between atoms: N_3  and  C_4
    4  A    between atoms: C_6  and  C_12
    5  A    between atoms: C_8  and  C_34
    6  A    between atoms: N_11  and  C_14
    7  A    between atoms: C_19  and  O_37
    8  A    between atoms: C_32  and  C_35
    9  A    between atoms: C_34  and  C_38
                            x       y       z     vdW  Elec       q    Type
                         _______ _______ _______ _____ _____    ______ ____

>  <TORSDO>
F 9

$$$$
=
 OpenBabel11062410333D

 43 48  0  0  1  0  0  0  0  0999 V2000
  159.9690  211.8060  142.4740 C   0  0  0  0  0  2  0  0  0  0  0  0
  160.7330  212.8890  143.2500 C   0  0  1  0  0  3  0  0  0  0  0  0
  159.7230  212.2340  141.0320 C   0  0  0  0  0  2  0  0  0  0  0  0
  160.4540  214.3200  142.7660 C   0  0  0  0  0  2  0  0  0  0  0  0
  159.0540  214.4530  142.1660 C   0  0  0  0  0  2  0  0  0  0  0  0
  158.8460  213.4950  140.9780 C   0  0  1  0  0  3  0  0  0  0  0  0
  161.4660  213.1760  145.6600 N   0  0  0  0  0  2  0  0  0  0  0  0
  160.4680  212.7650  144.7130 C   0  0  0  0  0  0  0  0  0  0  0  0
  159.3670  212.2900  145.0990 O   0  0  0  0  0  0  0  0  0  0  0  0
  161.3490  213.1050  147.1160 C   0  0  2  0  0  3  0  0  0  0  0  0
  163.0090  211.9980  148.4800 N   0  0  0  0  0  2  0  0  0  0  0  0
  161.9710  211.0020  148.2510 C   0  0  2  0  0  3  0  0  0  0  0  0
  162.6710  213.1720  147.7750 C   0  0  0  0  0  0  0  0  0  0  0  0
  160.7930  211.7560  147.5710 C   0  0  1  0  0  3  0  0  0  0  0  0
  159.7500  211.9870  148.4730 O   0  0  0  0  0  1  0  0  0  0  0  0
  163.4210  214.1810  147.7390 O   0  0  0  0  0  0  0  0  0  0  0  0
  161.5880  210.3310  149.5010 N   0  0  0  0  0  0  0  0  0  0  0  0
  161.3720  208.1350  150.5730 C   0  0  0  0  0  2  0  0  0  0  0  0
  162.0790  210.1400  151.8960 C   0  0  0  0  0  2  0  0  0  0  0  0
  162.1760  208.6230  151.7750 C   0  0  0  0  0  2  0  0  0  0  0  0
  162.4830  210.7830  150.5720 C   0  0  0  0  0  2  0  0  0  0  0  0
  161.8170  208.8920  149.3240 C   0  0  0  0  0  2  0  0  0  0  0  0
  158.9730  214.1900  139.6200 C   0  0  2  0  0  3  0  0  0  0  0  0
  155.7180  209.7340  137.9180 C   0  0  0  0  0  0  0  0  0  0  0  0
  157.6060  214.3790  138.9250 C   0  0  2  0  0  3  0  0  0  0  0  0
  156.8620  211.8670  137.8140 C   0  0  0  0  0  0  0  0  0  0  0  0
  155.0510  210.1460  139.0760 C   0  0  0  0  0  3  0  0  0  0  0  0
  155.4700  208.3800  137.3600 C   0  0  0  0  0  1  0  0  0  0  0  0
  156.2080  212.2740  138.9930 C   0  0  0  0  0  0  0  0  0  0  0  0
  156.6260  210.5920  137.2930 C   0  0  0  0  0  3  0  0  0  0  0  0
  155.2930  211.4140  139.6100 C   0  0  0  0  0  3  0  0  0  0  0  0
  156.4200  213.6450  139.5680 C   0  0  0  0  0  2  0  0  0  0  0  0
  157.6740  214.1540  137.4760 N   0  0  0  0  0  2  0  0  0  0  0  0
  157.9010  212.7380  137.1780 C   0  0  0  0  0  2  0  0  0  0  0  0
  159.9350  213.4830  138.7830 N   0  0  0  0  0  2  0  0  0  0  0  0
  161.2470  214.0420  139.0660 C   0  0  0  0  0  2  0  0  0  0  0  0
  162.1590  212.1710  137.7170 C   0  0  0  0  0  2  0  0  0  0  0  0
  163.1950  211.4860  138.5860 C   0  0  1  0  0  3  0  0  0  0  0  0
  163.9360  214.0920  138.4560 S   0  0  0  0  0  0  0  0  0  0  0  0
  162.2310  213.6660  137.9680 C   0  0  2  0  0  3  0  0  0  0  0  0
  164.4390  212.3480  138.5400 C   0  0  0  0  0  2  0  0  0  0  0  0
  162.3910  210.0530  140.0690 C   0  0  0  0  0  1  0  0  0  0  0  0
  162.7320  211.3950  139.9010 O   0  0  0  0  0  0  0  0  0  0  0  0
  1  2  1  0  0  0  0
  2  8  1  1  0  0  0
  3  1  1  0  0  0  0
  4  2  1  0  0  0  0
  5  4  1  0  0  0  0
  6 23  1  6  0  0  0
  6  3  1  0  0  0  0
  6  5  1  0  0  0  0
  8  9  2  0  0  0  0
  8  7  1  0  0  0  0
 10  7  1  6  0  0  0
 10 14  1  0  0  0  0
 10 13  1  0  0  0  0
 12 11  1  0  0  0  0
 12 17  1  1  0  0  0
 13 11  1  0  0  0  0
 14 12  1  0  0  0  0
 14 15  1  1  0  0  0
 16 13  2  0  0  0  0
 17 21  1  0  0  0  0
 18 20  1  0  0  0  0
 20 19  1  0  0  0  0
 21 19  1  0  0  0  0
 22 17  1  0  0  0  0
 22 18  1  0  0  0  0
 23 35  1  6  0  0  0
 24 27  1  0  0  0  0
 25 32  1  0  0  0  0
 25 23  1  1  0  0  0
 26 29  2  0  0  0  0
 27 31  2  0  0  0  0
 28 24  1  0  0  0  0
 29 32  1  0  0  0  0
 29 31  1  0  0  0  0
 30 26  1  0  0  0  0
 30 24  2  0  0  0  0
 33 25  1  0  0  0  0
 34 33  1  0  0  0  0
 34 26  1  0  0  0  0
 35 36  1  0  0  0  0
 37 40  1  0  0  0  0
 37 38  1  0  0  0  0
 38 43  1  1  0  0  0
 39 41  1  0  0  0  0
 40 39  1  0  0  0  0
 40 36  1  1  0  0  0
 41 38  1  0  0  0  0
 43 42  1  0  0  0  0
M  END
>  <MODEL>
3

>  <REMARK>
 VINA RESULT:      -4.5      7.425     12.243
  Name = 
  9 active torsions:
  status: ('A' for Active; 'I' for Inactive)
    1  A    between atoms: N_1  and  C_34
    2  A    between atoms: N_1  and  C_35
    3  A    between atoms: N_3  and  C_4
    4  A    between atoms: C_6  and  C_12
    5  A    between atoms: C_8  and  C_34
    6  A    between atoms: N_11  and  C_14
    7  A    between atoms: C_19  and  O_37
    8  A    between atoms: C_32  and  C_35
    9  A    between atoms: C_34  and  C_38
                            x       y       z     vdW  Elec       q    Type
                         _______ _______ _______ _____ _____    ______ ____

>  <TORSDO>
F 9

$$$$
=
 OpenBabel11062410333D

 43 48  0  0  1  0  0  0  0  0999 V2000
  161.0890  211.7270  149.4250 C   0  0  0  0  0  2  0  0  0  0  0  0
  162.3580  212.1330  148.6600 C   0  0  1  0  0  3  0  0  0  0  0  0
  161.3300  210.4750  150.2610 C   0  0  0  0  0  2  0  0  0  0  0  0
  163.2640  210.9520  148.2810 C   0  0  0  0  0  2  0  0  0  0  0  0
  162.4670  209.6610  148.0920 C   0  0  0  0  0  2  0  0  0  0  0  0
  161.6860  209.2790  149.3650 C   0  0  1  0  0  3  0  0  0  0  0  0
  160.9910  212.4610  146.5500 N   0  0  0  0  0  2  0  0  0  0  0  0
  162.0020  212.9350  147.4530 C   0  0  0  0  0  0  0  0  0  0  0  0
  162.6030  214.0210  147.2380 O   0  0  0  0  0  0  0  0  0  0  0  0
  160.5470  213.1330  145.3290 C   0  0  2  0  0  3  0  0  0  0  0  0
  159.6340  211.9090  143.4560 N   0  0  0  0  0  2  0  0  0  0  0  0
  161.0480  212.0800  143.1520 C   0  0  2  0  0  3  0  0  0  0  0  0
  159.3760  212.4590  144.7290 C   0  0  0  0  0  0  0  0  0  0  0  0
  161.6050  213.0560  144.2270 C   0  0  1  0  0  3  0  0  0  0  0  0
  161.7920  214.3380  143.7020 O   0  0  0  0  0  1  0  0  0  0  0  0
  158.2460  212.3950  145.2780 O   0  0  0  0  0  0  0  0  0  0  0  0
  161.2460  212.5580  141.7760 N   0  0  0  0  0  0  0  0  0  0  0  0
  162.5650  212.2070  139.7380 C   0  0  0  0  0  2  0  0  0  0  0  0
  160.1600  212.8880  139.6010 C   0  0  0  0  0  2  0  0  0  0  0  0
  161.2900  212.1410  138.9020 C   0  0  0  0  0  2  0  0  0  0  0  0
  160.0020  212.3560  141.0240 C   0  0  0  0  0  2  0  0  0  0  0  0
  162.2710  211.7130  141.1530 C   0  0  0  0  0  2  0  0  0  0  0  0
  162.3690  208.1740  150.1740 C   0  0  2  0  0  3  0  0  0  0  0  0
  161.6150  205.4930  145.1150 C   0  0  0  0  0  0  0  0  0  0  0  0
  161.6370  206.8190  150.0550 C   0  0  2  0  0  3  0  0  0  0  0  0
  161.0740  206.3950  147.2980 C   0  0  0  0  0  0  0  0  0  0  0  0
  162.6550  204.7470  145.6790 C   0  0  0  0  0  3  0  0  0  0  0  0
  161.3520  205.4160  143.6560 C   0  0  0  0  0  1  0  0  0  0  0  0
  162.1350  205.6620  147.8630 C   0  0  0  0  0  0  0  0  0  0  0  0
  160.8310  206.3190  145.9240 C   0  0  0  0  0  3  0  0  0  0  0  0
  162.9120  204.8290  147.0500 C   0  0  0  0  0  3  0  0  0  0  0  0
  162.4110  205.7010  149.3390 C   0  0  0  0  0  2  0  0  0  0  0  0
  160.2690  206.9570  149.5430 N   0  0  0  0  0  2  0  0  0  0  0  0
  160.2780  207.3510  148.1330 C   0  0  0  0  0  2  0  0  0  0  0  0
  162.5390  208.6000  151.5590 N   0  0  0  0  0  2  0  0  0  0  0  0
  162.1410  207.4860  152.4050 C   0  0  0  0  0  2  0  0  0  0  0  0
  160.5030  209.2330  153.0520 C   0  0  0  0  0  2  0  0  0  0  0  0
  160.9480  209.7530  154.4040 C   0  0  1  0  0  3  0  0  0  0  0  0
  160.6610  207.0720  154.6950 S   0  0  0  0  0  0  0  0  0  0  0  0
  160.7640  207.7390  153.0000 C   0  0  2  0  0  3  0  0  0  0  0  0
  160.5130  208.7280  155.4300 C   0  0  0  0  0  2  0  0  0  0  0  0
  162.6130  210.5440  155.6310 C   0  0  0  0  0  1  0  0  0  0  0  0
  162.3380  209.8880  154.4300 O   0  0  0  0  0  0  0  0  0  0  0  0
  1  3  1  0  0  0  0
  2  8  1  6  0  0  0
  2  1  1  0  0  0  0
  4  2  1  0  0  0  0
  5  4  1  0  0  0  0
  5  6  1  0  0  0  0
  6 23  1  1  0  0  0
  6  3  1  0  0  0  0
  7  8  1  0  0  0  0
  9  8  2  0  0  0  0
 10  7  1  1  0  0  0
 11 13  1  0  0  0  0
 12 17  1  6  0  0  0
 12 11  1  0  0  0  0
 12 14  1  0  0  0  0
 13 16  2  0  0  0  0
 13 10  1  0  0  0  0
 14 15  1  6  0  0  0
 14 10  1  0  0  0  0
 18 22  1  0  0  0  0
 19 21  1  0  0  0  0
 20 19  1  0  0  0  0
 20 18  1  0  0  0  0
 21 17  1  0  0  0  0
 22 17  1  0  0  0  0
 23 35  1  1  0  0  0
 24 27  2  0  0  0  0
 24 30  1  0  0  0  0
 25 23  1  6  0  0  0
 26 29  1  0  0  0  0
 26 34  1  0  0  0  0
 27 31  1  0  0  0  0
 28 24  1  0  0  0  0
 29 32  1  0  0  0  0
 30 26  2  0  0  0  0
 31 29  2  0  0  0  0
 32 25  1  0  0  0  0
 33 25  1  0  0  0  0
 34 33  1  0  0  0  0
 35 36  1  0  0  0  0
 37 38  1  0  0  0  0
 38 43  1  6  0  0  0
 38 41  1  0  0  0  0
 39 41  1  0  0  0  0
 40 36  1  1  0  0  0
 40 37  1  0  0  0  0
 40 39  1  0  0  0  0
 43 42  1  0  0  0  0
M  END
>  <MODEL>
4

>  <REMARK>
 VINA RESULT:      -4.0      4.362      8.858
  Name = 
  9 active torsions:
  status: ('A' for Active; 'I' for Inactive)
    1  A    between atoms: N_1  and  C_34
    2  A    between atoms: N_1  and  C_35
    3  A    between atoms: N_3  and  C_4
    4  A    between atoms: C_6  and  C_12
    5  A    between atoms: C_8  and  C_34
    6  A    between atoms: N_11  and  C_14
    7  A    between atoms: C_19  and  O_37
    8  A    between atoms: C_32  and  C_35
    9  A    between atoms: C_34  and  C_38
                            x       y       z     vdW  Elec       q    Type
                         _______ _______ _______ _____ _____    ______ ____

>  <TORSDO>
F 9

$$$$
=
 OpenBabel11062410333D

 43 48  0  0  1  0  0  0  0  0999 V2000
  161.8310  206.9130  152.2210 C   0  0  0  0  0  2  0  0  0  0  0  0
  160.8820  206.2810  151.1910 C   0  0  1  0  0  3  0  0  0  0  0  0
  161.5710  208.4080  152.3620 C   0  0  0  0  0  2  0  0  0  0  0  0
  160.4560  207.2370  150.0650 C   0  0  0  0  0  2  0  0  0  0  0  0
  161.5230  208.2950  149.7850 C   0  0  0  0  0  2  0  0  0  0  0  0
  161.8380  209.1370  151.0360 C   0  0  1  0  0  3  0  0  0  0  0  0
  161.4060  204.7780  149.2190 N   0  0  0  0  0  2  0  0  0  0  0  0
  161.4790  205.0360  150.6290 C   0  0  0  0  0  0  0  0  0  0  0  0
  162.0380  204.2170  151.4080 O   0  0  0  0  0  0  0  0  0  0  0  0
  161.9370  203.6010  148.5320 C   0  0  2  0  0  3  0  0  0  0  0  0
  161.3470  203.0790  146.2480 N   0  0  0  0  0  2  0  0  0  0  0  0
  160.4270  202.3040  147.0700 C   0  0  2  0  0  3  0  0  0  0  0  0
  162.1600  203.8610  147.0940 C   0  0  0  0  0  0  0  0  0  0  0  0
  160.9340  202.4470  148.5330 C   0  0  1  0  0  3  0  0  0  0  0  0
  161.5900  201.2890  148.9600 O   0  0  0  0  0  1  0  0  0  0  0  0
  163.0060  204.6800  146.6530 O   0  0  0  0  0  0  0  0  0  0  0  0
  160.3490  200.9080  146.6160 N   0  0  0  0  0  0  0  0  0  0  0  0
  159.9960  199.4940  144.6430 C   0  0  0  0  0  2  0  0  0  0  0  0
  161.5730  198.7890  146.4550 C   0  0  0  0  0  2  0  0  0  0  0  0
  161.2560  198.6970  144.9660 C   0  0  0  0  0  2  0  0  0  0  0  0
  161.6380  200.2560  146.8720 C   0  0  0  0  0  2  0  0  0  0  0  0
  160.1510  200.9220  145.1620 C   0  0  0  0  0  2  0  0  0  0  0  0
  161.1580  210.5080  151.0200 C   0  0  2  0  0  3  0  0  0  0  0  0
  159.0180  213.4990  146.5680 C   0  0  0  0  0  0  0  0  0  0  0  0
  161.9850  211.5680  150.2580 C   0  0  2  0  0  3  0  0  0  0  0  0
  160.5850  212.1760  147.8570 C   0  0  0  0  0  0  0  0  0  0  0  0
  158.9710  214.4470  147.5950 C   0  0  0  0  0  3  0  0  0  0  0  0
  158.2060  213.6940  145.3390 C   0  0  0  0  0  1  0  0  0  0  0  0
  160.5210  213.1180  148.9010 C   0  0  0  0  0  0  0  0  0  0  0  0
  159.8200  212.3630  146.7030 C   0  0  0  0  0  3  0  0  0  0  0  0
  159.7230  214.2580  148.7570 C   0  0  0  0  0  3  0  0  0  0  0  0
  161.3470  212.9610  150.1450 C   0  0  0  0  0  2  0  0  0  0  0  0
  162.4760  211.0790  148.9650 N   0  0  0  0  0  2  0  0  0  0  0  0
  161.3710  210.9110  148.0180 C   0  0  0  0  0  2  0  0  0  0  0  0
  160.8320  210.9220  152.3800 N   0  0  0  0  0  2  0  0  0  0  0  0
  159.3950  211.1360  152.4340 C   0  0  0  0  0  2  0  0  0  0  0  0
  160.0420  212.0620  154.6420 C   0  0  0  0  0  2  0  0  0  0  0  0
  159.4720  211.1190  155.6820 C   0  0  1  0  0  3  0  0  0  0  0  0
  157.3730  211.8930  154.1490 S   0  0  0  0  0  0  0  0  0  0  0  0
  159.0530  212.1700  153.4960 C   0  0  2  0  0  3  0  0  0  0  0  0
  157.9960  211.4340  155.7940 C   0  0  0  0  0  2  0  0  0  0  0  0
  160.8460  209.3910  155.8490 C   0  0  0  0  0  1  0  0  0  0  0  0
  159.6420  209.7940  155.2710 O   0  0  0  0  0  0  0  0  0  0  0  0
  1  3  1  0  0  0  0
  2  8  1  6  0  0  0
  2  1  1  0  0  0  0
  4  2  1  0  0  0  0
  5  4  1  0  0  0  0
  5  6  1  0  0  0  0
  6 23  1  1  0  0  0
  6  3  1  0  0  0  0
  7  8  1  0  0  0  0
  8  9  2  0  0  0  0
 10 14  1  0  0  0  0
 10  7  1  1  0  0  0
 11 12  1  0  0  0  0
 11 13  1  0  0  0  0
 12 17  1  6  0  0  0
 12 14  1  0  0  0  0
 13 10  1  0  0  0  0
 14 15  1  6  0  0  0
 16 13  2  0  0  0  0
 17 21  1  0  0  0  0
 18 20  1  0  0  0  0
 18 22  1  0  0  0  0
 19 21  1  0  0  0  0
 20 19  1  0  0  0  0
 22 17  1  0  0  0  0
 23 35  1  1  0  0  0
 24 30  2  0  0  0  0
 24 27  1  0  0  0  0
 25 23  1  6  0  0  0
 26 34  1  0  0  0  0
 26 29  2  0  0  0  0
 27 31  2  0  0  0  0
 28 24  1  0  0  0  0
 29 32  1  0  0  0  0
 30 26  1  0  0  0  0
 31 29  1  0  0  0  0
 32 25  1  0  0  0  0
 33 25  1  0  0  0  0
 34 33  1  0  0  0  0
 35 36  1  0  0  0  0
 37 38  1  0  0  0  0
 38 43  1  6  0  0  0
 38 41  1  0  0  0  0
 39 41  1  0  0  0  0
 40 36  1  6  0  0  0
 40 39  1  0  0  0  0
 40 37  1  0  0  0  0
 43 42  1  0  0  0  0
M  END
>  <MODEL>
5

>  <REMARK>
 VINA RESULT:      -3.8      2.481      4.216
  Name = 
  9 active torsions:
  status: ('A' for Active; 'I' for Inactive)
    1  A    between atoms: N_1  and  C_34
    2  A    between atoms: N_1  and  C_35
    3  A    between atoms: N_3  and  C_4
    4  A    between atoms: C_6  and  C_12
    5  A    between atoms: C_8  and  C_34
    6  A    between atoms: N_11  and  C_14
    7  A    between atoms: C_19  and  O_37
    8  A    between atoms: C_32  and  C_35
    9  A    between atoms: C_34  and  C_38
                            x       y       z     vdW  Elec       q    Type
                         _______ _______ _______ _____ _____    ______ ____

>  <TORSDO>
F 9

$$$$
=
 OpenBabel11062410333D

 43 48  0  0  1  0  0  0  0  0999 V2000
  161.0740  205.8790  152.9440 C   0  0  0  0  0  2  0  0  0  0  0  0
  160.5900  206.2230  151.5280 C   0  0  1  0  0  3  0  0  0  0  0  0
  160.8600  207.0480  153.8970 C   0  0  0  0  0  2  0  0  0  0  0  0
  160.7070  207.7140  151.1730 C   0  0  0  0  0  2  0  0  0  0  0  0
  161.8510  208.3890  151.9280 C   0  0  0  0  0  2  0  0  0  0  0  0
  161.6780  208.2710  153.4550 C   0  0  1  0  0  3  0  0  0  0  0  0
  161.2560  205.7440  149.1290 N   0  0  0  0  0  2  0  0  0  0  0  0
  161.2960  205.3820  150.5180 C   0  0  0  0  0  0  0  0  0  0  0  0
  161.9170  204.3550  150.9010 O   0  0  0  0  0  0  0  0  0  0  0  0
  161.8910  205.0140  148.0320 C   0  0  2  0  0  3  0  0  0  0  0  0
  160.6670  204.3570  146.0550 N   0  0  0  0  0  2  0  0  0  0  0  0
  160.6290  203.1970  146.9350 C   0  0  2  0  0  3  0  0  0  0  0  0
  161.3360  205.4060  146.7200 C   0  0  0  0  0  0  0  0  0  0  0  0
  161.5980  203.5150  148.1090 C   0  0  1  0  0  3  0  0  0  0  0  0
  162.8030  202.8190  147.9770 O   0  0  0  0  0  1  0  0  0  0  0  0
  161.4620  206.5530  146.2210 O   0  0  0  0  0  0  0  0  0  0  0  0
  160.9770  201.9650  146.2120 N   0  0  0  0  0  0  0  0  0  0  0  0
  161.4830  199.5830  146.5060 C   0  0  0  0  0  2  0  0  0  0  0  0
  160.2370  200.3850  144.4880 C   0  0  0  0  0  2  0  0  0  0  0  0
  160.4550  199.2140  145.4410 C   0  0  0  0  0  2  0  0  0  0  0  0
  159.8840  201.6350  145.2910 C   0  0  0  0  0  2  0  0  0  0  0  0
  161.0590  200.8790  147.1950 C   0  0  0  0  0  2  0  0  0  0  0  0
  161.1370  209.5510  154.0950 C   0  0  2  0  0  3  0  0  0  0  0  0
  157.5750  213.1130  156.9190 C   0  0  0  0  0  0  0  0  0  0  0  0
  160.7850  209.3610  155.5870 C   0  0  2  0  0  3  0  0  0  0  0  0
  159.5330  211.7560  156.4790 C   0  0  0  0  0  0  0  0  0  0  0  0
  156.7540  212.0020  156.7070 C   0  0  0  0  0  3  0  0  0  0  0  0
  156.9730  214.4280  157.2610 C   0  0  0  0  0  1  0  0  0  0  0  0
  158.7060  210.6410  156.2420 C   0  0  0  0  0  0  0  0  0  0  0  0
  158.9620  212.9900  156.7990 C   0  0  0  0  0  3  0  0  0  0  0  0
  157.3190  210.7680  156.3720 C   0  0  0  0  0  3  0  0  0  0  0  0
  159.2860  209.2940  155.9190 C   0  0  0  0  0  2  0  0  0  0  0  0
  161.5020  210.2970  156.4610 N   0  0  0  0  0  2  0  0  0  0  0  0
  161.0140  211.6640  156.2720 C   0  0  0  0  0  2  0  0  0  0  0  0
  160.0170  210.0670  153.3160 N   0  0  0  0  0  2  0  0  0  0  0  0
  160.2500  211.4870  153.1100 C   0  0  0  0  0  2  0  0  0  0  0  0
  158.4030  212.0350  151.5480 C   0  0  0  0  0  2  0  0  0  0  0  0
  158.8970  213.1840  150.6930 C   0  0  1  0  0  3  0  0  0  0  0  0
  159.1460  214.0100  153.2640 S   0  0  0  0  0  0  0  0  0  0  0  0
  158.9280  212.2240  152.9600 C   0  0  2  0  0  3  0  0  0  0  0  0
  158.7810  214.4360  151.5350 C   0  0  0  0  0  2  0  0  0  0  0  0
  160.5330  214.0110  149.4510 C   0  0  0  0  0  1  0  0  0  0  0  0
  160.2320  212.9760  150.3370 O   0  0  0  0  0  0  0  0  0  0  0  0
  1  3  1  0  0  0  0
  2  8  1  6  0  0  0
  2  1  1  0  0  0  0
  4  2  1  0  0  0  0
  4  5  1  0  0  0  0
  5  6  1  0  0  0  0
  6  3  1  0  0  0  0
  6 23  1  6  0  0  0
  7  8  1  0  0  0  0
  8  9  2  0  0  0  0
 10 14  1  0  0  0  0
 10  7  1  1  0  0  0
 11 13  1  0  0  0  0
 11 12  1  0  0  0  0
 12 17  1  6  0  0  0
 12 14  1  0  0  0  0
 13 10  1  0  0  0  0
 14 15  1  6  0  0  0
 16 13  2  0  0  0  0
 17 22  1  0  0  0  0
 18 22  1  0  0  0  0
 19 21  1  0  0  0  0
 19 20  1  0  0  0  0
 20 18  1  0  0  0  0
 21 17  1  0  0  0  0
 23 35  1  6  0  0  0
 24 28  1  0  0  0  0
 25 23  1  6  0  0  0
 25 32  1  0  0  0  0
 25 33  1  0  0  0  0
 26 30  2  0  0  0  0
 27 24  2  0  0  0  0
 29 31  2  0  0  0  0
 29 26  1  0  0  0  0
 30 24  1  0  0  0  0
 31 27  1  0  0  0  0
 32 29  1  0  0  0  0
 34 33  1  0  0  0  0
 34 26  1  0  0  0  0
 36 35  1  0  0  0  0
 37 40  1  0  0  0  0
 38 43  1  1  0  0  0
 38 41  1  0  0  0  0
 38 37  1  0  0  0  0
 40 36  1  6  0  0  0
 40 39  1  0  0  0  0
 41 39  1  0  0  0  0
 42 43  1  0  0  0  0
M  END
>  <MODEL>
6

>  <REMARK>
 VINA RESULT:      -3.5      2.461      5.565
  Name = 
  9 active torsions:
  status: ('A' for Active; 'I' for Inactive)
    1  A    between atoms: N_1  and  C_34
    2  A    between atoms: N_1  and  C_35
    3  A    between atoms: N_3  and  C_4
    4  A    between atoms: C_6  and  C_12
    5  A    between atoms: C_8  and  C_34
    6  A    between atoms: N_11  and  C_14
    7  A    between atoms: C_19  and  O_37
    8  A    between atoms: C_32  and  C_35
    9  A    between atoms: C_34  and  C_38
                            x       y       z     vdW  Elec       q    Type
                         _______ _______ _______ _____ _____    ______ ____

>  <TORSDO>
F 9

$$$$
=
 OpenBabel11062410333D

 43 48  0  0  1  0  0  0  0  0999 V2000
  161.9010  210.3300  150.8010 C   0  0  0  0  0  2  0  0  0  0  0  0
  162.2270  209.4440  152.0120 C   0  0  1  0  0  3  0  0  0  0  0  0
  161.1990  211.6130  151.2330 C   0  0  0  0  0  2  0  0  0  0  0  0
  161.2320  209.5840  153.1750 C   0  0  0  0  0  2  0  0  0  0  0  0
  159.8370  209.9720  152.6860 C   0  0  0  0  0  2  0  0  0  0  0  0
  159.8530  211.2990  151.9040 C   0  0  1  0  0  3  0  0  0  0  0  0
  162.4840  207.6880  150.2020 N   0  0  0  0  0  2  0  0  0  0  0  0
  162.3530  208.0180  151.5930 C   0  0  0  0  0  0  0  0  0  0  0  0
  162.3340  207.1150  152.4720 O   0  0  0  0  0  0  0  0  0  0  0  0
  162.6080  206.3410  149.6460 C   0  0  2  0  0  3  0  0  0  0  0  0
  161.0230  205.4690  148.0430 N   0  0  0  0  0  2  0  0  0  0  0  0
  160.5580  204.9970  149.3410 C   0  0  2  0  0  3  0  0  0  0  0  0
  162.1560  206.2860  148.2400 C   0  0  0  0  0  0  0  0  0  0  0  0
  161.6810  205.3520  150.3560 C   0  0  1  0  0  3  0  0  0  0  0  0
  162.4240  204.2220  150.7080 O   0  0  0  0  0  1  0  0  0  0  0  0
  162.7320  206.8840  147.2950 O   0  0  0  0  0  0  0  0  0  0  0  0
  160.2390  203.5630  149.3050 N   0  0  0  0  0  0  0  0  0  0  0  0
  160.6280  201.4870  148.0580 C   0  0  0  0  0  2  0  0  0  0  0  0
  160.3810  201.4540  150.5490 C   0  0  0  0  0  2  0  0  0  0  0  0
  161.0140  200.7650  149.3460 C   0  0  0  0  0  2  0  0  0  0  0  0
  160.7410  202.9380  150.5340 C   0  0  0  0  0  2  0  0  0  0  0  0
  160.9750  202.9690  148.1840 C   0  0  0  0  0  2  0  0  0  0  0  0
  159.3680  212.4880  152.7370 C   0  0  2  0  0  3  0  0  0  0  0  0
  155.2400  213.6440  156.6060 C   0  0  0  0  0  0  0  0  0  0  0  0
  159.5670  212.2660  154.2530 C   0  0  2  0  0  3  0  0  0  0  0  0
  157.4410  213.6000  155.5940 C   0  0  0  0  0  0  0  0  0  0  0  0
  155.1760  212.2500  156.5320 C   0  0  0  0  0  3  0  0  0  0  0  0
  154.1040  214.4110  157.1780 C   0  0  0  0  0  1  0  0  0  0  0  0
  157.3670  212.1980  155.4980 C   0  0  0  0  0  0  0  0  0  0  0  0
  156.3690  214.3170  156.1330 C   0  0  0  0  0  3  0  0  0  0  0  0
  156.2380  211.5280  155.9820 C   0  0  0  0  0  3  0  0  0  0  0  0
  158.5100  211.3930  154.9460 C   0  0  0  0  0  2  0  0  0  0  0  0
  159.8120  213.5170  154.9800 N   0  0  0  0  0  2  0  0  0  0  0  0
  158.6050  214.3450  155.0150 C   0  0  0  0  0  2  0  0  0  0  0  0
  157.9880  212.8120  152.3940 N   0  0  0  0  0  2  0  0  0  0  0  0
  157.8760  212.7490  150.9460 C   0  0  0  0  0  2  0  0  0  0  0  0
  156.9580  214.3610  149.3000 C   0  0  0  0  0  2  0  0  0  0  0  0
  157.4980  213.9420  147.9470 C   0  0  1  0  0  3  0  0  0  0  0  0
  159.6660  214.3030  149.5360 S   0  0  0  0  0  0  0  0  0  0  0  0
  158.0380  214.1350  150.3410 C   0  0  2  0  0  3  0  0  0  0  0  0
  158.9290  214.4310  147.8790 C   0  0  0  0  0  2  0  0  0  0  0  0
  157.1760  212.3090  146.4880 C   0  0  0  0  0  1  0  0  0  0  0  0
  157.4670  212.5500  147.8310 O   0  0  0  0  0  0  0  0  0  0  0  0
  1  3  1  0  0  0  0
  1  2  1  0  0  0  0
  2  8  1  6  0  0  0
  2  4  1  0  0  0  0
  3  6  1  0  0  0  0
  5  4  1  0  0  0  0
  6  5  1  0  0  0  0
  6 23  1  1  0  0  0
  7  8  1  0  0  0  0
  8  9  2  0  0  0  0
 10  7  1  1  0  0  0
 10 14  1  0  0  0  0
 11 13  1  0  0  0  0
 11 12  1  0  0  0  0
 12 17  1  6  0  0  0
 12 14  1  0  0  0  0
 13 10  1  0  0  0  0
 14 15  1  6  0  0  0
 16 13  2  0  0  0  0
 17 21  1  0  0  0  0
 18 22  1  0  0  0  0
 18 20  1  0  0  0  0
 20 19  1  0  0  0  0
 21 19  1  0  0  0  0
 22 17  1  0  0  0  0
 23 35  1  1  0  0  0
 24 28  1  0  0  0  0
 25 23  1  6  0  0  0
 25 32  1  0  0  0  0
 25 33  1  0  0  0  0
 26 30  1  0  0  0  0
 27 24  1  0  0  0  0
 29 26  2  0  0  0  0
 29 31  1  0  0  0  0
 30 24  2  0  0  0  0
 31 27  2  0  0  0  0
 32 29  1  0  0  0  0
 33 34  1  0  0  0  0
 34 26  1  0  0  0  0
 36 35  1  0  0  0  0
 37 40  1  0  0  0  0
 38 43  1  1  0  0  0
 38 37  1  0  0  0  0
 39 40  1  0  0  0  0
 40 36  1  6  0  0  0
 41 38  1  0  0  0  0
 41 39  1  0  0  0  0
 42 43  1  0  0  0  0
M  END
>  <MODEL>
7

>  <REMARK>
 VINA RESULT:      -3.3      2.074      5.121
  Name = 
  9 active torsions:
  status: ('A' for Active; 'I' for Inactive)
    1  A    between atoms: N_1  and  C_34
    2  A    between atoms: N_1  and  C_35
    3  A    between atoms: N_3  and  C_4
    4  A    between atoms: C_6  and  C_12
    5  A    between atoms: C_8  and  C_34
    6  A    between atoms: N_11  and  C_14
    7  A    between atoms: C_19  and  O_37
    8  A    between atoms: C_32  and  C_35
    9  A    between atoms: C_34  and  C_38
                            x       y       z     vdW  Elec       q    Type
                         _______ _______ _______ _____ _____    ______ ____

>  <TORSDO>
F 9

$$$$
=
 OpenBabel11062410333D

 43 48  0  0  1  0  0  0  0  0999 V2000
  161.4550  209.6650  149.3430 C   0  0  0  0  0  2  0  0  0  0  0  0
  162.3580  208.4450  149.5790 C   0  0  1  0  0  3  0  0  0  0  0  0
  161.4660  210.5970  150.5500 C   0  0  0  0  0  2  0  0  0  0  0  0
  162.4600  208.0180  151.0510 C   0  0  0  0  0  2  0  0  0  0  0  0
  161.1970  208.3760  151.8360 C   0  0  0  0  0  2  0  0  0  0  0  0
  160.9060  209.8890  151.7930 C   0  0  1  0  0  3  0  0  0  0  0  0
  162.4700  207.1340  147.4120 N   0  0  0  0  0  2  0  0  0  0  0  0
  161.9180  207.3020  148.7270 C   0  0  0  0  0  0  0  0  0  0  0  0
  161.0560  206.4990  149.1740 O   0  0  0  0  0  0  0  0  0  0  0  0
  162.1300  206.0710  146.4670 C   0  0  2  0  0  3  0  0  0  0  0  0
  160.3700  204.4770  146.9160 N   0  0  0  0  0  2  0  0  0  0  0  0
  161.5980  203.8280  147.3530 C   0  0  2  0  0  3  0  0  0  0  0  0
  160.6810  205.7790  146.4710 C   0  0  0  0  0  0  0  0  0  0  0  0
  162.7620  204.7370  146.8680 C   0  0  1  0  0  3  0  0  0  0  0  0
  163.3990  204.1940  145.7480 O   0  0  0  0  0  1  0  0  0  0  0  0
  159.8010  206.5940  146.0940 O   0  0  0  0  0  0  0  0  0  0  0  0
  161.6860  202.4510  146.8460 N   0  0  0  0  0  0  0  0  0  0  0  0
  161.5820  200.0940  147.5160 C   0  0  0  0  0  2  0  0  0  0  0  0
  160.7030  200.8290  145.2900 C   0  0  0  0  0  2  0  0  0  0  0  0
  160.5680  199.8060  146.4130 C   0  0  0  0  0  2  0  0  0  0  0  0
  160.6090  202.2380  145.8730 C   0  0  0  0  0  2  0  0  0  0  0  0
  161.4370  201.5440  147.9720 C   0  0  0  0  0  2  0  0  0  0  0  0
  161.3290  210.6140  153.0720 C   0  0  2  0  0  3  0  0  0  0  0  0
  157.1610  212.5910  156.5460 C   0  0  0  0  0  0  0  0  0  0  0  0
  160.8880  209.8640  154.3490 C   0  0  2  0  0  3  0  0  0  0  0  0
  159.2950  211.6560  155.8810 C   0  0  0  0  0  0  0  0  0  0  0  0
  156.4970  211.5690  155.8610 C   0  0  0  0  0  3  0  0  0  0  0  0
  156.3820  213.6350  157.2600 C   0  0  0  0  0  1  0  0  0  0  0  0
  158.6270  210.6400  155.1720 C   0  0  0  0  0  0  0  0  0  0  0  0
  158.5570  212.6360  156.5510 C   0  0  0  0  0  3  0  0  0  0  0  0
  157.2290  210.5940  155.1780 C   0  0  0  0  0  3  0  0  0  0  0  0
  159.3880  209.5570  154.4610 C   0  0  0  0  0  2  0  0  0  0  0  0
  161.4190  210.4730  155.5740 N   0  0  0  0  0  2  0  0  0  0  0  0
  160.7870  211.7700  155.8270 C   0  0  0  0  0  2  0  0  0  0  0  0
  160.8610  211.9950  153.0430 N   0  0  0  0  0  2  0  0  0  0  0  0
  159.6110  212.0130  152.3000 C   0  0  0  0  0  2  0  0  0  0  0  0
  158.8590  214.3680  152.5050 C   0  0  0  0  0  2  0  0  0  0  0  0
  157.3510  214.3470  152.3550 C   0  0  1  0  0  3  0  0  0  0  0  0
  158.3380  213.1470  150.1320 S   0  0  0  0  0  0  0  0  0  0  0  0
  159.4520  213.3350  151.5640 C   0  0  2  0  0  3  0  0  0  0  0  0
  157.0630  214.2080  150.8760 C   0  0  0  0  0  2  0  0  0  0  0  0
  155.4410  213.4790  153.0600 C   0  0  0  0  0  1  0  0  0  0  0  0
  156.8180  213.2560  153.0460 O   0  0  0  0  0  0  0  0  0  0  0  0
  1  2  1  0  0  0  0
  1  3  1  0  0  0  0
  2  8  1  6  0  0  0
  2  4  1  0  0  0  0
  3  6  1  0  0  0  0
  4  5  1  0  0  0  0
  6  5  1  0  0  0  0
  6 23  1  1  0  0  0
  7  8  1  0  0  0  0
  8  9  2  0  0  0  0
 10 13  1  0  0  0  0
 10 14  1  0  0  0  0
 10  7  1  1  0  0  0
 11 12  1  0  0  0  0
 12 17  1  6  0  0  0
 13 11  1  0  0  0  0
 14 15  1  6  0  0  0
 14 12  1  0  0  0  0
 16 13  2  0  0  0  0
 17 22  1  0  0  0  0
 18 22  1  0  0  0  0
 19 21  1  0  0  0  0
 19 20  1  0  0  0  0
 20 18  1  0  0  0  0
 21 17  1  0  0  0  0
 23 35  1  6  0  0  0
 24 30  1  0  0  0  0
 24 28  1  0  0  0  0
 25 23  1  6  0  0  0
 25 32  1  0  0  0  0
 25 33  1  0  0  0  0
 26 30  2  0  0  0  0
 27 24  2  0  0  0  0
 29 31  2  0  0  0  0
 29 26  1  0  0  0  0
 31 27  1  0  0  0  0
 32 29  1  0  0  0  0
 33 34  1  0  0  0  0
 34 26  1  0  0  0  0
 36 35  1  0  0  0  0
 38 37  1  0  0  0  0
 38 43  1  1  0  0  0
 39 41  1  0  0  0  0
 39 40  1  0  0  0  0
 40 36  1  1  0  0  0
 40 37  1  0  0  0  0
 41 38  1  0  0  0  0
 43 42  1  0  0  0  0
M  END
>  <MODEL>
8

>  <REMARK>
 VINA RESULT:      -3.2      2.493      5.185
  Name = 
  9 active torsions:
  status: ('A' for Active; 'I' for Inactive)
    1  A    between atoms: N_1  and  C_34
    2  A    between atoms: N_1  and  C_35
    3  A    between atoms: N_3  and  C_4
    4  A    between atoms: C_6  and  C_12
    5  A    between atoms: C_8  and  C_34
    6  A    between atoms: N_11  and  C_14
    7  A    between atoms: C_19  and  O_37
    8  A    between atoms: C_32  and  C_35
    9  A    between atoms: C_34  and  C_38
                            x       y       z     vdW  Elec       q    Type
                         _______ _______ _______ _____ _____    ______ ____

>  <TORSDO>
F 9

$$$$
=
 OpenBabel11062410333D

 43 48  0  0  1  0  0  0  0  0999 V2000
  161.9870  206.6730  151.9960 C   0  0  0  0  0  2  0  0  0  0  0  0
  162.4450  207.7720  151.0260 C   0  0  1  0  0  3  0  0  0  0  0  0
  161.8070  205.3430  151.2730 C   0  0  0  0  0  2  0  0  0  0  0  0
  161.9400  207.5850  149.5860 C   0  0  0  0  0  2  0  0  0  0  0  0
  160.6070  206.8360  149.5440 C   0  0  0  0  0  2  0  0  0  0  0  0
  160.7100  205.4470  150.2020 C   0  0  1  0  0  3  0  0  0  0  0  0
  161.8200  209.2980  152.9510 N   0  0  0  0  0  2  0  0  0  0  0  0
  162.0650  209.1170  151.5480 C   0  0  0  0  0  0  0  0  0  0  0  0
  161.9570  210.0800  150.7430 O   0  0  0  0  0  0  0  0  0  0  0  0
  161.4340  210.5500  153.6010 C   0  0  2  0  0  3  0  0  0  0  0  0
  160.3580  210.5890  155.7640 N   0  0  0  0  0  2  0  0  0  0  0  0
  159.2730  210.6470  154.7930 C   0  0  2  0  0  3  0  0  0  0  0  0
  161.5800  210.4720  155.0700 C   0  0  0  0  0  0  0  0  0  0  0  0
  159.9480  210.8510  153.4070 C   0  0  1  0  0  3  0  0  0  0  0  0
  159.8160  212.1710  152.9670 O   0  0  0  0  0  1  0  0  0  0  0  0
  162.6830  210.3380  155.6590 O   0  0  0  0  0  0  0  0  0  0  0  0
  158.3070  211.7010  155.1310 N   0  0  0  0  0  0  0  0  0  0  0  0
  155.9490  212.3500  154.9360 C   0  0  0  0  0  2  0  0  0  0  0  0
  157.2760  212.9490  156.9730 C   0  0  0  0  0  2  0  0  0  0  0  0
  155.8850  212.6330  156.4340 C   0  0  0  0  0  2  0  0  0  0  0  0
  158.2370  211.8260  156.5910 C   0  0  0  0  0  2  0  0  0  0  0  0
  156.9860  211.2600  154.6700 C   0  0  0  0  0  2  0  0  0  0  0  0
  160.8320  204.3120  149.1830 C   0  0  2  0  0  3  0  0  0  0  0  0
  161.1750  199.4110  146.1470 C   0  0  0  0  0  0  0  0  0  0  0  0
  160.4910  202.9330  149.7920 C   0  0  2  0  0  3  0  0  0  0  0  0
  160.2600  201.0860  147.6400 C   0  0  0  0  0  0  0  0  0  0  0  0
  162.3290  199.3390  146.9330 C   0  0  0  0  0  3  0  0  0  0  0  0
  161.0470  198.5650  144.9330 C   0  0  0  0  0  1  0  0  0  0  0  0
  161.4320  201.0310  148.4180 C   0  0  0  0  0  0  0  0  0  0  0  0
  160.1450  200.2880  146.4980 C   0  0  0  0  0  3  0  0  0  0  0  0
  162.4550  200.1440  148.0670 C   0  0  0  0  0  3  0  0  0  0  0  0
  161.5790  201.8560  149.6640 C   0  0  0  0  0  2  0  0  0  0  0  0
  159.1750  202.4400  149.3710 N   0  0  0  0  0  2  0  0  0  0  0  0
  159.1830  202.0800  147.9510 C   0  0  0  0  0  2  0  0  0  0  0  0
  162.1500  204.3380  148.5590 N   0  0  0  0  0  2  0  0  0  0  0  0
  161.9610  204.0970  147.1380 C   0  0  0  0  0  2  0  0  0  0  0  0
  160.4140  205.5820  145.8910 C   0  0  0  0  0  2  0  0  0  0  0  0
  160.3270  205.0210  144.4850 C   0  0  1  0  0  3  0  0  0  0  0  0
  162.9630  205.4520  144.9540 S   0  0  0  0  0  0  0  0  0  0  0  0
  161.8370  205.4160  146.3890 C   0  0  2  0  0  3  0  0  0  0  0  0
  161.5870  205.4510  143.7660 C   0  0  0  0  0  2  0  0  0  0  0  0
  158.9580  203.3160  144.1410 C   0  0  0  0  0  1  0  0  0  0  0  0
  160.2610  203.6260  144.5310 O   0  0  0  0  0  0  0  0  0  0  0  0
  2  8  1  1  0  0  0
  2  1  1  0  0  0  0
  3  1  1  0  0  0  0
  4  2  1  0  0  0  0
  5  4  1  0  0  0  0
  5  6  1  0  0  0  0
  6 23  1  6  0  0  0
  6  3  1  0  0  0  0
  8  7  1  0  0  0  0
  9  8  2  0  0  0  0
 10  7  1  6  0  0  0
 10 13  1  0  0  0  0
 12 17  1  1  0  0  0
 12 11  1  0  0  0  0
 13 16  2  0  0  0  0
 13 11  1  0  0  0  0
 14 15  1  1  0  0  0
 14 10  1  0  0  0  0
 14 12  1  0  0  0  0
 17 21  1  0  0  0  0
 18 20  1  0  0  0  0
 20 19  1  0  0  0  0
 21 19  1  0  0  0  0
 22 18  1  0  0  0  0
 22 17  1  0  0  0  0
 23 35  1  1  0  0  0
 24 30  2  0  0  0  0
 24 27  1  0  0  0  0
 25 23  1  6  0  0  0
 26 34  1  0  0  0  0
 26 29  2  0  0  0  0
 27 31  2  0  0  0  0
 28 24  1  0  0  0  0
 29 32  1  0  0  0  0
 30 26  1  0  0  0  0
 31 29  1  0  0  0  0
 32 25  1  0  0  0  0
 33 25  1  0  0  0  0
 34 33  1  0  0  0  0
 36 35  1  0  0  0  0
 37 40  1  0  0  0  0
 38 43  1  1  0  0  0
 38 37  1  0  0  0  0
 39 40  1  0  0  0  0
 40 36  1  6  0  0  0
 41 38  1  0  0  0  0
 41 39  1  0  0  0  0
 42 43  1  0  0  0  0
M  END
>  <MODEL>
9

>  <REMARK>
 VINA RESULT:      -3.1      4.026     11.215
  Name = 
  9 active torsions:
  status: ('A' for Active; 'I' for Inactive)
    1  A    between atoms: N_1  and  C_34
    2  A    between atoms: N_1  and  C_35
    3  A    between atoms: N_3  and  C_4
    4  A    between atoms: C_6  and  C_12
    5  A    between atoms: C_8  and  C_34
    6  A    between atoms: N_11  and  C_14
    7  A    between atoms: C_19  and  O_37
    8  A    between atoms: C_32  and  C_35
    9  A    between atoms: C_34  and  C_38
                            x       y       z     vdW  Elec       q    Type
                         _______ _______ _______ _____ _____    ______ ____

>  <TORSDO>
F 9

$$$$
