=
 OpenBabel11062408003D

 34 37  0  0  1  0  0  0  0  0999 V2000
  162.3150  208.8730  149.7620 C   0  0  2  0  0  3  0  0  0  0  0  0
  160.6850  207.9650  153.0320 C   0  0  0  0  0  2  0  0  0  0  0  0
  161.4010  206.2450  151.4560 N   0  0  0  0  0  0  0  0  0  0  0  0
  160.9230  203.8230  150.9670 C   0  0  0  0  0  0  0  0  0  0  0  0
  162.0580  210.4480  151.4760 C   0  0  0  0  0  2  0  0  0  0  0  0
  160.7790  210.1720  152.2480 C   0  0  0  0  0  2  0  0  0  0  0  0
  161.1500  204.6610  153.1690 O   0  0  0  0  0  0  0  0  0  0  0  0
  161.8700  207.2480  152.4080 C   0  0  0  0  0  2  0  0  0  0  0  0
  161.8430  210.2170  150.0560 N   0  0  0  0  0  2  0  0  0  0  0  0
  161.5550  206.4980  150.0100 C   0  0  1  0  0  3  0  0  0  0  0  0
  163.0190  208.8770  148.5580 O   0  0  0  0  0  1  0  0  0  0  0  0
  161.0650  209.3220  153.3940 N   0  0  0  0  0  2  0  0  0  0  0  0
  160.7780  204.1070  149.6740 C   0  0  0  0  0  3  0  0  0  0  0  0
  160.7130  205.5190  149.1710 C   0  0  2  0  0  3  0  0  0  0  0  0
  161.1500  204.9100  151.9320 C   0  0  0  0  0  0  0  0  0  0  0  0
  161.1330  207.9240  149.6560 C   0  0  0  0  0  2  0  0  0  0  0  0
  162.6670  205.0990  145.9300 C   0  0  0  0  0  0  0  0  0  0  0  0
  161.7710  205.6440  145.0050 C   0  0  0  0  0  3  0  0  0  0  0  0
  161.0950  205.5590  147.7220 C   0  0  0  0  0  0  0  0  0  0  0  0
  160.5390  206.1460  145.4350 C   0  0  0  0  0  3  0  0  0  0  0  0
  162.3310  205.0560  147.2850 C   0  0  0  0  0  3  0  0  0  0  0  0
  160.2010  206.1030  146.7910 C   0  0  0  0  0  3  0  0  0  0  0  0
  163.8590  204.6130  145.5120 F   0  0  0  0  0  0  0  0  0  0  0  0
  160.9910  202.3940  151.3880 C   0  0  0  0  0  2  0  0  0  0  0  0
  161.8120  201.6120  150.3820 C   0  0  0  0  0  2  0  0  0  0  0  0
  160.8930  200.8500  149.4500 C   0  0  0  0  0  2  0  0  0  0  0  0
  161.6990  200.2330  148.3140 C   0  0  0  0  0  2  0  0  0  0  0  0
  161.4170  198.4650  146.1200 O   0  0  0  0  0  0  0  0  0  0  0  0
  161.1470  200.6170  147.0180 N   0  0  0  0  0  0  0  0  0  0  0  0
  161.0370  199.6550  145.9490 C   0  0  0  0  0  0  0  0  0  0  0  0
  159.6750  201.3120  144.6770 C   0  0  0  0  0  2  0  0  0  0  0  0
  160.4040  202.3930  145.4570 C   0  0  0  0  0  2  0  0  0  0  0  0
  160.5570  201.9520  146.9090 C   0  0  0  0  0  2  0  0  0  0  0  0
  160.5460  200.0670  144.5950 C   0  0  0  0  0  2  0  0  0  0  0  0
  1 11  1  6  0  0  0
  1  9  1  0  0  0  0
  2 12  1  0  0  0  0
  3 15  1  0  0  0  0
  3  8  1  0  0  0  0
  4 24  1  0  0  0  0
  4 15  1  0  0  0  0
  5  6  1  0  0  0  0
  6 12  1  0  0  0  0
  8  2  1  0  0  0  0
  9  5  1  0  0  0  0
 10 16  1  1  0  0  0
 10  3  1  0  0  0  0
 13  4  2  0  0  0  0
 14 19  1  6  0  0  0
 14 13  1  0  0  0  0
 14 10  1  0  0  0  0
 15  7  2  0  0  0  0
 16  1  1  0  0  0  0
 17 21  1  0  0  0  0
 18 20  1  0  0  0  0
 18 17  2  0  0  0  0
 20 22  2  0  0  0  0
 21 19  2  0  0  0  0
 22 19  1  0  0  0  0
 23 17  1  0  0  0  0
 25 24  1  0  0  0  0
 26 25  1  0  0  0  0
 27 26  1  0  0  0  0
 29 27  1  0  0  0  0
 30 28  2  0  0  0  0
 30 29  1  0  0  0  0
 31 32  1  0  0  0  0
 32 33  1  0  0  0  0
 33 29  1  0  0  0  0
 34 31  1  0  0  0  0
 34 30  1  0  0  0  0
M  END
>  <MODEL>
1

>  <REMARK>
 VINA RESULT:      -8.1      0.000      0.000
  Name = 
  6 active torsions:
  status: ('A' for Active; 'I' for Inactive)
    1  A    between atoms: C_3  and  N_13
    2  A    between atoms: C_3  and  C_17
    3  A    between atoms: C_5  and  C_18
    4  A    between atoms: C_12  and  C_28
    5  A    between atoms: C_17  and  C_29
    6  A    between atoms: C_18  and  C_29
                            x       y       z     vdW  Elec       q    Type
                         _______ _______ _______ _____ _____    ______ ____

>  <TORSDO>
F 6

$$$$
=
 OpenBabel11062408003D

 34 37  0  0  1  0  0  0  0  0999 V2000
  161.7540  206.2020  152.9050 C   0  0  2  0  0  3  0  0  0  0  0  0
  161.0990  206.0340  149.2000 C   0  0  0  0  0  2  0  0  0  0  0  0
  161.8430  208.1020  150.2610 N   0  0  0  0  0  0  0  0  0  0  0  0
  161.8410  210.5720  149.7770 C   0  0  0  0  0  0  0  0  0  0  0  0
  161.5080  204.1510  151.8000 C   0  0  0  0  0  2  0  0  0  0  0  0
  160.5170  204.2920  150.6570 C   0  0  0  0  0  2  0  0  0  0  0  0
  162.3270  208.9480  148.1260 O   0  0  0  0  0  0  0  0  0  0  0  0
  162.2590  206.7610  149.8590 C   0  0  0  0  0  2  0  0  0  0  0  0
  161.0580  204.9250  152.9470 N   0  0  0  0  0  2  0  0  0  0  0  0
  161.6280  208.3920  151.6920 C   0  0  1  0  0  3  0  0  0  0  0  0
  162.1690  206.5520  154.1890 O   0  0  0  0  0  1  0  0  0  0  0  0
  161.2240  204.6020  149.4230 N   0  0  0  0  0  2  0  0  0  0  0  0
  161.3670  210.8170  150.9970 C   0  0  0  0  0  3  0  0  0  0  0  0
  160.8750  209.7200  151.8950 C   0  0  2  0  0  3  0  0  0  0  0  0
  162.0100  209.1830  149.3240 C   0  0  0  0  0  0  0  0  0  0  0  0
  160.8260  207.2750  152.3610 C   0  0  0  0  0  2  0  0  0  0  0  0
  162.1750  210.7240  155.3310 C   0  0  0  0  0  0  0  0  0  0  0  0
  160.9800  211.0310  155.9900 C   0  0  0  0  0  3  0  0  0  0  0  0
  160.9250  210.1730  153.3230 C   0  0  0  0  0  0  0  0  0  0  0  0
  159.7600  210.9090  155.3180 C   0  0  0  0  0  3  0  0  0  0  0  0
  162.1490  210.2970  154.0000 C   0  0  0  0  0  3  0  0  0  0  0  0
  159.7330  210.4820  153.9880 C   0  0  0  0  0  3  0  0  0  0  0  0
  163.3570  210.8430  155.9810 F   0  0  0  0  0  0  0  0  0  0  0  0
  162.3210  211.7150  148.9480 C   0  0  0  0  0  2  0  0  0  0  0  0
  161.2400  212.7760  148.8790 C   0  0  0  0  0  2  0  0  0  0  0  0
  160.6740  212.8430  147.4760 C   0  0  0  0  0  2  0  0  0  0  0  0
  161.7680  213.2350  146.4920 C   0  0  0  0  0  2  0  0  0  0  0  0
  163.5530  213.2100  144.2930 O   0  0  0  0  0  0  0  0  0  0  0  0
  161.3790  212.9050  145.1240 N   0  0  0  0  0  0  0  0  0  0  0  0
  162.3500  212.9150  144.0580 C   0  0  0  0  0  0  0  0  0  0  0  0
  160.6520  211.8390  142.5810 C   0  0  0  0  0  2  0  0  0  0  0  0
  159.5940  212.4900  143.4550 C   0  0  0  0  0  2  0  0  0  0  0  0
  160.0200  212.4000  144.9160 C   0  0  0  0  0  2  0  0  0  0  0  0
  161.9360  212.6550  142.6410 C   0  0  0  0  0  2  0  0  0  0  0  0
  1  9  1  0  0  0  0
  1 11  1  1  0  0  0
  2 12  1  0  0  0  0
  2  8  1  0  0  0  0
  3 10  1  0  0  0  0
  4 13  2  0  0  0  0
  5  9  1  0  0  0  0
  6  5  1  0  0  0  0
  7 15  2  0  0  0  0
  8  3  1  0  0  0  0
 10 14  1  0  0  0  0
 10 16  1  6  0  0  0
 12  6  1  0  0  0  0
 13 14  1  0  0  0  0
 14 19  1  1  0  0  0
 15  4  1  0  0  0  0
 15  3  1  0  0  0  0
 16  1  1  0  0  0  0
 17 23  1  0  0  0  0
 17 18  1  0  0  0  0
 19 22  2  0  0  0  0
 19 21  1  0  0  0  0
 20 18  2  0  0  0  0
 21 17  2  0  0  0  0
 22 20  1  0  0  0  0
 24  4  1  0  0  0  0
 25 24  1  0  0  0  0
 26 25  1  0  0  0  0
 27 26  1  0  0  0  0
 29 27  1  0  0  0  0
 30 28  2  0  0  0  0
 30 29  1  0  0  0  0
 31 34  1  0  0  0  0
 31 32  1  0  0  0  0
 32 33  1  0  0  0  0
 33 29  1  0  0  0  0
 34 30  1  0  0  0  0
M  END
>  <MODEL>
2

>  <REMARK>
 VINA RESULT:      -7.3      4.279      9.048
  Name = 
  6 active torsions:
  status: ('A' for Active; 'I' for Inactive)
    1  A    between atoms: C_3  and  N_13
    2  A    between atoms: C_3  and  C_17
    3  A    between atoms: C_5  and  C_18
    4  A    between atoms: C_12  and  C_28
    5  A    between atoms: C_17  and  C_29
    6  A    between atoms: C_18  and  C_29
                            x       y       z     vdW  Elec       q    Type
                         _______ _______ _______ _____ _____    ______ ____

>  <TORSDO>
F 6

$$$$
=
 OpenBabel11062408003D

 34 37  0  0  1  0  0  0  0  0999 V2000
  159.9490  213.1680  150.3010 C   0  0  2  0  0  3  0  0  0  0  0  0
  162.7340  211.7690  148.1870 C   0  0  0  0  0  2  0  0  0  0  0  0
  161.6510  210.4190  149.9070 N   0  0  0  0  0  0  0  0  0  0  0  0
  162.1350  208.3520  151.2600 C   0  0  0  0  0  0  0  0  0  0  0  0
  160.6700  214.2560  148.3550 C   0  0  0  0  0  2  0  0  0  0  0  0
  162.1620  214.0430  148.1620 C   0  0  0  0  0  2  0  0  0  0  0  0
  162.6510  208.5210  148.9570 O   0  0  0  0  0  0  0  0  0  0  0  0
  161.4730  211.0240  148.5900 C   0  0  0  0  0  2  0  0  0  0  0  0
  160.3730  214.4530  149.7660 N   0  0  0  0  0  2  0  0  0  0  0  0
  160.9590  211.0070  151.0710 C   0  0  1  0  0  3  0  0  0  0  0  0
  158.8580  213.3510  151.1500 O   0  0  0  0  0  1  0  0  0  0  0  0
  162.3910  212.8820  147.3150 N   0  0  0  0  0  2  0  0  0  0  0  0
  161.7740  208.9880  152.3720 C   0  0  0  0  0  3  0  0  0  0  0  0
  161.5230  210.4680  152.3990 C   0  0  2  0  0  3  0  0  0  0  0  0
  162.1780  209.0810  149.9830 C   0  0  0  0  0  0  0  0  0  0  0  0
  161.0920  212.5310  151.0730 C   0  0  0  0  0  2  0  0  0  0  0  0
  158.4320  211.1700  154.5090 C   0  0  0  0  0  0  0  0  0  0  0  0
  159.0130  211.4520  155.7490 C   0  0  0  0  0  3  0  0  0  0  0  0
  160.6370  210.8120  153.5580 C   0  0  0  0  0  0  0  0  0  0  0  0
  160.4030  211.4140  155.8950 C   0  0  0  0  0  3  0  0  0  0  0  0
  159.2410  210.8510  153.4150 C   0  0  0  0  0  3  0  0  0  0  0  0
  161.2130  211.0940  154.8020 C   0  0  0  0  0  3  0  0  0  0  0  0
  157.0860  211.2060  154.3680 F   0  0  0  0  0  0  0  0  0  0  0  0
  162.3560  206.8780  151.3130 C   0  0  0  0  0  2  0  0  0  0  0  0
  161.2470  206.2330  152.1210 C   0  0  0  0  0  2  0  0  0  0  0  0
  160.8850  204.8910  151.5180 C   0  0  0  0  0  2  0  0  0  0  0  0
  161.0460  204.9400  150.0050 C   0  0  0  0  0  2  0  0  0  0  0  0
  161.6720  204.3230  147.3120 O   0  0  0  0  0  0  0  0  0  0  0  0
  160.9620  203.6000  149.4290 N   0  0  0  0  0  0  0  0  0  0  0  0
  161.2990  203.3690  148.0470 C   0  0  0  0  0  0  0  0  0  0  0  0
  161.1930  200.9170  148.4940 C   0  0  0  0  0  2  0  0  0  0  0  0
  160.2210  201.2420  149.6140 C   0  0  0  0  0  2  0  0  0  0  0  0
  160.6960  202.4920  150.3480 C   0  0  0  0  0  2  0  0  0  0  0  0
  161.1370  202.0100  147.4360 C   0  0  0  0  0  2  0  0  0  0  0  0
  1 16  1  0  0  0  0
  1 11  1  1  0  0  0
  2  8  1  0  0  0  0
  3 15  1  0  0  0  0
  3 10  1  0  0  0  0
  4 24  1  0  0  0  0
  4 13  2  0  0  0  0
  5  9  1  0  0  0  0
  6  5  1  0  0  0  0
  7 15  2  0  0  0  0
  8  3  1  0  0  0  0
  9  1  1  0  0  0  0
 10 16  1  1  0  0  0
 10 14  1  0  0  0  0
 12  6  1  0  0  0  0
 12  2  1  0  0  0  0
 13 14  1  0  0  0  0
 14 19  1  1  0  0  0
 15  4  1  0  0  0  0
 17 18  1  0  0  0  0
 18 20  2  0  0  0  0
 19 22  2  0  0  0  0
 21 19  1  0  0  0  0
 21 17  2  0  0  0  0
 22 20  1  0  0  0  0
 23 17  1  0  0  0  0
 24 25  1  0  0  0  0
 26 25  1  0  0  0  0
 27 26  1  0  0  0  0
 28 30  2  0  0  0  0
 29 27  1  0  0  0  0
 29 33  1  0  0  0  0
 30 29  1  0  0  0  0
 31 32  1  0  0  0  0
 32 33  1  0  0  0  0
 34 30  1  0  0  0  0
 34 31  1  0  0  0  0
M  END
>  <MODEL>
3

>  <REMARK>
 VINA RESULT:      -7.1      3.618      6.702
  Name = 
  6 active torsions:
  status: ('A' for Active; 'I' for Inactive)
    1  A    between atoms: C_3  and  N_13
    2  A    between atoms: C_3  and  C_17
    3  A    between atoms: C_5  and  C_18
    4  A    between atoms: C_12  and  C_28
    5  A    between atoms: C_17  and  C_29
    6  A    between atoms: C_18  and  C_29
                            x       y       z     vdW  Elec       q    Type
                         _______ _______ _______ _____ _____    ______ ____

>  <TORSDO>
F 6

$$$$
=
 OpenBabel11062408003D

 34 37  0  0  1  0  0  0  0  0999 V2000
  161.6870  206.2380  152.9980 C   0  0  2  0  0  3  0  0  0  0  0  0
  161.1490  205.9150  149.2850 C   0  0  0  0  0  2  0  0  0  0  0  0
  161.8900  208.0180  150.2770 N   0  0  0  0  0  0  0  0  0  0  0  0
  161.9410  210.4630  149.6850 C   0  0  0  0  0  0  0  0  0  0  0  0
  161.4460  204.1440  151.9770 C   0  0  0  0  0  2  0  0  0  0  0  0
  160.4940  204.2470  150.7970 C   0  0  0  0  0  2  0  0  0  0  0  0
  162.4550  208.7610  148.1240 O   0  0  0  0  0  0  0  0  0  0  0  0
  162.2980  206.6550  149.9490 C   0  0  0  0  0  2  0  0  0  0  0  0
  160.9710  204.9740  153.0740 N   0  0  0  0  0  2  0  0  0  0  0  0
  161.6330  208.3740  151.6870 C   0  0  1  0  0  3  0  0  0  0  0  0
  162.0660  206.6400  154.2790 O   0  0  0  0  0  1  0  0  0  0  0  0
  161.2460  204.4930  149.5750 N   0  0  0  0  0  2  0  0  0  0  0  0
  161.4320  210.7690  150.8770 C   0  0  0  0  0  3  0  0  0  0  0  0
  160.8950  209.7200  151.8070 C   0  0  2  0  0  3  0  0  0  0  0  0
  162.1040  209.0530  149.3000 C   0  0  0  0  0  0  0  0  0  0  0  0
  160.7930  207.2980  152.3770 C   0  0  0  0  0  2  0  0  0  0  0  0
  162.0820  210.7530  155.2740 C   0  0  0  0  0  0  0  0  0  0  0  0
  160.8890  211.2130  155.8390 C   0  0  0  0  0  3  0  0  0  0  0  0
  160.9050  210.2350  153.2140 C   0  0  0  0  0  0  0  0  0  0  0  0
  159.7050  211.1850  155.0950 C   0  0  0  0  0  3  0  0  0  0  0  0
  162.0920  210.2650  153.9640 C   0  0  0  0  0  3  0  0  0  0  0  0
  159.7140  210.6980  153.7850 C   0  0  0  0  0  3  0  0  0  0  0  0
  163.2280  210.7820  155.9950 F   0  0  0  0  0  0  0  0  0  0  0  0
  162.4650  211.5620  148.8230 C   0  0  0  0  0  2  0  0  0  0  0  0
  161.3980  211.9710  147.8270 C   0  0  0  0  0  2  0  0  0  0  0  0
  161.3610  213.4810  147.7040 C   0  0  0  0  0  2  0  0  0  0  0  0
  160.9230  214.1000  149.0250 C   0  0  0  0  0  2  0  0  0  0  0  0
  159.8260  213.7140  151.6070 O   0  0  0  0  0  0  0  0  0  0  0  0
  159.5120  213.8270  149.2830 N   0  0  0  0  0  0  0  0  0  0  0  0
  159.0310  213.6430  150.6300 C   0  0  0  0  0  0  0  0  0  0  0  0
  156.7000  213.7330  149.7480 C   0  0  0  0  0  2  0  0  0  0  0  0
  157.2630  213.2290  148.4300 C   0  0  0  0  0  2  0  0  0  0  0  0
  158.5910  213.9240  148.1490 C   0  0  0  0  0  2  0  0  0  0  0  0
  157.6000  213.2850  150.8910 C   0  0  0  0  0  2  0  0  0  0  0  0
  1  9  1  0  0  0  0
  1 11  1  1  0  0  0
  2 12  1  0  0  0  0
  2  8  1  0  0  0  0
  3 10  1  0  0  0  0
  4 13  2  0  0  0  0
  5  9  1  0  0  0  0
  6  5  1  0  0  0  0
  7 15  2  0  0  0  0
  8  3  1  0  0  0  0
 10 14  1  0  0  0  0
 10 16  1  6  0  0  0
 12  6  1  0  0  0  0
 13 14  1  0  0  0  0
 14 19  1  1  0  0  0
 15  4  1  0  0  0  0
 15  3  1  0  0  0  0
 16  1  1  0  0  0  0
 17 18  1  0  0  0  0
 17 23  1  0  0  0  0
 19 22  2  0  0  0  0
 19 21  1  0  0  0  0
 20 18  2  0  0  0  0
 21 17  2  0  0  0  0
 22 20  1  0  0  0  0
 24  4  1  0  0  0  0
 25 24  1  0  0  0  0
 26 25  1  0  0  0  0
 26 27  1  0  0  0  0
 27 29  1  0  0  0  0
 29 30  1  0  0  0  0
 30 34  1  0  0  0  0
 30 28  2  0  0  0  0
 31 34  1  0  0  0  0
 32 31  1  0  0  0  0
 33 32  1  0  0  0  0
 33 29  1  0  0  0  0
M  END
>  <MODEL>
4

>  <REMARK>
 VINA RESULT:      -7.0      4.289      9.548
  Name = 
  6 active torsions:
  status: ('A' for Active; 'I' for Inactive)
    1  A    between atoms: C_3  and  N_13
    2  A    between atoms: C_3  and  C_17
    3  A    between atoms: C_5  and  C_18
    4  A    between atoms: C_12  and  C_28
    5  A    between atoms: C_17  and  C_29
    6  A    between atoms: C_18  and  C_29
                            x       y       z     vdW  Elec       q    Type
                         _______ _______ _______ _____ _____    ______ ____

>  <TORSDO>
F 6

$$$$
=
 OpenBabel11062408003D

 34 37  0  0  1  0  0  0  0  0999 V2000
  160.6950  205.1700  151.0000 C   0  0  2  0  0  3  0  0  0  0  0  0
  161.8840  208.0460  153.1200 C   0  0  0  0  0  2  0  0  0  0  0  0
  161.3560  208.3500  150.7570 N   0  0  0  0  0  0  0  0  0  0  0  0
  161.8670  209.9810  148.9090 C   0  0  0  0  0  0  0  0  0  0  0  0
  160.7480  205.0230  153.3380 C   0  0  0  0  0  2  0  0  0  0  0  0
  161.9150  205.8290  153.8830 C   0  0  0  0  0  2  0  0  0  0  0  0
  161.3690  210.6680  151.1180 O   0  0  0  0  0  0  0  0  0  0  0  0
  160.7800  208.1150  152.0780 C   0  0  0  0  0  2  0  0  0  0  0  0
  161.1410  204.3440  152.1120 N   0  0  0  0  0  2  0  0  0  0  0  0
  161.3910  207.2450  149.7790 C   0  0  1  0  0  3  0  0  0  0  0  0
  160.1510  204.3600  150.0040 O   0  0  0  0  0  1  0  0  0  0  0  0
  161.4760  207.1770  154.2130 N   0  0  0  0  0  2  0  0  0  0  0  0
  162.1790  208.9720  148.0970 C   0  0  0  0  0  3  0  0  0  0  0  0
  162.3240  207.5640  148.5950 C   0  0  2  0  0  3  0  0  0  0  0  0
  161.5300  209.7090  150.3150 C   0  0  0  0  0  0  0  0  0  0  0  0
  161.8710  205.9490  150.4360 C   0  0  0  0  0  2  0  0  0  0  0  0
  160.8020  205.7250  145.6290 C   0  0  0  0  0  0  0  0  0  0  0  0
  161.8080  204.7950  145.3460 C   0  0  0  0  0  3  0  0  0  0  0  0
  162.1300  206.6020  147.4620 C   0  0  0  0  0  0  0  0  0  0  0  0
  162.9720  204.7670  146.1190 C   0  0  0  0  0  3  0  0  0  0  0  0
  160.9620  206.6270  146.6830 C   0  0  0  0  0  3  0  0  0  0  0  0
  163.1340  205.6700  147.1740 C   0  0  0  0  0  3  0  0  0  0  0  0
  159.6750  205.7520  144.8790 F   0  0  0  0  0  0  0  0  0  0  0  0
  161.7310  211.3510  148.3360 C   0  0  0  0  0  2  0  0  0  0  0  0
  163.1070  211.9620  148.1610 C   0  0  0  0  0  2  0  0  0  0  0  0
  163.0350  213.1240  147.1920 C   0  0  0  0  0  2  0  0  0  0  0  0
  161.5970  213.3340  146.7390 C   0  0  0  0  0  2  0  0  0  0  0  0
  159.2270  212.2680  145.6130 O   0  0  0  0  0  0  0  0  0  0  0  0
  161.4420  212.9930  145.3280 N   0  0  0  0  0  0  0  0  0  0  0  0
  160.2000  212.4530  144.8320 C   0  0  0  0  0  0  0  0  0  0  0  0
  161.0630  212.7570  142.5110 C   0  0  0  0  0  2  0  0  0  0  0  0
  162.4580  212.6270  143.0970 C   0  0  0  0  0  2  0  0  0  0  0  0
  162.5230  213.3810  144.4210 C   0  0  0  0  0  2  0  0  0  0  0  0
  160.0660  212.0280  143.4010 C   0  0  0  0  0  2  0  0  0  0  0  0
  1 11  1  6  0  0  0
  1  9  1  0  0  0  0
  2 12  1  0  0  0  0
  3  8  1  0  0  0  0
  4 15  1  0  0  0  0
  5  6  1  0  0  0  0
  6 12  1  0  0  0  0
  8  2  1  0  0  0  0
  9  5  1  0  0  0  0
 10 16  1  1  0  0  0
 10  3  1  0  0  0  0
 13 14  1  0  0  0  0
 13  4  2  0  0  0  0
 14 19  1  6  0  0  0
 14 10  1  0  0  0  0
 15  3  1  0  0  0  0
 15  7  2  0  0  0  0
 16  1  1  0  0  0  0
 17 21  1  0  0  0  0
 18 17  2  0  0  0  0
 18 20  1  0  0  0  0
 20 22  2  0  0  0  0
 21 19  2  0  0  0  0
 22 19  1  0  0  0  0
 23 17  1  0  0  0  0
 24  4  1  0  0  0  0
 25 24  1  0  0  0  0
 26 25  1  0  0  0  0
 27 26  1  0  0  0  0
 29 27  1  0  0  0  0
 30 29  1  0  0  0  0
 30 28  2  0  0  0  0
 31 32  1  0  0  0  0
 31 34  1  0  0  0  0
 32 33  1  0  0  0  0
 33 29  1  0  0  0  0
 34 30  1  0  0  0  0
M  END
>  <MODEL>
5

>  <REMARK>
 VINA RESULT:      -6.5      3.656      7.574
  Name = 
  6 active torsions:
  status: ('A' for Active; 'I' for Inactive)
    1  A    between atoms: C_3  and  N_13
    2  A    between atoms: C_3  and  C_17
    3  A    between atoms: C_5  and  C_18
    4  A    between atoms: C_12  and  C_28
    5  A    between atoms: C_17  and  C_29
    6  A    between atoms: C_18  and  C_29
                            x       y       z     vdW  Elec       q    Type
                         _______ _______ _______ _____ _____    ______ ____

>  <TORSDO>
F 6

$$$$
=
 OpenBabel11062408003D

 34 37  0  0  1  0  0  0  0  0999 V2000
  160.3750  207.3720  155.1940 C   0  0  2  0  0  3  0  0  0  0  0  0
  162.2140  210.5350  154.3030 C   0  0  0  0  0  2  0  0  0  0  0  0
  161.4510  208.9870  152.5770 N   0  0  0  0  0  0  0  0  0  0  0  0
  161.9590  208.4490  150.1720 C   0  0  0  0  0  0  0  0  0  0  0  0
  160.6920  209.0830  156.7620 C   0  0  0  0  0  2  0  0  0  0  0  0
  162.0210  209.7770  156.5130 C   0  0  0  0  0  2  0  0  0  0  0  0
  161.8400  210.6680  150.9870 O   0  0  0  0  0  0  0  0  0  0  0  0
  161.0130  209.9740  153.5600 C   0  0  0  0  0  2  0  0  0  0  0  0
  160.8310  207.6510  156.5480 N   0  0  0  0  0  2  0  0  0  0  0  0
  161.2070  207.5540  152.8370 C   0  0  1  0  0  3  0  0  0  0  0  0
  159.6030  206.2110  155.1890 O   0  0  0  0  0  1  0  0  0  0  0  0
  161.8230  210.9300  155.6470 N   0  0  0  0  0  2  0  0  0  0  0  0
  162.0220  207.1530  150.4690 C   0  0  0  0  0  3  0  0  0  0  0  0
  162.0230  206.6590  151.8860 C   0  0  2  0  0  3  0  0  0  0  0  0
  161.7620  209.4350  151.2450 C   0  0  0  0  0  0  0  0  0  0  0  0
  161.5720  207.1900  154.2760 C   0  0  0  0  0  2  0  0  0  0  0  0
  162.0210  202.8520  151.9910 C   0  0  0  0  0  0  0  0  0  0  0  0
  160.6490  202.5860  152.0140 C   0  0  0  0  0  3  0  0  0  0  0  0
  161.5570  205.2350  151.9280 C   0  0  0  0  0  0  0  0  0  0  0  0
  159.7310  203.6410  151.9950 C   0  0  0  0  0  3  0  0  0  0  0  0
  162.4760  204.1730  151.9480 C   0  0  0  0  0  3  0  0  0  0  0  0
  160.1840  204.9630  151.9520 C   0  0  0  0  0  3  0  0  0  0  0  0
  162.9090  201.8310  152.0110 F   0  0  0  0  0  0  0  0  0  0  0  0
  161.9520  208.8600  148.7380 C   0  0  0  0  0  2  0  0  0  0  0  0
  162.4750  207.7210  147.8860 C   0  0  0  0  0  2  0  0  0  0  0  0
  161.3230  206.8500  147.4290 C   0  0  0  0  0  2  0  0  0  0  0  0
  161.8040  205.8640  146.3720 C   0  0  0  0  0  2  0  0  0  0  0  0
  161.2590  203.7930  144.5190 O   0  0  0  0  0  0  0  0  0  0  0  0
  161.4690  204.4940  146.7490 N   0  0  0  0  0  0  0  0  0  0  0  0
  161.2050  203.4950  145.7430 C   0  0  0  0  0  0  0  0  0  0  0  0
  161.2530  201.7610  147.5350 C   0  0  0  0  0  2  0  0  0  0  0  0
  160.8320  202.8570  148.4990 C   0  0  0  0  0  2  0  0  0  0  0  0
  161.5860  204.1400  148.1650 C   0  0  0  0  0  2  0  0  0  0  0  0
  160.7850  202.1100  146.1290 C   0  0  0  0  0  2  0  0  0  0  0  0
  1 11  1  1  0  0  0
  1  9  1  0  0  0  0
  2 12  1  0  0  0  0
  3 10  1  0  0  0  0
  3  8  1  0  0  0  0
  4 13  2  0  0  0  0
  4 15  1  0  0  0  0
  6  5  1  0  0  0  0
  7 15  2  0  0  0  0
  8  2  1  0  0  0  0
  9  5  1  0  0  0  0
 10 16  1  1  0  0  0
 12  6  1  0  0  0  0
 13 14  1  0  0  0  0
 14 19  1  6  0  0  0
 14 10  1  0  0  0  0
 15  3  1  0  0  0  0
 16  1  1  0  0  0  0
 17 23  1  0  0  0  0
 17 18  1  0  0  0  0
 19 21  1  0  0  0  0
 19 22  2  0  0  0  0
 20 18  2  0  0  0  0
 21 17  2  0  0  0  0
 22 20  1  0  0  0  0
 24  4  1  0  0  0  0
 25 24  1  0  0  0  0
 26 25  1  0  0  0  0
 27 29  1  0  0  0  0
 27 26  1  0  0  0  0
 28 30  2  0  0  0  0
 29 33  1  0  0  0  0
 30 34  1  0  0  0  0
 30 29  1  0  0  0  0
 31 32  1  0  0  0  0
 33 32  1  0  0  0  0
 34 31  1  0  0  0  0
M  END
>  <MODEL>
6

>  <REMARK>
 VINA RESULT:      -6.5      2.526      5.179
  Name = 
  6 active torsions:
  status: ('A' for Active; 'I' for Inactive)
    1  A    between atoms: C_3  and  N_13
    2  A    between atoms: C_3  and  C_17
    3  A    between atoms: C_5  and  C_18
    4  A    between atoms: C_12  and  C_28
    5  A    between atoms: C_17  and  C_29
    6  A    between atoms: C_18  and  C_29
                            x       y       z     vdW  Elec       q    Type
                         _______ _______ _______ _____ _____    ______ ____

>  <TORSDO>
F 6

$$$$
=
 OpenBabel11062408003D

 34 37  0  0  1  0  0  0  0  0999 V2000
  161.4790  202.9110  150.6870 C   0  0  2  0  0  3  0  0  0  0  0  0
  160.8580  203.5740  147.0320 C   0  0  0  0  0  2  0  0  0  0  0  0
  161.7290  205.3160  148.5040 N   0  0  0  0  0  0  0  0  0  0  0  0
  161.9020  207.8260  148.5530 C   0  0  0  0  0  0  0  0  0  0  0  0
  161.1080  201.1610  149.1740 C   0  0  0  0  0  2  0  0  0  0  0  0
  160.1420  201.6080  148.0890 C   0  0  0  0  0  2  0  0  0  0  0  0
  162.2950  206.5570  146.5940 O   0  0  0  0  0  0  0  0  0  0  0  0
  162.0570  204.0640  147.8270 C   0  0  0  0  0  2  0  0  0  0  0  0
  160.6980  201.7050  150.4600 N   0  0  0  0  0  2  0  0  0  0  0  0
  161.5170  205.3110  149.9650 C   0  0  1  0  0  3  0  0  0  0  0  0
  161.9020  202.9530  152.0150 O   0  0  0  0  0  1  0  0  0  0  0  0
  160.8830  202.1220  146.9470 N   0  0  0  0  0  2  0  0  0  0  0  0
  161.4310  207.8400  149.7980 C   0  0  0  0  0  3  0  0  0  0  0  0
  160.8550  206.6150  150.4460 C   0  0  2  0  0  3  0  0  0  0  0  0
  161.9810  206.5550  147.8160 C   0  0  0  0  0  0  0  0  0  0  0  0
  160.6330  204.1360  150.3840 C   0  0  0  0  0  2  0  0  0  0  0  0
  160.8740  208.1160  153.9450 C   0  0  0  0  0  0  0  0  0  0  0  0
  161.0340  206.9690  154.7280 C   0  0  0  0  0  3  0  0  0  0  0  0
  160.9180  206.7520  151.9370 C   0  0  0  0  0  0  0  0  0  0  0  0
  161.1360  205.7150  154.1180 C   0  0  0  0  0  3  0  0  0  0  0  0
  160.8160  208.0100  152.5530 C   0  0  0  0  0  3  0  0  0  0  0  0
  161.0780  205.6070  152.7260 C   0  0  0  0  0  3  0  0  0  0  0  0
  160.7740  209.3300  154.5370 F   0  0  0  0  0  0  0  0  0  0  0  0
  162.4680  209.0830  147.9830 C   0  0  0  0  0  2  0  0  0  0  0  0
  161.6700  210.2680  148.4880 C   0  0  0  0  0  2  0  0  0  0  0  0
  162.5490  211.5010  148.5280 C   0  0  0  0  0  2  0  0  0  0  0  0
  162.0600  212.5230  147.5110 C   0  0  0  0  0  2  0  0  0  0  0  0
  159.8290  212.0010  145.8460 O   0  0  0  0  0  0  0  0  0  0  0  0
  160.6950  212.9450  147.8130 N   0  0  0  0  0  0  0  0  0  0  0  0
  159.6120  212.6390  146.9120 C   0  0  0  0  0  0  0  0  0  0  0  0
  158.0150  213.4110  148.6650 C   0  0  0  0  0  2  0  0  0  0  0  0
  159.1340  214.2950  149.1850 C   0  0  0  0  0  2  0  0  0  0  0  0
  160.4500  213.5270  149.1340 C   0  0  0  0  0  2  0  0  0  0  0  0
  158.2260  213.1400  147.1820 C   0  0  0  0  0  2  0  0  0  0  0  0
  1 11  1  1  0  0  0
  2  8  1  0  0  0  0
  3 10  1  0  0  0  0
  4 13  2  0  0  0  0
  5  9  1  0  0  0  0
  6  5  1  0  0  0  0
  7 15  2  0  0  0  0
  8  3  1  0  0  0  0
  9  1  1  0  0  0  0
 10 16  1  6  0  0  0
 10 14  1  0  0  0  0
 12  2  1  0  0  0  0
 12  6  1  0  0  0  0
 13 14  1  0  0  0  0
 14 19  1  1  0  0  0
 15  3  1  0  0  0  0
 15  4  1  0  0  0  0
 16  1  1  0  0  0  0
 17 23  1  0  0  0  0
 17 18  1  0  0  0  0
 19 21  1  0  0  0  0
 19 22  2  0  0  0  0
 20 18  2  0  0  0  0
 21 17  2  0  0  0  0
 22 20  1  0  0  0  0
 24 25  1  0  0  0  0
 24  4  1  0  0  0  0
 25 26  1  0  0  0  0
 27 29  1  0  0  0  0
 27 26  1  0  0  0  0
 28 30  2  0  0  0  0
 29 33  1  0  0  0  0
 30 34  1  0  0  0  0
 30 29  1  0  0  0  0
 31 32  1  0  0  0  0
 33 32  1  0  0  0  0
 34 31  1  0  0  0  0
M  END
>  <MODEL>
7

>  <REMARK>
 VINA RESULT:      -6.4      3.437      8.869
  Name = 
  6 active torsions:
  status: ('A' for Active; 'I' for Inactive)
    1  A    between atoms: C_3  and  N_13
    2  A    between atoms: C_3  and  C_17
    3  A    between atoms: C_5  and  C_18
    4  A    between atoms: C_12  and  C_28
    5  A    between atoms: C_17  and  C_29
    6  A    between atoms: C_18  and  C_29
                            x       y       z     vdW  Elec       q    Type
                         _______ _______ _______ _____ _____    ______ ____

>  <TORSDO>
F 6

$$$$
=
 OpenBabel11062408003D

 34 37  0  0  1  0  0  0  0  0999 V2000
  160.4200  207.3180  154.9140 C   0  0  2  0  0  3  0  0  0  0  0  0
  162.0990  210.6620  154.4870 C   0  0  0  0  0  2  0  0  0  0  0  0
  161.3350  209.3740  152.5600 N   0  0  0  0  0  0  0  0  0  0  0  0
  161.7780  209.2490  150.0850 C   0  0  0  0  0  0  0  0  0  0  0  0
  160.7250  208.7710  156.7260 C   0  0  0  0  0  2  0  0  0  0  0  0
  162.0150  209.5550  156.5520 C   0  0  0  0  0  2  0  0  0  0  0  0
  161.6000  211.3020  151.2480 O   0  0  0  0  0  0  0  0  0  0  0  0
  160.8940  210.1720  153.7000 C   0  0  0  0  0  2  0  0  0  0  0  0
  160.9130  207.3990  156.2810 N   0  0  0  0  0  2  0  0  0  0  0  0
  161.1580  207.9090  152.5930 C   0  0  1  0  0  3  0  0  0  0  0  0
  159.6950  206.1390  154.7460 O   0  0  0  0  0  1  0  0  0  0  0  0
  161.7400  210.8210  155.8880 N   0  0  0  0  0  2  0  0  0  0  0  0
  161.9030  207.9260  150.1690 C   0  0  0  0  0  3  0  0  0  0  0  0
  161.9750  207.2140  151.4880 C   0  0  2  0  0  3  0  0  0  0  0  0
  161.5800  210.0420  151.3080 C   0  0  0  0  0  0  0  0  0  0  0  0
  161.5900  207.3380  153.9450 C   0  0  0  0  0  2  0  0  0  0  0  0
  160.8570  203.9340  149.9090 C   0  0  0  0  0  0  0  0  0  0  0  0
  160.8180  203.0980  151.0280 C   0  0  0  0  0  3  0  0  0  0  0  0
  161.5670  205.7820  151.3150 C   0  0  0  0  0  0  0  0  0  0  0  0
  161.1530  203.6000  152.2890 C   0  0  0  0  0  3  0  0  0  0  0  0
  161.2310  205.2730  150.0500 C   0  0  0  0  0  3  0  0  0  0  0  0
  161.5280  204.9400  152.4320 C   0  0  0  0  0  3  0  0  0  0  0  0
  160.5340  203.4460  148.6870 F   0  0  0  0  0  0  0  0  0  0  0  0
  161.7030  209.8810  148.7370 C   0  0  0  0  0  2  0  0  0  0  0  0
  162.3860  211.2340  148.7770 C   0  0  0  0  0  2  0  0  0  0  0  0
  161.7400  212.1670  147.7730 C   0  0  0  0  0  2  0  0  0  0  0  0
  161.1780  213.3890  148.4860 C   0  0  0  0  0  2  0  0  0  0  0  0
  159.6920  213.9080  150.8400 O   0  0  0  0  0  0  0  0  0  0  0  0
  159.7220  213.3180  148.5690 N   0  0  0  0  0  0  0  0  0  0  0  0
  159.0390  213.5980  149.8080 C   0  0  0  0  0  0  0  0  0  0  0  0
  156.8830  213.5850  148.5530 C   0  0  0  0  0  2  0  0  0  0  0  0
  157.5570  212.6560  147.5580 C   0  0  0  0  0  2  0  0  0  0  0  0
  158.9870  213.1270  147.3160 C   0  0  0  0  0  2  0  0  0  0  0  0
  157.5510  213.4470  149.9130 C   0  0  0  0  0  2  0  0  0  0  0  0
  1 11  1  1  0  0  0
  1  9  1  0  0  0  0
  2 12  1  0  0  0  0
  3 10  1  0  0  0  0
  3  8  1  0  0  0  0
  4 13  2  0  0  0  0
  4 15  1  0  0  0  0
  6  5  1  0  0  0  0
  7 15  2  0  0  0  0
  8  2  1  0  0  0  0
  9  5  1  0  0  0  0
 10 16  1  1  0  0  0
 12  6  1  0  0  0  0
 13 14  1  0  0  0  0
 14 19  1  6  0  0  0
 14 10  1  0  0  0  0
 15  3  1  0  0  0  0
 16  1  1  0  0  0  0
 17 21  2  0  0  0  0
 17 18  1  0  0  0  0
 18 20  2  0  0  0  0
 19 22  2  0  0  0  0
 20 22  1  0  0  0  0
 21 19  1  0  0  0  0
 23 17  1  0  0  0  0
 24 25  1  0  0  0  0
 24  4  1  0  0  0  0
 26 27  1  0  0  0  0
 26 25  1  0  0  0  0
 27 29  1  0  0  0  0
 29 30  1  0  0  0  0
 30 34  1  0  0  0  0
 30 28  2  0  0  0  0
 31 34  1  0  0  0  0
 32 31  1  0  0  0  0
 33 32  1  0  0  0  0
 33 29  1  0  0  0  0
M  END
>  <MODEL>
8

>  <REMARK>
 VINA RESULT:      -6.2      4.153      8.280
  Name = 
  6 active torsions:
  status: ('A' for Active; 'I' for Inactive)
    1  A    between atoms: C_3  and  N_13
    2  A    between atoms: C_3  and  C_17
    3  A    between atoms: C_5  and  C_18
    4  A    between atoms: C_12  and  C_28
    5  A    between atoms: C_17  and  C_29
    6  A    between atoms: C_18  and  C_29
                            x       y       z     vdW  Elec       q    Type
                         _______ _______ _______ _____ _____    ______ ____

>  <TORSDO>
F 6

$$$$
=
 OpenBabel11062408003D

 34 37  0  0  1  0  0  0  0  0999 V2000
  160.7750  205.3710  147.2680 C   0  0  2  0  0  3  0  0  0  0  0  0
  161.4890  202.2920  149.3150 C   0  0  0  0  0  2  0  0  0  0  0  0
  160.9390  204.4190  150.3790 N   0  0  0  0  0  0  0  0  0  0  0  0
  161.2050  205.5250  152.6230 C   0  0  0  0  0  0  0  0  0  0  0  0
  160.8320  203.2420  146.2920 C   0  0  0  0  0  2  0  0  0  0  0  0
  161.8570  202.3720  147.0010 C   0  0  0  0  0  2  0  0  0  0  0  0
  160.5910  203.2520  152.3850 O   0  0  0  0  0  0  0  0  0  0  0  0
  160.3960  203.3080  149.6020 C   0  0  0  0  0  2  0  0  0  0  0  0
  161.3350  204.6020  146.1670 N   0  0  0  0  0  2  0  0  0  0  0  0
  161.1520  205.7230  149.7210 C   0  0  1  0  0  3  0  0  0  0  0  0
  160.3700  206.6230  146.8070 O   0  0  0  0  0  1  0  0  0  0  0  0
  161.2120  201.6100  148.0610 N   0  0  0  0  0  2  0  0  0  0  0  0
  161.6760  206.6220  152.0340 C   0  0  0  0  0  3  0  0  0  0  0  0
  162.0330  206.6530  150.5760 C   0  0  2  0  0  3  0  0  0  0  0  0
  160.9040  204.3340  151.8150 C   0  0  0  0  0  0  0  0  0  0  0  0
  161.8200  205.5440  148.3570 C   0  0  0  0  0  2  0  0  0  0  0  0
  161.6040  210.4340  150.4330 C   0  0  0  0  0  0  0  0  0  0  0  0
  161.9550  210.6920  149.1040 C   0  0  0  0  0  3  0  0  0  0  0  0
  161.9990  208.0650  150.0740 C   0  0  0  0  0  0  0  0  0  0  0  0
  162.3280  209.6410  148.2610 C   0  0  0  0  0  3  0  0  0  0  0  0
  161.6260  209.1230  150.9180 C   0  0  0  0  0  3  0  0  0  0  0  0
  162.3500  208.3300  148.7460 C   0  0  0  0  0  3  0  0  0  0  0  0
  161.2450  211.4530  151.2490 F   0  0  0  0  0  0  0  0  0  0  0  0
  160.8630  205.5780  154.0740 C   0  0  0  0  0  2  0  0  0  0  0  0
  160.4590  206.9920  154.4440 C   0  0  0  0  0  2  0  0  0  0  0  0
  160.6950  207.2240  155.9220 C   0  0  0  0  0  2  0  0  0  0  0  0
  161.5240  208.4850  156.1250 C   0  0  0  0  0  2  0  0  0  0  0  0
  162.2700  210.3270  154.1080 O   0  0  0  0  0  0  0  0  0  0  0  0
  160.7530  209.6750  155.7760 N   0  0  0  0  0  0  0  0  0  0  0  0
  161.2020  210.5650  154.7340 C   0  0  0  0  0  0  0  0  0  0  0  0
  158.9960  211.7240  154.8570 C   0  0  0  0  0  2  0  0  0  0  0  0
  158.9200  211.2590  156.3010 C   0  0  0  0  0  2  0  0  0  0  0  0
  159.4360  209.8280  156.3990 C   0  0  0  0  0  2  0  0  0  0  0  0
  160.4540  211.8270  154.4300 C   0  0  0  0  0  2  0  0  0  0  0  0
  1 11  1  6  0  0  0
  1 16  1  0  0  0  0
  2  8  1  0  0  0  0
  3 15  1  0  0  0  0
  4 24  1  0  0  0  0
  5  6  1  0  0  0  0
  6 12  1  0  0  0  0
  8  3  1  0  0  0  0
  9  5  1  0  0  0  0
  9  1  1  0  0  0  0
 10 16  1  6  0  0  0
 10  3  1  0  0  0  0
 10 14  1  0  0  0  0
 12  2  1  0  0  0  0
 13  4  2  0  0  0  0
 14 19  1  6  0  0  0
 14 13  1  0  0  0  0
 15  7  2  0  0  0  0
 15  4  1  0  0  0  0
 17 21  1  0  0  0  0
 17 23  1  0  0  0  0
 18 17  2  0  0  0  0
 19 21  2  0  0  0  0
 20 22  2  0  0  0  0
 20 18  1  0  0  0  0
 22 19  1  0  0  0  0
 24 25  1  0  0  0  0
 25 26  1  0  0  0  0
 26 27  1  0  0  0  0
 28 30  2  0  0  0  0
 29 27  1  0  0  0  0
 29 33  1  0  0  0  0
 30 29  1  0  0  0  0
 31 32  1  0  0  0  0
 32 33  1  0  0  0  0
 34 30  1  0  0  0  0
 34 31  1  0  0  0  0
M  END
>  <MODEL>
9

>  <REMARK>
 VINA RESULT:      -6.2      2.936      8.309
  Name = 
  6 active torsions:
  status: ('A' for Active; 'I' for Inactive)
    1  A    between atoms: C_3  and  N_13
    2  A    between atoms: C_3  and  C_17
    3  A    between atoms: C_5  and  C_18
    4  A    between atoms: C_12  and  C_28
    5  A    between atoms: C_17  and  C_29
    6  A    between atoms: C_18  and  C_29
                            x       y       z     vdW  Elec       q    Type
                         _______ _______ _______ _____ _____    ______ ____

>  <TORSDO>
F 6

$$$$
