=
 OpenBabel11052423013D

 28 31  0  0  1  0  0  0  0  0999 V2000
  160.9870  207.4990  151.8330 C   0  0  1  0  0  3  0  0  0  0  0  0
  158.9860  213.1570  153.6450 C   0  0  1  0  0  3  0  0  0  0  0  0
  160.6790  208.6030  157.0440 S   0  0  0  0  0  1  0  0  0  0  0  0
  157.4200  211.4120  153.8980 C   0  0  2  0  0  3  0  0  0  0  0  0
  159.9020  210.7890  153.5680 C   0  0  2  0  0  3  0  0  0  0  0  0
  157.5710  213.6730  153.8360 C   0  0  1  0  0  3  0  0  0  0  0  0
  158.7520  211.7450  153.2260 C   0  0  2  0  0  3  0  0  0  0  0  0
  158.3710  209.8910  155.3120 C   0  0  0  0  0  2  0  0  0  0  0  0
  156.6560  212.5920  153.8500 O   0  0  0  0  0  0  0  0  0  0  0  0
  160.7890  208.0560  154.3030 C   0  0  2  0  0  3  0  0  0  0  0  0
  159.8500  209.6130  152.5920 C   0  0  0  0  0  2  0  0  0  0  0  0
  157.5680  211.0400  155.2540 O   0  0  0  0  0  0  0  0  0  0  0  0
  161.7850  205.8830  153.5860 C   0  0  0  0  0  2  0  0  0  0  0  0
  160.8450  209.2010  155.3250 C   0  0  1  0  0  3  0  0  0  0  0  0
  161.8780  207.0230  154.5890 C   0  0  0  0  0  2  0  0  0  0  0  0
  157.4720  214.4530  155.1340 C   0  0  0  0  0  1  0  0  0  0  0  0
  159.6700  213.9220  152.5290 C   0  0  0  0  0  1  0  0  0  0  0  0
  159.8140  210.3020  155.0220 C   0  0  1  0  0  3  0  0  0  0  0  0
  162.0120  206.4180  152.1780 C   0  0  0  0  0  2  0  0  0  0  0  0
  160.9710  208.6240  152.8850 C   0  0  2  0  0  3  0  0  0  0  0  0
  161.2300  208.0220  150.4110 C   0  0  0  0  0  2  0  0  0  0  0  0
  161.1890  206.9580  149.4080 N   0  0  0  0  0  0  0  0  0  0  0  0
  162.7520  208.0490  148.0520 O   0  0  0  0  0  0  0  0  0  0  0  0
  161.9900  207.0570  148.2200 C   0  0  0  0  0  0  0  0  0  0  0  0
  161.9190  206.0580  147.2460 O   0  0  0  0  0  0  0  0  0  0  0  0
  161.0620  206.1660  146.1200 C   0  0  0  0  0  1  0  0  0  0  0  0
  160.2070  205.8890  149.5450 C   0  0  0  0  0  2  0  0  0  0  0  0
  160.9020  204.5460  149.6810 C   0  0  0  0  0  1  0  0  0  0  0  0
  1 21  1  6  0  0  0
  1 19  1  0  0  0  0
  1 20  1  0  0  0  0
  2 17  1  6  0  0  0
  2  6  1  0  0  0  0
  4  9  1  1  0  0  0
  4 12  1  0  0  0  0
  5 11  1  6  0  0  0
  5 18  1  0  0  0  0
  6  9  1  0  0  0  0
  6 16  1  1  0  0  0
  7  5  1  0  0  0  0
  7  2  1  0  0  0  0
  7  4  1  0  0  0  0
 10 15  1  0  0  0  0
 10 14  1  0  0  0  0
 11 20  1  0  0  0  0
 12  8  1  0  0  0  0
 13 15  1  0  0  0  0
 14  3  1  0  0  0  0
 18  8  1  0  0  0  0
 18 14  1  0  0  0  0
 19 13  1  0  0  0  0
 20 10  1  0  0  0  0
 22 27  1  0  0  0  0
 22 21  1  0  0  0  0
 23 24  2  0  0  0  0
 24 22  1  0  0  0  0
 25 24  1  0  0  0  0
 26 25  1  0  0  0  0
 27 28  1  0  0  0  0
M  END
>  <MODEL>
1

>  <REMARK>
 VINA RESULT:      -5.8      0.000      0.000
  Name = 
  4 active torsions:
  status: ('A' for Active; 'I' for Inactive)
    1  A    between atoms: C_1  and  C_2
    2  A    between atoms: C_2  and  N_3
    3  A    between atoms: N_3  and  C_7
    4  A    between atoms: O_6  and  C_11
                            x       y       z     vdW  Elec       q    Type
                         _______ _______ _______ _____ _____    ______ ____

>  <TORSDO>
F 4

$$$$
=
 OpenBabel11052423013D

 28 31  0  0  1  0  0  0  0  0999 V2000
  160.8410  208.2560  153.5800 C   0  0  1  0  0  3  0  0  0  0  0  0
  161.8500  202.7210  150.8160 C   0  0  1  0  0  3  0  0  0  0  0  0
  162.4710  208.1450  148.5020 S   0  0  0  0  0  1  0  0  0  0  0  0
  159.8590  203.8120  150.1770 C   0  0  2  0  0  3  0  0  0  0  0  0
  161.6870  205.1970  151.3580 C   0  0  2  0  0  3  0  0  0  0  0  0
  160.8720  201.7850  150.1280 C   0  0  1  0  0  3  0  0  0  0  0  0
  160.9670  203.8490  151.2290 C   0  0  2  0  0  3  0  0  0  0  0  0
  160.4820  205.8140  149.2710 C   0  0  0  0  0  2  0  0  0  0  0  0
  159.6470  202.4520  149.8860 O   0  0  0  0  0  0  0  0  0  0  0  0
  161.5820  208.1540  151.1530 C   0  0  2  0  0  3  0  0  0  0  0  0
  160.9010  206.0660  152.3400 C   0  0  0  0  0  2  0  0  0  0  0  0
  160.2200  204.4680  148.9770 O   0  0  0  0  0  0  0  0  0  0  0  0
  161.3870  210.3570  152.3100 C   0  0  0  0  0  2  0  0  0  0  0  0
  162.3720  207.3250  150.1310 C   0  0  1  0  0  3  0  0  0  0  0  0
  162.2030  209.5410  151.3190 C   0  0  0  0  0  2  0  0  0  0  0  0
  161.4600  201.2870  148.8210 C   0  0  0  0  0  1  0  0  0  0  0  0
  162.4390  202.0480  152.0390 C   0  0  0  0  0  1  0  0  0  0  0  0
  161.8240  205.8930  149.9950 C   0  0  1  0  0  3  0  0  0  0  0  0
  161.4030  209.6750  153.6730 C   0  0  0  0  0  2  0  0  0  0  0  0
  161.5690  207.4250  152.5080 C   0  0  2  0  0  3  0  0  0  0  0  0
  160.8620  207.5890  154.9620 C   0  0  0  0  0  2  0  0  0  0  0  0
  160.8420  208.5620  156.0540 N   0  0  0  0  0  0  0  0  0  0  0  0
  158.7410  209.3700  155.4180 O   0  0  0  0  0  0  0  0  0  0  0  0
  159.7230  209.4480  156.2080 C   0  0  0  0  0  0  0  0  0  0  0  0
  159.7250  210.4020  157.2290 O   0  0  0  0  0  0  0  0  0  0  0  0
  159.2650  211.7280  157.0180 C   0  0  0  0  0  1  0  0  0  0  0  0
  162.0360  208.7370  156.8730 C   0  0  0  0  0  2  0  0  0  0  0  0
  162.7170  210.0530  156.5390 C   0  0  0  0  0  1  0  0  0  0  0  0
  1 19  1  0  0  0  0
  1 21  1  1  0  0  0
  2  7  1  0  0  0  0
  2 17  1  1  0  0  0
  3 14  1  0  0  0  0
  4 12  1  6  0  0  0
  4  7  1  0  0  0  0
  5 11  1  1  0  0  0
  6 16  1  6  0  0  0
  6  2  1  0  0  0  0
  7  5  1  0  0  0  0
  8 18  1  0  0  0  0
  9  6  1  0  0  0  0
  9  4  1  0  0  0  0
 10 15  1  0  0  0  0
 10 20  1  0  0  0  0
 11 20  1  0  0  0  0
 12  8  1  0  0  0  0
 13 19  1  0  0  0  0
 14 10  1  0  0  0  0
 15 13  1  0  0  0  0
 18 14  1  0  0  0  0
 18  5  1  0  0  0  0
 20  1  1  0  0  0  0
 21 22  1  0  0  0  0
 22 24  1  0  0  0  0
 22 27  1  0  0  0  0
 23 24  2  0  0  0  0
 24 25  1  0  0  0  0
 26 25  1  0  0  0  0
 28 27  1  0  0  0  0
M  END
>  <MODEL>
2

>  <REMARK>
 VINA RESULT:      -5.2      3.240      8.470
  Name = 
  4 active torsions:
  status: ('A' for Active; 'I' for Inactive)
    1  A    between atoms: C_1  and  C_2
    2  A    between atoms: C_2  and  N_3
    3  A    between atoms: N_3  and  C_7
    4  A    between atoms: O_6  and  C_11
                            x       y       z     vdW  Elec       q    Type
                         _______ _______ _______ _____ _____    ______ ____

>  <TORSDO>
F 4

$$$$
=
 OpenBabel11052423013D

 28 31  0  0  1  0  0  0  0  0999 V2000
  161.1880  206.8710  151.9980 C   0  0  1  0  0  3  0  0  0  0  0  0
  160.5060  205.6960  145.8780 C   0  0  1  0  0  3  0  0  0  0  0  0
  160.9910  201.8080  150.3280 S   0  0  0  0  0  1  0  0  0  0  0  0
  162.6790  205.3570  146.7280 C   0  0  2  0  0  3  0  0  0  0  0  0
  160.7220  205.5070  148.4020 C   0  0  2  0  0  3  0  0  0  0  0  0
  161.5510  205.6230  144.7800 C   0  0  1  0  0  3  0  0  0  0  0  0
  161.3350  205.9910  147.0820 C   0  0  2  0  0  3  0  0  0  0  0  0
  162.4950  203.7620  148.3530 C   0  0  0  0  0  2  0  0  0  0  0  0
  162.8470  205.5520  145.3440 O   0  0  0  0  0  0  0  0  0  0  0  0
  161.1260  204.4770  151.1540 C   0  0  2  0  0  3  0  0  0  0  0  0
  161.2830  206.3690  149.5330 C   0  0  0  0  0  2  0  0  0  0  0  0
  162.7120  203.9660  146.9820 O   0  0  0  0  0  0  0  0  0  0  0  0
  161.1840  204.9370  153.6050 C   0  0  0  0  0  2  0  0  0  0  0  0
  160.5760  203.5650  150.0480 C   0  0  1  0  0  3  0  0  0  0  0  0
  160.6020  204.0430  152.5220 C   0  0  0  0  0  2  0  0  0  0  0  0
  161.3000  204.4100  143.9030 C   0  0  0  0  0  1  0  0  0  0  0  0
  159.5530  206.8450  145.6110 C   0  0  0  0  0  1  0  0  0  0  0  0
  161.0190  204.0190  148.6450 C   0  0  1  0  0  3  0  0  0  0  0  0
  160.7430  206.3770  153.3750 C   0  0  0  0  0  2  0  0  0  0  0  0
  160.7100  205.9310  150.8760 C   0  0  2  0  0  3  0  0  0  0  0  0
  160.7370  208.3220  151.7870 C   0  0  0  0  0  2  0  0  0  0  0  0
  161.6390  209.2860  152.4170 N   0  0  0  0  0  0  0  0  0  0  0  0
  160.4100  209.2730  154.4080 O   0  0  0  0  0  0  0  0  0  0  0  0
  161.3900  209.7330  153.7590 C   0  0  0  0  0  0  0  0  0  0  0  0
  162.2310  210.6840  154.3440 O   0  0  0  0  0  0  0  0  0  0  0  0
  162.5350  210.6660  155.7300 C   0  0  0  0  0  1  0  0  0  0  0  0
  162.6830  209.9140  151.6160 C   0  0  0  0  0  2  0  0  0  0  0  0
  162.1750  210.1970  150.2130 C   0  0  0  0  0  1  0  0  0  0  0  0
  1 21  1  6  0  0  0
  1 19  1  0  0  0  0
  2 17  1  6  0  0  0
  2  7  1  0  0  0  0
  4  9  1  6  0  0  0
  4 12  1  0  0  0  0
  4  7  1  0  0  0  0
  5 18  1  0  0  0  0
  5 11  1  1  0  0  0
  6 16  1  1  0  0  0
  6  9  1  0  0  0  0
  6  2  1  0  0  0  0
  7  5  1  0  0  0  0
  8 18  1  0  0  0  0
 10 15  1  0  0  0  0
 11 20  1  0  0  0  0
 12  8  1  0  0  0  0
 14  3  1  0  0  0  0
 14 10  1  0  0  0  0
 15 13  1  0  0  0  0
 18 14  1  0  0  0  0
 19 13  1  0  0  0  0
 20 10  1  0  0  0  0
 20  1  1  0  0  0  0
 21 22  1  0  0  0  0
 22 24  1  0  0  0  0
 24 25  1  0  0  0  0
 24 23  2  0  0  0  0
 25 26  1  0  0  0  0
 27 22  1  0  0  0  0
 28 27  1  0  0  0  0
M  END
>  <MODEL>
3

>  <REMARK>
 VINA RESULT:      -5.2      3.510      8.313
  Name = 
  4 active torsions:
  status: ('A' for Active; 'I' for Inactive)
    1  A    between atoms: C_1  and  C_2
    2  A    between atoms: C_2  and  N_3
    3  A    between atoms: N_3  and  C_7
    4  A    between atoms: O_6  and  C_11
                            x       y       z     vdW  Elec       q    Type
                         _______ _______ _______ _____ _____    ______ ____

>  <TORSDO>
F 4

$$$$
=
 OpenBabel11052423013D

 28 31  0  0  1  0  0  0  0  0999 V2000
  161.2680  206.7990  151.5740 C   0  0  1  0  0  3  0  0  0  0  0  0
  162.9170  212.1100  148.6800 C   0  0  1  0  0  3  0  0  0  0  0  0
  160.8190  211.4310  154.1840 S   0  0  0  0  0  1  0  0  0  0  0  0
  160.5940  211.7520  148.8690 C   0  0  2  0  0  3  0  0  0  0  0  0
  162.1700  210.3710  150.3740 C   0  0  2  0  0  3  0  0  0  0  0  0
  162.1180  212.9940  147.7410 C   0  0  1  0  0  3  0  0  0  0  0  0
  161.9370  211.0370  149.0120 C   0  0  2  0  0  3  0  0  0  0  0  0
  160.1420  211.6130  151.1030 C   0  0  0  0  0  2  0  0  0  0  0  0
  160.7450  212.6490  147.7960 O   0  0  0  0  0  0  0  0  0  0  0  0
  161.0360  209.0300  152.7650 C   0  0  2  0  0  3  0  0  0  0  0  0
  161.5710  208.9650  150.3270 C   0  0  0  0  0  2  0  0  0  0  0  0
  160.2450  212.4970  150.0190 O   0  0  0  0  0  0  0  0  0  0  0  0
  160.5800  206.9050  153.9900 C   0  0  0  0  0  2  0  0  0  0  0  0
  161.6110  210.4510  152.8610 C   0  0  1  0  0  3  0  0  0  0  0  0
  161.1840  208.2970  154.0970 C   0  0  0  0  0  2  0  0  0  0  0  0
  162.3010  214.4530  148.1160 C   0  0  0  0  0  1  0  0  0  0  0  0
  164.1060  211.5190  147.9490 C   0  0  0  0  0  1  0  0  0  0  0  0
  161.5520  211.1950  151.5140 C   0  0  1  0  0  3  0  0  0  0  0  0
  161.3270  206.1010  152.9330 C   0  0  0  0  0  2  0  0  0  0  0  0
  161.7700  208.2530  151.6590 C   0  0  2  0  0  3  0  0  0  0  0  0
  162.0210  205.9730  150.5230 C   0  0  0  0  0  2  0  0  0  0  0  0
  161.1310  205.1150  149.7410 N   0  0  0  0  0  0  0  0  0  0  0  0
  161.5820  203.2590  151.0930 O   0  0  0  0  0  0  0  0  0  0  0  0
  160.9750  203.7310  150.0920 C   0  0  0  0  0  0  0  0  0  0  0  0
  160.1540  202.9050  149.3190 O   0  0  0  0  0  0  0  0  0  0  0  0
  160.6820  201.8600  148.5180 C   0  0  0  0  0  1  0  0  0  0  0  0
  160.5440  205.6320  148.5110 C   0  0  0  0  0  2  0  0  0  0  0  0
  161.6270  206.1800  147.5980 C   0  0  0  0  0  1  0  0  0  0  0  0
  1 21  1  6  0  0  0
  1 20  1  0  0  0  0
  1 19  1  0  0  0  0
  2 17  1  6  0  0  0
  2  7  1  0  0  0  0
  4  9  1  6  0  0  0
  4  7  1  0  0  0  0
  4 12  1  0  0  0  0
  5 11  1  6  0  0  0
  5 18  1  0  0  0  0
  6  9  1  0  0  0  0
  6 16  1  1  0  0  0
  6  2  1  0  0  0  0
  7  5  1  0  0  0  0
  8 18  1  0  0  0  0
 10 14  1  0  0  0  0
 10 15  1  0  0  0  0
 11 20  1  0  0  0  0
 12  8  1  0  0  0  0
 13 15  1  0  0  0  0
 14  3  1  0  0  0  0
 18 14  1  0  0  0  0
 19 13  1  0  0  0  0
 20 10  1  0  0  0  0
 22 24  1  0  0  0  0
 22 21  1  0  0  0  0
 24 23  2  0  0  0  0
 25 24  1  0  0  0  0
 26 25  1  0  0  0  0
 27 22  1  0  0  0  0
 28 27  1  0  0  0  0
M  END
>  <MODEL>
4

>  <REMARK>
 VINA RESULT:      -5.1      3.204      4.556
  Name = 
  4 active torsions:
  status: ('A' for Active; 'I' for Inactive)
    1  A    between atoms: C_1  and  C_2
    2  A    between atoms: C_2  and  N_3
    3  A    between atoms: N_3  and  C_7
    4  A    between atoms: O_6  and  C_11
                            x       y       z     vdW  Elec       q    Type
                         _______ _______ _______ _____ _____    ______ ____

>  <TORSDO>
F 4

$$$$
=
 OpenBabel11052423013D

 28 31  0  0  1  0  0  0  0  0999 V2000
  161.2960  206.1460  150.0140 C   0  0  1  0  0  3  0  0  0  0  0  0
  159.7210  210.2340  154.4970 C   0  0  1  0  0  3  0  0  0  0  0  0
  162.5490  211.2950  149.3940 S   0  0  0  0  0  1  0  0  0  0  0  0
  162.0040  209.6470  154.4340 C   0  0  2  0  0  3  0  0  0  0  0  0
  160.5520  209.1350  152.3630 C   0  0  2  0  0  3  0  0  0  0  0  0
  160.4480  210.6000  155.7780 C   0  0  1  0  0  3  0  0  0  0  0  0
  160.6380  209.2260  153.8920 C   0  0  2  0  0  3  0  0  0  0  0  0
  162.7720  210.2600  152.3720 C   0  0  0  0  0  2  0  0  0  0  0  0
  161.7760  210.1100  155.7430 O   0  0  0  0  0  0  0  0  0  0  0  0
  161.9050  208.6000  149.7790 C   0  0  2  0  0  3  0  0  0  0  0  0
  161.0070  207.7380  151.9420 C   0  0  0  0  0  2  0  0  0  0  0  0
  162.5880  210.7000  153.6910 O   0  0  0  0  0  0  0  0  0  0  0  0
  162.3450  207.0170  147.9010 C   0  0  0  0  0  2  0  0  0  0  0  0
  161.4830  210.0260  150.1630 C   0  0  1  0  0  3  0  0  0  0  0  0
  161.8920  208.4240  148.2610 C   0  0  0  0  0  2  0  0  0  0  0  0
  160.4560  212.1070  155.9610 C   0  0  0  0  0  1  0  0  0  0  0  0
  158.3870  209.5920  154.8230 C   0  0  0  0  0  1  0  0  0  0  0  0
  161.4070  210.2190  151.6880 C   0  0  1  0  0  3  0  0  0  0  0  0
  161.3780  205.9990  148.4940 C   0  0  0  0  0  2  0  0  0  0  0  0
  160.9470  207.5870  150.4270 C   0  0  2  0  0  3  0  0  0  0  0  0
  160.3220  205.1110  150.5920 C   0  0  0  0  0  2  0  0  0  0  0  0
  160.9340  203.7910  150.7480 N   0  0  0  0  0  0  0  0  0  0  0  0
  160.0920  203.0560  148.6930 O   0  0  0  0  0  0  0  0  0  0  0  0
  160.7540  202.7900  149.7340 C   0  0  0  0  0  0  0  0  0  0  0  0
  161.3070  201.5180  149.9050 O   0  0  0  0  0  0  0  0  0  0  0  0
  161.3860  200.5850  148.8390 C   0  0  0  0  0  1  0  0  0  0  0  0
  161.5780  203.4500  152.0110 C   0  0  0  0  0  2  0  0  0  0  0  0
  161.2060  204.4590  153.0830 C   0  0  0  0  0  1  0  0  0  0  0  0
  1 20  1  0  0  0  0
  1 21  1  6  0  0  0
  2 17  1  1  0  0  0
  2  6  1  0  0  0  0
  3 14  1  0  0  0  0
  4 12  1  6  0  0  0
  4  9  1  0  0  0  0
  5 11  1  6  0  0  0
  5  7  1  0  0  0  0
  6 16  1  6  0  0  0
  7  4  1  0  0  0  0
  7  2  1  0  0  0  0
  8 12  1  0  0  0  0
  9  6  1  0  0  0  0
 10 14  1  0  0  0  0
 10 20  1  0  0  0  0
 13 15  1  0  0  0  0
 13 19  1  0  0  0  0
 14 18  1  0  0  0  0
 15 10  1  0  0  0  0
 18  5  1  0  0  0  0
 18  8  1  0  0  0  0
 19  1  1  0  0  0  0
 20 11  1  0  0  0  0
 21 22  1  0  0  0  0
 22 27  1  0  0  0  0
 23 24  2  0  0  0  0
 24 25  1  0  0  0  0
 24 22  1  0  0  0  0
 26 25  1  0  0  0  0
 27 28  1  0  0  0  0
M  END
>  <MODEL>
5

>  <REMARK>
 VINA RESULT:      -4.9      3.138      4.674
  Name = 
  4 active torsions:
  status: ('A' for Active; 'I' for Inactive)
    1  A    between atoms: C_1  and  C_2
    2  A    between atoms: C_2  and  N_3
    3  A    between atoms: N_3  and  C_7
    4  A    between atoms: O_6  and  C_11
                            x       y       z     vdW  Elec       q    Type
                         _______ _______ _______ _____ _____    ______ ____

>  <TORSDO>
F 4

$$$$
=
 OpenBabel11052423013D

 28 31  0  0  1  0  0  0  0  0999 V2000
  161.5980  207.7140  151.9890 C   0  0  1  0  0  3  0  0  0  0  0  0
  160.5100  205.7390  146.1390 C   0  0  1  0  0  3  0  0  0  0  0  0
  160.6670  202.5320  151.1240 S   0  0  0  0  0  1  0  0  0  0  0  0
  162.6540  205.2370  146.9840 C   0  0  2  0  0  3  0  0  0  0  0  0
  160.8060  205.9020  148.6570 C   0  0  2  0  0  3  0  0  0  0  0  0
  161.4890  205.3600  145.0430 C   0  0  1  0  0  3  0  0  0  0  0  0
  161.4210  206.0950  147.2650 C   0  0  2  0  0  3  0  0  0  0  0  0
  162.3300  203.9450  148.8390 C   0  0  0  0  0  2  0  0  0  0  0  0
  162.7880  205.1980  145.5840 O   0  0  0  0  0  0  0  0  0  0  0  0
  161.1870  205.2510  151.5260 C   0  0  2  0  0  3  0  0  0  0  0  0
  161.5220  206.8400  149.6290 C   0  0  0  0  0  2  0  0  0  0  0  0
  162.5140  203.9090  147.4490 O   0  0  0  0  0  0  0  0  0  0  0  0
  161.4080  206.0620  153.8750 C   0  0  0  0  0  2  0  0  0  0  0  0
  160.4750  204.2670  150.5850 C   0  0  1  0  0  3  0  0  0  0  0  0
  160.6670  205.1030  152.9550 C   0  0  0  0  0  2  0  0  0  0  0  0
  161.0440  204.0750  144.3690 C   0  0  0  0  0  1  0  0  0  0  0  0
  159.7060  206.9530  145.7190 C   0  0  0  0  0  1  0  0  0  0  0  0
  160.9140  204.4410  149.1210 C   0  0  1  0  0  3  0  0  0  0  0  0
  161.1500  207.4970  153.4340 C   0  0  0  0  0  2  0  0  0  0  0  0
  160.9540  206.6900  151.0350 C   0  0  2  0  0  3  0  0  0  0  0  0
  161.3330  209.1650  151.5660 C   0  0  0  0  0  2  0  0  0  0  0  0
  161.4080  210.0980  152.6900 N   0  0  0  0  0  0  0  0  0  0  0  0
  159.1920  210.7850  152.3860 O   0  0  0  0  0  0  0  0  0  0  0  0
  160.2690  210.9030  153.0340 C   0  0  0  0  0  0  0  0  0  0  0  0
  160.3570  211.8210  154.0830 O   0  0  0  0  0  0  0  0  0  0  0  0
  159.2350  212.5740  154.5180 C   0  0  0  0  0  1  0  0  0  0  0  0
  162.6930  210.3270  153.3410 C   0  0  0  0  0  2  0  0  0  0  0  0
  162.5260  210.3340  154.8500 C   0  0  0  0  0  1  0  0  0  0  0  0
  1 21  1  6  0  0  0
  1 19  1  0  0  0  0
  2 17  1  6  0  0  0
  2  7  1  0  0  0  0
  4  9  1  6  0  0  0
  4  7  1  0  0  0  0
  4 12  1  0  0  0  0
  5 18  1  0  0  0  0
  5 11  1  1  0  0  0
  6 16  1  1  0  0  0
  6  9  1  0  0  0  0
  6  2  1  0  0  0  0
  7  5  1  0  0  0  0
  8 18  1  0  0  0  0
 10 15  1  0  0  0  0
 11 20  1  0  0  0  0
 12  8  1  0  0  0  0
 14  3  1  0  0  0  0
 14 10  1  0  0  0  0
 15 13  1  0  0  0  0
 18 14  1  0  0  0  0
 19 13  1  0  0  0  0
 20 10  1  0  0  0  0
 20  1  1  0  0  0  0
 21 22  1  0  0  0  0
 22 24  1  0  0  0  0
 22 27  1  0  0  0  0
 23 24  2  0  0  0  0
 24 25  1  0  0  0  0
 25 26  1  0  0  0  0
 27 28  1  0  0  0  0
M  END
>  <MODEL>
6

>  <REMARK>
 VINA RESULT:      -4.2      2.619      8.195
  Name = 
  4 active torsions:
  status: ('A' for Active; 'I' for Inactive)
    1  A    between atoms: C_1  and  C_2
    2  A    between atoms: C_2  and  N_3
    3  A    between atoms: N_3  and  C_7
    4  A    between atoms: O_6  and  C_11
                            x       y       z     vdW  Elec       q    Type
                         _______ _______ _______ _____ _____    ______ ____

>  <TORSDO>
F 4

$$$$
=
 OpenBabel11052423013D

 28 31  0  0  1  0  0  0  0  0999 V2000
  161.5760  206.4330  150.5110 C   0  0  1  0  0  3  0  0  0  0  0  0
  163.2330  212.0520  148.2790 C   0  0  1  0  0  3  0  0  0  0  0  0
  161.1800  210.7090  153.6770 S   0  0  0  0  0  1  0  0  0  0  0  0
  160.9100  211.6840  148.4440 C   0  0  2  0  0  3  0  0  0  0  0  0
  162.4900  210.1210  149.7520 C   0  0  2  0  0  3  0  0  0  0  0  0
  162.4300  213.0490  147.4630 C   0  0  1  0  0  3  0  0  0  0  0  0
  162.2490  210.9500  148.4850 C   0  0  2  0  0  3  0  0  0  0  0  0
  160.4760  211.2740  150.6490 C   0  0  0  0  0  2  0  0  0  0  0  0
  161.0570  212.7070  147.4890 O   0  0  0  0  0  0  0  0  0  0  0  0
  161.3690  208.5010  151.9700 C   0  0  2  0  0  3  0  0  0  0  0  0
  161.8820  208.7350  149.5380 C   0  0  0  0  0  2  0  0  0  0  0  0
  160.5750  212.2840  149.6810 O   0  0  0  0  0  0  0  0  0  0  0  0
  160.9110  206.2440  152.9290 C   0  0  0  0  0  2  0  0  0  0  0  0
  161.9530  209.8970  152.2350 C   0  0  1  0  0  3  0  0  0  0  0  0
  161.5250  207.6090  153.2010 C   0  0  0  0  0  2  0  0  0  0  0  0
  162.6260  214.4490  148.0140 C   0  0  0  0  0  1  0  0  0  0  0  0
  164.4120  211.5490  147.4690 C   0  0  0  0  0  1  0  0  0  0  0  0
  161.8870  210.8010  150.9910 C   0  0  1  0  0  3  0  0  0  0  0  0
  161.6430  205.5730  151.7730 C   0  0  0  0  0  2  0  0  0  0  0  0
  162.0880  207.8620  150.7700 C   0  0  2  0  0  3  0  0  0  0  0  0
  162.3150  205.7390  149.3590 C   0  0  0  0  0  2  0  0  0  0  0  0
  161.4060  205.2620  148.3170 N   0  0  0  0  0  0  0  0  0  0  0  0
  162.0630  206.9540  146.8410 O   0  0  0  0  0  0  0  0  0  0  0  0
  161.3270  205.9520  147.0600 C   0  0  0  0  0  0  0  0  0  0  0  0
  160.4290  205.5180  146.0820 O   0  0  0  0  0  0  0  0  0  0  0  0
  160.8620  205.1110  144.7930 C   0  0  0  0  0  1  0  0  0  0  0  0
  160.4640  204.1940  148.6290 C   0  0  0  0  0  2  0  0  0  0  0  0
  161.1840  203.0300  149.2860 C   0  0  0  0  0  1  0  0  0  0  0  0
  1 21  1  6  0  0  0
  1 20  1  0  0  0  0
  1 19  1  0  0  0  0
  2 17  1  6  0  0  0
  2  7  1  0  0  0  0
  4  9  1  6  0  0  0
  4  7  1  0  0  0  0
  4 12  1  0  0  0  0
  5 11  1  6  0  0  0
  5 18  1  0  0  0  0
  6  9  1  0  0  0  0
  6 16  1  1  0  0  0
  6  2  1  0  0  0  0
  7  5  1  0  0  0  0
  8 18  1  0  0  0  0
 10 14  1  0  0  0  0
 10 15  1  0  0  0  0
 11 20  1  0  0  0  0
 12  8  1  0  0  0  0
 13 15  1  0  0  0  0
 14  3  1  0  0  0  0
 18 14  1  0  0  0  0
 19 13  1  0  0  0  0
 20 10  1  0  0  0  0
 22 27  1  0  0  0  0
 22 21  1  0  0  0  0
 23 24  2  0  0  0  0
 24 22  1  0  0  0  0
 25 24  1  0  0  0  0
 26 25  1  0  0  0  0
 27 28  1  0  0  0  0
M  END
>  <MODEL>
7

>  <REMARK>
 VINA RESULT:      -4.2      3.200      4.573
  Name = 
  4 active torsions:
  status: ('A' for Active; 'I' for Inactive)
    1  A    between atoms: C_1  and  C_2
    2  A    between atoms: C_2  and  N_3
    3  A    between atoms: N_3  and  C_7
    4  A    between atoms: O_6  and  C_11
                            x       y       z     vdW  Elec       q    Type
                         _______ _______ _______ _____ _____    ______ ____

>  <TORSDO>
F 4

$$$$
=
 OpenBabel11052423013D

 28 31  0  0  1  0  0  0  0  0999 V2000
  160.2250  212.7180  150.1170 C   0  0  1  0  0  3  0  0  0  0  0  0
  161.6400  209.9770  155.5740 C   0  0  1  0  0  3  0  0  0  0  0  0
  162.7170  208.0000  150.0880 S   0  0  0  0  0  1  0  0  0  0  0  0
  159.8040  209.0410  154.4280 C   0  0  2  0  0  3  0  0  0  0  0  0
  161.4120  210.5700  153.1150 C   0  0  2  0  0  3  0  0  0  0  0  0
  160.7870  209.0970  156.4700 C   0  0  1  0  0  3  0  0  0  0  0  0
  160.7100  210.2700  154.4450 C   0  0  2  0  0  3  0  0  0  0  0  0
  160.5970  208.3280  152.4090 C   0  0  0  0  0  2  0  0  0  0  0  0
  159.6300  208.6680  155.7740 O   0  0  0  0  0  0  0  0  0  0  0  0
  161.3770  210.4550  150.1510 C   0  0  2  0  0  3  0  0  0  0  0  0
  160.4770  211.4300  152.2650 C   0  0  0  0  0  2  0  0  0  0  0  0
  160.3760  207.9460  153.7400 O   0  0  0  0  0  0  0  0  0  0  0  0
  161.0080  211.6380  147.9850 C   0  0  0  0  0  2  0  0  0  0  0  0
  162.3250  209.5570  150.9600 C   0  0  1  0  0  3  0  0  0  0  0  0
  161.9760  210.7760  148.7820 C   0  0  0  0  0  2  0  0  0  0  0  0
  161.5880  207.8950  156.9340 C   0  0  0  0  0  1  0  0  0  0  0  0
  161.9980  211.2600  156.2970 C   0  0  0  0  0  1  0  0  0  0  0  0
  161.7930  209.2770  152.3770 C   0  0  1  0  0  3  0  0  0  0  0  0
  160.7780  212.9570  148.7110 C   0  0  0  0  0  2  0  0  0  0  0  0
  161.1200  211.7600  150.9240 C   0  0  2  0  0  3  0  0  0  0  0  0
  159.9970  214.0570  150.8290 C   0  0  0  0  0  2  0  0  0  0  0  0
  158.5840  214.3090  151.1110 N   0  0  0  0  0  0  0  0  0  0  0  0
  158.8920  214.0010  153.4100 O   0  0  0  0  0  0  0  0  0  0  0  0
  158.0970  214.2450  152.4600 C   0  0  0  0  0  0  0  0  0  0  0  0
  156.7390  214.4470  152.7210 O   0  0  0  0  0  0  0  0  0  0  0  0
  156.0560  213.7360  153.7420 C   0  0  0  0  0  1  0  0  0  0  0  0
  157.6520  214.4530  149.9990 C   0  0  0  0  0  2  0  0  0  0  0  0
  156.9250  213.1440  149.7460 C   0  0  0  0  0  1  0  0  0  0  0  0
  1 21  1  1  0  0  0
  1 20  1  0  0  0  0
  2 17  1  1  0  0  0
  2  6  1  0  0  0  0
  3 14  1  0  0  0  0
  4 12  1  6  0  0  0
  4  7  1  0  0  0  0
  4  9  1  0  0  0  0
  5 11  1  6  0  0  0
  5  7  1  0  0  0  0
  6 16  1  6  0  0  0
  7  2  1  0  0  0  0
  8 12  1  0  0  0  0
  9  6  1  0  0  0  0
 10 20  1  0  0  0  0
 10 14  1  0  0  0  0
 13 19  1  0  0  0  0
 13 15  1  0  0  0  0
 14 18  1  0  0  0  0
 15 10  1  0  0  0  0
 18  8  1  0  0  0  0
 18  5  1  0  0  0  0
 19  1  1  0  0  0  0
 20 11  1  0  0  0  0
 21 22  1  0  0  0  0
 22 24  1  0  0  0  0
 24 25  1  0  0  0  0
 24 23  2  0  0  0  0
 25 26  1  0  0  0  0
 27 22  1  0  0  0  0
 28 27  1  0  0  0  0
M  END
>  <MODEL>
8

>  <REMARK>
 VINA RESULT:      -3.7      3.581      6.720
  Name = 
  4 active torsions:
  status: ('A' for Active; 'I' for Inactive)
    1  A    between atoms: C_1  and  C_2
    2  A    between atoms: C_2  and  N_3
    3  A    between atoms: N_3  and  C_7
    4  A    between atoms: O_6  and  C_11
                            x       y       z     vdW  Elec       q    Type
                         _______ _______ _______ _____ _____    ______ ____

>  <TORSDO>
F 4

$$$$
=
 OpenBabel11052423013D

 28 31  0  0  1  0  0  0  0  0999 V2000
  161.2250  207.3680  151.8240 C   0  0  1  0  0  3  0  0  0  0  0  0
  160.3300  205.4890  145.9100 C   0  0  1  0  0  3  0  0  0  0  0  0
  161.2920  202.1500  150.7140 S   0  0  0  0  0  1  0  0  0  0  0  0
  162.5600  205.3810  146.6700 C   0  0  2  0  0  3  0  0  0  0  0  0
  160.6800  205.5910  148.4240 C   0  0  2  0  0  3  0  0  0  0  0  0
  161.3240  205.3610  144.7700 C   0  0  1  0  0  3  0  0  0  0  0  0
  161.1940  205.9660  147.0280 C   0  0  2  0  0  3  0  0  0  0  0  0
  162.5630  203.9660  148.4620 C   0  0  0  0  0  2  0  0  0  0  0  0
  162.6480  205.4340  145.2660 O   0  0  0  0  0  0  0  0  0  0  0  0
  161.2860  204.8960  151.2430 C   0  0  2  0  0  3  0  0  0  0  0  0
  161.2350  206.6050  149.4240 C   0  0  0  0  0  2  0  0  0  0  0  0
  162.7000  204.0310  147.0680 O   0  0  0  0  0  0  0  0  0  0  0  0
  161.4300  205.6250  153.6250 C   0  0  0  0  0  2  0  0  0  0  0  0
  160.7460  203.8360  150.2720 C   0  0  1  0  0  3  0  0  0  0  0  0
  160.8580  204.5830  152.6760 C   0  0  0  0  0  2  0  0  0  0  0  0
  161.1140  204.0470  144.0410 C   0  0  0  0  0  1  0  0  0  0  0  0
  159.2900  206.5400  145.5750 C   0  0  0  0  0  1  0  0  0  0  0  0
  161.0880  204.1600  148.8070 C   0  0  1  0  0  3  0  0  0  0  0  0
  160.8810  207.0010  153.2670 C   0  0  0  0  0  2  0  0  0  0  0  0
  160.7590  206.2820  150.8350 C   0  0  2  0  0  3  0  0  0  0  0  0
  160.6670  208.7560  151.4850 C   0  0  0  0  0  2  0  0  0  0  0  0
  161.7200  209.7240  151.1800 N   0  0  0  0  0  0  0  0  0  0  0  0
  161.3470  209.5440  148.8770 O   0  0  0  0  0  0  0  0  0  0  0  0
  162.0150  210.0600  149.8150 C   0  0  0  0  0  0  0  0  0  0  0  0
  163.0490  210.9560  149.5260 O   0  0  0  0  0  0  0  0  0  0  0  0
  162.9100  211.9710  148.5440 C   0  0  0  0  0  1  0  0  0  0  0  0
  162.5750  210.2080  152.2570 C   0  0  0  0  0  2  0  0  0  0  0  0
  161.7480  210.5080  153.4940 C   0  0  0  0  0  1  0  0  0  0  0  0
  1 21  1  6  0  0  0
  1 19  1  0  0  0  0
  2 17  1  6  0  0  0
  2  7  1  0  0  0  0
  4  9  1  6  0  0  0
  4  7  1  0  0  0  0
  4 12  1  0  0  0  0
  5 18  1  0  0  0  0
  5 11  1  1  0  0  0
  6 16  1  1  0  0  0
  6  9  1  0  0  0  0
  6  2  1  0  0  0  0
  7  5  1  0  0  0  0
  8 18  1  0  0  0  0
 10 15  1  0  0  0  0
 11 20  1  0  0  0  0
 12  8  1  0  0  0  0
 14  3  1  0  0  0  0
 14 10  1  0  0  0  0
 15 13  1  0  0  0  0
 18 14  1  0  0  0  0
 19 13  1  0  0  0  0
 20 10  1  0  0  0  0
 20  1  1  0  0  0  0
 22 21  1  0  0  0  0
 22 27  1  0  0  0  0
 23 24  2  0  0  0  0
 24 22  1  0  0  0  0
 25 24  1  0  0  0  0
 26 25  1  0  0  0  0
 27 28  1  0  0  0  0
M  END
>  <MODEL>
9

>  <REMARK>
 VINA RESULT:      -3.5      3.740      7.899
  Name = 
  4 active torsions:
  status: ('A' for Active; 'I' for Inactive)
    1  A    between atoms: C_1  and  C_2
    2  A    between atoms: C_2  and  N_3
    3  A    between atoms: N_3  and  C_7
    4  A    between atoms: O_6  and  C_11
                            x       y       z     vdW  Elec       q    Type
                         _______ _______ _______ _____ _____    ______ ____

>  <TORSDO>
F 4

$$$$
