=
 OpenBabel11062409363D

 34 39  0  0  0  0  0  0  0  0999 V2000
  160.8370  209.4850  152.6780 C   0  0  0  0  0  0  0  0  0  0  0  0
  160.4790  212.9340  150.9980 C   0  0  0  0  0  3  0  0  0  0  0  0
  159.8390  212.0660  153.1570 C   0  0  0  0  0  3  0  0  0  0  0  0
  161.0690  207.2770  153.7370 C   0  0  0  0  0  0  0  0  0  0  0  0
  161.2700  208.1390  152.6220 C   0  0  0  0  0  3  0  0  0  0  0  0
  160.0170  209.0820  154.9180 C   0  0  0  0  0  0  0  0  0  0  0  0
  159.3900  209.7890  155.8840 N   0  0  0  0  0  0  0  0  0  0  0  0
  160.4250  207.7490  154.9100 C   0  0  0  0  0  3  0  0  0  0  0  0
  159.7570  211.0800  154.0790 N   0  0  0  0  0  0  0  0  0  0  0  0
  160.2270  209.8720  153.8500 C   0  0  0  0  0  0  0  0  0  0  0  0
  159.2410  211.0330  155.3300 C   0  0  0  0  0  3  0  0  0  0  0  0
  160.9590  213.0460  149.7650 C   0  0  0  0  0  3  0  0  0  0  0  0
  161.6190  212.0460  148.9200 C   0  0  0  0  0  0  0  0  0  0  0  0
  161.8590  210.7850  149.2740 C   0  0  0  0  0  3  0  0  0  0  0  0
  160.4490  211.7850  151.9100 C   0  0  0  0  0  0  0  0  0  0  0  0
  161.5570  210.0740  150.5200 C   0  0  0  0  0  3  0  0  0  0  0  0
  160.9630  210.4640  151.6540 C   0  0  0  0  0  0  0  0  0  0  0  0
  162.0460  212.4840  147.5760 C   0  0  0  0  0  0  0  0  0  0  0  0
  161.1010  212.6920  146.5770 O   0  0  0  0  0  0  0  0  0  0  0  0
  163.2640  212.6760  147.3160 O   0  0  0  0  0  1  0  0  0  0  0  0
  161.5050  205.8530  153.6560 C   0  0  0  0  0  2  0  0  0  0  0  0
  160.9890  203.5200  150.7130 C   0  0  0  0  0  3  0  0  0  0  0  0
  161.6500  206.2060  151.1820 C   0  0  0  0  0  3  0  0  0  0  0  0
  161.4100  204.7500  147.2430 C   0  0  0  0  0  0  0  0  0  0  0  0
  161.1590  203.8950  148.3260 C   0  0  0  0  0  3  0  0  0  0  0  0
  161.2370  204.3740  149.6360 C   0  0  0  0  0  0  0  0  0  0  0  0
  161.8220  206.5790  148.7950 C   0  0  0  0  0  3  0  0  0  0  0  0
  161.5710  205.7260  149.8720 C   0  0  0  0  0  0  0  0  0  0  0  0
  161.7410  206.0920  147.4860 C   0  0  0  0  0  3  0  0  0  0  0  0
  161.3940  205.3470  152.2580 C   0  0  0  0  0  0  0  0  0  0  0  0
  161.0700  204.0060  152.0220 C   0  0  0  0  0  3  0  0  0  0  0  0
  161.3270  204.2390  145.8660 C   0  0  0  0  0  0  0  0  0  0  0  0
  161.3360  202.9990  145.6430 O   0  0  0  0  0  1  0  0  0  0  0  0
  161.2380  205.1220  144.7960 O   0  0  0  0  0  0  0  0  0  0  0  0
  1 10  1  0  0  0  0
  2 15  1  0  0  0  0
  3  9  1  0  0  0  0
  4  8  2  0  0  0  0
  5  1  2  0  0  0  0
  5  4  1  0  0  0  0
  6  7  1  0  0  0  0
  8  6  1  0  0  0  0
  9 11  1  0  0  0  0
 10  9  1  0  0  0  0
 10  6  2  0  0  0  0
 11  7  2  0  0  0  0
 12  2  2  0  0  0  0
 13 14  2  0  0  0  0
 13 12  1  0  0  0  0
 14 16  1  0  0  0  0
 15  3  2  0  0  0  0
 16 17  2  0  0  0  0
 17 15  1  0  0  0  0
 17  1  1  0  0  0  0
 18 13  1  0  0  0  0
 19 18  2  0  0  0  0
 20 18  1  0  0  0  0
 21  4  1  0  0  0  0
 22 31  1  0  0  0  0
 23 30  1  0  0  0  0
 24 29  1  0  0  0  0
 24 25  2  0  0  0  0
 25 26  1  0  0  0  0
 26 28  1  0  0  0  0
 26 22  2  0  0  0  0
 27 28  1  0  0  0  0
 28 23  2  0  0  0  0
 29 27  2  0  0  0  0
 30 21  1  0  0  0  0
 31 30  2  0  0  0  0
 32 24  1  0  0  0  0
 33 32  1  0  0  0  0
 34 32  2  0  0  0  0
M  END
>  <MODEL>
1

>  <REMARK>
 VINA RESULT:     -11.5      0.000      0.000
  Name = 
  4 active torsions:
  status: ('A' for Active; 'I' for Inactive)
    1  A    between atoms: C_3  and  C_25
    2  A    between atoms: C_7  and  C_11
    3  A    between atoms: C_8  and  C_18
    4  A    between atoms: C_18  and  C_30
                            x       y       z     vdW  Elec       q    Type
                         _______ _______ _______ _____ _____    ______ ____

>  <TORSDO>
F 4

$$$$
=
 OpenBabel11062409363D

 34 39  0  0  0  0  0  0  0  0999 V2000
  160.8840  209.1820  152.6950 C   0  0  0  0  0  0  0  0  0  0  0  0
  160.6380  212.6900  151.1210 C   0  0  0  0  0  3  0  0  0  0  0  0
  159.9620  211.7760  153.2500 C   0  0  0  0  0  3  0  0  0  0  0  0
  161.0450  206.9360  153.6860 C   0  0  0  0  0  0  0  0  0  0  0  0
  161.2770  207.8250  152.5990 C   0  0  0  0  0  3  0  0  0  0  0  0
  160.0420  208.7340  154.9180 C   0  0  0  0  0  0  0  0  0  0  0  0
  159.4310  209.4290  155.9040 N   0  0  0  0  0  0  0  0  0  0  0  0
  160.4100  207.3910  154.8700 C   0  0  0  0  0  3  0  0  0  0  0  0
  159.8460  210.7640  154.1410 N   0  0  0  0  0  0  0  0  0  0  0  0
  160.2800  209.5500  153.8760 C   0  0  0  0  0  0  0  0  0  0  0  0
  159.3230  210.6940  155.3880 C   0  0  0  0  0  3  0  0  0  0  0  0
  161.1280  212.8260  149.8950 C   0  0  0  0  0  3  0  0  0  0  0  0
  161.7620  211.8330  149.0220 C   0  0  0  0  0  0  0  0  0  0  0  0
  161.9620  210.5550  149.3370 C   0  0  0  0  0  3  0  0  0  0  0  0
  160.5700  211.5140  151.9980 C   0  0  0  0  0  0  0  0  0  0  0  0
  161.6330  209.8150  150.5600 C   0  0  0  0  0  3  0  0  0  0  0  0
  161.0450  210.1880  151.7030 C   0  0  0  0  0  0  0  0  0  0  0  0
  162.2070  212.3000  147.6940 C   0  0  0  0  0  0  0  0  0  0  0  0
  161.2760  212.5460  146.6910 O   0  0  0  0  0  0  0  0  0  0  0  0
  163.4310  212.4800  147.4500 O   0  0  0  0  0  1  0  0  0  0  0  0
  161.4380  205.5020  153.5630 C   0  0  0  0  0  2  0  0  0  0  0  0
  161.5060  205.6040  149.7740 C   0  0  0  0  0  3  0  0  0  0  0  0
  161.1510  203.7230  151.8250 C   0  0  0  0  0  3  0  0  0  0  0  0
  160.9610  202.5160  147.8000 C   0  0  0  0  0  0  0  0  0  0  0  0
  161.2030  203.8590  148.1210 C   0  0  0  0  0  3  0  0  0  0  0  0
  161.2680  204.2650  149.4560 C   0  0  0  0  0  0  0  0  0  0  0  0
  160.8460  201.9790  150.1710 C   0  0  0  0  0  3  0  0  0  0  0  0
  161.0880  203.3170  150.4890 C   0  0  0  0  0  0  0  0  0  0  0  0
  160.7830  201.5800  148.8320 C   0  0  0  0  0  3  0  0  0  0  0  0
  161.3970  205.0650  152.1370 C   0  0  0  0  0  0  0  0  0  0  0  0
  161.5680  206.0040  151.1130 C   0  0  0  0  0  3  0  0  0  0  0  0
  160.8940  202.0950  146.3920 C   0  0  0  0  0  0  0  0  0  0  0  0
  160.8000  200.8750  146.0940 O   0  0  0  0  0  1  0  0  0  0  0  0
  160.9360  203.0420  145.3750 O   0  0  0  0  0  0  0  0  0  0  0  0
  1 10  1  0  0  0  0
  2 15  1  0  0  0  0
  3  9  1  0  0  0  0
  4  8  2  0  0  0  0
  5  1  2  0  0  0  0
  5  4  1  0  0  0  0
  6  7  1  0  0  0  0
  8  6  1  0  0  0  0
  9 11  1  0  0  0  0
 10  9  1  0  0  0  0
 10  6  2  0  0  0  0
 11  7  2  0  0  0  0
 12  2  2  0  0  0  0
 13 14  2  0  0  0  0
 13 12  1  0  0  0  0
 14 16  1  0  0  0  0
 15  3  2  0  0  0  0
 16 17  2  0  0  0  0
 17 15  1  0  0  0  0
 17  1  1  0  0  0  0
 18 13  1  0  0  0  0
 19 18  2  0  0  0  0
 20 18  1  0  0  0  0
 21  4  1  0  0  0  0
 22 31  1  0  0  0  0
 23 30  1  0  0  0  0
 24 25  2  0  0  0  0
 24 29  1  0  0  0  0
 25 26  1  0  0  0  0
 26 22  2  0  0  0  0
 26 28  1  0  0  0  0
 27 28  1  0  0  0  0
 28 23  2  0  0  0  0
 29 27  2  0  0  0  0
 30 21  1  0  0  0  0
 31 30  2  0  0  0  0
 32 24  1  0  0  0  0
 33 32  1  0  0  0  0
 34 32  2  0  0  0  0
M  END
>  <MODEL>
2

>  <REMARK>
 VINA RESULT:     -11.3      0.832      1.658
  Name = 
  4 active torsions:
  status: ('A' for Active; 'I' for Inactive)
    1  A    between atoms: C_3  and  C_25
    2  A    between atoms: C_7  and  C_11
    3  A    between atoms: C_8  and  C_18
    4  A    between atoms: C_18  and  C_30
                            x       y       z     vdW  Elec       q    Type
                         _______ _______ _______ _____ _____    ______ ____

>  <TORSDO>
F 4

$$$$
=
 OpenBabel11062409363D

 34 39  0  0  0  0  0  0  0  0999 V2000
  160.7690  208.9300  152.6430 C   0  0  0  0  0  0  0  0  0  0  0  0
  159.7130  212.5790  153.2830 C   0  0  0  0  0  3  0  0  0  0  0  0
  160.8290  211.4720  151.4520 C   0  0  0  0  0  3  0  0  0  0  0  0
  161.4410  206.5960  152.2500 C   0  0  0  0  0  0  0  0  0  0  0  0
  160.8380  207.5840  153.0780 C   0  0  0  0  0  3  0  0  0  0  0  0
  161.8960  208.2810  150.6030 C   0  0  0  0  0  0  0  0  0  0  0  0
  162.3250  208.8880  149.4740 N   0  0  0  0  0  0  0  0  0  0  0  0
  161.9880  206.9450  150.9880 C   0  0  0  0  0  3  0  0  0  0  0  0
  161.3460  210.3800  150.8450 N   0  0  0  0  0  0  0  0  0  0  0  0
  161.3160  209.1900  151.4070 C   0  0  0  0  0  0  0  0  0  0  0  0
  161.9670  210.1980  149.6550 C   0  0  0  0  0  3  0  0  0  0  0  0
  159.1040  212.8270  154.4360 C   0  0  0  0  0  3  0  0  0  0  0  0
  158.7610  211.9150  155.5320 C   0  0  0  0  0  0  0  0  0  0  0  0
  159.0200  210.6090  155.5480 C   0  0  0  0  0  3  0  0  0  0  0  0
  160.2380  211.3250  152.7300 C   0  0  0  0  0  0  0  0  0  0  0  0
  159.6770  209.7580  154.5510 C   0  0  0  0  0  3  0  0  0  0  0  0
  160.2030  210.0260  153.3500 C   0  0  0  0  0  0  0  0  0  0  0  0
  158.0760  212.5030  156.7000 C   0  0  0  0  0  0  0  0  0  0  0  0
  158.5400  213.6890  157.2580 O   0  0  0  0  0  1  0  0  0  0  0  0
  157.0670  211.9430  157.2070 O   0  0  0  0  0  0  0  0  0  0  0  0
  161.5330  205.1870  152.7300 C   0  0  0  0  0  2  0  0  0  0  0  0
  160.8130  201.9890  150.8250 C   0  0  0  0  0  3  0  0  0  0  0  0
  161.4440  204.6680  150.2830 C   0  0  0  0  0  3  0  0  0  0  0  0
  160.8860  201.9510  147.1210 C   0  0  0  0  0  0  0  0  0  0  0  0
  160.7570  201.5210  148.4490 C   0  0  0  0  0  3  0  0  0  0  0  0
  160.9400  202.4200  149.5030 C   0  0  0  0  0  0  0  0  0  0  0  0
  161.3890  204.1980  147.9070 C   0  0  0  0  0  3  0  0  0  0  0  0
  161.2590  203.7690  149.2290 C   0  0  0  0  0  0  0  0  0  0  0  0
  161.2030  203.2930  146.8570 C   0  0  0  0  0  3  0  0  0  0  0  0
  161.3090  204.2320  151.6060 C   0  0  0  0  0  0  0  0  0  0  0  0
  161.0000  202.8940  151.8760 C   0  0  0  0  0  3  0  0  0  0  0  0
  160.6920  200.9990  146.0160 C   0  0  0  0  0  0  0  0  0  0  0  0
  161.1680  199.8350  146.0840 O   0  0  0  0  0  1  0  0  0  0  0  0
  159.9800  201.3770  144.8830 O   0  0  0  0  0  0  0  0  0  0  0  0
  1  5  1  0  0  0  0
  1 17  1  0  0  0  0
  2 12  2  0  0  0  0
  3 15  2  0  0  0  0
  4 21  1  0  0  0  0
  4  5  2  0  0  0  0
  6  8  2  0  0  0  0
  6 10  1  0  0  0  0
  7 11  2  0  0  0  0
  7  6  1  0  0  0  0
  8  4  1  0  0  0  0
  9 10  1  0  0  0  0
  9  3  1  0  0  0  0
 10  1  2  0  0  0  0
 11  9  1  0  0  0  0
 12 13  1  0  0  0  0
 13 14  2  0  0  0  0
 13 18  1  0  0  0  0
 15  2  1  0  0  0  0
 15 17  1  0  0  0  0
 16 14  1  0  0  0  0
 17 16  2  0  0  0  0
 18 20  2  0  0  0  0
 18 19  1  0  0  0  0
 22 31  1  0  0  0  0
 23 30  1  0  0  0  0
 24 25  2  0  0  0  0
 25 26  1  0  0  0  0
 26 22  2  0  0  0  0
 27 28  1  0  0  0  0
 28 26  1  0  0  0  0
 28 23  2  0  0  0  0
 29 24  1  0  0  0  0
 29 27  2  0  0  0  0
 30 31  2  0  0  0  0
 30 21  1  0  0  0  0
 32 33  1  0  0  0  0
 32 24  1  0  0  0  0
 34 32  2  0  0  0  0
M  END
>  <MODEL>
3

>  <REMARK>
 VINA RESULT:     -11.1      3.279      4.721
  Name = 
  4 active torsions:
  status: ('A' for Active; 'I' for Inactive)
    1  A    between atoms: C_3  and  C_25
    2  A    between atoms: C_7  and  C_11
    3  A    between atoms: C_8  and  C_18
    4  A    between atoms: C_18  and  C_30
                            x       y       z     vdW  Elec       q    Type
                         _______ _______ _______ _____ _____    ______ ____

>  <TORSDO>
F 4

$$$$
=
 OpenBabel11062409363D

 34 39  0  0  0  0  0  0  0  0999 V2000
  161.5270  207.4390  150.9830 C   0  0  0  0  0  0  0  0  0  0  0  0
  161.3550  205.1640  147.8790 C   0  0  0  0  0  3  0  0  0  0  0  0
  161.7690  207.5220  148.1870 C   0  0  0  0  0  3  0  0  0  0  0  0
  161.6310  208.8810  152.9740 C   0  0  0  0  0  0  0  0  0  0  0  0
  161.4380  207.5980  152.3870 C   0  0  0  0  0  3  0  0  0  0  0  0
  161.9810  209.8080  150.7890 C   0  0  0  0  0  0  0  0  0  0  0  0
  162.2220  210.6900  149.7930 N   0  0  0  0  0  0  0  0  0  0  0  0
  161.9020  210.0140  152.1650 C   0  0  0  0  0  3  0  0  0  0  0  0
  161.9130  208.6250  148.9550 N   0  0  0  0  0  0  0  0  0  0  0  0
  161.7990  208.5820  150.2660 C   0  0  0  0  0  0  0  0  0  0  0  0
  162.1730  209.9210  148.6600 C   0  0  0  0  0  3  0  0  0  0  0  0
  161.0970  203.8800  148.0980 C   0  0  0  0  0  3  0  0  0  0  0  0
  160.8600  203.1720  149.3600 C   0  0  0  0  0  0  0  0  0  0  0  0
  160.8670  203.7370  150.5660 C   0  0  0  0  0  3  0  0  0  0  0  0
  161.4870  206.2850  148.8170 C   0  0  0  0  0  0  0  0  0  0  0  0
  161.0960  205.1300  150.9620 C   0  0  0  0  0  3  0  0  0  0  0  0
  161.3610  206.2320  150.2510 C   0  0  0  0  0  0  0  0  0  0  0  0
  160.5950  201.7220  149.2720 C   0  0  0  0  0  0  0  0  0  0  0  0
  161.5630  200.8650  148.7620 O   0  0  0  0  0  0  0  0  0  0  0  0
  159.4940  201.2430  149.6560 O   0  0  0  0  0  1  0  0  0  0  0  0
  161.5070  209.0420  154.4520 C   0  0  0  0  0  2  0  0  0  0  0  0
  158.3960  210.2230  156.2680 C   0  0  0  0  0  3  0  0  0  0  0  0
  159.8400  210.8380  153.9420 C   0  0  0  0  0  3  0  0  0  0  0  0
  156.3430  212.9780  154.8820 C   0  0  0  0  0  0  0  0  0  0  0  0
  156.7910  211.9550  155.7300 C   0  0  0  0  0  3  0  0  0  0  0  0
  157.9520  211.2420  155.4230 C   0  0  0  0  0  0  0  0  0  0  0  0
  158.2320  212.5690  153.4050 C   0  0  0  0  0  3  0  0  0  0  0  0
  158.6780  211.5520  154.2510 C   0  0  0  0  0  0  0  0  0  0  0  0
  157.0690  213.2800  153.7190 C   0  0  0  0  0  3  0  0  0  0  0  0
  160.2830  209.8210  154.7960 C   0  0  0  0  0  0  0  0  0  0  0  0
  159.5590  209.5110  155.9530 C   0  0  0  0  0  3  0  0  0  0  0  0
  155.1190  213.7250  155.2120 C   0  0  0  0  0  0  0  0  0  0  0  0
  154.4910  214.3510  154.3160 O   0  0  0  0  0  0  0  0  0  0  0  0
  154.6430  213.7490  156.5180 O   0  0  0  0  0  1  0  0  0  0  0  0
  1  5  1  0  0  0  0
  2 12  2  0  0  0  0
  2 15  1  0  0  0  0
  3 15  2  0  0  0  0
  3  9  1  0  0  0  0
  4 21  1  0  0  0  0
  5  4  2  0  0  0  0
  6  8  2  0  0  0  0
  7  6  1  0  0  0  0
  8  4  1  0  0  0  0
  9 10  1  0  0  0  0
 10  6  1  0  0  0  0
 10  1  2  0  0  0  0
 11  9  1  0  0  0  0
 11  7  2  0  0  0  0
 12 13  1  0  0  0  0
 13 14  2  0  0  0  0
 14 16  1  0  0  0  0
 15 17  1  0  0  0  0
 17 16  2  0  0  0  0
 17  1  1  0  0  0  0
 18 13  1  0  0  0  0
 18 20  1  0  0  0  0
 19 18  2  0  0  0  0
 21 30  1  0  0  0  0
 23 28  2  0  0  0  0
 23 30  1  0  0  0  0
 24 32  1  0  0  0  0
 24 25  2  0  0  0  0
 26 25  1  0  0  0  0
 26 22  2  0  0  0  0
 27 29  2  0  0  0  0
 27 28  1  0  0  0  0
 28 26  1  0  0  0  0
 29 24  1  0  0  0  0
 30 31  2  0  0  0  0
 31 22  1  0  0  0  0
 32 34  1  0  0  0  0
 33 32  2  0  0  0  0
M  END
>  <MODEL>
4

>  <REMARK>
 VINA RESULT:     -11.1      3.569      8.731
  Name = 
  4 active torsions:
  status: ('A' for Active; 'I' for Inactive)
    1  A    between atoms: C_3  and  C_25
    2  A    between atoms: C_7  and  C_11
    3  A    between atoms: C_8  and  C_18
    4  A    between atoms: C_18  and  C_30
                            x       y       z     vdW  Elec       q    Type
                         _______ _______ _______ _____ _____    ______ ____

>  <TORSDO>
F 4

$$$$
=
 OpenBabel11062409363D

 34 39  0  0  0  0  0  0  0  0999 V2000
  160.5040  210.4060  152.8300 C   0  0  0  0  0  0  0  0  0  0  0  0
  160.0870  213.5700  150.6720 C   0  0  0  0  0  3  0  0  0  0  0  0
  159.3050  212.9450  152.8680 C   0  0  0  0  0  3  0  0  0  0  0  0
  160.7760  208.3780  154.1960 C   0  0  0  0  0  0  0  0  0  0  0  0
  161.0250  209.1000  152.9950 C   0  0  0  0  0  3  0  0  0  0  0  0
  159.5070  210.2370  155.0280 C   0  0  0  0  0  0  0  0  0  0  0  0
  158.7490  211.0150  155.8330 N   0  0  0  0  0  0  0  0  0  0  0  0
  159.9980  208.9490  155.2360 C   0  0  0  0  0  3  0  0  0  0  0  0
  159.2010  212.0840  153.9060 N   0  0  0  0  0  0  0  0  0  0  0  0
  159.7650  210.8950  153.8840 C   0  0  0  0  0  0  0  0  0  0  0  0
  158.5750  212.1610  155.1040 C   0  0  0  0  0  3  0  0  0  0  0  0
  160.6710  213.5560  149.4800 C   0  0  0  0  0  3  0  0  0  0  0  0
  161.4690  212.5080  148.8370 C   0  0  0  0  0  0  0  0  0  0  0  0
  161.7540  211.3250  149.3790 C   0  0  0  0  0  3  0  0  0  0  0  0
  160.0450  212.5500  151.7270 C   0  0  0  0  0  0  0  0  0  0  0  0
  161.3830  210.7610  150.6810 C   0  0  0  0  0  3  0  0  0  0  0  0
  160.6630  211.2500  151.6970 C   0  0  0  0  0  0  0  0  0  0  0  0
  161.9900  212.7980  147.4870 C   0  0  0  0  0  0  0  0  0  0  0  0
  161.1200  213.1730  146.4690 O   0  0  0  0  0  0  0  0  0  0  0  0
  163.2220  212.7090  147.2370 O   0  0  0  0  0  1  0  0  0  0  0  0
  161.3070  206.9920  154.3470 C   0  0  0  0  0  2  0  0  0  0  0  0
  161.2670  206.3300  150.6150 C   0  0  0  0  0  3  0  0  0  0  0  0
  161.1900  204.8770  153.0130 C   0  0  0  0  0  3  0  0  0  0  0  0
  161.0440  202.8650  149.3220 C   0  0  0  0  0  0  0  0  0  0  0  0
  161.1320  204.2640  149.3580 C   0  0  0  0  0  3  0  0  0  0  0  0
  161.1820  204.9370  150.5810 C   0  0  0  0  0  0  0  0  0  0  0  0
  161.0520  202.8110  151.7550 C   0  0  0  0  0  3  0  0  0  0  0  0
  161.1410  204.2040  151.7890 C   0  0  0  0  0  0  0  0  0  0  0  0
  161.0040  202.1440  150.5260 C   0  0  0  0  0  3  0  0  0  0  0  0
  161.2820  206.2730  153.0410 C   0  0  0  0  0  0  0  0  0  0  0  0
  161.3150  206.9980  151.8430 C   0  0  0  0  0  3  0  0  0  0  0  0
  160.9920  202.1630  148.0310 C   0  0  0  0  0  0  0  0  0  0  0  0
  160.7900  200.9200  147.9860 O   0  0  0  0  0  1  0  0  0  0  0  0
  161.1670  202.8660  146.8440 O   0  0  0  0  0  0  0  0  0  0  0  0
  1  5  2  0  0  0  0
  1 10  1  0  0  0  0
  2 15  1  0  0  0  0
  3  9  1  0  0  0  0
  4 21  1  0  0  0  0
  4  8  2  0  0  0  0
  5  4  1  0  0  0  0
  6  8  1  0  0  0  0
  6  7  1  0  0  0  0
  9 11  1  0  0  0  0
 10  9  1  0  0  0  0
 10  6  2  0  0  0  0
 11  7  2  0  0  0  0
 12  2  2  0  0  0  0
 13 14  2  0  0  0  0
 13 12  1  0  0  0  0
 14 16  1  0  0  0  0
 15  3  2  0  0  0  0
 16 17  2  0  0  0  0
 17 15  1  0  0  0  0
 17  1  1  0  0  0  0
 18 13  1  0  0  0  0
 19 18  2  0  0  0  0
 20 18  1  0  0  0  0
 22 31  1  0  0  0  0
 23 30  1  0  0  0  0
 24 25  2  0  0  0  0
 24 29  1  0  0  0  0
 25 26  1  0  0  0  0
 26 22  2  0  0  0  0
 26 28  1  0  0  0  0
 27 28  1  0  0  0  0
 28 23  2  0  0  0  0
 29 27  2  0  0  0  0
 30 21  1  0  0  0  0
 31 30  2  0  0  0  0
 32 24  1  0  0  0  0
 33 32  1  0  0  0  0
 34 32  2  0  0  0  0
M  END
>  <MODEL>
5

>  <REMARK>
 VINA RESULT:     -11.1      1.268      2.015
  Name = 
  4 active torsions:
  status: ('A' for Active; 'I' for Inactive)
    1  A    between atoms: C_3  and  C_25
    2  A    between atoms: C_7  and  C_11
    3  A    between atoms: C_8  and  C_18
    4  A    between atoms: C_18  and  C_30
                            x       y       z     vdW  Elec       q    Type
                         _______ _______ _______ _____ _____    ______ ____

>  <TORSDO>
F 4

$$$$
=
 OpenBabel11062409363D

 34 39  0  0  0  0  0  0  0  0999 V2000
  160.9170  208.6610  152.3990 C   0  0  0  0  0  0  0  0  0  0  0  0
  159.6980  210.1240  155.7480 C   0  0  0  0  0  3  0  0  0  0  0  0
  160.4400  207.9310  155.0690 C   0  0  0  0  0  3  0  0  0  0  0  0
  161.6910  207.7390  150.2540 C   0  0  0  0  0  0  0  0  0  0  0  0
  161.2100  208.8340  151.0260 C   0  0  0  0  0  3  0  0  0  0  0  0
  161.5700  206.3400  152.2000 C   0  0  0  0  0  0  0  0  0  0  0  0
  161.6460  205.2600  153.0100 N   0  0  0  0  0  0  0  0  0  0  0  0
  161.8720  206.4610  150.8450 C   0  0  0  0  0  3  0  0  0  0  0  0
  160.9010  207.0490  154.1520 N   0  0  0  0  0  0  0  0  0  0  0  0
  161.1230  207.3960  152.9020 C   0  0  0  0  0  0  0  0  0  0  0  0
  161.2210  205.7350  154.2230 C   0  0  0  0  0  3  0  0  0  0  0  0
  159.3610  211.4080  155.7470 C   0  0  0  0  0  3  0  0  0  0  0  0
  159.3770  212.3820  154.6510 C   0  0  0  0  0  0  0  0  0  0  0  0
  159.7580  212.1200  153.4020 C   0  0  0  0  0  3  0  0  0  0  0  0
  160.1920  209.2650  154.6650 C   0  0  0  0  0  0  0  0  0  0  0  0
  160.2360  210.8740  152.7960 C   0  0  0  0  0  3  0  0  0  0  0  0
  160.4330  209.6500  153.2990 C   0  0  0  0  0  0  0  0  0  0  0  0
  158.9360  213.7550  154.9700 C   0  0  0  0  0  0  0  0  0  0  0  0
  158.1020  214.4410  154.0950 O   0  0  0  0  0  0  0  0  0  0  0  0
  159.3070  214.3210  156.0340 O   0  0  0  0  0  1  0  0  0  0  0  0
  161.9700  207.9260  148.8000 C   0  0  0  0  0  2  0  0  0  0  0  0
  161.7940  205.4040  145.9750 C   0  0  0  0  0  3  0  0  0  0  0  0
  161.4840  205.4700  148.7630 C   0  0  0  0  0  3  0  0  0  0  0  0
  160.9720  201.8590  146.6690 C   0  0  0  0  0  0  0  0  0  0  0  0
  161.2990  203.0330  145.9760 C   0  0  0  0  0  3  0  0  0  0  0  0
  161.4710  204.2350  146.6670 C   0  0  0  0  0  0  0  0  0  0  0  0
  160.9860  203.0990  148.7620 C   0  0  0  0  0  3  0  0  0  0  0  0
  161.3130  204.2680  148.0710 C   0  0  0  0  0  0  0  0  0  0  0  0
  160.8170  201.9000  148.0630 C   0  0  0  0  0  3  0  0  0  0  0  0
  161.8140  206.6380  148.0650 C   0  0  0  0  0  0  0  0  0  0  0  0
  161.9640  206.6050  146.6730 C   0  0  0  0  0  3  0  0  0  0  0  0
  160.7930  200.5960  145.9350 C   0  0  0  0  0  0  0  0  0  0  0  0
  160.0880  200.5580  144.8920 O   0  0  0  0  0  0  0  0  0  0  0  0
  161.4000  199.4300  146.3880 O   0  0  0  0  0  1  0  0  0  0  0  0
  1 10  1  0  0  0  0
  1 17  1  0  0  0  0
  4  8  2  0  0  0  0
  4  5  1  0  0  0  0
  5  1  2  0  0  0  0
  6 10  2  0  0  0  0
  6  7  1  0  0  0  0
  7 11  2  0  0  0  0
  8  6  1  0  0  0  0
  9 11  1  0  0  0  0
  9  3  1  0  0  0  0
 10  9  1  0  0  0  0
 12  2  2  0  0  0  0
 13 18  1  0  0  0  0
 13 12  1  0  0  0  0
 14 13  2  0  0  0  0
 15  3  2  0  0  0  0
 15  2  1  0  0  0  0
 16 17  2  0  0  0  0
 16 14  1  0  0  0  0
 17 15  1  0  0  0  0
 18 20  1  0  0  0  0
 19 18  2  0  0  0  0
 21  4  1  0  0  0  0
 22 26  2  0  0  0  0
 22 31  1  0  0  0  0
 24 29  1  0  0  0  0
 25 26  1  0  0  0  0
 25 24  2  0  0  0  0
 26 28  1  0  0  0  0
 28 27  1  0  0  0  0
 28 23  2  0  0  0  0
 29 27  2  0  0  0  0
 30 23  1  0  0  0  0
 30 21  1  0  0  0  0
 31 30  2  0  0  0  0
 32 34  1  0  0  0  0
 32 24  1  0  0  0  0
 33 32  2  0  0  0  0
M  END
>  <MODEL>
6

>  <REMARK>
 VINA RESULT:     -10.9      2.953      4.819
  Name = 
  4 active torsions:
  status: ('A' for Active; 'I' for Inactive)
    1  A    between atoms: C_3  and  C_25
    2  A    between atoms: C_7  and  C_11
    3  A    between atoms: C_8  and  C_18
    4  A    between atoms: C_18  and  C_30
                            x       y       z     vdW  Elec       q    Type
                         _______ _______ _______ _____ _____    ______ ____

>  <TORSDO>
F 4

$$$$
=
 OpenBabel11062409363D

 34 39  0  0  0  0  0  0  0  0999 V2000
  161.3270  206.7760  150.5150 C   0  0  0  0  0  0  0  0  0  0  0  0
  161.1170  203.5980  148.3480 C   0  0  0  0  0  3  0  0  0  0  0  0
  161.1440  203.9820  150.7300 C   0  0  0  0  0  3  0  0  0  0  0  0
  161.4650  208.8140  151.8860 C   0  0  0  0  0  0  0  0  0  0  0  0
  161.4250  208.1850  150.6090 C   0  0  0  0  0  3  0  0  0  0  0  0
  161.3230  206.6590  152.9310 C   0  0  0  0  0  0  0  0  0  0  0  0
  161.2630  205.6920  153.8750 N   0  0  0  0  0  0  0  0  0  0  0  0
  161.4200  208.0410  153.0750 C   0  0  0  0  0  3  0  0  0  0  0  0
  161.1960  204.7860  151.8160 N   0  0  0  0  0  0  0  0  0  0  0  0
  161.2820  206.0960  151.7100 C   0  0  0  0  0  0  0  0  0  0  0  0
  161.1840  204.5340  153.1470 C   0  0  0  0  0  3  0  0  0  0  0  0
  161.1300  203.7740  147.0320 C   0  0  0  0  0  3  0  0  0  0  0  0
  161.2140  205.0130  146.2520 C   0  0  0  0  0  0  0  0  0  0  0  0
  161.2950  206.2380  146.7690 C   0  0  0  0  0  3  0  0  0  0  0  0
  161.1820  204.5720  149.4430 C   0  0  0  0  0  0  0  0  0  0  0  0
  161.3230  206.6790  148.1670 C   0  0  0  0  0  3  0  0  0  0  0  0
  161.2770  206.0040  149.3220 C   0  0  0  0  0  0  0  0  0  0  0  0
  161.2070  204.8780  144.7820 C   0  0  0  0  0  0  0  0  0  0  0  0
  160.3400  203.9820  144.1670 O   0  0  0  0  0  1  0  0  0  0  0  0
  161.9830  205.5680  144.0660 O   0  0  0  0  0  0  0  0  0  0  0  0
  161.5960  210.2970  151.9740 C   0  0  0  0  0  2  0  0  0  0  0  0
  160.3310  211.5420  155.3240 C   0  0  0  0  0  3  0  0  0  0  0  0
  159.3530  211.1120  152.7300 C   0  0  0  0  0  3  0  0  0  0  0  0
  156.7980  212.5800  155.7310 C   0  0  0  0  0  0  0  0  0  0  0  0
  158.1420  212.3050  156.0240 C   0  0  0  0  0  3  0  0  0  0  0  0
  158.9940  211.8180  155.0300 C   0  0  0  0  0  0  0  0  0  0  0  0
  157.1630  211.8740  153.4320 C   0  0  0  0  0  3  0  0  0  0  0  0
  158.5000  211.6010  153.7240 C   0  0  0  0  0  0  0  0  0  0  0  0
  156.3150  212.3620  154.4320 C   0  0  0  0  0  3  0  0  0  0  0  0
  160.6940  210.8430  153.0280 C   0  0  0  0  0  0  0  0  0  0  0  0
  161.1790  211.0530  154.3240 C   0  0  0  0  0  3  0  0  0  0  0  0
  155.9060  213.0930  156.7820 C   0  0  0  0  0  0  0  0  0  0  0  0
  156.0770  214.2460  157.2610 O   0  0  0  0  0  1  0  0  0  0  0  0
  154.8620  212.3070  157.2600 O   0  0  0  0  0  0  0  0  0  0  0  0
  1  5  2  0  0  0  0
  1 10  1  0  0  0  0
  2 15  1  0  0  0  0
  3  9  1  0  0  0  0
  4 21  1  0  0  0  0
  4  8  2  0  0  0  0
  5  4  1  0  0  0  0
  6  8  1  0  0  0  0
  6  7  1  0  0  0  0
  9 11  1  0  0  0  0
 10  9  1  0  0  0  0
 10  6  2  0  0  0  0
 11  7  2  0  0  0  0
 12  2  2  0  0  0  0
 13 14  2  0  0  0  0
 13 12  1  0  0  0  0
 14 16  1  0  0  0  0
 15  3  2  0  0  0  0
 16 17  2  0  0  0  0
 17 15  1  0  0  0  0
 17  1  1  0  0  0  0
 18 13  1  0  0  0  0
 19 18  1  0  0  0  0
 20 18  2  0  0  0  0
 21 30  1  0  0  0  0
 23 30  2  0  0  0  0
 23 28  1  0  0  0  0
 24 25  1  0  0  0  0
 24 32  1  0  0  0  0
 26 22  1  0  0  0  0
 26 25  2  0  0  0  0
 27 28  2  0  0  0  0
 27 29  1  0  0  0  0
 28 26  1  0  0  0  0
 29 24  2  0  0  0  0
 30 31  1  0  0  0  0
 31 22  2  0  0  0  0
 32 34  2  0  0  0  0
 32 33  1  0  0  0  0
M  END
>  <MODEL>
7

>  <REMARK>
 VINA RESULT:     -10.8      3.601      8.503
  Name = 
  4 active torsions:
  status: ('A' for Active; 'I' for Inactive)
    1  A    between atoms: C_3  and  C_25
    2  A    between atoms: C_7  and  C_11
    3  A    between atoms: C_8  and  C_18
    4  A    between atoms: C_18  and  C_30
                            x       y       z     vdW  Elec       q    Type
                         _______ _______ _______ _____ _____    ______ ____

>  <TORSDO>
F 4

$$$$
=
 OpenBabel11062409363D

 34 39  0  0  0  0  0  0  0  0999 V2000
  159.6490  211.8870  152.0270 C   0  0  0  0  0  0  0  0  0  0  0  0
  156.5950  213.9610  153.1310 C   0  0  0  0  0  3  0  0  0  0  0  0
  158.0630  214.0590  151.2170 C   0  0  0  0  0  3  0  0  0  0  0  0
  161.5990  210.5570  151.3370 C   0  0  0  0  0  0  0  0  0  0  0  0
  160.5570  210.8290  152.2680 C   0  0  0  0  0  3  0  0  0  0  0  0
  160.8300  212.3760  149.9730 C   0  0  0  0  0  0  0  0  0  0  0  0
  160.7340  213.2710  148.9650 N   0  0  0  0  0  0  0  0  0  0  0  0
  161.7490  211.3450  150.1670 C   0  0  0  0  0  3  0  0  0  0  0  0
  159.1130  213.6220  150.4860 N   0  0  0  0  0  0  0  0  0  0  0  0
  159.8540  212.6030  150.8700 C   0  0  0  0  0  0  0  0  0  0  0  0
  159.6510  214.0350  149.3140 C   0  0  0  0  0  3  0  0  0  0  0  0
  156.0230  213.6120  154.2770 C   0  0  0  0  0  3  0  0  0  0  0  0
  156.3740  212.5380  155.2120 C   0  0  0  0  0  0  0  0  0  0  0  0
  157.3860  211.6870  155.0540 C   0  0  0  0  0  3  0  0  0  0  0  0
  157.7550  213.3960  152.4310 C   0  0  0  0  0  0  0  0  0  0  0  0
  158.3770  211.5790  153.9790 C   0  0  0  0  0  3  0  0  0  0  0  0
  158.5630  212.2820  152.8560 C   0  0  0  0  0  0  0  0  0  0  0  0
  155.5320  212.4020  156.4180 C   0  0  0  0  0  0  0  0  0  0  0  0
  155.2010  211.1400  156.8980 O   0  0  0  0  0  0  0  0  0  0  0  0
  155.1040  213.4200  157.0250 O   0  0  0  0  0  1  0  0  0  0  0  0
  162.5680  209.4570  151.6140 C   0  0  0  0  0  2  0  0  0  0  0  0
  161.5610  207.1040  148.8170 C   0  0  0  0  0  3  0  0  0  0  0  0
  162.0050  207.0180  151.5860 C   0  0  0  0  0  3  0  0  0  0  0  0
  160.8310  203.5420  149.5280 C   0  0  0  0  0  0  0  0  0  0  0  0
  161.0020  204.7470  148.8330 C   0  0  0  0  0  3  0  0  0  0  0  0
  161.3930  205.9040  149.5110 C   0  0  0  0  0  0  0  0  0  0  0  0
  161.4440  204.6610  151.6000 C   0  0  0  0  0  3  0  0  0  0  0  0
  161.6150  205.8600  150.9060 C   0  0  0  0  0  0  0  0  0  0  0  0
  161.0530  203.5060  150.9140 C   0  0  0  0  0  3  0  0  0  0  0  0
  162.1780  208.2160  150.8840 C   0  0  0  0  0  0  0  0  0  0  0  0
  161.9510  208.2590  149.5030 C   0  0  0  0  0  3  0  0  0  0  0  0
  160.4190  202.3270  148.8080 C   0  0  0  0  0  0  0  0  0  0  0  0
  160.8310  202.1080  147.6370 O   0  0  0  0  0  0  0  0  0  0  0  0
  159.5690  201.4080  149.4130 O   0  0  0  0  0  1  0  0  0  0  0  0
  1  5  1  0  0  0  0
  1 17  1  0  0  0  0
  2 12  2  0  0  0  0
  3 15  2  0  0  0  0
  4 21  1  0  0  0  0
  4  5  2  0  0  0  0
  6  8  2  0  0  0  0
  6 10  1  0  0  0  0
  7 11  2  0  0  0  0
  7  6  1  0  0  0  0
  8  4  1  0  0  0  0
  9 10  1  0  0  0  0
  9  3  1  0  0  0  0
 10  1  2  0  0  0  0
 11  9  1  0  0  0  0
 12 13  1  0  0  0  0
 13 18  1  0  0  0  0
 14 13  2  0  0  0  0
 15 17  1  0  0  0  0
 15  2  1  0  0  0  0
 16 14  1  0  0  0  0
 17 16  2  0  0  0  0
 18 19  2  0  0  0  0
 18 20  1  0  0  0  0
 22 31  2  0  0  0  0
 22 26  1  0  0  0  0
 24 29  1  0  0  0  0
 25 26  1  0  0  0  0
 25 24  2  0  0  0  0
 26 28  2  0  0  0  0
 28 23  1  0  0  0  0
 28 27  1  0  0  0  0
 29 27  2  0  0  0  0
 30 23  2  0  0  0  0
 30 21  1  0  0  0  0
 31 30  1  0  0  0  0
 32 34  1  0  0  0  0
 32 24  1  0  0  0  0
 33 32  2  0  0  0  0
M  END
>  <MODEL>
8

>  <REMARK>
 VINA RESULT:     -10.1      3.726      5.657
  Name = 
  4 active torsions:
  status: ('A' for Active; 'I' for Inactive)
    1  A    between atoms: C_3  and  C_25
    2  A    between atoms: C_7  and  C_11
    3  A    between atoms: C_8  and  C_18
    4  A    between atoms: C_18  and  C_30
                            x       y       z     vdW  Elec       q    Type
                         _______ _______ _______ _____ _____    ______ ____

>  <TORSDO>
F 4

$$$$
=
 OpenBabel11062409363D

 34 39  0  0  0  0  0  0  0  0999 V2000
  161.0060  207.9150  151.5870 C   0  0  0  0  0  0  0  0  0  0  0  0
  161.4860  204.6770  149.5570 C   0  0  0  0  0  3  0  0  0  0  0  0
  161.3150  205.1440  151.9180 C   0  0  0  0  0  3  0  0  0  0  0  0
  160.7020  209.9920  152.8700 C   0  0  0  0  0  0  0  0  0  0  0  0
  160.8440  209.3210  151.6230 C   0  0  0  0  0  3  0  0  0  0  0  0
  160.8930  207.8850  154.0030 C   0  0  0  0  0  0  0  0  0  0  0  0
  160.9560  206.9580  154.9850 N   0  0  0  0  0  0  0  0  0  0  0  0
  160.7320  209.2670  154.0900 C   0  0  0  0  0  3  0  0  0  0  0  0
  161.1640  205.9820  152.9690 N   0  0  0  0  0  0  0  0  0  0  0  0
  161.0190  207.2810  152.8080 C   0  0  0  0  0  0  0  0  0  0  0  0
  161.1260  205.7800  154.3070 C   0  0  0  0  0  3  0  0  0  0  0  0
  161.5390  204.8060  148.2370 C   0  0  0  0  0  3  0  0  0  0  0  0
  161.4410  206.0110  147.4070 C   0  0  0  0  0  0  0  0  0  0  0  0
  161.2730  207.2470  147.8720 C   0  0  0  0  0  3  0  0  0  0  0  0
  161.3160  205.6850  150.6090 C   0  0  0  0  0  0  0  0  0  0  0  0
  161.1460  207.7360  149.2480 C   0  0  0  0  0  3  0  0  0  0  0  0
  161.1590  207.1050  150.4290 C   0  0  0  0  0  0  0  0  0  0  0  0
  161.5380  205.8250  145.9450 C   0  0  0  0  0  0  0  0  0  0  0  0
  160.4850  206.2080  145.1210 O   0  0  0  0  0  0  0  0  0  0  0  0
  162.5690  205.3190  145.4260 O   0  0  0  0  0  1  0  0  0  0  0  0
  160.5600  211.4770  152.8980 C   0  0  0  0  0  2  0  0  0  0  0  0
  159.4550  213.3380  149.7860 C   0  0  0  0  0  3  0  0  0  0  0  0
  161.5830  211.7130  150.6250 C   0  0  0  0  0  3  0  0  0  0  0  0
  161.4990  213.2160  146.6980 C   0  0  0  0  0  0  0  0  0  0  0  0
  160.4640  213.5260  147.5920 C   0  0  0  0  0  3  0  0  0  0  0  0
  160.4880  213.0300  148.8970 C   0  0  0  0  0  0  0  0  0  0  0  0
  162.5890  211.9000  148.4290 C   0  0  0  0  0  3  0  0  0  0  0  0
  161.5590  212.2110  149.3190 C   0  0  0  0  0  0  0  0  0  0  0  0
  162.5600  212.4010  147.1240 C   0  0  0  0  0  3  0  0  0  0  0  0
  160.5480  212.0300  151.5130 C   0  0  0  0  0  0  0  0  0  0  0  0
  159.4840  212.8360  151.0910 C   0  0  0  0  0  3  0  0  0  0  0  0
  161.4680  213.7420  145.3240 C   0  0  0  0  0  0  0  0  0  0  0  0
  160.4730  214.3950  144.9120 O   0  0  0  0  0  1  0  0  0  0  0  0
  162.5400  213.5220  144.4650 O   0  0  0  0  0  0  0  0  0  0  0  0
  1  5  2  0  0  0  0
  1 10  1  0  0  0  0
  2 15  1  0  0  0  0
  3  9  1  0  0  0  0
  4 21  1  0  0  0  0
  4  8  2  0  0  0  0
  5  4  1  0  0  0  0
  6  8  1  0  0  0  0
  6  7  1  0  0  0  0
  9 11  1  0  0  0  0
 10  9  1  0  0  0  0
 10  6  2  0  0  0  0
 11  7  2  0  0  0  0
 12  2  2  0  0  0  0
 13 14  2  0  0  0  0
 13 12  1  0  0  0  0
 14 16  1  0  0  0  0
 15  3  2  0  0  0  0
 16 17  2  0  0  0  0
 17 15  1  0  0  0  0
 17  1  1  0  0  0  0
 18 13  1  0  0  0  0
 19 18  2  0  0  0  0
 20 18  1  0  0  0  0
 22 31  1  0  0  0  0
 23 30  1  0  0  0  0
 24 29  1  0  0  0  0
 24 25  2  0  0  0  0
 25 26  1  0  0  0  0
 26 28  1  0  0  0  0
 26 22  2  0  0  0  0
 27 28  1  0  0  0  0
 28 23  2  0  0  0  0
 29 27  2  0  0  0  0
 30 21  1  0  0  0  0
 31 30  2  0  0  0  0
 32 24  1  0  0  0  0
 33 32  1  0  0  0  0
 34 32  2  0  0  0  0
M  END
>  <MODEL>
9

>  <REMARK>
 VINA RESULT:      -9.6      1.644      6.636
  Name = 
  4 active torsions:
  status: ('A' for Active; 'I' for Inactive)
    1  A    between atoms: C_3  and  C_25
    2  A    between atoms: C_7  and  C_11
    3  A    between atoms: C_8  and  C_18
    4  A    between atoms: C_18  and  C_30
                            x       y       z     vdW  Elec       q    Type
                         _______ _______ _______ _____ _____    ______ ____

>  <TORSDO>
F 4

$$$$
