=
 OpenBabel11062409073D

 37 41  0  0  1  0  0  0  0  0999 V2000
  162.2740  210.1540  155.1410 C   0  0  1  0  0  0  0  0  0  0  0  0
  160.5260  209.0440  152.5010 C   0  0  2  0  0  3  0  0  0  0  0  0
  161.4220  207.8560  154.9640 O   0  0  0  0  0  0  0  0  0  0  0  0
  161.6830  209.5680  151.6550 C   0  0  0  0  0  2  0  0  0  0  0  0
  160.2910  209.7800  153.8350 C   0  0  2  0  0  3  0  0  0  0  0  0
  161.6920  208.9120  150.2600 C   0  0  1  0  0  3  0  0  0  0  0  0
  161.4180  205.8060  153.9510 O   0  0  0  0  0  0  0  0  0  0  0  0
  160.6310  211.2040  153.7040 N   0  0  2  0  0  0  0  0  0  0  0  0
  163.3460  209.6950  154.3710 O   0  0  0  0  0  1  0  0  0  0  0  0
  160.4570  205.6130  151.4190 O   0  0  0  0  0  0  0  0  0  0  0  0
  161.1690  207.0390  153.8640 C   0  0  0  0  0  0  0  0  0  0  0  0
  161.7700  211.4740  154.5900 C   0  0  0  0  0  2  0  0  0  0  0  0
  160.6640  207.6000  152.6420 N   0  0  0  0  0  0  0  0  0  0  0  0
  161.0820  209.2410  155.0190 C   0  0  2  0  0  3  0  0  0  0  0  0
  160.8990  207.5870  150.1090 C   0  0  2  0  0  3  0  0  0  0  0  0
  162.6960  210.3040  156.5870 C   0  0  0  0  0  1  0  0  0  0  0  0
  160.6840  206.8540  151.4150 C   0  0  0  0  0  0  0  0  0  0  0  0
  159.8250  212.8880  155.2660 N   0  0  0  0  0  2  0  0  0  0  0  0
  157.3670  213.3400  155.4890 C   0  0  0  0  0  2  0  0  0  0  0  0
  158.7750  213.6050  155.9040 C   0  0  0  0  0  0  0  0  0  0  0  0
  159.0370  214.4530  156.8420 N   0  0  0  0  0  2  0  0  0  0  0  0
  157.2550  211.1900  156.4790 F   0  0  0  0  0  0  0  0  0  0  0  0
  158.2340  211.2160  154.3190 C   0  0  0  0  0  2  0  0  0  0  0  0
  157.1740  211.8350  155.2560 C   0  0  2  0  0  0  0  0  0  0  0  0
  159.5060  212.0570  154.1030 C   0  0  2  0  0  3  0  0  0  0  0  0
  155.8160  211.6110  154.6620 C   0  0  0  0  0  0  0  0  0  0  0  0
  155.2040  212.5510  154.0890 O   0  0  0  0  0  0  0  0  0  0  0  0
  155.2260  210.3530  154.7300 O   0  0  0  0  0  1  0  0  0  0  0  0
  162.4610  207.2650  148.1790 C   0  0  0  0  0  3  0  0  0  0  0  0
  161.5180  206.7160  149.0560 C   0  0  0  0  0  0  0  0  0  0  0  0
  161.1640  205.3630  148.9360 C   0  0  0  0  0  3  0  0  0  0  0  0
  161.3920  203.1980  147.8280 N   0  0  0  0  0  1  0  0  0  0  0  0
  162.6920  205.1230  147.0740 C   0  0  0  0  0  3  0  0  0  0  0  0
  161.7510  204.5690  147.9470 C   0  0  0  0  0  0  0  0  0  0  0  0
  163.0470  206.4700  147.1910 C   0  0  0  0  0  3  0  0  0  0  0  0
  161.3170  209.9190  149.1750 C   0  0  0  0  0  2  0  0  0  0  0  0
  162.3440  211.0350  149.0540 C   0  0  0  0  0  1  0  0  0  0  0  0
  1 16  1  1  0  0  0
  2  4  1  1  0  0  0
  2 13  1  0  0  0  0
  2  5  1  0  0  0  0
  3 14  1  0  0  0  0
  5 14  1  0  0  0  0
  6  4  1  0  0  0  0
  8  5  1  0  0  0  0
  8 25  1  0  0  0  0
  8 12  1  0  0  0  0
  9  1  1  0  0  0  0
 11  7  2  0  0  0  0
 11  3  1  0  0  0  0
 12  1  1  0  0  0  0
 13 11  1  0  0  0  0
 14  1  1  0  0  0  0
 15  6  1  0  0  0  0
 15 17  1  0  0  0  0
 17 10  2  0  0  0  0
 17 13  1  0  0  0  0
 18 20  1  0  0  0  0
 19 20  1  0  0  0  0
 20 21  2  0  0  0  0
 23 24  1  0  0  0  0
 24 19  1  0  0  0  0
 24 22  1  0  0  0  0
 25 23  1  0  0  0  0
 25 18  1  0  0  0  0
 26 28  1  0  0  0  0
 26 24  1  0  0  0  0
 27 26  2  0  0  0  0
 29 30  1  0  0  0  0
 30 15  1  0  0  0  0
 31 30  2  0  0  0  0
 32 34  1  0  0  0  0
 33 35  1  0  0  0  0
 33 34  2  0  0  0  0
 34 31  1  0  0  0  0
 35 29  2  0  0  0  0
 36  6  1  0  0  0  0
 37 36  1  0  0  0  0
M  END
>  <MODEL>
1

>  <REMARK>
 VINA RESULT:      -4.4      0.000      0.000
  Name = 
  4 active torsions:
  status: ('A' for Active; 'I' for Inactive)
    1  A    between atoms: C_6  and  C_31
    2  A    between atoms: C_7  and  C_14
    3  A    between atoms: C_11  and  C_33
    4  A    between atoms: N_20  and  C_36
                            x       y       z     vdW  Elec       q    Type
                         _______ _______ _______ _____ _____    ______ ____

>  <TORSDO>
F 4

$$$$
=
 OpenBabel11062409073D

 37 41  0  0  1  0  0  0  0  0999 V2000
  161.9540  209.6430  154.3100 C   0  0  1  0  0  0  0  0  0  0  0  0
  160.3910  208.3250  151.6510 C   0  0  2  0  0  3  0  0  0  0  0  0
  161.1710  207.3150  154.2290 O   0  0  0  0  0  0  0  0  0  0  0  0
  161.5810  208.8290  150.8400 C   0  0  0  0  0  2  0  0  0  0  0  0
  160.0600  209.1340  152.9210 C   0  0  2  0  0  3  0  0  0  0  0  0
  161.6880  208.0900  149.4920 C   0  0  1  0  0  3  0  0  0  0  0  0
  161.2780  205.2090  153.3480 O   0  0  0  0  0  0  0  0  0  0  0  0
  160.3720  210.5560  152.7200 N   0  0  2  0  0  0  0  0  0  0  0  0
  163.0800  209.1690  153.6330 O   0  0  0  0  0  1  0  0  0  0  0  0
  160.4710  204.8340  150.7830 O   0  0  0  0  0  0  0  0  0  0  0  0
  161.0040  206.4260  153.1700 C   0  0  0  0  0  0  0  0  0  0  0  0
  161.4490  210.9120  153.6500 C   0  0  0  0  0  2  0  0  0  0  0  0
  160.5560  206.8960  151.8890 N   0  0  0  0  0  0  0  0  0  0  0  0
  160.7940  208.6910  154.1780 C   0  0  2  0  0  3  0  0  0  0  0  0
  160.9390  206.7360  149.3790 C   0  0  2  0  0  3  0  0  0  0  0  0
  162.2870  209.8930  155.7660 C   0  0  0  0  0  1  0  0  0  0  0  0
  160.6670  206.0780  150.7140 C   0  0  0  0  0  0  0  0  0  0  0  0
  159.0800  212.5090  152.0540 N   0  0  0  0  0  2  0  0  0  0  0  0
  157.4350  213.5450  153.6400 C   0  0  0  0  0  2  0  0  0  0  0  0
  158.1310  213.5350  152.3210 C   0  0  0  0  0  0  0  0  0  0  0  0
  157.8950  214.4530  151.4450 N   0  0  0  0  0  2  0  0  0  0  0  0
  159.3410  214.2120  154.8800 F   0  0  0  0  0  0  0  0  0  0  0  0
  159.2190  211.8800  154.4640 C   0  0  0  0  0  2  0  0  0  0  0  0
  158.4290  213.1770  154.7500 C   0  0  2  0  0  0  0  0  0  0  0  0
  159.2040  211.3990  153.0010 C   0  0  2  0  0  3  0  0  0  0  0  0
  157.6760  213.0090  156.0350 C   0  0  0  0  0  0  0  0  0  0  0  0
  157.2140  214.0110  156.6420 O   0  0  0  0  0  1  0  0  0  0  0  0
  157.4710  211.7380  156.5600 O   0  0  0  0  0  0  0  0  0  0  0  0
  162.8200  206.2480  147.8020 C   0  0  0  0  0  3  0  0  0  0  0  0
  161.6390  205.8200  148.4190 C   0  0  0  0  0  0  0  0  0  0  0  0
  161.1270  204.5450  148.1310 C   0  0  0  0  0  3  0  0  0  0  0  0
  161.2750  202.4170  146.9420 N   0  0  0  0  0  1  0  0  0  0  0  0
  162.9740  204.1410  146.6180 C   0  0  0  0  0  3  0  0  0  0  0  0
  161.7950  203.7090  147.2320 C   0  0  0  0  0  0  0  0  0  0  0  0
  163.4860  205.4100  146.9030 C   0  0  0  0  0  3  0  0  0  0  0  0
  161.3510  209.0180  148.3260 C   0  0  0  0  0  2  0  0  0  0  0  0
  161.8360  210.4390  148.5720 C   0  0  0  0  0  1  0  0  0  0  0  0
  1 16  1  1  0  0  0
  2  4  1  1  0  0  0
  2 13  1  0  0  0  0
  2  5  1  0  0  0  0
  5 14  1  0  0  0  0
  6  4  1  0  0  0  0
  8  5  1  0  0  0  0
  8 25  1  0  0  0  0
  8 12  1  0  0  0  0
  9  1  1  0  0  0  0
 11  7  2  0  0  0  0
 11  3  1  0  0  0  0
 12  1  1  0  0  0  0
 13 11  1  0  0  0  0
 14  3  1  0  0  0  0
 14  1  1  0  0  0  0
 15  6  1  0  0  0  0
 15 17  1  0  0  0  0
 17 10  2  0  0  0  0
 17 13  1  0  0  0  0
 18 20  1  0  0  0  0
 18 25  1  0  0  0  0
 19 24  1  0  0  0  0
 20 19  1  0  0  0  0
 21 20  2  0  0  0  0
 23 24  1  0  0  0  0
 24 22  1  0  0  0  0
 24 26  1  0  0  0  0
 25 23  1  0  0  0  0
 26 28  2  0  0  0  0
 26 27  1  0  0  0  0
 29 30  1  0  0  0  0
 30 15  1  0  0  0  0
 31 30  2  0  0  0  0
 32 34  1  0  0  0  0
 33 35  1  0  0  0  0
 33 34  2  0  0  0  0
 34 31  1  0  0  0  0
 35 29  2  0  0  0  0
 36 37  1  0  0  0  0
 36  6  1  0  0  0  0
M  END
>  <MODEL>
2

>  <REMARK>
 VINA RESULT:      -3.8      1.747      1.957
  Name = 
  4 active torsions:
  status: ('A' for Active; 'I' for Inactive)
    1  A    between atoms: C_6  and  C_31
    2  A    between atoms: C_7  and  C_14
    3  A    between atoms: C_11  and  C_33
    4  A    between atoms: N_20  and  C_36
                            x       y       z     vdW  Elec       q    Type
                         _______ _______ _______ _____ _____    ______ ____

>  <TORSDO>
F 4

$$$$
=
 OpenBabel11062409073D

 37 41  0  0  1  0  0  0  0  0999 V2000
  160.0040  210.9810  152.1050 C   0  0  1  0  0  0  0  0  0  0  0  0
  161.8000  208.4590  150.8130 C   0  0  2  0  0  3  0  0  0  0  0  0
  161.7120  211.3000  150.3670 O   0  0  0  0  0  0  0  0  0  0  0  0
  160.4570  207.7870  150.5440 C   0  0  0  0  0  2  0  0  0  0  0  0
  161.8320  209.4230  152.0160 C   0  0  2  0  0  3  0  0  0  0  0  0
  160.5910  206.6910  149.4690 C   0  0  1  0  0  3  0  0  0  0  0  0
  162.4700  210.9670  148.2360 O   0  0  0  0  0  0  0  0  0  0  0  0
  160.9220  208.9590  153.0710 N   0  0  2  0  0  0  0  0  0  0  0  0
  159.1520  210.6510  151.0480 O   0  0  0  0  0  1  0  0  0  0  0  0
  163.1840  208.4560  147.4910 O   0  0  0  0  0  0  0  0  0  0  0  0
  162.1760  210.4640  149.3540 C   0  0  0  0  0  0  0  0  0  0  0  0
  159.8620  209.9630  153.2200 C   0  0  0  0  0  2  0  0  0  0  0  0
  162.2870  209.0490  149.5720 N   0  0  0  0  0  0  0  0  0  0  0  0
  161.4500  210.8630  151.7000 C   0  0  2  0  0  3  0  0  0  0  0  0
  161.8430  206.7590  148.5560 C   0  0  2  0  0  3  0  0  0  0  0  0
  159.6950  212.3740  152.6100 C   0  0  0  0  0  1  0  0  0  0  0  0
  162.4630  208.1370  148.4770 C   0  0  0  0  0  0  0  0  0  0  0  0
  161.0500  207.7590  155.1860 N   0  0  0  0  0  2  0  0  0  0  0  0
  162.3460  208.7120  157.1110 C   0  0  0  0  0  2  0  0  0  0  0  0
  161.4770  207.6430  156.5380 C   0  0  0  0  0  0  0  0  0  0  0  0
  161.1000  206.6430  157.2610 N   0  0  0  0  0  2  0  0  0  0  0  0
  160.6350  210.3490  157.2050 F   0  0  0  0  0  0  0  0  0  0  0  0
  161.6920  210.1670  155.0890 C   0  0  0  0  0  2  0  0  0  0  0  0
  161.8640  210.0850  156.6220 C   0  0  2  0  0  0  0  0  0  0  0  0
  161.6240  208.8170  154.3520 C   0  0  2  0  0  3  0  0  0  0  0  0
  162.8550  211.1230  157.0530 C   0  0  0  0  0  0  0  0  0  0  0  0
  162.4900  212.3120  157.2510 O   0  0  0  0  0  1  0  0  0  0  0  0
  164.1870  210.7760  157.2480 O   0  0  0  0  0  0  0  0  0  0  0  0
  160.4370  206.6510  146.4880 C   0  0  0  0  0  3  0  0  0  0  0  0
  161.5460  206.1840  147.2030 C   0  0  0  0  0  0  0  0  0  0  0  0
  162.3600  205.1850  146.6460 C   0  0  0  0  0  3  0  0  0  0  0  0
  162.8910  203.6500  144.8220 N   0  0  0  0  0  1  0  0  0  0  0  0
  160.9550  205.1320  144.6750 C   0  0  0  0  0  3  0  0  0  0  0  0
  162.0640  204.6610  145.3850 C   0  0  0  0  0  0  0  0  0  0  0  0
  160.1420  206.1260  145.2270 C   0  0  0  0  0  3  0  0  0  0  0  0
  160.4110  205.3000  150.0750 C   0  0  0  0  0  2  0  0  0  0  0  0
  161.6710  204.8170  150.7760 C   0  0  0  0  0  1  0  0  0  0  0  0
  1 16  1  1  0  0  0
  1 12  1  0  0  0  0
  2  4  1  6  0  0  0
  2  5  1  0  0  0  0
  3 14  1  0  0  0  0
  5  8  1  0  0  0  0
  6 36  1  0  0  0  0
  6  4  1  0  0  0  0
  7 11  2  0  0  0  0
  8 12  1  0  0  0  0
  8 25  1  0  0  0  0
  9  1  1  0  0  0  0
 10 17  2  0  0  0  0
 11 13  1  0  0  0  0
 11  3  1  0  0  0  0
 13  2  1  0  0  0  0
 14  5  1  0  0  0  0
 14  1  1  0  0  0  0
 15  6  1  0  0  0  0
 17 15  1  0  0  0  0
 17 13  1  0  0  0  0
 18 20  1  0  0  0  0
 20 19  1  0  0  0  0
 20 21  2  0  0  0  0
 23 24  1  0  0  0  0
 24 26  1  0  0  0  0
 24 19  1  0  0  0  0
 24 22  1  0  0  0  0
 25 23  1  0  0  0  0
 25 18  1  0  0  0  0
 26 28  2  0  0  0  0
 26 27  1  0  0  0  0
 29 30  1  0  0  0  0
 30 15  1  0  0  0  0
 31 30  2  0  0  0  0
 32 34  1  0  0  0  0
 33 35  1  0  0  0  0
 33 34  2  0  0  0  0
 34 31  1  0  0  0  0
 35 29  2  0  0  0  0
 36 37  1  0  0  0  0
M  END
>  <MODEL>
3

>  <REMARK>
 VINA RESULT:      -2.7      3.058      4.917
  Name = 
  4 active torsions:
  status: ('A' for Active; 'I' for Inactive)
    1  A    between atoms: C_6  and  C_31
    2  A    between atoms: C_7  and  C_14
    3  A    between atoms: C_11  and  C_33
    4  A    between atoms: N_20  and  C_36
                            x       y       z     vdW  Elec       q    Type
                         _______ _______ _______ _____ _____    ______ ____

>  <TORSDO>
F 4

$$$$
=
 OpenBabel11062409073D

 37 41  0  0  1  0  0  0  0  0999 V2000
  160.7690  206.1740  153.6540 C   0  0  1  0  0  0  0  0  0  0  0  0
  160.9140  209.5220  153.4970 C   0  0  2  0  0  3  0  0  0  0  0  0
  162.0100  207.5420  155.2750 O   0  0  0  0  0  0  0  0  0  0  0  0
  159.3900  209.4750  153.4460 C   0  0  0  0  0  2  0  0  0  0  0  0
  161.6370  208.2900  152.9170 C   0  0  2  0  0  3  0  0  0  0  0  0
  158.7790  210.8330  153.8450 C   0  0  1  0  0  3  0  0  0  0  0  0
  162.0500  209.0980  156.9480 O   0  0  0  0  0  0  0  0  0  0  0  0
  160.8730  207.7250  151.7970 N   0  0  2  0  0  0  0  0  0  0  0  0
  159.6500  206.4580  154.4410 O   0  0  0  0  0  1  0  0  0  0  0  0
  161.3820  211.6610  156.3530 O   0  0  0  0  0  0  0  0  0  0  0  0
  161.8160  208.8410  155.7370 C   0  0  0  0  0  0  0  0  0  0  0  0
  160.4360  206.3800  152.1890 C   0  0  0  0  0  2  0  0  0  0  0  0
  161.3280  209.8620  154.8530 N   0  0  0  0  0  0  0  0  0  0  0  0
  161.8810  207.1580  153.9060 C   0  0  2  0  0  3  0  0  0  0  0  0
  159.6960  211.8020  154.6370 C   0  0  2  0  0  3  0  0  0  0  0  0
  161.2340  204.7550  153.9020 C   0  0  0  0  0  1  0  0  0  0  0  0
  160.8320  211.1120  155.3590 C   0  0  0  0  0  0  0  0  0  0  0  0
  161.7760  208.8890  149.8590 N   0  0  0  0  0  2  0  0  0  0  0  0
  162.6910  207.5960  147.9140 C   0  0  0  0  0  2  0  0  0  0  0  0
  162.3560  208.8980  148.5600 C   0  0  0  0  0  0  0  0  0  0  0  0
  162.5670  210.0130  147.9440 N   0  0  0  0  0  2  0  0  0  0  0  0
  160.4410  206.9720  147.5140 F   0  0  0  0  0  0  0  0  0  0  0  0
  161.2180  206.4630  149.6960 C   0  0  0  0  0  2  0  0  0  0  0  0
  161.5790  206.5780  148.1990 C   0  0  2  0  0  0  0  0  0  0  0  0
  161.6990  207.6220  150.5890 C   0  0  2  0  0  3  0  0  0  0  0  0
  162.0190  205.2330  147.7040 C   0  0  0  0  0  0  0  0  0  0  0  0
  161.4540  204.1840  148.1120 O   0  0  0  0  0  1  0  0  0  0  0  0
  163.0520  205.1360  146.7780 O   0  0  0  0  0  0  0  0  0  0  0  0
  159.5300  213.6310  156.3380 C   0  0  0  0  0  3  0  0  0  0  0  0
  158.8830  212.6760  155.5470 C   0  0  0  0  0  0  0  0  0  0  0  0
  157.4870  212.5460  155.6170 C   0  0  0  0  0  3  0  0  0  0  0  0
  155.3340  213.2370  156.5410 N   0  0  0  0  0  1  0  0  0  0  0  0
  157.4010  214.3220  157.2610 C   0  0  0  0  0  3  0  0  0  0  0  0
  156.7490  213.3690  156.4730 C   0  0  0  0  0  0  0  0  0  0  0  0
  158.7910  214.4530  157.1930 C   0  0  0  0  0  3  0  0  0  0  0  0
  158.1350  211.5220  152.6440 C   0  0  0  0  0  2  0  0  0  0  0  0
  159.0530  212.5670  152.0270 C   0  0  0  0  0  1  0  0  0  0  0  0
  1 16  1  1  0  0  0
  1 14  1  0  0  0  0
  1  9  1  0  0  0  0
  2  4  1  1  0  0  0
  2 13  1  0  0  0  0
  3 11  1  0  0  0  0
  4  6  1  0  0  0  0
  5  2  1  0  0  0  0
  5 14  1  0  0  0  0
  6 15  1  0  0  0  0
  8 12  1  0  0  0  0
  8  5  1  0  0  0  0
 11  7  2  0  0  0  0
 12  1  1  0  0  0  0
 13 17  1  0  0  0  0
 13 11  1  0  0  0  0
 14  3  1  0  0  0  0
 15 17  1  0  0  0  0
 15 30  1  0  0  0  0
 17 10  2  0  0  0  0
 18 25  1  0  0  0  0
 19 24  1  0  0  0  0
 19 20  1  0  0  0  0
 20 18  1  0  0  0  0
 21 20  2  0  0  0  0
 22 24  1  0  0  0  0
 23 25  1  0  0  0  0
 24 23  1  0  0  0  0
 25  8  1  0  0  0  0
 26 27  1  0  0  0  0
 26 24  1  0  0  0  0
 28 26  2  0  0  0  0
 29 35  1  0  0  0  0
 30 31  1  0  0  0  0
 30 29  2  0  0  0  0
 31 34  2  0  0  0  0
 34 32  1  0  0  0  0
 34 33  1  0  0  0  0
 35 33  2  0  0  0  0
 36  6  1  0  0  0  0
 37 36  1  0  0  0  0
M  END
>  <MODEL>
4

>  <REMARK>
 VINA RESULT:      -2.7      2.923      8.357
  Name = 
  4 active torsions:
  status: ('A' for Active; 'I' for Inactive)
    1  A    between atoms: C_6  and  C_31
    2  A    between atoms: C_7  and  C_14
    3  A    between atoms: C_11  and  C_33
    4  A    between atoms: N_20  and  C_36
                            x       y       z     vdW  Elec       q    Type
                         _______ _______ _______ _____ _____    ______ ____

>  <TORSDO>
F 4

$$$$
=
 OpenBabel11062409073D

 37 41  0  0  1  0  0  0  0  0999 V2000
  159.5530  212.1410  151.4050 C   0  0  1  0  0  0  0  0  0  0  0  0
  161.6170  209.5020  151.2450 C   0  0  2  0  0  3  0  0  0  0  0  0
  161.3500  211.9400  149.7410 O   0  0  0  0  0  0  0  0  0  0  0  0
  160.3490  208.6530  151.2030 C   0  0  0  0  0  2  0  0  0  0  0  0
  161.4930  210.8470  151.9860 C   0  0  2  0  0  3  0  0  0  0  0  0
  160.6390  207.2500  150.6360 C   0  0  1  0  0  3  0  0  0  0  0  0
  162.2790  210.9000  147.9300 O   0  0  0  0  0  0  0  0  0  0  0  0
  160.5480  210.7320  153.1050 N   0  0  2  0  0  0  0  0  0  0  0  0
  158.8040  211.3570  150.5240 O   0  0  0  0  0  1  0  0  0  0  0  0
  163.2270  208.3730  148.2300 O   0  0  0  0  0  0  0  0  0  0  0  0
  161.9450  210.8320  149.1430 C   0  0  0  0  0  0  0  0  0  0  0  0
  159.4090  211.6120  152.8190 C   0  0  0  0  0  2  0  0  0  0  0  0
  162.1450  209.6220  149.8910 N   0  0  0  0  0  0  0  0  0  0  0  0
  161.0290  212.0170  151.1300 C   0  0  2  0  0  3  0  0  0  0  0  0
  161.9440  207.0870  149.8130 C   0  0  2  0  0  3  0  0  0  0  0  0
  159.1070  213.5860  151.3260 C   0  0  0  0  0  1  0  0  0  0  0  0
  162.4640  208.3840  149.2360 C   0  0  0  0  0  0  0  0  0  0  0  0
  161.5560  210.0140  155.2010 N   0  0  0  0  0  2  0  0  0  0  0  0
  161.8090  211.6250  157.1070 C   0  0  0  0  0  2  0  0  0  0  0  0
  161.9680  210.2540  156.5420 C   0  0  0  0  0  0  0  0  0  0  0  0
  162.4490  209.2970  157.2610 N   0  0  0  0  0  2  0  0  0  0  0  0
  159.4470  211.5180  157.2610 F   0  0  0  0  0  0  0  0  0  0  0  0
  160.2550  212.1410  155.1190 C   0  0  0  0  0  2  0  0  0  0  0  0
  160.4710  212.2210  156.6470 C   0  0  2  0  0  0  0  0  0  0  0  0
  161.1670  211.1530  154.3670 C   0  0  2  0  0  3  0  0  0  0  0  0
  160.4140  213.6580  157.0670 C   0  0  0  0  0  0  0  0  0  0  0  0
  159.3060  214.2250  157.2610 O   0  0  0  0  0  1  0  0  0  0  0  0
  161.5910  214.3740  157.2590 O   0  0  0  0  0  0  0  0  0  0  0  0
  161.5840  204.6920  149.1780 C   0  0  0  0  0  3  0  0  0  0  0  0
  161.7850  206.0170  148.7740 C   0  0  0  0  0  0  0  0  0  0  0  0
  161.8380  206.3250  147.4050 C   0  0  0  0  0  3  0  0  0  0  0  0
  161.7430  205.6270  145.0660 N   0  0  0  0  0  1  0  0  0  0  0  0
  161.4900  203.9910  146.8620 C   0  0  0  0  0  3  0  0  0  0  0  0
  161.6900  205.3130  146.4520 C   0  0  0  0  0  0  0  0  0  0  0  0
  161.4370  203.6820  148.2240 C   0  0  0  0  0  3  0  0  0  0  0  0
  160.5200  206.1810  151.7210 C   0  0  0  0  0  2  0  0  0  0  0  0
  161.7370  206.1580  152.6340 C   0  0  0  0  0  1  0  0  0  0  0  0
  1 16  1  6  0  0  0
  1 12  1  0  0  0  0
  2  4  1  6  0  0  0
  2  5  1  0  0  0  0
  3 14  1  0  0  0  0
  5  8  1  0  0  0  0
  6  4  1  0  0  0  0
  6 36  1  0  0  0  0
  7 11  2  0  0  0  0
  8 25  1  0  0  0  0
  9  1  1  0  0  0  0
 10 17  2  0  0  0  0
 11  3  1  0  0  0  0
 11 13  1  0  0  0  0
 12  8  1  0  0  0  0
 13  2  1  0  0  0  0
 14  1  1  0  0  0  0
 14  5  1  0  0  0  0
 15  6  1  0  0  0  0
 17 15  1  0  0  0  0
 17 13  1  0  0  0  0
 18 20  1  0  0  0  0
 20 19  1  0  0  0  0
 20 21  2  0  0  0  0
 23 24  1  0  0  0  0
 24 26  1  0  0  0  0
 24 19  1  0  0  0  0
 24 22  1  0  0  0  0
 25 23  1  0  0  0  0
 25 18  1  0  0  0  0
 26 28  2  0  0  0  0
 26 27  1  0  0  0  0
 30 29  1  0  0  0  0
 30 15  1  0  0  0  0
 31 30  2  0  0  0  0
 32 34  1  0  0  0  0
 33 35  1  0  0  0  0
 34 33  2  0  0  0  0
 34 31  1  0  0  0  0
 35 29  2  0  0  0  0
 36 37  1  0  0  0  0
M  END
>  <MODEL>
5

>  <REMARK>
 VINA RESULT:      -1.7      3.010      4.374
  Name = 
  4 active torsions:
  status: ('A' for Active; 'I' for Inactive)
    1  A    between atoms: C_6  and  C_31
    2  A    between atoms: C_7  and  C_14
    3  A    between atoms: C_11  and  C_33
    4  A    between atoms: N_20  and  C_36
                            x       y       z     vdW  Elec       q    Type
                         _______ _______ _______ _____ _____    ______ ____

>  <TORSDO>
F 4

$$$$
