=
 OpenBabel11062408513D

 55 61  0  0  1  0  0  0  0  0999 V2000
  159.4860  213.5970  150.1060 C   0  0  0  0  0  3  0  0  0  0  0  0
  160.5100  213.0960  147.5520 C   0  0  0  0  0  0  0  0  0  0  0  0
  160.8190  212.2420  148.6130 C   0  0  0  0  0  3  0  0  0  0  0  0
  159.1730  214.4530  149.0440 C   0  0  0  0  0  3  0  0  0  0  0  0
  160.3070  212.4870  149.8930 C   0  0  0  0  0  0  0  0  0  0  0  0
  159.6850  214.2050  147.7680 C   0  0  0  0  0  3  0  0  0  0  0  0
  160.6450  211.6110  151.0180 C   0  0  0  0  0  3  0  0  0  0  0  0
  159.7160  210.9900  151.6720 N   0  0  0  0  0  0  0  0  0  0  0  0
  161.5380  211.6220  155.8880 N   0  0  0  0  0  2  0  0  0  0  0  0
  163.4350  211.7100  157.2610 O   0  0  0  0  0  0  0  0  0  0  0  0
  162.5980  210.5490  153.9810 C   0  0  2  0  0  3  0  0  0  0  0  0
  163.6110  210.5800  155.1240 C   0  0  0  0  0  2  0  0  0  0  0  0
  162.8960  211.3510  156.1820 C   0  0  0  0  0  0  0  0  0  0  0  0
  161.3430  211.0640  154.5970 C   0  0  0  0  0  0  0  0  0  0  0  0
  161.2480  209.1890  152.4000 C   0  0  2  0  0  3  0  0  0  0  0  0
  162.3450  209.1410  153.4770 C   0  0  0  0  0  2  0  0  0  0  0  0
  160.1360  210.8430  154.0610 C   0  0  0  0  0  0  0  0  0  0  0  0
  160.0190  210.0680  152.7580 C   0  0  1  0  0  3  0  0  0  0  0  0
  160.9850  207.5870  150.4840 C   0  0  0  0  0  3  0  0  0  0  0  0
  160.9760  205.1710  150.8720 C   0  0  0  0  0  0  0  0  0  0  0  0
  161.4810  206.6770  152.7730 C   0  0  0  0  0  2  0  0  0  0  0  0
  161.1440  205.3300  152.1950 C   0  0  0  0  0  3  0  0  0  0  0  0
  161.0290  206.3500  149.9800 C   0  0  0  0  0  3  0  0  0  0  0  0
  160.7980  207.7930  151.9650 C   0  0  1  0  0  3  0  0  0  0  0  0
  160.7160  203.8380  150.3050 C   0  0  0  0  0  0  0  0  0  0  0  0
  160.8480  203.6290  149.0700 O   0  0  0  0  0  0  0  0  0  0  0  0
  160.3290  202.7900  151.1300 O   0  0  0  0  0  1  0  0  0  0  0  0
  157.0240  211.6620  153.9130 C   0  0  0  0  0  2  0  0  0  0  0  0
  158.5950  213.6450  153.8090 O   0  0  0  0  0  0  0  0  0  0  0  0
  158.9020  211.3230  154.7780 C   0  0  2  0  0  3  0  0  0  0  0  0
  157.5690  210.1250  154.6690 S   0  0  0  0  0  0  0  0  0  0  0  0
  158.2630  212.5060  154.0900 C   0  0  0  0  0  0  0  0  0  0  0  0
  161.0930  212.8410  146.2060 C   0  0  0  0  0  2  0  0  0  0  0  0
  159.9890  212.7920  145.1680 C   0  0  0  0  0  2  0  0  0  0  0  0
  159.6080  213.1200  142.7560 C   0  0  2  0  0  3  0  0  0  0  0  0
  160.7760  213.9880  143.1650 C   0  0  0  0  0  2  0  0  0  0  0  0
  160.5930  212.6240  143.7930 C   0  0  1  0  0  3  0  0  0  0  0  0
  159.8930  212.5090  141.5250 O   0  0  0  0  0  0  0  0  0  0  0  0
  158.0540  214.1890  140.4610 S   0  0  0  0  0  1  0  0  0  0  0  0
  159.7270  213.4220  140.4510 C   0  0  1  0  0  0  0  0  0  0  0  0
  160.6150  214.4520  140.6860 F   0  0  0  0  0  0  0  0  0  0  0  0
  162.6430  212.2010  139.3650 C   0  0  2  0  0  0  0  0  0  0  0  0
  160.3740  210.5450  138.0420 O   0  0  0  0  0  0  0  0  0  0  0  0
  160.0510  212.7790  139.0580 C   0  0  1  0  0  0  0  0  0  0  0  0
  159.4010  210.6440  140.1860 F   0  0  0  0  0  0  0  0  0  0  0  0
  159.6300  211.2950  138.9810 C   0  0  2  0  0  3  0  0  0  0  0  0
  162.9850  212.8650  140.5300 F   0  0  0  0  0  0  0  0  0  0  0  0
  162.3400  210.7260  139.6700 C   0  0  2  0  0  3  0  0  0  0  0  0
  163.8610  212.2400  138.4630 C   0  0  0  0  0  1  0  0  0  0  0  0
  161.5370  209.9510  138.5970 C   0  0  1  0  0  3  0  0  0  0  0  0
  159.3080  213.4420  138.0800 O   0  0  0  0  0  1  0  0  0  0  0  0
  161.8490  210.5320  140.9630 O   0  0  0  0  0  1  0  0  0  0  0  0
  161.5280  212.9740  138.6460 C   0  0  0  0  0  2  0  0  0  0  0  0
  161.3470  208.4950  138.9010 C   0  0  0  0  0  3  0  0  0  0  0  0
  161.0430  207.7040  138.0230 O   0  0  0  0  0  0  0  0  0  0  0  0
  2  6  2  0  0  0  0
  2  3  1  0  0  0  0
  3  5  2  0  0  0  0
  4  1  2  0  0  0  0
  5  1  1  0  0  0  0
  5  7  1  0  0  0  0
  6  4  1  0  0  0  0
  7  8  2  0  0  0  0
  9 13  1  0  0  0  0
 11 16  1  1  0  0  0
 11 14  1  0  0  0  0
 11 12  1  0  0  0  0
 12 13  1  0  0  0  0
 13 10  2  0  0  0  0
 14  9  1  0  0  0  0
 15 18  1  0  0  0  0
 15 16  1  1  0  0  0
 17 14  2  0  0  0  0
 18  8  1  6  0  0  0
 18 17  1  0  0  0  0
 20 22  2  0  0  0  0
 22 21  1  0  0  0  0
 23 19  2  0  0  0  0
 23 20  1  0  0  0  0
 24 19  1  6  0  0  0
 24 15  1  0  0  0  0
 24 21  1  0  0  0  0
 25 20  1  0  0  0  0
 25 27  1  0  0  0  0
 26 25  2  0  0  0  0
 28 32  1  0  0  0  0
 28 31  1  0  0  0  0
 29 32  2  0  0  0  0
 30 17  1  6  0  0  0
 31 30  1  0  0  0  0
 32 30  1  0  0  0  0
 33  2  1  0  0  0  0
 34 33  1  0  0  0  0
 35 38  1  6  0  0  0
 35 36  1  0  0  0  0
 35 37  1  0  0  0  0
 36 37  1  0  0  0  0
 37 34  1  1  0  0  0
 40 39  1  6  0  0  0
 40 41  1  0  0  0  0
 40 38  1  0  0  0  0
 42 49  1  6  0  0  0
 42 48  1  0  0  0  0
 42 47  1  0  0  0  0
 43 50  1  0  0  0  0
 43 46  1  0  0  0  0
 44 51  1  6  0  0  0
 44 40  1  0  0  0  0
 46 44  1  0  0  0  0
 46 45  1  1  0  0  0
 48 52  1  1  0  0  0
 50 54  1  1  0  0  0
 50 48  1  0  0  0  0
 53 44  1  0  0  0  0
 53 42  1  0  0  0  0
 55 54  2  0  0  0  0
M  END
>  <MODEL>
1

>  <REMARK>
 VINA RESULT:      -4.1      0.000      0.000
  Name = 
  12 active torsions:
  status: ('A' for Active; 'I' for Inactive)
    1  A    between atoms: C_2  and  C_44
    2  A    between atoms: C_6  and  C_20
    3  A    between atoms: C_8  and  O_22
    4  A    between atoms: C_10  and  C_32
    5  A    between atoms: C_11  and  C_38
    6  A    between atoms: C_19  and  C_45
    7  A    between atoms: C_20  and  O_22
    8  A    between atoms: C_27  and  C_54
    9  A    between atoms: N_28  and  C_49
   10  A    between atoms: C_33  and  C_52
   11  A    between atoms: C_43  and  C_51
   12  A    between atoms: C_51  and  C_54
                            x       y       z     vdW  Elec       q    Type
                         _______ _______ _______ _____ _____    ______ ____

>  <TORSDO>
F 12

$$$$
=
 OpenBabel11062408513D

 55 61  0  0  1  0  0  0  0  0999 V2000
  161.1660  213.5830  149.2300 C   0  0  0  0  0  3  0  0  0  0  0  0
  160.9610  212.5630  146.6340 C   0  0  0  0  0  0  0  0  0  0  0  0
  160.9760  211.6970  147.7290 C   0  0  0  0  0  3  0  0  0  0  0  0
  161.1500  214.4520  148.1340 C   0  0  0  0  0  3  0  0  0  0  0  0
  161.0760  212.2030  149.0320 C   0  0  0  0  0  0  0  0  0  0  0  0
  161.0490  213.9450  146.8360 C   0  0  0  0  0  3  0  0  0  0  0  0
  161.1160  211.3020  150.1860 C   0  0  0  0  0  3  0  0  0  0  0  0
  160.0870  211.1780  150.9630 N   0  0  0  0  0  0  0  0  0  0  0  0
  160.9280  211.7390  155.4880 N   0  0  0  0  0  2  0  0  0  0  0  0
  162.4610  211.7200  157.2600 O   0  0  0  0  0  0  0  0  0  0  0  0
  162.3270  210.5790  153.8710 C   0  0  2  0  0  3  0  0  0  0  0  0
  163.0500  210.5580  155.2160 C   0  0  0  0  0  2  0  0  0  0  0  0
  162.1620  211.3850  156.0850 C   0  0  0  0  0  0  0  0  0  0  0  0
  161.0000  211.1810  154.1840 C   0  0  0  0  0  0  0  0  0  0  0  0
  161.2920  209.2910  152.0160 C   0  0  2  0  0  3  0  0  0  0  0  0
  162.1050  209.1860  153.3160 C   0  0  0  0  0  2  0  0  0  0  0  0
  159.9360  211.0310  153.3830 C   0  0  0  0  0  0  0  0  0  0  0  0
  160.0720  210.2510  152.0850 C   0  0  1  0  0  3  0  0  0  0  0  0
  161.2720  207.7360  150.0450 C   0  0  0  0  0  3  0  0  0  0  0  0
  161.1150  205.3150  150.3690 C   0  0  0  0  0  0  0  0  0  0  0  0
  161.3710  206.7660  152.3610 C   0  0  0  0  0  2  0  0  0  0  0  0
  161.0800  205.4440  151.7060 C   0  0  0  0  0  3  0  0  0  0  0  0
  161.3500  206.5070  149.5250 C   0  0  0  0  0  3  0  0  0  0  0  0
  160.8640  207.9230  151.4840 C   0  0  1  0  0  3  0  0  0  0  0  0
  160.8980  204.0040  149.7370 C   0  0  0  0  0  0  0  0  0  0  0  0
  160.7480  203.9100  148.4910 O   0  0  0  0  0  0  0  0  0  0  0  0
  160.8660  202.8510  150.5110 O   0  0  0  0  0  1  0  0  0  0  0  0
  158.2270  212.7270  155.5230 C   0  0  0  0  0  2  0  0  0  0  0  0
  158.0670  210.2230  155.8610 O   0  0  0  0  0  0  0  0  0  0  0  0
  158.6040  211.5970  153.7990 C   0  0  2  0  0  3  0  0  0  0  0  0
  158.6530  213.3880  153.9070 S   0  0  0  0  0  0  0  0  0  0  0  0
  158.2550  211.2470  155.2260 C   0  0  0  0  0  0  0  0  0  0  0  0
  160.8920  212.0060  145.2550 C   0  0  0  0  0  2  0  0  0  0  0  0
  161.1370  213.1080  144.2420 C   0  0  0  0  0  2  0  0  0  0  0  0
  161.7400  213.4420  141.8770 C   0  0  2  0  0  3  0  0  0  0  0  0
  162.3460  212.1340  142.3320 C   0  0  0  0  0  2  0  0  0  0  0  0
  160.9860  212.5540  142.8440 C   0  0  1  0  0  3  0  0  0  0  0  0
  161.1990  213.2810  140.5920 O   0  0  0  0  0  0  0  0  0  0  0  0
  163.6070  214.0600  139.6280 S   0  0  0  0  0  1  0  0  0  0  0  0
  162.1960  212.8790  139.6650 C   0  0  1  0  0  0  0  0  0  0  0  0
  162.7100  211.6930  140.1480 F   0  0  0  0  0  0  0  0  0  0  0  0
  161.0900  210.0170  138.3390 C   0  0  2  0  0  0  0  0  0  0  0  0
  159.4370  212.3350  137.0970 O   0  0  0  0  0  0  0  0  0  0  0  0
  161.6190  212.6350  138.2280 C   0  0  1  0  0  0  0  0  0  0  0  0
  159.4250  213.1650  139.3030 F   0  0  0  0  0  0  0  0  0  0  0  0
  160.1300  213.0300  138.1140 C   0  0  2  0  0  3  0  0  0  0  0  0
  161.7130  209.6130  139.5060 F   0  0  0  0  0  0  0  0  0  0  0  0
  159.5960  210.2690  138.5980 C   0  0  2  0  0  3  0  0  0  0  0  0
  161.1940  208.8640  137.3610 C   0  0  0  0  0  1  0  0  0  0  0  0
  158.8480  211.1250  137.5480 C   0  0  1  0  0  3  0  0  0  0  0  0
  162.3050  213.4560  137.3300 O   0  0  0  0  0  1  0  0  0  0  0  0
  159.3380  210.6690  139.9110 O   0  0  0  0  0  1  0  0  0  0  0  0
  161.8660  211.1930  137.7280 C   0  0  0  0  0  2  0  0  0  0  0  0
  157.3770  211.2650  137.8010 C   0  0  0  0  0  3  0  0  0  0  0  0
  156.5590  210.8190  137.0140 O   0  0  0  0  0  0  0  0  0  0  0  0
  2  6  2  0  0  0  0
  2  3  1  0  0  0  0
  3  5  2  0  0  0  0
  4  1  2  0  0  0  0
  5  1  1  0  0  0  0
  5  7  1  0  0  0  0
  6  4  1  0  0  0  0
  7  8  2  0  0  0  0
  9 13  1  0  0  0  0
 11 16  1  1  0  0  0
 11 14  1  0  0  0  0
 11 12  1  0  0  0  0
 12 13  1  0  0  0  0
 13 10  2  0  0  0  0
 14  9  1  0  0  0  0
 15 18  1  0  0  0  0
 15 16  1  1  0  0  0
 17 14  2  0  0  0  0
 18  8  1  6  0  0  0
 18 17  1  0  0  0  0
 20 22  2  0  0  0  0
 22 21  1  0  0  0  0
 23 19  2  0  0  0  0
 23 20  1  0  0  0  0
 24 19  1  6  0  0  0
 24 15  1  0  0  0  0
 24 21  1  0  0  0  0
 25 20  1  0  0  0  0
 25 27  1  0  0  0  0
 26 25  2  0  0  0  0
 30 17  1  1  0  0  0
 30 31  1  0  0  0  0
 30 32  1  0  0  0  0
 31 28  1  0  0  0  0
 32 28  1  0  0  0  0
 32 29  2  0  0  0  0
 33  2  1  0  0  0  0
 34 33  1  0  0  0  0
 35 38  1  6  0  0  0
 35 36  1  0  0  0  0
 35 37  1  0  0  0  0
 36 37  1  0  0  0  0
 37 34  1  1  0  0  0
 40 39  1  6  0  0  0
 40 41  1  0  0  0  0
 40 38  1  0  0  0  0
 42 49  1  6  0  0  0
 42 48  1  0  0  0  0
 42 47  1  0  0  0  0
 43 50  1  0  0  0  0
 43 46  1  0  0  0  0
 44 51  1  6  0  0  0
 44 40  1  0  0  0  0
 46 44  1  0  0  0  0
 46 45  1  1  0  0  0
 48 52  1  1  0  0  0
 50 54  1  1  0  0  0
 50 48  1  0  0  0  0
 53 44  1  0  0  0  0
 53 42  1  0  0  0  0
 55 54  2  0  0  0  0
M  END
>  <MODEL>
2

>  <REMARK>
 VINA RESULT:      -3.4      1.705      2.289
  Name = 
  12 active torsions:
  status: ('A' for Active; 'I' for Inactive)
    1  A    between atoms: C_2  and  C_44
    2  A    between atoms: C_6  and  C_20
    3  A    between atoms: C_8  and  O_22
    4  A    between atoms: C_10  and  C_32
    5  A    between atoms: C_11  and  C_38
    6  A    between atoms: C_19  and  C_45
    7  A    between atoms: C_20  and  O_22
    8  A    between atoms: C_27  and  C_54
    9  A    between atoms: N_28  and  C_49
   10  A    between atoms: C_33  and  C_52
   11  A    between atoms: C_43  and  C_51
   12  A    between atoms: C_51  and  C_54
                            x       y       z     vdW  Elec       q    Type
                         _______ _______ _______ _____ _____    ______ ____

>  <TORSDO>
F 12

$$$$
=
 OpenBabel11062408513D

 55 61  0  0  1  0  0  0  0  0999 V2000
  160.5250  207.7900  154.9200 C   0  0  0  0  0  3  0  0  0  0  0  0
  161.3740  206.3310  152.6910 C   0  0  0  0  0  0  0  0  0  0  0  0
  161.1550  207.7060  152.5880 C   0  0  0  0  0  3  0  0  0  0  0  0
  160.7470  206.4130  155.0270 C   0  0  0  0  0  3  0  0  0  0  0  0
  160.7320  208.4420  153.7030 C   0  0  0  0  0  0  0  0  0  0  0  0
  161.1700  205.6820  153.9130 C   0  0  0  0  0  3  0  0  0  0  0  0
  160.4760  209.8810  153.5990 C   0  0  0  0  0  3  0  0  0  0  0  0
  159.4800  210.4200  154.2280 N   0  0  0  0  0  0  0  0  0  0  0  0
  156.5370  213.1320  156.5700 N   0  0  0  0  0  2  0  0  0  0  0  0
  154.4310  214.1480  156.7160 O   0  0  0  0  0  0  0  0  0  0  0  0
  156.4110  212.5220  154.2190 C   0  0  2  0  0  3  0  0  0  0  0  0
  155.1870  213.3740  154.5480 C   0  0  0  0  0  2  0  0  0  0  0  0
  155.3150  213.5870  156.0190 C   0  0  0  0  0  0  0  0  0  0  0  0
  157.2270  212.5660  155.4650 C   0  0  0  0  0  0  0  0  0  0  0  0
  158.4890  212.2460  152.8840 C   0  0  2  0  0  3  0  0  0  0  0  0
  157.2310  213.1080  153.0860 C   0  0  0  0  0  2  0  0  0  0  0  0
  158.5350  212.2770  155.4790 C   0  0  0  0  0  0  0  0  0  0  0  0
  159.2280  211.8540  154.1930 C   0  0  1  0  0  3  0  0  0  0  0  0
  160.3990  211.8330  151.3080 C   0  0  0  0  0  3  0  0  0  0  0  0
  160.7890  213.3220  149.4060 C   0  0  0  0  0  0  0  0  0  0  0  0
  158.7500  213.6510  150.7720 C   0  0  0  0  0  2  0  0  0  0  0  0
  159.7330  214.0890  149.7220 C   0  0  0  0  0  3  0  0  0  0  0  0
  161.0430  212.0760  150.1620 C   0  0  0  0  0  3  0  0  0  0  0  0
  159.4660  212.8660  151.8840 C   0  0  1  0  0  3  0  0  0  0  0  0
  161.7090  213.7220  148.3290 C   0  0  0  0  0  0  0  0  0  0  0  0
  161.3120  214.4530  147.3840 O   0  0  0  0  0  0  0  0  0  0  0  0
  163.0330  213.3020  148.3490 O   0  0  0  0  0  1  0  0  0  0  0  0
  161.3850  212.1660  156.9740 C   0  0  0  0  0  2  0  0  0  0  0  0
  160.0420  210.0320  157.2040 O   0  0  0  0  0  0  0  0  0  0  0  0
  159.3170  212.4200  156.7580 C   0  0  2  0  0  3  0  0  0  0  0  0
  160.5490  213.7200  156.6340 S   0  0  0  0  0  0  0  0  0  0  0  0
  160.2050  211.2270  157.0220 C   0  0  0  0  0  0  0  0  0  0  0  0
  161.7880  205.5590  151.4870 C   0  0  0  0  0  2  0  0  0  0  0  0
  161.5660  204.0780  151.7260 C   0  0  0  0  0  2  0  0  0  0  0  0
  161.1380  202.9430  149.5810 C   0  0  2  0  0  3  0  0  0  0  0  0
  160.5980  202.0660  150.6870 C   0  0  0  0  0  2  0  0  0  0  0  0
  160.4880  203.5710  150.7950 C   0  0  1  0  0  3  0  0  0  0  0  0
  160.2260  202.9580  148.5140 O   0  0  0  0  0  0  0  0  0  0  0  0
  161.4770  200.9530  147.1920 S   0  0  0  0  0  1  0  0  0  0  0  0
  160.8770  202.6900  147.2820 C   0  0  1  0  0  0  0  0  0  0  0  0
  159.9080  202.8050  146.3060 F   0  0  0  0  0  0  0  0  0  0  0  0
  161.0000  205.0140  144.8820 C   0  0  2  0  0  0  0  0  0  0  0  0
  162.5790  206.0970  147.3280 O   0  0  0  0  0  0  0  0  0  0  0  0
  162.0290  203.7080  146.9750 C   0  0  1  0  0  0  0  0  0  0  0  0
  160.7870  205.1900  148.5610 F   0  0  0  0  0  0  0  0  0  0  0  0
  161.9820  204.9480  147.8950 C   0  0  2  0  0  3  0  0  0  0  0  0
  159.9020  204.2480  144.5330 F   0  0  0  0  0  0  0  0  0  0  0  0
  160.5590  206.1960  145.7600 C   0  0  2  0  0  3  0  0  0  0  0  0
  161.5640  205.5870  143.5970 C   0  0  0  0  0  1  0  0  0  0  0  0
  161.6670  206.8920  146.5870 C   0  0  1  0  0  3  0  0  0  0  0  0
  163.2520  203.0850  147.2320 O   0  0  0  0  0  1  0  0  0  0  0  0
  159.4160  205.9130  146.5110 O   0  0  0  0  0  1  0  0  0  0  0  0
  162.0840  204.1080  145.4830 C   0  0  0  0  0  2  0  0  0  0  0  0
  161.2010  208.0930  147.3540 C   0  0  0  0  0  3  0  0  0  0  0  0
  161.5410  208.2700  148.5130 O   0  0  0  0  0  0  0  0  0  0  0  0
  1  4  1  0  0  0  0
  2  6  1  0  0  0  0
  3  2  2  0  0  0  0
  3  5  1  0  0  0  0
  5  1  2  0  0  0  0
  6  4  2  0  0  0  0
  7  5  1  0  0  0  0
  7  8  2  0  0  0  0
 11 16  1  6  0  0  0
 11 12  1  0  0  0  0
 11 14  1  0  0  0  0
 12 13  1  0  0  0  0
 13  9  1  0  0  0  0
 13 10  2  0  0  0  0
 14 17  2  0  0  0  0
 14  9  1  0  0  0  0
 15 16  1  1  0  0  0
 15 18  1  0  0  0  0
 18  8  1  1  0  0  0
 18 17  1  0  0  0  0
 19 24  1  0  0  0  0
 20 22  2  0  0  0  0
 20 23  1  0  0  0  0
 22 21  1  0  0  0  0
 23 19  2  0  0  0  0
 24 21  1  6  0  0  0
 24 15  1  0  0  0  0
 25 27  1  0  0  0  0
 25 20  1  0  0  0  0
 26 25  2  0  0  0  0
 28 32  1  0  0  0  0
 30 17  1  6  0  0  0
 30 32  1  0  0  0  0
 31 30  1  0  0  0  0
 31 28  1  0  0  0  0
 32 29  2  0  0  0  0
 33 34  1  0  0  0  0
 33  2  1  0  0  0  0
 35 38  1  6  0  0  0
 35 36  1  0  0  0  0
 35 37  1  0  0  0  0
 36 37  1  0  0  0  0
 37 34  1  1  0  0  0
 39 40  1  0  0  0  0
 40 41  1  6  0  0  0
 40 38  1  0  0  0  0
 42 49  1  6  0  0  0
 42 53  1  0  0  0  0
 42 48  1  0  0  0  0
 43 46  1  0  0  0  0
 44 51  1  1  0  0  0
 44 40  1  0  0  0  0
 44 46  1  0  0  0  0
 46 45  1  6  0  0  0
 47 42  1  0  0  0  0
 48 52  1  1  0  0  0
 48 50  1  0  0  0  0
 50 43  1  0  0  0  0
 50 54  1  1  0  0  0
 53 44  1  0  0  0  0
 54 55  2  0  0  0  0
M  END
>  <MODEL>
3

>  <REMARK>
 VINA RESULT:      -3.3      5.487      8.949
  Name = 
  12 active torsions:
  status: ('A' for Active; 'I' for Inactive)
    1  A    between atoms: C_2  and  C_44
    2  A    between atoms: C_6  and  C_20
    3  A    between atoms: C_8  and  O_22
    4  A    between atoms: C_10  and  C_32
    5  A    between atoms: C_11  and  C_38
    6  A    between atoms: C_19  and  C_45
    7  A    between atoms: C_20  and  O_22
    8  A    between atoms: C_27  and  C_54
    9  A    between atoms: N_28  and  C_49
   10  A    between atoms: C_33  and  C_52
   11  A    between atoms: C_43  and  C_51
   12  A    between atoms: C_51  and  C_54
                            x       y       z     vdW  Elec       q    Type
                         _______ _______ _______ _____ _____    ______ ____

>  <TORSDO>
F 12

$$$$
=
 OpenBabel11062408513D

 55 61  0  0  1  0  0  0  0  0999 V2000
  162.4090  206.7510  152.6970 C   0  0  0  0  0  3  0  0  0  0  0  0
  160.8840  204.9600  151.1840 C   0  0  0  0  0  0  0  0  0  0  0  0
  160.4640  206.2830  151.3420 C   0  0  0  0  0  3  0  0  0  0  0  0
  162.8340  205.4270  152.5390 C   0  0  0  0  0  3  0  0  0  0  0  0
  161.2250  207.1840  152.0960 C   0  0  0  0  0  0  0  0  0  0  0  0
  162.0730  204.5310  151.7850 C   0  0  0  0  0  3  0  0  0  0  0  0
  160.7810  208.5670  152.2870 C   0  0  0  0  0  3  0  0  0  0  0  0
  160.9260  209.1540  153.4320 N   0  0  0  0  0  0  0  0  0  0  0  0
  157.9370  211.1700  156.3470 N   0  0  0  0  0  2  0  0  0  0  0  0
  155.7660  211.9410  156.7780 O   0  0  0  0  0  0  0  0  0  0  0  0
  157.6920  210.9200  153.9410 C   0  0  2  0  0  3  0  0  0  0  0  0
  156.4260  211.5870  154.4730 C   0  0  0  0  0  2  0  0  0  0  0  0
  156.6420  211.5820  155.9490 C   0  0  0  0  0  0  0  0  0  0  0  0
  158.5910  210.8520  155.1280 C   0  0  0  0  0  0  0  0  0  0  0  0
  159.6820  211.0580  152.4590 C   0  0  2  0  0  3  0  0  0  0  0  0
  158.3720  211.7510  152.8690 C   0  0  0  0  0  2  0  0  0  0  0  0
  159.9160  210.6940  155.0170 C   0  0  0  0  0  0  0  0  0  0  0  0
  160.5470  210.5440  153.6420 C   0  0  1  0  0  3  0  0  0  0  0  0
  161.2220  211.0790  150.4760 C   0  0  0  0  0  3  0  0  0  0  0  0
  161.4220  213.0750  149.0740 C   0  0  0  0  0  0  0  0  0  0  0  0
  159.7090  213.0470  150.8630 C   0  0  0  0  0  2  0  0  0  0  0  0
  160.5300  213.7500  149.8160 C   0  0  0  0  0  3  0  0  0  0  0  0
  161.6720  211.6430  149.3510 C   0  0  0  0  0  3  0  0  0  0  0  0
  160.5240  211.9180  151.5150 C   0  0  1  0  0  3  0  0  0  0  0  0
  162.1720  213.7530  148.0040 C   0  0  0  0  0  0  0  0  0  0  0  0
  163.4080  213.9620  148.1210 O   0  0  0  0  0  1  0  0  0  0  0  0
  161.5220  214.1640  146.8480 O   0  0  0  0  0  0  0  0  0  0  0  0
  162.4830  209.5490  156.5910 C   0  0  0  0  0  2  0  0  0  0  0  0
  160.3100  208.4350  157.2600 O   0  0  0  0  0  0  0  0  0  0  0  0
  160.7750  210.7150  156.2540 C   0  0  2  0  0  3  0  0  0  0  0  0
  162.4630  211.1980  155.8770 S   0  0  0  0  0  0  0  0  0  0  0  0
  161.0060  209.3310  156.8140 C   0  0  0  0  0  0  0  0  0  0  0  0
  160.0430  204.0070  150.4100 C   0  0  0  0  0  2  0  0  0  0  0  0
  160.3690  202.5840  150.8210 C   0  0  0  0  0  2  0  0  0  0  0  0
  161.3290  201.8440  148.6750 C   0  0  2  0  0  3  0  0  0  0  0  0
  161.3090  200.6570  149.6100 C   0  0  0  0  0  2  0  0  0  0  0  0
  160.1760  201.6590  149.6400 C   0  0  1  0  0  3  0  0  0  0  0  0
  160.9230  201.4330  147.3960 O   0  0  0  0  0  0  0  0  0  0  0  0
  159.8240  202.0470  144.9980 S   0  0  0  0  0  1  0  0  0  0  0  0
  160.6490  202.5500  146.5640 C   0  0  1  0  0  0  0  0  0  0  0  0
  159.7260  203.3160  147.2470 F   0  0  0  0  0  0  0  0  0  0  0  0
  160.8700  205.3940  144.8200 C   0  0  2  0  0  0  0  0  0  0  0  0
  162.9970  205.5030  147.0800 O   0  0  0  0  0  0  0  0  0  0  0  0
  161.9230  203.4200  146.2830 C   0  0  1  0  0  0  0  0  0  0  0  0
  161.2710  204.5860  148.3970 F   0  0  0  0  0  0  0  0  0  0  0  0
  162.2730  204.3520  147.4640 C   0  0  2  0  0  3  0  0  0  0  0  0
  159.5980  204.9340  144.5270 F   0  0  0  0  0  0  0  0  0  0  0  0
  160.8220  206.3440  146.0270 C   0  0  2  0  0  3  0  0  0  0  0  0
  161.3320  206.2000  143.6230 C   0  0  0  0  0  1  0  0  0  0  0  0
  162.1630  206.6040  146.7540 C   0  0  1  0  0  3  0  0  0  0  0  0
  163.0160  202.5660  146.1290 O   0  0  0  0  0  1  0  0  0  0  0  0
  159.7760  206.0480  146.9040 O   0  0  0  0  0  1  0  0  0  0  0  0
  161.8260  204.2000  144.9520 C   0  0  0  0  0  2  0  0  0  0  0  0
  162.0780  207.6070  147.8650 C   0  0  0  0  0  3  0  0  0  0  0  0
  162.5680  207.3770  148.9580 O   0  0  0  0  0  0  0  0  0  0  0  0
  2  3  2  0  0  0  0
  2  6  1  0  0  0  0
  3  5  1  0  0  0  0
  4  1  1  0  0  0  0
  5  7  1  0  0  0  0
  5  1  2  0  0  0  0
  6  4  2  0  0  0  0
  7  8  2  0  0  0  0
 11 16  1  6  0  0  0
 11 12  1  0  0  0  0
 11 14  1  0  0  0  0
 12 13  1  0  0  0  0
 13  9  1  0  0  0  0
 13 10  2  0  0  0  0
 14  9  1  0  0  0  0
 15 16  1  1  0  0  0
 15 18  1  0  0  0  0
 17 14  2  0  0  0  0
 18  8  1  6  0  0  0
 18 17  1  0  0  0  0
 20 23  1  0  0  0  0
 20 22  2  0  0  0  0
 21 24  1  0  0  0  0
 22 21  1  0  0  0  0
 23 19  2  0  0  0  0
 24 19  1  6  0  0  0
 24 15  1  0  0  0  0
 25 26  1  0  0  0  0
 25 20  1  0  0  0  0
 27 25  2  0  0  0  0
 28 32  1  0  0  0  0
 30 17  1  6  0  0  0
 30 32  1  0  0  0  0
 31 30  1  0  0  0  0
 31 28  1  0  0  0  0
 32 29  2  0  0  0  0
 33 34  1  0  0  0  0
 33  2  1  0  0  0  0
 35 38  1  6  0  0  0
 35 36  1  0  0  0  0
 35 37  1  0  0  0  0
 36 37  1  0  0  0  0
 37 34  1  1  0  0  0
 40 39  1  6  0  0  0
 40 41  1  0  0  0  0
 40 38  1  0  0  0  0
 42 49  1  6  0  0  0
 42 53  1  0  0  0  0
 42 48  1  0  0  0  0
 43 46  1  0  0  0  0
 44 51  1  6  0  0  0
 44 40  1  0  0  0  0
 44 46  1  0  0  0  0
 46 45  1  6  0  0  0
 47 42  1  0  0  0  0
 48 50  1  0  0  0  0
 48 52  1  1  0  0  0
 50 43  1  0  0  0  0
 50 54  1  1  0  0  0
 53 44  1  0  0  0  0
 54 55  2  0  0  0  0
M  END
>  <MODEL>
4

>  <REMARK>
 VINA RESULT:      -3.0      5.216      8.863
  Name = 
  12 active torsions:
  status: ('A' for Active; 'I' for Inactive)
    1  A    between atoms: C_2  and  C_44
    2  A    between atoms: C_6  and  C_20
    3  A    between atoms: C_8  and  O_22
    4  A    between atoms: C_10  and  C_32
    5  A    between atoms: C_11  and  C_38
    6  A    between atoms: C_19  and  C_45
    7  A    between atoms: C_20  and  O_22
    8  A    between atoms: C_27  and  C_54
    9  A    between atoms: N_28  and  C_49
   10  A    between atoms: C_33  and  C_52
   11  A    between atoms: C_43  and  C_51
   12  A    between atoms: C_51  and  C_54
                            x       y       z     vdW  Elec       q    Type
                         _______ _______ _______ _____ _____    ______ ____

>  <TORSDO>
F 12

$$$$
=
 OpenBabel11062408513D

 55 61  0  0  1  0  0  0  0  0999 V2000
  160.1010  208.2160  155.2190 C   0  0  0  0  0  3  0  0  0  0  0  0
  161.4980  206.8880  153.1940 C   0  0  0  0  0  0  0  0  0  0  0  0
  161.2270  208.2530  153.0810 C   0  0  0  0  0  3  0  0  0  0  0  0
  160.3720  206.8490  155.3350 C   0  0  0  0  0  3  0  0  0  0  0  0
  160.5300  208.9240  154.0940 C   0  0  0  0  0  0  0  0  0  0  0  0
  161.0690  206.1830  154.3240 C   0  0  0  0  0  3  0  0  0  0  0  0
  160.2200  210.3500  153.9740 C   0  0  0  0  0  3  0  0  0  0  0  0
  159.1820  210.8520  154.5630 N   0  0  0  0  0  0  0  0  0  0  0  0
  156.2720  213.5060  157.0100 N   0  0  0  0  0  2  0  0  0  0  0  0
  154.1400  214.4480  157.2540 O   0  0  0  0  0  0  0  0  0  0  0  0
  156.0390  212.8370  154.6840 C   0  0  2  0  0  3  0  0  0  0  0  0
  154.8040  213.6510  155.0630 C   0  0  0  0  0  2  0  0  0  0  0  0
  155.0050  213.9030  156.5190 C   0  0  0  0  0  0  0  0  0  0  0  0
  156.9210  212.9400  155.8810 C   0  0  0  0  0  0  0  0  0  0  0  0
  158.0480  212.6070  153.2400 C   0  0  2  0  0  3  0  0  0  0  0  0
  156.7720  213.4270  153.4940 C   0  0  0  0  0  2  0  0  0  0  0  0
  158.2370  212.7000  155.8260 C   0  0  0  0  0  0  0  0  0  0  0  0
  158.8740  212.2740  154.5130 C   0  0  1  0  0  3  0  0  0  0  0  0
  159.9420  212.2500  151.6310 C   0  0  0  0  0  3  0  0  0  0  0  0
  160.1580  213.6430  149.6300 C   0  0  0  0  0  0  0  0  0  0  0  0
  158.1360  213.8940  151.0400 C   0  0  0  0  0  2  0  0  0  0  0  0
  159.0510  214.3420  149.9340 C   0  0  0  0  0  3  0  0  0  0  0  0
  160.5320  212.4720  150.4520 C   0  0  0  0  0  3  0  0  0  0  0  0
  158.9430  213.2400  152.1730 C   0  0  1  0  0  3  0  0  0  0  0  0
  161.0120  214.0470  148.5020 C   0  0  0  0  0  0  0  0  0  0  0  0
  162.2430  214.2530  148.6720 O   0  0  0  0  0  1  0  0  0  0  0  0
  160.4690  214.1980  147.2330 O   0  0  0  0  0  0  0  0  0  0  0  0
  161.1690  213.0940  157.1000 C   0  0  0  0  0  2  0  0  0  0  0  0
  160.3390  210.7050  157.2000 O   0  0  0  0  0  0  0  0  0  0  0  0
  159.0840  212.9020  157.0560 C   0  0  2  0  0  3  0  0  0  0  0  0
  159.9930  214.4480  156.9830 S   0  0  0  0  0  0  0  0  0  0  0  0
  160.2260  211.9170  157.1320 C   0  0  0  0  0  0  0  0  0  0  0  0
  162.2080  206.1840  152.0900 C   0  0  0  0  0  2  0  0  0  0  0  0
  162.1540  207.0220  150.8280 C   0  0  0  0  0  2  0  0  0  0  0  0
  161.0450  206.6910  148.6530 C   0  0  2  0  0  3  0  0  0  0  0  0
  162.5240  206.8730  148.3990 C   0  0  0  0  0  2  0  0  0  0  0  0
  162.0570  206.1160  149.6220 C   0  0  1  0  0  3  0  0  0  0  0  0
  160.5580  205.6590  147.8350 O   0  0  0  0  0  0  0  0  0  0  0  0
  160.0130  205.9780  145.2020 S   0  0  0  0  0  1  0  0  0  0  0  0
  161.2020  205.6630  146.5700 C   0  0  1  0  0  0  0  0  0  0  0  0
  162.0590  206.7450  146.5820 F   0  0  0  0  0  0  0  0  0  0  0  0
  161.0460  202.7540  148.2110 C   0  0  2  0  0  0  0  0  0  0  0  0
  161.7770  202.1350  145.2560 O   0  0  0  0  0  0  0  0  0  0  0  0
  162.0330  204.3590  146.3140 C   0  0  1  0  0  0  0  0  0  0  0  0
  160.1490  203.7710  144.7800 F   0  0  0  0  0  0  0  0  0  0  0  0
  161.4590  203.5090  145.1600 C   0  0  2  0  0  3  0  0  0  0  0  0
  160.3050  203.6130  149.0040 F   0  0  0  0  0  0  0  0  0  0  0  0
  160.1270  202.0370  147.2090 C   0  0  2  0  0  3  0  0  0  0  0  0
  161.6300  201.7000  149.1290 C   0  0  0  0  0  1  0  0  0  0  0  0
  160.8140  201.3880  145.9840 C   0  0  1  0  0  3  0  0  0  0  0  0
  163.3210  204.7250  145.9180 O   0  0  0  0  0  1  0  0  0  0  0  0
  159.0070  202.7980  146.8660 O   0  0  0  0  0  1  0  0  0  0  0  0
  162.2280  203.5190  147.5980 C   0  0  0  0  0  2  0  0  0  0  0  0
  159.8850  200.6260  145.0880 C   0  0  0  0  0  3  0  0  0  0  0  0
  160.0590  199.4390  144.8650 O   0  0  0  0  0  0  0  0  0  0  0  0
  1  4  1  0  0  0  0
  2  6  1  0  0  0  0
  3  2  2  0  0  0  0
  3  5  1  0  0  0  0
  5  1  2  0  0  0  0
  6  4  2  0  0  0  0
  7  5  1  0  0  0  0
  7  8  2  0  0  0  0
 11 16  1  6  0  0  0
 11 12  1  0  0  0  0
 11 14  1  0  0  0  0
 12 13  1  0  0  0  0
 13  9  1  0  0  0  0
 13 10  2  0  0  0  0
 14  9  1  0  0  0  0
 15 16  1  1  0  0  0
 15 18  1  0  0  0  0
 17 14  2  0  0  0  0
 18  8  1  1  0  0  0
 18 17  1  0  0  0  0
 19 24  1  0  0  0  0
 20 22  2  0  0  0  0
 20 23  1  0  0  0  0
 22 21  1  0  0  0  0
 23 19  2  0  0  0  0
 24 21  1  6  0  0  0
 24 15  1  0  0  0  0
 25 26  1  0  0  0  0
 25 20  1  0  0  0  0
 27 25  2  0  0  0  0
 28 32  1  0  0  0  0
 30 17  1  6  0  0  0
 30 32  1  0  0  0  0
 31 30  1  0  0  0  0
 31 28  1  0  0  0  0
 32 29  2  0  0  0  0
 33  2  1  0  0  0  0
 34 33  1  0  0  0  0
 35 38  1  6  0  0  0
 35 37  1  0  0  0  0
 36 35  1  0  0  0  0
 36 37  1  0  0  0  0
 37 34  1  1  0  0  0
 40 39  1  6  0  0  0
 40 41  1  0  0  0  0
 40 38  1  0  0  0  0
 42 47  1  0  0  0  0
 42 49  1  1  0  0  0
 43 50  1  0  0  0  0
 44 51  1  6  0  0  0
 44 40  1  0  0  0  0
 44 53  1  0  0  0  0
 46 45  1  1  0  0  0
 46 43  1  0  0  0  0
 46 44  1  0  0  0  0
 48 52  1  6  0  0  0
 48 42  1  0  0  0  0
 50 54  1  6  0  0  0
 50 48  1  0  0  0  0
 53 42  1  0  0  0  0
 55 54  2  0  0  0  0
M  END
>  <MODEL>
5

>  <REMARK>
 VINA RESULT:      -1.3      5.605      8.871
  Name = 
  12 active torsions:
  status: ('A' for Active; 'I' for Inactive)
    1  A    between atoms: C_2  and  C_44
    2  A    between atoms: C_6  and  C_20
    3  A    between atoms: C_8  and  O_22
    4  A    between atoms: C_10  and  C_32
    5  A    between atoms: C_11  and  C_38
    6  A    between atoms: C_19  and  C_45
    7  A    between atoms: C_20  and  O_22
    8  A    between atoms: C_27  and  C_54
    9  A    between atoms: N_28  and  C_49
   10  A    between atoms: C_33  and  C_52
   11  A    between atoms: C_43  and  C_51
   12  A    between atoms: C_51  and  C_54
                            x       y       z     vdW  Elec       q    Type
                         _______ _______ _______ _____ _____    ______ ____

>  <TORSDO>
F 12

$$$$
