=
 OpenBabel11062409493D

 34 39  0  0  1  0  0  0  0  0999 V2000
  161.6130  209.1860  153.3670 C   0  0  1  0  0  3  0  0  0  0  0  0
  161.1380  205.5060  152.9380 C   0  0  0  0  0  3  0  0  0  0  0  0
  160.4070  204.7270  149.4710 C   0  0  0  0  0  2  0  0  0  0  0  0
  160.5790  206.9590  154.7720 C   0  0  0  0  0  3  0  0  0  0  0  0
  161.4870  211.4430  152.0600 C   0  0  2  0  0  3  0  0  0  0  0  0
  162.3510  210.3920  152.7650 C   0  0  0  0  0  2  0  0  0  0  0  0
  159.2630  209.8740  154.0540 N   0  0  0  0  0  2  0  0  0  0  0  0
  159.2350  210.6150  152.7920 C   0  0  0  0  0  2  0  0  0  0  0  0
  161.6660  203.3300  151.4320 S   0  0  0  0  0  0  0  0  0  0  0  0
  160.1960  211.7940  152.8020 C   0  0  0  0  0  2  0  0  0  0  0  0
  160.4310  208.1780  155.3150 C   0  0  0  0  0  0  0  0  0  0  0  0
  160.5990  209.4380  154.4990 C   0  0  1  0  0  3  0  0  0  0  0  0
  160.0640  208.2830  156.6490 O   0  0  0  0  0  1  0  0  0  0  0  0
  161.6910  205.1370  151.6020 C   0  0  1  0  0  3  0  0  0  0  0  0
  161.1940  203.4480  149.6790 C   0  0  0  0  0  2  0  0  0  0  0  0
  160.8760  205.6950  150.4890 C   0  0  0  0  0  0  0  0  0  0  0  0
  160.6870  207.0000  150.3050 C   0  0  0  0  0  3  0  0  0  0  0  0
  160.9900  206.7600  153.3660 C   0  0  0  0  0  0  0  0  0  0  0  0
  161.1120  208.0660  151.2300 C   0  0  0  0  0  3  0  0  0  0  0  0
  161.3120  207.9630  152.5530 C   0  0  0  0  0  0  0  0  0  0  0  0
  161.2560  211.1040  150.5880 C   0  0  0  0  0  2  0  0  0  0  0  0
  160.8680  214.3390  150.2650 O   0  0  0  0  0  1  0  0  0  0  0  0
  162.1450  211.6610  148.3420 N   0  0  0  0  0  2  0  0  0  0  0  0
  159.0620  213.5880  146.2840 C   0  0  0  0  0  0  0  0  0  0  0  0
  159.6820  214.1780  147.3930 O   0  0  0  0  0  0  0  0  0  0  0  0
  160.8840  213.6750  147.9900 C   0  0  2  0  0  3  0  0  0  0  0  0
  160.3580  211.5560  146.7020 C   0  0  0  0  0  2  0  0  0  0  0  0
  161.4540  212.4300  147.3110 C   0  0  2  0  0  3  0  0  0  0  0  0
  159.3970  212.3610  145.8940 C   0  0  0  0  0  3  0  0  0  0  0  0
  161.7270  212.2050  149.6370 C   0  0  1  0  0  3  0  0  0  0  0  0
  160.6580  213.2560  149.4110 C   0  0  1  0  0  3  0  0  0  0  0  0
  158.0170  214.3420  145.5350 C   0  0  0  0  0  2  0  0  0  0  0  0
  156.6320  213.7970  145.8440 C   0  0  0  0  0  2  0  0  0  0  0  0
  156.0870  214.4510  147.0210 N   0  0  0  0  0  1  0  0  0  0  0  0
  1  6  1  6  0  0  0
  1 12  1  0  0  0  0
  2 18  2  0  0  0  0
  3 15  1  0  0  0  0
  3 16  1  0  0  0  0
  4 11  2  0  0  0  0
  5 21  1  6  0  0  0
  5  6  1  0  0  0  0
  5 10  1  0  0  0  0
  8 10  1  0  0  0  0
  8  7  1  0  0  0  0
  9 14  1  0  0  0  0
 11 13  1  0  0  0  0
 12  7  1  6  0  0  0
 12 11  1  0  0  0  0
 14  2  1  1  0  0  0
 15  9  1  0  0  0  0
 16 14  1  0  0  0  0
 17 16  2  0  0  0  0
 17 19  1  0  0  0  0
 18  4  1  0  0  0  0
 19 20  2  0  0  0  0
 20 18  1  0  0  0  0
 20  1  1  0  0  0  0
 23 30  1  0  0  0  0
 24 25  1  0  0  0  0
 26 25  1  6  0  0  0
 26 31  1  0  0  0  0
 28 27  1  1  0  0  0
 28 26  1  0  0  0  0
 28 23  1  0  0  0  0
 29 24  2  0  0  0  0
 29 27  1  0  0  0  0
 30 21  1  1  0  0  0
 31 30  1  0  0  0  0
 31 22  1  1  0  0  0
 32 33  1  0  0  0  0
 32 24  1  0  0  0  0
 33 34  1  0  0  0  0
M  END
>  <MODEL>
1

>  <REMARK>
 VINA RESULT:      -5.8      0.000      0.000
  Name = 
  4 active torsions:
  status: ('A' for Active; 'I' for Inactive)
    1  A    between atoms: C_7  and  C_11
    2  A    between atoms: C_8  and  C_18
    3  A    between atoms: C_11  and  C_15
    4  A    between atoms: C_18  and  C_30
                            x       y       z     vdW  Elec       q    Type
                         _______ _______ _______ _____ _____    ______ ____

>  <TORSDO>
F 4

$$$$
=
 OpenBabel11062409493D

 34 39  0  0  1  0  0  0  0  0999 V2000
  162.1690  204.3080  151.0090 C   0  0  1  0  0  3  0  0  0  0  0  0
  161.3690  203.6220  147.4260 C   0  0  0  0  0  3  0  0  0  0  0  0
  160.0750  206.6120  145.8300 C   0  0  0  0  0  2  0  0  0  0  0  0
  161.1970  202.2160  149.3700 C   0  0  0  0  0  3  0  0  0  0  0  0
  162.0130  206.1710  152.8310 C   0  0  2  0  0  3  0  0  0  0  0  0
  162.8950  205.3120  151.9190 C   0  0  0  0  0  2  0  0  0  0  0  0
  160.0050  203.5580  152.1130 N   0  0  0  0  0  2  0  0  0  0  0  0
  159.8420  204.9640  152.4860 C   0  0  0  0  0  2  0  0  0  0  0  0
  161.5080  204.5070  144.8800 S   0  0  0  0  0  0  0  0  0  0  0  0
  160.8770  205.4050  153.5100 C   0  0  0  0  0  2  0  0  0  0  0  0
  161.2210  202.0250  150.6990 C   0  0  0  0  0  0  0  0  0  0  0  0
  161.3560  203.1760  151.6670 C   0  0  1  0  0  3  0  0  0  0  0  0
  161.0660  200.7400  151.1990 O   0  0  0  0  0  1  0  0  0  0  0  0
  161.6890  204.8580  146.6520 C   0  0  1  0  0  3  0  0  0  0  0  0
  160.7890  206.1500  144.5750 C   0  0  0  0  0  2  0  0  0  0  0  0
  160.7590  205.9720  146.9770 C   0  0  0  0  0  0  0  0  0  0  0  0
  160.6390  206.4930  148.1980 C   0  0  0  0  0  3  0  0  0  0  0  0
  161.3790  203.5490  148.7570 C   0  0  0  0  0  0  0  0  0  0  0  0
  161.2750  205.9640  149.4190 C   0  0  0  0  0  3  0  0  0  0  0  0
  161.6620  204.7020  149.6540 C   0  0  0  0  0  0  0  0  0  0  0  0
  161.5420  207.4480  152.1370 C   0  0  0  0  0  2  0  0  0  0  0  0
  161.5230  208.4180  155.2640 O   0  0  0  0  0  1  0  0  0  0  0  0
  161.8290  209.9090  152.0740 N   0  0  0  0  0  2  0  0  0  0  0  0
  158.5850  211.5430  154.1360 C   0  0  0  0  0  0  0  0  0  0  0  0
  159.5660  210.7910  154.7940 O   0  0  0  0  0  0  0  0  0  0  0  0
  160.8070  210.4060  154.1900 C   0  0  2  0  0  3  0  0  0  0  0  0
  159.6560  210.9890  152.0080 C   0  0  0  0  0  2  0  0  0  0  0  0
  160.9880  210.8910  152.7520 C   0  0  2  0  0  3  0  0  0  0  0  0
  158.6250  211.7040  152.8170 C   0  0  0  0  0  3  0  0  0  0  0  0
  161.8710  208.7170  152.9240 C   0  0  1  0  0  3  0  0  0  0  0  0
  160.9360  208.9150  154.1010 C   0  0  1  0  0  3  0  0  0  0  0  0
  157.4830  212.1690  154.9220 C   0  0  0  0  0  2  0  0  0  0  0  0
  156.6830  211.1130  155.6660 C   0  0  0  0  0  2  0  0  0  0  0  0
  155.5620  210.6700  154.8550 N   0  0  0  0  0  1  0  0  0  0  0  0
  1 12  1  0  0  0  0
  1  6  1  1  0  0  0
  2 18  2  0  0  0  0
  3 16  1  0  0  0  0
  4 11  2  0  0  0  0
  5 21  1  6  0  0  0
  5 10  1  0  0  0  0
  6  5  1  0  0  0  0
  7  8  1  0  0  0  0
  8 10  1  0  0  0  0
  9 14  1  0  0  0  0
 11 13  1  0  0  0  0
 12 11  1  6  0  0  0
 12  7  1  0  0  0  0
 14 16  1  0  0  0  0
 14  2  1  1  0  0  0
 15  9  1  0  0  0  0
 15  3  1  0  0  0  0
 16 17  2  0  0  0  0
 17 19  1  0  0  0  0
 18  4  1  0  0  0  0
 18 20  1  0  0  0  0
 19 20  2  0  0  0  0
 20  1  1  0  0  0  0
 23 28  1  0  0  0  0
 23 30  1  0  0  0  0
 24 25  1  0  0  0  0
 24 32  1  0  0  0  0
 26 25  1  6  0  0  0
 27 29  1  0  0  0  0
 28 27  1  6  0  0  0
 28 26  1  0  0  0  0
 29 24  2  0  0  0  0
 30 21  1  6  0  0  0
 30 31  1  0  0  0  0
 31 26  1  0  0  0  0
 31 22  1  1  0  0  0
 32 33  1  0  0  0  0
 34 33  1  0  0  0  0
M  END
>  <MODEL>
2

>  <REMARK>
 VINA RESULT:      -5.5      4.087      6.420
  Name = 
  4 active torsions:
  status: ('A' for Active; 'I' for Inactive)
    1  A    between atoms: C_7  and  C_11
    2  A    between atoms: C_8  and  C_18
    3  A    between atoms: C_11  and  C_15
    4  A    between atoms: C_18  and  C_30
                            x       y       z     vdW  Elec       q    Type
                         _______ _______ _______ _____ _____    ______ ____

>  <TORSDO>
F 4

$$$$
=
 OpenBabel11062409493D

 34 39  0  0  1  0  0  0  0  0999 V2000
  156.8140  212.3610  154.4600 C   0  0  1  0  0  3  0  0  0  0  0  0
  156.8350  213.8940  151.0540 C   0  0  0  0  0  3  0  0  0  0  0  0
  160.2430  214.4530  149.9450 C   0  0  0  0  0  2  0  0  0  0  0  0
  155.3090  214.1730  152.8930 C   0  0  0  0  0  3  0  0  0  0  0  0
  158.4040  211.6480  156.4040 C   0  0  2  0  0  3  0  0  0  0  0  0
  157.4470  211.2280  155.2840 C   0  0  0  0  0  2  0  0  0  0  0  0
  156.5870  214.4450  155.8990 N   0  0  0  0  0  2  0  0  0  0  0  0
  157.9230  214.1100  156.3930 C   0  0  0  0  0  2  0  0  0  0  0  0
  157.9500  213.9010  148.5960 S   0  0  0  0  0  0  0  0  0  0  0  0
  157.9190  212.8400  157.2310 C   0  0  0  0  0  2  0  0  0  0  0  0
  154.9560  213.9960  154.1760 C   0  0  0  0  0  0  0  0  0  0  0  0
  155.8910  213.3640  155.1790 C   0  0  1  0  0  3  0  0  0  0  0  0
  153.7180  214.4530  154.6050 O   0  0  0  0  0  1  0  0  0  0  0  0
  158.0120  213.3410  150.3220 C   0  0  1  0  0  3  0  0  0  0  0  0
  159.7540  214.1240  148.5480 C   0  0  0  0  0  2  0  0  0  0  0  0
  159.2980  213.8220  150.8950 C   0  0  0  0  0  0  0  0  0  0  0  0
  159.6750  213.5810  152.1490 C   0  0  0  0  0  3  0  0  0  0  0  0
  156.5980  213.6940  152.3500 C   0  0  0  0  0  0  0  0  0  0  0  0
  158.8400  212.9500  153.1880 C   0  0  0  0  0  3  0  0  0  0  0  0
  157.5010  212.9330  153.2560 C   0  0  0  0  0  0  0  0  0  0  0  0
  159.8380  211.8130  155.9030 C   0  0  0  0  0  2  0  0  0  0  0  0
  162.8420  210.6980  155.2280 O   0  0  0  0  0  1  0  0  0  0  0  0
  160.0720  209.7070  157.1890 N   0  0  0  0  0  2  0  0  0  0  0  0
  161.0400  206.7240  154.4300 C   0  0  0  0  0  0  0  0  0  0  0  0
  161.9290  207.7670  154.7220 O   0  0  0  0  0  0  0  0  0  0  0  0
  161.7510  208.6770  155.8140 C   0  0  2  0  0  3  0  0  0  0  0  0
  159.3630  207.8280  155.8270 C   0  0  0  0  0  2  0  0  0  0  0  0
  160.5030  208.4180  156.6570 C   0  0  2  0  0  3  0  0  0  0  0  0
  159.8300  206.6920  154.9790 C   0  0  0  0  0  3  0  0  0  0  0  0
  160.7890  210.7430  156.4400 C   0  0  1  0  0  3  0  0  0  0  0  0
  161.5920  210.0880  155.3340 C   0  0  1  0  0  3  0  0  0  0  0  0
  161.4550  205.6410  153.4940 C   0  0  0  0  0  2  0  0  0  0  0  0
  162.1010  206.2230  152.2470 C   0  0  0  0  0  2  0  0  0  0  0  0
  161.1340  206.2860  151.1650 N   0  0  0  0  0  1  0  0  0  0  0  0
  1 12  1  0  0  0  0
  1  6  1  1  0  0  0
  2 18  2  0  0  0  0
  3 16  1  0  0  0  0
  4 11  2  0  0  0  0
  5 21  1  6  0  0  0
  5 10  1  0  0  0  0
  6  5  1  0  0  0  0
  7  8  1  0  0  0  0
  8 10  1  0  0  0  0
  9 14  1  0  0  0  0
 11 13  1  0  0  0  0
 12 11  1  6  0  0  0
 12  7  1  0  0  0  0
 14 16  1  0  0  0  0
 14  2  1  1  0  0  0
 15  9  1  0  0  0  0
 15  3  1  0  0  0  0
 16 17  2  0  0  0  0
 17 19  1  0  0  0  0
 18  4  1  0  0  0  0
 18 20  1  0  0  0  0
 19 20  2  0  0  0  0
 20  1  1  0  0  0  0
 24 25  1  0  0  0  0
 24 29  2  0  0  0  0
 26 25  1  6  0  0  0
 26 28  1  0  0  0  0
 28 27  1  6  0  0  0
 28 23  1  0  0  0  0
 29 27  1  0  0  0  0
 30 21  1  6  0  0  0
 30 23  1  0  0  0  0
 31 22  1  1  0  0  0
 31 26  1  0  0  0  0
 31 30  1  0  0  0  0
 32 24  1  0  0  0  0
 33 32  1  0  0  0  0
 34 33  1  0  0  0  0
M  END
>  <MODEL>
3

>  <REMARK>
 VINA RESULT:      -5.2      4.071      8.557
  Name = 
  4 active torsions:
  status: ('A' for Active; 'I' for Inactive)
    1  A    between atoms: C_7  and  C_11
    2  A    between atoms: C_8  and  C_18
    3  A    between atoms: C_11  and  C_15
    4  A    between atoms: C_18  and  C_30
                            x       y       z     vdW  Elec       q    Type
                         _______ _______ _______ _____ _____    ______ ____

>  <TORSDO>
F 4

$$$$
=
 OpenBabel11062409493D

 34 39  0  0  1  0  0  0  0  0999 V2000
  157.2580  212.0040  154.4840 C   0  0  1  0  0  3  0  0  0  0  0  0
  155.4060  214.1330  152.0370 C   0  0  0  0  0  3  0  0  0  0  0  0
  157.2870  214.4300  148.9490 C   0  0  0  0  0  2  0  0  0  0  0  0
  155.5560  214.2630  154.4350 C   0  0  0  0  0  3  0  0  0  0  0  0
  159.5150  210.7320  154.8090 C   0  0  2  0  0  3  0  0  0  0  0  0
  157.9980  210.6620  154.6080 C   0  0  0  0  0  2  0  0  0  0  0  0
  158.4980  213.7920  155.8010 N   0  0  0  0  0  2  0  0  0  0  0  0
  159.7140  213.1940  155.2470 C   0  0  0  0  0  2  0  0  0  0  0  0
  154.6200  214.4530  149.4750 S   0  0  0  0  0  0  0  0  0  0  0  0
  159.9690  211.8010  155.8040 C   0  0  0  0  0  2  0  0  0  0  0  0
  156.0930  213.8970  155.6090 C   0  0  0  0  0  0  0  0  0  0  0  0
  157.2820  212.9680  155.6860 C   0  0  1  0  0  3  0  0  0  0  0  0
  155.5760  214.4270  156.7830 O   0  0  0  0  0  1  0  0  0  0  0  0
  155.6610  213.5750  150.6770 C   0  0  1  0  0  3  0  0  0  0  0  0
  155.9500  214.4380  148.2340 C   0  0  0  0  0  2  0  0  0  0  0  0
  157.0750  213.7640  150.2550 C   0  0  0  0  0  0  0  0  0  0  0  0
  158.1100  213.2430  150.9120 C   0  0  0  0  0  3  0  0  0  0  0  0
  156.0320  213.7270  153.1420 C   0  0  0  0  0  0  0  0  0  0  0  0
  158.0360  212.5450  152.2090 C   0  0  0  0  0  3  0  0  0  0  0  0
  157.1040  212.6960  153.1620 C   0  0  0  0  0  0  0  0  0  0  0  0
  160.2680  210.7950  153.4800 C   0  0  0  0  0  2  0  0  0  0  0  0
  162.5200  209.8590  151.2950 O   0  0  0  0  0  1  0  0  0  0  0  0
  161.5570  208.9890  154.5840 N   0  0  0  0  0  2  0  0  0  0  0  0
  161.3320  205.6570  152.0740 C   0  0  0  0  0  0  0  0  0  0  0  0
  162.0270  206.8120  151.6950 O   0  0  0  0  0  0  0  0  0  0  0  0
  162.3310  207.8850  152.5950 C   0  0  2  0  0  3  0  0  0  0  0  0
  160.5590  206.8360  154.0730 C   0  0  0  0  0  2  0  0  0  0  0  0
  161.8390  207.6700  154.0260 C   0  0  2  0  0  3  0  0  0  0  0  0
  160.6670  205.6130  153.2240 C   0  0  0  0  0  3  0  0  0  0  0  0
  161.5310  209.9330  153.4640 C   0  0  1  0  0  3  0  0  0  0  0  0
  161.6790  209.1650  152.1650 C   0  0  1  0  0  3  0  0  0  0  0  0
  161.3390  204.4640  151.1790 C   0  0  0  0  0  2  0  0  0  0  0  0
  160.7970  204.8180  149.8040 C   0  0  0  0  0  2  0  0  0  0  0  0
  160.9940  203.7080  148.8870 N   0  0  0  0  0  1  0  0  0  0  0  0
  1  6  1  6  0  0  0
  1 12  1  0  0  0  0
  2 18  2  0  0  0  0
  3 16  1  0  0  0  0
  4 11  2  0  0  0  0
  5 21  1  6  0  0  0
  5 10  1  0  0  0  0
  6  5  1  0  0  0  0
  8  7  1  0  0  0  0
  8 10  1  0  0  0  0
  9 14  1  0  0  0  0
 11 13  1  0  0  0  0
 12 11  1  6  0  0  0
 12  7  1  0  0  0  0
 14  2  1  1  0  0  0
 15  3  1  0  0  0  0
 15  9  1  0  0  0  0
 16 14  1  0  0  0  0
 16 17  2  0  0  0  0
 17 19  1  0  0  0  0
 18 20  1  0  0  0  0
 18  4  1  0  0  0  0
 19 20  2  0  0  0  0
 20  1  1  0  0  0  0
 24 29  2  0  0  0  0
 25 24  1  0  0  0  0
 26 25  1  6  0  0  0
 26 28  1  0  0  0  0
 28 27  1  6  0  0  0
 28 23  1  0  0  0  0
 29 27  1  0  0  0  0
 30 21  1  6  0  0  0
 30 23  1  0  0  0  0
 31 22  1  6  0  0  0
 31 26  1  0  0  0  0
 31 30  1  0  0  0  0
 32 24  1  0  0  0  0
 33 32  1  0  0  0  0
 34 33  1  0  0  0  0
M  END
>  <MODEL>
4

>  <REMARK>
 VINA RESULT:      -4.8      4.281      8.114
  Name = 
  4 active torsions:
  status: ('A' for Active; 'I' for Inactive)
    1  A    between atoms: C_7  and  C_11
    2  A    between atoms: C_8  and  C_18
    3  A    between atoms: C_11  and  C_15
    4  A    between atoms: C_18  and  C_30
                            x       y       z     vdW  Elec       q    Type
                         _______ _______ _______ _____ _____    ______ ____

>  <TORSDO>
F 4

$$$$
=
 OpenBabel11062409493D

 34 39  0  0  1  0  0  0  0  0999 V2000
  162.5400  207.4420  151.1450 C   0  0  1  0  0  3  0  0  0  0  0  0
  161.5860  210.3480  153.2880 C   0  0  0  0  0  3  0  0  0  0  0  0
  159.4830  209.2520  156.0330 C   0  0  0  0  0  2  0  0  0  0  0  0
  161.9330  210.1950  150.9130 C   0  0  0  0  0  3  0  0  0  0  0  0
  162.1260  204.8810  150.8490 C   0  0  2  0  0  3  0  0  0  0  0  0
  163.0930  206.0100  151.2200 C   0  0  0  0  0  2  0  0  0  0  0  0
  160.7250  207.5680  149.3680 N   0  0  0  0  0  2  0  0  0  0  0  0
  160.2750  206.2820  149.9000 C   0  0  0  0  0  2  0  0  0  0  0  0
  161.2710  211.2850  155.8000 S   0  0  0  0  0  0  0  0  0  0  0  0
  161.2700  205.1670  149.6150 C   0  0  0  0  0  2  0  0  0  0  0  0
  162.1270  209.4890  149.7870 C   0  0  0  0  0  0  0  0  0  0  0  0
  162.0800  207.9800  149.7760 C   0  0  1  0  0  3  0  0  0  0  0  0
  162.3250  210.1660  148.5920 O   0  0  0  0  0  1  0  0  0  0  0  0
  161.5330  209.8650  154.6990 C   0  0  1  0  0  3  0  0  0  0  0  0
  160.1630  210.3180  156.8700 C   0  0  0  0  0  2  0  0  0  0  0  0
  160.4030  208.9220  154.9210 C   0  0  0  0  0  0  0  0  0  0  0  0
  160.2820  207.7620  154.2780 C   0  0  0  0  0  3  0  0  0  0  0  0
  161.7380  209.5530  152.2300 C   0  0  0  0  0  0  0  0  0  0  0  0
  161.1360  207.3070  153.1660 C   0  0  0  0  0  3  0  0  0  0  0  0
  161.8290  208.0700  152.3070 C   0  0  0  0  0  0  0  0  0  0  0  0
  161.3050  204.4110  152.0500 C   0  0  0  0  0  2  0  0  0  0  0  0
  162.7800  201.4920  152.2110 O   0  0  0  0  0  1  0  0  0  0  0  0
  159.6200  202.7680  151.2720 N   0  0  0  0  0  2  0  0  0  0  0  0
  161.3560  200.6960  148.0870 C   0  0  0  0  0  0  0  0  0  0  0  0
  161.8370  200.5620  149.3960 O   0  0  0  0  0  0  0  0  0  0  0  0
  161.1470  201.0610  150.5480 C   0  0  2  0  0  3  0  0  0  0  0  0
  159.8350  202.4420  148.8760 C   0  0  0  0  0  2  0  0  0  0  0  0
  159.8200  201.7540  150.2410 C   0  0  2  0  0  3  0  0  0  0  0  0
  160.3680  201.5410  147.8110 C   0  0  0  0  0  3  0  0  0  0  0  0
  160.9010  202.9390  151.9620 C   0  0  1  0  0  3  0  0  0  0  0  0
  161.9540  202.1000  151.2660 C   0  0  1  0  0  3  0  0  0  0  0  0
  161.9580  199.8810  146.9930 C   0  0  0  0  0  2  0  0  0  0  0  0
  160.9410  199.6180  145.8940 C   0  0  0  0  0  2  0  0  0  0  0  0
  161.1910  198.3250  145.2810 N   0  0  0  0  0  1  0  0  0  0  0  0
  1  6  1  6  0  0  0
  1 20  1  0  0  0  0
  3 15  1  0  0  0  0
  4 18  1  0  0  0  0
  5  6  1  0  0  0  0
  5 21  1  1  0  0  0
  7  8  1  0  0  0  0
  9 15  1  0  0  0  0
 10  8  1  0  0  0  0
 10  5  1  0  0  0  0
 11  4  2  0  0  0  0
 12  7  1  1  0  0  0
 12 11  1  0  0  0  0
 12  1  1  0  0  0  0
 13 11  1  0  0  0  0
 14  2  1  6  0  0  0
 14 16  1  0  0  0  0
 14  9  1  0  0  0  0
 16  3  1  0  0  0  0
 17 16  2  0  0  0  0
 18 20  1  0  0  0  0
 18  2  2  0  0  0  0
 19 17  1  0  0  0  0
 20 19  2  0  0  0  0
 23 30  1  0  0  0  0
 24 25  1  0  0  0  0
 26 25  1  6  0  0  0
 26 31  1  0  0  0  0
 28 27  1  6  0  0  0
 28 26  1  0  0  0  0
 28 23  1  0  0  0  0
 29 24  2  0  0  0  0
 29 27  1  0  0  0  0
 30 21  1  6  0  0  0
 31 30  1  0  0  0  0
 31 22  1  1  0  0  0
 32 24  1  0  0  0  0
 33 32  1  0  0  0  0
 34 33  1  0  0  0  0
M  END
>  <MODEL>
5

>  <REMARK>
 VINA RESULT:      -4.7      4.487      9.164
  Name = 
  4 active torsions:
  status: ('A' for Active; 'I' for Inactive)
    1  A    between atoms: C_7  and  C_11
    2  A    between atoms: C_8  and  C_18
    3  A    between atoms: C_11  and  C_15
    4  A    between atoms: C_18  and  C_30
                            x       y       z     vdW  Elec       q    Type
                         _______ _______ _______ _____ _____    ______ ____

>  <TORSDO>
F 4

$$$$
=
 OpenBabel11062409493D

 34 39  0  0  1  0  0  0  0  0999 V2000
  157.9910  211.3920  154.6070 C   0  0  1  0  0  3  0  0  0  0  0  0
  156.0190  213.8920  152.6540 C   0  0  0  0  0  3  0  0  0  0  0  0
  157.2350  214.0670  149.2410 C   0  0  0  0  0  2  0  0  0  0  0  0
  156.6840  213.8760  154.9660 C   0  0  0  0  0  3  0  0  0  0  0  0
  160.0430  209.7890  154.4170 C   0  0  2  0  0  3  0  0  0  0  0  0
  158.5240  209.9530  154.5450 C   0  0  0  0  0  2  0  0  0  0  0  0
  159.7380  212.9100  155.6600 N   0  0  0  0  0  2  0  0  0  0  0  0
  160.7040  212.1700  154.8480 C   0  0  0  0  0  2  0  0  0  0  0  0
  154.7740  214.4530  150.3260 S   0  0  0  0  0  0  0  0  0  0  0  0
  160.8530  210.7280  155.3120 C   0  0  0  0  0  2  0  0  0  0  0  0
  157.3920  213.3760  155.9900 C   0  0  0  0  0  0  0  0  0  0  0  0
  158.4130  212.2800  155.7940 C   0  0  1  0  0  3  0  0  0  0  0  0
  157.2200  213.9160  157.2580 O   0  0  0  0  0  1  0  0  0  0  0  0
  155.8940  213.3720  151.2600 C   0  0  1  0  0  3  0  0  0  0  0  0
  155.7960  214.3060  148.8280 C   0  0  0  0  0  2  0  0  0  0  0  0
  157.2010  213.3730  150.5490 C   0  0  0  0  0  0  0  0  0  0  0  0
  158.2570  212.6730  150.9600 C   0  0  0  0  0  3  0  0  0  0  0  0
  156.7910  213.3430  153.5910 C   0  0  0  0  0  0  0  0  0  0  0  0
  158.3500  211.9290  152.2290 C   0  0  0  0  0  3  0  0  0  0  0  0
  157.6720  212.1660  153.3620 C   0  0  0  0  0  0  0  0  0  0  0  0
  160.5020  209.8080  152.9600 C   0  0  0  0  0  2  0  0  0  0  0  0
  162.4950  209.1150  150.4560 O   0  0  0  0  0  1  0  0  0  0  0  0
  161.7880  207.8100  153.6650 N   0  0  0  0  0  2  0  0  0  0  0  0
  161.1620  204.8950  150.7400 C   0  0  0  0  0  0  0  0  0  0  0  0
  161.8790  206.0650  150.4640 O   0  0  0  0  0  0  0  0  0  0  0  0
  162.3190  206.9820  151.4740 C   0  0  2  0  0  3  0  0  0  0  0  0
  160.6350  205.7970  152.9520 C   0  0  0  0  0  2  0  0  0  0  0  0
  161.9480  206.5770  152.9000 C   0  0  2  0  0  3  0  0  0  0  0  0
  160.6010  204.7080  151.9310 C   0  0  0  0  0  3  0  0  0  0  0  0
  161.7100  208.9090  152.6990 C   0  0  1  0  0  3  0  0  0  0  0  0
  161.7000  208.3350  151.2960 C   0  0  1  0  0  3  0  0  0  0  0  0
  161.0250  203.8470  149.6880 C   0  0  0  0  0  2  0  0  0  0  0  0
  161.0660  204.4670  148.3000 C   0  0  0  0  0  2  0  0  0  0  0  0
  162.1520  203.8910  147.5260 N   0  0  0  0  0  1  0  0  0  0  0  0
  1  6  1  6  0  0  0
  1 12  1  0  0  0  0
  2 18  2  0  0  0  0
  3 16  1  0  0  0  0
  4 11  2  0  0  0  0
  5 21  1  6  0  0  0
  5  6  1  0  0  0  0
  5 10  1  0  0  0  0
  8 10  1  0  0  0  0
  8  7  1  0  0  0  0
  9 14  1  0  0  0  0
 11 13  1  0  0  0  0
 12  7  1  6  0  0  0
 12 11  1  0  0  0  0
 14  2  1  1  0  0  0
 15  3  1  0  0  0  0
 15  9  1  0  0  0  0
 16 17  2  0  0  0  0
 16 14  1  0  0  0  0
 17 19  1  0  0  0  0
 18  4  1  0  0  0  0
 19 20  2  0  0  0  0
 20 18  1  0  0  0  0
 20  1  1  0  0  0  0
 24 29  2  0  0  0  0
 25 24  1  0  0  0  0
 26 25  1  6  0  0  0
 26 28  1  0  0  0  0
 28 27  1  6  0  0  0
 28 23  1  0  0  0  0
 29 27  1  0  0  0  0
 30 21  1  1  0  0  0
 30 23  1  0  0  0  0
 31 22  1  6  0  0  0
 31 26  1  0  0  0  0
 31 30  1  0  0  0  0
 32 24  1  0  0  0  0
 33 32  1  0  0  0  0
 34 33  1  0  0  0  0
M  END
>  <MODEL>
6

>  <REMARK>
 VINA RESULT:      -4.6      4.233      7.812
  Name = 
  4 active torsions:
  status: ('A' for Active; 'I' for Inactive)
    1  A    between atoms: C_7  and  C_11
    2  A    between atoms: C_8  and  C_18
    3  A    between atoms: C_11  and  C_15
    4  A    between atoms: C_18  and  C_30
                            x       y       z     vdW  Elec       q    Type
                         _______ _______ _______ _____ _____    ______ ____

>  <TORSDO>
F 4

$$$$
=
 OpenBabel11062409493D

 34 39  0  0  1  0  0  0  0  0999 V2000
  162.2560  208.4730  151.4730 C   0  0  1  0  0  3  0  0  0  0  0  0
  161.4840  205.2190  149.8110 C   0  0  0  0  0  3  0  0  0  0  0  0
  160.4190  205.7740  146.3880 C   0  0  0  0  0  2  0  0  0  0  0  0
  161.1820  205.9290  152.0900 C   0  0  0  0  0  3  0  0  0  0  0  0
  162.1860  211.0530  151.0760 C   0  0  2  0  0  3  0  0  0  0  0  0
  163.0270  209.7870  151.2680 C   0  0  0  0  0  2  0  0  0  0  0  0
  160.0260  208.9550  152.5960 N   0  0  0  0  0  2  0  0  0  0  0  0
  159.9480  210.1020  151.6910 C   0  0  0  0  0  2  0  0  0  0  0  0
  161.7300  203.7150  147.5830 S   0  0  0  0  0  0  0  0  0  0  0  0
  160.9890  211.1610  152.0220 C   0  0  0  0  0  2  0  0  0  0  0  0
  161.1680  206.8740  153.0430 C   0  0  0  0  0  0  0  0  0  0  0  0
  161.3580  208.3370  152.7180 C   0  0  1  0  0  3  0  0  0  0  0  0
  160.9200  206.5040  154.3570 O   0  0  0  0  0  1  0  0  0  0  0  0
  161.8980  205.3370  148.3820 C   0  0  1  0  0  3  0  0  0  0  0  0
  161.1260  204.4770  146.0460 C   0  0  0  0  0  2  0  0  0  0  0  0
  161.0370  206.2890  147.6310 C   0  0  0  0  0  0  0  0  0  0  0  0
  160.9280  207.5800  147.9440 C   0  0  0  0  0  3  0  0  0  0  0  0
  161.4620  206.2370  150.6710 C   0  0  0  0  0  0  0  0  0  0  0  0
  161.5030  208.2220  149.1400 C   0  0  0  0  0  3  0  0  0  0  0  0
  161.8030  207.6400  150.3110 C   0  0  0  0  0  0  0  0  0  0  0  0
  161.8130  211.2780  149.6120 C   0  0  0  0  0  2  0  0  0  0  0  0
  159.4020  213.4930  149.6830 O   0  0  0  0  0  1  0  0  0  0  0  0
  162.6500  213.2160  148.3140 N   0  0  0  0  0  2  0  0  0  0  0  0
  159.8550  213.9280  145.2920 C   0  0  0  0  0  0  0  0  0  0  0  0
  159.5430  214.1350  146.6420 O   0  0  0  0  0  0  0  0  0  0  0  0
  160.5180  214.1310  147.6910 C   0  0  2  0  0  3  0  0  0  0  0  0
  162.0050  212.9880  145.9850 C   0  0  0  0  0  2  0  0  0  0  0  0
  161.9520  213.8860  147.2210 C   0  0  2  0  0  3  0  0  0  0  0  0
  161.0380  213.4330  144.9390 C   0  0  0  0  0  3  0  0  0  0  0  0
  161.6300  212.7540  149.2580 C   0  0  1  0  0  3  0  0  0  0  0  0
  160.2570  213.0350  148.6800 C   0  0  1  0  0  3  0  0  0  0  0  0
  158.8520  214.2640  144.2420 C   0  0  0  0  0  2  0  0  0  0  0  0
  159.4990  214.2890  142.8660 C   0  0  0  0  0  2  0  0  0  0  0  0
  158.6430  213.6250  141.8980 N   0  0  0  0  0  1  0  0  0  0  0  0
  1  6  1  6  0  0  0
  1 12  1  0  0  0  0
  2 18  2  0  0  0  0
  3 16  1  0  0  0  0
  4 11  2  0  0  0  0
  5 21  1  6  0  0  0
  5  6  1  0  0  0  0
  5 10  1  0  0  0  0
  8 10  1  0  0  0  0
  8  7  1  0  0  0  0
  9 14  1  0  0  0  0
 11 13  1  0  0  0  0
 12  7  1  6  0  0  0
 12 11  1  0  0  0  0
 14  2  1  1  0  0  0
 15  3  1  0  0  0  0
 15  9  1  0  0  0  0
 16 17  2  0  0  0  0
 16 14  1  0  0  0  0
 17 19  1  0  0  0  0
 18  4  1  0  0  0  0
 19 20  2  0  0  0  0
 20 18  1  0  0  0  0
 20  1  1  0  0  0  0
 23 30  1  0  0  0  0
 24 25  1  0  0  0  0
 26 25  1  6  0  0  0
 26 31  1  0  0  0  0
 28 27  1  6  0  0  0
 28 26  1  0  0  0  0
 28 23  1  0  0  0  0
 29 24  2  0  0  0  0
 29 27  1  0  0  0  0
 30 21  1  6  0  0  0
 31 30  1  0  0  0  0
 31 22  1  1  0  0  0
 32 24  1  0  0  0  0
 33 32  1  0  0  0  0
 34 33  1  0  0  0  0
M  END
>  <MODEL>
7

>  <REMARK>
 VINA RESULT:      -4.6      2.081      2.518
  Name = 
  4 active torsions:
  status: ('A' for Active; 'I' for Inactive)
    1  A    between atoms: C_7  and  C_11
    2  A    between atoms: C_8  and  C_18
    3  A    between atoms: C_11  and  C_15
    4  A    between atoms: C_18  and  C_30
                            x       y       z     vdW  Elec       q    Type
                         _______ _______ _______ _____ _____    ______ ____

>  <TORSDO>
F 4

$$$$
=
 OpenBabel11062409493D

 34 39  0  0  1  0  0  0  0  0999 V2000
  162.1400  204.3340  150.9920 C   0  0  1  0  0  3  0  0  0  0  0  0
  161.3900  203.6170  147.4040 C   0  0  0  0  0  3  0  0  0  0  0  0
  160.0890  206.5830  145.7720 C   0  0  0  0  0  2  0  0  0  0  0  0
  161.2070  202.2230  149.3560 C   0  0  0  0  0  3  0  0  0  0  0  0
  161.9460  206.2090  152.7990 C   0  0  2  0  0  3  0  0  0  0  0  0
  162.8460  205.3510  151.9040 C   0  0  0  0  0  2  0  0  0  0  0  0
  159.9690  203.5730  152.0750 N   0  0  0  0  0  2  0  0  0  0  0  0
  159.7900  204.9800  152.4360 C   0  0  0  0  0  2  0  0  0  0  0  0
  161.5520  204.4850  144.8540 S   0  0  0  0  0  0  0  0  0  0  0  0
  160.8080  205.4380  153.4690 C   0  0  0  0  0  2  0  0  0  0  0  0
  161.2160  202.0410  150.6870 C   0  0  0  0  0  0  0  0  0  0  0  0
  161.3290  203.2000  151.6480 C   0  0  1  0  0  3  0  0  0  0  0  0
  161.0670  200.7580  151.1940 O   0  0  0  0  0  1  0  0  0  0  0  0
  161.7080  204.8500  146.6260 C   0  0  1  0  0  3  0  0  0  0  0  0
  160.8220  206.1190  144.5290 C   0  0  0  0  0  2  0  0  0  0  0  0
  160.7650  205.9580  146.9320 C   0  0  0  0  0  0  0  0  0  0  0  0
  160.6260  206.4860  148.1470 C   0  0  0  0  0  3  0  0  0  0  0  0
  161.3840  203.5530  148.7360 C   0  0  0  0  0  0  0  0  0  0  0  0
  161.2510  205.9720  149.3800 C   0  0  0  0  0  3  0  0  0  0  0  0
  161.6460  204.7140  149.6280 C   0  0  0  0  0  0  0  0  0  0  0  0
  161.4710  207.4770  152.0900 C   0  0  0  0  0  2  0  0  0  0  0  0
  160.6010  208.8790  154.9180 O   0  0  0  0  0  1  0  0  0  0  0  0
  162.3450  209.7930  151.9820 N   0  0  0  0  0  2  0  0  0  0  0  0
  159.0810  212.3300  152.5820 C   0  0  0  0  0  0  0  0  0  0  0  0
  159.5610  211.5010  153.6040 O   0  0  0  0  0  0  0  0  0  0  0  0
  160.8030  210.7910  153.5300 C   0  0  2  0  0  3  0  0  0  0  0  0
  160.6580  211.2660  151.0440 C   0  0  0  0  0  2  0  0  0  0  0  0
  161.5830  211.0120  152.2350 C   0  0  2  0  0  3  0  0  0  0  0  0
  159.6140  212.2830  151.3650 C   0  0  0  0  0  3  0  0  0  0  0  0
  161.8010  208.7550  152.8610 C   0  0  1  0  0  3  0  0  0  0  0  0
  160.5930  209.3080  153.5900 C   0  0  1  0  0  3  0  0  0  0  0  0
  157.9600  213.2730  152.8610 C   0  0  0  0  0  2  0  0  0  0  0  0
  157.6980  214.1700  151.6620 C   0  0  0  0  0  2  0  0  0  0  0  0
  156.3070  214.0660  151.2540 N   0  0  0  0  0  1  0  0  0  0  0  0
  1 12  1  0  0  0  0
  1  6  1  1  0  0  0
  2 18  2  0  0  0  0
  3 16  1  0  0  0  0
  4 11  2  0  0  0  0
  5 21  1  6  0  0  0
  5 10  1  0  0  0  0
  6  5  1  0  0  0  0
  7  8  1  0  0  0  0
  8 10  1  0  0  0  0
  9 14  1  0  0  0  0
 11 13  1  0  0  0  0
 12 11  1  6  0  0  0
 12  7  1  0  0  0  0
 14 16  1  0  0  0  0
 14  2  1  1  0  0  0
 15  9  1  0  0  0  0
 15  3  1  0  0  0  0
 16 17  2  0  0  0  0
 17 19  1  0  0  0  0
 18  4  1  0  0  0  0
 18 20  1  0  0  0  0
 19 20  2  0  0  0  0
 20  1  1  0  0  0  0
 23 28  1  0  0  0  0
 23 30  1  0  0  0  0
 24 32  1  0  0  0  0
 24 25  1  0  0  0  0
 26 31  1  0  0  0  0
 26 25  1  6  0  0  0
 27 29  1  0  0  0  0
 28 27  1  6  0  0  0
 28 26  1  0  0  0  0
 29 24  2  0  0  0  0
 30 21  1  6  0  0  0
 30 31  1  0  0  0  0
 31 22  1  1  0  0  0
 33 32  1  0  0  0  0
 34 33  1  0  0  0  0
M  END
>  <MODEL>
8

>  <REMARK>
 VINA RESULT:      -4.4      3.346      5.760
  Name = 
  4 active torsions:
  status: ('A' for Active; 'I' for Inactive)
    1  A    between atoms: C_7  and  C_11
    2  A    between atoms: C_8  and  C_18
    3  A    between atoms: C_11  and  C_15
    4  A    between atoms: C_18  and  C_30
                            x       y       z     vdW  Elec       q    Type
                         _______ _______ _______ _____ _____    ______ ____

>  <TORSDO>
F 4

$$$$
=
 OpenBabel11062409493D

 34 39  0  0  1  0  0  0  0  0999 V2000
  160.7300  209.0960  151.2460 C   0  0  1  0  0  3  0  0  0  0  0  0
  161.2770  205.8630  149.4560 C   0  0  0  0  0  3  0  0  0  0  0  0
  161.7740  203.1720  151.8380 C   0  0  0  0  0  2  0  0  0  0  0  0
  161.9280  208.1070  148.8810 C   0  0  0  0  0  3  0  0  0  0  0  0
  160.6970  210.1420  153.6380 C   0  0  2  0  0  3  0  0  0  0  0  0
  159.9160  209.7270  152.3860 C   0  0  0  0  0  2  0  0  0  0  0  0
  163.1040  210.0080  151.2780 N   0  0  0  0  0  2  0  0  0  0  0  0
  163.0180  209.8600  152.7320 C   0  0  0  0  0  2  0  0  0  0  0  0
  160.7020  203.2290  149.3410 S   0  0  0  0  0  0  0  0  0  0  0  0
  162.0280  210.8370  153.3470 C   0  0  0  0  0  2  0  0  0  0  0  0
  162.0800  209.4080  149.1760 C   0  0  0  0  0  0  0  0  0  0  0  0
  161.8170  209.9460  150.5620 C   0  0  1  0  0  3  0  0  0  0  0  0
  162.5400  210.2730  148.1930 O   0  0  0  0  0  1  0  0  0  0  0  0
  160.6380  204.7880  150.2700 C   0  0  1  0  0  3  0  0  0  0  0  0
  161.0410  202.2800  150.8560 C   0  0  0  0  0  2  0  0  0  0  0  0
  161.3540  204.5640  151.5550 C   0  0  0  0  0  0  0  0  0  0  0  0
  161.4920  205.5050  152.4880 C   0  0  0  0  0  3  0  0  0  0  0  0
  161.4200  207.1240  149.8630 C   0  0  0  0  0  0  0  0  0  0  0  0
  161.1050  206.9200  152.3410 C   0  0  0  0  0  3  0  0  0  0  0  0
  161.0050  207.6220  151.2020 C   0  0  0  0  0  0  0  0  0  0  0  0
  160.8290  208.9940  154.6390 C   0  0  0  0  0  2  0  0  0  0  0  0
  157.8900  209.0060  156.0830 O   0  0  0  0  0  1  0  0  0  0  0  0
  161.1410  210.2080  156.7770 N   0  0  0  0  0  2  0  0  0  0  0  0
  158.3980  213.3580  156.7740 C   0  0  0  0  0  0  0  0  0  0  0  0
  157.9790  212.0230  156.8400 O   0  0  0  0  0  0  0  0  0  0  0  0
  158.8680  210.9240  157.0750 C   0  0  2  0  0  3  0  0  0  0  0  0
  160.6920  212.5710  156.4540 C   0  0  0  0  0  2  0  0  0  0  0  0
  160.3320  211.3230  157.2590 C   0  0  2  0  0  3  0  0  0  0  0  0
  159.6870  213.6580  156.6440 C   0  0  0  0  0  3  0  0  0  0  0  0
  160.2520  209.3280  156.0150 C   0  0  1  0  0  3  0  0  0  0  0  0
  158.8830  209.9710  155.9180 C   0  0  1  0  0  3  0  0  0  0  0  0
  157.3890  214.4530  156.8490 C   0  0  0  0  0  2  0  0  0  0  0  0
  156.0850  214.0320  156.1900 C   0  0  0  0  0  2  0  0  0  0  0  0
  156.2400  214.0070  154.7460 N   0  0  0  0  0  1  0  0  0  0  0  0
  1  6  1  1  0  0  0
  2 18  2  0  0  0  0
  4 11  2  0  0  0  0
  4 18  1  0  0  0  0
  5 21  1  1  0  0  0
  6  5  1  0  0  0  0
  7  8  1  0  0  0  0
  8 10  1  0  0  0  0
  9 14  1  0  0  0  0
  9 15  1  0  0  0  0
 10  5  1  0  0  0  0
 12 11  1  6  0  0  0
 12  1  1  0  0  0  0
 12  7  1  0  0  0  0
 13 11  1  0  0  0  0
 14  2  1  6  0  0  0
 14 16  1  0  0  0  0
 15  3  1  0  0  0  0
 16  3  1  0  0  0  0
 16 17  2  0  0  0  0
 18 20  1  0  0  0  0
 19 17  1  0  0  0  0
 20  1  1  0  0  0  0
 20 19  2  0  0  0  0
 23 28  1  0  0  0  0
 24 25  1  0  0  0  0
 24 32  1  0  0  0  0
 26 25  1  6  0  0  0
 26 28  1  0  0  0  0
 27 29  1  0  0  0  0
 28 27  1  6  0  0  0
 29 24  2  0  0  0  0
 30 21  1  6  0  0  0
 30 23  1  0  0  0  0
 31 30  1  0  0  0  0
 31 22  1  1  0  0  0
 31 26  1  0  0  0  0
 33 32  1  0  0  0  0
 34 33  1  0  0  0  0
M  END
>  <MODEL>
9

>  <REMARK>
 VINA RESULT:      -4.2      3.474      6.606
  Name = 
  4 active torsions:
  status: ('A' for Active; 'I' for Inactive)
    1  A    between atoms: C_7  and  C_11
    2  A    between atoms: C_8  and  C_18
    3  A    between atoms: C_11  and  C_15
    4  A    between atoms: C_18  and  C_30
                            x       y       z     vdW  Elec       q    Type
                         _______ _______ _______ _____ _____    ______ ____

>  <TORSDO>
F 4

$$$$
