=
 OpenBabel11052422493D

 28 31  0  0  1  0  0  0  0  0999 V2000
  160.1110  210.7490  152.9030 C   0  0  2  0  0  3  0  0  0  0  0  0
  160.7830  208.8790  156.5750 O   0  0  0  0  0  0  0  0  0  0  0  0
  161.2120  207.2820  151.8470 C   0  0  0  0  0  0  0  0  0  0  0  0
  160.7550  208.6670  154.2420 N   0  0  0  0  0  0  0  0  0  0  0  0
  160.7740  208.6470  151.8690 N   0  0  0  0  0  0  0  0  0  0  0  0
  160.0840  210.8310  155.4090 C   0  0  0  0  0  2  0  0  0  0  0  0
  160.9800  207.2200  154.3240 C   0  0  0  0  0  2  0  0  0  0  0  0
  160.5760  209.4180  155.4540 C   0  0  0  0  0  0  0  0  0  0  0  0
  161.3540  206.6160  153.0000 C   0  0  0  0  0  3  0  0  0  0  0  0
  160.5630  211.5240  154.1410 C   0  0  0  0  0  2  0  0  0  0  0  0
  160.5810  209.3150  152.9660 C   0  0  0  0  0  0  0  0  0  0  0  0
  162.0800  207.4240  149.5770 C   0  0  0  0  0  3  0  0  0  0  0  0
  160.8460  204.6520  149.2160 C   0  0  0  0  0  3  0  0  0  0  0  0
  161.2590  206.4100  147.5060 C   0  0  0  0  0  0  0  0  0  0  0  0
  161.5680  206.6520  150.5480 C   0  0  0  0  0  0  0  0  0  0  0  0
  161.6340  204.0480  151.6960 S   0  0  0  0  0  1  0  0  0  0  0  0
  160.5730  205.3550  147.9470 C   0  0  0  0  0  3  0  0  0  0  0  0
  161.3290  205.1890  150.3460 C   0  0  0  0  0  0  0  0  0  0  0  0
  160.9050  206.9830  146.3310 F   0  0  0  0  0  0  0  0  0  0  0  0
  162.4630  206.9190  148.2260 C   0  0  0  0  0  2  0  0  0  0  0  0
  160.5450  211.4480  151.6430 C   0  0  0  0  0  0  0  0  0  0  0  0
  161.5890  210.9260  150.8630 C   0  0  0  0  0  3  0  0  0  0  0  0
  160.2450  213.2240  150.0130 C   0  0  0  0  0  0  0  0  0  0  0  0
  161.9610  211.5530  149.6710 C   0  0  0  0  0  3  0  0  0  0  0  0
  158.8180  213.1230  151.9580 O   0  0  0  0  0  1  0  0  0  0  0  0
  159.8680  212.5990  151.2090 C   0  0  0  0  0  0  0  0  0  0  0  0
  159.5970  214.3370  149.5890 F   0  0  0  0  0  0  0  0  0  0  0  0
  161.2900  212.7020  149.2470 C   0  0  0  0  0  3  0  0  0  0  0  0
  1 21  1  6  0  0  0
  1 11  1  0  0  0  0
  1 10  1  0  0  0  0
  3  5  1  0  0  0  0
  3  9  2  0  0  0  0
  4  7  1  0  0  0  0
  4  8  1  0  0  0  0
  5 11  2  0  0  0  0
  6  8  1  0  0  0  0
  8  2  2  0  0  0  0
  9  7  1  0  0  0  0
 10  6  1  0  0  0  0
 11  4  1  0  0  0  0
 12 15  2  0  0  0  0
 13 18  2  0  0  0  0
 14 17  2  0  0  0  0
 14 20  1  0  0  0  0
 15  3  1  0  0  0  0
 17 13  1  0  0  0  0
 18 15  1  0  0  0  0
 18 16  1  0  0  0  0
 19 14  1  0  0  0  0
 20 12  1  0  0  0  0
 22 21  2  0  0  0  0
 23 26  2  0  0  0  0
 24 22  1  0  0  0  0
 26 21  1  0  0  0  0
 26 25  1  0  0  0  0
 27 23  1  0  0  0  0
 28 24  2  0  0  0  0
 28 23  1  0  0  0  0
M  END
>  <MODEL>
1

>  <REMARK>
 VINA RESULT:      -7.8      0.000      0.000
  Name = 
  2 active torsions:
  status: ('A' for Active; 'I' for Inactive)
    1  A    between atoms: C_1  and  C_2
    2  A    between atoms: C_10  and  C_13
                            x       y       z     vdW  Elec       q    Type
                         _______ _______ _______ _____ _____    ______ ____

>  <TORSDO>
F 2

$$$$
=
 OpenBabel11052422493D

 28 31  0  0  1  0  0  0  0  0999 V2000
  158.4350  212.9500  152.4580 C   0  0  2  0  0  3  0  0  0  0  0  0
  158.9940  212.8300  156.5940 O   0  0  0  0  0  0  0  0  0  0  0  0
  160.4230  209.7570  152.9050 C   0  0  0  0  0  0  0  0  0  0  0  0
  159.3390  211.7630  154.5360 N   0  0  0  0  0  0  0  0  0  0  0  0
  159.6910  210.8660  152.3670 N   0  0  0  0  0  0  0  0  0  0  0  0
  158.0430  213.9500  154.7230 C   0  0  0  0  0  2  0  0  0  0  0  0
  159.8700  210.5640  155.1930 C   0  0  0  0  0  2  0  0  0  0  0  0
  158.8290  212.8370  155.3440 C   0  0  0  0  0  0  0  0  0  0  0  0
  160.5500  209.6310  154.2320 C   0  0  0  0  0  3  0  0  0  0  0  0
  158.5250  214.2190  153.3040 C   0  0  0  0  0  2  0  0  0  0  0  0
  159.2020  211.8190  153.1020 C   0  0  0  0  0  0  0  0  0  0  0  0
  161.7070  209.2910  150.8890 C   0  0  0  0  0  3  0  0  0  0  0  0
  160.8420  206.3930  151.3270 C   0  0  0  0  0  3  0  0  0  0  0  0
  161.4150  207.5450  149.1990 C   0  0  0  0  0  0  0  0  0  0  0  0
  161.0890  208.8040  151.9760 C   0  0  0  0  0  0  0  0  0  0  0  0
  161.1770  206.7580  153.9530 S   0  0  0  0  0  1  0  0  0  0  0  0
  160.7600  206.5960  149.8680 C   0  0  0  0  0  3  0  0  0  0  0  0
  161.0370  207.3360  152.2610 C   0  0  0  0  0  0  0  0  0  0  0  0
  161.2470  207.6430  147.8590 F   0  0  0  0  0  0  0  0  0  0  0  0
  162.3970  208.4430  149.8740 C   0  0  0  0  0  2  0  0  0  0  0  0
  158.8720  213.2160  151.0420 C   0  0  0  0  0  0  0  0  0  0  0  0
  160.2280  213.1370  150.6890 C   0  0  0  0  0  3  0  0  0  0  0  0
  158.3180  213.6930  148.7250 C   0  0  0  0  0  0  0  0  0  0  0  0
  160.6260  213.3420  149.3650 C   0  0  0  0  0  3  0  0  0  0  0  0
  156.5630  213.5530  150.3770 O   0  0  0  0  0  1  0  0  0  0  0  0
  157.9140  213.4890  150.0510 C   0  0  0  0  0  0  0  0  0  0  0  0
  157.4000  213.9590  147.7640 F   0  0  0  0  0  0  0  0  0  0  0  0
  159.6710  213.6210  148.3850 C   0  0  0  0  0  3  0  0  0  0  0  0
  1 21  1  6  0  0  0
  1 11  1  0  0  0  0
  1 10  1  0  0  0  0
  3  9  2  0  0  0  0
  4  7  1  0  0  0  0
  4  8  1  0  0  0  0
  5  3  1  0  0  0  0
  5 11  2  0  0  0  0
  6  8  1  0  0  0  0
  8  2  2  0  0  0  0
  9  7  1  0  0  0  0
 10  6  1  0  0  0  0
 11  4  1  0  0  0  0
 12 15  2  0  0  0  0
 13 18  2  0  0  0  0
 14 17  2  0  0  0  0
 14 20  1  0  0  0  0
 15 18  1  0  0  0  0
 15  3  1  0  0  0  0
 17 13  1  0  0  0  0
 18 16  1  0  0  0  0
 19 14  1  0  0  0  0
 20 12  1  0  0  0  0
 22 21  1  0  0  0  0
 23 26  1  0  0  0  0
 24 22  2  0  0  0  0
 26 25  1  0  0  0  0
 26 21  2  0  0  0  0
 27 23  1  0  0  0  0
 28 23  2  0  0  0  0
 28 24  1  0  0  0  0
M  END
>  <MODEL>
2

>  <REMARK>
 VINA RESULT:      -7.4      2.141      2.894
  Name = 
  2 active torsions:
  status: ('A' for Active; 'I' for Inactive)
    1  A    between atoms: C_1  and  C_2
    2  A    between atoms: C_10  and  C_13
                            x       y       z     vdW  Elec       q    Type
                         _______ _______ _______ _____ _____    ______ ____

>  <TORSDO>
F 2

$$$$
=
 OpenBabel11052422493D

 28 31  0  0  1  0  0  0  0  0999 V2000
  159.7380  210.2990  154.1030 C   0  0  2  0  0  3  0  0  0  0  0  0
  161.9560  207.9090  156.7090 O   0  0  0  0  0  0  0  0  0  0  0  0
  161.0630  207.6080  151.7900 C   0  0  0  0  0  0  0  0  0  0  0  0
  161.1840  208.2310  154.5210 N   0  0  0  0  0  0  0  0  0  0  0  0
  160.4040  208.7550  152.3410 N   0  0  0  0  0  0  0  0  0  0  0  0
  160.5430  209.8010  156.4240 C   0  0  0  0  0  2  0  0  0  0  0  0
  161.6970  206.9240  154.0970 C   0  0  0  0  0  2  0  0  0  0  0  0
  161.2840  208.6080  155.9040 C   0  0  0  0  0  0  0  0  0  0  0  0
  161.7110  206.7640  152.6030 C   0  0  0  0  0  3  0  0  0  0  0  0
  160.4230  210.8680  155.3440 C   0  0  0  0  0  2  0  0  0  0  0  0
  160.4680  209.0760  153.5980 C   0  0  0  0  0  0  0  0  0  0  0  0
  160.2430  206.5050  149.7800 C   0  0  0  0  0  3  0  0  0  0  0  0
  162.7070  207.7110  148.4340 C   0  0  0  0  0  3  0  0  0  0  0  0
  161.4630  205.6390  147.8430 C   0  0  0  0  0  0  0  0  0  0  0  0
  161.0730  207.4130  150.3150 C   0  0  0  0  0  0  0  0  0  0  0  0
  162.3300  209.9290  149.8750 S   0  0  0  0  0  1  0  0  0  0  0  0
  162.5880  206.3560  147.8600 C   0  0  0  0  0  3  0  0  0  0  0  0
  162.0180  208.2090  149.4710 C   0  0  0  0  0  0  0  0  0  0  0  0
  161.4810  204.3980  147.3030 F   0  0  0  0  0  0  0  0  0  0  0  0
  160.1670  206.2040  148.3210 C   0  0  0  0  0  2  0  0  0  0  0  0
  159.5780  211.3580  153.0450 C   0  0  0  0  0  0  0  0  0  0  0  0
  160.6110  211.6100  152.1280 C   0  0  0  0  0  3  0  0  0  0  0  0
  158.2050  213.0160  151.9190 C   0  0  0  0  0  0  0  0  0  0  0  0
  160.4440  212.5630  151.1210 C   0  0  0  0  0  3  0  0  0  0  0  0
  157.3240  211.8140  153.8180 O   0  0  0  0  0  1  0  0  0  0  0  0
  158.3680  212.0620  152.9320 C   0  0  0  0  0  0  0  0  0  0  0  0
  157.0400  213.7010  151.8050 F   0  0  0  0  0  0  0  0  0  0  0  0
  159.2420  213.2660  151.0170 C   0  0  0  0  0  3  0  0  0  0  0  0
  1 21  1  6  0  0  0
  1 10  1  0  0  0  0
  3  5  1  0  0  0  0
  3  9  2  0  0  0  0
  4  8  1  0  0  0  0
  5 11  2  0  0  0  0
  7  4  1  0  0  0  0
  8  6  1  0  0  0  0
  8  2  2  0  0  0  0
  9  7  1  0  0  0  0
 10  6  1  0  0  0  0
 11  1  1  0  0  0  0
 11  4  1  0  0  0  0
 12 15  2  0  0  0  0
 13 18  2  0  0  0  0
 14 17  2  0  0  0  0
 14 20  1  0  0  0  0
 15  3  1  0  0  0  0
 17 13  1  0  0  0  0
 18 16  1  0  0  0  0
 18 15  1  0  0  0  0
 19 14  1  0  0  0  0
 20 12  1  0  0  0  0
 22 21  2  0  0  0  0
 23 26  2  0  0  0  0
 24 22  1  0  0  0  0
 26 21  1  0  0  0  0
 26 25  1  0  0  0  0
 27 23  1  0  0  0  0
 28 24  2  0  0  0  0
 28 23  1  0  0  0  0
M  END
>  <MODEL>
3

>  <REMARK>
 VINA RESULT:      -7.4      1.882      2.319
  Name = 
  2 active torsions:
  status: ('A' for Active; 'I' for Inactive)
    1  A    between atoms: C_1  and  C_2
    2  A    between atoms: C_10  and  C_13
                            x       y       z     vdW  Elec       q    Type
                         _______ _______ _______ _____ _____    ______ ____

>  <TORSDO>
F 2

$$$$
=
 OpenBabel11052422493D

 28 31  0  0  1  0  0  0  0  0999 V2000
  161.5620  207.4060  152.5080 C   0  0  2  0  0  3  0  0  0  0  0  0
  160.3040  208.9160  156.1910 O   0  0  0  0  0  0  0  0  0  0  0  0
  160.9160  211.0510  151.7010 C   0  0  0  0  0  0  0  0  0  0  0  0
  160.8030  209.3790  153.9490 N   0  0  0  0  0  0  0  0  0  0  0  0
  161.2520  209.6580  151.6360 N   0  0  0  0  0  0  0  0  0  0  0  0
  161.0910  207.0490  154.9440 C   0  0  0  0  0  2  0  0  0  0  0  0
  160.6600  210.8220  154.1660 C   0  0  0  0  0  2  0  0  0  0  0  0
  160.6920  208.4860  155.0710 C   0  0  0  0  0  0  0  0  0  0  0  0
  160.5930  211.5970  152.8810 C   0  0  0  0  0  3  0  0  0  0  0  0
  160.8270  206.5440  153.5330 C   0  0  0  0  0  2  0  0  0  0  0  0
  161.1820  208.8610  152.6580 C   0  0  0  0  0  0  0  0  0  0  0  0
  161.5950  211.4440  149.3970 C   0  0  0  0  0  3  0  0  0  0  0  0
  160.3960  214.2260  149.7980 C   0  0  0  0  0  3  0  0  0  0  0  0
  162.2270  213.5230  148.2690 C   0  0  0  0  0  0  0  0  0  0  0  0
  160.8630  211.8480  150.4470 C   0  0  0  0  0  0  0  0  0  0  0  0
  158.4240  213.1020  151.2090 S   0  0  0  0  0  1  0  0  0  0  0  0
  161.6210  214.4530  149.0080 C   0  0  0  0  0  3  0  0  0  0  0  0
  160.0200  213.0820  150.3900 C   0  0  0  0  0  0  0  0  0  0  0  0
  163.3580  213.8460  147.5990 F   0  0  0  0  0  0  0  0  0  0  0  0
  161.6420  212.1620  148.0900 C   0  0  0  0  0  2  0  0  0  0  0  0
  161.3400  206.8900  151.1120 C   0  0  0  0  0  0  0  0  0  0  0  0
  161.3450  207.7690  150.0180 C   0  0  0  0  0  3  0  0  0  0  0  0
  161.0180  205.0280  149.5840 C   0  0  0  0  0  0  0  0  0  0  0  0
  161.1810  207.2820  148.7190 C   0  0  0  0  0  3  0  0  0  0  0  0
  161.1910  204.6200  151.9580 O   0  0  0  0  0  1  0  0  0  0  0  0
  161.1810  205.5120  150.8890 C   0  0  0  0  0  0  0  0  0  0  0  0
  160.8630  203.6990  149.3620 F   0  0  0  0  0  0  0  0  0  0  0  0
  161.0170  205.9120  148.5030 C   0  0  0  0  0  3  0  0  0  0  0  0
  1 21  1  6  0  0  0
  1 11  1  0  0  0  0
  1 10  1  0  0  0  0
  3  9  2  0  0  0  0
  4  7  1  0  0  0  0
  4  8  1  0  0  0  0
  5  3  1  0  0  0  0
  5 11  2  0  0  0  0
  6  8  1  0  0  0  0
  8  2  2  0  0  0  0
  9  7  1  0  0  0  0
 10  6  1  0  0  0  0
 11  4  1  0  0  0  0
 12 15  2  0  0  0  0
 13 18  2  0  0  0  0
 14 17  2  0  0  0  0
 15  3  1  0  0  0  0
 17 13  1  0  0  0  0
 18 15  1  0  0  0  0
 18 16  1  0  0  0  0
 19 14  1  0  0  0  0
 20 14  1  0  0  0  0
 20 12  1  0  0  0  0
 22 21  2  0  0  0  0
 23 26  2  0  0  0  0
 24 22  1  0  0  0  0
 26 21  1  0  0  0  0
 26 25  1  0  0  0  0
 27 23  1  0  0  0  0
 28 24  2  0  0  0  0
 28 23  1  0  0  0  0
M  END
>  <MODEL>
4

>  <REMARK>
 VINA RESULT:      -7.3      2.623      6.081
  Name = 
  2 active torsions:
  status: ('A' for Active; 'I' for Inactive)
    1  A    between atoms: C_1  and  C_2
    2  A    between atoms: C_10  and  C_13
                            x       y       z     vdW  Elec       q    Type
                         _______ _______ _______ _____ _____    ______ ____

>  <TORSDO>
F 2

$$$$
=
 OpenBabel11052422493D

 28 31  0  0  1  0  0  0  0  0999 V2000
  161.0220  206.8030  149.8320 C   0  0  2  0  0  3  0  0  0  0  0  0
  162.7080  210.2010  148.0880 O   0  0  0  0  0  0  0  0  0  0  0  0
  161.2590  209.1790  152.7730 C   0  0  0  0  0  0  0  0  0  0  0  0
  161.8390  209.2190  150.0300 N   0  0  0  0  0  0  0  0  0  0  0  0
  161.0230  208.0470  151.9260 N   0  0  0  0  0  0  0  0  0  0  0  0
  161.8840  207.9890  147.7990 C   0  0  0  0  0  2  0  0  0  0  0  0
  161.9040  210.4910  150.7580 C   0  0  0  0  0  2  0  0  0  0  0  0
  162.1880  209.1920  148.6360 C   0  0  0  0  0  0  0  0  0  0  0  0
  161.7150  210.3200  152.2390 C   0  0  0  0  0  3  0  0  0  0  0  0
  161.9680  206.7200  148.6360 C   0  0  0  0  0  2  0  0  0  0  0  0
  161.3080  208.0350  150.6590 C   0  0  0  0  0  0  0  0  0  0  0  0
  161.7070  208.0670  154.8920 C   0  0  0  0  0  3  0  0  0  0  0  0
  159.2760  209.6100  155.9130 C   0  0  0  0  0  3  0  0  0  0  0  0
  160.1800  207.4290  156.6950 C   0  0  0  0  0  0  0  0  0  0  0  0
  161.0590  209.0450  154.2410 C   0  0  0  0  0  0  0  0  0  0  0  0
  160.0820  211.7090  154.4690 S   0  0  0  0  0  1  0  0  0  0  0  0
  159.1620  208.2750  156.5300 C   0  0  0  0  0  3  0  0  0  0  0  0
  160.1320  209.9820  154.9490 C   0  0  0  0  0  0  0  0  0  0  0  0
  159.9490  206.2210  157.2610 F   0  0  0  0  0  0  0  0  0  0  0  0
  161.5810  207.8160  156.3570 C   0  0  0  0  0  2  0  0  0  0  0  0
  161.0680  205.5370  150.6440 C   0  0  0  0  0  0  0  0  0  0  0  0
  161.2060  205.5900  152.0400 C   0  0  0  0  0  3  0  0  0  0  0  0
  160.9140  203.1150  150.7740 C   0  0  0  0  0  0  0  0  0  0  0  0
  161.2060  204.4140  152.7950 C   0  0  0  0  0  3  0  0  0  0  0  0
  160.7570  204.2170  148.6310 O   0  0  0  0  0  1  0  0  0  0  0  0
  160.9150  204.2920  150.0120 C   0  0  0  0  0  0  0  0  0  0  0  0
  160.7680  201.9100  150.1700 F   0  0  0  0  0  0  0  0  0  0  0  0
  161.0600  203.1780  152.1610 C   0  0  0  0  0  3  0  0  0  0  0  0
  1 21  1  1  0  0  0
  1 11  1  0  0  0  0
  2  8  2  0  0  0  0
  3 15  1  0  0  0  0
  4 11  1  0  0  0  0
  4  7  1  0  0  0  0
  5  3  1  0  0  0  0
  6  8  1  0  0  0  0
  6 10  1  0  0  0  0
  7  9  1  0  0  0  0
  8  4  1  0  0  0  0
  9  3  2  0  0  0  0
 10  1  1  0  0  0  0
 11  5  2  0  0  0  0
 12 20  1  0  0  0  0
 13 17  1  0  0  0  0
 14 19  1  0  0  0  0
 15 12  2  0  0  0  0
 15 18  1  0  0  0  0
 16 18  1  0  0  0  0
 17 14  2  0  0  0  0
 18 13  2  0  0  0  0
 20 14  1  0  0  0  0
 21 22  1  0  0  0  0
 22 24  2  0  0  0  0
 23 28  2  0  0  0  0
 25 26  1  0  0  0  0
 26 21  2  0  0  0  0
 26 23  1  0  0  0  0
 27 23  1  0  0  0  0
 28 24  1  0  0  0  0
M  END
>  <MODEL>
5

>  <REMARK>
 VINA RESULT:      -7.3      3.842      7.544
  Name = 
  2 active torsions:
  status: ('A' for Active; 'I' for Inactive)
    1  A    between atoms: C_1  and  C_2
    2  A    between atoms: C_10  and  C_13
                            x       y       z     vdW  Elec       q    Type
                         _______ _______ _______ _____ _____    ______ ____

>  <TORSDO>
F 2

$$$$
=
 OpenBabel11052422493D

 28 31  0  0  1  0  0  0  0  0999 V2000
  161.4470  203.4000  148.2660 C   0  0  2  0  0  3  0  0  0  0  0  0
  160.3060  200.3550  150.8860 O   0  0  0  0  0  0  0  0  0  0  0  0
  161.4820  205.1700  151.6150 C   0  0  0  0  0  0  0  0  0  0  0  0
  160.9790  202.5870  150.6460 N   0  0  0  0  0  0  0  0  0  0  0  0
  161.5740  204.8450  150.2220 N   0  0  0  0  0  0  0  0  0  0  0  0
  160.8120  201.0060  148.6540 C   0  0  0  0  0  2  0  0  0  0  0  0
  161.0790  202.7620  152.0990 C   0  0  0  0  0  2  0  0  0  0  0  0
  160.6630  201.2880  150.1170 C   0  0  0  0  0  0  0  0  0  0  0  0
  161.2060  204.2030  152.5010 C   0  0  0  0  0  3  0  0  0  0  0  0
  160.5280  202.2580  147.8360 C   0  0  0  0  0  2  0  0  0  0  0  0
  161.3200  203.6630  149.7490 C   0  0  0  0  0  0  0  0  0  0  0  0
  161.4510  206.8870  153.3400 C   0  0  0  0  0  3  0  0  0  0  0  0
  161.3740  208.8560  151.0050 C   0  0  0  0  0  3  0  0  0  0  0  0
  160.4880  209.1370  153.3120 C   0  0  0  0  0  0  0  0  0  0  0  0
  161.6260  206.5860  152.0440 C   0  0  0  0  0  0  0  0  0  0  0  0
  163.0810  207.2720  149.6960 S   0  0  0  0  0  1  0  0  0  0  0  0
  160.4560  209.4260  152.0110 C   0  0  0  0  0  3  0  0  0  0  0  0
  161.9370  207.6390  151.0270 C   0  0  0  0  0  0  0  0  0  0  0  0
  159.5820  209.7120  154.1380 F   0  0  0  0  0  0  0  0  0  0  0  0
  161.5520  208.2680  153.8950 C   0  0  0  0  0  2  0  0  0  0  0  0
  161.2020  204.6300  147.4360 C   0  0  0  0  0  0  0  0  0  0  0  0
  160.6460  205.7810  148.0150 C   0  0  0  0  0  3  0  0  0  0  0  0
  161.3930  205.8140  145.3220 C   0  0  0  0  0  0  0  0  0  0  0  0
  160.4580  206.9360  147.2520 C   0  0  0  0  0  3  0  0  0  0  0  0
  162.1520  203.5280  145.4940 O   0  0  0  0  0  1  0  0  0  0  0  0
  161.5820  204.6520  146.0830 C   0  0  0  0  0  0  0  0  0  0  0  0
  161.7560  205.8420  144.0160 F   0  0  0  0  0  0  0  0  0  0  0  0
  160.8310  206.9520  145.9060 C   0  0  0  0  0  3  0  0  0  0  0  0
  1 21  1  6  0  0  0
  1 11  1  0  0  0  0
  3 15  1  0  0  0  0
  3  9  2  0  0  0  0
  4  7  1  0  0  0  0
  5  3  1  0  0  0  0
  6  8  1  0  0  0  0
  7  9  1  0  0  0  0
  8  4  1  0  0  0  0
  8  2  2  0  0  0  0
 10  1  1  0  0  0  0
 10  6  1  0  0  0  0
 11  5  2  0  0  0  0
 11  4  1  0  0  0  0
 12 20  1  0  0  0  0
 13 18  2  0  0  0  0
 13 17  1  0  0  0  0
 14 20  1  0  0  0  0
 14 19  1  0  0  0  0
 15 12  2  0  0  0  0
 16 18  1  0  0  0  0
 17 14  2  0  0  0  0
 18 15  1  0  0  0  0
 21 22  1  0  0  0  0
 23 28  2  0  0  0  0
 23 26  1  0  0  0  0
 24 22  2  0  0  0  0
 25 26  1  0  0  0  0
 26 21  2  0  0  0  0
 27 23  1  0  0  0  0
 28 24  1  0  0  0  0
M  END
>  <MODEL>
6

>  <REMARK>
 VINA RESULT:      -6.9      4.083      7.393
  Name = 
  2 active torsions:
  status: ('A' for Active; 'I' for Inactive)
    1  A    between atoms: C_1  and  C_2
    2  A    between atoms: C_10  and  C_13
                            x       y       z     vdW  Elec       q    Type
                         _______ _______ _______ _____ _____    ______ ____

>  <TORSDO>
F 2

$$$$
=
 OpenBabel11052422493D

 28 31  0  0  1  0  0  0  0  0999 V2000
  160.8720  204.0630  148.1680 C   0  0  2  0  0  3  0  0  0  0  0  0
  162.4030  206.3130  145.0020 O   0  0  0  0  0  0  0  0  0  0  0  0
  161.6540  207.3700  149.8410 C   0  0  0  0  0  0  0  0  0  0  0  0
  161.8060  206.2680  147.2670 N   0  0  0  0  0  0  0  0  0  0  0  0
  161.2460  206.0250  149.5610 N   0  0  0  0  0  0  0  0  0  0  0  0
  161.4570  204.2580  145.7380 C   0  0  0  0  0  2  0  0  0  0  0  0
  162.0320  207.7100  147.4040 C   0  0  0  0  0  2  0  0  0  0  0  0
  161.9340  205.6580  145.9710 C   0  0  0  0  0  0  0  0  0  0  0  0
  162.0680  208.1570  148.8380 C   0  0  0  0  0  3  0  0  0  0  0  0
  161.6180  203.4210  146.9990 C   0  0  0  0  0  2  0  0  0  0  0  0
  161.3310  205.4860  148.3820 C   0  0  0  0  0  0  0  0  0  0  0  0
  161.8880  206.9520  152.2280 C   0  0  0  0  0  3  0  0  0  0  0  0
  160.7040  209.7490  152.5640 C   0  0  0  0  0  3  0  0  0  0  0  0
  160.5880  207.8090  154.1160 C   0  0  0  0  0  0  0  0  0  0  0  0
  161.6780  207.8470  151.2500 C   0  0  0  0  0  0  0  0  0  0  0  0
  162.1400  210.5410  150.4530 S   0  0  0  0  0  1  0  0  0  0  0  0
  160.0820  208.9440  153.6330 C   0  0  0  0  0  3  0  0  0  0  0  0
  161.4490  209.2950  151.5440 C   0  0  0  0  0  0  0  0  0  0  0  0
  159.9160  207.1480  155.0880 F   0  0  0  0  0  0  0  0  0  0  0  0
  161.9200  207.2970  153.6790 C   0  0  0  0  0  2  0  0  0  0  0  0
  160.9920  203.2210  149.4100 C   0  0  0  0  0  0  0  0  0  0  0  0
  161.1760  203.8250  150.6640 C   0  0  0  0  0  3  0  0  0  0  0  0
  160.9320  201.0460  150.4900 C   0  0  0  0  0  0  0  0  0  0  0  0
  161.2450  203.0430  151.8200 C   0  0  0  0  0  3  0  0  0  0  0  0
  160.6620  201.2080  148.0960 O   0  0  0  0  0  1  0  0  0  0  0  0
  160.8640  201.8250  149.3270 C   0  0  0  0  0  0  0  0  0  0  0  0
  160.8100  199.6970  150.4180 F   0  0  0  0  0  0  0  0  0  0  0  0
  161.1230  201.6550  151.7320 C   0  0  0  0  0  3  0  0  0  0  0  0
  1 11  1  0  0  0  0
  1 21  1  1  0  0  0
  2  8  2  0  0  0  0
  3 15  1  0  0  0  0
  4  7  1  0  0  0  0
  4 11  1  0  0  0  0
  5  3  1  0  0  0  0
  6  8  1  0  0  0  0
  6 10  1  0  0  0  0
  7  9  1  0  0  0  0
  8  4  1  0  0  0  0
  9  3  2  0  0  0  0
 10  1  1  0  0  0  0
 11  5  2  0  0  0  0
 12 20  1  0  0  0  0
 13 17  1  0  0  0  0
 14 19  1  0  0  0  0
 15 18  1  0  0  0  0
 15 12  2  0  0  0  0
 16 18  1  0  0  0  0
 17 14  2  0  0  0  0
 18 13  2  0  0  0  0
 20 14  1  0  0  0  0
 21 22  1  0  0  0  0
 22 24  2  0  0  0  0
 23 28  2  0  0  0  0
 25 26  1  0  0  0  0
 26 21  2  0  0  0  0
 26 23  1  0  0  0  0
 27 23  1  0  0  0  0
 28 24  1  0  0  0  0
M  END
>  <MODEL>
7

>  <REMARK>
 VINA RESULT:      -6.8      4.499      8.525
  Name = 
  2 active torsions:
  status: ('A' for Active; 'I' for Inactive)
    1  A    between atoms: C_1  and  C_2
    2  A    between atoms: C_10  and  C_13
                            x       y       z     vdW  Elec       q    Type
                         _______ _______ _______ _____ _____    ______ ____

>  <TORSDO>
F 2

$$$$
=
 OpenBabel11052422493D

 28 31  0  0  1  0  0  0  0  0999 V2000
  161.2690  210.3580  152.8980 C   0  0  2  0  0  3  0  0  0  0  0  0
  159.3120  212.2000  156.0930 O   0  0  0  0  0  0  0  0  0  0  0  0
  159.1680  212.9780  151.1470 C   0  0  0  0  0  0  0  0  0  0  0  0
  159.6730  212.1520  153.7790 N   0  0  0  0  0  0  0  0  0  0  0  0
  160.0690  211.9050  151.4520 N   0  0  0  0  0  0  0  0  0  0  0  0
  160.8800  210.5650  155.3660 C   0  0  0  0  0  2  0  0  0  0  0  0
  158.9170  213.3940  153.5880 C   0  0  0  0  0  2  0  0  0  0  0  0
  159.8990  211.6670  155.1130 C   0  0  0  0  0  0  0  0  0  0  0  0
  158.5870  213.6560  152.1460 C   0  0  0  0  0  3  0  0  0  0  0  0
  160.9240  209.6070  154.1840 C   0  0  0  0  0  2  0  0  0  0  0  0
  160.2980  211.4900  152.6610 C   0  0  0  0  0  0  0  0  0  0  0  0
  157.5510  213.2910  149.3540 C   0  0  0  0  0  3  0  0  0  0  0  0
  159.9630  213.0440  147.4950 C   0  0  0  0  0  3  0  0  0  0  0  0
  157.5810  212.4880  147.0420 C   0  0  0  0  0  0  0  0  0  0  0  0
  158.8400  213.2730  149.7270 C   0  0  0  0  0  0  0  0  0  0  0  0
  161.3890  214.4530  149.2620 S   0  0  0  0  0  1  0  0  0  0  0  0
  158.8820  212.3070  146.8110 C   0  0  0  0  0  3  0  0  0  0  0  0
  159.9450  213.5200  148.7490 C   0  0  0  0  0  0  0  0  0  0  0  0
  156.6810  211.7400  146.3630 F   0  0  0  0  0  0  0  0  0  0  0  0
  157.0910  213.5570  147.9600 C   0  0  0  0  0  2  0  0  0  0  0  0
  161.3550  209.4120  151.7300 C   0  0  0  0  0  0  0  0  0  0  0  0
  160.7880  208.1310  151.8080 C   0  0  0  0  0  3  0  0  0  0  0  0
  161.9990  208.9640  149.4300 C   0  0  0  0  0  0  0  0  0  0  0  0
  160.8320  207.2710  150.7070 C   0  0  0  0  0  3  0  0  0  0  0  0
  162.5100  211.1030  150.4270 O   0  0  0  0  0  1  0  0  0  0  0  0
  161.9580  209.8300  150.5320 C   0  0  0  0  0  0  0  0  0  0  0  0
  162.5790  209.3600  148.2710 F   0  0  0  0  0  0  0  0  0  0  0  0
  161.4380  207.6880  149.5200 C   0  0  0  0  0  3  0  0  0  0  0  0
  1 21  1  6  0  0  0
  1 10  1  0  0  0  0
  3  5  1  0  0  0  0
  3  9  2  0  0  0  0
  4  8  1  0  0  0  0
  5 11  2  0  0  0  0
  7  4  1  0  0  0  0
  8  6  1  0  0  0  0
  8  2  2  0  0  0  0
  9  7  1  0  0  0  0
 10  6  1  0  0  0  0
 11  1  1  0  0  0  0
 11  4  1  0  0  0  0
 12 15  2  0  0  0  0
 13 18  2  0  0  0  0
 14 20  1  0  0  0  0
 15  3  1  0  0  0  0
 17 14  2  0  0  0  0
 17 13  1  0  0  0  0
 18 16  1  0  0  0  0
 18 15  1  0  0  0  0
 19 14  1  0  0  0  0
 20 12  1  0  0  0  0
 21 22  1  0  0  0  0
 23 28  2  0  0  0  0
 23 26  1  0  0  0  0
 24 22  2  0  0  0  0
 25 26  1  0  0  0  0
 26 21  2  0  0  0  0
 27 23  1  0  0  0  0
 28 24  1  0  0  0  0
M  END
>  <MODEL>
8

>  <REMARK>
 VINA RESULT:      -6.8      3.240      5.758
  Name = 
  2 active torsions:
  status: ('A' for Active; 'I' for Inactive)
    1  A    between atoms: C_1  and  C_2
    2  A    between atoms: C_10  and  C_13
                            x       y       z     vdW  Elec       q    Type
                         _______ _______ _______ _____ _____    ______ ____

>  <TORSDO>
F 2

$$$$
=
 OpenBabel11052422493D

 28 31  0  0  1  0  0  0  0  0999 V2000
  160.9340  207.6470  151.2160 C   0  0  2  0  0  3  0  0  0  0  0  0
  161.2060  204.6970  154.1580 O   0  0  0  0  0  0  0  0  0  0  0  0
  161.4210  204.5050  149.1570 C   0  0  0  0  0  0  0  0  0  0  0  0
  161.1780  205.1850  151.8670 N   0  0  0  0  0  0  0  0  0  0  0  0
  161.2310  205.8590  149.5910 N   0  0  0  0  0  0  0  0  0  0  0  0
  160.8820  206.9950  153.6360 C   0  0  0  0  0  2  0  0  0  0  0  0
  161.1430  203.7610  151.5160 C   0  0  0  0  0  2  0  0  0  0  0  0
  161.1150  205.5680  153.2510 C   0  0  0  0  0  0  0  0  0  0  0  0
  161.4250  203.5170  150.0610 C   0  0  0  0  0  3  0  0  0  0  0  0
  161.4960  207.9350  152.6080 C   0  0  0  0  0  2  0  0  0  0  0  0
  161.1420  206.1980  150.8410 C   0  0  0  0  0  0  0  0  0  0  0  0
  162.3600  205.1410  147.0020 C   0  0  0  0  0  3  0  0  0  0  0  0
  160.6170  202.8960  145.8800 C   0  0  0  0  0  3  0  0  0  0  0  0
  161.4120  204.9660  144.7530 C   0  0  0  0  0  0  0  0  0  0  0  0
  161.6810  204.2310  147.7190 C   0  0  0  0  0  0  0  0  0  0  0  0
  161.2060  201.4430  148.0440 S   0  0  0  0  0  1  0  0  0  0  0  0
  160.5210  203.9820  144.8860 C   0  0  0  0  0  3  0  0  0  0  0  0
  161.1660  202.9690  147.1020 C   0  0  0  0  0  0  0  0  0  0  0  0
  161.2070  205.9180  143.8130 F   0  0  0  0  0  0  0  0  0  0  0  0
  162.6720  204.9940  145.5510 C   0  0  0  0  0  2  0  0  0  0  0  0
  161.5050  208.5980  150.1990 C   0  0  0  0  0  0  0  0  0  0  0  0
  162.0120  208.1170  148.9810 C   0  0  0  0  0  3  0  0  0  0  0  0
  161.9740  210.8690  149.4720 C   0  0  0  0  0  0  0  0  0  0  0  0
  162.5020  209.0050  148.0210 C   0  0  0  0  0  3  0  0  0  0  0  0
  160.9660  210.4810  151.6320 O   0  0  0  0  0  1  0  0  0  0  0  0
  161.4810  209.9810  150.4390 C   0  0  0  0  0  0  0  0  0  0  0  0
  161.9560  212.2050  149.6980 F   0  0  0  0  0  0  0  0  0  0  0  0
  162.4830  210.3800  148.2670 C   0  0  0  0  0  3  0  0  0  0  0  0
  1 21  1  6  0  0  0
  1 10  1  0  0  0  0
  3  5  1  0  0  0  0
  3  9  2  0  0  0  0
  4  8  1  0  0  0  0
  5 11  2  0  0  0  0
  7  4  1  0  0  0  0
  8  6  1  0  0  0  0
  8  2  2  0  0  0  0
  9  7  1  0  0  0  0
 10  6  1  0  0  0  0
 11  1  1  0  0  0  0
 11  4  1  0  0  0  0
 12 15  2  0  0  0  0
 13 18  2  0  0  0  0
 14 17  2  0  0  0  0
 14 20  1  0  0  0  0
 15  3  1  0  0  0  0
 17 13  1  0  0  0  0
 18 15  1  0  0  0  0
 18 16  1  0  0  0  0
 19 14  1  0  0  0  0
 20 12  1  0  0  0  0
 21 26  1  0  0  0  0
 22 21  2  0  0  0  0
 23 27  1  0  0  0  0
 23 26  2  0  0  0  0
 24 28  2  0  0  0  0
 24 22  1  0  0  0  0
 26 25  1  0  0  0  0
 28 23  1  0  0  0  0
M  END
>  <MODEL>
9

>  <REMARK>
 VINA RESULT:      -6.6      2.672      3.713
  Name = 
  2 active torsions:
  status: ('A' for Active; 'I' for Inactive)
    1  A    between atoms: C_1  and  C_2
    2  A    between atoms: C_10  and  C_13
                            x       y       z     vdW  Elec       q    Type
                         _______ _______ _______ _____ _____    ______ ____

>  <TORSDO>
F 2

$$$$
