=
 OpenBabel11062410513D

 32 36  0  0  1  0  0  0  0  0999 V2000
  161.4650  204.1480  146.8800 C   0  0  0  0  0  0  0  0  0  0  0  0
  161.9950  207.2060  150.9370 C   0  0  2  0  0  3  0  0  0  0  0  0
  161.5830  206.9270  153.4760 C   0  0  0  0  0  0  0  0  0  0  0  0
  160.6970  207.4280  154.5170 C   0  0  0  0  0  0  0  0  0  0  0  0
  160.8710  205.5190  149.3560 C   0  0  1  0  0  3  0  0  0  0  0  0
  161.9780  207.6250  148.4380 C   0  0  0  0  0  2  0  0  0  0  0  0
  159.5870  208.9590  155.6470 N   0  0  0  0  0  0  0  0  0  0  0  0
  161.6420  205.6360  146.9430 C   0  0  0  0  0  2  0  0  0  0  0  0
  161.5830  208.1790  149.8160 C   0  0  2  0  0  3  0  0  0  0  0  0
  162.1120  209.6010  150.0270 C   0  0  2  0  0  3  0  0  0  0  0  0
  161.1720  209.1280  152.3020 N   0  0  2  0  0  0  0  0  0  0  0  0
  159.4520  207.7820  156.2940 C   0  0  0  0  0  3  0  0  0  0  0  0
  161.5130  203.3390  148.1450 C   0  0  0  0  0  2  0  0  0  0  0  0
  161.9150  206.0920  148.3750 C   0  0  2  0  0  3  0  0  0  0  0  0
  160.1460  206.7830  155.6100 C   0  0  0  0  0  3  0  0  0  0  0  0
  160.6700  203.9990  149.2410 C   0  0  0  0  0  2  0  0  0  0  0  0
  161.3010  203.5700  145.6930 C   0  0  0  0  0  3  0  0  0  0  0  0
  161.8750  210.1160  151.4590 C   0  0  1  0  0  3  0  0  0  0  0  0
  160.9050  209.7400  153.6180 C   0  0  0  0  0  2  0  0  0  0  0  0
  161.1700  205.9090  150.8100 C   0  0  0  0  0  2  0  0  0  0  0  0
  162.0900  205.7760  153.5670 O   0  0  0  0  0  0  0  0  0  0  0  0
  159.0490  210.2350  156.0840 C   0  0  0  0  0  1  0  0  0  0  0  0
  161.9660  207.8670  152.3410 C   0  0  2  0  0  3  0  0  0  0  0  0
  160.3350  208.7330  154.5590 C   0  0  0  0  0  0  0  0  0  0  0  0
  160.0150  201.5800  144.9060 C   0  0  0  0  0  0  0  0  0  0  0  0
  161.1440  202.1570  145.5620 N   0  0  0  0  0  2  0  0  0  0  0  0
  159.9110  200.1990  144.8060 O   0  0  0  0  0  1  0  0  0  0  0  0
  159.1120  202.3100  144.4170 O   0  0  0  0  0  0  0  0  0  0  0  0
  162.5130  211.4260  148.6240 C   0  0  0  0  0  1  0  0  0  0  0  0
  161.4830  210.5100  149.0820 N   0  0  0  0  0  2  0  0  0  0  0  0
  163.1030  210.6300  153.4580 O   0  0  0  0  0  1  0  0  0  0  0  0
  163.2090  210.5650  152.0680 C   0  0  0  0  0  2  0  0  0  0  0  0
  1  8  1  0  0  0  0
  1 13  1  0  0  0  0
  2 20  1  1  0  0  0
  2 23  1  0  0  0  0
  3 21  2  0  0  0  0
  3  4  1  0  0  0  0
  4 24  2  0  0  0  0
  4 15  1  0  0  0  0
  5 16  1  1  0  0  0
  5 20  1  0  0  0  0
  7 22  1  0  0  0  0
  7 12  1  0  0  0  0
  9  6  1  6  0  0  0
  9 10  1  0  0  0  0
  9  2  1  0  0  0  0
 10 30  1  6  0  0  0
 10 18  1  0  0  0  0
 11 23  1  0  0  0  0
 11 19  1  1  0  0  0
 13 16  1  0  0  0  0
 14  8  1  6  0  0  0
 14  6  1  0  0  0  0
 14  5  1  0  0  0  0
 15 12  2  0  0  0  0
 17  1  2  0  0  0  0
 18 32  1  1  0  0  0
 18 11  1  0  0  0  0
 19 24  1  0  0  0  0
 23  3  1  1  0  0  0
 24  7  1  0  0  0  0
 25 26  1  0  0  0  0
 26 17  1  0  0  0  0
 27 25  1  0  0  0  0
 28 25  2  0  0  0  0
 29 30  1  0  0  0  0
 32 31  1  0  0  0  0
M  END
>  <MODEL>
1

>  <REMARK>
 VINA RESULT:      -7.7      0.000      0.000
  Name = 
  3 active torsions:
  status: ('A' for Active; 'I' for Inactive)
    1  A    between atoms: N_10  and  C_24
    2  A    between atoms: N_13  and  C_15
    3  A    between atoms: C_25  and  C_26
                            x       y       z     vdW  Elec       q    Type
                         _______ _______ _______ _____ _____    ______ ____

>  <TORSDO>
F 3

$$$$
=
 OpenBabel11062410513D

 32 36  0  0  1  0  0  0  0  0999 V2000
  161.9070  213.6590  145.3670 C   0  0  0  0  0  0  0  0  0  0  0  0
  159.9090  212.6140  140.7840 C   0  0  2  0  0  3  0  0  0  0  0  0
  157.5090  212.6090  139.8180 C   0  0  0  0  0  0  0  0  0  0  0  0
  156.5200  211.6690  139.3100 C   0  0  0  0  0  0  0  0  0  0  0  0
  160.1630  212.5560  143.3410 C   0  0  1  0  0  3  0  0  0  0  0  0
  162.1790  212.1900  141.8250 C   0  0  0  0  0  2  0  0  0  0  0  0
  155.7930  209.9610  138.1230 N   0  0  0  0  0  0  0  0  0  0  0  0
  162.5180  212.9550  144.1920 C   0  0  0  0  0  2  0  0  0  0  0  0
  161.1020  211.6440  140.8760 C   0  0  2  0  0  3  0  0  0  0  0  0
  161.6850  211.2750  139.5090 C   0  0  2  0  0  3  0  0  0  0  0  0
  159.2430  210.9320  139.0630 N   0  0  2  0  0  0  0  0  0  0  0  0
  154.7240  210.5700  138.6790 C   0  0  0  0  0  3  0  0  0  0  0  0
  160.5300  214.2480  145.2480 C   0  0  0  0  0  2  0  0  0  0  0  0
  161.5910  213.0140  142.9790 C   0  0  2  0  0  3  0  0  0  0  0  0
  155.1420  211.6630  139.4390 C   0  0  0  0  0  3  0  0  0  0  0  0
  159.5740  213.2560  144.5780 C   0  0  0  0  0  2  0  0  0  0  0  0
  162.6170  213.7760  146.4860 C   0  0  0  0  0  3  0  0  0  0  0  0
  160.6020  210.8830  138.4860 C   0  0  1  0  0  3  0  0  0  0  0  0
  158.2860  210.4520  138.0470 C   0  0  0  0  0  2  0  0  0  0  0  0
  159.2000  212.6750  142.1520 C   0  0  0  0  0  2  0  0  0  0  0  0
  157.1460  213.6890  140.3580 O   0  0  0  0  0  0  0  0  0  0  0  0
  155.7500  208.8200  137.2260 C   0  0  0  0  0  1  0  0  0  0  0  0
  158.9810  212.3060  139.5780 C   0  0  2  0  0  3  0  0  0  0  0  0
  156.8830  210.6280  138.5230 C   0  0  0  0  0  0  0  0  0  0  0  0
  161.4210  213.7510  148.6780 C   0  0  0  0  0  0  0  0  0  0  0  0
  162.1000  214.4490  147.6350 N   0  0  0  0  0  2  0  0  0  0  0  0
  160.9380  214.4530  149.7740 O   0  0  0  0  0  1  0  0  0  0  0  0
  161.2550  212.5030  148.6160 O   0  0  0  0  0  0  0  0  0  0  0  0
  161.8530  208.9920  139.9770 C   0  0  0  0  0  1  0  0  0  0  0  0
  162.6280  210.1760  139.6510 N   0  0  0  0  0  2  0  0  0  0  0  0
  161.7460  212.7070  137.4220 O   0  0  0  0  0  1  0  0  0  0  0  0
  160.7420  211.7560  137.2330 C   0  0  0  0  0  2  0  0  0  0  0  0
  1 17  2  0  0  0  0
  2  9  1  0  0  0  0
  2 20  1  1  0  0  0
  3 21  2  0  0  0  0
  4 15  1  0  0  0  0
  4  3  1  0  0  0  0
  5 20  1  6  0  0  0
  5 16  1  0  0  0  0
  7 24  1  0  0  0  0
  7 12  1  0  0  0  0
  8  1  1  0  0  0  0
  9  6  1  1  0  0  0
 10 30  1  1  0  0  0
 10  9  1  0  0  0  0
 11 19  1  6  0  0  0
 11 23  1  0  0  0  0
 12 15  2  0  0  0  0
 13  1  1  0  0  0  0
 14  6  1  6  0  0  0
 14  5  1  0  0  0  0
 14  8  1  0  0  0  0
 16 13  1  0  0  0  0
 17 26  1  0  0  0  0
 18 32  1  6  0  0  0
 18 11  1  0  0  0  0
 18 10  1  0  0  0  0
 19 24  1  0  0  0  0
 22  7  1  0  0  0  0
 23  3  1  1  0  0  0
 23  2  1  0  0  0  0
 24  4  2  0  0  0  0
 25 27  1  0  0  0  0
 26 25  1  0  0  0  0
 28 25  2  0  0  0  0
 30 29  1  0  0  0  0
 32 31  1  0  0  0  0
M  END
>  <MODEL>
2

>  <REMARK>
 VINA RESULT:      -6.9      8.801     13.351
  Name = 
  3 active torsions:
  status: ('A' for Active; 'I' for Inactive)
    1  A    between atoms: N_10  and  C_24
    2  A    between atoms: N_13  and  C_15
    3  A    between atoms: C_25  and  C_26
                            x       y       z     vdW  Elec       q    Type
                         _______ _______ _______ _____ _____    ______ ____

>  <TORSDO>
F 3

$$$$
=
 OpenBabel11062410513D

 32 36  0  0  1  0  0  0  0  0999 V2000
  161.2070  207.1130  153.9840 C   0  0  0  0  0  0  0  0  0  0  0  0
  161.7270  204.3920  149.6920 C   0  0  2  0  0  3  0  0  0  0  0  0
  162.1220  204.9960  147.2070 C   0  0  0  0  0  0  0  0  0  0  0  0
  161.4290  204.9370  145.9280 C   0  0  0  0  0  0  0  0  0  0  0  0
  160.8630  206.2500  151.2450 C   0  0  1  0  0  3  0  0  0  0  0  0
  160.9060  203.8220  152.0200 C   0  0  0  0  0  2  0  0  0  0  0  0
  160.2080  204.0150  144.3430 N   0  0  0  0  0  0  0  0  0  0  0  0
  160.8800  205.6750  153.7140 C   0  0  0  0  0  2  0  0  0  0  0  0
  160.7280  203.5590  150.5170 C   0  0  2  0  0  3  0  0  0  0  0  0
  160.7800  202.0630  150.1930 C   0  0  2  0  0  3  0  0  0  0  0  0
  160.6940  203.0200  147.8790 N   0  0  2  0  0  0  0  0  0  0  0  0
  160.6560  205.2040  143.8880 C   0  0  0  0  0  3  0  0  0  0  0  0
  161.8590  207.9400  152.9120 C   0  0  0  0  0  2  0  0  0  0  0  0
  161.3520  205.2590  152.3220 C   0  0  2  0  0  3  0  0  0  0  0  0
  161.4400  205.8210  144.8640 C   0  0  0  0  0  3  0  0  0  0  0  0
  161.1660  207.7240  151.5640 C   0  0  0  0  0  2  0  0  0  0  0  0
  160.9400  207.6190  155.1850 C   0  0  0  0  0  3  0  0  0  0  0  0
  160.7720  201.7810  148.6790 C   0  0  1  0  0  3  0  0  0  0  0  0
  160.5950  202.6520  146.4530 C   0  0  0  0  0  2  0  0  0  0  0  0
  161.3870  205.8880  149.8480 C   0  0  0  0  0  2  0  0  0  0  0  0
  162.9930  205.8810  147.4220 O   0  0  0  0  0  0  0  0  0  0  0  0
  159.4060  203.0650  143.5920 C   0  0  0  0  0  1  0  0  0  0  0  0
  161.8490  203.8970  148.2250 C   0  0  2  0  0  3  0  0  0  0  0  0
  160.6710  203.8660  145.5900 C   0  0  0  0  0  0  0  0  0  0  0  0
  160.2180  209.9340  155.7780 C   0  0  0  0  0  0  0  0  0  0  0  0
  161.2420  208.9760  155.5110 N   0  0  0  0  0  2  0  0  0  0  0  0
  160.5660  211.2410  156.0910 O   0  0  0  0  0  1  0  0  0  0  0  0
  159.0020  209.6070  155.7330 O   0  0  0  0  0  0  0  0  0  0  0  0
  158.7570  200.9830  149.7410 C   0  0  0  0  0  1  0  0  0  0  0  0
  159.6540  201.3820  150.8120 N   0  0  0  0  0  2  0  0  0  0  0  0
  161.5810  199.8250  147.5470 O   0  0  0  0  0  1  0  0  0  0  0  0
  161.9850  200.9190  148.3130 C   0  0  0  0  0  2  0  0  0  0  0  0
  1 17  2  0  0  0  0
  2 20  1  6  0  0  0
  2  9  1  0  0  0  0
  3 21  2  0  0  0  0
  4  3  1  0  0  0  0
  5 20  1  6  0  0  0
  5 16  1  0  0  0  0
  5 14  1  0  0  0  0
  7 24  1  0  0  0  0
  8  1  1  0  0  0  0
  9  6  1  1  0  0  0
 10  9  1  0  0  0  0
 10 30  1  1  0  0  0
 11 19  1  6  0  0  0
 11 23  1  0  0  0  0
 11 18  1  0  0  0  0
 12  7  1  0  0  0  0
 12 15  2  0  0  0  0
 13  1  1  0  0  0  0
 14  6  1  6  0  0  0
 14  8  1  0  0  0  0
 15  4  1  0  0  0  0
 16 13  1  0  0  0  0
 17 26  1  0  0  0  0
 18 32  1  6  0  0  0
 18 10  1  0  0  0  0
 22  7  1  0  0  0  0
 23  3  1  6  0  0  0
 23  2  1  0  0  0  0
 24  4  2  0  0  0  0
 24 19  1  0  0  0  0
 25 27  1  0  0  0  0
 26 25  1  0  0  0  0
 28 25  2  0  0  0  0
 29 30  1  0  0  0  0
 31 32  1  0  0  0  0
M  END
>  <MODEL>
3

>  <REMARK>
 VINA RESULT:      -6.2      2.627      9.412
  Name = 
  3 active torsions:
  status: ('A' for Active; 'I' for Inactive)
    1  A    between atoms: N_10  and  C_24
    2  A    between atoms: N_13  and  C_15
    3  A    between atoms: C_25  and  C_26
                            x       y       z     vdW  Elec       q    Type
                         _______ _______ _______ _____ _____    ______ ____

>  <TORSDO>
F 3

$$$$
=
 OpenBabel11062410513D

 32 36  0  0  1  0  0  0  0  0999 V2000
  160.5620  213.3880  147.3270 C   0  0  0  0  0  0  0  0  0  0  0  0
  159.7310  213.4740  142.2880 C   0  0  2  0  0  3  0  0  0  0  0  0
  157.6120  213.5770  140.8080 C   0  0  0  0  0  0  0  0  0  0  0  0
  156.8750  212.7460  139.8650 C   0  0  0  0  0  0  0  0  0  0  0  0
  159.4380  212.7560  144.7380 C   0  0  1  0  0  3  0  0  0  0  0  0
  161.7610  212.9310  143.7030 C   0  0  0  0  0  2  0  0  0  0  0  0
  156.6310  211.3730  138.1600 N   0  0  0  0  0  0  0  0  0  0  0  0
  161.4900  213.0600  146.1960 C   0  0  0  0  0  2  0  0  0  0  0  0
  160.9850  212.5890  142.4210 C   0  0  2  0  0  3  0  0  0  0  0  0
  161.8880  212.6330  141.1850 C   0  0  2  0  0  3  0  0  0  0  0  0
  159.6570  212.2710  140.1010 N   0  0  2  0  0  0  0  0  0  0  0  0
  155.4020  211.7450  138.5770 C   0  0  0  0  0  3  0  0  0  0  0  0
  159.1810  213.9010  147.0300 C   0  0  0  0  0  2  0  0  0  0  0  0
  160.8440  213.3810  144.8490 C   0  0  2  0  0  3  0  0  0  0  0  0
  155.5130  212.6220  139.6580 C   0  0  0  0  0  3  0  0  0  0  0  0
  158.5180  213.0660  145.9320 C   0  0  0  0  0  2  0  0  0  0  0  0
  160.9960  213.2480  148.5760 C   0  0  0  0  0  3  0  0  0  0  0  0
  161.1040  212.4600  139.8700 C   0  0  1  0  0  3  0  0  0  0  0  0
  159.0040  212.0190  138.8010 C   0  0  0  0  0  2  0  0  0  0  0  0
  158.7440  213.1270  143.4200 C   0  0  0  0  0  2  0  0  0  0  0  0
  157.0140  214.4510  141.4920 O   0  0  0  0  0  0  0  0  0  0  0  0
  156.9190  210.5100  137.0290 C   0  0  0  0  0  1  0  0  0  0  0  0
  159.1270  213.4400  140.8580 C   0  0  2  0  0  3  0  0  0  0  0  0
  157.5220  211.9760  138.9580 C   0  0  0  0  0  0  0  0  0  0  0  0
  160.1390  212.7400  150.8660 C   0  0  0  0  0  0  0  0  0  0  0  0
  160.1690  213.5600  149.6980 N   0  0  0  0  0  2  0  0  0  0  0  0
  159.3160  213.0880  151.9280 O   0  0  0  0  0  1  0  0  0  0  0  0
  160.8510  211.7030  150.9430 O   0  0  0  0  0  0  0  0  0  0  0  0
  162.5940  210.6080  140.2560 C   0  0  0  0  0  1  0  0  0  0  0  0
  162.9030  211.5960  141.2750 N   0  0  0  0  0  2  0  0  0  0  0  0
  162.7330  214.0350  139.0770 O   0  0  0  0  0  1  0  0  0  0  0  0
  161.4020  213.6410  138.9380 C   0  0  0  0  0  2  0  0  0  0  0  0
  1 17  2  0  0  0  0
  2  9  1  0  0  0  0
  2 20  1  1  0  0  0
  3 21  2  0  0  0  0
  4  3  1  0  0  0  0
  5 20  1  6  0  0  0
  5 14  1  0  0  0  0
  5 16  1  0  0  0  0
  7 12  1  0  0  0  0
  7 24  1  0  0  0  0
  8  1  1  0  0  0  0
  9  6  1  1  0  0  0
 10 30  1  1  0  0  0
 10  9  1  0  0  0  0
 11 19  1  6  0  0  0
 11 23  1  0  0  0  0
 12 15  2  0  0  0  0
 13  1  1  0  0  0  0
 14  6  1  6  0  0  0
 14  8  1  0  0  0  0
 15  4  1  0  0  0  0
 16 13  1  0  0  0  0
 17 26  1  0  0  0  0
 18 32  1  6  0  0  0
 18 11  1  0  0  0  0
 18 10  1  0  0  0  0
 19 24  1  0  0  0  0
 22  7  1  0  0  0  0
 23  3  1  1  0  0  0
 23  2  1  0  0  0  0
 24  4  2  0  0  0  0
 25 28  2  0  0  0  0
 25 27  1  0  0  0  0
 26 25  1  0  0  0  0
 29 30  1  0  0  0  0
 32 31  1  0  0  0  0
M  END
>  <MODEL>
4

>  <REMARK>
 VINA RESULT:      -5.3      8.300     12.841
  Name = 
  3 active torsions:
  status: ('A' for Active; 'I' for Inactive)
    1  A    between atoms: N_10  and  C_24
    2  A    between atoms: N_13  and  C_15
    3  A    between atoms: C_25  and  C_26
                            x       y       z     vdW  Elec       q    Type
                         _______ _______ _______ _____ _____    ______ ____

>  <TORSDO>
F 3

$$$$
