=
 OpenBabel11062409373D

 34 38  0  0  1  0  0  0  0  0999 V2000
  160.8250  209.3460  153.0070 C   0  0  0  0  0  0  0  0  0  0  0  0
  160.2070  212.7360  151.7050 C   0  0  0  0  0  3  0  0  0  0  0  0
  160.2290  211.9100  153.8300 N   0  0  0  0  0  2  0  0  0  0  0  0
  161.0640  206.9580  153.5060 C   0  0  0  0  0  0  0  0  0  0  0  0
  161.1160  208.0270  152.6080 C   0  0  0  0  0  3  0  0  0  0  0  0
  160.4530  208.5040  155.2760 C   0  0  0  0  0  0  0  0  0  0  0  0
  160.1220  208.6830  156.6510 N   0  0  0  0  0  1  0  0  0  0  0  0
  160.7370  207.2110  154.8360 C   0  0  0  0  0  3  0  0  0  0  0  0
  160.2430  210.9230  154.7580 C   0  0  0  0  0  0  0  0  0  0  0  0
  160.4940  209.5930  154.3660 C   0  0  0  0  0  0  0  0  0  0  0  0
  160.0060  211.2220  155.9580 O   0  0  0  0  0  0  0  0  0  0  0  0
  160.1080  212.6810  150.2190 C   0  0  0  0  0  2  0  0  0  0  0  0
  161.3900  212.2940  149.5740 C   0  0  0  0  0  0  0  0  0  0  0  0
  161.9460  211.1160  149.8440 C   0  0  0  0  0  3  0  0  0  0  0  0
  160.4850  211.7070  152.5140 C   0  0  0  0  0  0  0  0  0  0  0  0
  161.5320  210.1770  150.9020 C   0  0  0  0  0  3  0  0  0  0  0  0
  160.9060  210.4170  152.0780 C   0  0  0  0  0  0  0  0  0  0  0  0
  161.9490  213.1540  148.5110 C   0  0  0  0  0  0  0  0  0  0  0  0
  161.5170  214.3280  148.3610 O   0  0  0  0  0  0  0  0  0  0  0  0
  163.0290  212.6680  147.6040 C   0  0  0  0  0  1  0  0  0  0  0  0
  161.3580  205.6360  153.1320 O   0  0  0  0  0  0  0  0  0  0  0  0
  161.2520  205.2590  149.4150 C   0  0  0  0  0  3  0  0  0  0  0  0
  161.0870  203.6960  151.7340 C   0  0  0  0  0  3  0  0  0  0  0  0
  160.7840  201.8920  147.9540 C   0  0  0  0  0  0  0  0  0  0  0  0
  160.9700  203.2750  148.0540 C   0  0  0  0  0  3  0  0  0  0  0  0
  161.0700  203.8800  149.3100 C   0  0  0  0  0  0  0  0  0  0  0  0
  160.8030  201.7100  150.3760 C   0  0  0  0  0  3  0  0  0  0  0  0
  160.9870  203.0910  150.4800 C   0  0  0  0  0  0  0  0  0  0  0  0
  160.7020  201.1110  149.1160 C   0  0  0  0  0  3  0  0  0  0  0  0
  161.2760  205.0800  151.8440 C   0  0  0  0  0  0  0  0  0  0  0  0
  161.3520  205.8550  150.6750 C   0  0  0  0  0  3  0  0  0  0  0  0
  160.6850  201.2610  146.6060 C   0  0  2  0  0  3  0  0  0  0  0  0
  161.4930  200.1410  146.5390 F   0  0  0  0  0  0  0  0  0  0  0  0
  161.0630  202.1750  145.6210 O   0  0  0  0  0  1  0  0  0  0  0  0
  1 10  1  0  0  0  0
  2 15  2  0  0  0  0
  3  9  1  0  0  0  0
  4  8  2  0  0  0  0
  5  1  2  0  0  0  0
  5  4  1  0  0  0  0
  6  7  1  0  0  0  0
  8  6  1  0  0  0  0
  9 11  2  0  0  0  0
 10  9  1  0  0  0  0
 10  6  2  0  0  0  0
 12  2  1  0  0  0  0
 13 14  2  0  0  0  0
 13 12  1  0  0  0  0
 14 16  1  0  0  0  0
 15  3  1  0  0  0  0
 16 17  2  0  0  0  0
 17 15  1  0  0  0  0
 17  1  1  0  0  0  0
 18 13  1  0  0  0  0
 19 18  2  0  0  0  0
 20 18  1  0  0  0  0
 21  4  1  0  0  0  0
 22 31  1  0  0  0  0
 23 30  1  0  0  0  0
 24 25  2  0  0  0  0
 24 29  1  0  0  0  0
 25 26  1  0  0  0  0
 26 22  2  0  0  0  0
 26 28  1  0  0  0  0
 27 28  1  0  0  0  0
 28 23  2  0  0  0  0
 29 27  2  0  0  0  0
 30 21  1  0  0  0  0
 31 30  2  0  0  0  0
 32 34  1  6  0  0  0
 32 24  1  0  0  0  0
 33 32  1  0  0  0  0
M  END
>  <MODEL>
1

>  <REMARK>
 VINA RESULT:     -11.0      0.000      0.000
  Name = 
  4 active torsions:
  status: ('A' for Active; 'I' for Inactive)
    1  A    between atoms: C_3  and  C_25
    2  A    between atoms: C_7  and  C_11
    3  A    between atoms: C_8  and  O_18
    4  A    between atoms: O_18  and  C_30
                            x       y       z     vdW  Elec       q    Type
                         _______ _______ _______ _____ _____    ______ ____

>  <TORSDO>
F 4

$$$$
=
 OpenBabel11062409373D

 34 38  0  0  1  0  0  0  0  0999 V2000
  161.2720  206.7770  150.4820 C   0  0  0  0  0  0  0  0  0  0  0  0
  161.6120  203.9050  148.2010 C   0  0  0  0  0  3  0  0  0  0  0  0
  161.1070  204.0250  150.4210 N   0  0  0  0  0  2  0  0  0  0  0  0
  161.3420  208.8710  151.7530 C   0  0  0  0  0  0  0  0  0  0  0  0
  161.3650  208.1810  150.5390 C   0  0  0  0  0  3  0  0  0  0  0  0
  161.0950  206.7590  152.9240 C   0  0  0  0  0  0  0  0  0  0  0  0
  160.9580  206.0900  154.1760 N   0  0  0  0  0  1  0  0  0  0  0  0
  161.2020  208.1500  152.9360 C   0  0  0  0  0  3  0  0  0  0  0  0
  160.9980  204.6500  151.6180 C   0  0  0  0  0  0  0  0  0  0  0  0
  161.1280  206.0510  151.6940 C   0  0  0  0  0  0  0  0  0  0  0  0
  160.8030  203.9500  152.6470 O   0  0  0  0  0  0  0  0  0  0  0  0
  162.1620  204.3740  146.8990 C   0  0  0  0  0  2  0  0  0  0  0  0
  161.2290  205.2770  146.1750 C   0  0  0  0  0  0  0  0  0  0  0  0
  160.8450  206.4260  146.7280 C   0  0  0  0  0  3  0  0  0  0  0  0
  161.3000  204.6770  149.2480 C   0  0  0  0  0  0  0  0  0  0  0  0
  161.0900  206.8490  148.1190 C   0  0  0  0  0  3  0  0  0  0  0  0
  161.2770  206.1020  149.2330 C   0  0  0  0  0  0  0  0  0  0  0  0
  160.8650  204.9680  144.7780 C   0  0  0  0  0  0  0  0  0  0  0  0
  161.2700  205.7110  143.8440 O   0  0  0  0  0  0  0  0  0  0  0  0
  160.0300  203.7810  144.4350 C   0  0  0  0  0  1  0  0  0  0  0  0
  161.4250  210.2720  151.8330 O   0  0  0  0  0  0  0  0  0  0  0  0
  159.1490  213.2320  151.6650 C   0  0  0  0  0  3  0  0  0  0  0  0
  159.4900  210.8700  153.1320 C   0  0  0  0  0  3  0  0  0  0  0  0
  156.3290  213.4800  154.0480 C   0  0  0  0  0  0  0  0  0  0  0  0
  157.2110  213.7910  153.0070 C   0  0  0  0  0  3  0  0  0  0  0  0
  158.2650  212.9250  152.7000 C   0  0  0  0  0  0  0  0  0  0  0  0
  157.5530  211.4270  154.4780 C   0  0  0  0  0  3  0  0  0  0  0  0
  158.4370  211.7340  153.4400 C   0  0  0  0  0  0  0  0  0  0  0  0
  156.5010  212.2970  154.7800 C   0  0  0  0  0  3  0  0  0  0  0  0
  160.3760  211.1710  152.0900 C   0  0  0  0  0  0  0  0  0  0  0  0
  160.2000  212.3610  151.3650 C   0  0  0  0  0  3  0  0  0  0  0  0
  155.2060  214.4110  154.3590 C   0  0  2  0  0  3  0  0  0  0  0  0
  154.6710  214.1200  155.6000 F   0  0  0  0  0  0  0  0  0  0  0  0
  154.2150  214.3090  153.3820 O   0  0  0  0  0  1  0  0  0  0  0  0
  1  5  2  0  0  0  0
  1 10  1  0  0  0  0
  2 15  2  0  0  0  0
  3  9  1  0  0  0  0
  4 21  1  0  0  0  0
  4  8  2  0  0  0  0
  5  4  1  0  0  0  0
  6  8  1  0  0  0  0
  6  7  1  0  0  0  0
  9 10  1  0  0  0  0
  9 11  2  0  0  0  0
 10  6  2  0  0  0  0
 12  2  1  0  0  0  0
 13 14  2  0  0  0  0
 13 12  1  0  0  0  0
 14 16  1  0  0  0  0
 15  3  1  0  0  0  0
 16 17  2  0  0  0  0
 17 15  1  0  0  0  0
 17  1  1  0  0  0  0
 18 13  1  0  0  0  0
 19 18  2  0  0  0  0
 20 18  1  0  0  0  0
 21 30  1  0  0  0  0
 22 26  1  0  0  0  0
 23 28  1  0  0  0  0
 24 32  1  0  0  0  0
 24 29  1  0  0  0  0
 25 24  2  0  0  0  0
 26 25  1  0  0  0  0
 26 28  2  0  0  0  0
 27 29  2  0  0  0  0
 28 27  1  0  0  0  0
 30 23  2  0  0  0  0
 31 22  2  0  0  0  0
 31 30  1  0  0  0  0
 32 34  1  6  0  0  0
 32 33  1  0  0  0  0
M  END
>  <MODEL>
2

>  <REMARK>
 VINA RESULT:     -10.5      4.382      9.101
  Name = 
  4 active torsions:
  status: ('A' for Active; 'I' for Inactive)
    1  A    between atoms: C_3  and  C_25
    2  A    between atoms: C_7  and  C_11
    3  A    between atoms: C_8  and  O_18
    4  A    between atoms: O_18  and  C_30
                            x       y       z     vdW  Elec       q    Type
                         _______ _______ _______ _____ _____    ______ ____

>  <TORSDO>
F 4

$$$$
=
 OpenBabel11062409373D

 34 38  0  0  1  0  0  0  0  0999 V2000
  160.0570  210.8140  153.0040 C   0  0  0  0  0  0  0  0  0  0  0  0
  158.2920  213.8340  154.1590 C   0  0  0  0  0  3  0  0  0  0  0  0
  159.3120  213.3390  152.1810 N   0  0  0  0  0  2  0  0  0  0  0  0
  161.3410  208.7580  152.6440 C   0  0  0  0  0  0  0  0  0  0  0  0
  160.4600  209.5270  153.4080 C   0  0  0  0  0  3  0  0  0  0  0  0
  161.4330  210.5390  150.9970 C   0  0  0  0  0  0  0  0  0  0  0  0
  161.9630  211.0000  149.7560 N   0  0  0  0  0  1  0  0  0  0  0  0
  161.8160  209.2730  151.4410 C   0  0  0  0  0  3  0  0  0  0  0  0
  160.1040  212.6040  151.3640 C   0  0  0  0  0  0  0  0  0  0  0  0
  160.5460  211.3300  151.7730 C   0  0  0  0  0  0  0  0  0  0  0  0
  160.4460  213.0950  150.2560 O   0  0  0  0  0  0  0  0  0  0  0  0
  158.0000  213.7050  155.6150 C   0  0  0  0  0  2  0  0  0  0  0  0
  157.0380  212.6120  155.9110 C   0  0  0  0  0  0  0  0  0  0  0  0
  157.3340  211.3540  155.5900 C   0  0  0  0  0  3  0  0  0  0  0  0
  158.8690  212.9060  153.3870 C   0  0  0  0  0  0  0  0  0  0  0  0
  158.4700  210.9100  154.7630 C   0  0  0  0  0  3  0  0  0  0  0  0
  159.1430  211.5670  153.7890 C   0  0  0  0  0  0  0  0  0  0  0  0
  155.8310  212.9100  156.7090 C   0  0  0  0  0  0  0  0  0  0  0  0
  155.0790  211.9730  157.0850 O   0  0  0  0  0  0  0  0  0  0  0  0
  155.4790  214.3080  157.0940 C   0  0  0  0  0  1  0  0  0  0  0  0
  161.7500  207.4680  153.0240 O   0  0  0  0  0  0  0  0  0  0  0  0
  160.9760  203.8850  152.2950 C   0  0  0  0  0  3  0  0  0  0  0  0
  161.5720  206.2680  150.9470 C   0  0  0  0  0  3  0  0  0  0  0  0
  160.8870  202.7360  148.7780 C   0  0  0  0  0  0  0  0  0  0  0  0
  160.8160  202.7220  150.1750 C   0  0  0  0  0  3  0  0  0  0  0  0
  161.0440  203.8950  150.9010 C   0  0  0  0  0  0  0  0  0  0  0  0
  161.4140  205.1070  148.8250 C   0  0  0  0  0  3  0  0  0  0  0  0
  161.3440  205.0960  150.2210 C   0  0  0  0  0  0  0  0  0  0  0  0
  161.1850  203.9310  148.1050 C   0  0  0  0  0  3  0  0  0  0  0  0
  161.4990  206.2640  152.3450 C   0  0  0  0  0  0  0  0  0  0  0  0
  161.2060  205.0620  153.0120 C   0  0  0  0  0  3  0  0  0  0  0  0
  160.6350  201.4780  148.0180 C   0  0  2  0  0  3  0  0  0  0  0  0
  161.4850  200.4770  148.4520 F   0  0  0  0  0  0  0  0  0  0  0  0
  160.8230  201.6960  146.6530 O   0  0  0  0  0  1  0  0  0  0  0  0
  1  5  1  0  0  0  0
  1 17  1  0  0  0  0
  2 12  1  0  0  0  0
  3 15  1  0  0  0  0
  4 21  1  0  0  0  0
  4  5  2  0  0  0  0
  6  8  2  0  0  0  0
  6 10  1  0  0  0  0
  7  6  1  0  0  0  0
  8  4  1  0  0  0  0
  9 10  1  0  0  0  0
  9  3  1  0  0  0  0
 10  1  2  0  0  0  0
 11  9  2  0  0  0  0
 12 13  1  0  0  0  0
 13 18  1  0  0  0  0
 14 13  2  0  0  0  0
 15 17  1  0  0  0  0
 15  2  2  0  0  0  0
 16 14  1  0  0  0  0
 17 16  2  0  0  0  0
 18 19  2  0  0  0  0
 18 20  1  0  0  0  0
 22 31  1  0  0  0  0
 23 30  1  0  0  0  0
 24 25  2  0  0  0  0
 25 26  1  0  0  0  0
 26 22  2  0  0  0  0
 27 28  1  0  0  0  0
 28 26  1  0  0  0  0
 28 23  2  0  0  0  0
 29 24  1  0  0  0  0
 29 27  2  0  0  0  0
 30 31  2  0  0  0  0
 30 21  1  0  0  0  0
 32 34  1  6  0  0  0
 32 33  1  0  0  0  0
 32 24  1  0  0  0  0
M  END
>  <MODEL>
3

>  <REMARK>
 VINA RESULT:     -10.1      2.450      4.908
  Name = 
  4 active torsions:
  status: ('A' for Active; 'I' for Inactive)
    1  A    between atoms: C_3  and  C_25
    2  A    between atoms: C_7  and  C_11
    3  A    between atoms: C_8  and  O_18
    4  A    between atoms: O_18  and  C_30
                            x       y       z     vdW  Elec       q    Type
                         _______ _______ _______ _____ _____    ______ ____

>  <TORSDO>
F 4

$$$$
=
 OpenBabel11062409373D

 34 38  0  0  1  0  0  0  0  0999 V2000
  161.5940  207.7200  149.7500 C   0  0  0  0  0  0  0  0  0  0  0  0
  161.3510  204.1620  148.8280 C   0  0  0  0  0  3  0  0  0  0  0  0
  160.9090  205.2550  150.7790 N   0  0  0  0  0  2  0  0  0  0  0  0
  162.0780  210.0990  150.0840 C   0  0  0  0  0  0  0  0  0  0  0  0
  161.9530  208.9860  149.2490 C   0  0  0  0  0  3  0  0  0  0  0  0
  161.4510  208.7190  151.9810 C   0  0  0  0  0  0  0  0  0  0  0  0
  161.2070  208.6480  153.3840 N   0  0  0  0  0  1  0  0  0  0  0  0
  161.8210  209.9530  151.4450 C   0  0  0  0  0  3  0  0  0  0  0  0
  160.9370  206.3170  151.6190 C   0  0  0  0  0  0  0  0  0  0  0  0
  161.3320  207.5820  151.1390 C   0  0  0  0  0  0  0  0  0  0  0  0
  160.6280  206.1380  152.8260 O   0  0  0  0  0  0  0  0  0  0  0  0
  161.9610  203.9600  147.4840 C   0  0  0  0  0  2  0  0  0  0  0  0
  161.2060  204.6470  146.4030 C   0  0  0  0  0  0  0  0  0  0  0  0
  161.0560  205.9690  146.4280 C   0  0  0  0  0  3  0  0  0  0  0  0
  161.2060  205.3330  149.4580 C   0  0  0  0  0  0  0  0  0  0  0  0
  161.3950  206.8650  147.5470 C   0  0  0  0  0  3  0  0  0  0  0  0
  161.4530  206.6090  148.8760 C   0  0  0  0  0  0  0  0  0  0  0  0
  160.7710  203.8710  145.2240 C   0  0  0  0  0  0  0  0  0  0  0  0
  160.5400  204.4600  144.1340 O   0  0  0  0  0  0  0  0  0  0  0  0
  160.6040  202.3900  145.2840 C   0  0  0  0  0  1  0  0  0  0  0  0
  162.4270  211.3740  149.6050 O   0  0  0  0  0  0  0  0  0  0  0  0
  162.7370  213.1060  146.3080 C   0  0  0  0  0  3  0  0  0  0  0  0
  160.8070  211.8270  147.8850 C   0  0  0  0  0  3  0  0  0  0  0  0
  159.7450  213.4430  144.1560 C   0  0  0  0  0  0  0  0  0  0  0  0
  161.0650  213.5430  144.6090 C   0  0  0  0  0  3  0  0  0  0  0  0
  161.4230  213.0070  145.8500 C   0  0  0  0  0  0  0  0  0  0  0  0
  159.1320  212.2630  146.1890 C   0  0  0  0  0  3  0  0  0  0  0  0
  160.4490  212.3620  146.6450 C   0  0  0  0  0  0  0  0  0  0  0  0
  158.7810  212.8020  144.9470 C   0  0  0  0  0  3  0  0  0  0  0  0
  162.1260  211.9180  148.3450 C   0  0  0  0  0  0  0  0  0  0  0  0
  163.0850  212.5670  147.5500 C   0  0  0  0  0  3  0  0  0  0  0  0
  159.3820  214.0150  142.8270 C   0  0  2  0  0  3  0  0  0  0  0  0
  158.5810  213.1310  142.1280 F   0  0  0  0  0  0  0  0  0  0  0  0
  160.5360  214.2880  142.0920 O   0  0  0  0  0  1  0  0  0  0  0  0
  1 10  1  0  0  0  0
  2 15  2  0  0  0  0
  3  9  1  0  0  0  0
  4  8  2  0  0  0  0
  5  1  2  0  0  0  0
  5  4  1  0  0  0  0
  6  7  1  0  0  0  0
  8  6  1  0  0  0  0
  9 11  2  0  0  0  0
 10  9  1  0  0  0  0
 10  6  2  0  0  0  0
 12  2  1  0  0  0  0
 13 14  2  0  0  0  0
 13 12  1  0  0  0  0
 14 16  1  0  0  0  0
 15  3  1  0  0  0  0
 16 17  2  0  0  0  0
 17 15  1  0  0  0  0
 17  1  1  0  0  0  0
 18 20  1  0  0  0  0
 18 13  1  0  0  0  0
 19 18  2  0  0  0  0
 21  4  1  0  0  0  0
 22 31  1  0  0  0  0
 23 30  1  0  0  0  0
 24 25  2  0  0  0  0
 24 29  1  0  0  0  0
 25 26  1  0  0  0  0
 26 22  2  0  0  0  0
 26 28  1  0  0  0  0
 27 28  1  0  0  0  0
 28 23  2  0  0  0  0
 29 27  2  0  0  0  0
 30 21  1  0  0  0  0
 31 30  2  0  0  0  0
 32 34  1  6  0  0  0
 32 24  1  0  0  0  0
 33 32  1  0  0  0  0
M  END
>  <MODEL>
4

>  <REMARK>
 VINA RESULT:     -10.1      3.823      8.647
  Name = 
  4 active torsions:
  status: ('A' for Active; 'I' for Inactive)
    1  A    between atoms: C_3  and  C_25
    2  A    between atoms: C_7  and  C_11
    3  A    between atoms: C_8  and  O_18
    4  A    between atoms: O_18  and  C_30
                            x       y       z     vdW  Elec       q    Type
                         _______ _______ _______ _____ _____    ______ ____

>  <TORSDO>
F 4

$$$$
=
 OpenBabel11062409373D

 34 38  0  0  1  0  0  0  0  0999 V2000
  160.5050  211.9530  150.9530 C   0  0  0  0  0  0  0  0  0  0  0  0
  159.5130  214.4290  148.4130 C   0  0  0  0  0  3  0  0  0  0  0  0
  159.2790  214.4080  150.6800 N   0  0  0  0  0  2  0  0  0  0  0  0
  161.0960  210.0180  152.3370 C   0  0  0  0  0  0  0  0  0  0  0  0
  161.1160  210.6940  151.1140 C   0  0  0  0  0  3  0  0  0  0  0  0
  159.8670  211.8680  153.3160 C   0  0  0  0  0  0  0  0  0  0  0  0
  159.2460  212.4160  154.4770 N   0  0  0  0  0  1  0  0  0  0  0  0
  160.4740  210.6170  153.4280 C   0  0  0  0  0  3  0  0  0  0  0  0
  159.3010  213.8330  151.9060 C   0  0  0  0  0  0  0  0  0  0  0  0
  159.8740  212.5570  152.0740 C   0  0  0  0  0  0  0  0  0  0  0  0
  158.7820  214.4530  152.8720 O   0  0  0  0  0  0  0  0  0  0  0  0
  159.7180  213.8490  147.0560 C   0  0  0  0  0  2  0  0  0  0  0  0
  161.1510  213.5990  146.7500 C   0  0  0  0  0  0  0  0  0  0  0  0
  161.8600  212.7620  147.5030 C   0  0  0  0  0  3  0  0  0  0  0  0
  159.8200  213.8410  149.5750 C   0  0  0  0  0  0  0  0  0  0  0  0
  161.4350  212.1670  148.7830 C   0  0  0  0  0  3  0  0  0  0  0  0
  160.5580  212.6290  149.7050 C   0  0  0  0  0  0  0  0  0  0  0  0
  161.7300  214.1570  145.5110 C   0  0  0  0  0  0  0  0  0  0  0  0
  162.9670  214.3860  145.4440 O   0  0  0  0  0  0  0  0  0  0  0  0
  160.8830  214.4520  144.3190 C   0  0  0  0  0  1  0  0  0  0  0  0
  161.7060  208.7660  152.5220 O   0  0  0  0  0  0  0  0  0  0  0  0
  161.1660  206.4830  149.6120 C   0  0  0  0  0  3  0  0  0  0  0  0
  161.5100  206.3710  152.3910 C   0  0  0  0  0  3  0  0  0  0  0  0
  160.9540  202.8340  150.1940 C   0  0  0  0  0  0  0  0  0  0  0  0
  160.9690  204.0690  149.5360 C   0  0  0  0  0  3  0  0  0  0  0  0
  161.1530  205.2490  150.2640 C   0  0  0  0  0  0  0  0  0  0  0  0
  161.3130  203.9570  152.3180 C   0  0  0  0  0  3  0  0  0  0  0  0
  161.3270  205.1920  151.6650 C   0  0  0  0  0  0  0  0  0  0  0  0
  161.1280  202.7810  151.5850 C   0  0  0  0  0  3  0  0  0  0  0  0
  161.5300  207.6110  151.7400 C   0  0  0  0  0  0  0  0  0  0  0  0
  161.3500  207.6570  150.3480 C   0  0  0  0  0  3  0  0  0  0  0  0
  160.7630  201.5850  149.4030 C   0  0  2  0  0  3  0  0  0  0  0  0
  161.4400  201.6700  148.2000 F   0  0  0  0  0  0  0  0  0  0  0  0
  159.4050  201.3710  149.1650 O   0  0  0  0  0  1  0  0  0  0  0  0
  1  5  2  0  0  0  0
  1 10  1  0  0  0  0
  2 15  2  0  0  0  0
  3  9  1  0  0  0  0
  4 21  1  0  0  0  0
  4  8  2  0  0  0  0
  5  4  1  0  0  0  0
  6  8  1  0  0  0  0
  6  7  1  0  0  0  0
  9 10  1  0  0  0  0
  9 11  2  0  0  0  0
 10  6  2  0  0  0  0
 12  2  1  0  0  0  0
 13 12  1  0  0  0  0
 13 14  2  0  0  0  0
 14 16  1  0  0  0  0
 15 17  1  0  0  0  0
 15  3  1  0  0  0  0
 16 17  2  0  0  0  0
 17  1  1  0  0  0  0
 18 13  1  0  0  0  0
 19 18  2  0  0  0  0
 20 18  1  0  0  0  0
 22 26  2  0  0  0  0
 22 31  1  0  0  0  0
 24 29  1  0  0  0  0
 25 24  2  0  0  0  0
 25 26  1  0  0  0  0
 26 28  1  0  0  0  0
 28 27  1  0  0  0  0
 28 23  2  0  0  0  0
 29 27  2  0  0  0  0
 30 23  1  0  0  0  0
 30 21  1  0  0  0  0
 31 30  2  0  0  0  0
 32 33  1  6  0  0  0
 32 24  1  0  0  0  0
 34 32  1  0  0  0  0
M  END
>  <MODEL>
5

>  <REMARK>
 VINA RESULT:      -9.1      2.092      3.254
  Name = 
  4 active torsions:
  status: ('A' for Active; 'I' for Inactive)
    1  A    between atoms: C_3  and  C_25
    2  A    between atoms: C_7  and  C_11
    3  A    between atoms: C_8  and  O_18
    4  A    between atoms: O_18  and  C_30
                            x       y       z     vdW  Elec       q    Type
                         _______ _______ _______ _____ _____    ______ ____

>  <TORSDO>
F 4

$$$$
=
 OpenBabel11062409373D

 34 38  0  0  1  0  0  0  0  0999 V2000
  160.3260  211.7630  151.4770 C   0  0  0  0  0  0  0  0  0  0  0  0
  158.2850  214.3820  153.0710 C   0  0  0  0  0  3  0  0  0  0  0  0
  159.2620  214.2660  151.0150 N   0  0  0  0  0  2  0  0  0  0  0  0
  161.8180  209.9360  150.8110 C   0  0  0  0  0  0  0  0  0  0  0  0
  160.8910  210.4920  151.6960 C   0  0  0  0  0  3  0  0  0  0  0  0
  161.6310  211.9090  149.4100 C   0  0  0  0  0  0  0  0  0  0  0  0
  162.0480  212.5820  148.2240 N   0  0  0  0  0  1  0  0  0  0  0  0
  162.1750  210.6510  149.6720 C   0  0  0  0  0  3  0  0  0  0  0  0
  160.0940  213.7380  150.0850 C   0  0  0  0  0  0  0  0  0  0  0  0
  160.6960  212.4840  150.3100 C   0  0  0  0  0  0  0  0  0  0  0  0
  160.3280  214.4030  149.0410 O   0  0  0  0  0  0  0  0  0  0  0  0
  158.0760  214.0370  154.5050 C   0  0  0  0  0  2  0  0  0  0  0  0
  157.2590  212.8080  154.6850 C   0  0  0  0  0  0  0  0  0  0  0  0
  157.6810  211.6460  154.1930 C   0  0  0  0  0  3  0  0  0  0  0  0
  158.9280  213.6340  152.1670 C   0  0  0  0  0  0  0  0  0  0  0  0
  158.8210  211.4470  153.2810 C   0  0  0  0  0  3  0  0  0  0  0  0
  159.3700  212.2970  152.3810 C   0  0  0  0  0  0  0  0  0  0  0  0
  156.0640  212.8590  155.5520 C   0  0  0  0  0  0  0  0  0  0  0  0
  155.7550  211.8600  156.2550 O   0  0  0  0  0  0  0  0  0  0  0  0
  155.2070  214.0780  155.6270 C   0  0  0  0  0  1  0  0  0  0  0  0
  162.3870  208.6660  151.0060 O   0  0  0  0  0  0  0  0  0  0  0  0
  161.2560  205.1870  150.2370 C   0  0  0  0  0  3  0  0  0  0  0  0
  162.3340  207.4270  148.9440 C   0  0  0  0  0  3  0  0  0  0  0  0
  161.4910  203.9400  146.7610 C   0  0  0  0  0  0  0  0  0  0  0  0
  161.2310  203.9820  148.1340 C   0  0  0  0  0  3  0  0  0  0  0  0
  161.5110  205.1410  148.8650 C   0  0  0  0  0  0  0  0  0  0  0  0
  162.3110  206.2250  146.8410 C   0  0  0  0  0  3  0  0  0  0  0  0
  162.0550  206.2700  148.2130 C   0  0  0  0  0  0  0  0  0  0  0  0
  162.0300  205.0630  146.1160 C   0  0  0  0  0  3  0  0  0  0  0  0
  162.0740  207.4800  150.3190 C   0  0  0  0  0  0  0  0  0  0  0  0
  161.5390  206.3500  150.9590 C   0  0  0  0  0  3  0  0  0  0  0  0
  161.1800  202.6980  145.9940 C   0  0  2  0  0  3  0  0  0  0  0  0
  160.4170  202.9990  144.8810 F   0  0  0  0  0  0  0  0  0  0  0  0
  160.4930  201.7940  146.8050 O   0  0  0  0  0  1  0  0  0  0  0  0
  1  5  1  0  0  0  0
  1 17  1  0  0  0  0
  2 12  1  0  0  0  0
  3 15  1  0  0  0  0
  4 21  1  0  0  0  0
  4  5  2  0  0  0  0
  6  8  2  0  0  0  0
  6 10  1  0  0  0  0
  7  6  1  0  0  0  0
  8  4  1  0  0  0  0
  9 10  1  0  0  0  0
  9  3  1  0  0  0  0
 10  1  2  0  0  0  0
 11  9  2  0  0  0  0
 12 13  1  0  0  0  0
 13 18  1  0  0  0  0
 14 13  2  0  0  0  0
 15 17  1  0  0  0  0
 15  2  2  0  0  0  0
 16 14  1  0  0  0  0
 17 16  2  0  0  0  0
 18 20  1  0  0  0  0
 18 19  2  0  0  0  0
 22 31  1  0  0  0  0
 23 30  1  0  0  0  0
 24 25  2  0  0  0  0
 25 26  1  0  0  0  0
 26 22  2  0  0  0  0
 27 28  1  0  0  0  0
 28 26  1  0  0  0  0
 28 23  2  0  0  0  0
 29 24  1  0  0  0  0
 29 27  2  0  0  0  0
 30 31  2  0  0  0  0
 30 21  1  0  0  0  0
 32 33  1  6  0  0  0
 32 24  1  0  0  0  0
 32 34  1  0  0  0  0
M  END
>  <MODEL>
6

>  <REMARK>
 VINA RESULT:      -8.9      2.690      5.263
  Name = 
  4 active torsions:
  status: ('A' for Active; 'I' for Inactive)
    1  A    between atoms: C_3  and  C_25
    2  A    between atoms: C_7  and  C_11
    3  A    between atoms: C_8  and  O_18
    4  A    between atoms: O_18  and  C_30
                            x       y       z     vdW  Elec       q    Type
                         _______ _______ _______ _____ _____    ______ ____

>  <TORSDO>
F 4

$$$$
=
 OpenBabel11062409373D

 34 38  0  0  1  0  0  0  0  0999 V2000
  161.1880  206.2640  150.8790 C   0  0  0  0  0  0  0  0  0  0  0  0
  161.5590  203.5780  148.3850 C   0  0  0  0  0  3  0  0  0  0  0  0
  161.0240  203.5250  150.6010 N   0  0  0  0  0  2  0  0  0  0  0  0
  161.2410  208.2520  152.3120 C   0  0  0  0  0  0  0  0  0  0  0  0
  161.2810  207.6590  151.0470 C   0  0  0  0  0  3  0  0  0  0  0  0
  160.9780  206.0550  153.3100 C   0  0  0  0  0  0  0  0  0  0  0  0
  160.8240  205.2900  154.5030 N   0  0  0  0  0  1  0  0  0  0  0  0
  161.0850  207.4400  153.4320 C   0  0  0  0  0  3  0  0  0  0  0  0
  160.8990  204.0540  151.8410 C   0  0  0  0  0  0  0  0  0  0  0  0
  161.0270  205.4450  152.0290 C   0  0  0  0  0  0  0  0  0  0  0  0
  160.6900  203.2760  152.8090 O   0  0  0  0  0  0  0  0  0  0  0  0
  162.1270  204.1480  147.1310 C   0  0  0  0  0  2  0  0  0  0  0  0
  161.2030  205.1060  146.4680 C   0  0  0  0  0  0  0  0  0  0  0  0
  160.8130  206.2080  147.1040 C   0  0  0  0  0  3  0  0  0  0  0  0
  161.2330  204.2670  149.4850 C   0  0  0  0  0  0  0  0  0  0  0  0
  161.0380  206.5200  148.5270 C   0  0  0  0  0  3  0  0  0  0  0  0
  161.2100  205.6880  149.5810 C   0  0  0  0  0  0  0  0  0  0  0  0
  160.8590  204.9080  145.0460 C   0  0  0  0  0  0  0  0  0  0  0  0
  160.2010  203.8920  144.6940 O   0  0  0  0  0  0  0  0  0  0  0  0
  161.2670  205.8920  144.0020 C   0  0  0  0  0  1  0  0  0  0  0  0
  161.3230  209.6420  152.5020 O   0  0  0  0  0  0  0  0  0  0  0  0
  160.2380  212.6880  150.6280 C   0  0  0  0  0  3  0  0  0  0  0  0
  162.0060  210.5300  150.3730 C   0  0  0  0  0  3  0  0  0  0  0  0
  161.7570  213.4180  147.3330 C   0  0  0  0  0  0  0  0  0  0  0  0
  160.9570  213.5360  148.4750 C   0  0  0  0  0  3  0  0  0  0  0  0
  161.0360  212.5760  149.4890 C   0  0  0  0  0  0  0  0  0  0  0  0
  162.7260  211.3740  148.2190 C   0  0  0  0  0  3  0  0  0  0  0  0
  161.9280  211.4880  149.3600 C   0  0  0  0  0  0  0  0  0  0  0  0
  162.6420  212.3370  147.2080 C   0  0  0  0  0  3  0  0  0  0  0  0
  161.2120  210.6410  151.5210 C   0  0  0  0  0  0  0  0  0  0  0  0
  160.3240  211.7240  151.6360 C   0  0  0  0  0  3  0  0  0  0  0  0
  161.6650  214.4530  146.2640 C   0  0  2  0  0  3  0  0  0  0  0  0
  160.4560  214.3520  145.6000 F   0  0  0  0  0  0  0  0  0  0  0  0
  162.7140  214.3000  145.3570 O   0  0  0  0  0  1  0  0  0  0  0  0
  1  5  2  0  0  0  0
  1 10  1  0  0  0  0
  2 15  2  0  0  0  0
  3  9  1  0  0  0  0
  4 21  1  0  0  0  0
  4  8  2  0  0  0  0
  5  4  1  0  0  0  0
  6  8  1  0  0  0  0
  6  7  1  0  0  0  0
  9 10  1  0  0  0  0
  9 11  2  0  0  0  0
 10  6  2  0  0  0  0
 12  2  1  0  0  0  0
 13 14  2  0  0  0  0
 13 12  1  0  0  0  0
 14 16  1  0  0  0  0
 15 17  1  0  0  0  0
 15  3  1  0  0  0  0
 16 17  2  0  0  0  0
 17  1  1  0  0  0  0
 18 13  1  0  0  0  0
 19 18  2  0  0  0  0
 20 18  1  0  0  0  0
 22 31  1  0  0  0  0
 23 30  1  0  0  0  0
 24 25  2  0  0  0  0
 25 26  1  0  0  0  0
 26 22  2  0  0  0  0
 27 28  1  0  0  0  0
 28 26  1  0  0  0  0
 28 23  2  0  0  0  0
 29 24  1  0  0  0  0
 29 27  2  0  0  0  0
 30 31  2  0  0  0  0
 30 21  1  0  0  0  0
 32 34  1  6  0  0  0
 32 24  1  0  0  0  0
 33 32  1  0  0  0  0
M  END
>  <MODEL>
7

>  <REMARK>
 VINA RESULT:      -8.9      3.408      8.195
  Name = 
  4 active torsions:
  status: ('A' for Active; 'I' for Inactive)
    1  A    between atoms: C_3  and  C_25
    2  A    between atoms: C_7  and  C_11
    3  A    between atoms: C_8  and  O_18
    4  A    between atoms: O_18  and  C_30
                            x       y       z     vdW  Elec       q    Type
                         _______ _______ _______ _____ _____    ______ ____

>  <TORSDO>
F 4

$$$$
=
 OpenBabel11062409373D

 34 38  0  0  1  0  0  0  0  0999 V2000
  160.6730  208.6730  152.7020 C   0  0  0  0  0  0  0  0  0  0  0  0
  158.8470  210.3120  155.4490 C   0  0  0  0  0  3  0  0  0  0  0  0
  160.3090  208.5620  155.4330 N   0  0  0  0  0  2  0  0  0  0  0  0
  161.5500  207.6870  150.6360 C   0  0  0  0  0  0  0  0  0  0  0  0
  160.8640  208.7020  151.3060 C   0  0  0  0  0  3  0  0  0  0  0  0
  161.9240  206.5680  152.7580 C   0  0  0  0  0  0  0  0  0  0  0  0
  162.4890  205.4530  153.4430 N   0  0  0  0  0  1  0  0  0  0  0  0
  162.0790  206.6300  151.3730 C   0  0  0  0  0  3  0  0  0  0  0  0
  161.0520  207.5950  154.8430 C   0  0  0  0  0  0  0  0  0  0  0  0
  161.2180  207.5910  153.4440 C   0  0  0  0  0  0  0  0  0  0  0  0
  161.5620  206.7020  155.5700 O   0  0  0  0  0  0  0  0  0  0  0  0
  157.8620  211.2730  154.8790 C   0  0  0  0  0  2  0  0  0  0  0  0
  158.5130  212.4090  154.1740 C   0  0  0  0  0  0  0  0  0  0  0  0
  159.2980  212.1830  153.1240 C   0  0  0  0  0  3  0  0  0  0  0  0
  159.7260  209.5810  154.7540 C   0  0  0  0  0  0  0  0  0  0  0  0
  159.7830  210.8700  152.6630 C   0  0  0  0  0  3  0  0  0  0  0  0
  159.9890  209.7280  153.3610 C   0  0  0  0  0  0  0  0  0  0  0  0
  158.1480  213.7910  154.5460 C   0  0  0  0  0  0  0  0  0  0  0  0
  158.8950  214.4530  155.3150 O   0  0  0  0  0  0  0  0  0  0  0  0
  156.9090  214.4370  154.0240 C   0  0  0  0  0  1  0  0  0  0  0  0
  161.7590  207.7000  149.2460 O   0  0  0  0  0  0  0  0  0  0  0  0
  161.7370  205.6300  146.1350 C   0  0  0  0  0  3  0  0  0  0  0  0
  161.3280  205.3600  148.8930 C   0  0  0  0  0  3  0  0  0  0  0  0
  160.9590  202.0200  146.3730 C   0  0  0  0  0  0  0  0  0  0  0  0
  161.2890  203.2680  145.8340 C   0  0  0  0  0  3  0  0  0  0  0  0
  161.4120  204.3820  146.6690 C   0  0  0  0  0  0  0  0  0  0  0  0
  160.8780  202.9980  148.5950 C   0  0  0  0  0  3  0  0  0  0  0  0
  161.2050  204.2460  148.0600 C   0  0  0  0  0  0  0  0  0  0  0  0
  160.7550  201.8870  147.7550 C   0  0  0  0  0  3  0  0  0  0  0  0
  161.6610  206.6120  148.3630 C   0  0  0  0  0  0  0  0  0  0  0  0
  161.8580  206.7380  146.9770 C   0  0  0  0  0  3  0  0  0  0  0  0
  160.8380  200.8400  145.4690 C   0  0  2  0  0  3  0  0  0  0  0  0
  159.5410  200.7240  145.0020 F   0  0  0  0  0  0  0  0  0  0  0  0
  161.1990  199.6760  146.1500 O   0  0  0  0  0  1  0  0  0  0  0  0
  1 17  1  0  0  0  0
  1 10  1  0  0  0  0
  4  5  1  0  0  0  0
  4  8  2  0  0  0  0
  5  1  2  0  0  0  0
  6  7  1  0  0  0  0
  6 10  2  0  0  0  0
  8  6  1  0  0  0  0
  9  3  1  0  0  0  0
  9 11  2  0  0  0  0
 10  9  1  0  0  0  0
 12  2  1  0  0  0  0
 13 18  1  0  0  0  0
 13 12  1  0  0  0  0
 14 13  2  0  0  0  0
 15  3  1  0  0  0  0
 15  2  2  0  0  0  0
 16 14  1  0  0  0  0
 16 17  2  0  0  0  0
 17 15  1  0  0  0  0
 18 19  2  0  0  0  0
 20 18  1  0  0  0  0
 21  4  1  0  0  0  0
 22 26  2  0  0  0  0
 22 31  1  0  0  0  0
 24 29  1  0  0  0  0
 25 24  2  0  0  0  0
 25 26  1  0  0  0  0
 26 28  1  0  0  0  0
 28 27  1  0  0  0  0
 28 23  2  0  0  0  0
 29 27  2  0  0  0  0
 30 23  1  0  0  0  0
 30 21  1  0  0  0  0
 31 30  2  0  0  0  0
 32 33  1  1  0  0  0
 32 34  1  0  0  0  0
 32 24  1  0  0  0  0
M  END
>  <MODEL>
8

>  <REMARK>
 VINA RESULT:      -8.4      2.598      3.986
  Name = 
  4 active torsions:
  status: ('A' for Active; 'I' for Inactive)
    1  A    between atoms: C_3  and  C_25
    2  A    between atoms: C_7  and  C_11
    3  A    between atoms: C_8  and  O_18
    4  A    between atoms: O_18  and  C_30
                            x       y       z     vdW  Elec       q    Type
                         _______ _______ _______ _____ _____    ______ ____

>  <TORSDO>
F 4

$$$$
=
 OpenBabel11062409373D

 34 38  0  0  1  0  0  0  0  0999 V2000
  160.8590  210.9310  151.0540 C   0  0  0  0  0  0  0  0  0  0  0  0
  159.9040  213.7750  148.9170 C   0  0  0  0  0  3  0  0  0  0  0  0
  159.7980  213.4740  151.1740 N   0  0  0  0  0  2  0  0  0  0  0  0
  161.3870  208.7980  152.1400 C   0  0  0  0  0  0  0  0  0  0  0  0
  161.3860  209.6250  151.0140 C   0  0  0  0  0  3  0  0  0  0  0  0
  160.3510  210.5800  153.4230 C   0  0  0  0  0  0  0  0  0  0  0  0
  159.8390  211.0100  154.6830 N   0  0  0  0  0  1  0  0  0  0  0  0
  160.8720  209.2890  153.3370 C   0  0  0  0  0  3  0  0  0  0  0  0
  159.8480  212.7430  152.3130 C   0  0  0  0  0  0  0  0  0  0  0  0
  160.3370  211.4220  152.2810 C   0  0  0  0  0  0  0  0  0  0  0  0
  159.4310  213.2640  153.3810 O   0  0  0  0  0  0  0  0  0  0  0  0
  159.9880  213.3650  147.4870 C   0  0  0  0  0  2  0  0  0  0  0  0
  161.3800  213.0660  147.0580 C   0  0  0  0  0  0  0  0  0  0  0  0
  162.0690  212.0940  147.6520 C   0  0  0  0  0  3  0  0  0  0  0  0
  160.2330  213.0220  149.9720 C   0  0  0  0  0  0  0  0  0  0  0  0
  161.6770  211.3660  148.8710 C   0  0  0  0  0  3  0  0  0  0  0  0
  160.8890  211.7590  149.9000 C   0  0  0  0  0  0  0  0  0  0  0  0
  161.9270  213.7420  145.8640 C   0  0  0  0  0  0  0  0  0  0  0  0
  161.2700  213.7470  144.7890 O   0  0  0  0  0  0  0  0  0  0  0  0
  163.2470  214.4360  145.8980 C   0  0  0  0  0  1  0  0  0  0  0  0
  161.9150  207.4960  152.1260 O   0  0  0  0  0  0  0  0  0  0  0  0
  161.2120  204.2360  150.4400 C   0  0  0  0  0  3  0  0  0  0  0  0
  161.9000  206.8750  149.8020 C   0  0  0  0  0  3  0  0  0  0  0  0
  161.3940  204.0340  146.7490 C   0  0  0  0  0  0  0  0  0  0  0  0
  161.2170  203.6610  148.0860 C   0  0  0  0  0  3  0  0  0  0  0  0
  161.3850  204.6040  149.1050 C   0  0  0  0  0  0  0  0  0  0  0  0
  161.9070  206.3040  147.4470 C   0  0  0  0  0  3  0  0  0  0  0  0
  161.7320  205.9350  148.7830 C   0  0  0  0  0  0  0  0  0  0  0  0
  161.7380  205.3570  146.4320 C   0  0  0  0  0  3  0  0  0  0  0  0
  161.7210  206.5120  151.1420 C   0  0  0  0  0  0  0  0  0  0  0  0
  161.3820  205.1840  151.4520 C   0  0  0  0  0  3  0  0  0  0  0  0
  161.2050  203.0190  145.6740 C   0  0  2  0  0  3  0  0  0  0  0  0
  160.6150  203.5970  144.5650 F   0  0  0  0  0  0  0  0  0  0  0  0
  160.4080  201.9720  146.1390 O   0  0  0  0  0  1  0  0  0  0  0  0
  1 10  1  0  0  0  0
  2 15  2  0  0  0  0
  3  9  1  0  0  0  0
  4  8  2  0  0  0  0
  5  1  2  0  0  0  0
  5  4  1  0  0  0  0
  6  7  1  0  0  0  0
  8  6  1  0  0  0  0
  9 11  2  0  0  0  0
 10  9  1  0  0  0  0
 10  6  2  0  0  0  0
 12  2  1  0  0  0  0
 13 12  1  0  0  0  0
 13 14  2  0  0  0  0
 14 16  1  0  0  0  0
 15  3  1  0  0  0  0
 16 17  2  0  0  0  0
 17 15  1  0  0  0  0
 17  1  1  0  0  0  0
 18 20  1  0  0  0  0
 18 13  1  0  0  0  0
 19 18  2  0  0  0  0
 21  4  1  0  0  0  0
 22 31  1  0  0  0  0
 23 30  1  0  0  0  0
 24 25  2  0  0  0  0
 25 26  1  0  0  0  0
 26 22  2  0  0  0  0
 27 28  1  0  0  0  0
 28 26  1  0  0  0  0
 28 23  2  0  0  0  0
 29 24  1  0  0  0  0
 29 27  2  0  0  0  0
 30 31  2  0  0  0  0
 30 21  1  0  0  0  0
 32 33  1  6  0  0  0
 32 34  1  0  0  0  0
 32 24  1  0  0  0  0
M  END
>  <MODEL>
9

>  <REMARK>
 VINA RESULT:      -8.3      1.828      2.859
  Name = 
  4 active torsions:
  status: ('A' for Active; 'I' for Inactive)
    1  A    between atoms: C_3  and  C_25
    2  A    between atoms: C_7  and  C_11
    3  A    between atoms: C_8  and  O_18
    4  A    between atoms: O_18  and  C_30
                            x       y       z     vdW  Elec       q    Type
                         _______ _______ _______ _____ _____    ______ ____

>  <TORSDO>
F 4

$$$$
