=
 OpenBabel11062410203D

 43 46  0  0  1  0  0  0  0  0999 V2000
  160.9740  206.9170  149.7370 C   0  0  0  0  0  0  0  0  0  0  0  0
  162.5110  207.1560  152.7570 C   0  0  0  0  0  1  0  0  0  0  0  0
  161.9730  209.1280  150.2020 C   0  0  2  0  0  3  0  0  0  0  0  0
  161.2150  207.5430  152.0610 C   0  0  2  0  0  3  0  0  0  0  0  0
  162.2610  211.7580  149.1430 C   0  0  0  0  0  0  0  0  0  0  0  0
  161.4900  211.6020  150.4350 C   0  0  2  0  0  3  0  0  0  0  0  0
  162.6770  213.0240  148.7570 O   0  0  0  0  0  1  0  0  0  0  0  0
  160.5720  209.9680  152.1230 C   0  0  0  0  0  3  0  0  0  0  0  0
  160.4650  206.0790  148.8800 C   0  0  0  0  0  3  0  0  0  0  0  0
  160.9670  210.1760  150.6780 C   0  0  2  0  0  3  0  0  0  0  0  0
  162.1980  209.3050  148.7000 C   0  0  0  0  0  2  0  0  0  0  0  0
  161.4720  207.7650  150.6020 C   0  0  0  0  0  0  0  0  0  0  0  0
  160.6120  208.7680  152.7290 C   0  0  0  0  0  0  0  0  0  0  0  0
  162.6150  210.7120  148.3870 C   0  0  0  0  0  3  0  0  0  0  0  0
  161.1170  205.8060  145.1650 C   0  0  0  0  0  2  0  0  0  0  0  0
  161.5000  203.6630  146.4530 C   0  0  0  0  0  3  0  0  0  0  0  0
  161.2170  204.2810  145.1050 C   0  0  1  0  0  3  0  0  0  0  0  0
  160.3820  206.2400  146.4230 C   0  0  0  0  0  2  0  0  0  0  0  0
  161.1890  205.7590  147.6220 C   0  0  2  0  0  3  0  0  0  0  0  0
  160.0310  203.7560  144.5950 O   0  0  0  0  0  1  0  0  0  0  0  0
  161.4410  204.3310  147.5580 N   0  0  0  0  0  0  0  0  0  0  0  0
  160.3830  212.6090  150.5150 C   0  0  0  0  0  0  0  0  0  0  0  0
  159.9900  213.0310  151.6390 O   0  0  0  0  0  0  0  0  0  0  0  0
  159.7710  213.0410  149.3360 O   0  0  0  0  0  0  0  0  0  0  0  0
  158.5030  213.6790  149.3440 C   0  0  0  0  0  1  0  0  0  0  0  0
  160.0930  208.6740  154.1380 C   0  0  0  0  0  2  0  0  0  0  0  0
  161.2010  208.8270  155.1910 C   0  0  2  0  0  3  0  0  0  0  0  0
  160.7940  208.2300  156.3900 O   0  0  0  0  0  0  0  0  0  0  0  0
  159.9330  207.2020  156.0020 C   0  0  0  0  0  1  0  0  0  0  0  0
  161.6100  210.3030  155.3800 C   0  0  1  0  0  3  0  0  0  0  0  0
  160.7700  211.8710  157.2590 C   0  0  0  0  0  1  0  0  0  0  0  0
  160.4600  211.1760  155.9340 C   0  0  1  0  0  3  0  0  0  0  0  0
  159.9370  212.0820  154.9830 O   0  0  0  0  0  0  0  0  0  0  0  0
  159.4860  213.2380  155.6470 C   0  0  0  0  0  2  0  0  0  0  0  0
  157.3290  213.9220  154.5310 C   0  0  0  0  0  0  0  0  0  0  0  0
  158.0330  213.2910  155.6080 N   0  0  0  0  0  0  0  0  0  0  0  0
  155.2190  213.5340  155.6660 N   0  0  0  0  0  2  0  0  0  0  0  0
  155.8650  212.3840  156.2930 C   0  0  0  0  0  2  0  0  0  0  0  0
  157.2730  212.7710  156.7370 C   0  0  0  0  0  2  0  0  0  0  0  0
  157.9510  214.4360  153.5630 O   0  0  0  0  0  0  0  0  0  0  0  0
  155.9330  213.9020  154.5350 O   0  0  0  0  0  0  0  0  0  0  0  0
  162.8310  210.3530  156.2940 C   0  0  0  0  0  2  0  0  0  0  0  0
  163.8460  211.0870  155.6810 O   0  0  0  0  0  1  0  0  0  0  0  0
  1 12  2  0  0  0  0
  3 11  1  6  0  0  0
  3 12  1  0  0  0  0
  3 10  1  0  0  0  0
  4 13  1  0  0  0  0
  4  2  1  1  0  0  0
  5  6  1  0  0  0  0
  6 22  1  6  0  0  0
  6 10  1  0  0  0  0
  7  5  1  0  0  0  0
  8 13  2  0  0  0  0
  9  1  2  0  0  0  0
 10  8  1  1  0  0  0
 12  4  1  0  0  0  0
 13 26  1  0  0  0  0
 14 11  1  0  0  0  0
 14  5  2  0  0  0  0
 15 18  1  0  0  0  0
 16 21  2  0  0  0  0
 17 20  1  1  0  0  0
 17 15  1  0  0  0  0
 17 16  1  0  0  0  0
 18 19  1  0  0  0  0
 19  9  1  1  0  0  0
 21 19  1  0  0  0  0
 22 23  2  0  0  0  0
 24 25  1  0  0  0  0
 24 22  1  0  0  0  0
 27 26  1  6  0  0  0
 27 30  1  0  0  0  0
 27 28  1  0  0  0  0
 29 28  1  0  0  0  0
 30 32  1  0  0  0  0
 30 42  1  1  0  0  0
 32 31  1  1  0  0  0
 33 34  1  0  0  0  0
 33 32  1  0  0  0  0
 35 41  1  0  0  0  0
 35 36  1  0  0  0  0
 36 34  1  0  0  0  0
 36 39  1  0  0  0  0
 37 38  1  0  0  0  0
 38 39  1  0  0  0  0
 40 35  2  0  0  0  0
 41 37  1  0  0  0  0
 43 42  1  0  0  0  0
M  END
>  <MODEL>
1

>  <REMARK>
 VINA RESULT:      -5.3      0.000      0.000
  Name = 
  12 active torsions:
  status: ('A' for Active; 'I' for Inactive)
    1  A    between atoms: C_2  and  C_6
    2  A    between atoms: C_2  and  C_38
    3  A    between atoms: C_4  and  C_15
    4  A    between atoms: C_4  and  O_22
    5  A    between atoms: O_5  and  C_18
    6  A    between atoms: C_6  and  O_12
    7  A    between atoms: C_6  and  C_15
    8  A    between atoms: C_10  and  C_15
    9  A    between atoms: N_14  and  C_41
   10  A    between atoms: C_18  and  C_21
   11  A    between atoms: O_22  and  C_41
   12  A    between atoms: C_28  and  C_35
                            x       y       z     vdW  Elec       q    Type
                         _______ _______ _______ _____ _____    ______ ____

>  <TORSDO>
F 12

$$$$
=
 OpenBabel11062410203D

 43 46  0  0  1  0  0  0  0  0999 V2000
  161.9580  210.5580  150.3690 C   0  0  0  0  0  0  0  0  0  0  0  0
  159.4080  210.4760  152.6130 C   0  0  0  0  0  1  0  0  0  0  0  0
  160.8480  208.3610  150.5730 C   0  0  2  0  0  3  0  0  0  0  0  0
  160.8680  210.0730  152.4740 C   0  0  2  0  0  3  0  0  0  0  0  0
  160.9630  205.6650  149.6560 C   0  0  0  0  0  0  0  0  0  0  0  0
  161.1990  205.9160  151.1290 C   0  0  2  0  0  3  0  0  0  0  0  0
  160.7140  204.3690  149.2270 O   0  0  0  0  0  1  0  0  0  0  0  0
  161.4320  207.6700  152.9270 C   0  0  0  0  0  3  0  0  0  0  0  0
  162.7530  211.3520  149.7100 C   0  0  0  0  0  3  0  0  0  0  0  0
  161.6000  207.3650  151.4560 C   0  0  2  0  0  3  0  0  0  0  0  0
  161.1970  208.0870  149.1100 C   0  0  0  0  0  2  0  0  0  0  0  0
  161.1710  209.7560  151.0410 C   0  0  0  0  0  0  0  0  0  0  0  0
  161.1750  208.9040  153.3960 C   0  0  0  0  0  0  0  0  0  0  0  0
  160.9200  206.6550  148.7570 C   0  0  0  0  0  3  0  0  0  0  0  0
  162.8040  213.1570  146.3880 C   0  0  0  0  0  2  0  0  0  0  0  0
  160.5640  212.1520  146.9960 C   0  0  0  0  0  3  0  0  0  0  0  0
  161.2910  213.1830  146.1660 C   0  0  1  0  0  3  0  0  0  0  0  0
  163.1210  212.9330  147.8570 C   0  0  0  0  0  2  0  0  0  0  0  0
  162.5490  211.5790  148.2560 C   0  0  2  0  0  3  0  0  0  0  0  0
  160.7970  214.4520  146.4670 O   0  0  0  0  0  1  0  0  0  0  0  0
  161.1350  211.4850  147.9440 N   0  0  0  0  0  0  0  0  0  0  0  0
  162.1930  204.9390  151.6800 C   0  0  0  0  0  0  0  0  0  0  0  0
  163.2930  205.3490  152.1460 O   0  0  0  0  0  0  0  0  0  0  0  0
  161.9010  203.5740  151.6340 O   0  0  0  0  0  0  0  0  0  0  0  0
  160.8510  203.0100  152.4040 C   0  0  0  0  0  1  0  0  0  0  0  0
  161.1340  209.0960  154.8880 C   0  0  0  0  0  2  0  0  0  0  0  0
  161.2380  210.5730  155.3000 C   0  0  2  0  0  3  0  0  0  0  0  0
  162.5390  210.8460  155.7370 O   0  0  0  0  0  0  0  0  0  0  0  0
  162.7510  209.9640  156.7980 C   0  0  0  0  0  1  0  0  0  0  0  0
  160.1740  210.9490  156.3520 C   0  0  1  0  0  3  0  0  0  0  0  0
  160.4130  213.4000  157.1460 C   0  0  0  0  0  1  0  0  0  0  0  0
  159.6980  212.4150  156.2230 C   0  0  1  0  0  3  0  0  0  0  0  0
  159.6690  212.8800  154.8890 O   0  0  0  0  0  0  0  0  0  0  0  0
  159.0810  214.1590  154.8590 C   0  0  0  0  0  2  0  0  0  0  0  0
  157.8900  214.1920  152.6350 C   0  0  0  0  0  0  0  0  0  0  0  0
  157.8630  214.1200  154.0660 N   0  0  0  0  0  0  0  0  0  0  0  0
  155.4650  214.2280  152.5770 N   0  0  0  0  0  2  0  0  0  0  0  0
  155.5080  213.4910  153.8380 C   0  0  0  0  0  2  0  0  0  0  0  0
  156.5740  214.0990  154.7450 C   0  0  0  0  0  2  0  0  0  0  0  0
  158.9830  214.2690  152.0110 O   0  0  0  0  0  0  0  0  0  0  0  0
  156.6870  214.1080  151.9320 O   0  0  0  0  0  0  0  0  0  0  0  0
  159.0060  209.9760  156.2270 C   0  0  0  0  0  2  0  0  0  0  0  0
  157.8800  210.6530  155.7550 O   0  0  0  0  0  1  0  0  0  0  0  0
  1 12  2  0  0  0  0
  3 11  1  6  0  0  0
  3 12  1  0  0  0  0
  3 10  1  0  0  0  0
  4  2  1  6  0  0  0
  4 13  1  0  0  0  0
  5  6  1  0  0  0  0
  6 10  1  0  0  0  0
  6 22  1  6  0  0  0
  7  5  1  0  0  0  0
  8 13  2  0  0  0  0
  9  1  2  0  0  0  0
 10  8  1  1  0  0  0
 12  4  1  0  0  0  0
 13 26  1  0  0  0  0
 14 11  1  0  0  0  0
 14  5  2  0  0  0  0
 15 18  1  0  0  0  0
 16 21  2  0  0  0  0
 17 15  1  0  0  0  0
 17 20  1  1  0  0  0
 17 16  1  0  0  0  0
 18 19  1  0  0  0  0
 19  9  1  1  0  0  0
 21 19  1  0  0  0  0
 22 23  2  0  0  0  0
 24 22  1  0  0  0  0
 24 25  1  0  0  0  0
 27 26  1  1  0  0  0
 27 28  1  0  0  0  0
 27 30  1  0  0  0  0
 28 29  1  0  0  0  0
 30 42  1  6  0  0  0
 32 30  1  0  0  0  0
 32 31  1  1  0  0  0
 33 32  1  0  0  0  0
 34 33  1  0  0  0  0
 35 36  1  0  0  0  0
 36 39  1  0  0  0  0
 36 34  1  0  0  0  0
 37 38  1  0  0  0  0
 38 39  1  0  0  0  0
 40 35  2  0  0  0  0
 41 37  1  0  0  0  0
 41 35  1  0  0  0  0
 43 42  1  0  0  0  0
M  END
>  <MODEL>
2

>  <REMARK>
 VINA RESULT:      -5.2      2.572      5.369
  Name = 
  12 active torsions:
  status: ('A' for Active; 'I' for Inactive)
    1  A    between atoms: C_2  and  C_6
    2  A    between atoms: C_2  and  C_38
    3  A    between atoms: C_4  and  C_15
    4  A    between atoms: C_4  and  O_22
    5  A    between atoms: O_5  and  C_18
    6  A    between atoms: C_6  and  O_12
    7  A    between atoms: C_6  and  C_15
    8  A    between atoms: C_10  and  C_15
    9  A    between atoms: N_14  and  C_41
   10  A    between atoms: C_18  and  C_21
   11  A    between atoms: O_22  and  C_41
   12  A    between atoms: C_28  and  C_35
                            x       y       z     vdW  Elec       q    Type
                         _______ _______ _______ _____ _____    ______ ____

>  <TORSDO>
F 12

$$$$
=
 OpenBabel11062410203D

 43 46  0  0  1  0  0  0  0  0999 V2000
  161.0460  207.4740  149.8360 C   0  0  0  0  0  0  0  0  0  0  0  0
  162.2660  208.1910  152.9250 C   0  0  0  0  0  1  0  0  0  0  0  0
  162.0190  209.7340  150.0510 C   0  0  2  0  0  3  0  0  0  0  0  0
  161.0530  208.4580  152.0460 C   0  0  2  0  0  3  0  0  0  0  0  0
  162.4460  212.1670  148.6280 C   0  0  0  0  0  0  0  0  0  0  0  0
  161.5440  212.2130  149.8430 C   0  0  2  0  0  3  0  0  0  0  0  0
  162.9150  213.3590  148.0950 O   0  0  0  0  0  1  0  0  0  0  0  0
  160.4370  210.8600  151.6600 C   0  0  0  0  0  3  0  0  0  0  0  0
  160.6170  206.5100  149.0730 C   0  0  0  0  0  3  0  0  0  0  0  0
  160.9810  210.8400  150.2500 C   0  0  2  0  0  3  0  0  0  0  0  0
  162.3990  209.6750  148.5710 C   0  0  0  0  0  2  0  0  0  0  0  0
  161.4620  208.4490  150.6050 C   0  0  0  0  0  0  0  0  0  0  0  0
  160.3990  209.7700  152.4480 C   0  0  0  0  0  0  0  0  0  0  0  0
  162.8630  211.0170  148.0870 C   0  0  0  0  0  3  0  0  0  0  0  0
  161.7090  205.7840  145.5260 C   0  0  0  0  0  2  0  0  0  0  0  0
  161.7270  203.7710  147.0570 C   0  0  0  0  0  3  0  0  0  0  0  0
  161.6760  204.2590  145.6290 C   0  0  1  0  0  3  0  0  0  0  0  0
  160.8630  206.4090  146.6240 C   0  0  0  0  0  2  0  0  0  0  0  0
  161.4630  206.0000  147.9630 C   0  0  2  0  0  3  0  0  0  0  0  0
  160.5210  203.7750  145.0160 O   0  0  0  0  0  1  0  0  0  0  0  0
  161.5890  204.5580  148.0730 N   0  0  0  0  0  0  0  0  0  0  0  0
  160.4470  213.2150  149.6490 C   0  0  0  0  0  0  0  0  0  0  0  0
  160.3460  214.2040  150.4280 O   0  0  0  0  0  0  0  0  0  0  0  0
  159.5210  213.0180  148.6220 O   0  0  0  0  0  0  0  0  0  0  0  0
  159.1310  214.0720  147.7560 C   0  0  0  0  0  1  0  0  0  0  0  0
  159.7370  209.8960  153.7930 C   0  0  0  0  0  2  0  0  0  0  0  0
  160.3950  210.9630  154.6820 C   0  0  2  0  0  3  0  0  0  0  0  0
  161.7800  210.9490  154.4820 O   0  0  0  0  0  0  0  0  0  0  0  0
  162.3200  210.7100  155.7470 C   0  0  0  0  0  1  0  0  0  0  0  0
  160.0140  210.7860  156.1660 C   0  0  1  0  0  3  0  0  0  0  0  0
  159.9510  213.2730  156.8760 C   0  0  0  0  0  1  0  0  0  0  0  0
  159.1770  211.9660  156.7140 C   0  0  1  0  0  3  0  0  0  0  0  0
  157.9630  212.1640  156.0180 O   0  0  0  0  0  0  0  0  0  0  0  0
  157.7390  213.5450  155.8660 C   0  0  0  0  0  2  0  0  0  0  0  0
  157.6720  213.8680  153.3640 C   0  0  0  0  0  0  0  0  0  0  0  0
  157.0090  213.7900  154.6320 N   0  0  0  0  0  0  0  0  0  0  0  0
  155.5770  214.4520  152.2890 N   0  0  0  0  0  2  0  0  0  0  0  0
  154.9170  213.7140  153.3630 C   0  0  0  0  0  2  0  0  0  0  0  0
  155.5780  214.0560  154.6950 C   0  0  0  0  0  2  0  0  0  0  0  0
  158.9180  213.7020  153.2740 O   0  0  0  0  0  0  0  0  0  0  0  0
  156.9070  214.0650  152.2130 O   0  0  0  0  0  0  0  0  0  0  0  0
  159.2690  209.4640  156.3190 C   0  0  0  0  0  2  0  0  0  0  0  0
  160.1690  208.4550  156.6640 O   0  0  0  0  0  1  0  0  0  0  0  0
  1 12  2  0  0  0  0
  3 11  1  6  0  0  0
  3 10  1  0  0  0  0
  3 12  1  0  0  0  0
  4 13  1  0  0  0  0
  4  2  1  1  0  0  0
  5  6  1  0  0  0  0
  6 22  1  6  0  0  0
  6 10  1  0  0  0  0
  7  5  1  0  0  0  0
  8 13  2  0  0  0  0
  9  1  2  0  0  0  0
 10  8  1  1  0  0  0
 12  4  1  0  0  0  0
 13 26  1  0  0  0  0
 14 11  1  0  0  0  0
 14  5  2  0  0  0  0
 15 17  1  0  0  0  0
 15 18  1  0  0  0  0
 16 21  2  0  0  0  0
 17 20  1  1  0  0  0
 17 16  1  0  0  0  0
 18 19  1  0  0  0  0
 19 21  1  0  0  0  0
 19  9  1  1  0  0  0
 22 23  2  0  0  0  0
 24 22  1  0  0  0  0
 25 24  1  0  0  0  0
 27 26  1  6  0  0  0
 27 30  1  0  0  0  0
 28 27  1  0  0  0  0
 28 29  1  0  0  0  0
 30 42  1  6  0  0  0
 30 32  1  0  0  0  0
 32 31  1  6  0  0  0
 33 32  1  0  0  0  0
 34 33  1  0  0  0  0
 35 36  1  0  0  0  0
 36 39  1  0  0  0  0
 36 34  1  0  0  0  0
 37 38  1  0  0  0  0
 38 39  1  0  0  0  0
 40 35  2  0  0  0  0
 41 37  1  0  0  0  0
 41 35  1  0  0  0  0
 42 43  1  0  0  0  0
M  END
>  <MODEL>
3

>  <REMARK>
 VINA RESULT:      -4.9      1.315      1.882
  Name = 
  12 active torsions:
  status: ('A' for Active; 'I' for Inactive)
    1  A    between atoms: C_2  and  C_6
    2  A    between atoms: C_2  and  C_38
    3  A    between atoms: C_4  and  C_15
    4  A    between atoms: C_4  and  O_22
    5  A    between atoms: O_5  and  C_18
    6  A    between atoms: C_6  and  O_12
    7  A    between atoms: C_6  and  C_15
    8  A    between atoms: C_10  and  C_15
    9  A    between atoms: N_14  and  C_41
   10  A    between atoms: C_18  and  C_21
   11  A    between atoms: O_22  and  C_41
   12  A    between atoms: C_28  and  C_35
                            x       y       z     vdW  Elec       q    Type
                         _______ _______ _______ _____ _____    ______ ____

>  <TORSDO>
F 12

$$$$
=
 OpenBabel11062410203D

 43 46  0  0  1  0  0  0  0  0999 V2000
  160.2500  211.4160  154.7490 C   0  0  0  0  0  0  0  0  0  0  0  0
  160.0600  208.4780  153.0560 C   0  0  0  0  0  1  0  0  0  0  0  0
  159.4010  211.6230  152.4390 C   0  0  2  0  0  3  0  0  0  0  0  0
  160.9380  209.7140  153.1740 C   0  0  2  0  0  3  0  0  0  0  0  0
  158.5600  213.5250  150.4900 C   0  0  0  0  0  0  0  0  0  0  0  0
  159.7960  212.7070  150.1850 C   0  0  2  0  0  3  0  0  0  0  0  0
  157.9520  214.2320  149.4620 O   0  0  0  0  0  1  0  0  0  0  0  0
  161.4110  210.9780  151.0590 C   0  0  0  0  0  3  0  0  0  0  0  0
  160.4140  211.9400  155.9300 C   0  0  0  0  0  3  0  0  0  0  0  0
  160.4530  212.0870  151.4310 C   0  0  2  0  0  3  0  0  0  0  0  0
  158.5770  212.8310  152.8850 C   0  0  0  0  0  2  0  0  0  0  0  0
  160.0990  210.8940  153.5580 C   0  0  0  0  0  0  0  0  0  0  0  0
  161.6900  209.9440  151.8730 C   0  0  0  0  0  0  0  0  0  0  0  0
  157.9900  213.5400  151.7000 C   0  0  0  0  0  3  0  0  0  0  0  0
  156.8660  212.3500  157.1710 C   0  0  0  0  0  2  0  0  0  0  0  0
  157.8480  214.4260  156.1100 C   0  0  0  0  0  3  0  0  0  0  0  0
  156.5850  213.6910  156.4930 C   0  0  1  0  0  3  0  0  0  0  0  0
  158.0350  211.6500  156.4970 C   0  0  0  0  0  2  0  0  0  0  0  0
  159.2620  212.5380  156.6530 C   0  0  2  0  0  3  0  0  0  0  0  0
  155.8070  213.4850  155.3540 O   0  0  0  0  0  1  0  0  0  0  0  0
  159.0170  213.8780  156.1510 N   0  0  0  0  0  0  0  0  0  0  0  0
  160.7820  213.5140  149.3950 C   0  0  0  0  0  0  0  0  0  0  0  0
  161.5190  214.3600  149.9760 O   0  0  0  0  0  0  0  0  0  0  0  0
  160.8440  213.3440  148.0100 O   0  0  0  0  0  0  0  0  0  0  0  0
  160.6650  212.0720  147.4070 C   0  0  0  0  0  1  0  0  0  0  0  0
  162.7400  208.9630  151.4310 C   0  0  0  0  0  2  0  0  0  0  0  0
  162.1790  207.8670  150.5100 C   0  0  2  0  0  3  0  0  0  0  0  0
  161.1560  208.4000  149.7190 O   0  0  0  0  0  0  0  0  0  0  0  0
  161.8100  208.9720  148.6260 C   0  0  0  0  0  1  0  0  0  0  0  0
  161.7200  206.6300  151.3080 C   0  0  1  0  0  3  0  0  0  0  0  0
  160.6410  204.3030  150.9650 C   0  0  0  0  0  1  0  0  0  0  0  0
  161.6060  205.3610  150.4310 C   0  0  1  0  0  3  0  0  0  0  0  0
  161.3650  205.6420  149.0670 O   0  0  0  0  0  0  0  0  0  0  0  0
  161.5320  204.4630  148.3160 C   0  0  0  0  0  2  0  0  0  0  0  0
  161.2220  203.7010  145.9310 C   0  0  0  0  0  0  0  0  0  0  0  0
  161.3260  204.7470  146.9050 N   0  0  0  0  0  0  0  0  0  0  0  0
  161.1130  205.3480  144.1530 N   0  0  0  0  0  2  0  0  0  0  0  0
  160.5420  206.2570  145.1450 C   0  0  0  0  0  2  0  0  0  0  0  0
  161.3170  206.1320  146.4540 C   0  0  0  0  0  2  0  0  0  0  0  0
  161.2840  202.4890  146.2730 O   0  0  0  0  0  0  0  0  0  0  0  0
  160.9840  204.0410  144.5980 O   0  0  0  0  0  0  0  0  0  0  0  0
  162.6890  206.4140  152.4660 C   0  0  0  0  0  2  0  0  0  0  0  0
  162.0050  205.8730  153.5550 O   0  0  0  0  0  1  0  0  0  0  0  0
  1  9  2  0  0  0  0
  3 11  1  1  0  0  0
  3 12  1  0  0  0  0
  4  2  1  6  0  0  0
  4 12  1  0  0  0  0
  5 14  2  0  0  0  0
  6 22  1  1  0  0  0
  6  5  1  0  0  0  0
  6 10  1  0  0  0  0
  7  5  1  0  0  0  0
  8 13  2  0  0  0  0
 10  8  1  6  0  0  0
 10  3  1  0  0  0  0
 12  1  2  0  0  0  0
 13  4  1  0  0  0  0
 14 11  1  0  0  0  0
 16 21  2  0  0  0  0
 16 17  1  0  0  0  0
 17 20  1  6  0  0  0
 17 15  1  0  0  0  0
 18 19  1  0  0  0  0
 18 15  1  0  0  0  0
 19  9  1  6  0  0  0
 21 19  1  0  0  0  0
 22 23  2  0  0  0  0
 24 22  1  0  0  0  0
 25 24  1  0  0  0  0
 26 13  1  0  0  0  0
 27 30  1  0  0  0  0
 27 26  1  1  0  0  0
 28 27  1  0  0  0  0
 29 28  1  0  0  0  0
 30 42  1  1  0  0  0
 32 31  1  1  0  0  0
 32 30  1  0  0  0  0
 33 32  1  0  0  0  0
 34 33  1  0  0  0  0
 35 40  2  0  0  0  0
 35 36  1  0  0  0  0
 36 34  1  0  0  0  0
 37 41  1  0  0  0  0
 37 38  1  0  0  0  0
 38 39  1  0  0  0  0
 39 36  1  0  0  0  0
 41 35  1  0  0  0  0
 42 43  1  0  0  0  0
M  END
>  <MODEL>
4

>  <REMARK>
 VINA RESULT:      -4.8      2.039      9.227
  Name = 
  12 active torsions:
  status: ('A' for Active; 'I' for Inactive)
    1  A    between atoms: C_2  and  C_6
    2  A    between atoms: C_2  and  C_38
    3  A    between atoms: C_4  and  C_15
    4  A    between atoms: C_4  and  O_22
    5  A    between atoms: O_5  and  C_18
    6  A    between atoms: C_6  and  O_12
    7  A    between atoms: C_6  and  C_15
    8  A    between atoms: C_10  and  C_15
    9  A    between atoms: N_14  and  C_41
   10  A    between atoms: C_18  and  C_21
   11  A    between atoms: O_22  and  C_41
   12  A    between atoms: C_28  and  C_35
                            x       y       z     vdW  Elec       q    Type
                         _______ _______ _______ _____ _____    ______ ____

>  <TORSDO>
F 12

$$$$
=
 OpenBabel11062410203D

 43 46  0  0  1  0  0  0  0  0999 V2000
  161.1050  208.4770  150.9910 C   0  0  0  0  0  0  0  0  0  0  0  0
  162.2500  210.5090  153.4610 C   0  0  0  0  0  1  0  0  0  0  0  0
  161.9380  210.6670  150.2080 C   0  0  2  0  0  3  0  0  0  0  0  0
  161.0320  210.3050  152.5730 C   0  0  2  0  0  3  0  0  0  0  0  0
  162.2320  212.2840  147.8800 C   0  0  0  0  0  0  0  0  0  0  0  0
  161.3170  212.7890  148.9750 C   0  0  2  0  0  3  0  0  0  0  0  0
  162.6340  213.1610  146.8830 O   0  0  0  0  0  1  0  0  0  0  0  0
  160.2760  212.2750  151.2140 C   0  0  0  0  0  3  0  0  0  0  0  0
  160.7430  207.2560  150.7170 C   0  0  0  0  0  3  0  0  0  0  0  0
  160.8340  211.6890  149.9370 C   0  0  2  0  0  3  0  0  0  0  0  0
  162.3350  210.0060  148.8880 C   0  0  0  0  0  2  0  0  0  0  0  0
  161.4540  209.7090  151.2650 C   0  0  0  0  0  0  0  0  0  0  0  0
  160.2960  211.6230  152.3900 C   0  0  0  0  0  0  0  0  0  0  0  0
  162.7220  211.0400  147.8710 C   0  0  0  0  0  3  0  0  0  0  0  0
  162.4730  205.8370  147.6690 C   0  0  0  0  0  2  0  0  0  0  0  0
  161.3170  204.1110  149.1130 C   0  0  0  0  0  3  0  0  0  0  0  0
  161.8620  204.4370  147.7430 C   0  0  1  0  0  3  0  0  0  0  0  0
  161.6320  206.8250  148.4610 C   0  0  0  0  0  2  0  0  0  0  0  0
  161.6280  206.3730  149.9150 C   0  0  2  0  0  3  0  0  0  0  0  0
  160.8400  204.3240  146.8010 O   0  0  0  0  0  1  0  0  0  0  0  0
  161.1860  204.9970  150.0450 N   0  0  0  0  0  0  0  0  0  0  0  0
  160.1630  213.5470  148.3920 C   0  0  0  0  0  0  0  0  0  0  0  0
  159.5950  214.4530  149.0650 O   0  0  0  0  0  0  0  0  0  0  0  0
  159.7060  213.2120  147.1160 O   0  0  0  0  0  0  0  0  0  0  0  0
  158.3640  213.4490  146.7180 C   0  0  0  0  0  1  0  0  0  0  0  0
  159.6140  212.2700  153.5650 C   0  0  0  0  0  2  0  0  0  0  0  0
  158.0840  212.1380  153.5090 C   0  0  2  0  0  3  0  0  0  0  0  0
  157.5180  213.3790  153.1940 O   0  0  0  0  0  0  0  0  0  0  0  0
  158.3330  214.3150  153.8320 C   0  0  0  0  0  1  0  0  0  0  0  0
  157.5130  211.5480  154.8150 C   0  0  1  0  0  3  0  0  0  0  0  0
  156.6770  213.1210  156.6910 C   0  0  0  0  0  1  0  0  0  0  0  0
  157.8640  212.3970  156.0600 C   0  0  1  0  0  3  0  0  0  0  0  0
  158.6160  211.6900  157.0260 O   0  0  0  0  0  0  0  0  0  0  0  0
  158.7760  210.3580  156.6010 C   0  0  0  0  0  2  0  0  0  0  0  0
  160.5970  208.6140  156.5050 C   0  0  0  0  0  0  0  0  0  0  0  0
  160.1650  209.9580  156.7540 N   0  0  0  0  0  0  0  0  0  0  0  0
  162.8370  209.1820  157.2420 N   0  0  0  0  0  2  0  0  0  0  0  0
  162.5410  210.5480  156.8140 C   0  0  0  0  0  2  0  0  0  0  0  0
  161.1310  210.9240  157.2610 C   0  0  0  0  0  2  0  0  0  0  0  0
  159.7810  207.7330  156.1210 O   0  0  0  0  0  0  0  0  0  0  0  0
  161.9530  208.3060  156.6310 O   0  0  0  0  0  0  0  0  0  0  0  0
  156.0030  211.3970  154.6580 C   0  0  0  0  0  2  0  0  0  0  0  0
  155.5980  210.1670  155.1760 O   0  0  0  0  0  1  0  0  0  0  0  0
  1 12  2  0  0  0  0
  3 11  1  6  0  0  0
  3 12  1  0  0  0  0
  4  2  1  1  0  0  0
  5  6  1  0  0  0  0
  6 22  1  6  0  0  0
  6 10  1  0  0  0  0
  7  5  1  0  0  0  0
  8 13  2  0  0  0  0
  9  1  2  0  0  0  0
 10  3  1  0  0  0  0
 10  8  1  1  0  0  0
 12  4  1  0  0  0  0
 13  4  1  0  0  0  0
 13 26  1  0  0  0  0
 14  5  2  0  0  0  0
 14 11  1  0  0  0  0
 15 17  1  0  0  0  0
 15 18  1  0  0  0  0
 16 21  2  0  0  0  0
 17 20  1  6  0  0  0
 17 16  1  0  0  0  0
 18 19  1  0  0  0  0
 19 21  1  0  0  0  0
 19  9  1  1  0  0  0
 22 23  2  0  0  0  0
 24 22  1  0  0  0  0
 25 24  1  0  0  0  0
 27 26  1  1  0  0  0
 27 30  1  0  0  0  0
 28 27  1  0  0  0  0
 28 29  1  0  0  0  0
 30 42  1  6  0  0  0
 30 32  1  0  0  0  0
 32 31  1  1  0  0  0
 32 33  1  0  0  0  0
 34 36  1  0  0  0  0
 34 33  1  0  0  0  0
 35 41  1  0  0  0  0
 35 36  1  0  0  0  0
 36 39  1  0  0  0  0
 38 37  1  0  0  0  0
 38 39  1  0  0  0  0
 40 35  2  0  0  0  0
 41 37  1  0  0  0  0
 42 43  1  0  0  0  0
M  END
>  <MODEL>
5

>  <REMARK>
 VINA RESULT:      -4.6      2.067      4.291
  Name = 
  12 active torsions:
  status: ('A' for Active; 'I' for Inactive)
    1  A    between atoms: C_2  and  C_6
    2  A    between atoms: C_2  and  C_38
    3  A    between atoms: C_4  and  C_15
    4  A    between atoms: C_4  and  O_22
    5  A    between atoms: O_5  and  C_18
    6  A    between atoms: C_6  and  O_12
    7  A    between atoms: C_6  and  C_15
    8  A    between atoms: C_10  and  C_15
    9  A    between atoms: N_14  and  C_41
   10  A    between atoms: C_18  and  C_21
   11  A    between atoms: O_22  and  C_41
   12  A    between atoms: C_28  and  C_35
                            x       y       z     vdW  Elec       q    Type
                         _______ _______ _______ _____ _____    ______ ____

>  <TORSDO>
F 12

$$$$
=
 OpenBabel11062410203D

 43 46  0  0  1  0  0  0  0  0999 V2000
  161.2060  206.2620  149.9520 C   0  0  0  0  0  0  0  0  0  0  0  0
  162.8590  206.6710  152.8910 C   0  0  0  0  0  1  0  0  0  0  0  0
  162.1740  208.5120  150.2740 C   0  0  2  0  0  3  0  0  0  0  0  0
  161.5270  206.9990  152.2330 C   0  0  2  0  0  3  0  0  0  0  0  0
  162.3590  211.0960  149.0860 C   0  0  0  0  0  0  0  0  0  0  0  0
  161.6460  210.9840  150.4160 C   0  0  2  0  0  3  0  0  0  0  0  0
  162.7320  212.3510  148.6260 O   0  0  0  0  0  1  0  0  0  0  0  0
  160.8340  209.4110  152.2120 C   0  0  0  0  0  3  0  0  0  0  0  0
  160.6800  205.3750  149.1560 C   0  0  0  0  0  3  0  0  0  0  0  0
  161.1650  209.5600  150.7450 C   0  0  2  0  0  3  0  0  0  0  0  0
  162.3330  208.6240  148.7580 C   0  0  0  0  0  2  0  0  0  0  0  0
  161.7200  207.1590  150.7560 C   0  0  0  0  0  0  0  0  0  0  0  0
  160.9250  208.2410  152.8700 C   0  0  0  0  0  0  0  0  0  0  0  0
  162.7050  210.0230  148.3640 C   0  0  0  0  0  3  0  0  0  0  0  0
  161.4860  205.4070  145.4610 C   0  0  0  0  0  2  0  0  0  0  0  0
  161.0880  203.1020  146.4240 C   0  0  0  0  0  3  0  0  0  0  0  0
  161.1110  203.9520  145.1760 C   0  0  1  0  0  3  0  0  0  0  0  0
  160.8320  205.8800  146.7490 C   0  0  0  0  0  2  0  0  0  0  0  0
  161.3590  205.0120  147.8850 C   0  0  2  0  0  3  0  0  0  0  0  0
  159.8610  203.9050  144.5610 O   0  0  0  0  0  1  0  0  0  0  0  0
  161.1590  203.6010  147.6140 N   0  0  0  0  0  0  0  0  0  0  0  0
  160.5210  211.9700  150.4960 C   0  0  0  0  0  0  0  0  0  0  0  0
  160.1380  212.5820  149.4590 O   0  0  0  0  0  0  0  0  0  0  0  0
  159.9310  212.2280  151.7360 O   0  0  0  0  0  0  0  0  0  0  0  0
  159.0890  213.3520  151.9420 C   0  0  0  0  0  1  0  0  0  0  0  0
  160.4660  208.2010  154.3020 C   0  0  0  0  0  2  0  0  0  0  0  0
  160.8810  209.4520  155.0930 C   0  0  2  0  0  3  0  0  0  0  0  0
  162.2730  209.4770  155.2350 O   0  0  0  0  0  0  0  0  0  0  0  0
  162.5500  210.7120  155.8230 C   0  0  0  0  0  1  0  0  0  0  0  0
  160.1520  209.5380  156.4500 C   0  0  1  0  0  3  0  0  0  0  0  0
  159.1810  211.7950  157.2610 C   0  0  0  0  0  1  0  0  0  0  0  0
  158.9660  210.5310  156.4310 C   0  0  1  0  0  3  0  0  0  0  0  0
  158.5120  210.8360  155.1270 O   0  0  0  0  0  0  0  0  0  0  0  0
  157.1130  210.6900  155.0810 C   0  0  0  0  0  2  0  0  0  0  0  0
  155.5070  212.0930  156.4300 C   0  0  0  0  0  0  0  0  0  0  0  0
  156.4760  211.9610  155.3820 N   0  0  0  0  0  0  0  0  0  0  0  0
  155.1290  214.4070  155.8090 N   0  0  0  0  0  2  0  0  0  0  0  0
  156.5000  214.4080  155.3050 C   0  0  0  0  0  2  0  0  0  0  0  0
  156.7600  213.1150  154.5380 C   0  0  0  0  0  2  0  0  0  0  0  0
  155.1900  211.1050  157.1450 O   0  0  0  0  0  0  0  0  0  0  0  0
  154.9640  213.3510  156.6930 O   0  0  0  0  0  0  0  0  0  0  0  0
  159.6930  208.1370  156.8420 C   0  0  0  0  0  2  0  0  0  0  0  0
  160.7080  207.2190  156.5730 O   0  0  0  0  0  1  0  0  0  0  0  0
  1 12  2  0  0  0  0
  3 11  1  6  0  0  0
  3 10  1  0  0  0  0
  3 12  1  0  0  0  0
  4 13  1  0  0  0  0
  4  2  1  1  0  0  0
  5  6  1  0  0  0  0
  6 22  1  6  0  0  0
  6 10  1  0  0  0  0
  7  5  1  0  0  0  0
  8 13  2  0  0  0  0
  9  1  2  0  0  0  0
 10  8  1  1  0  0  0
 12  4  1  0  0  0  0
 13 26  1  0  0  0  0
 14 11  1  0  0  0  0
 14  5  2  0  0  0  0
 15 18  1  0  0  0  0
 16 21  2  0  0  0  0
 17 20  1  1  0  0  0
 17 15  1  0  0  0  0
 17 16  1  0  0  0  0
 18 19  1  0  0  0  0
 19  9  1  1  0  0  0
 21 19  1  0  0  0  0
 22 24  1  0  0  0  0
 23 22  2  0  0  0  0
 24 25  1  0  0  0  0
 27 26  1  1  0  0  0
 27 28  1  0  0  0  0
 27 30  1  0  0  0  0
 28 29  1  0  0  0  0
 30 42  1  6  0  0  0
 32 30  1  0  0  0  0
 32 31  1  6  0  0  0
 33 32  1  0  0  0  0
 34 33  1  0  0  0  0
 34 36  1  0  0  0  0
 35 41  1  0  0  0  0
 35 40  2  0  0  0  0
 36 35  1  0  0  0  0
 37 41  1  0  0  0  0
 38 37  1  0  0  0  0
 39 38  1  0  0  0  0
 39 36  1  0  0  0  0
 43 42  1  0  0  0  0
M  END
>  <MODEL>
6

>  <REMARK>
 VINA RESULT:      -4.0      1.281      2.062
  Name = 
  12 active torsions:
  status: ('A' for Active; 'I' for Inactive)
    1  A    between atoms: C_2  and  C_6
    2  A    between atoms: C_2  and  C_38
    3  A    between atoms: C_4  and  C_15
    4  A    between atoms: C_4  and  O_22
    5  A    between atoms: O_5  and  C_18
    6  A    between atoms: C_6  and  O_12
    7  A    between atoms: C_6  and  C_15
    8  A    between atoms: C_10  and  C_15
    9  A    between atoms: N_14  and  C_41
   10  A    between atoms: C_18  and  C_21
   11  A    between atoms: O_22  and  C_41
   12  A    between atoms: C_28  and  C_35
                            x       y       z     vdW  Elec       q    Type
                         _______ _______ _______ _____ _____    ______ ____

>  <TORSDO>
F 12

$$$$
=
 OpenBabel11062410203D

 43 46  0  0  1  0  0  0  0  0999 V2000
  161.1880  211.4790  149.3460 C   0  0  0  0  0  0  0  0  0  0  0  0
  163.4760  210.4620  151.6410 C   0  0  0  0  0  1  0  0  0  0  0  0
  160.7320  212.2430  151.6500 C   0  0  2  0  0  3  0  0  0  0  0  0
  162.0780  210.1270  151.1430 C   0  0  2  0  0  3  0  0  0  0  0  0
  158.8390  213.6620  153.2400 C   0  0  0  0  0  0  0  0  0  0  0  0
  159.0530  212.1950  153.5450 C   0  0  2  0  0  3  0  0  0  0  0  0
  158.1660  214.4490  154.1630 O   0  0  0  0  0  1  0  0  0  0  0  0
  160.2450  210.0820  152.8550 C   0  0  0  0  0  3  0  0  0  0  0  0
  160.9520  211.5770  148.0680 C   0  0  0  0  0  3  0  0  0  0  0  0
  159.6850  211.4050  152.3850 C   0  0  2  0  0  3  0  0  0  0  0  0
  160.0530  213.4830  151.0690 C   0  0  0  0  0  2  0  0  0  0  0  0
  161.4150  211.3690  150.6300 C   0  0  0  0  0  0  0  0  0  0  0  0
  161.2770  209.4660  152.2520 C   0  0  0  0  0  0  0  0  0  0  0  0
  159.3310  214.2460  152.1410 C   0  0  0  0  0  3  0  0  0  0  0  0
  159.8770  214.4520  145.8590 C   0  0  0  0  0  2  0  0  0  0  0  0
  162.2390  213.6440  145.4480 C   0  0  0  0  0  3  0  0  0  0  0  0
  161.0510  214.3840  144.8810 C   0  0  1  0  0  3  0  0  0  0  0  0
  159.7290  213.1340  146.6020 C   0  0  0  0  0  2  0  0  0  0  0  0
  161.0090  212.9000  147.3950 C   0  0  2  0  0  3  0  0  0  0  0  0
  160.6390  213.7640  143.7020 O   0  0  0  0  0  1  0  0  0  0  0  0
  162.1820  212.9600  146.5420 N   0  0  0  0  0  0  0  0  0  0  0  0
  157.7760  211.5590  154.0050 C   0  0  0  0  0  0  0  0  0  0  0  0
  156.7350  211.6410  153.2930 O   0  0  0  0  0  0  0  0  0  0  0  0
  157.7470  210.9110  155.2410 O   0  0  0  0  0  0  0  0  0  0  0  0
  158.7900  211.0700  156.1910 C   0  0  0  0  0  1  0  0  0  0  0  0
  161.6720  208.1020  152.7510 C   0  0  0  0  0  2  0  0  0  0  0  0
  161.5760  207.0210  151.6630 C   0  0  2  0  0  3  0  0  0  0  0  0
  160.7930  207.4920  150.6030 O   0  0  0  0  0  0  0  0  0  0  0  0
  161.6900  207.6720  149.5480 C   0  0  0  0  0  1  0  0  0  0  0  0
  161.0540  205.6850  152.2280 C   0  0  1  0  0  3  0  0  0  0  0  0
  161.1680  203.1090  152.0160 C   0  0  0  0  0  1  0  0  0  0  0  0
  161.7660  204.4560  151.6150 C   0  0  1  0  0  3  0  0  0  0  0  0
  161.9420  204.5510  150.2160 O   0  0  0  0  0  0  0  0  0  0  0  0
  160.9060  203.8470  149.5720 C   0  0  0  0  0  2  0  0  0  0  0  0
  161.1250  202.5910  147.3950 C   0  0  0  0  0  0  0  0  0  0  0  0
  161.1510  203.8150  148.1400 N   0  0  0  0  0  0  0  0  0  0  0  0
  161.8160  203.7760  145.3950 N   0  0  0  0  0  2  0  0  0  0  0  0
  161.1750  204.9550  145.9730 C   0  0  0  0  0  2  0  0  0  0  0  0
  161.5240  205.0470  147.4560 C   0  0  0  0  0  2  0  0  0  0  0  0
  160.8640  201.4960  147.9610 O   0  0  0  0  0  0  0  0  0  0  0  0
  161.3290  202.6360  146.0150 O   0  0  0  0  0  0  0  0  0  0  0  0
  161.2060  205.7100  153.7460 C   0  0  0  0  0  2  0  0  0  0  0  0
  160.4040  206.7170  154.2810 O   0  0  0  0  0  1  0  0  0  0  0  0
  1 12  2  0  0  0  0
  3 11  1  6  0  0  0
  3 10  1  0  0  0  0
  4  2  1  1  0  0  0
  4 13  1  0  0  0  0
  5  6  1  0  0  0  0
  5  7  1  0  0  0  0
  6 22  1  6  0  0  0
  9  1  2  0  0  0  0
 10  8  1  1  0  0  0
 10  6  1  0  0  0  0
 11 14  1  0  0  0  0
 12  4  1  0  0  0  0
 12  3  1  0  0  0  0
 13 26  1  0  0  0  0
 13  8  2  0  0  0  0
 14  5  2  0  0  0  0
 15 18  1  0  0  0  0
 16 21  2  0  0  0  0
 17 20  1  6  0  0  0
 17 16  1  0  0  0  0
 17 15  1  0  0  0  0
 18 19  1  0  0  0  0
 19  9  1  6  0  0  0
 21 19  1  0  0  0  0
 22 24  1  0  0  0  0
 23 22  2  0  0  0  0
 24 25  1  0  0  0  0
 27 30  1  0  0  0  0
 27 26  1  1  0  0  0
 28 27  1  0  0  0  0
 29 28  1  0  0  0  0
 30 42  1  1  0  0  0
 32 31  1  6  0  0  0
 32 30  1  0  0  0  0
 33 32  1  0  0  0  0
 34 33  1  0  0  0  0
 35 40  2  0  0  0  0
 35 36  1  0  0  0  0
 36 34  1  0  0  0  0
 37 38  1  0  0  0  0
 37 41  1  0  0  0  0
 38 39  1  0  0  0  0
 39 36  1  0  0  0  0
 41 35  1  0  0  0  0
 42 43  1  0  0  0  0
M  END
>  <MODEL>
7

>  <REMARK>
 VINA RESULT:      -3.9      3.313      8.240
  Name = 
  12 active torsions:
  status: ('A' for Active; 'I' for Inactive)
    1  A    between atoms: C_2  and  C_6
    2  A    between atoms: C_2  and  C_38
    3  A    between atoms: C_4  and  C_15
    4  A    between atoms: C_4  and  O_22
    5  A    between atoms: O_5  and  C_18
    6  A    between atoms: C_6  and  O_12
    7  A    between atoms: C_6  and  C_15
    8  A    between atoms: C_10  and  C_15
    9  A    between atoms: N_14  and  C_41
   10  A    between atoms: C_18  and  C_21
   11  A    between atoms: O_22  and  C_41
   12  A    between atoms: C_28  and  C_35
                            x       y       z     vdW  Elec       q    Type
                         _______ _______ _______ _____ _____    ______ ____

>  <TORSDO>
F 12

$$$$
=
 OpenBabel11062410203D

 43 46  0  0  1  0  0  0  0  0999 V2000
  160.9880  211.5500  151.1580 C   0  0  0  0  0  0  0  0  0  0  0  0
  162.9510  210.7550  153.8140 C   0  0  0  0  0  1  0  0  0  0  0  0
  160.1150  212.3160  153.3370 C   0  0  2  0  0  3  0  0  0  0  0  0
  161.6790  210.3040  153.1130 C   0  0  2  0  0  3  0  0  0  0  0  0
  157.8930  213.6120  154.5660 C   0  0  0  0  0  0  0  0  0  0  0  0
  158.1640  212.1720  154.9450 C   0  0  2  0  0  3  0  0  0  0  0  0
  157.0260  214.3610  155.3480 O   0  0  0  0  0  1  0  0  0  0  0  0
  159.6040  210.1460  154.5150 C   0  0  0  0  0  3  0  0  0  0  0  0
  160.9510  211.6060  149.8570 C   0  0  0  0  0  3  0  0  0  0  0  0
  159.0300  211.4130  153.9240 C   0  0  2  0  0  3  0  0  0  0  0  0
  159.4480  213.4900  152.6200 C   0  0  0  0  0  2  0  0  0  0  0  0
  161.0150  211.4800  152.4650 C   0  0  0  0  0  0  0  0  0  0  0  0
  160.7620  209.6020  154.1010 C   0  0  0  0  0  0  0  0  0  0  0  0
  158.5100  214.2120  153.5410 C   0  0  0  0  0  3  0  0  0  0  0  0
  159.9380  214.4130  147.5340 C   0  0  0  0  0  2  0  0  0  0  0  0
  162.3360  213.6520  147.2700 C   0  0  0  0  0  3  0  0  0  0  0  0
  161.1650  214.3540  146.6240 C   0  0  1  0  0  3  0  0  0  0  0  0
  159.7780  213.1070  148.2940 C   0  0  0  0  0  2  0  0  0  0  0  0
  161.0160  212.9170  149.1610 C   0  0  2  0  0  3  0  0  0  0  0  0
  160.8340  213.7020  145.4360 O   0  0  0  0  0  1  0  0  0  0  0  0
  162.2340  212.9880  148.3740 N   0  0  0  0  0  0  0  0  0  0  0  0
  156.8820  211.4470  155.2170 C   0  0  0  0  0  0  0  0  0  0  0  0
  156.1630  211.0480  154.2570 O   0  0  0  0  0  0  0  0  0  0  0  0
  156.4780  211.2530  156.5400 O   0  0  0  0  0  0  0  0  0  0  0  0
  155.1110  211.3010  156.9170 C   0  0  0  0  0  1  0  0  0  0  0  0
  161.1730  208.2820  154.6970 C   0  0  0  0  0  2  0  0  0  0  0  0
  160.7180  207.0820  153.8510 C   0  0  2  0  0  3  0  0  0  0  0  0
  160.2390  206.0720  154.6930 O   0  0  0  0  0  0  0  0  0  0  0  0
  159.8930  206.7260  155.8760 C   0  0  0  0  0  1  0  0  0  0  0  0
  161.8390  206.5840  152.9160 C   0  0  1  0  0  3  0  0  0  0  0  0
  160.1920  204.6140  152.5970 C   0  0  0  0  0  1  0  0  0  0  0  0
  161.6230  205.1260  152.4470 C   0  0  1  0  0  3  0  0  0  0  0  0
  162.1330  204.8730  151.1530 O   0  0  0  0  0  0  0  0  0  0  0  0
  161.2430  204.0250  150.4650 C   0  0  0  0  0  2  0  0  0  0  0  0
  161.3420  203.2210  148.0760 C   0  0  0  0  0  0  0  0  0  0  0  0
  161.3250  204.2840  149.0370 N   0  0  0  0  0  0  0  0  0  0  0  0
  161.6730  204.8260  146.2860 N   0  0  0  0  0  2  0  0  0  0  0  0
  160.9820  205.7910  147.1380 C   0  0  0  0  0  2  0  0  0  0  0  0
  161.4870  205.6560  148.5720 C   0  0  0  0  0  2  0  0  0  0  0  0
  161.2630  202.0180  148.4410 O   0  0  0  0  0  0  0  0  0  0  0  0
  161.3810  203.5400  146.7170 O   0  0  0  0  0  0  0  0  0  0  0  0
  161.9360  207.5370  151.7280 C   0  0  0  0  0  2  0  0  0  0  0  0
  160.6660  207.7470  151.1900 O   0  0  0  0  0  1  0  0  0  0  0  0
  1 12  2  0  0  0  0
  3 11  1  6  0  0  0
  3 10  1  0  0  0  0
  4  2  1  1  0  0  0
  4 13  1  0  0  0  0
  5  6  1  0  0  0  0
  5  7  1  0  0  0  0
  6 22  1  6  0  0  0
  9  1  2  0  0  0  0
 10  8  1  1  0  0  0
 10  6  1  0  0  0  0
 11 14  1  0  0  0  0
 12  4  1  0  0  0  0
 12  3  1  0  0  0  0
 13  8  2  0  0  0  0
 13 26  1  0  0  0  0
 14  5  2  0  0  0  0
 15 18  1  0  0  0  0
 16 21  2  0  0  0  0
 17 20  1  6  0  0  0
 17 16  1  0  0  0  0
 17 15  1  0  0  0  0
 18 19  1  0  0  0  0
 19  9  1  6  0  0  0
 21 19  1  0  0  0  0
 22 24  1  0  0  0  0
 23 22  2  0  0  0  0
 24 25  1  0  0  0  0
 27 28  1  0  0  0  0
 27 26  1  1  0  0  0
 28 29  1  0  0  0  0
 30 42  1  6  0  0  0
 30 27  1  0  0  0  0
 32 31  1  6  0  0  0
 32 30  1  0  0  0  0
 33 32  1  0  0  0  0
 34 33  1  0  0  0  0
 35 40  2  0  0  0  0
 35 36  1  0  0  0  0
 36 34  1  0  0  0  0
 37 41  1  0  0  0  0
 37 38  1  0  0  0  0
 38 39  1  0  0  0  0
 39 36  1  0  0  0  0
 41 35  1  0  0  0  0
 43 42  1  0  0  0  0
M  END
>  <MODEL>
8

>  <REMARK>
 VINA RESULT:      -3.9      3.037      8.038
  Name = 
  12 active torsions:
  status: ('A' for Active; 'I' for Inactive)
    1  A    between atoms: C_2  and  C_6
    2  A    between atoms: C_2  and  C_38
    3  A    between atoms: C_4  and  C_15
    4  A    between atoms: C_4  and  O_22
    5  A    between atoms: O_5  and  C_18
    6  A    between atoms: C_6  and  O_12
    7  A    between atoms: C_6  and  C_15
    8  A    between atoms: C_10  and  C_15
    9  A    between atoms: N_14  and  C_41
   10  A    between atoms: C_18  and  C_21
   11  A    between atoms: O_22  and  C_41
   12  A    between atoms: C_28  and  C_35
                            x       y       z     vdW  Elec       q    Type
                         _______ _______ _______ _____ _____    ______ ____

>  <TORSDO>
F 12

$$$$
=
 OpenBabel11062410203D

 43 46  0  0  1  0  0  0  0  0999 V2000
  161.5850  208.5510  149.7240 C   0  0  0  0  0  0  0  0  0  0  0  0
  163.4500  209.9330  152.2050 C   0  0  0  0  0  1  0  0  0  0  0  0
  161.9000  210.9930  149.5250 C   0  0  2  0  0  3  0  0  0  0  0  0
  162.0010  209.7710  151.7710 C   0  0  2  0  0  3  0  0  0  0  0  0
  161.1640  213.2580  147.9590 C   0  0  0  0  0  0  0  0  0  0  0  0
  160.7090  213.2240  149.4020 C   0  0  2  0  0  3  0  0  0  0  0  0
  161.0900  214.4530  147.2590 O   0  0  0  0  0  1  0  0  0  0  0  0
  160.6470  211.8710  151.5300 C   0  0  0  0  0  3  0  0  0  0  0  0
  161.2300  207.4220  149.1800 C   0  0  0  0  0  3  0  0  0  0  0  0
  160.7100  211.8140  150.0210 C   0  0  2  0  0  3  0  0  0  0  0  0
  161.8030  210.8480  148.0060 C   0  0  0  0  0  2  0  0  0  0  0  0
  161.9280  209.6870  150.2770 C   0  0  0  0  0  0  0  0  0  0  0  0
  161.1630  210.9140  152.3220 C   0  0  0  0  0  0  0  0  0  0  0  0
  161.6980  212.1930  147.3500 C   0  0  0  0  0  3  0  0  0  0  0  0
  161.3110  206.0990  145.6390 C   0  0  0  0  0  2  0  0  0  0  0  0
  162.9640  204.9970  147.2040 C   0  0  0  0  0  3  0  0  0  0  0  0
  162.1830  204.8750  145.9170 C   0  0  1  0  0  3  0  0  0  0  0  0
  160.6750  206.6010  146.9250 C   0  0  0  0  0  2  0  0  0  0  0  0
  161.7970  207.0090  147.8710 C   0  0  2  0  0  3  0  0  0  0  0  0
  161.3830  203.7340  145.9680 O   0  0  0  0  0  1  0  0  0  0  0  0
  162.7450  205.9280  148.0720 N   0  0  0  0  0  0  0  0  0  0  0  0
  159.3700  213.8820  149.5500 C   0  0  0  0  0  0  0  0  0  0  0  0
  158.5910  213.9630  148.5590 O   0  0  0  0  0  0  0  0  0  0  0  0
  159.0170  214.4330  150.7830 O   0  0  0  0  0  0  0  0  0  0  0  0
  157.7550  214.1790  151.3800 C   0  0  0  0  0  1  0  0  0  0  0  0
  160.9430  211.0340  153.8060 C   0  0  0  0  0  2  0  0  0  0  0  0
  159.5860  210.4670  154.2520 C   0  0  2  0  0  3  0  0  0  0  0  0
  158.7830  211.5040  154.7390 O   0  0  0  0  0  0  0  0  0  0  0  0
  157.7470  211.6200  153.8100 C   0  0  0  0  0  1  0  0  0  0  0  0
  159.7530  209.3250  155.2760 C   0  0  1  0  0  3  0  0  0  0  0  0
  161.5960  207.7900  156.2450 C   0  0  0  0  0  1  0  0  0  0  0  0
  161.0030  208.4550  155.0050 C   0  0  1  0  0  3  0  0  0  0  0  0
  160.8230  207.5280  153.9530 O   0  0  0  0  0  0  0  0  0  0  0  0
  161.5190  206.3430  154.2600 C   0  0  0  0  0  2  0  0  0  0  0  0
  162.2110  205.5620  151.9630 C   0  0  0  0  0  0  0  0  0  0  0  0
  161.4180  205.4130  153.1470 N   0  0  0  0  0  0  0  0  0  0  0  0
  161.0550  203.6930  150.9360 N   0  0  0  0  0  2  0  0  0  0  0  0
  160.8310  203.1960  152.2910 C   0  0  0  0  0  2  0  0  0  0  0  0
  160.4190  204.3540  153.1950 C   0  0  0  0  0  2  0  0  0  0  0  0
  163.0460  206.5000  151.8570 O   0  0  0  0  0  0  0  0  0  0  0  0
  162.0950  204.6110  150.9480 O   0  0  0  0  0  0  0  0  0  0  0  0
  159.7950  209.9320  156.6740 C   0  0  0  0  0  2  0  0  0  0  0  0
  160.9920  210.6270  156.8480 O   0  0  0  0  0  1  0  0  0  0  0  0
  1 12  2  0  0  0  0
  3 11  1  6  0  0  0
  3 10  1  0  0  0  0
  3 12  1  0  0  0  0
  4  2  1  6  0  0  0
  4 13  1  0  0  0  0
  5  6  1  0  0  0  0
  6 22  1  6  0  0  0
  6 10  1  0  0  0  0
  7  5  1  0  0  0  0
  8 13  2  0  0  0  0
  9  1  2  0  0  0  0
 10  8  1  1  0  0  0
 12  4  1  0  0  0  0
 13 26  1  0  0  0  0
 14  5  2  0  0  0  0
 14 11  1  0  0  0  0
 15 17  1  0  0  0  0
 15 18  1  0  0  0  0
 16 21  2  0  0  0  0
 17 20  1  1  0  0  0
 17 16  1  0  0  0  0
 18 19  1  0  0  0  0
 19 21  1  0  0  0  0
 19  9  1  1  0  0  0
 22 24  1  0  0  0  0
 23 22  2  0  0  0  0
 24 25  1  0  0  0  0
 27 26  1  1  0  0  0
 27 28  1  0  0  0  0
 27 30  1  0  0  0  0
 29 28  1  0  0  0  0
 30 42  1  1  0  0  0
 32 30  1  0  0  0  0
 32 31  1  1  0  0  0
 33 34  1  0  0  0  0
 33 32  1  0  0  0  0
 35 36  1  0  0  0  0
 36 39  1  0  0  0  0
 36 34  1  0  0  0  0
 37 41  1  0  0  0  0
 37 38  1  0  0  0  0
 38 39  1  0  0  0  0
 40 35  2  0  0  0  0
 41 35  1  0  0  0  0
 42 43  1  0  0  0  0
M  END
>  <MODEL>
9

>  <REMARK>
 VINA RESULT:      -3.6      2.828      4.995
  Name = 
  12 active torsions:
  status: ('A' for Active; 'I' for Inactive)
    1  A    between atoms: C_2  and  C_6
    2  A    between atoms: C_2  and  C_38
    3  A    between atoms: C_4  and  C_15
    4  A    between atoms: C_4  and  O_22
    5  A    between atoms: O_5  and  C_18
    6  A    between atoms: C_6  and  O_12
    7  A    between atoms: C_6  and  C_15
    8  A    between atoms: C_10  and  C_15
    9  A    between atoms: N_14  and  C_41
   10  A    between atoms: C_18  and  C_21
   11  A    between atoms: O_22  and  C_41
   12  A    between atoms: C_28  and  C_35
                            x       y       z     vdW  Elec       q    Type
                         _______ _______ _______ _____ _____    ______ ____

>  <TORSDO>
F 12

$$$$
