=
 OpenBabel11062409143D

 37 39  0  0  1  0  0  0  0  0999 V2000
  160.7380  211.6010  154.7830 C   0  0  0  0  0  2  0  0  0  0  0  0
  160.4920  210.8420  151.6810 O   0  0  0  0  0  0  0  0  0  0  0  0
  157.3680  212.4400  156.6120 C   0  0  0  0  0  2  0  0  0  0  0  0
  160.1430  210.4140  154.0070 C   0  0  2  0  0  3  0  0  0  0  0  0
  158.3630  211.6620  155.7360 C   0  0  1  0  0  3  0  0  0  0  0  0
  162.3230  210.3390  152.9650 O   0  0  0  0  0  1  0  0  0  0  0  0
  159.8760  213.6850  155.7850 C   0  0  0  0  0  1  0  0  0  0  0  0
  157.9000  211.6550  154.2650 C   0  0  2  0  0  3  0  0  0  0  0  0
  155.7350  212.0810  154.7630 C   0  0  0  0  0  2  0  0  0  0  0  0
  159.8220  212.1620  155.8880 C   0  0  2  0  0  0  0  0  0  0  0  0
  156.5940  211.1420  154.1660 O   0  0  0  0  0  0  0  0  0  0  0  0
  160.9650  210.0690  152.7650 C   0  0  2  0  0  0  0  0  0  0  0  0
  158.8300  210.8010  153.3870 C   0  0  1  0  0  3  0  0  0  0  0  0
  155.9210  212.0740  156.2810 C   0  0  1  0  0  3  0  0  0  0  0  0
  159.2280  211.3770  152.0280 C   0  0  1  0  0  3  0  0  0  0  0  0
  154.3040  210.9210  157.2600 C   0  0  0  0  0  1  0  0  0  0  0  0
  155.6160  210.8110  156.7980 O   0  0  0  0  0  0  0  0  0  0  0  0
  161.4640  210.6910  157.1790 C   0  0  0  0  0  1  0  0  0  0  0  0
  160.3370  211.7130  157.2600 C   0  0  0  0  0  2  0  0  0  0  0  0
  159.2760  212.9230  151.9860 C   0  0  2  0  0  3  0  0  0  0  0  0
  157.2820  214.2090  152.3620 O   0  0  0  0  0  1  0  0  0  0  0  0
  157.5060  213.3070  150.2680 O   0  0  0  0  0  0  0  0  0  0  0  0
  157.9720  213.5280  151.5570 C   0  0  0  0  0  0  0  0  0  0  0  0
  160.4340  213.4800  151.1510 C   0  0  0  0  0  2  0  0  0  0  0  0
  160.1660  213.3950  149.6530 C   0  0  0  0  0  2  0  0  0  0  0  0
  161.3380  212.7430  148.9420 C   0  0  0  0  0  2  0  0  0  0  0  0
  160.1980  212.8160  146.7470 C   0  0  0  0  0  1  0  0  0  0  0  0
  161.4320  213.2430  147.5130 C   0  0  0  0  0  2  0  0  0  0  0  0
  160.8090  208.5880  152.3980 C   0  0  0  0  0  2  0  0  0  0  0  0
  161.2520  208.2790  150.9730 C   0  0  0  0  0  2  0  0  0  0  0  0
  161.9920  206.3660  152.1860 O   0  0  0  0  0  1  0  0  0  0  0  0
  161.7930  206.8600  150.8980 C   0  0  1  0  0  3  0  0  0  0  0  0
  160.8200  205.9590  150.1570 C   0  0  0  0  0  2  0  0  0  0  0  0
  160.9410  204.5090  150.6290 C   0  0  0  0  0  2  0  0  0  0  0  0
  160.8180  203.4800  149.5370 C   0  0  0  0  0  3  0  0  0  0  0  0
  161.3220  203.6190  148.3390 C   0  0  0  0  0  0  0  0  0  0  0  0
  161.7960  203.7520  147.2040 O   0  0  0  0  0  0  0  0  0  0  0  0
  1 10  1  0  0  0  0
  2 15  1  0  0  0  0
  2 12  1  0  0  0  0
  4  1  1  6  0  0  0
  5 10  1  0  0  0  0
  5  3  1  1  0  0  0
  8 11  1  1  0  0  0
  8  5  1  0  0  0  0
  9 14  1  0  0  0  0
 10  7  1  6  0  0  0
 10 19  1  0  0  0  0
 11  9  1  0  0  0  0
 12  6  1  1  0  0  0
 12  4  1  0  0  0  0
 13  4  1  0  0  0  0
 13  8  1  0  0  0  0
 14  3  1  0  0  0  0
 14 17  1  0  0  0  0
 15 13  1  0  0  0  0
 17 16  1  0  0  0  0
 18 19  1  0  0  0  0
 20 15  1  0  0  0  0
 22 23  2  0  0  0  0
 23 20  1  0  0  0  0
 23 21  1  0  0  0  0
 24 20  1  0  0  0  0
 25 24  1  0  0  0  0
 26 25  1  0  0  0  0
 27 28  1  0  0  0  0
 28 26  1  0  0  0  0
 29 12  1  0  0  0  0
 30 29  1  0  0  0  0
 32 30  1  0  0  0  0
 32 31  1  0  0  0  0
 33 34  1  0  0  0  0
 33 32  1  0  0  0  0
 35 34  1  0  0  0  0
 36 35  2  0  0  0  0
 37 36  2  0  0  0  0
M  END
>  <MODEL>
1

>  <REMARK>
 VINA RESULT:      -5.1      0.000      0.000
  Name = 
  14 active torsions:
  status: ('A' for Active; 'I' for Inactive)
    1  A    between atoms: C_1  and  C_23
    2  A    between atoms: C_1  and  C_33
    3  A    between atoms: C_1  and  C_36
    4  A    between atoms: C_6  and  C_8
    5  A    between atoms: C_6  and  C_31
    6  A    between atoms: C_8  and  C_19
    7  A    between atoms: C_15  and  C_19
    8  A    between atoms: C_17  and  C_26
    9  A    between atoms: C_17  and  C_33
   10  A    between atoms: C_24  and  C_28
   11  A    between atoms: C_26  and  C_34
   12  A    between atoms: C_27  and  C_37
   13  A    between atoms: O_30  and  C_32
   14  A    between atoms: C_31  and  C_37
                            x       y       z     vdW  Elec       q    Type
                         _______ _______ _______ _____ _____    ______ ____

>  <TORSDO>
F 14

$$$$
=
 OpenBabel11062409143D

 37 39  0  0  1  0  0  0  0  0999 V2000
  160.5020  211.2450  140.8420 C   0  0  0  0  0  2  0  0  0  0  0  0
  158.5060  213.6970  141.3570 O   0  0  0  0  0  0  0  0  0  0  0  0
  163.0100  211.6800  137.8540 C   0  0  0  0  0  2  0  0  0  0  0  0
  160.6750  212.6930  141.3340 C   0  0  2  0  0  3  0  0  0  0  0  0
  162.2420  212.0340  139.1380 C   0  0  1  0  0  3  0  0  0  0  0  0
  158.9570  212.0830  142.9210 O   0  0  0  0  0  1  0  0  0  0  0  0
  160.7320  210.0580  138.6920 C   0  0  0  0  0  1  0  0  0  0  0  0
  161.2860  213.2180  138.8870 C   0  0  2  0  0  3  0  0  0  0  0  0
  162.4150  213.9720  137.0780 C   0  0  0  0  0  2  0  0  0  0  0  0
  161.5140  210.8170  139.7620 C   0  0  2  0  0  0  0  0  0  0  0  0
  161.9950  214.3190  138.3740 O   0  0  0  0  0  0  0  0  0  0  0  0
  159.5010  213.1500  142.1990 C   0  0  2  0  0  0  0  0  0  0  0  0
  160.5780  213.6520  140.1810 C   0  0  1  0  0  3  0  0  0  0  0  0
  163.5320  212.9300  137.1470 C   0  0  1  0  0  3  0  0  0  0  0  0
  159.0820  213.9540  140.0890 C   0  0  1  0  0  3  0  0  0  0  0  0
  165.1330  214.4530  137.0110 C   0  0  0  0  0  1  0  0  0  0  0  0
  164.6310  213.4490  137.8380 O   0  0  0  0  0  0  0  0  0  0  0  0
  162.3410  208.4220  140.0930 C   0  0  0  0  0  1  0  0  0  0  0  0
  162.5730  209.9000  140.3840 C   0  0  0  0  0  2  0  0  0  0  0  0
  158.3400  213.1490  138.9960 C   0  0  2  0  0  3  0  0  0  0  0  0
  158.7770  214.4530  137.0260 O   0  0  0  0  0  0  0  0  0  0  0  0
  156.5820  214.3260  137.6700 O   0  0  0  0  0  1  0  0  0  0  0  0
  157.9230  214.0030  137.8360 C   0  0  0  0  0  0  0  0  0  0  0  0
  157.1540  212.3380  139.5280 C   0  0  0  0  0  2  0  0  0  0  0  0
  156.9840  211.0090  138.8000 C   0  0  0  0  0  2  0  0  0  0  0  0
  155.7560  210.2790  139.3120 C   0  0  0  0  0  2  0  0  0  0  0  0
  153.6110  209.7290  138.2070 C   0  0  0  0  0  1  0  0  0  0  0  0
  155.1060  209.4910  138.1910 C   0  0  0  0  0  2  0  0  0  0  0  0
  159.9370  214.2380  143.1880 C   0  0  0  0  0  2  0  0  0  0  0  0
  159.0860  214.2690  144.4510 C   0  0  0  0  0  2  0  0  0  0  0  0
  159.2040  214.4130  146.8280 O   0  0  0  0  0  1  0  0  0  0  0  0
  159.9850  214.2930  145.6780 C   0  0  1  0  0  3  0  0  0  0  0  0
  160.8080  213.0180  145.7600 C   0  0  0  0  0  2  0  0  0  0  0  0
  160.6440  212.3410  147.1210 C   0  0  0  0  0  2  0  0  0  0  0  0
  161.6910  212.7100  148.1380 C   0  0  0  0  0  3  0  0  0  0  0  0
  162.9590  212.4120  148.0250 C   0  0  0  0  0  0  0  0  0  0  0  0
  164.1580  212.1260  147.9200 O   0  0  0  0  0  0  0  0  0  0  0  0
  2 12  1  0  0  0  0
  4  1  1  6  0  0  0
  4 12  1  0  0  0  0
  5  3  1  6  0  0  0
  5 10  1  0  0  0  0
  8 11  1  1  0  0  0
  8  5  1  0  0  0  0
  8 13  1  0  0  0  0
  9 14  1  0  0  0  0
  9 11  1  0  0  0  0
 10  7  1  6  0  0  0
 10 19  1  0  0  0  0
 10  1  1  0  0  0  0
 12  6  1  1  0  0  0
 12 29  1  0  0  0  0
 13  4  1  0  0  0  0
 14 17  1  0  0  0  0
 14  3  1  0  0  0  0
 15 13  1  0  0  0  0
 15  2  1  0  0  0  0
 16 17  1  0  0  0  0
 18 19  1  0  0  0  0
 20 24  1  0  0  0  0
 20 15  1  0  0  0  0
 21 23  2  0  0  0  0
 22 23  1  0  0  0  0
 23 20  1  0  0  0  0
 25 26  1  0  0  0  0
 25 24  1  0  0  0  0
 28 27  1  0  0  0  0
 28 26  1  0  0  0  0
 29 30  1  0  0  0  0
 30 32  1  0  0  0  0
 32 33  1  0  0  0  0
 32 31  1  0  0  0  0
 33 34  1  0  0  0  0
 34 35  1  0  0  0  0
 36 35  2  0  0  0  0
 37 36  2  0  0  0  0
M  END
>  <MODEL>
2

>  <REMARK>
 VINA RESULT:      -3.5      8.188     14.152
  Name = 
  14 active torsions:
  status: ('A' for Active; 'I' for Inactive)
    1  A    between atoms: C_1  and  C_23
    2  A    between atoms: C_1  and  C_33
    3  A    between atoms: C_1  and  C_36
    4  A    between atoms: C_6  and  C_8
    5  A    between atoms: C_6  and  C_31
    6  A    between atoms: C_8  and  C_19
    7  A    between atoms: C_15  and  C_19
    8  A    between atoms: C_17  and  C_26
    9  A    between atoms: C_17  and  C_33
   10  A    between atoms: C_24  and  C_28
   11  A    between atoms: C_26  and  C_34
   12  A    between atoms: C_27  and  C_37
   13  A    between atoms: O_30  and  C_32
   14  A    between atoms: C_31  and  C_37
                            x       y       z     vdW  Elec       q    Type
                         _______ _______ _______ _____ _____    ______ ____

>  <TORSDO>
F 14

$$$$
=
 OpenBabel11062409143D

 37 39  0  0  1  0  0  0  0  0999 V2000
  161.8720  208.5510  154.4340 C   0  0  0  0  0  2  0  0  0  0  0  0
  161.5990  208.1910  151.2630 O   0  0  0  0  0  0  0  0  0  0  0  0
  159.2340  210.9190  156.1210 C   0  0  0  0  0  2  0  0  0  0  0  0
  160.8380  207.8870  153.5080 C   0  0  2  0  0  3  0  0  0  0  0  0
  159.7770  209.7840  155.2370 C   0  0  1  0  0  3  0  0  0  0  0  0
  162.7680  206.7460  152.6030 O   0  0  0  0  0  1  0  0  0  0  0  0
  162.0960  210.7240  155.5800 C   0  0  0  0  0  1  0  0  0  0  0  0
  159.5330  210.0950  153.7460 C   0  0  2  0  0  3  0  0  0  0  0  0
  157.8520  211.5540  154.1470 C   0  0  0  0  0  2  0  0  0  0  0  0
  161.2610  209.4470  155.5280 C   0  0  2  0  0  0  0  0  0  0  0  0
  158.1670  210.3390  153.5150 O   0  0  0  0  0  0  0  0  0  0  0  0
  161.4930  207.2300  152.2930 C   0  0  2  0  0  0  0  0  0  0  0  0
  159.9810  208.9290  152.8480 C   0  0  1  0  0  3  0  0  0  0  0  0
  157.8480  211.3730  155.6650 C   0  0  1  0  0  3  0  0  0  0  0  0
  160.7580  209.2860  151.5810 C   0  0  1  0  0  3  0  0  0  0  0  0
  155.6620  211.0390  155.7720 C   0  0  0  0  0  1  0  0  0  0  0  0
  156.8870  210.4270  156.0340 O   0  0  0  0  0  0  0  0  0  0  0  0
  160.5030  207.4440  156.9210 C   0  0  0  0  0  1  0  0  0  0  0  0
  161.3260  208.7250  156.8790 C   0  0  0  0  0  2  0  0  0  0  0  0
  161.5930  210.5820  151.6940 C   0  0  2  0  0  3  0  0  0  0  0  0
  160.1580  212.2580  150.7430 O   0  0  0  0  0  0  0  0  0  0  0  0
  160.6160  212.4890  152.9760 O   0  0  0  0  0  1  0  0  0  0  0  0
  160.7400  211.8130  151.7690 C   0  0  0  0  0  0  0  0  0  0  0  0
  162.6590  210.7260  150.6020 C   0  0  0  0  0  2  0  0  0  0  0  0
  162.0550  210.7920  149.2040 C   0  0  0  0  0  2  0  0  0  0  0  0
  162.7790  211.8280  148.3640 C   0  0  0  0  0  2  0  0  0  0  0  0
  160.6880  212.2360  147.1050 C   0  0  0  0  0  1  0  0  0  0  0  0
  161.8090  212.8910  147.8860 C   0  0  0  0  0  2  0  0  0  0  0  0
  160.6410  206.0660  151.7720 C   0  0  0  0  0  2  0  0  0  0  0  0
  160.6270  205.9740  150.2510 C   0  0  0  0  0  2  0  0  0  0  0  0
  160.4950  203.5980  150.3830 O   0  0  0  0  0  1  0  0  0  0  0  0
  161.2170  204.6440  149.8090 C   0  0  1  0  0  3  0  0  0  0  0  0
  161.1710  204.5180  148.2960 C   0  0  0  0  0  2  0  0  0  0  0  0
  161.3140  203.0600  147.8580 C   0  0  0  0  0  2  0  0  0  0  0  0
  161.4510  202.8590  146.3730 C   0  0  0  0  0  3  0  0  0  0  0  0
  160.6590  202.1010  145.6600 C   0  0  0  0  0  0  0  0  0  0  0  0
  159.9130  201.3810  144.9860 O   0  0  0  0  0  0  0  0  0  0  0  0
  1 10  1  0  0  0  0
  2 15  1  0  0  0  0
  2 12  1  0  0  0  0
  4  1  1  1  0  0  0
  5 10  1  0  0  0  0
  5  3  1  1  0  0  0
  8 11  1  1  0  0  0
  8  5  1  0  0  0  0
  9 14  1  0  0  0  0
 10  7  1  1  0  0  0
 10 19  1  0  0  0  0
 11  9  1  0  0  0  0
 12  6  1  1  0  0  0
 12  4  1  0  0  0  0
 13  4  1  0  0  0  0
 13  8  1  0  0  0  0
 14 17  1  0  0  0  0
 14  3  1  0  0  0  0
 15 20  1  0  0  0  0
 15 13  1  0  0  0  0
 16 17  1  0  0  0  0
 19 18  1  0  0  0  0
 20 23  1  0  0  0  0
 21 23  2  0  0  0  0
 23 22  1  0  0  0  0
 24 20  1  0  0  0  0
 25 24  1  0  0  0  0
 26 25  1  0  0  0  0
 27 28  1  0  0  0  0
 28 26  1  0  0  0  0
 29 12  1  0  0  0  0
 30 29  1  0  0  0  0
 32 30  1  0  0  0  0
 32 31  1  0  0  0  0
 33 32  1  0  0  0  0
 34 33  1  0  0  0  0
 35 34  1  0  0  0  0
 36 35  2  0  0  0  0
 37 36  2  0  0  0  0
M  END
>  <MODEL>
3

>  <REMARK>
 VINA RESULT:      -3.4      1.836      2.878
  Name = 
  14 active torsions:
  status: ('A' for Active; 'I' for Inactive)
    1  A    between atoms: C_1  and  C_23
    2  A    between atoms: C_1  and  C_33
    3  A    between atoms: C_1  and  C_36
    4  A    between atoms: C_6  and  C_8
    5  A    between atoms: C_6  and  C_31
    6  A    between atoms: C_8  and  C_19
    7  A    between atoms: C_15  and  C_19
    8  A    between atoms: C_17  and  C_26
    9  A    between atoms: C_17  and  C_33
   10  A    between atoms: C_24  and  C_28
   11  A    between atoms: C_26  and  C_34
   12  A    between atoms: C_27  and  C_37
   13  A    between atoms: O_30  and  C_32
   14  A    between atoms: C_31  and  C_37
                            x       y       z     vdW  Elec       q    Type
                         _______ _______ _______ _____ _____    ______ ____

>  <TORSDO>
F 14

$$$$
=
 OpenBabel11062409143D

 37 39  0  0  1  0  0  0  0  0999 V2000
  161.1370  210.3270  154.7690 C   0  0  0  0  0  2  0  0  0  0  0  0
  160.8400  209.9290  151.6040 O   0  0  0  0  0  0  0  0  0  0  0  0
  158.0510  211.9310  156.5890 C   0  0  0  0  0  2  0  0  0  0  0  0
  160.2710  209.4270  153.8710 C   0  0  2  0  0  3  0  0  0  0  0  0
  158.8310  210.9780  155.6680 C   0  0  1  0  0  3  0  0  0  0  0  0
  162.3910  208.8230  152.8780 O   0  0  0  0  0  1  0  0  0  0  0  0
  160.8440  212.4790  155.9410 C   0  0  0  0  0  1  0  0  0  0  0  0
  158.4560  211.2250  154.1920 C   0  0  2  0  0  3  0  0  0  0  0  0
  156.4760  212.2040  154.6780 C   0  0  0  0  0  2  0  0  0  0  0  0
  160.3620  211.0310  155.8990 C   0  0  2  0  0  0  0  0  0  0  0  0
  157.0650  211.1140  154.0150 O   0  0  0  0  0  0  0  0  0  0  0  0
  161.0230  208.9670  152.6220 C   0  0  2  0  0  0  0  0  0  0  0  0
  159.1510  210.2190  153.2590 C   0  0  1  0  0  3  0  0  0  0  0  0
  156.5780  212.0180  156.1920 C   0  0  1  0  0  3  0  0  0  0  0  0
  159.7600  210.7700  151.9700 C   0  0  1  0  0  3  0  0  0  0  0  0
  154.5700  211.2360  156.6990 C   0  0  0  0  0  1  0  0  0  0  0  0
  155.9060  210.8560  156.5810 O   0  0  0  0  0  0  0  0  0  0  0  0
  160.2840  208.8660  157.2540 C   0  0  0  0  0  1  0  0  0  0  0  0
  160.6620  210.3410  157.2350 C   0  0  0  0  0  2  0  0  0  0  0  0
  160.2410  212.2370  152.0740 C   0  0  2  0  0  3  0  0  0  0  0  0
  159.1870  214.3670  152.4230 O   0  0  0  0  0  1  0  0  0  0  0  0
  157.9950  212.8570  151.1790 O   0  0  0  0  0  0  0  0  0  0  0  0
  159.1240  213.2230  151.8990 C   0  0  0  0  0  0  0  0  0  0  0  0
  161.4100  212.5690  151.1400 C   0  0  0  0  0  2  0  0  0  0  0  0
  160.9480  212.9160  149.7290 C   0  0  0  0  0  2  0  0  0  0  0  0
  161.7370  212.1220  148.7050 C   0  0  0  0  0  2  0  0  0  0  0  0
  162.4270  214.4470  148.2160 C   0  0  0  0  0  1  0  0  0  0  0  0
  162.8130  212.9900  148.0800 C   0  0  0  0  0  2  0  0  0  0  0  0
  160.4770  207.6270  152.1140 C   0  0  0  0  0  2  0  0  0  0  0  0
  161.5050  206.5040  152.1760 C   0  0  0  0  0  2  0  0  0  0  0  0
  160.7320  204.4210  151.3140 O   0  0  0  0  0  1  0  0  0  0  0  0
  161.3670  205.6100  150.9550 C   0  0  1  0  0  3  0  0  0  0  0  0
  160.5570  206.3060  149.8740 C   0  0  0  0  0  2  0  0  0  0  0  0
  161.3950  206.5360  148.6160 C   0  0  0  0  0  2  0  0  0  0  0  0
  161.3450  205.4150  147.6130 C   0  0  0  0  0  3  0  0  0  0  0  0
  162.2220  205.2470  146.6580 C   0  0  0  0  0  0  0  0  0  0  0  0
  163.0490  205.0890  145.7520 O   0  0  0  0  0  0  0  0  0  0  0  0
  1 10  1  0  0  0  0
  2 15  1  0  0  0  0
  2 12  1  0  0  0  0
  4  1  1  1  0  0  0
  5 10  1  0  0  0  0
  5  3  1  1  0  0  0
  8 11  1  1  0  0  0
  8  5  1  0  0  0  0
  9 14  1  0  0  0  0
 10  7  1  1  0  0  0
 10 19  1  0  0  0  0
 11  9  1  0  0  0  0
 12  6  1  1  0  0  0
 12  4  1  0  0  0  0
 13  4  1  0  0  0  0
 13  8  1  0  0  0  0
 14 17  1  0  0  0  0
 14  3  1  0  0  0  0
 15 20  1  0  0  0  0
 15 13  1  0  0  0  0
 17 16  1  0  0  0  0
 19 18  1  0  0  0  0
 22 23  2  0  0  0  0
 23 20  1  0  0  0  0
 23 21  1  0  0  0  0
 24 20  1  0  0  0  0
 25 24  1  0  0  0  0
 26 25  1  0  0  0  0
 28 27  1  0  0  0  0
 28 26  1  0  0  0  0
 29 30  1  0  0  0  0
 29 12  1  0  0  0  0
 32 31  1  0  0  0  0
 32 30  1  0  0  0  0
 33 32  1  0  0  0  0
 34 33  1  0  0  0  0
 35 34  1  0  0  0  0
 36 35  2  0  0  0  0
 37 36  2  0  0  0  0
M  END
>  <MODEL>
4

>  <REMARK>
 VINA RESULT:      -3.2      1.331      1.541
  Name = 
  14 active torsions:
  status: ('A' for Active; 'I' for Inactive)
    1  A    between atoms: C_1  and  C_23
    2  A    between atoms: C_1  and  C_33
    3  A    between atoms: C_1  and  C_36
    4  A    between atoms: C_6  and  C_8
    5  A    between atoms: C_6  and  C_31
    6  A    between atoms: C_8  and  C_19
    7  A    between atoms: C_15  and  C_19
    8  A    between atoms: C_17  and  C_26
    9  A    between atoms: C_17  and  C_33
   10  A    between atoms: C_24  and  C_28
   11  A    between atoms: C_26  and  C_34
   12  A    between atoms: C_27  and  C_37
   13  A    between atoms: O_30  and  C_32
   14  A    between atoms: C_31  and  C_37
                            x       y       z     vdW  Elec       q    Type
                         _______ _______ _______ _____ _____    ______ ____

>  <TORSDO>
F 14

$$$$
=
 OpenBabel11062409143D

 37 39  0  0  1  0  0  0  0  0999 V2000
  161.0490  210.9210  152.5280 C   0  0  0  0  0  2  0  0  0  0  0  0
  159.5510  211.0040  155.3580 O   0  0  0  0  0  0  0  0  0  0  0  0
  162.1380  207.3650  151.2720 C   0  0  0  0  0  2  0  0  0  0  0  0
  159.6820  210.4360  153.0400 C   0  0  2  0  0  3  0  0  0  0  0  0
  161.2210  208.4620  151.8370 C   0  0  1  0  0  3  0  0  0  0  0  0
  159.4640  212.7100  153.8300 O   0  0  0  0  0  1  0  0  0  0  0  0
  163.2680  209.9090  152.1500 C   0  0  0  0  0  1  0  0  0  0  0  0
  160.8350  208.1480  153.2970 C   0  0  2  0  0  3  0  0  0  0  0  0
  161.2620  205.9340  153.1150 C   0  0  0  0  0  2  0  0  0  0  0  0
  161.8140  209.8850  151.6820 C   0  0  2  0  0  0  0  0  0  0  0  0
  160.2500  206.8720  153.3830 O   0  0  0  0  0  0  0  0  0  0  0  0
  159.0880  211.3860  154.0790 C   0  0  2  0  0  0  0  0  0  0  0  0
  159.8410  209.1820  153.8510 C   0  0  1  0  0  3  0  0  0  0  0  0
  161.6310  205.9680  151.6310 C   0  0  1  0  0  3  0  0  0  0  0  0
  160.0910  209.6980  155.2680 C   0  0  1  0  0  3  0  0  0  0  0  0
  160.8410  204.4290  150.2500 C   0  0  0  0  0  1  0  0  0  0  0  0
  160.5180  205.6460  150.8500 O   0  0  0  0  0  0  0  0  0  0  0  0
  161.9400  211.7620  149.9530 C   0  0  0  0  0  1  0  0  0  0  0  0
  161.7360  210.2720  150.2010 C   0  0  0  0  0  2  0  0  0  0  0  0
  161.5810  209.7090  155.6840 C   0  0  2  0  0  3  0  0  0  0  0  0
  163.0430  208.6370  157.2600 O   0  0  0  0  0  1  0  0  0  0  0  0
  160.8730  207.8990  157.2500 O   0  0  0  0  0  0  0  0  0  0  0  0
  161.8810  208.7310  156.7800 C   0  0  0  0  0  0  0  0  0  0  0  0
  162.1100  211.1030  156.0390 C   0  0  0  0  0  2  0  0  0  0  0  0
  163.3090  211.0500  156.9800 C   0  0  0  0  0  2  0  0  0  0  0  0
  164.5410  211.6140  156.2980 C   0  0  0  0  0  2  0  0  0  0  0  0
  166.6220  212.9160  156.6140 C   0  0  0  0  0  1  0  0  0  0  0  0
  165.3190  212.4920  157.2600 C   0  0  0  0  0  2  0  0  0  0  0  0
  157.5560  211.3060  154.0850 C   0  0  0  0  0  2  0  0  0  0  0  0
  156.9710  211.1970  155.4870 C   0  0  0  0  0  2  0  0  0  0  0  0
  155.3700  212.1690  156.9620 O   0  0  0  0  0  1  0  0  0  0  0  0
  155.8040  212.1600  155.6360 C   0  0  1  0  0  3  0  0  0  0  0  0
  156.2190  213.5650  155.2330 C   0  0  0  0  0  2  0  0  0  0  0  0
  155.0320  214.3560  154.6840 C   0  0  0  0  0  2  0  0  0  0  0  0
  154.7390  214.1210  153.2260 C   0  0  0  0  0  3  0  0  0  0  0  0
  155.6120  214.2890  152.2680 C   0  0  0  0  0  0  0  0  0  0  0  0
  156.4370  214.4520  151.3600 O   0  0  0  0  0  0  0  0  0  0  0  0
  3 14  1  0  0  0  0
  4  1  1  1  0  0  0
  4 13  1  0  0  0  0
  4 12  1  0  0  0  0
  5  3  1  1  0  0  0
  5  8  1  0  0  0  0
  8 11  1  6  0  0  0
  8 13  1  0  0  0  0
  9 11  1  0  0  0  0
 10  5  1  0  0  0  0
 10  7  1  1  0  0  0
 10  1  1  0  0  0  0
 12  6  1  6  0  0  0
 12 29  1  0  0  0  0
 12  2  1  0  0  0  0
 13 15  1  0  0  0  0
 14  9  1  0  0  0  0
 15  2  1  0  0  0  0
 15 20  1  0  0  0  0
 16 17  1  0  0  0  0
 17 14  1  0  0  0  0
 18 19  1  0  0  0  0
 19 10  1  0  0  0  0
 20 24  1  0  0  0  0
 20 23  1  0  0  0  0
 23 22  2  0  0  0  0
 23 21  1  0  0  0  0
 24 25  1  0  0  0  0
 26 25  1  0  0  0  0
 26 28  1  0  0  0  0
 27 28  1  0  0  0  0
 29 30  1  0  0  0  0
 30 32  1  0  0  0  0
 32 31  1  0  0  0  0
 33 32  1  0  0  0  0
 34 33  1  0  0  0  0
 35 34  1  0  0  0  0
 36 35  2  0  0  0  0
 37 36  2  0  0  0  0
M  END
>  <MODEL>
5

>  <REMARK>
 VINA RESULT:      -3.1      2.386      8.161
  Name = 
  14 active torsions:
  status: ('A' for Active; 'I' for Inactive)
    1  A    between atoms: C_1  and  C_23
    2  A    between atoms: C_1  and  C_33
    3  A    between atoms: C_1  and  C_36
    4  A    between atoms: C_6  and  C_8
    5  A    between atoms: C_6  and  C_31
    6  A    between atoms: C_8  and  C_19
    7  A    between atoms: C_15  and  C_19
    8  A    between atoms: C_17  and  C_26
    9  A    between atoms: C_17  and  C_33
   10  A    between atoms: C_24  and  C_28
   11  A    between atoms: C_26  and  C_34
   12  A    between atoms: C_27  and  C_37
   13  A    between atoms: O_30  and  C_32
   14  A    between atoms: C_31  and  C_37
                            x       y       z     vdW  Elec       q    Type
                         _______ _______ _______ _____ _____    ______ ____

>  <TORSDO>
F 14

$$$$
=
 OpenBabel11062409143D

 37 39  0  0  1  0  0  0  0  0999 V2000
  159.0880  209.6920  154.5430 C   0  0  0  0  0  2  0  0  0  0  0  0
  162.0270  208.9580  153.5000 O   0  0  0  0  0  0  0  0  0  0  0  0
  157.9080  213.3760  153.8800 C   0  0  0  0  0  2  0  0  0  0  0  0
  159.7340  209.5380  153.1550 C   0  0  2  0  0  3  0  0  0  0  0  0
  158.4970  211.9880  153.5790 C   0  0  1  0  0  3  0  0  0  0  0  0
  160.4360  207.3880  154.0080 O   0  0  0  0  0  1  0  0  0  0  0  0
  158.5720  211.5610  156.0680 C   0  0  0  0  0  1  0  0  0  0  0  0
  159.9970  212.0990  153.2370 C   0  0  2  0  0  3  0  0  0  0  0  0
  159.8800  214.2820  152.6550 C   0  0  0  0  0  2  0  0  0  0  0  0
  158.2290  210.9600  154.7070 C   0  0  2  0  0  0  0  0  0  0  0  0
  160.1900  212.9990  152.1730 O   0  0  0  0  0  0  0  0  0  0  0  0
  160.7750  208.4200  153.1260 C   0  0  2  0  0  0  0  0  0  0  0  0
  160.5850  210.7350  152.8380 C   0  0  1  0  0  3  0  0  0  0  0  0
  158.3710  214.4170  152.8610 C   0  0  1  0  0  3  0  0  0  0  0  0
  161.9510  210.3700  153.4190 C   0  0  1  0  0  3  0  0  0  0  0  0
  156.3470  214.3470  151.9650 C   0  0  0  0  0  1  0  0  0  0  0  0
  157.7010  214.2330  151.6480 O   0  0  0  0  0  0  0  0  0  0  0  0
  156.0660  210.6270  156.0260 C   0  0  0  0  0  1  0  0  0  0  0  0
  156.7430  210.5840  154.6620 C   0  0  0  0  0  2  0  0  0  0  0  0
  162.2400  210.9990  154.8020 C   0  0  2  0  0  3  0  0  0  0  0  0
  164.5560  210.9400  154.1660 O   0  0  0  0  0  0  0  0  0  0  0  0
  164.1370  211.4520  156.3600 O   0  0  0  0  0  1  0  0  0  0  0  0
  163.7070  211.1360  155.0770 C   0  0  0  0  0  0  0  0  0  0  0  0
  161.5340  210.2860  155.9610 C   0  0  0  0  0  2  0  0  0  0  0  0
  162.4950  209.4580  156.8080 C   0  0  0  0  0  2  0  0  0  0  0  0
  161.9220  208.0750  157.0570 C   0  0  0  0  0  2  0  0  0  0  0  0
  159.8270  206.7650  157.1880 C   0  0  0  0  0  1  0  0  0  0  0  0
  160.4210  208.1560  157.2600 C   0  0  0  0  0  2  0  0  0  0  0  0
  160.9120  207.8330  151.7160 C   0  0  0  0  0  2  0  0  0  0  0  0
  162.0710  206.8510  151.5900 C   0  0  0  0  0  2  0  0  0  0  0  0
  160.6280  205.0550  152.2010 O   0  0  0  0  0  1  0  0  0  0  0  0
  161.5410  205.4720  151.2320 C   0  0  1  0  0  3  0  0  0  0  0  0
  160.8580  205.4990  149.8750 C   0  0  0  0  0  2  0  0  0  0  0  0
  161.1370  204.2170  149.0900 C   0  0  0  0  0  2  0  0  0  0  0  0
  161.8310  204.4250  147.7700 C   0  0  0  0  0  3  0  0  0  0  0  0
  161.5040  203.8070  146.6660 C   0  0  0  0  0  0  0  0  0  0  0  0
  161.1980  203.2200  145.6210 O   0  0  0  0  0  0  0  0  0  0  0  0
  1 10  1  0  0  0  0
  4  1  1  1  0  0  0
  5  3  1  1  0  0  0
  5 10  1  0  0  0  0
  8 11  1  6  0  0  0
  8  5  1  0  0  0  0
  9 14  1  0  0  0  0
 10  7  1  1  0  0  0
 11  9  1  0  0  0  0
 12  4  1  0  0  0  0
 12  2  1  0  0  0  0
 12  6  1  1  0  0  0
 13  4  1  0  0  0  0
 13  8  1  0  0  0  0
 13 15  1  0  0  0  0
 14  3  1  0  0  0  0
 15  2  1  0  0  0  0
 15 20  1  0  0  0  0
 17 16  1  0  0  0  0
 17 14  1  0  0  0  0
 19 10  1  0  0  0  0
 19 18  1  0  0  0  0
 20 23  1  0  0  0  0
 20 24  1  0  0  0  0
 21 23  2  0  0  0  0
 23 22  1  0  0  0  0
 24 25  1  0  0  0  0
 25 26  1  0  0  0  0
 26 28  1  0  0  0  0
 27 28  1  0  0  0  0
 29 12  1  0  0  0  0
 30 29  1  0  0  0  0
 32 30  1  0  0  0  0
 32 31  1  0  0  0  0
 33 32  1  0  0  0  0
 34 33  1  0  0  0  0
 35 34  1  0  0  0  0
 36 35  2  0  0  0  0
 37 36  2  0  0  0  0
M  END
>  <MODEL>
6

>  <REMARK>
 VINA RESULT:      -2.4      2.459      5.185
  Name = 
  14 active torsions:
  status: ('A' for Active; 'I' for Inactive)
    1  A    between atoms: C_1  and  C_23
    2  A    between atoms: C_1  and  C_33
    3  A    between atoms: C_1  and  C_36
    4  A    between atoms: C_6  and  C_8
    5  A    between atoms: C_6  and  C_31
    6  A    between atoms: C_8  and  C_19
    7  A    between atoms: C_15  and  C_19
    8  A    between atoms: C_17  and  C_26
    9  A    between atoms: C_17  and  C_33
   10  A    between atoms: C_24  and  C_28
   11  A    between atoms: C_26  and  C_34
   12  A    between atoms: C_27  and  C_37
   13  A    between atoms: O_30  and  C_32
   14  A    between atoms: C_31  and  C_37
                            x       y       z     vdW  Elec       q    Type
                         _______ _______ _______ _____ _____    ______ ____

>  <TORSDO>
F 14

$$$$
=
 OpenBabel11062409143D

 37 39  0  0  1  0  0  0  0  0999 V2000
  160.5620  210.8470  140.4550 C   0  0  0  0  0  2  0  0  0  0  0  0
  158.5160  213.0720  141.5150 O   0  0  0  0  0  0  0  0  0  0  0  0
  162.8930  211.9390  137.4910 C   0  0  0  0  0  2  0  0  0  0  0  0
  160.7130  212.1830  141.2030 C   0  0  2  0  0  3  0  0  0  0  0  0
  162.1820  212.0130  138.8530 C   0  0  1  0  0  3  0  0  0  0  0  0
  159.1010  211.2150  142.7230 O   0  0  0  0  0  1  0  0  0  0  0  0
  160.7180  210.0930  138.1110 C   0  0  0  0  0  1  0  0  0  0  0  0
  161.1760  213.1830  138.8750 C   0  0  2  0  0  3  0  0  0  0  0  0
  162.1830  214.3080  137.1910 C   0  0  0  0  0  2  0  0  0  0  0  0
  161.5290  210.6710  139.2680 C   0  0  2  0  0  0  0  0  0  0  0  0
  161.8210  214.3880  138.5470 O   0  0  0  0  0  0  0  0  0  0  0  0
  159.5710  212.4210  142.1910 C   0  0  2  0  0  0  0  0  0  0  0  0
  160.5230  213.3360  140.2580 C   0  0  1  0  0  3  0  0  0  0  0  0
  163.3360  213.3200  137.0110 C   0  0  1  0  0  3  0  0  0  0  0  0
  159.0150  213.5860  140.2930 C   0  0  1  0  0  3  0  0  0  0  0  0
  164.9570  212.5890  138.3290 C   0  0  0  0  0  1  0  0  0  0  0  0
  164.4520  213.7460  137.7370 O   0  0  0  0  0  0  0  0  0  0  0  0
  162.1570  208.2810  139.9160 C   0  0  0  0  0  1  0  0  0  0  0  0
  162.6490  209.7000  139.6570 C   0  0  0  0  0  2  0  0  0  0  0  0
  158.2440  212.9700  139.1020 C   0  0  2  0  0  3  0  0  0  0  0  0
  156.6240  214.4530  138.1290 O   0  0  0  0  0  1  0  0  0  0  0  0
  158.6860  214.4370  137.1320 O   0  0  0  0  0  0  0  0  0  0  0  0
  157.8000  214.0000  138.1080 C   0  0  0  0  0  0  0  0  0  0  0  0
  157.0690  212.0810  139.5240 C   0  0  0  0  0  2  0  0  0  0  0  0
  157.3110  210.6080  139.2120 C   0  0  0  0  0  2  0  0  0  0  0  0
  156.0750  209.9920  138.5820 C   0  0  0  0  0  2  0  0  0  0  0  0
  153.6930  210.4990  138.1440 C   0  0  0  0  0  1  0  0  0  0  0  0
  154.8220  210.6350  139.1440 C   0  0  0  0  0  2  0  0  0  0  0  0
  160.0230  213.3210  143.3470 C   0  0  0  0  0  2  0  0  0  0  0  0
  158.8580  213.9090  144.1340 C   0  0  0  0  0  2  0  0  0  0  0  0
  159.8910  214.0000  146.2800 O   0  0  0  0  0  1  0  0  0  0  0  0
  158.8750  213.3750  145.5570 C   0  0  1  0  0  3  0  0  0  0  0  0
  157.5410  213.6330  146.2380 C   0  0  0  0  0  2  0  0  0  0  0  0
  157.7310  214.3750  147.5620 C   0  0  0  0  0  2  0  0  0  0  0  0
  156.9180  213.8350  148.7080 C   0  0  0  0  0  3  0  0  0  0  0  0
  157.1610  214.0960  149.9650 C   0  0  0  0  0  0  0  0  0  0  0  0
  157.3940  214.3400  151.1560 O   0  0  0  0  0  0  0  0  0  0  0  0
  2 12  1  0  0  0  0
  4  1  1  6  0  0  0
  4 12  1  0  0  0  0
  5  3  1  6  0  0  0
  5  8  1  0  0  0  0
  5 10  1  0  0  0  0
  8 11  1  1  0  0  0
  8 13  1  0  0  0  0
  9 11  1  0  0  0  0
 10  7  1  6  0  0  0
 10 19  1  0  0  0  0
 10  1  1  0  0  0  0
 12  6  1  1  0  0  0
 12 29  1  0  0  0  0
 13 15  1  0  0  0  0
 13  4  1  0  0  0  0
 14  9  1  0  0  0  0
 14  3  1  0  0  0  0
 14 17  1  0  0  0  0
 15  2  1  0  0  0  0
 17 16  1  0  0  0  0
 19 18  1  0  0  0  0
 20 24  1  0  0  0  0
 20 15  1  0  0  0  0
 22 23  2  0  0  0  0
 23 21  1  0  0  0  0
 23 20  1  0  0  0  0
 25 24  1  0  0  0  0
 26 28  1  0  0  0  0
 26 25  1  0  0  0  0
 27 28  1  0  0  0  0
 29 30  1  0  0  0  0
 30 32  1  0  0  0  0
 32 33  1  0  0  0  0
 32 31  1  0  0  0  0
 33 34  1  0  0  0  0
 34 35  1  0  0  0  0
 35 36  2  0  0  0  0
 36 37  2  0  0  0  0
M  END
>  <MODEL>
7

>  <REMARK>
 VINA RESULT:      -2.2      8.160     14.299
  Name = 
  14 active torsions:
  status: ('A' for Active; 'I' for Inactive)
    1  A    between atoms: C_1  and  C_23
    2  A    between atoms: C_1  and  C_33
    3  A    between atoms: C_1  and  C_36
    4  A    between atoms: C_6  and  C_8
    5  A    between atoms: C_6  and  C_31
    6  A    between atoms: C_8  and  C_19
    7  A    between atoms: C_15  and  C_19
    8  A    between atoms: C_17  and  C_26
    9  A    between atoms: C_17  and  C_33
   10  A    between atoms: C_24  and  C_28
   11  A    between atoms: C_26  and  C_34
   12  A    between atoms: C_27  and  C_37
   13  A    between atoms: O_30  and  C_32
   14  A    between atoms: C_31  and  C_37
                            x       y       z     vdW  Elec       q    Type
                         _______ _______ _______ _____ _____    ______ ____

>  <TORSDO>
F 14

$$$$
