=
 OpenBabel11062409513D

 34 37  0  0  1  0  0  0  0  0999 V2000
  160.8750  210.3450  152.5230 C   0  0  0  0  0  0  0  0  0  0  0  0
  160.7990  211.1680  151.5740 O   0  0  0  0  0  0  0  0  0  0  0  0
  160.7140  211.4270  154.8600 C   0  0  1  0  0  3  0  0  0  0  0  0
  161.0820  209.9620  154.9870 C   0  0  1  0  0  3  0  0  0  0  0  0
  161.5920  210.7510  153.7900 C   0  0  1  0  0  3  0  0  0  0  0  0
  158.9310  213.0070  154.0030 C   0  0  2  0  0  3  0  0  0  0  0  0
  157.0770  212.0010  155.9170 C   0  0  2  0  0  0  0  0  0  0  0  0
  156.1970  211.8140  157.0900 C   0  0  0  0  0  2  0  0  0  0  0  0
  158.3170  211.1800  155.6770 C   0  0  0  0  0  0  0  0  0  0  0  0
  158.3830  209.9440  156.1740 C   0  0  0  0  0  2  0  0  0  0  0  0
  159.4540  213.9650  154.8750 O   0  0  0  0  0  1  0  0  0  0  0  0
  157.2070  212.8010  157.0660 O   0  0  0  0  0  0  0  0  0  0  0  0
  156.5770  212.7610  154.8240 O   0  0  0  0  0  0  0  0  0  0  0  0
  157.4570  213.2360  153.8520 C   0  0  0  0  0  0  0  0  0  0  0  0
  159.2210  211.5790  154.5190 C   0  0  2  0  0  3  0  0  0  0  0  0
  157.0170  213.8890  152.8700 O   0  0  0  0  0  0  0  0  0  0  0  0
  163.0220  210.7120  156.1540 O   0  0  0  0  0  0  0  0  0  0  0  0
  162.1560  209.8080  156.0110 C   0  0  0  0  0  0  0  0  0  0  0  0
  162.1850  208.6930  156.8400 O   0  0  0  0  0  1  0  0  0  0  0  0
  160.3380  209.0670  152.3420 O   0  0  0  0  0  0  0  0  0  0  0  0
  160.9780  208.0560  151.5740 C   0  0  2  0  0  3  0  0  0  0  0  0
  161.2860  206.8660  152.4740 C   0  0  0  0  0  2  0  0  0  0  0  0
  160.8870  203.1680  150.3230 C   0  0  0  0  0  0  0  0  0  0  0  0
  161.0570  203.1590  151.7180 C   0  0  0  0  0  3  0  0  0  0  0  0
  161.1810  204.3620  152.4190 C   0  0  0  0  0  3  0  0  0  0  0  0
  160.9660  205.5920  150.3450 C   0  0  0  0  0  3  0  0  0  0  0  0
  161.1340  205.5810  151.7330 C   0  0  0  0  0  0  0  0  0  0  0  0
  160.8420  204.3900  149.6440 C   0  0  0  0  0  3  0  0  0  0  0  0
  160.7550  201.9240  149.5520 C   0  0  0  0  0  3  0  0  0  0  0  0
  161.0600  200.5060  147.5930 C   0  0  0  0  0  1  0  0  0  0  0  0
  161.2280  201.7920  148.3170 C   0  0  0  0  0  3  0  0  0  0  0  0
  162.2650  208.6060  150.9770 C   0  0  0  0  0  2  0  0  0  0  0  0
  162.0050  209.6600  148.7900 N   0  0  0  0  0  1  0  0  0  0  0  0
  162.2930  208.4090  149.4690 C   0  0  0  0  0  2  0  0  0  0  0  0
  2  1  2  0  0  0  0
  3 15  1  6  0  0  0
  3  4  1  0  0  0  0
  4 18  1  1  0  0  0
  5  1  1  6  0  0  0
  5  3  1  0  0  0  0
  5  4  1  0  0  0  0
  6 15  1  0  0  0  0
  6 11  1  1  0  0  0
  7 12  1  0  0  0  0
  7  8  1  1  0  0  0
  9  7  1  0  0  0  0
  9 10  2  0  0  0  0
 12  8  1  0  0  0  0
 13  7  1  0  0  0  0
 14  6  1  0  0  0  0
 14 13  1  0  0  0  0
 15  9  1  1  0  0  0
 16 14  2  0  0  0  0
 18 17  2  0  0  0  0
 18 19  1  0  0  0  0
 20  1  1  0  0  0  0
 21 32  1  1  0  0  0
 21 20  1  0  0  0  0
 21 22  1  0  0  0  0
 23 24  1  0  0  0  0
 24 25  2  0  0  0  0
 26 27  2  0  0  0  0
 27 25  1  0  0  0  0
 27 22  1  0  0  0  0
 28 23  2  0  0  0  0
 28 26  1  0  0  0  0
 29 23  1  0  0  0  0
 30 31  1  0  0  0  0
 31 29  2  0  0  0  0
 33 34  1  0  0  0  0
 34 32  1  0  0  0  0
M  END
>  <MODEL>
1

>  <REMARK>
 VINA RESULT:      -7.7      0.000      0.000
  Name = 
  10 active torsions:
  status: ('A' for Active; 'I' for Inactive)
    1  A    between atoms: C_1  and  O_8
    2  A    between atoms: C_1  and  C_34
    3  A    between atoms: C_5  and  C_32
    4  A    between atoms: C_6  and  C_18
    5  A    between atoms: C_6  and  C_28
    6  A    between atoms: C_7  and  C_11
    7  A    between atoms: O_8  and  C_18
    8  A    between atoms: C_12  and  C_20
    9  A    between atoms: C_18  and  C_30
   10  A    between atoms: C_30  and  C_31
                            x       y       z     vdW  Elec       q    Type
                         _______ _______ _______ _____ _____    ______ ____

>  <TORSDO>
F 10

$$$$
=
 OpenBabel11062409513D

 34 37  0  0  1  0  0  0  0  0999 V2000
  161.1590  209.4980  152.2980 C   0  0  0  0  0  0  0  0  0  0  0  0
  161.2800  209.8390  151.0930 O   0  0  0  0  0  0  0  0  0  0  0  0
  160.8050  211.5650  153.8020 C   0  0  1  0  0  3  0  0  0  0  0  0
  160.8920  210.3110  154.6490 C   0  0  1  0  0  3  0  0  0  0  0  0
  161.7180  210.3990  153.3740 C   0  0  1  0  0  3  0  0  0  0  0  0
  159.4790  212.6900  151.9610 C   0  0  2  0  0  3  0  0  0  0  0  0
  157.1910  212.8270  153.6520 C   0  0  2  0  0  0  0  0  0  0  0  0
  156.1100  213.2710  154.5570 C   0  0  0  0  0  2  0  0  0  0  0  0
  158.2990  211.9010  154.0820 C   0  0  0  0  0  0  0  0  0  0  0  0
  158.0730  211.0370  155.0740 C   0  0  0  0  0  2  0  0  0  0  0  0
  160.0030  213.9030  152.4160 O   0  0  0  0  0  1  0  0  0  0  0  0
  157.2610  214.0570  154.3280 O   0  0  0  0  0  0  0  0  0  0  0  0
  157.0140  213.0250  152.2550 O   0  0  0  0  0  0  0  0  0  0  0  0
  158.1100  212.9280  151.3980 C   0  0  0  0  0  0  0  0  0  0  0  0
  159.4360  211.6480  153.1030 C   0  0  2  0  0  3  0  0  0  0  0  0
  157.9560  213.0800  150.1580 O   0  0  0  0  0  0  0  0  0  0  0  0
  161.2290  210.5660  156.9960 O   0  0  0  0  0  1  0  0  0  0  0  0
  161.7410  210.5800  155.8460 C   0  0  0  0  0  0  0  0  0  0  0  0
  163.1050  210.8050  155.7050 O   0  0  0  0  0  0  0  0  0  0  0  0
  160.5600  208.2680  152.5870 O   0  0  0  0  0  0  0  0  0  0  0  0
  161.3000  207.0710  152.7870 C   0  0  2  0  0  3  0  0  0  0  0  0
  160.4770  205.8880  152.2940 C   0  0  0  0  0  2  0  0  0  0  0  0
  161.2830  205.1110  148.1460 C   0  0  0  0  0  0  0  0  0  0  0  0
  161.2390  204.0510  149.0680 C   0  0  0  0  0  3  0  0  0  0  0  0
  160.9720  204.3030  150.4160 C   0  0  0  0  0  3  0  0  0  0  0  0
  160.7880  206.6680  149.9380 C   0  0  0  0  0  3  0  0  0  0  0  0
  160.7440  205.6120  150.8530 C   0  0  0  0  0  0  0  0  0  0  0  0
  161.0550  206.4180  148.5900 C   0  0  0  0  0  3  0  0  0  0  0  0
  161.5640  204.8860  146.7210 C   0  0  0  0  0  3  0  0  0  0  0  0
  161.3920  205.3760  144.3390 C   0  0  0  0  0  1  0  0  0  0  0  0
  161.0680  205.6600  145.7610 C   0  0  0  0  0  3  0  0  0  0  0  0
  161.6170  206.9070  154.2660 C   0  0  0  0  0  2  0  0  0  0  0  0
  160.6700  207.1550  156.5030 N   0  0  0  0  0  1  0  0  0  0  0  0
  160.3470  206.9480  155.1020 C   0  0  0  0  0  2  0  0  0  0  0  0
  1 20  1  0  0  0  0
  2  1  2  0  0  0  0
  3 15  1  6  0  0  0
  3  4  1  0  0  0  0
  4 18  1  1  0  0  0
  5  1  1  6  0  0  0
  5  3  1  0  0  0  0
  5  4  1  0  0  0  0
  6 11  1  1  0  0  0
  6 15  1  0  0  0  0
  7  9  1  0  0  0  0
  7 12  1  0  0  0  0
  7  8  1  1  0  0  0
  9 10  2  0  0  0  0
 12  8  1  0  0  0  0
 13  7  1  0  0  0  0
 14  6  1  0  0  0  0
 14 13  1  0  0  0  0
 15  9  1  1  0  0  0
 16 14  2  0  0  0  0
 18 17  1  0  0  0  0
 19 18  2  0  0  0  0
 20 21  1  0  0  0  0
 21 22  1  1  0  0  0
 21 32  1  0  0  0  0
 23 28  2  0  0  0  0
 23 24  1  0  0  0  0
 24 25  2  0  0  0  0
 25 27  1  0  0  0  0
 26 27  2  0  0  0  0
 27 22  1  0  0  0  0
 28 26  1  0  0  0  0
 29 23  1  0  0  0  0
 30 31  1  0  0  0  0
 31 29  2  0  0  0  0
 32 34  1  0  0  0  0
 34 33  1  0  0  0  0
M  END
>  <MODEL>
2

>  <REMARK>
 VINA RESULT:      -6.8      2.367      3.001
  Name = 
  10 active torsions:
  status: ('A' for Active; 'I' for Inactive)
    1  A    between atoms: C_1  and  O_8
    2  A    between atoms: C_1  and  C_34
    3  A    between atoms: C_5  and  C_32
    4  A    between atoms: C_6  and  C_18
    5  A    between atoms: C_6  and  C_28
    6  A    between atoms: C_7  and  C_11
    7  A    between atoms: O_8  and  C_18
    8  A    between atoms: C_12  and  C_20
    9  A    between atoms: C_18  and  C_30
   10  A    between atoms: C_30  and  C_31
                            x       y       z     vdW  Elec       q    Type
                         _______ _______ _______ _____ _____    ______ ____

>  <TORSDO>
F 10

$$$$
=
 OpenBabel11062409513D

 34 37  0  0  1  0  0  0  0  0999 V2000
  160.9260  210.0770  152.4160 C   0  0  0  0  0  0  0  0  0  0  0  0
  160.0990  209.1300  152.4570 O   0  0  0  0  0  0  0  0  0  0  0  0
  160.1790  211.8780  154.1080 C   0  0  1  0  0  3  0  0  0  0  0  0
  160.2220  210.5180  154.7770 C   0  0  1  0  0  3  0  0  0  0  0  0
  161.2340  210.8360  153.6860 C   0  0  1  0  0  3  0  0  0  0  0  0
  159.1840  213.0320  152.0860 C   0  0  2  0  0  3  0  0  0  0  0  0
  156.6640  213.2250  153.3990 C   0  0  2  0  0  0  0  0  0  0  0  0
  155.4660  213.6950  154.1250 C   0  0  0  0  0  2  0  0  0  0  0  0
  157.6690  212.2730  153.9940 C   0  0  0  0  0  0  0  0  0  0  0  0
  157.2700  211.4150  154.9350 C   0  0  0  0  0  2  0  0  0  0  0  0
  159.6600  214.2330  152.6210 O   0  0  0  0  0  1  0  0  0  0  0  0
  156.6560  214.4530  154.0810 O   0  0  0  0  0  0  0  0  0  0  0  0
  156.7120  213.4260  151.9920 O   0  0  0  0  0  0  0  0  0  0  0  0
  157.9260  213.3030  151.3160 C   0  0  0  0  0  0  0  0  0  0  0  0
  158.9390  211.9930  153.2040 C   0  0  2  0  0  3  0  0  0  0  0  0
  157.9710  213.4580  150.0680 O   0  0  0  0  0  0  0  0  0  0  0  0
  162.0980  210.6950  156.2380 O   0  0  0  0  0  0  0  0  0  0  0  0
  160.8450  210.6500  156.1260 C   0  0  0  0  0  0  0  0  0  0  0  0
  160.0500  210.7650  157.2600 O   0  0  0  0  0  1  0  0  0  0  0  0
  161.4860  210.4220  151.1820 O   0  0  0  0  0  0  0  0  0  0  0  0
  161.6510  209.4940  150.1180 C   0  0  2  0  0  3  0  0  0  0  0  0
  162.6920  208.4570  150.5170 C   0  0  0  0  0  2  0  0  0  0  0  0
  161.0870  204.4750  150.3400 C   0  0  0  0  0  0  0  0  0  0  0  0
  161.5680  204.9890  151.5550 C   0  0  0  0  0  3  0  0  0  0  0  0
  162.0850  206.2870  151.6150 C   0  0  0  0  0  3  0  0  0  0  0  0
  161.6460  206.5690  149.2510 C   0  0  0  0  0  3  0  0  0  0  0  0
  162.1240  207.0790  150.4620 C   0  0  0  0  0  0  0  0  0  0  0  0
  161.1300  205.2730  149.1910 C   0  0  0  0  0  3  0  0  0  0  0  0
  160.5390  203.1150  150.2370 C   0  0  0  0  0  3  0  0  0  0  0  0
  160.2690  200.9220  149.2090 C   0  0  0  0  0  1  0  0  0  0  0  0
  160.8610  202.2840  149.2530 C   0  0  0  0  0  3  0  0  0  0  0  0
  162.1010  210.2300  148.8640 C   0  0  0  0  0  2  0  0  0  0  0  0
  162.3390  212.4200  147.8120 N   0  0  0  0  0  1  0  0  0  0  0  0
  161.9040  211.7310  149.0140 C   0  0  0  0  0  2  0  0  0  0  0  0
  1  2  2  0  0  0  0
  3 15  1  6  0  0  0
  3  4  1  0  0  0  0
  4 18  1  1  0  0  0
  5  1  1  6  0  0  0
  5  3  1  0  0  0  0
  5  4  1  0  0  0  0
  6 11  1  1  0  0  0
  6 15  1  0  0  0  0
  7  9  1  0  0  0  0
  7 12  1  0  0  0  0
  7  8  1  1  0  0  0
  9 10  2  0  0  0  0
 12  8  1  0  0  0  0
 13  7  1  0  0  0  0
 14 13  1  0  0  0  0
 14  6  1  0  0  0  0
 15  9  1  1  0  0  0
 16 14  2  0  0  0  0
 18 17  2  0  0  0  0
 18 19  1  0  0  0  0
 20  1  1  0  0  0  0
 21 32  1  6  0  0  0
 21 22  1  0  0  0  0
 21 20  1  0  0  0  0
 23 24  1  0  0  0  0
 24 25  2  0  0  0  0
 26 27  2  0  0  0  0
 27 22  1  0  0  0  0
 27 25  1  0  0  0  0
 28 26  1  0  0  0  0
 28 23  2  0  0  0  0
 29 23  1  0  0  0  0
 30 31  1  0  0  0  0
 31 29  2  0  0  0  0
 32 34  1  0  0  0  0
 33 34  1  0  0  0  0
M  END
>  <MODEL>
3

>  <REMARK>
 VINA RESULT:      -6.7      1.615      2.221
  Name = 
  10 active torsions:
  status: ('A' for Active; 'I' for Inactive)
    1  A    between atoms: C_1  and  O_8
    2  A    between atoms: C_1  and  C_34
    3  A    between atoms: C_5  and  C_32
    4  A    between atoms: C_6  and  C_18
    5  A    between atoms: C_6  and  C_28
    6  A    between atoms: C_7  and  C_11
    7  A    between atoms: O_8  and  C_18
    8  A    between atoms: C_12  and  C_20
    9  A    between atoms: C_18  and  C_30
   10  A    between atoms: C_30  and  C_31
                            x       y       z     vdW  Elec       q    Type
                         _______ _______ _______ _____ _____    ______ ____

>  <TORSDO>
F 10

$$$$
=
 OpenBabel11062409513D

 34 37  0  0  1  0  0  0  0  0999 V2000
  161.1450  210.2680  152.4580 C   0  0  0  0  0  0  0  0  0  0  0  0
  160.8150  211.1480  151.6220 O   0  0  0  0  0  0  0  0  0  0  0  0
  160.7730  211.3530  154.7710 C   0  0  1  0  0  3  0  0  0  0  0  0
  161.1730  209.8990  154.9330 C   0  0  1  0  0  3  0  0  0  0  0  0
  161.7500  210.6980  153.7740 C   0  0  1  0  0  3  0  0  0  0  0  0
  159.0140  212.8790  153.7770 C   0  0  2  0  0  3  0  0  0  0  0  0
  157.0500  211.8130  155.5420 C   0  0  2  0  0  0  0  0  0  0  0  0
  156.0880  211.5970  156.6440 C   0  0  0  0  0  2  0  0  0  0  0  0
  158.3290  211.0310  155.3990 C   0  0  0  0  0  0  0  0  0  0  0  0
  158.3940  209.7960  155.9010 C   0  0  0  0  0  2  0  0  0  0  0  0
  159.4390  213.8510  154.6870 O   0  0  0  0  0  1  0  0  0  0  0  0
  157.0660  212.6140  156.6970 O   0  0  0  0  0  0  0  0  0  0  0  0
  156.6130  212.5590  154.4130 O   0  0  0  0  0  0  0  0  0  0  0  0
  157.5500  213.0630  153.5120 C   0  0  0  0  0  0  0  0  0  0  0  0
  159.3070  211.4590  154.3140 C   0  0  2  0  0  3  0  0  0  0  0  0
  157.1690  213.7050  152.4990 O   0  0  0  0  0  0  0  0  0  0  0  0
  162.1570  208.7690  156.7880 O   0  0  0  0  0  1  0  0  0  0  0  0
  162.1690  209.7800  156.0380 C   0  0  0  0  0  0  0  0  0  0  0  0
  163.1390  210.7580  156.2200 O   0  0  0  0  0  0  0  0  0  0  0  0
  160.9870  208.9230  152.1100 O   0  0  0  0  0  0  0  0  0  0  0  0
  161.8330  208.2560  151.1820 C   0  0  2  0  0  3  0  0  0  0  0  0
  161.1280  208.1760  149.8340 C   0  0  0  0  0  2  0  0  0  0  0  0
  161.4150  204.2370  148.1420 C   0  0  0  0  0  0  0  0  0  0  0  0
  161.9990  205.3330  147.4850 C   0  0  0  0  0  3  0  0  0  0  0  0
  161.9110  206.6130  148.0370 C   0  0  0  0  0  3  0  0  0  0  0  0
  160.6590  205.7200  149.9060 C   0  0  0  0  0  3  0  0  0  0  0  0
  161.2420  206.8090  149.2500 C   0  0  0  0  0  0  0  0  0  0  0  0
  160.7470  204.4400  149.3550 C   0  0  0  0  0  3  0  0  0  0  0  0
  161.4850  202.8760  147.5920 C   0  0  0  0  0  3  0  0  0  0  0  0
  161.1910  200.4570  147.6560 C   0  0  0  0  0  1  0  0  0  0  0  0
  161.0930  201.8050  148.2730 C   0  0  0  0  0  3  0  0  0  0  0  0
  162.1480  206.8570  151.6900 C   0  0  0  0  0  2  0  0  0  0  0  0
  161.2730  205.3440  153.3960 N   0  0  0  0  0  1  0  0  0  0  0  0
  161.7300  206.7000  153.1440 C   0  0  0  0  0  2  0  0  0  0  0  0
  2  1  2  0  0  0  0
  3 15  1  6  0  0  0
  3  4  1  0  0  0  0
  4 18  1  1  0  0  0
  5  1  1  6  0  0  0
  5  3  1  0  0  0  0
  5  4  1  0  0  0  0
  6 15  1  0  0  0  0
  6 11  1  1  0  0  0
  7  8  1  1  0  0  0
  7 12  1  0  0  0  0
  8 12  1  0  0  0  0
  9  7  1  0  0  0  0
  9 10  2  0  0  0  0
 13  7  1  0  0  0  0
 14  6  1  0  0  0  0
 14 13  1  0  0  0  0
 15  9  1  1  0  0  0
 16 14  2  0  0  0  0
 18 19  2  0  0  0  0
 18 17  1  0  0  0  0
 20  1  1  0  0  0  0
 21 22  1  6  0  0  0
 21 32  1  0  0  0  0
 21 20  1  0  0  0  0
 23 28  1  0  0  0  0
 24 25  1  0  0  0  0
 24 23  2  0  0  0  0
 25 27  2  0  0  0  0
 27 22  1  0  0  0  0
 27 26  1  0  0  0  0
 28 26  2  0  0  0  0
 29 23  1  0  0  0  0
 29 31  2  0  0  0  0
 30 31  1  0  0  0  0
 32 34  1  0  0  0  0
 34 33  1  0  0  0  0
M  END
>  <MODEL>
4

>  <REMARK>
 VINA RESULT:      -6.6      1.405      2.107
  Name = 
  10 active torsions:
  status: ('A' for Active; 'I' for Inactive)
    1  A    between atoms: C_1  and  O_8
    2  A    between atoms: C_1  and  C_34
    3  A    between atoms: C_5  and  C_32
    4  A    between atoms: C_6  and  C_18
    5  A    between atoms: C_6  and  C_28
    6  A    between atoms: C_7  and  C_11
    7  A    between atoms: O_8  and  C_18
    8  A    between atoms: C_12  and  C_20
    9  A    between atoms: C_18  and  C_30
   10  A    between atoms: C_30  and  C_31
                            x       y       z     vdW  Elec       q    Type
                         _______ _______ _______ _____ _____    ______ ____

>  <TORSDO>
F 10

$$$$
=
 OpenBabel11062409513D

 34 37  0  0  1  0  0  0  0  0999 V2000
  161.8780  206.0630  151.8500 C   0  0  0  0  0  0  0  0  0  0  0  0
  163.1000  205.7740  151.9340 O   0  0  0  0  0  0  0  0  0  0  0  0
  160.7760  204.5540  150.0700 C   0  0  1  0  0  3  0  0  0  0  0  0
  161.5840  203.7140  151.0400 C   0  0  1  0  0  3  0  0  0  0  0  0
  160.8840  204.9650  151.5510 C   0  0  1  0  0  3  0  0  0  0  0  0
  161.4280  206.8090  149.1210 C   0  0  2  0  0  3  0  0  0  0  0  0
  161.7030  205.6710  146.5250 C   0  0  2  0  0  0  0  0  0  0  0  0
  161.5040  205.2560  145.1200 C   0  0  0  0  0  2  0  0  0  0  0  0
  161.6470  204.7110  147.6840 C   0  0  0  0  0  0  0  0  0  0  0  0
  161.9550  203.4290  147.4800 C   0  0  0  0  0  2  0  0  0  0  0  0
  160.0630  207.0640  148.9660 O   0  0  0  0  0  1  0  0  0  0  0  0
  160.4520  205.7890  145.8960 O   0  0  0  0  0  0  0  0  0  0  0  0
  162.2720  206.9510  146.7660 O   0  0  0  0  0  0  0  0  0  0  0  0
  162.1840  207.5190  148.0380 C   0  0  0  0  0  0  0  0  0  0  0  0
  161.7090  205.2890  149.0900 C   0  0  2  0  0  3  0  0  0  0  0  0
  162.7060  208.6410  148.2640 O   0  0  0  0  0  0  0  0  0  0  0  0
  160.1770  202.4490  152.4910 O   0  0  0  0  0  1  0  0  0  0  0  0
  160.8070  202.4920  151.4020 C   0  0  0  0  0  0  0  0  0  0  0  0
  160.7390  201.4160  150.5260 O   0  0  0  0  0  0  0  0  0  0  0  0
  161.4990  207.4020  151.9820 O   0  0  0  0  0  0  0  0  0  0  0  0
  160.8920  207.9260  153.1570 C   0  0  2  0  0  3  0  0  0  0  0  0
  161.5300  209.2680  153.4920 C   0  0  0  0  0  2  0  0  0  0  0  0
  158.5110  212.2810  154.0120 C   0  0  0  0  0  0  0  0  0  0  0  0
  159.3090  211.8850  155.0990 C   0  0  0  0  0  3  0  0  0  0  0  0
  160.2950  210.9090  154.9290 C   0  0  0  0  0  3  0  0  0  0  0  0
  159.6980  210.7150  152.5910 C   0  0  0  0  0  3  0  0  0  0  0  0
  160.4920  210.3230  153.6730 C   0  0  0  0  0  0  0  0  0  0  0  0
  158.7130  211.6900  152.7600 C   0  0  0  0  0  3  0  0  0  0  0  0
  157.4630  213.3020  154.1530 C   0  0  0  0  0  3  0  0  0  0  0  0
  155.1670  214.0790  154.4070 C   0  0  0  0  0  1  0  0  0  0  0  0
  156.1750  212.9970  154.2690 C   0  0  0  0  0  3  0  0  0  0  0  0
  161.0870  206.9520  154.3100 C   0  0  0  0  0  2  0  0  0  0  0  0
  160.7610  207.5990  156.6410 N   0  0  0  0  0  1  0  0  0  0  0  0
  160.0790  207.2140  155.4190 C   0  0  0  0  0  2  0  0  0  0  0  0
  1  2  2  0  0  0  0
  1 20  1  0  0  0  0
  3 15  1  6  0  0  0
  3  4  1  0  0  0  0
  3  5  1  0  0  0  0
  4 18  1  1  0  0  0
  4  5  1  0  0  0  0
  5  1  1  6  0  0  0
  6 11  1  6  0  0  0
  7  8  1  6  0  0  0
  7 13  1  0  0  0  0
  7  9  1  0  0  0  0
  8 12  1  0  0  0  0
 10  9  2  0  0  0  0
 12  7  1  0  0  0  0
 13 14  1  0  0  0  0
 14 16  2  0  0  0  0
 14  6  1  0  0  0  0
 15  9  1  6  0  0  0
 15  6  1  0  0  0  0
 18 17  1  0  0  0  0
 19 18  2  0  0  0  0
 20 21  1  0  0  0  0
 21 22  1  1  0  0  0
 21 32  1  0  0  0  0
 22 27  1  0  0  0  0
 23 29  1  0  0  0  0
 23 24  1  0  0  0  0
 25 24  2  0  0  0  0
 26 28  1  0  0  0  0
 26 27  2  0  0  0  0
 27 25  1  0  0  0  0
 28 23  2  0  0  0  0
 29 31  2  0  0  0  0
 31 30  1  0  0  0  0
 32 34  1  0  0  0  0
 34 33  1  0  0  0  0
M  END
>  <MODEL>
5

>  <REMARK>
 VINA RESULT:      -6.4      3.699      9.275
  Name = 
  10 active torsions:
  status: ('A' for Active; 'I' for Inactive)
    1  A    between atoms: C_1  and  O_8
    2  A    between atoms: C_1  and  C_34
    3  A    between atoms: C_5  and  C_32
    4  A    between atoms: C_6  and  C_18
    5  A    between atoms: C_6  and  C_28
    6  A    between atoms: C_7  and  C_11
    7  A    between atoms: O_8  and  C_18
    8  A    between atoms: C_12  and  C_20
    9  A    between atoms: C_18  and  C_30
   10  A    between atoms: C_30  and  C_31
                            x       y       z     vdW  Elec       q    Type
                         _______ _______ _______ _____ _____    ______ ____

>  <TORSDO>
F 10

$$$$
=
 OpenBabel11062409513D

 34 37  0  0  1  0  0  0  0  0999 V2000
  161.3140  208.8170  151.6190 C   0  0  0  0  0  0  0  0  0  0  0  0
  162.3620  209.2900  151.1070 O   0  0  0  0  0  0  0  0  0  0  0  0
  159.9260  209.9570  153.4730 C   0  0  1  0  0  3  0  0  0  0  0  0
  160.6940  210.9970  152.6810 C   0  0  1  0  0  3  0  0  0  0  0  0
  160.1810  209.7550  151.9670 C   0  0  1  0  0  3  0  0  0  0  0  0
  160.0560  208.4750  155.5220 C   0  0  2  0  0  3  0  0  0  0  0  0
  162.3370  209.9060  156.4490 C   0  0  2  0  0  0  0  0  0  0  0  0
  163.2600  210.8060  157.1720 C   0  0  0  0  0  2  0  0  0  0  0  0
  161.9500  210.1070  155.0070 C   0  0  0  0  0  0  0  0  0  0  0  0
  162.7970  210.7360  154.1900 C   0  0  0  0  0  2  0  0  0  0  0  0
  159.1470  209.3470  156.1280 O   0  0  0  0  0  1  0  0  0  0  0  0
  161.8590  210.9510  157.2580 O   0  0  0  0  0  0  0  0  0  0  0  0
  162.0490  208.6410  157.0310 O   0  0  0  0  0  0  0  0  0  0  0  0
  160.9580  207.9010  156.5730 C   0  0  0  0  0  0  0  0  0  0  0  0
  160.8700  209.2040  154.4280 C   0  0  2  0  0  3  0  0  0  0  0  0
  160.7110  206.7710  157.0680 O   0  0  0  0  0  0  0  0  0  0  0  0
  159.5630  212.5040  151.2200 O   0  0  0  0  0  0  0  0  0  0  0  0
  159.8070  212.1650  152.4070 C   0  0  0  0  0  0  0  0  0  0  0  0
  159.2120  212.8580  153.4540 O   0  0  0  0  0  1  0  0  0  0  0  0
  161.2650  207.4480  151.8950 O   0  0  0  0  0  0  0  0  0  0  0  0
  161.6680  206.4520  150.9640 C   0  0  2  0  0  3  0  0  0  0  0  0
  160.4450  205.9550  150.2040 C   0  0  0  0  0  2  0  0  0  0  0  0
  161.2370  202.1350  148.4060 C   0  0  0  0  0  0  0  0  0  0  0  0
  160.6760  202.2070  149.6920 C   0  0  0  0  0  3  0  0  0  0  0  0
  160.4130  203.4500  150.2750 C   0  0  0  0  0  3  0  0  0  0  0  0
  161.2650  204.5580  148.2990 C   0  0  0  0  0  3  0  0  0  0  0  0
  160.7060  204.6280  149.5780 C   0  0  0  0  0  0  0  0  0  0  0  0
  161.5290  203.3160  147.7150 C   0  0  0  0  0  3  0  0  0  0  0  0
  161.5300  200.8470  147.7600 C   0  0  0  0  0  3  0  0  0  0  0  0
  161.3820  199.1960  145.9730 C   0  0  0  0  0  1  0  0  0  0  0  0
  161.0470  200.5150  146.5680 C   0  0  0  0  0  3  0  0  0  0  0  0
  162.3280  205.2970  151.7040 C   0  0  0  0  0  2  0  0  0  0  0  0
  160.8320  204.6260  153.5130 N   0  0  0  0  0  1  0  0  0  0  0  0
  162.0380  205.3700  153.1950 C   0  0  0  0  0  2  0  0  0  0  0  0
  1 20  1  0  0  0  0
  2  1  2  0  0  0  0
  3 15  1  1  0  0  0
  4 18  1  6  0  0  0
  4  3  1  0  0  0  0
  5  1  1  1  0  0  0
  5  4  1  0  0  0  0
  5  3  1  0  0  0  0
  6 11  1  1  0  0  0
  6 14  1  0  0  0  0
  7 13  1  0  0  0  0
  7  8  1  1  0  0  0
  7 12  1  0  0  0  0
  8 12  1  0  0  0  0
  9  7  1  0  0  0  0
 10  9  2  0  0  0  0
 14 13  1  0  0  0  0
 14 16  2  0  0  0  0
 15  9  1  1  0  0  0
 15  6  1  0  0  0  0
 17 18  2  0  0  0  0
 18 19  1  0  0  0  0
 21 22  1  1  0  0  0
 21 32  1  0  0  0  0
 21 20  1  0  0  0  0
 23 24  1  0  0  0  0
 24 25  2  0  0  0  0
 26 27  2  0  0  0  0
 27 22  1  0  0  0  0
 27 25  1  0  0  0  0
 28 26  1  0  0  0  0
 28 23  2  0  0  0  0
 29 23  1  0  0  0  0
 30 31  1  0  0  0  0
 31 29  2  0  0  0  0
 32 34  1  0  0  0  0
 34 33  1  0  0  0  0
M  END
>  <MODEL>
6

>  <REMARK>
 VINA RESULT:      -6.0      2.404      4.395
  Name = 
  10 active torsions:
  status: ('A' for Active; 'I' for Inactive)
    1  A    between atoms: C_1  and  O_8
    2  A    between atoms: C_1  and  C_34
    3  A    between atoms: C_5  and  C_32
    4  A    between atoms: C_6  and  C_18
    5  A    between atoms: C_6  and  C_28
    6  A    between atoms: C_7  and  C_11
    7  A    between atoms: O_8  and  C_18
    8  A    between atoms: C_12  and  C_20
    9  A    between atoms: C_18  and  C_30
   10  A    between atoms: C_30  and  C_31
                            x       y       z     vdW  Elec       q    Type
                         _______ _______ _______ _____ _____    ______ ____

>  <TORSDO>
F 10

$$$$
=
 OpenBabel11062409513D

 34 37  0  0  1  0  0  0  0  0999 V2000
  161.9510  205.9770  151.7610 C   0  0  0  0  0  0  0  0  0  0  0  0
  163.1730  205.6790  151.7830 O   0  0  0  0  0  0  0  0  0  0  0  0
  160.7970  204.4680  150.0130 C   0  0  1  0  0  3  0  0  0  0  0  0
  161.6100  203.6250  150.9750 C   0  0  1  0  0  3  0  0  0  0  0  0
  160.9370  204.8890  151.4890 C   0  0  1  0  0  3  0  0  0  0  0  0
  161.4380  206.7030  149.0110 C   0  0  2  0  0  3  0  0  0  0  0  0
  161.6930  205.5110  146.4380 C   0  0  2  0  0  0  0  0  0  0  0  0
  161.4830  205.0660  145.0440 C   0  0  0  0  0  2  0  0  0  0  0  0
  161.6470  204.5750  147.6180 C   0  0  0  0  0  0  0  0  0  0  0  0
  161.9550  203.2890  147.4380 C   0  0  0  0  0  2  0  0  0  0  0  0
  160.0710  206.9540  148.8630 O   0  0  0  0  0  1  0  0  0  0  0  0
  160.4370  205.6140  145.8170 O   0  0  0  0  0  0  0  0  0  0  0  0
  162.2630  206.7960  146.6480 O   0  0  0  0  0  0  0  0  0  0  0  0
  162.1850  207.3910  147.9080 C   0  0  0  0  0  0  0  0  0  0  0  0
  161.7210  205.1840  149.0110 C   0  0  2  0  0  3  0  0  0  0  0  0
  162.7070  208.5180  148.1060 O   0  0  0  0  0  0  0  0  0  0  0  0
  160.1920  202.4010  152.4490 O   0  0  0  0  0  1  0  0  0  0  0  0
  160.8250  202.4170  151.3610 C   0  0  0  0  0  0  0  0  0  0  0  0
  160.7510  201.3220  150.5080 O   0  0  0  0  0  0  0  0  0  0  0  0
  161.5860  207.3150  151.9350 O   0  0  0  0  0  0  0  0  0  0  0  0
  160.8080  207.7720  153.0330 C   0  0  2  0  0  3  0  0  0  0  0  0
  161.3310  209.1300  153.4840 C   0  0  0  0  0  2  0  0  0  0  0  0
  160.9110  212.0900  150.3980 C   0  0  0  0  0  0  0  0  0  0  0  0
  161.8220  211.0320  150.2430 C   0  0  0  0  0  3  0  0  0  0  0  0
  161.9550  210.0660  151.2440 C   0  0  0  0  0  3  0  0  0  0  0  0
  160.2710  211.2000  152.5620 C   0  0  0  0  0  3  0  0  0  0  0  0
  161.1780  210.1480  152.4050 C   0  0  0  0  0  0  0  0  0  0  0  0
  160.1380  212.1660  151.5620 C   0  0  0  0  0  3  0  0  0  0  0  0
  160.7450  213.1260  149.3690 C   0  0  0  0  0  3  0  0  0  0  0  0
  161.2440  214.2260  147.2520 C   0  0  0  0  0  1  0  0  0  0  0  0
  161.4620  213.1490  148.2510 C   0  0  0  0  0  3  0  0  0  0  0  0
  160.8990  206.7710  154.1760 C   0  0  0  0  0  2  0  0  0  0  0  0
  159.5870  207.3720  156.1450 N   0  0  0  0  0  1  0  0  0  0  0  0
  160.8930  207.4800  155.5210 C   0  0  0  0  0  2  0  0  0  0  0  0
  1  2  2  0  0  0  0
  1 20  1  0  0  0  0
  3 15  1  6  0  0  0
  3  4  1  0  0  0  0
  3  5  1  0  0  0  0
  4 18  1  1  0  0  0
  4  5  1  0  0  0  0
  5  1  1  6  0  0  0
  6 11  1  6  0  0  0
  6 15  1  0  0  0  0
  7  8  1  6  0  0  0
  7 13  1  0  0  0  0
  7  9  1  0  0  0  0
  8 12  1  0  0  0  0
 10  9  2  0  0  0  0
 12  7  1  0  0  0  0
 13 14  1  0  0  0  0
 14 16  2  0  0  0  0
 14  6  1  0  0  0  0
 15  9  1  6  0  0  0
 18 17  1  0  0  0  0
 19 18  2  0  0  0  0
 20 21  1  0  0  0  0
 21 22  1  1  0  0  0
 21 32  1  0  0  0  0
 23 28  1  0  0  0  0
 24 23  2  0  0  0  0
 24 25  1  0  0  0  0
 25 27  2  0  0  0  0
 27 26  1  0  0  0  0
 27 22  1  0  0  0  0
 28 26  2  0  0  0  0
 29 23  1  0  0  0  0
 30 31  1  0  0  0  0
 31 29  2  0  0  0  0
 32 34  1  0  0  0  0
 34 33  1  0  0  0  0
M  END
>  <MODEL>
7

>  <REMARK>
 VINA RESULT:      -6.0      4.075      8.955
  Name = 
  10 active torsions:
  status: ('A' for Active; 'I' for Inactive)
    1  A    between atoms: C_1  and  O_8
    2  A    between atoms: C_1  and  C_34
    3  A    between atoms: C_5  and  C_32
    4  A    between atoms: C_6  and  C_18
    5  A    between atoms: C_6  and  C_28
    6  A    between atoms: C_7  and  C_11
    7  A    between atoms: O_8  and  C_18
    8  A    between atoms: C_12  and  C_20
    9  A    between atoms: C_18  and  C_30
   10  A    between atoms: C_30  and  C_31
                            x       y       z     vdW  Elec       q    Type
                         _______ _______ _______ _____ _____    ______ ____

>  <TORSDO>
F 10

$$$$
=
 OpenBabel11062409513D

 34 37  0  0  1  0  0  0  0  0999 V2000
  161.5480  208.8520  151.6460 C   0  0  0  0  0  0  0  0  0  0  0  0
  162.3750  209.1610  150.7490 O   0  0  0  0  0  0  0  0  0  0  0  0
  160.0290  209.9650  153.4110 C   0  0  1  0  0  3  0  0  0  0  0  0
  160.8430  211.0170  152.6840 C   0  0  1  0  0  3  0  0  0  0  0  0
  160.3880  209.7800  151.9240 C   0  0  1  0  0  3  0  0  0  0  0  0
  160.0300  208.5210  155.4910 C   0  0  2  0  0  3  0  0  0  0  0  0
  162.3030  209.9130  156.4940 C   0  0  2  0  0  0  0  0  0  0  0  0
  163.2150  210.8050  157.2410 C   0  0  0  0  0  2  0  0  0  0  0  0
  161.9860  210.0950  155.0320 C   0  0  0  0  0  0  0  0  0  0  0  0
  162.8840  210.6870  154.2430 C   0  0  0  0  0  2  0  0  0  0  0  0
  159.1170  209.4260  156.0390 O   0  0  0  0  0  1  0  0  0  0  0  0
  161.8160  210.9850  157.2610 O   0  0  0  0  0  0  0  0  0  0  0  0
  161.9570  208.6670  157.0850 O   0  0  0  0  0  0  0  0  0  0  0  0
  160.8700  207.9450  156.5920 C   0  0  0  0  0  0  0  0  0  0  0  0
  160.9100  209.2080  154.4220 C   0  0  2  0  0  3  0  0  0  0  0  0
  160.5720  206.8310  157.0960 O   0  0  0  0  0  0  0  0  0  0  0  0
  160.1650  212.8420  151.3070 O   0  0  0  0  0  0  0  0  0  0  0  0
  159.9690  212.1830  152.3620 C   0  0  0  0  0  0  0  0  0  0  0  0
  158.9120  212.5240  153.1970 O   0  0  0  0  0  1  0  0  0  0  0  0
  161.7710  207.6880  152.3870 O   0  0  0  0  0  0  0  0  0  0  0  0
  161.8300  206.3940  151.8010 C   0  0  2  0  0  3  0  0  0  0  0  0
  160.5480  206.1410  151.0190 C   0  0  0  0  0  2  0  0  0  0  0  0
  161.4350  205.2590  146.9090 C   0  0  0  0  0  0  0  0  0  0  0  0
  161.5800  204.2650  147.8920 C   0  0  0  0  0  3  0  0  0  0  0  0
  161.2860  204.5500  149.2280 C   0  0  0  0  0  3  0  0  0  0  0  0
  160.7000  206.8170  148.6150 C   0  0  0  0  0  3  0  0  0  0  0  0
  160.8440  205.8270  149.5920 C   0  0  0  0  0  0  0  0  0  0  0  0
  160.9930  206.5340  147.2800 C   0  0  0  0  0  3  0  0  0  0  0  0
  161.7360  204.9980  145.4940 C   0  0  0  0  0  3  0  0  0  0  0  0
  161.5840  205.4160  143.0970 C   0  0  0  0  0  1  0  0  0  0  0  0
  161.2390  205.7350  144.5070 C   0  0  0  0  0  3  0  0  0  0  0  0
  161.9920  205.3460  152.8930 C   0  0  0  0  0  2  0  0  0  0  0  0
  161.0370  203.1750  152.3140 N   0  0  0  0  0  1  0  0  0  0  0  0
  160.7690  204.4440  152.9660 C   0  0  0  0  0  2  0  0  0  0  0  0
  1 20  1  0  0  0  0
  2  1  2  0  0  0  0
  3 15  1  1  0  0  0
  4 18  1  6  0  0  0
  4  3  1  0  0  0  0
  5  1  1  1  0  0  0
  5  4  1  0  0  0  0
  5  3  1  0  0  0  0
  6 11  1  1  0  0  0
  6 14  1  0  0  0  0
  7 13  1  0  0  0  0
  7  8  1  1  0  0  0
  7 12  1  0  0  0  0
  8 12  1  0  0  0  0
  9  7  1  0  0  0  0
 10  9  2  0  0  0  0
 14 13  1  0  0  0  0
 14 16  2  0  0  0  0
 15  9  1  1  0  0  0
 15  6  1  0  0  0  0
 17 18  2  0  0  0  0
 18 19  1  0  0  0  0
 21 22  1  1  0  0  0
 21 20  1  0  0  0  0
 21 32  1  0  0  0  0
 23 28  2  0  0  0  0
 23 24  1  0  0  0  0
 24 25  2  0  0  0  0
 25 27  1  0  0  0  0
 26 27  2  0  0  0  0
 27 22  1  0  0  0  0
 28 26  1  0  0  0  0
 29 23  1  0  0  0  0
 30 31  1  0  0  0  0
 31 29  2  0  0  0  0
 32 34  1  0  0  0  0
 33 34  1  0  0  0  0
M  END
>  <MODEL>
8

>  <REMARK>
 VINA RESULT:      -5.8      2.646      4.788
  Name = 
  10 active torsions:
  status: ('A' for Active; 'I' for Inactive)
    1  A    between atoms: C_1  and  O_8
    2  A    between atoms: C_1  and  C_34
    3  A    between atoms: C_5  and  C_32
    4  A    between atoms: C_6  and  C_18
    5  A    between atoms: C_6  and  C_28
    6  A    between atoms: C_7  and  C_11
    7  A    between atoms: O_8  and  C_18
    8  A    between atoms: C_12  and  C_20
    9  A    between atoms: C_18  and  C_30
   10  A    between atoms: C_30  and  C_31
                            x       y       z     vdW  Elec       q    Type
                         _______ _______ _______ _____ _____    ______ ____

>  <TORSDO>
F 10

$$$$
=
 OpenBabel11062409513D

 34 37  0  0  1  0  0  0  0  0999 V2000
  161.5540  207.7220  149.8250 C   0  0  0  0  0  0  0  0  0  0  0  0
  162.1040  208.7650  149.3830 O   0  0  0  0  0  0  0  0  0  0  0  0
  161.7970  207.7620  152.3940 C   0  0  1  0  0  3  0  0  0  0  0  0
  161.0130  206.5380  151.9620 C   0  0  1  0  0  3  0  0  0  0  0  0
  162.1210  207.0620  151.0600 C   0  0  1  0  0  3  0  0  0  0  0  0
  161.6550  210.1350  151.5240 C   0  0  2  0  0  3  0  0  0  0  0  0
  160.3760  210.9720  153.9280 C   0  0  2  0  0  0  0  0  0  0  0  0
  160.0660  211.5510  155.2520 C   0  0  0  0  0  2  0  0  0  0  0  0
  160.4310  209.4890  153.6690 C   0  0  0  0  0  0  0  0  0  0  0  0
  159.6980  208.6710  154.4270 C   0  0  0  0  0  2  0  0  0  0  0  0
  162.9420  210.3280  152.0320 O   0  0  0  0  0  1  0  0  0  0  0  0
  161.3950  211.3760  154.8090 O   0  0  0  0  0  0  0  0  0  0  0  0
  160.3160  211.8290  152.7950 O   0  0  0  0  0  0  0  0  0  0  0  0
  160.9020  211.4300  151.5940 C   0  0  0  0  0  0  0  0  0  0  0  0
  160.9180  209.0220  152.3040 C   0  0  2  0  0  3  0  0  0  0  0  0
  160.8320  212.1740  150.5810 O   0  0  0  0  0  0  0  0  0  0  0  0
  161.9690  205.5040  153.8870 O   0  0  0  0  0  1  0  0  0  0  0  0
  161.4820  205.3510  152.7360 C   0  0  0  0  0  0  0  0  0  0  0  0
  161.3460  204.0710  152.2130 O   0  0  0  0  0  0  0  0  0  0  0  0
  160.4720  207.1880  149.1190 O   0  0  0  0  0  0  0  0  0  0  0  0
  160.6000  206.1150  148.1950 C   0  0  2  0  0  3  0  0  0  0  0  0
  161.3990  204.9920  148.8430 C   0  0  0  0  0  2  0  0  0  0  0  0
  160.8430  201.2750  146.7610 C   0  0  0  0  0  0  0  0  0  0  0  0
  160.6610  201.3390  148.1520 C   0  0  0  0  0  3  0  0  0  0  0  0
  160.8370  202.5500  148.8300 C   0  0  0  0  0  3  0  0  0  0  0  0
  161.3740  203.6420  146.7370 C   0  0  0  0  0  3  0  0  0  0  0  0
  161.1920  203.7030  148.1220 C   0  0  0  0  0  0  0  0  0  0  0  0
  161.1990  202.4330  146.0600 C   0  0  0  0  0  3  0  0  0  0  0  0
  160.6700  200.0210  146.0140 C   0  0  0  0  0  3  0  0  0  0  0  0
  161.3430  197.8110  145.2370 C   0  0  0  0  0  1  0  0  0  0  0  0
  161.5810  199.0540  146.0150 C   0  0  0  0  0  3  0  0  0  0  0  0
  161.3070  206.6040  146.9400 C   0  0  0  0  0  2  0  0  0  0  0  0
  161.0780  205.9760  144.5920 N   0  0  0  0  0  1  0  0  0  0  0  0
  160.3820  206.5410  145.7340 C   0  0  0  0  0  2  0  0  0  0  0  0
  2  1  2  0  0  0  0
  3 15  1  6  0  0  0
  4  3  1  0  0  0  0
  4 18  1  1  0  0  0
  5  1  1  6  0  0  0
  5  4  1  0  0  0  0
  5  3  1  0  0  0  0
  6 14  1  0  0  0  0
  6 11  1  1  0  0  0
  6 15  1  0  0  0  0
  7 12  1  0  0  0  0
  7  8  1  1  0  0  0
  9  7  1  0  0  0  0
  9 10  2  0  0  0  0
 12  8  1  0  0  0  0
 13  7  1  0  0  0  0
 14 13  1  0  0  0  0
 15  9  1  1  0  0  0
 16 14  2  0  0  0  0
 18 17  1  0  0  0  0
 19 18  2  0  0  0  0
 20  1  1  0  0  0  0
 21 32  1  6  0  0  0
 21 22  1  0  0  0  0
 21 20  1  0  0  0  0
 23 24  1  0  0  0  0
 24 25  2  0  0  0  0
 26 27  2  0  0  0  0
 27 25  1  0  0  0  0
 27 22  1  0  0  0  0
 28 26  1  0  0  0  0
 28 23  2  0  0  0  0
 29 31  2  0  0  0  0
 29 23  1  0  0  0  0
 30 31  1  0  0  0  0
 33 34  1  0  0  0  0
 34 32  1  0  0  0  0
M  END
>  <MODEL>
9

>  <REMARK>
 VINA RESULT:      -5.7      2.542      4.430
  Name = 
  10 active torsions:
  status: ('A' for Active; 'I' for Inactive)
    1  A    between atoms: C_1  and  O_8
    2  A    between atoms: C_1  and  C_34
    3  A    between atoms: C_5  and  C_32
    4  A    between atoms: C_6  and  C_18
    5  A    between atoms: C_6  and  C_28
    6  A    between atoms: C_7  and  C_11
    7  A    between atoms: O_8  and  C_18
    8  A    between atoms: C_12  and  C_20
    9  A    between atoms: C_18  and  C_30
   10  A    between atoms: C_30  and  C_31
                            x       y       z     vdW  Elec       q    Type
                         _______ _______ _______ _____ _____    ______ ____

>  <TORSDO>
F 10

$$$$
