=
 OpenBabel11052422403D

 31 35  0  0  1  0  0  0  0  0999 V2000
  160.5790  207.5370  155.1980 C   0  0  0  0  0  0  0  0  0  0  0  0
  161.7320  207.9800  151.6450 N   0  0  0  0  0  0  0  0  0  0  0  0
  161.4200  206.7790  150.9040 C   0  0  0  0  0  0  0  0  0  0  0  0
  159.8880  212.8550  151.0750 O   0  0  0  0  0  0  0  0  0  0  0  0
  160.7160  212.6280  150.1500 C   0  0  0  0  0  0  0  0  0  0  0  0
  160.8760  204.4130  150.7830 C   0  0  0  0  0  0  0  0  0  0  0  0
  161.1910  208.2330  152.9560 C   0  0  0  0  0  0  0  0  0  0  0  0
  160.0750  208.8150  155.4610 C   0  0  0  0  0  3  0  0  0  0  0  0
  161.1830  205.5490  151.5380 C   0  0  0  0  0  3  0  0  0  0  0  0
  161.4300  210.3740  151.1120 C   0  0  0  0  0  0  0  0  0  0  0  0
  160.5240  206.5780  156.1540 F   0  0  0  0  0  0  0  0  0  0  0  0
  161.5610  208.1720  148.8570 C   0  0  0  0  0  2  0  0  0  0  0  0
  160.6270  203.1160  151.4630 C   0  0  0  0  0  1  0  0  0  0  0  0
  160.7510  210.5320  152.2140 N   0  0  0  0  0  0  0  0  0  0  0  0
  162.3030  209.1510  150.9440 C   0  0  2  0  0  3  0  0  0  0  0  0
  161.4800  211.4170  150.1290 N   0  0  0  0  0  2  0  0  0  0  0  0
  161.1330  207.2450  153.9490 C   0  0  0  0  0  3  0  0  0  0  0  0
  160.7980  204.4990  149.3900 C   0  0  0  0  0  3  0  0  0  0  0  0
  160.6970  209.5210  153.2310 C   0  0  0  0  0  0  0  0  0  0  0  0
  160.1320  209.8050  154.4770 C   0  0  0  0  0  3  0  0  0  0  0  0
  162.6440  208.8800  149.5370 N   0  0  0  0  0  2  0  0  0  0  0  0
  161.3500  206.8500  149.5080 C   0  0  0  0  0  0  0  0  0  0  0  0
  161.0310  205.7200  148.7510 C   0  0  0  0  0  3  0  0  0  0  0  0
  159.1260  213.0910  146.7480 C   0  0  1  0  0  3  0  0  0  0  0  0
  159.6450  214.4530  148.7940 C   0  0  0  0  0  2  0  0  0  0  0  0
  162.6720  212.1680  147.9310 C   0  0  0  0  0  1  0  0  0  0  0  0
  158.0530  212.2790  146.0520 C   0  0  0  0  0  1  0  0  0  0  0  0
  158.5740  213.6420  148.0610 C   0  0  0  0  0  2  0  0  0  0  0  0
  161.4240  213.0090  147.7260 C   0  0  2  0  0  3  0  0  0  0  0  0
  160.9090  213.6240  149.0410 C   0  0  2  0  0  3  0  0  0  0  0  0
  160.3390  212.2040  147.0140 C   0  0  0  0  0  2  0  0  0  0  0  0
  1  8  1  0  0  0  0
  1 11  1  0  0  0  0
  2  7  1  0  0  0  0
  3  9  1  0  0  0  0
  3  2  1  0  0  0  0
  5  4  2  0  0  0  0
  6 13  1  0  0  0  0
  6  9  2  0  0  0  0
  7 19  2  0  0  0  0
  7 17  1  0  0  0  0
 10 14  2  0  0  0  0
 12 22  1  0  0  0  0
 12 21  1  0  0  0  0
 14 19  1  0  0  0  0
 15 21  1  6  0  0  0
 15 10  1  0  0  0  0
 15  2  1  0  0  0  0
 16  5  1  0  0  0  0
 16 10  1  0  0  0  0
 17  1  2  0  0  0  0
 18  6  1  0  0  0  0
 19 20  1  0  0  0  0
 20  8  2  0  0  0  0
 22  3  2  0  0  0  0
 23 18  2  0  0  0  0
 23 22  1  0  0  0  0
 24 27  1  1  0  0  0
 24 31  1  0  0  0  0
 24 28  1  0  0  0  0
 25 30  1  0  0  0  0
 28 25  1  0  0  0  0
 29 26  1  1  0  0  0
 29 30  1  0  0  0  0
 30  5  1  1  0  0  0
 31 29  1  0  0  0  0
M  END
>  <MODEL>
1

>  <REMARK>
 VINA RESULT:      -9.8      0.000      0.000
  Name = 
  1 active torsions:
  status: ('A' for Active; 'I' for Inactive)
    1  A    between atoms: C_9  and  C_22
                            x       y       z     vdW  Elec       q    Type
                         _______ _______ _______ _____ _____    ______ ____

>  <TORSDO>
F 1

$$$$
=
 OpenBabel11052422403D

 31 35  0  0  1  0  0  0  0  0999 V2000
  161.1330  202.1490  150.7120 C   0  0  0  0  0  0  0  0  0  0  0  0
  161.9610  205.5490  149.3300 N   0  0  0  0  0  0  0  0  0  0  0  0
  161.5050  205.6150  147.9600 C   0  0  0  0  0  0  0  0  0  0  0  0
  160.3750  208.2500  153.5340 O   0  0  0  0  0  0  0  0  0  0  0  0
  161.0930  209.0020  152.8210 C   0  0  0  0  0  0  0  0  0  0  0  0
  160.8070  204.5720  145.8790 C   0  0  0  0  0  0  0  0  0  0  0  0
  161.5670  204.4850  150.2180 C   0  0  0  0  0  0  0  0  0  0  0  0
  160.7370  202.4940  152.0080 C   0  0  0  0  0  3  0  0  0  0  0  0
  161.2560  204.4630  147.1980 C   0  0  0  0  0  3  0  0  0  0  0  0
  161.7570  207.1320  151.2160 C   0  0  0  0  0  0  0  0  0  0  0  0
  161.1120  200.8520  150.3200 F   0  0  0  0  0  0  0  0  0  0  0  0
  161.5320  208.0820  148.2170 C   0  0  0  0  0  2  0  0  0  0  0  0
  160.5460  203.3470  145.0800 C   0  0  0  0  0  1  0  0  0  0  0  0
  161.1990  206.1990  151.9370 N   0  0  0  0  0  0  0  0  0  0  0  0
  162.5330  206.7510  149.9760 C   0  0  2  0  0  3  0  0  0  0  0  0
  161.7760  208.4920  151.6710 N   0  0  0  0  0  2  0  0  0  0  0  0
  161.5450  203.1410  149.8180 C   0  0  0  0  0  3  0  0  0  0  0  0
  160.6000  205.8340  145.3130 C   0  0  0  0  0  3  0  0  0  0  0  0
  161.1820  204.8240  151.5270 C   0  0  0  0  0  0  0  0  0  0  0  0
  160.7590  203.8310  152.4150 C   0  0  0  0  0  3  0  0  0  0  0  0
  162.7170  207.8800  149.0480 N   0  0  0  0  0  2  0  0  0  0  0  0
  161.3040  206.8730  147.3790 C   0  0  0  0  0  0  0  0  0  0  0  0
  160.8440  206.9860  146.0650 C   0  0  0  0  0  3  0  0  0  0  0  0
  160.3670  211.0480  155.9200 C   0  0  1  0  0  3  0  0  0  0  0  0
  162.2460  210.6830  154.2930 C   0  0  0  0  0  2  0  0  0  0  0  0
  158.8760  210.9620  152.3710 C   0  0  0  0  0  1  0  0  0  0  0  0
  159.8020  210.6250  157.2600 C   0  0  0  0  0  1  0  0  0  0  0  0
  161.6620  210.2860  155.6510 C   0  0  0  0  0  2  0  0  0  0  0  0
  159.9070  211.1700  153.4670 C   0  0  2  0  0  3  0  0  0  0  0  0
  161.2390  210.4600  153.1610 C   0  0  2  0  0  3  0  0  0  0  0  0
  159.3440  210.7580  154.8250 C   0  0  0  0  0  2  0  0  0  0  0  0
  1  8  1  0  0  0  0
  2 15  1  0  0  0  0
  2  7  1  0  0  0  0
  3  2  1  0  0  0  0
  5  4  2  0  0  0  0
  6  9  1  0  0  0  0
  7 19  2  0  0  0  0
  8 20  2  0  0  0  0
  9  3  2  0  0  0  0
 10 16  1  0  0  0  0
 10 14  2  0  0  0  0
 11  1  1  0  0  0  0
 12 21  1  0  0  0  0
 13  6  1  0  0  0  0
 15 21  1  6  0  0  0
 15 10  1  0  0  0  0
 16  5  1  0  0  0  0
 17  7  1  0  0  0  0
 17  1  2  0  0  0  0
 18  6  2  0  0  0  0
 18 23  1  0  0  0  0
 19 14  1  0  0  0  0
 19 20  1  0  0  0  0
 22  3  1  0  0  0  0
 22 12  1  0  0  0  0
 23 22  2  0  0  0  0
 24 27  1  1  0  0  0
 25 28  1  0  0  0  0
 28 24  1  0  0  0  0
 29 26  1  6  0  0  0
 29 31  1  0  0  0  0
 30  5  1  1  0  0  0
 30 29  1  0  0  0  0
 30 25  1  0  0  0  0
 31 24  1  0  0  0  0
M  END
>  <MODEL>
2

>  <REMARK>
 VINA RESULT:      -8.2      3.420      5.797
  Name = 
  1 active torsions:
  status: ('A' for Active; 'I' for Inactive)
    1  A    between atoms: C_9  and  C_22
                            x       y       z     vdW  Elec       q    Type
                         _______ _______ _______ _____ _____    ______ ____

>  <TORSDO>
F 1

$$$$
=
 OpenBabel11052422403D

 31 35  0  0  1  0  0  0  0  0999 V2000
  161.2010  205.4390  153.5020 C   0  0  0  0  0  0  0  0  0  0  0  0
  161.9400  207.3530  150.3490 N   0  0  0  0  0  0  0  0  0  0  0  0
  161.6310  206.5120  149.2150 C   0  0  0  0  0  0  0  0  0  0  0  0
  159.7310  211.8450  151.9050 O   0  0  0  0  0  0  0  0  0  0  0  0
  160.4690  212.0840  150.9110 C   0  0  0  0  0  0  0  0  0  0  0  0
  161.2330  204.3400  148.1980 C   0  0  0  0  0  0  0  0  0  0  0  0
  161.5250  207.0150  151.6870 C   0  0  0  0  0  0  0  0  0  0  0  0
  160.6450  206.4530  154.2880 C   0  0  0  0  0  3  0  0  0  0  0  0
  161.5430  205.1150  149.3200 C   0  0  0  0  0  3  0  0  0  0  0  0
  161.4270  209.7190  150.8390 C   0  0  0  0  0  0  0  0  0  0  0  0
  161.3100  204.1820  153.9980 F   0  0  0  0  0  0  0  0  0  0  0  0
  161.4620  208.6020  147.8900 C   0  0  0  0  0  2  0  0  0  0  0  0
  161.1430  202.8630  148.3200 C   0  0  0  0  0  1  0  0  0  0  0  0
  160.8600  209.3630  151.9580 N   0  0  0  0  0  0  0  0  0  0  0  0
  162.3560  208.7560  150.1350 C   0  0  2  0  0  3  0  0  0  0  0  0
  161.3050  211.0630  150.3540 N   0  0  0  0  0  2  0  0  0  0  0  0
  161.6380  205.7170  152.2040 C   0  0  0  0  0  3  0  0  0  0  0  0
  161.0030  204.9560  146.9650 C   0  0  0  0  0  3  0  0  0  0  0  0
  160.9800  208.0350  152.4880 C   0  0  0  0  0  0  0  0  0  0  0  0
  160.5320  207.7500  153.7800 C   0  0  0  0  0  3  0  0  0  0  0  0
  162.5620  209.0940  148.7170 N   0  0  0  0  0  2  0  0  0  0  0  0
  161.4090  207.1160  147.9710 C   0  0  0  0  0  0  0  0  0  0  0  0
  161.0860  206.3470  146.8510 C   0  0  0  0  0  3  0  0  0  0  0  0
  158.5000  213.6770  148.1000 C   0  0  1  0  0  3  0  0  0  0  0  0
  159.1440  214.1750  150.4760 C   0  0  0  0  0  2  0  0  0  0  0  0
  162.2040  212.7310  148.5590 C   0  0  0  0  0  1  0  0  0  0  0  0
  157.4150  213.0980  147.2170 C   0  0  0  0  0  1  0  0  0  0  0  0
  158.0560  213.6120  149.5590 C   0  0  0  0  0  2  0  0  0  0  0  0
  160.8900  213.4540  148.7960 C   0  0  2  0  0  3  0  0  0  0  0  0
  160.4780  213.4500  150.2800 C   0  0  2  0  0  3  0  0  0  0  0  0
  159.7900  212.8860  147.9010 C   0  0  0  0  0  2  0  0  0  0  0  0
  1 11  1  0  0  0  0
  1  8  1  0  0  0  0
  2  7  1  0  0  0  0
  3  9  1  0  0  0  0
  3  2  1  0  0  0  0
  5  4  2  0  0  0  0
  6 13  1  0  0  0  0
  6  9  2  0  0  0  0
  7 17  1  0  0  0  0
  7 19  2  0  0  0  0
 10 14  2  0  0  0  0
 12 22  1  0  0  0  0
 12 21  1  0  0  0  0
 14 19  1  0  0  0  0
 15 21  1  6  0  0  0
 15  2  1  0  0  0  0
 15 10  1  0  0  0  0
 16 10  1  0  0  0  0
 16  5  1  0  0  0  0
 17  1  2  0  0  0  0
 18  6  1  0  0  0  0
 19 20  1  0  0  0  0
 20  8  2  0  0  0  0
 22  3  2  0  0  0  0
 23 18  2  0  0  0  0
 23 22  1  0  0  0  0
 24 27  1  6  0  0  0
 24 28  1  0  0  0  0
 28 25  1  0  0  0  0
 29 26  1  1  0  0  0
 29 30  1  0  0  0  0
 30 25  1  0  0  0  0
 30  5  1  6  0  0  0
 31 24  1  0  0  0  0
 31 29  1  0  0  0  0
M  END
>  <MODEL>
3

>  <REMARK>
 VINA RESULT:      -7.5      1.401      1.853
  Name = 
  1 active torsions:
  status: ('A' for Active; 'I' for Inactive)
    1  A    between atoms: C_9  and  C_22
                            x       y       z     vdW  Elec       q    Type
                         _______ _______ _______ _____ _____    ______ ____

>  <TORSDO>
F 1

$$$$
