=
 OpenBabel11062409053D

 37 43  0  0  1  0  0  0  0  0999 V2000
  161.0950  207.1840  154.0280 C   0  0  1  0  0  0  0  0  0  0  0  0
  161.0350  204.2630  151.9650 C   0  0  0  0  0  0  0  0  0  0  0  0
  161.4620  207.1410  149.6580 C   0  0  1  0  0  3  0  0  0  0  0  0
  161.3010  207.7240  155.4570 C   0  0  1  0  0  3  0  0  0  0  0  0
  162.6600  210.0940  151.3970 C   0  0  0  0  0  2  0  0  0  0  0  0
  161.3630  204.1320  149.5130 C   0  0  0  0  0  3  0  0  0  0  0  0
  161.3560  208.6010  150.1410 C   0  0  2  0  0  3  0  0  0  0  0  0
  161.5660  210.0320  154.5370 C   0  0  0  0  0  0  0  0  0  0  0  0
  160.4840  206.2730  150.4170 C   0  0  0  0  0  2  0  0  0  0  0  0
  162.1910  209.4490  149.2230 C   0  0  2  0  0  3  0  0  0  0  0  0
  161.4280  204.5220  148.0880 C   0  0  0  0  0  3  0  0  0  0  0  0
  160.9690  209.2070  155.6250 C   0  0  0  0  0  2  0  0  0  0  0  0
  161.2940  205.6670  153.8990 C   0  0  1  0  0  3  0  0  0  0  0  0
  162.4740  203.8230  152.2920 C   0  0  0  0  0  1  0  0  0  0  0  0
  161.5910  208.1540  147.2590 C   0  0  0  0  0  2  0  0  0  0  0  0
  161.2940  205.7300  147.5290 C   0  0  0  0  0  3  0  0  0  0  0  0
  160.4390  205.1750  152.8870 O   0  0  0  0  0  0  0  0  0  0  0  0
  160.7380  210.3300  153.3290 C   0  0  0  0  0  2  0  0  0  0  0  0
  161.8360  208.8690  151.5100 N   0  0  2  0  0  0  0  0  0  0  0  0
  161.0090  207.0550  148.1770 C   0  0  1  0  0  3  0  0  0  0  0  0
  160.1120  207.8560  153.0410 C   0  0  0  0  0  2  0  0  0  0  0  0
  160.9960  204.8730  150.5720 C   0  0  0  0  0  0  0  0  0  0  0  0
  162.4810  210.6940  150.0120 C   0  0  1  0  0  3  0  0  0  0  0  0
  160.1810  203.0050  151.9730 C   0  0  0  0  0  1  0  0  0  0  0  0
  160.6460  209.1280  152.3570 C   0  0  1  0  0  3  0  0  0  0  0  0
  162.7250  210.4080  154.6070 O   0  0  0  0  0  0  0  0  0  0  0  0
  162.3500  206.6430  153.3820 C   0  0  0  0  0  2  0  0  0  0  0  0
  161.5220  209.5510  147.8730 C   0  0  0  0  0  2  0  0  0  0  0  0
  160.6980  212.0930  151.1920 C   0  0  0  0  0  3  0  0  0  0  0  0
  161.3810  211.7320  150.0170 C   0  0  0  0  0  0  0  0  0  0  0  0
  161.1120  212.4280  148.8340 C   0  0  0  0  0  3  0  0  0  0  0  0
  159.9040  214.1260  147.6710 F   0  0  0  0  0  0  0  0  0  0  0  0
  159.4860  213.8040  149.9910 C   0  0  0  0  0  3  0  0  0  0  0  0
  160.1650  213.4600  148.8210 C   0  0  0  0  0  0  0  0  0  0  0  0
  159.7510  213.1190  151.1790 C   0  0  0  0  0  3  0  0  0  0  0  0
  159.1600  206.9360  156.2300 O   0  0  0  0  0  1  0  0  0  0  0  0
  160.5330  206.9130  156.4990 C   0  0  0  0  0  2  0  0  0  0  0  0
  1 21  1  6  0  0  0
  1  4  1  0  0  0  0
  2 24  1  0  0  0  0
  2 14  1  0  0  0  0
  2 17  1  0  0  0  0
  3  7  1  0  0  0  0
  3  9  1  1  0  0  0
  4 12  1  0  0  0  0
  4 37  1  1  0  0  0
  5 19  1  0  0  0  0
  6 22  2  0  0  0  0
  7 19  1  0  0  0  0
  8 26  2  0  0  0  0
  8 12  1  0  0  0  0
  9 22  1  0  0  0  0
 10 23  1  0  0  0  0
 10  7  1  0  0  0  0
 11  6  1  0  0  0  0
 13  1  1  0  0  0  0
 15 28  1  0  0  0  0
 15 20  1  0  0  0  0
 16 11  2  0  0  0  0
 16 20  1  0  0  0  0
 17 13  1  0  0  0  0
 18  8  1  0  0  0  0
 19 25  1  0  0  0  0
 20  3  1  0  0  0  0
 22  2  1  0  0  0  0
 23 30  1  0  0  0  0
 23  5  1  0  0  0  0
 25 21  1  0  0  0  0
 25 18  1  0  0  0  0
 27 13  1  0  0  0  0
 27  1  1  0  0  0  0
 28 10  1  0  0  0  0
 30 29  2  0  0  0  0
 31 30  1  0  0  0  0
 32 34  1  0  0  0  0
 33 35  2  0  0  0  0
 34 31  2  0  0  0  0
 34 33  1  0  0  0  0
 35 29  1  0  0  0  0
 36 37  1  0  0  0  0
M  END
>  <MODEL>
1

>  <REMARK>
 VINA RESULT:      -3.7      0.000      0.000
  Name = 
  2 active torsions:
  status: ('A' for Active; 'I' for Inactive)
    1  A    between atoms: C_5  and  C_23
    2  A    between atoms: C_6  and  C_31
                            x       y       z     vdW  Elec       q    Type
                         _______ _______ _______ _____ _____    ______ ____

>  <TORSDO>
F 2

$$$$
=
 OpenBabel11062409053D

 37 43  0  0  1  0  0  0  0  0999 V2000
  159.1270  211.0640  154.5860 C   0  0  1  0  0  0  0  0  0  0  0  0
  160.5600  207.8100  154.9710 C   0  0  0  0  0  0  0  0  0  0  0  0
  161.4750  208.9360  151.5530 C   0  0  1  0  0  3  0  0  0  0  0  0
  158.5450  212.2890  155.3190 C   0  0  1  0  0  3  0  0  0  0  0  0
  161.1720  212.5370  151.1980 C   0  0  0  0  0  2  0  0  0  0  0  0
  162.0030  206.5900  153.3690 C   0  0  0  0  0  3  0  0  0  0  0  0
  160.8930  210.2220  150.9320 C   0  0  2  0  0  3  0  0  0  0  0  0
  158.7810  213.6390  153.2290 C   0  0  0  0  0  0  0  0  0  0  0  0
  160.4320  208.2640  152.4180 C   0  0  0  0  0  2  0  0  0  0  0  0
  161.8880  210.7360  149.9290 C   0  0  2  0  0  3  0  0  0  0  0  0
  162.6480  206.1720  152.1060 C   0  0  0  0  0  3  0  0  0  0  0  0
  157.9100  213.3320  154.3990 C   0  0  0  0  0  2  0  0  0  0  0  0
  159.6350  209.9580  155.5230 C   0  0  1  0  0  3  0  0  0  0  0  0
  161.7370  208.2720  155.8500 C   0  0  0  0  0  1  0  0  0  0  0  0
  162.5120  208.5070  149.2000 C   0  0  0  0  0  2  0  0  0  0  0  0
  162.5710  206.7210  150.8880 C   0  0  0  0  0  3  0  0  0  0  0  0
  159.4510  208.7040  154.8990 O   0  0  0  0  0  0  0  0  0  0  0  0
  158.5680  212.8810  151.9600 C   0  0  0  0  0  2  0  0  0  0  0  0
  160.6270  211.3330  151.8660 N   0  0  2  0  0  0  0  0  0  0  0  0
  161.7830  207.9150  150.4280 C   0  0  1  0  0  3  0  0  0  0  0  0
  158.6080  210.6290  153.1950 C   0  0  0  0  0  2  0  0  0  0  0  0
  161.0600  207.5270  153.5630 C   0  0  0  0  0  0  0  0  0  0  0  0
  161.5480  212.1900  149.7660 C   0  0  1  0  0  3  0  0  0  0  0  0
  160.0450  206.5140  155.5780 C   0  0  0  0  0  1  0  0  0  0  0  0
  159.1560  211.4490  152.0130 C   0  0  1  0  0  3  0  0  0  0  0  0
  159.6860  214.4520  153.3250 O   0  0  0  0  0  0  0  0  0  0  0  0
  160.6130  210.8700  154.7820 C   0  0  0  0  0  2  0  0  0  0  0  0
  161.9140  209.8290  148.7230 C   0  0  0  0  0  2  0  0  0  0  0  0
  159.3340  213.3280  149.1890 C   0  0  0  0  0  3  0  0  0  0  0  0
  160.4030  212.4890  148.8250 C   0  0  0  0  0  0  0  0  0  0  0  0
  160.4660  211.9990  147.5160 C   0  0  0  0  0  3  0  0  0  0  0  0
  159.5340  211.8480  145.3250 F   0  0  0  0  0  0  0  0  0  0  0  0
  158.4090  213.1560  146.9630 C   0  0  0  0  0  3  0  0  0  0  0  0
  159.4710  212.3310  146.5880 C   0  0  0  0  0  0  0  0  0  0  0  0
  158.3390  213.6550  148.2650 C   0  0  0  0  0  3  0  0  0  0  0  0
  156.3240  211.5120  155.8360 O   0  0  0  0  0  1  0  0  0  0  0  0
  157.5440  211.8950  156.4030 C   0  0  0  0  0  2  0  0  0  0  0  0
  1 21  1  6  0  0  0
  1 27  1  0  0  0  0
  1  4  1  0  0  0  0
  1 13  1  0  0  0  0
  2 24  1  0  0  0  0
  2 14  1  0  0  0  0
  3  9  1  1  0  0  0
  4 37  1  1  0  0  0
  5 19  1  0  0  0  0
  6 22  2  0  0  0  0
  7  3  1  0  0  0  0
  7 19  1  0  0  0  0
  8 26  2  0  0  0  0
  8 12  1  0  0  0  0
  9 22  1  0  0  0  0
 10  7  1  0  0  0  0
 11  6  1  0  0  0  0
 12  4  1  0  0  0  0
 15 20  1  0  0  0  0
 16 11  2  0  0  0  0
 17  2  1  0  0  0  0
 17 13  1  0  0  0  0
 18 25  1  0  0  0  0
 18  8  1  0  0  0  0
 19 25  1  0  0  0  0
 20 16  1  0  0  0  0
 20  3  1  0  0  0  0
 22  2  1  0  0  0  0
 23 10  1  0  0  0  0
 23  5  1  0  0  0  0
 25 21  1  0  0  0  0
 27 13  1  0  0  0  0
 28 15  1  0  0  0  0
 28 10  1  0  0  0  0
 30 29  1  0  0  0  0
 30 23  1  0  0  0  0
 31 30  2  0  0  0  0
 32 34  1  0  0  0  0
 33 35  1  0  0  0  0
 34 33  2  0  0  0  0
 34 31  1  0  0  0  0
 35 29  2  0  0  0  0
 36 37  1  0  0  0  0
M  END
>  <MODEL>
2

>  <REMARK>
 VINA RESULT:      -3.2      2.251      3.814
  Name = 
  2 active torsions:
  status: ('A' for Active; 'I' for Inactive)
    1  A    between atoms: C_5  and  C_23
    2  A    between atoms: C_6  and  C_31
                            x       y       z     vdW  Elec       q    Type
                         _______ _______ _______ _____ _____    ______ ____

>  <TORSDO>
F 2

$$$$
=
 OpenBabel11062409053D

 37 43  0  0  1  0  0  0  0  0999 V2000
  159.9580  212.2100  152.5190 C   0  0  1  0  0  0  0  0  0  0  0  0
  159.2360  211.3030  155.9020 C   0  0  0  0  0  0  0  0  0  0  0  0
  160.7360  208.2920  154.3300 C   0  0  1  0  0  3  0  0  0  0  0  0
  160.1690  213.3790  151.5370 C   0  0  1  0  0  3  0  0  0  0  0  0
  162.5800  209.1260  151.3150 C   0  0  0  0  0  2  0  0  0  0  0  0
  159.7570  209.1660  157.0430 C   0  0  0  0  0  3  0  0  0  0  0  0
  161.0230  208.2150  152.8170 C   0  0  2  0  0  3  0  0  0  0  0  0
  161.2050  211.8010  149.8980 C   0  0  0  0  0  0  0  0  0  0  0  0
  159.4710  209.0840  154.5760 C   0  0  0  0  0  2  0  0  0  0  0  0
  162.1620  207.2550  152.6160 C   0  0  2  0  0  3  0  0  0  0  0  0
  160.0790  207.7400  157.2610 C   0  0  0  0  0  3  0  0  0  0  0  0
  160.2810  212.9580  150.0700 C   0  0  0  0  0  2  0  0  0  0  0  0
  159.7060  212.6510  153.9690 C   0  0  1  0  0  3  0  0  0  0  0  0
  160.4370  212.0490  156.5130 C   0  0  0  0  0  1  0  0  0  0  0  0
  161.4040  205.7730  154.3820 C   0  0  0  0  0  2  0  0  0  0  0  0
  160.3700  206.7870  156.3680 C   0  0  0  0  0  3  0  0  0  0  0  0
  158.8500  211.7150  154.5920 O   0  0  0  0  0  0  0  0  0  0  0  0
  160.6310  210.4220  149.9000 C   0  0  0  0  0  2  0  0  0  0  0  0
  161.4200  209.4780  152.1660 N   0  0  2  0  0  0  0  0  0  0  0  0
  160.4310  206.8700  154.8690 C   0  0  1  0  0  3  0  0  0  0  0  0
  159.3250  210.8730  152.0660 C   0  0  0  0  0  2  0  0  0  0  0  0
  159.5230  209.8090  155.8860 C   0  0  0  0  0  0  0  0  0  0  0  0
  162.7290  207.6130  151.2720 C   0  0  1  0  0  3  0  0  0  0  0  0
  158.0490  211.5650  156.8160 C   0  0  0  0  0  1  0  0  0  0  0  0
  160.2820  209.9220  151.3230 C   0  0  1  0  0  3  0  0  0  0  0  0
  162.4090  211.9750  149.8140 O   0  0  0  0  0  0  0  0  0  0  0  0
  161.0530  212.0600  153.5510 C   0  0  0  0  0  2  0  0  0  0  0  0
  161.6940  205.8450  152.8850 C   0  0  0  0  0  2  0  0  0  0  0  0
  161.8730  207.7370  148.8670 C   0  0  0  0  0  3  0  0  0  0  0  0
  161.9950  207.0380  150.0810 C   0  0  0  0  0  0  0  0  0  0  0  0
  161.5170  205.7250  150.1600 C   0  0  0  0  0  3  0  0  0  0  0  0
  160.4470  203.8560  149.1320 F   0  0  0  0  0  0  0  0  0  0  0  0
  160.7900  205.8310  147.8500 C   0  0  0  0  0  3  0  0  0  0  0  0
  160.9140  205.1240  149.0470 C   0  0  0  0  0  0  0  0  0  0  0  0
  161.2680  207.1400  147.7590 C   0  0  0  0  0  3  0  0  0  0  0  0
  157.8700  213.9970  151.1680 O   0  0  0  0  0  1  0  0  0  0  0  0
  159.0930  214.4530  151.6730 C   0  0  0  0  0  2  0  0  0  0  0  0
  1 21  1  6  0  0  0
  1 27  1  0  0  0  0
  1 13  1  0  0  0  0
  2 14  1  0  0  0  0
  2 24  1  0  0  0  0
  3  9  1  6  0  0  0
  3 20  1  0  0  0  0
  4 37  1  6  0  0  0
  4  1  1  0  0  0  0
  5 19  1  0  0  0  0
  6 11  1  0  0  0  0
  7  3  1  0  0  0  0
  8 18  1  0  0  0  0
  8 12  1  0  0  0  0
  9 22  1  0  0  0  0
 10  7  1  0  0  0  0
 10 28  1  0  0  0  0
 12  4  1  0  0  0  0
 13 17  1  0  0  0  0
 15 20  1  0  0  0  0
 16 11  2  0  0  0  0
 17  2  1  0  0  0  0
 18 25  1  0  0  0  0
 19  7  1  0  0  0  0
 20 16  1  0  0  0  0
 22  2  1  0  0  0  0
 22  6  2  0  0  0  0
 23  5  1  0  0  0  0
 23 10  1  0  0  0  0
 25 21  1  0  0  0  0
 25 19  1  0  0  0  0
 26  8  2  0  0  0  0
 27 13  1  0  0  0  0
 28 15  1  0  0  0  0
 29 30  1  0  0  0  0
 30 31  2  0  0  0  0
 30 23  1  0  0  0  0
 33 34  2  0  0  0  0
 34 32  1  0  0  0  0
 34 31  1  0  0  0  0
 35 33  1  0  0  0  0
 35 29  2  0  0  0  0
 36 37  1  0  0  0  0
M  END
>  <MODEL>
3

>  <REMARK>
 VINA RESULT:      -1.3      2.766      6.743
  Name = 
  2 active torsions:
  status: ('A' for Active; 'I' for Inactive)
    1  A    between atoms: C_5  and  C_23
    2  A    between atoms: C_6  and  C_31
                            x       y       z     vdW  Elec       q    Type
                         _______ _______ _______ _____ _____    ______ ____

>  <TORSDO>
F 2

$$$$
