=
 OpenBabel11052423013D

 28 30  0  0  1  0  0  0  0  0999 V2000
  161.2260  207.3140  151.6960 C   0  0  0  0  0  0  0  0  0  0  0  0
  161.0550  202.5020  151.8790 F   0  0  0  0  0  0  0  0  0  0  0  0
  161.1000  204.8170  149.0230 C   0  0  0  0  0  0  0  0  0  0  0  0
  161.1390  204.8780  151.8040 C   0  0  0  0  0  0  0  0  0  0  0  0
  161.1520  206.0020  149.6910 N   0  0  0  0  0  0  0  0  0  0  0  0
  161.2120  206.1800  153.8480 C   0  0  0  0  0  3  0  0  0  0  0  0
  161.0870  203.6440  151.1440 C   0  0  0  0  0  0  0  0  0  0  0  0
  161.1590  204.9430  153.2030 C   0  0  0  0  0  3  0  0  0  0  0  0
  161.0670  203.6040  149.7330 C   0  0  0  0  0  0  0  0  0  0  0  0
  161.2440  207.3580  153.0990 C   0  0  0  0  0  3  0  0  0  0  0  0
  161.1730  206.0690  151.0480 C   0  0  0  0  0  0  0  0  0  0  0  0
  162.4910  204.6640  146.9670 C   0  0  0  0  0  2  0  0  0  0  0  0
  160.4610  206.1020  146.9930 C   0  0  0  0  0  2  0  0  0  0  0  0
  161.5100  205.5340  144.7970 C   0  0  0  0  0  0  0  0  0  0  0  0
  161.0800  204.8130  147.5250 C   0  0  2  0  0  3  0  0  0  0  0  0
  160.5640  206.1850  145.4930 C   0  0  0  0  0  3  0  0  0  0  0  0
  161.5290  205.6580  143.4450 F   0  0  0  0  0  0  0  0  0  0  0  0
  162.4370  204.5340  145.4450 C   0  0  0  0  0  2  0  0  0  0  0  0
  161.0140  202.4050  149.0030 O   0  0  0  0  0  0  0  0  0  0  0  0
  159.9260  201.4920  149.0310 C   0  0  0  0  0  1  0  0  0  0  0  0
  161.2570  208.5210  150.9170 N   0  0  0  0  0  2  0  0  0  0  0  0
  162.1140  209.6820  151.1650 C   0  0  1  0  0  3  0  0  0  0  0  0
  162.0420  210.1780  148.6620 S   0  0  0  0  0  0  0  0  0  0  0  0
  162.0620  210.6480  150.0180 C   0  0  0  0  0  3  0  0  0  0  0  0
  161.7400  210.3490  152.4840 C   0  0  0  0  0  2  0  0  0  0  0  0
  159.5050  210.9450  153.4280 C   0  0  0  0  0  3  0  0  0  0  0  0
  159.8190  210.3310  154.7540 C   0  0  0  0  0  1  0  0  0  0  0  0
  160.3720  210.9600  152.4100 C   0  0  0  0  0  3  0  0  0  0  0  0
  1 10  1  0  0  0  0
  3  5  2  0  0  0  0
  3  9  1  0  0  0  0
  4  8  2  0  0  0  0
  5 11  1  0  0  0  0
  7  4  1  0  0  0  0
  7  2  1  0  0  0  0
  8  6  1  0  0  0  0
  9  7  2  0  0  0  0
 10  6  2  0  0  0  0
 11  1  2  0  0  0  0
 11  4  1  0  0  0  0
 12 15  1  0  0  0  0
 13 15  1  0  0  0  0
 14 18  1  0  0  0  0
 14 16  2  0  0  0  0
 15  3  1  1  0  0  0
 16 13  1  0  0  0  0
 17 14  1  0  0  0  0
 18 12  1  0  0  0  0
 19 20  1  0  0  0  0
 19  9  1  0  0  0  0
 21 22  1  0  0  0  0
 21  1  1  0  0  0  0
 22 24  1  6  0  0  0
 22 25  1  0  0  0  0
 23 24  2  0  0  0  0
 26 27  1  0  0  0  0
 28 25  1  0  0  0  0
 28 26  2  0  0  0  0
M  END
>  <MODEL>
1

>  <REMARK>
 VINA RESULT:      -8.9      0.000      0.000
  Name = 
  7 active torsions:
  status: ('A' for Active; 'I' for Inactive)
    1  A    between atoms: C_1  and  N_2
    2  A    between atoms: N_2  and  C_3
    3  A    between atoms: C_3  and  C_7
    4  A    between atoms: C_3  and  C_11
    5  A    between atoms: C_7  and  C_28
    6  A    between atoms: C_10  and  C_13
    7  A    between atoms: O_14  and  C_25
                            x       y       z     vdW  Elec       q    Type
                         _______ _______ _______ _____ _____    ______ ____

>  <TORSDO>
F 7

$$$$
=
 OpenBabel11052423013D

 28 30  0  0  1  0  0  0  0  0999 V2000
  161.9830  207.0050  151.3690 C   0  0  0  0  0  0  0  0  0  0  0  0
  160.3900  202.4590  151.5080 F   0  0  0  0  0  0  0  0  0  0  0  0
  161.1740  204.6660  148.6730 C   0  0  0  0  0  0  0  0  0  0  0  0
  161.1770  204.7040  151.4550 C   0  0  0  0  0  0  0  0  0  0  0  0
  161.5620  205.7800  149.3520 N   0  0  0  0  0  0  0  0  0  0  0  0
  161.5930  205.9200  153.5110 C   0  0  0  0  0  3  0  0  0  0  0  0
  160.7730  203.5430  150.7830 C   0  0  0  0  0  0  0  0  0  0  0  0
  161.1880  204.7560  152.8540 C   0  0  0  0  0  3  0  0  0  0  0  0
  160.7690  203.5150  149.3720 C   0  0  0  0  0  0  0  0  0  0  0  0
  161.9870  207.0370  152.7720 C   0  0  0  0  0  3  0  0  0  0  0  0
  161.5760  205.8340  150.7100 C   0  0  0  0  0  0  0  0  0  0  0  0
  162.6100  204.6710  146.6430 C   0  0  0  0  0  2  0  0  0  0  0  0
  160.4460  205.8970  146.6390 C   0  0  0  0  0  2  0  0  0  0  0  0
  161.5870  205.4570  144.4600 C   0  0  0  0  0  0  0  0  0  0  0  0
  161.1820  204.6720  147.1750 C   0  0  2  0  0  3  0  0  0  0  0  0
  160.5670  206.0020  145.1430 C   0  0  0  0  0  3  0  0  0  0  0  0
  161.6170  205.5930  143.1100 F   0  0  0  0  0  0  0  0  0  0  0  0
  162.5980  204.5500  145.1190 C   0  0  0  0  0  2  0  0  0  0  0  0
  160.3770  202.3880  148.6310 O   0  0  0  0  0  0  0  0  0  0  0  0
  161.1220  201.1820  148.5430 C   0  0  0  0  0  1  0  0  0  0  0  0
  162.3860  208.1500  150.6010 N   0  0  0  0  0  2  0  0  0  0  0  0
  161.5750  209.3430  150.3460 C   0  0  1  0  0  3  0  0  0  0  0  0
  160.7800  210.5840  152.4300 S   0  0  0  0  0  0  0  0  0  0  0  0
  161.7750  210.3740  151.4170 C   0  0  0  0  0  3  0  0  0  0  0  0
  161.8700  209.9030  148.9590 C   0  0  0  0  0  2  0  0  0  0  0  0
  161.8140  212.2950  148.2410 C   0  0  0  0  0  3  0  0  0  0  0  0
  160.7730  212.0350  147.2010 C   0  0  0  0  0  1  0  0  0  0  0  0
  162.3020  211.3370  149.0380 C   0  0  0  0  0  3  0  0  0  0  0  0
  1 10  1  0  0  0  0
  3  5  2  0  0  0  0
  3  9  1  0  0  0  0
  4  8  2  0  0  0  0
  5 11  1  0  0  0  0
  7  4  1  0  0  0  0
  7  2  1  0  0  0  0
  8  6  1  0  0  0  0
  9  7  2  0  0  0  0
 10  6  2  0  0  0  0
 11  1  2  0  0  0  0
 11  4  1  0  0  0  0
 12 15  1  0  0  0  0
 13 15  1  0  0  0  0
 14 18  1  0  0  0  0
 14 16  2  0  0  0  0
 15  3  1  1  0  0  0
 16 13  1  0  0  0  0
 17 14  1  0  0  0  0
 18 12  1  0  0  0  0
 19  9  1  0  0  0  0
 20 19  1  0  0  0  0
 21  1  1  0  0  0  0
 22 25  1  6  0  0  0
 22 21  1  0  0  0  0
 22 24  1  0  0  0  0
 24 23  2  0  0  0  0
 25 28  1  0  0  0  0
 26 28  2  0  0  0  0
 27 26  1  0  0  0  0
M  END
>  <MODEL>
2

>  <REMARK>
 VINA RESULT:      -8.6      1.412      2.321
  Name = 
  7 active torsions:
  status: ('A' for Active; 'I' for Inactive)
    1  A    between atoms: C_1  and  N_2
    2  A    between atoms: N_2  and  C_3
    3  A    between atoms: C_3  and  C_7
    4  A    between atoms: C_3  and  C_11
    5  A    between atoms: C_7  and  C_28
    6  A    between atoms: C_10  and  C_13
    7  A    between atoms: O_14  and  C_25
                            x       y       z     vdW  Elec       q    Type
                         _______ _______ _______ _____ _____    ______ ____

>  <TORSDO>
F 7

$$$$
=
 OpenBabel11052423013D

 28 30  0  0  1  0  0  0  0  0999 V2000
  161.0520  205.0910  148.8880 C   0  0  0  0  0  0  0  0  0  0  0  0
  162.6400  209.5680  148.0790 F   0  0  0  0  0  0  0  0  0  0  0  0
  161.5630  207.9030  151.1750 C   0  0  0  0  0  0  0  0  0  0  0  0
  161.8580  207.3550  148.4630 C   0  0  0  0  0  0  0  0  0  0  0  0
  161.2530  206.6750  150.6770 N   0  0  0  0  0  0  0  0  0  0  0  0
  161.6640  205.7740  146.6360 C   0  0  0  0  0  3  0  0  0  0  0  0
  162.1860  208.6280  148.9470 C   0  0  0  0  0  0  0  0  0  0  0  0
  161.9940  207.0470  147.1050 C   0  0  0  0  0  3  0  0  0  0  0  0
  162.0390  208.9140  150.3220 C   0  0  0  0  0  0  0  0  0  0  0  0
  161.1950  204.8030  147.5230 C   0  0  0  0  0  3  0  0  0  0  0  0
  161.3850  206.3720  149.3590 C   0  0  0  0  0  0  0  0  0  0  0  0
  160.9050  206.9240  153.3640 C   0  0  0  0  0  2  0  0  0  0  0  0
  160.4000  209.3080  152.8650 C   0  0  0  0  0  2  0  0  0  0  0  0
  160.2380  208.5090  155.2270 C   0  0  0  0  0  0  0  0  0  0  0  0
  161.3940  208.1720  152.6390 C   0  0  2  0  0  3  0  0  0  0  0  0
  160.1030  209.4980  154.3290 C   0  0  0  0  0  3  0  0  0  0  0  0
  159.9550  208.7660  156.5300 F   0  0  0  0  0  0  0  0  0  0  0  0
  160.8610  207.1800  154.8700 C   0  0  0  0  0  2  0  0  0  0  0  0
  162.3470  210.1670  150.8790 O   0  0  0  0  0  0  0  0  0  0  0  0
  161.8680  211.4090  150.3820 C   0  0  0  0  0  1  0  0  0  0  0  0
  160.5690  204.0990  149.8080 N   0  0  0  0  0  2  0  0  0  0  0  0
  161.1480  202.7710  150.0230 C   0  0  1  0  0  3  0  0  0  0  0  0
  160.9560  203.4540  152.4740 S   0  0  0  0  0  0  0  0  0  0  0  0
  161.2660  202.4610  151.4860 C   0  0  0  0  0  3  0  0  0  0  0  0
  160.3400  201.7110  149.2830 C   0  0  0  0  0  2  0  0  0  0  0  0
  161.3950  200.6100  147.3030 C   0  0  0  0  0  3  0  0  0  0  0  0
  160.6950  201.5110  146.3370 C   0  0  0  0  0  1  0  0  0  0  0  0
  161.2420  200.7060  148.6280 C   0  0  0  0  0  3  0  0  0  0  0  0
  1 11  1  0  0  0  0
  1 21  1  0  0  0  0
  2  7  1  0  0  0  0
  4  7  2  0  0  0  0
  4 11  1  0  0  0  0
  5  3  1  0  0  0  0
  6  8  2  0  0  0  0
  6 10  1  0  0  0  0
  7  9  1  0  0  0  0
  8  4  1  0  0  0  0
  9 19  1  0  0  0  0
  9  3  2  0  0  0  0
 10  1  2  0  0  0  0
 11  5  2  0  0  0  0
 12 18  1  0  0  0  0
 13 16  1  0  0  0  0
 14 17  1  0  0  0  0
 15  3  1  6  0  0  0
 15 13  1  0  0  0  0
 15 12  1  0  0  0  0
 16 14  2  0  0  0  0
 18 14  1  0  0  0  0
 20 19  1  0  0  0  0
 21 22  1  0  0  0  0
 22 25  1  6  0  0  0
 22 24  1  0  0  0  0
 24 23  2  0  0  0  0
 26 28  2  0  0  0  0
 27 26  1  0  0  0  0
 28 25  1  0  0  0  0
M  END
>  <MODEL>
3

>  <REMARK>
 VINA RESULT:      -7.7      3.181      8.031
  Name = 
  7 active torsions:
  status: ('A' for Active; 'I' for Inactive)
    1  A    between atoms: C_1  and  N_2
    2  A    between atoms: N_2  and  C_3
    3  A    between atoms: C_3  and  C_7
    4  A    between atoms: C_3  and  C_11
    5  A    between atoms: C_7  and  C_28
    6  A    between atoms: C_10  and  C_13
    7  A    between atoms: O_14  and  C_25
                            x       y       z     vdW  Elec       q    Type
                         _______ _______ _______ _____ _____    ______ ____

>  <TORSDO>
F 7

$$$$
=
 OpenBabel11052423013D

 28 30  0  0  1  0  0  0  0  0999 V2000
  160.8810  203.4180  149.2130 C   0  0  0  0  0  0  0  0  0  0  0  0
  161.2590  204.7360  153.8320 F   0  0  0  0  0  0  0  0  0  0  0  0
  161.2260  206.7260  150.7400 C   0  0  0  0  0  0  0  0  0  0  0  0
  161.0720  204.0710  151.5560 C   0  0  0  0  0  0  0  0  0  0  0  0
  161.0940  205.7260  149.8270 N   0  0  0  0  0  0  0  0  0  0  0  0
  160.8590  201.7300  150.9630 C   0  0  0  0  0  3  0  0  0  0  0  0
  161.2060  205.0790  152.5190 C   0  0  0  0  0  0  0  0  0  0  0  0
  160.9930  202.7250  151.9340 C   0  0  0  0  0  3  0  0  0  0  0  0
  161.2850  206.4290  152.1130 C   0  0  0  0  0  0  0  0  0  0  0  0
  160.8040  202.0750  149.6110 C   0  0  0  0  0  3  0  0  0  0  0  0
  161.0160  204.4180  150.1890 C   0  0  0  0  0  0  0  0  0  0  0  0
  161.9560  208.2280  148.8980 C   0  0  0  0  0  2  0  0  0  0  0  0
  162.1120  208.9910  151.2610 C   0  0  0  0  0  2  0  0  0  0  0  0
  162.3200  210.6800  149.4310 C   0  0  0  0  0  0  0  0  0  0  0  0
  161.3070  208.1480  150.2750 C   0  0  2  0  0  3  0  0  0  0  0  0
  162.3310  210.3860  150.7410 C   0  0  0  0  0  3  0  0  0  0  0  0
  162.5210  211.9660  149.0470 F   0  0  0  0  0  0  0  0  0  0  0  0
  161.9150  209.6680  148.3860 C   0  0  0  0  0  2  0  0  0  0  0  0
  161.4210  207.4930  153.0210 O   0  0  0  0  0  0  0  0  0  0  0  0
  160.8000  207.5470  154.2980 C   0  0  0  0  0  1  0  0  0  0  0  0
  160.8280  203.7830  147.8240 N   0  0  0  0  0  2  0  0  0  0  0  0
  161.8930  203.5780  146.8400 C   0  0  1  0  0  3  0  0  0  0  0  0
  160.4560  201.6970  145.8850 S   0  0  0  0  0  0  0  0  0  0  0  0
  161.4110  202.7490  145.6860 C   0  0  0  0  0  3  0  0  0  0  0  0
  162.4570  204.9170  146.3780 C   0  0  0  0  0  2  0  0  0  0  0  0
  160.8070  206.2030  145.0110 C   0  0  0  0  0  3  0  0  0  0  0  0
  161.2060  205.5130  143.7470 C   0  0  0  0  0  1  0  0  0  0  0  0
  161.3640  205.9290  146.1960 C   0  0  0  0  0  3  0  0  0  0  0  0
  1 10  2  0  0  0  0
  1 11  1  0  0  0  0
  3  9  1  0  0  0  0
  4  8  1  0  0  0  0
  4  7  1  0  0  0  0
  5 11  1  0  0  0  0
  5  3  2  0  0  0  0
  6  8  2  0  0  0  0
  7  2  1  0  0  0  0
  9  7  2  0  0  0  0
  9 19  1  0  0  0  0
 10  6  1  0  0  0  0
 11  4  2  0  0  0  0
 12 15  1  0  0  0  0
 14 16  2  0  0  0  0
 15  3  1  1  0  0  0
 15 13  1  0  0  0  0
 16 13  1  0  0  0  0
 17 14  1  0  0  0  0
 18 12  1  0  0  0  0
 18 14  1  0  0  0  0
 19 20  1  0  0  0  0
 21  1  1  0  0  0  0
 22 24  1  6  0  0  0
 22 21  1  0  0  0  0
 24 23  2  0  0  0  0
 25 22  1  0  0  0  0
 26 28  2  0  0  0  0
 27 26  1  0  0  0  0
 28 25  1  0  0  0  0
M  END
>  <MODEL>
4

>  <REMARK>
 VINA RESULT:      -7.5      3.080      6.369
  Name = 
  7 active torsions:
  status: ('A' for Active; 'I' for Inactive)
    1  A    between atoms: C_1  and  N_2
    2  A    between atoms: N_2  and  C_3
    3  A    between atoms: C_3  and  C_7
    4  A    between atoms: C_3  and  C_11
    5  A    between atoms: C_7  and  C_28
    6  A    between atoms: C_10  and  C_13
    7  A    between atoms: O_14  and  C_25
                            x       y       z     vdW  Elec       q    Type
                         _______ _______ _______ _____ _____    ______ ____

>  <TORSDO>
F 7

$$$$
=
 OpenBabel11052423013D

 28 30  0  0  1  0  0  0  0  0999 V2000
  161.5260  206.1100  150.3860 C   0  0  0  0  0  0  0  0  0  0  0  0
  161.1100  208.3780  154.6170 F   0  0  0  0  0  0  0  0  0  0  0  0
  161.6520  209.6720  151.2180 C   0  0  0  0  0  0  0  0  0  0  0  0
  161.3130  207.2440  152.5350 C   0  0  0  0  0  0  0  0  0  0  0  0
  161.6660  208.4990  150.5270 N   0  0  0  0  0  0  0  0  0  0  0  0
  161.1680  204.8270  152.4210 C   0  0  0  0  0  3  0  0  0  0  0  0
  161.2940  208.4360  153.2720 C   0  0  0  0  0  0  0  0  0  0  0  0
  161.1460  206.0070  153.1680 C   0  0  0  0  0  3  0  0  0  0  0  0
  161.4650  209.6710  152.6110 C   0  0  0  0  0  0  0  0  0  0  0  0
  161.3570  204.8790  151.0380 C   0  0  0  0  0  3  0  0  0  0  0  0
  161.5040  207.2960  151.1380 C   0  0  0  0  0  0  0  0  0  0  0  0
  160.5570  211.7910  150.5170 C   0  0  0  0  0  2  0  0  0  0  0  0
  162.2350  210.7070  149.0340 C   0  0  0  0  0  2  0  0  0  0  0  0
  161.5710  213.0730  148.5780 C   0  0  0  0  0  0  0  0  0  0  0  0
  161.8380  210.9650  150.4850 C   0  0  2  0  0  3  0  0  0  0  0  0
  162.2830  211.9850  148.2400 C   0  0  0  0  0  3  0  0  0  0  0  0
  161.6770  214.1870  147.8110 F   0  0  0  0  0  0  0  0  0  0  0  0
  160.8030  213.1570  149.8750 C   0  0  0  0  0  2  0  0  0  0  0  0
  161.4570  210.9050  153.2840 O   0  0  0  0  0  0  0  0  0  0  0  0
  160.3720  211.3930  154.0610 C   0  0  0  0  0  1  0  0  0  0  0  0
  161.7230  206.1730  148.9640 N   0  0  0  0  0  2  0  0  0  0  0  0
  160.9650  205.4280  147.9570 C   0  0  1  0  0  3  0  0  0  0  0  0
  160.7400  205.8510  145.4500 S   0  0  0  0  0  0  0  0  0  0  0  0
  160.5870  206.3080  146.8010 C   0  0  0  0  0  3  0  0  0  0  0  0
  161.7460  204.2000  147.5020 C   0  0  0  0  0  2  0  0  0  0  0  0
  160.8160  201.8820  147.5740 C   0  0  0  0  0  3  0  0  0  0  0  0
  160.7500  201.7830  146.0840 C   0  0  0  0  0  1  0  0  0  0  0  0
  161.2710  202.9660  148.2110 C   0  0  0  0  0  3  0  0  0  0  0  0
  1 10  2  0  0  0  0
  1 11  1  0  0  0  0
  3  9  1  0  0  0  0
  4  8  1  0  0  0  0
  4  7  1  0  0  0  0
  5 11  1  0  0  0  0
  5  3  2  0  0  0  0
  6  8  2  0  0  0  0
  7  2  1  0  0  0  0
  9  7  2  0  0  0  0
  9 19  1  0  0  0  0
 10  6  1  0  0  0  0
 11  4  2  0  0  0  0
 13 15  1  0  0  0  0
 14 18  1  0  0  0  0
 15 12  1  0  0  0  0
 15  3  1  1  0  0  0
 16 14  2  0  0  0  0
 16 13  1  0  0  0  0
 17 14  1  0  0  0  0
 18 12  1  0  0  0  0
 19 20  1  0  0  0  0
 21  1  1  0  0  0  0
 22 24  1  6  0  0  0
 22 21  1  0  0  0  0
 23 24  2  0  0  0  0
 25 22  1  0  0  0  0
 25 28  1  0  0  0  0
 26 28  2  0  0  0  0
 27 26  1  0  0  0  0
M  END
>  <MODEL>
5

>  <REMARK>
 VINA RESULT:      -7.4      3.305      6.948
  Name = 
  7 active torsions:
  status: ('A' for Active; 'I' for Inactive)
    1  A    between atoms: C_1  and  N_2
    2  A    between atoms: N_2  and  C_3
    3  A    between atoms: C_3  and  C_7
    4  A    between atoms: C_3  and  C_11
    5  A    between atoms: C_7  and  C_28
    6  A    between atoms: C_10  and  C_13
    7  A    between atoms: O_14  and  C_25
                            x       y       z     vdW  Elec       q    Type
                         _______ _______ _______ _____ _____    ______ ____

>  <TORSDO>
F 7

$$$$
=
 OpenBabel11052423013D

 28 30  0  0  1  0  0  0  0  0999 V2000
  161.2500  203.6260  148.6590 C   0  0  0  0  0  0  0  0  0  0  0  0
  160.9790  204.3040  153.4220 F   0  0  0  0  0  0  0  0  0  0  0  0
  161.7570  206.6320  150.6840 C   0  0  0  0  0  0  0  0  0  0  0  0
  161.1090  203.9540  151.0730 C   0  0  0  0  0  0  0  0  0  0  0  0
  161.6560  205.7810  149.6270 N   0  0  0  0  0  0  0  0  0  0  0  0
  160.6940  201.7630  150.1210 C   0  0  0  0  0  3  0  0  0  0  0  0
  161.2040  204.8060  152.1800 C   0  0  0  0  0  0  0  0  0  0  0  0
  160.7860  202.6020  151.2340 C   0  0  0  0  0  3  0  0  0  0  0  0
  161.5320  206.1660  151.9920 C   0  0  0  0  0  0  0  0  0  0  0  0
  160.9260  202.2730  148.8420 C   0  0  0  0  0  3  0  0  0  0  0  0
  161.3420  204.4680  149.7790 C   0  0  0  0  0  0  0  0  0  0  0  0
  161.2080  208.9850  151.2700 C   0  0  0  0  0  2  0  0  0  0  0  0
  161.9670  208.4200  148.9690 C   0  0  0  0  0  2  0  0  0  0  0  0
  161.9570  210.8150  149.6810 C   0  0  0  0  0  0  0  0  0  0  0  0
  162.1070  208.0690  150.4480 C   0  0  2  0  0  3  0  0  0  0  0  0
  162.1710  209.8920  148.7300 C   0  0  0  0  0  3  0  0  0  0  0  0
  162.1700  212.1220  149.3840 F   0  0  0  0  0  0  0  0  0  0  0  0
  161.6620  210.4370  151.1130 C   0  0  0  0  0  2  0  0  0  0  0  0
  161.6460  207.0790  153.0540 O   0  0  0  0  0  0  0  0  0  0  0  0
  160.8680  207.0340  154.2420 C   0  0  0  0  0  1  0  0  0  0  0  0
  161.4910  204.1590  147.3470 N   0  0  0  0  0  2  0  0  0  0  0  0
  160.7760  203.7890  146.1230 C   0  0  1  0  0  3  0  0  0  0  0  0
  160.4560  206.1860  145.3070 S   0  0  0  0  0  0  0  0  0  0  0  0
  160.9190  204.8490  145.0710 C   0  0  0  0  0  3  0  0  0  0  0  0
  161.2440  202.4270  145.6230 C   0  0  0  0  0  2  0  0  0  0  0  0
  160.0690  200.2530  145.2610 C   0  0  0  0  0  3  0  0  0  0  0  0
  161.2070  199.4600  145.8190 C   0  0  0  0  0  1  0  0  0  0  0  0
  160.0820  201.5880  145.1800 C   0  0  0  0  0  3  0  0  0  0  0  0
  1 10  2  0  0  0  0
  1 11  1  0  0  0  0
  3  9  1  0  0  0  0
  4  8  1  0  0  0  0
  4  7  1  0  0  0  0
  5 11  1  0  0  0  0
  5  3  2  0  0  0  0
  6  8  2  0  0  0  0
  7  2  1  0  0  0  0
  9  7  2  0  0  0  0
  9 19  1  0  0  0  0
 10  6  1  0  0  0  0
 11  4  2  0  0  0  0
 13 15  1  0  0  0  0
 14 18  1  0  0  0  0
 15  3  1  6  0  0  0
 15 12  1  0  0  0  0
 16 13  1  0  0  0  0
 16 14  2  0  0  0  0
 17 14  1  0  0  0  0
 18 12  1  0  0  0  0
 19 20  1  0  0  0  0
 21  1  1  0  0  0  0
 22 24  1  6  0  0  0
 22 21  1  0  0  0  0
 24 23  2  0  0  0  0
 25 22  1  0  0  0  0
 26 27  1  0  0  0  0
 28 26  2  0  0  0  0
 28 25  1  0  0  0  0
M  END
>  <MODEL>
6

>  <REMARK>
 VINA RESULT:      -7.3      2.928      6.940
  Name = 
  7 active torsions:
  status: ('A' for Active; 'I' for Inactive)
    1  A    between atoms: C_1  and  N_2
    2  A    between atoms: N_2  and  C_3
    3  A    between atoms: C_3  and  C_7
    4  A    between atoms: C_3  and  C_11
    5  A    between atoms: C_7  and  C_28
    6  A    between atoms: C_10  and  C_13
    7  A    between atoms: O_14  and  C_25
                            x       y       z     vdW  Elec       q    Type
                         _______ _______ _______ _____ _____    ______ ____

>  <TORSDO>
F 7

$$$$
=
 OpenBabel11052423013D

 28 30  0  0  1  0  0  0  0  0999 V2000
  160.4520  210.3820  153.3160 C   0  0  0  0  0  0  0  0  0  0  0  0
  161.1010  205.9000  154.9620 F   0  0  0  0  0  0  0  0  0  0  0  0
  161.3320  207.2910  151.5660 C   0  0  0  0  0  0  0  0  0  0  0  0
  160.7780  208.1180  154.1640 C   0  0  0  0  0  0  0  0  0  0  0  0
  161.0330  208.5920  151.8310 N   0  0  0  0  0  0  0  0  0  0  0  0
  160.1890  209.9100  155.6870 C   0  0  0  0  0  3  0  0  0  0  0  0
  161.0830  206.7730  153.9210 C   0  0  0  0  0  0  0  0  0  0  0  0
  160.4930  208.5660  155.4590 C   0  0  0  0  0  3  0  0  0  0  0  0
  161.3670  206.3450  152.6050 C   0  0  0  0  0  0  0  0  0  0  0  0
  160.1690  210.8120  154.6210 C   0  0  0  0  0  3  0  0  0  0  0  0
  160.7570  209.0310  153.0880 C   0  0  0  0  0  0  0  0  0  0  0  0
  162.1350  208.0530  149.3390 C   0  0  0  0  0  2  0  0  0  0  0  0
  160.3760  206.3000  149.4950 C   0  0  0  0  0  2  0  0  0  0  0  0
  161.5440  206.6470  147.3130 C   0  0  0  0  0  0  0  0  0  0  0  0
  161.6270  206.8720  150.1580 C   0  0  2  0  0  3  0  0  0  0  0  0
  160.6090  206.0090  148.0370 C   0  0  0  0  0  3  0  0  0  0  0  0
  161.6930  206.3190  146.0040 F   0  0  0  0  0  0  0  0  0  0  0  0
  162.5480  207.5800  147.9450 C   0  0  0  0  0  2  0  0  0  0  0  0
  161.6810  205.0130  152.2860 O   0  0  0  0  0  0  0  0  0  0  0  0
  160.7540  203.9370  152.3180 C   0  0  0  0  0  1  0  0  0  0  0  0
  160.4310  211.3030  152.2130 N   0  0  0  0  0  2  0  0  0  0  0  0
  159.7080  212.5750  152.1680 C   0  0  1  0  0  3  0  0  0  0  0  0
  158.8820  213.7250  150.0440 S   0  0  0  0  0  0  0  0  0  0  0  0
  159.9680  213.3020  150.8810 C   0  0  0  0  0  3  0  0  0  0  0  0
  158.2180  212.3500  152.4000 C   0  0  0  0  0  2  0  0  0  0  0  0
  156.9550  212.7920  154.5100 C   0  0  0  0  0  3  0  0  0  0  0  0
  156.5700  211.3560  154.6670 C   0  0  0  0  0  1  0  0  0  0  0  0
  157.7030  213.2380  153.4940 C   0  0  0  0  0  3  0  0  0  0  0  0
  1 10  1  0  0  0  0
  3  5  2  0  0  0  0
  3  9  1  0  0  0  0
  4  8  2  0  0  0  0
  5 11  1  0  0  0  0
  7  4  1  0  0  0  0
  7  2  1  0  0  0  0
  8  6  1  0  0  0  0
  9  7  2  0  0  0  0
 10  6  2  0  0  0  0
 11  1  2  0  0  0  0
 11  4  1  0  0  0  0
 12 15  1  0  0  0  0
 13 15  1  0  0  0  0
 14 18  1  0  0  0  0
 14 16  2  0  0  0  0
 15  3  1  1  0  0  0
 16 13  1  0  0  0  0
 17 14  1  0  0  0  0
 18 12  1  0  0  0  0
 19 20  1  0  0  0  0
 19  9  1  0  0  0  0
 21  1  1  0  0  0  0
 22 24  1  6  0  0  0
 22 21  1  0  0  0  0
 22 25  1  0  0  0  0
 23 24  2  0  0  0  0
 25 28  1  0  0  0  0
 26 27  1  0  0  0  0
 28 26  2  0  0  0  0
M  END
>  <MODEL>
7

>  <REMARK>
 VINA RESULT:      -7.0      2.426      3.753
  Name = 
  7 active torsions:
  status: ('A' for Active; 'I' for Inactive)
    1  A    between atoms: C_1  and  N_2
    2  A    between atoms: N_2  and  C_3
    3  A    between atoms: C_3  and  C_7
    4  A    between atoms: C_3  and  C_11
    5  A    between atoms: C_7  and  C_28
    6  A    between atoms: C_10  and  C_13
    7  A    between atoms: O_14  and  C_25
                            x       y       z     vdW  Elec       q    Type
                         _______ _______ _______ _____ _____    ______ ____

>  <TORSDO>
F 7

$$$$
=
 OpenBabel11052423013D

 28 30  0  0  1  0  0  0  0  0999 V2000
  161.3790  206.3190  151.6940 C   0  0  0  0  0  0  0  0  0  0  0  0
  160.6220  209.2190  155.4670 F   0  0  0  0  0  0  0  0  0  0  0  0
  161.3310  209.9700  151.9380 C   0  0  0  0  0  0  0  0  0  0  0  0
  160.9940  207.7750  153.6140 C   0  0  0  0  0  0  0  0  0  0  0  0
  161.4280  208.7030  151.4500 N   0  0  0  0  0  0  0  0  0  0  0  0
  160.9400  205.3670  153.8890 C   0  0  0  0  0  3  0  0  0  0  0  0
  160.8880  209.0670  154.1430 C   0  0  0  0  0  0  0  0  0  0  0  0
  160.8310  206.6500  154.4300 C   0  0  0  0  0  3  0  0  0  0  0  0
  161.0570  210.1860  153.2990 C   0  0  0  0  0  0  0  0  0  0  0  0
  161.2130  205.2030  152.5290 C   0  0  0  0  0  3  0  0  0  0  0  0
  161.2700  207.6080  152.2390 C   0  0  0  0  0  0  0  0  0  0  0  0
  160.2240  211.9310  150.8840 C   0  0  0  0  0  2  0  0  0  0  0  0
  161.9570  210.6590  149.6320 C   0  0  0  0  0  2  0  0  0  0  0  0
  161.2710  212.9110  148.7920 C   0  0  0  0  0  0  0  0  0  0  0  0
  161.5170  211.1350  151.0140 C   0  0  2  0  0  3  0  0  0  0  0  0
  162.0070  211.7970  148.6470 C   0  0  0  0  0  3  0  0  0  0  0  0
  161.3810  213.8920  147.8610 F   0  0  0  0  0  0  0  0  0  0  0  0
  160.4670  213.1830  150.0410 C   0  0  0  0  0  2  0  0  0  0  0  0
  160.9650  211.5110  153.7600 O   0  0  0  0  0  0  0  0  0  0  0  0
  159.8250  212.0630  154.4020 C   0  0  0  0  0  1  0  0  0  0  0  0
  161.6620  206.1600  150.2940 N   0  0  0  0  0  2  0  0  0  0  0  0
  160.7720  205.5570  149.3000 C   0  0  1  0  0  3  0  0  0  0  0  0
  161.7460  207.3100  147.7210 S   0  0  0  0  0  0  0  0  0  0  0  0
  160.6870  206.4050  148.0640 C   0  0  0  0  0  3  0  0  0  0  0  0
  161.2140  204.1340  148.9810 C   0  0  0  0  0  2  0  0  0  0  0  0
  160.4590  201.8310  149.5890 C   0  0  0  0  0  3  0  0  0  0  0  0
  161.1220  201.2190  148.3970 C   0  0  0  0  0  1  0  0  0  0  0  0
  160.5080  203.1410  149.8560 C   0  0  0  0  0  3  0  0  0  0  0  0
  1 11  2  0  0  0  0
  1 10  1  0  0  0  0
  3  9  1  0  0  0  0
  4  7  1  0  0  0  0
  4  8  2  0  0  0  0
  5  3  2  0  0  0  0
  5 11  1  0  0  0  0
  6  8  1  0  0  0  0
  7  2  1  0  0  0  0
  9 19  1  0  0  0  0
  9  7  2  0  0  0  0
 10  6  2  0  0  0  0
 11  4  1  0  0  0  0
 12 15  1  0  0  0  0
 13 15  1  0  0  0  0
 14 18  1  0  0  0  0
 15  3  1  1  0  0  0
 16 14  2  0  0  0  0
 16 13  1  0  0  0  0
 17 14  1  0  0  0  0
 18 12  1  0  0  0  0
 19 20  1  0  0  0  0
 21  1  1  0  0  0  0
 22 24  1  6  0  0  0
 22 21  1  0  0  0  0
 23 24  2  0  0  0  0
 25 22  1  0  0  0  0
 25 28  1  0  0  0  0
 26 28  2  0  0  0  0
 27 26  1  0  0  0  0
M  END
>  <MODEL>
8

>  <REMARK>
 VINA RESULT:      -7.0      3.380      6.897
  Name = 
  7 active torsions:
  status: ('A' for Active; 'I' for Inactive)
    1  A    between atoms: C_1  and  N_2
    2  A    between atoms: N_2  and  C_3
    3  A    between atoms: C_3  and  C_7
    4  A    between atoms: C_3  and  C_11
    5  A    between atoms: C_7  and  C_28
    6  A    between atoms: C_10  and  C_13
    7  A    between atoms: O_14  and  C_25
                            x       y       z     vdW  Elec       q    Type
                         _______ _______ _______ _____ _____    ______ ____

>  <TORSDO>
F 7

$$$$
=
 OpenBabel11052423013D

 28 30  0  0  1  0  0  0  0  0999 V2000
  161.8220  205.3290  151.4620 C   0  0  0  0  0  0  0  0  0  0  0  0
  159.9470  201.0720  150.2050 F   0  0  0  0  0  0  0  0  0  0  0  0
  161.3800  203.7820  148.1750 C   0  0  0  0  0  0  0  0  0  0  0  0
  160.8700  203.1700  150.8410 C   0  0  0  0  0  0  0  0  0  0  0  0
  161.7050  204.6590  149.1630 N   0  0  0  0  0  0  0  0  0  0  0  0
  160.9750  203.8230  153.1730 C   0  0  0  0  0  3  0  0  0  0  0  0
  160.5250  202.2470  149.8450 C   0  0  0  0  0  0  0  0  0  0  0  0
  160.6260  202.8930  152.1910 C   0  0  0  0  0  3  0  0  0  0  0  0
  160.7810  202.5500  148.4900 C   0  0  0  0  0  0  0  0  0  0  0  0
  161.5690  205.0330  152.8100 C   0  0  0  0  0  3  0  0  0  0  0  0
  161.4710  204.3940  150.4750 C   0  0  0  0  0  0  0  0  0  0  0  0
  162.2980  205.5190  146.6510 C   0  0  0  0  0  2  0  0  0  0  0  0
  160.3800  204.1120  145.9220 C   0  0  0  0  0  2  0  0  0  0  0  0
  161.6230  205.4400  144.2080 C   0  0  0  0  0  0  0  0  0  0  0  0
  161.6640  204.1360  146.7470 C   0  0  2  0  0  3  0  0  0  0  0  0
  160.6170  204.6070  144.5200 C   0  0  0  0  0  3  0  0  0  0  0  0
  161.7690  205.8340  142.9170 F   0  0  0  0  0  0  0  0  0  0  0  0
  162.6960  205.8090  145.2040 C   0  0  0  0  0  2  0  0  0  0  0  0
  160.4610  201.6740  147.4380 O   0  0  0  0  0  0  0  0  0  0  0  0
  161.2020  200.5080  147.1090 C   0  0  0  0  0  1  0  0  0  0  0  0
  162.4310  206.5730  151.0780 N   0  0  0  0  0  2  0  0  0  0  0  0
  161.7880  207.8880  151.1010 C   0  0  1  0  0  3  0  0  0  0  0  0
  161.9930  208.8590  148.7490 S   0  0  0  0  0  0  0  0  0  0  0  0
  161.1980  208.2260  149.7620 C   0  0  0  0  0  3  0  0  0  0  0  0
  160.7450  207.9530  152.2110 C   0  0  0  0  0  2  0  0  0  0  0  0
  160.9360  208.5260  154.6350 C   0  0  0  0  0  3  0  0  0  0  0  0
  160.1070  207.3550  155.0530 C   0  0  0  0  0  1  0  0  0  0  0  0
  161.2300  208.7910  153.3570 C   0  0  0  0  0  3  0  0  0  0  0  0
  1 10  1  0  0  0  0
  3  9  1  0  0  0  0
  3  5  2  0  0  0  0
  4  8  2  0  0  0  0
  5 11  1  0  0  0  0
  7  2  1  0  0  0  0
  7  4  1  0  0  0  0
  8  6  1  0  0  0  0
  9  7  2  0  0  0  0
 10  6  2  0  0  0  0
 11  4  1  0  0  0  0
 11  1  2  0  0  0  0
 12 15  1  0  0  0  0
 13 15  1  0  0  0  0
 14 16  2  0  0  0  0
 14 18  1  0  0  0  0
 15  3  1  1  0  0  0
 16 13  1  0  0  0  0
 17 14  1  0  0  0  0
 18 12  1  0  0  0  0
 19  9  1  0  0  0  0
 20 19  1  0  0  0  0
 21 22  1  0  0  0  0
 21  1  1  0  0  0  0
 22 24  1  6  0  0  0
 22 25  1  0  0  0  0
 23 24  2  0  0  0  0
 25 28  1  0  0  0  0
 26 27  1  0  0  0  0
 28 26  2  0  0  0  0
M  END
>  <MODEL>
9

>  <REMARK>
 VINA RESULT:      -6.9      1.634      2.045
  Name = 
  7 active torsions:
  status: ('A' for Active; 'I' for Inactive)
    1  A    between atoms: C_1  and  N_2
    2  A    between atoms: N_2  and  C_3
    3  A    between atoms: C_3  and  C_7
    4  A    between atoms: C_3  and  C_11
    5  A    between atoms: C_7  and  C_28
    6  A    between atoms: C_10  and  C_13
    7  A    between atoms: O_14  and  C_25
                            x       y       z     vdW  Elec       q    Type
                         _______ _______ _______ _____ _____    ______ ____

>  <TORSDO>
F 7

$$$$
