=
 OpenBabel11062408553D

 55 60  0  0  1  0  0  0  0  0999 V2000
  161.1870  205.7400  151.6050 C   0  0  0  0  0  3  0  0  0  0  0  0
  161.1750  206.0840  148.8280 C   0  0  0  0  0  0  0  0  0  0  0  0
  160.8130  207.1440  149.6670 C   0  0  0  0  0  3  0  0  0  0  0  0
  161.5470  204.6790  150.7680 C   0  0  0  0  0  3  0  0  0  0  0  0
  160.8230  206.9750  151.0540 C   0  0  0  0  0  0  0  0  0  0  0  0
  161.5410  204.8500  149.3800 C   0  0  0  0  0  3  0  0  0  0  0  0
  161.1570  206.2730  147.3490 C   0  0  0  0  0  2  0  0  0  0  0  0
  161.4060  204.6890  146.4850 S   0  0  0  0  0  0  0  0  0  0  0  0
  162.3180  205.4570  145.1090 C   0  0  0  0  0  2  0  0  0  0  0  0
  161.4060  205.6300  143.9050 C   0  0  0  0  0  2  0  0  0  0  0  0
  162.2290  205.7850  142.6380 C   0  0  0  0  0  2  0  0  0  0  0  0
  163.0800  206.3340  139.9790 O   0  0  0  0  0  0  0  0  0  0  0  0
  161.9990  206.8560  140.3650 C   0  0  0  0  0  0  0  0  0  0  0  0
  161.5250  206.6380  141.6940 N   0  0  0  0  0  2  0  0  0  0  0  0
  162.0130  208.0190  138.3040 O   0  0  0  0  0  0  0  0  0  0  0  0
  161.2330  207.7450  139.4420 C   0  0  2  0  0  3  0  0  0  0  0  0
  161.9350  209.0360  139.2700 C   0  0  2  0  0  3  0  0  0  0  0  0
  160.9640  210.0950  138.7860 C   0  0  0  0  0  2  0  0  0  0  0  0
  161.2810  212.6840  139.3430 C   0  0  2  0  0  3  0  0  0  0  0  0
  160.7340  212.4430  137.9420 C   0  0  0  0  0  2  0  0  0  0  0  0
  161.6720  211.4310  138.5610 C   0  0  2  0  0  0  0  0  0  0  0  0
  164.0440  211.6410  138.8030 O   0  0  0  0  0  1  0  0  0  0  0  0
  163.0240  211.4510  137.8680 C   0  0  0  0  0  2  0  0  0  0  0  0
  160.1920  212.4260  140.3860 C   0  0  1  0  0  3  0  0  0  0  0  0
  160.7830  212.3320  141.7570 C   0  0  0  0  0  0  0  0  0  0  0  0
  160.2490  211.4640  142.7030 O   0  0  0  0  0  1  0  0  0  0  0  0
  161.8240  212.9880  142.0310 O   0  0  0  0  0  0  0  0  0  0  0  0
  159.2520  213.4620  140.3570 O   0  0  0  0  0  0  0  0  0  0  0  0
  158.0120  212.8230  140.2830 C   0  0  0  0  0  1  0  0  0  0  0  0
  160.4270  208.1050  151.9400 C   0  0  0  0  0  2  0  0  0  0  0  0
  161.3610  208.0570  154.1540 C   0  0  0  0  0  2  0  0  0  0  0  0
  162.0840  208.6980  156.3870 O   0  0  0  0  0  1  0  0  0  0  0  0
  161.4340  210.4150  154.8280 C   0  0  0  0  0  0  0  0  0  0  0  0
  161.5560  208.5230  152.7600 N   0  0  0  0  0  0  0  0  0  0  0  0
  161.5030  211.3200  155.7030 O   0  0  0  0  0  0  0  0  0  0  0  0
  161.7270  209.0660  155.1350 N   0  0  0  0  0  0  0  0  0  0  0  0
  161.0740  210.7220  153.4230 C   0  0  1  0  0  3  0  0  0  0  0  0
  161.8110  209.8690  152.5540 O   0  0  0  0  0  0  0  0  0  0  0  0
  158.8440  210.6160  154.3950 O   0  0  0  0  0  0  0  0  0  0  0  0
  157.1840  211.8870  155.5370 C   0  0  0  0  0  2  0  0  0  0  0  0
  158.9710  211.9720  152.4680 C   0  0  2  0  0  3  0  0  0  0  0  0
  158.0380  212.5020  153.4000 O   0  0  0  0  0  0  0  0  0  0  0  0
  157.9770  211.6780  154.4980 C   0  0  0  0  0  0  0  0  0  0  0  0
  159.5540  210.6990  153.1640 C   0  0  1  0  0  3  0  0  0  0  0  0
  159.9860  213.0440  152.0920 C   0  0  0  0  0  2  0  0  0  0  0  0
  159.4020  213.9480  151.1110 N   0  0  0  0  0  2  0  0  0  0  0  0
  161.0230  214.0120  149.2920 C   0  0  0  0  0  3  0  0  0  0  0  0
  160.3260  213.7800  146.9790 C   0  0  0  0  0  0  0  0  0  0  0  0
  158.6850  213.6950  148.7650 C   0  0  0  0  0  3  0  0  0  0  0  0
  158.9970  213.6450  147.4040 C   0  0  0  0  0  3  0  0  0  0  0  0
  161.3370  213.9620  147.9320 C   0  0  0  0  0  3  0  0  0  0  0  0
  159.6990  213.8800  149.7160 C   0  0  0  0  0  0  0  0  0  0  0  0
  160.6600  213.7290  145.5480 C   0  0  0  0  0  0  0  0  0  0  0  0
  161.7940  213.3280  145.1710 O   0  0  0  0  0  1  0  0  0  0  0  0
  159.7270  214.1200  144.5950 O   0  0  0  0  0  0  0  0  0  0  0  0
  2  6  2  0  0  0  0
  2  3  1  0  0  0  0
  3  5  2  0  0  0  0
  4  1  2  0  0  0  0
  5  1  1  0  0  0  0
  5 30  1  0  0  0  0
  6  4  1  0  0  0  0
  7  2  1  0  0  0  0
  8  7  1  0  0  0  0
  9  8  1  0  0  0  0
 10  9  1  0  0  0  0
 11 10  1  0  0  0  0
 12 13  2  0  0  0  0
 13 14  1  0  0  0  0
 14 11  1  0  0  0  0
 15 17  1  0  0  0  0
 15 16  1  0  0  0  0
 16 13  1  1  0  0  0
 17 18  1  6  0  0  0
 17 16  1  0  0  0  0
 19 24  1  1  0  0  0
 20 21  1  0  0  0  0
 20 19  1  0  0  0  0
 21 23  1  6  0  0  0
 21 18  1  0  0  0  0
 21 19  1  0  0  0  0
 23 22  1  0  0  0  0
 24 28  1  1  0  0  0
 24 25  1  0  0  0  0
 25 27  2  0  0  0  0
 25 26  1  0  0  0  0
 29 28  1  0  0  0  0
 30 34  1  0  0  0  0
 31 36  1  0  0  0  0
 33 36  1  0  0  0  0
 33 35  2  0  0  0  0
 34 31  1  0  0  0  0
 36 32  1  0  0  0  0
 37 38  1  6  0  0  0
 37 33  1  0  0  0  0
 38 34  1  0  0  0  0
 39 43  1  0  0  0  0
 41 45  1  1  0  0  0
 41 44  1  0  0  0  0
 41 42  1  0  0  0  0
 42 43  1  0  0  0  0
 43 40  2  0  0  0  0
 44 37  1  0  0  0  0
 44 39  1  1  0  0  0
 46 45  1  0  0  0  0
 47 52  1  0  0  0  0
 48 50  2  0  0  0  0
 48 51  1  0  0  0  0
 49 52  2  0  0  0  0
 50 49  1  0  0  0  0
 51 47  2  0  0  0  0
 52 46  1  0  0  0  0
 53 48  1  0  0  0  0
 54 53  1  0  0  0  0
 55 53  2  0  0  0  0
M  END
>  <MODEL>
1

>  <REMARK>
 VINA RESULT:      -5.8      0.000      0.000
  Name = 
  20 active torsions:
  status: ('A' for Active; 'I' for Inactive)
    1  A    between atoms: C_1  and  C_53
    2  A    between atoms: C_2  and  N_28
    3  A    between atoms: C_2  and  C_44
    4  A    between atoms: C_3  and  C_53
    5  A    between atoms: O_6  and  C_53
    6  A    between atoms: C_8  and  N_22
    7  A    between atoms: C_8  and  C_35
    8  A    between atoms: C_10  and  C_32
    9  A    between atoms: C_16  and  C_36
   10  A    between atoms: C_20  and  C_42
   11  A    between atoms: C_25  and  C_38
   12  A    between atoms: C_26  and  C_45
   13  A    between atoms: C_27  and  C_54
   14  A    between atoms: C_29  and  C_38
   15  A    between atoms: C_29  and  C_50
   16  A    between atoms: N_33  and  C_36
   17  A    between atoms: N_33  and  C_52
   18  A    between atoms: C_35  and  C_43
   19  A    between atoms: C_43  and  S_51
   20  A    between atoms: S_51  and  C_54
                            x       y       z     vdW  Elec       q    Type
                         _______ _______ _______ _____ _____    ______ ____

>  <TORSDO>
F 20

$$$$
=
 OpenBabel11062408553D

 55 60  0  0  1  0  0  0  0  0999 V2000
  161.5800  211.8560  149.6200 C   0  0  0  0  0  3  0  0  0  0  0  0
  160.5110  213.4800  147.6080 C   0  0  0  0  0  0  0  0  0  0  0  0
  160.2410  213.7600  148.9520 C   0  0  0  0  0  3  0  0  0  0  0  0
  161.8500  211.5740  148.2780 C   0  0  0  0  0  3  0  0  0  0  0  0
  160.7780  212.9530  149.9580 C   0  0  0  0  0  0  0  0  0  0  0  0
  161.3150  212.3850  147.2710 C   0  0  0  0  0  3  0  0  0  0  0  0
  159.9290  214.3450  146.5410 C   0  0  0  0  0  2  0  0  0  0  0  0
  159.0910  213.3430  145.2720 S   0  0  0  0  0  0  0  0  0  0  0  0
  159.6830  214.3840  143.9020 C   0  0  0  0  0  2  0  0  0  0  0  0
  159.5190  213.6540  142.5780 C   0  0  0  0  0  2  0  0  0  0  0  0
  160.7300  212.7780  142.3050 C   0  0  0  0  0  2  0  0  0  0  0  0
  161.4730  213.9860  139.8380 O   0  0  0  0  0  0  0  0  0  0  0  0
  161.0140  212.8120  139.7980 C   0  0  0  0  0  0  0  0  0  0  0  0
  160.6030  212.1550  140.9970 N   0  0  0  0  0  2  0  0  0  0  0  0
  160.3040  213.0170  137.5490 O   0  0  0  0  0  0  0  0  0  0  0  0
  160.8560  212.1220  138.4840 C   0  0  2  0  0  3  0  0  0  0  0  0
  159.4280  212.0660  138.1000 C   0  0  2  0  0  3  0  0  0  0  0  0
  159.2050  210.9620  137.0840 C   0  0  0  0  0  2  0  0  0  0  0  0
  157.3060  209.4450  138.1810 C   0  0  2  0  0  3  0  0  0  0  0  0
  158.3360  209.9270  139.1930 C   0  0  0  0  0  2  0  0  0  0  0  0
  158.7590  209.6680  137.7650 C   0  0  2  0  0  0  0  0  0  0  0  0
  160.8060  208.6220  138.4310 O   0  0  0  0  0  1  0  0  0  0  0  0
  159.6440  208.4360  137.6780 C   0  0  0  0  0  2  0  0  0  0  0  0
  156.3810  210.5950  137.7780 C   0  0  1  0  0  3  0  0  0  0  0  0
  155.0880  210.0710  137.2380 C   0  0  0  0  0  0  0  0  0  0  0  0
  154.9070  208.7090  137.0240 O   0  0  0  0  0  0  0  0  0  0  0  0
  154.1270  210.8640  137.0510 O   0  0  0  0  0  1  0  0  0  0  0  0
  156.1250  211.4080  138.8870 O   0  0  0  0  0  0  0  0  0  0  0  0
  156.3180  212.7140  138.4300 C   0  0  0  0  0  1  0  0  0  0  0  0
  160.4770  213.2520  151.3860 C   0  0  0  0  0  2  0  0  0  0  0  0
  158.5750  213.8210  152.7420 C   0  0  0  0  0  2  0  0  0  0  0  0
  156.8530  213.7930  154.4610 O   0  0  0  0  0  1  0  0  0  0  0  0
  158.2000  211.8240  154.1190 C   0  0  0  0  0  0  0  0  0  0  0  0
  159.0930  212.9120  151.6920 N   0  0  0  0  0  0  0  0  0  0  0  0
  157.7170  211.2450  155.1290 O   0  0  0  0  0  0  0  0  0  0  0  0
  157.7820  213.1220  153.7410 N   0  0  0  0  0  0  0  0  0  0  0  0
  159.2060  211.1630  153.2540 C   0  0  1  0  0  3  0  0  0  0  0  0
  158.9840  211.5460  151.9010 O   0  0  0  0  0  0  0  0  0  0  0  0
  160.6740  211.8270  155.0800 O   0  0  0  0  0  0  0  0  0  0  0  0
  161.6310  211.0980  157.1350 C   0  0  0  0  0  2  0  0  0  0  0  0
  161.5680  210.1170  153.7220 C   0  0  2  0  0  3  0  0  0  0  0  0
  161.9560  209.9420  155.0780 O   0  0  0  0  0  0  0  0  0  0  0  0
  161.4340  210.9640  155.8340 C   0  0  0  0  0  0  0  0  0  0  0  0
  160.6560  211.3860  153.7270 C   0  0  1  0  0  3  0  0  0  0  0  0
  160.9200  208.8380  153.2050 C   0  0  0  0  0  2  0  0  0  0  0  0
  161.3870  208.5650  151.8540 N   0  0  0  0  0  2  0  0  0  0  0  0
  161.3500  206.1320  152.0030 C   0  0  0  0  0  3  0  0  0  0  0  0
  161.0190  204.7570  150.0300 C   0  0  0  0  0  0  0  0  0  0  0  0
  161.0350  207.1770  149.8450 C   0  0  0  0  0  3  0  0  0  0  0  0
  160.9190  205.9180  149.2520 C   0  0  0  0  0  3  0  0  0  0  0  0
  161.2340  204.8730  151.4100 C   0  0  0  0  0  3  0  0  0  0  0  0
  161.2520  207.2890  151.2260 C   0  0  0  0  0  0  0  0  0  0  0  0
  160.8990  203.4300  149.4100 C   0  0  0  0  0  0  0  0  0  0  0  0
  160.3370  202.4850  150.0270 O   0  0  0  0  0  1  0  0  0  0  0  0
  161.4020  203.2040  148.1340 O   0  0  0  0  0  0  0  0  0  0  0  0
  1  5  1  0  0  0  0
  2  3  1  0  0  0  0
  3  5  2  0  0  0  0
  4  1  2  0  0  0  0
  5 30  1  0  0  0  0
  6  2  2  0  0  0  0
  6  4  1  0  0  0  0
  7  2  1  0  0  0  0
  8  7  1  0  0  0  0
  9  8  1  0  0  0  0
 10  9  1  0  0  0  0
 11 10  1  0  0  0  0
 13 12  2  0  0  0  0
 13 14  1  0  0  0  0
 14 11  1  0  0  0  0
 15 17  1  0  0  0  0
 15 16  1  0  0  0  0
 16 13  1  1  0  0  0
 17 18  1  6  0  0  0
 17 16  1  0  0  0  0
 19 24  1  6  0  0  0
 19 20  1  0  0  0  0
 21 18  1  6  0  0  0
 21 19  1  0  0  0  0
 21 20  1  0  0  0  0
 23 21  1  0  0  0  0
 23 22  1  0  0  0  0
 24 25  1  1  0  0  0
 24 28  1  0  0  0  0
 26 25  2  0  0  0  0
 27 25  1  0  0  0  0
 29 28  1  0  0  0  0
 30 34  1  0  0  0  0
 31 36  1  0  0  0  0
 33 35  2  0  0  0  0
 34 38  1  0  0  0  0
 34 31  1  0  0  0  0
 36 33  1  0  0  0  0
 36 32  1  0  0  0  0
 37 38  1  6  0  0  0
 37 44  1  0  0  0  0
 37 33  1  0  0  0  0
 39 43  1  0  0  0  0
 41 45  1  1  0  0  0
 41 44  1  0  0  0  0
 41 42  1  0  0  0  0
 42 43  1  0  0  0  0
 43 40  2  0  0  0  0
 44 39  1  1  0  0  0
 46 45  1  0  0  0  0
 48 51  2  0  0  0  0
 49 52  1  0  0  0  0
 50 49  2  0  0  0  0
 50 48  1  0  0  0  0
 51 47  1  0  0  0  0
 52 46  1  0  0  0  0
 52 47  2  0  0  0  0
 53 54  1  0  0  0  0
 53 48  1  0  0  0  0
 55 53  2  0  0  0  0
M  END
>  <MODEL>
2

>  <REMARK>
 VINA RESULT:      -5.8      3.101      6.596
  Name = 
  20 active torsions:
  status: ('A' for Active; 'I' for Inactive)
    1  A    between atoms: C_1  and  C_53
    2  A    between atoms: C_2  and  N_28
    3  A    between atoms: C_2  and  C_44
    4  A    between atoms: C_3  and  C_53
    5  A    between atoms: O_6  and  C_53
    6  A    between atoms: C_8  and  N_22
    7  A    between atoms: C_8  and  C_35
    8  A    between atoms: C_10  and  C_32
    9  A    between atoms: C_16  and  C_36
   10  A    between atoms: C_20  and  C_42
   11  A    between atoms: C_25  and  C_38
   12  A    between atoms: C_26  and  C_45
   13  A    between atoms: C_27  and  C_54
   14  A    between atoms: C_29  and  C_38
   15  A    between atoms: C_29  and  C_50
   16  A    between atoms: N_33  and  C_36
   17  A    between atoms: N_33  and  C_52
   18  A    between atoms: C_35  and  C_43
   19  A    between atoms: C_43  and  S_51
   20  A    between atoms: S_51  and  C_54
                            x       y       z     vdW  Elec       q    Type
                         _______ _______ _______ _____ _____    ______ ____

>  <TORSDO>
F 20

$$$$
=
 OpenBabel11062408553D

 55 60  0  0  1  0  0  0  0  0999 V2000
  162.1690  211.0740  149.8780 C   0  0  0  0  0  3  0  0  0  0  0  0
  160.8410  212.9840  148.3230 C   0  0  0  0  0  0  0  0  0  0  0  0
  160.5720  212.8850  149.6920 C   0  0  0  0  0  3  0  0  0  0  0  0
  162.4390  211.1700  148.5100 C   0  0  0  0  0  3  0  0  0  0  0  0
  161.2370  211.9350  150.4720 C   0  0  0  0  0  0  0  0  0  0  0  0
  161.7750  212.1240  147.7320 C   0  0  0  0  0  3  0  0  0  0  0  0
  160.1230  213.9980  147.4990 C   0  0  0  0  0  2  0  0  0  0  0  0
  158.6950  213.2540  146.6470 S   0  0  0  0  0  0  0  0  0  0  0  0
  158.7470  214.4530  145.2780 C   0  0  0  0  0  2  0  0  0  0  0  0
  159.2260  213.7760  144.0040 C   0  0  0  0  0  2  0  0  0  0  0  0
  158.3100  214.1280  142.8440 C   0  0  0  0  0  2  0  0  0  0  0  0
  157.1770  213.3600  140.3490 O   0  0  0  0  0  0  0  0  0  0  0  0
  158.4040  213.6490  140.3680 C   0  0  0  0  0  0  0  0  0  0  0  0
  159.0410  214.0230  141.5900 N   0  0  0  0  0  2  0  0  0  0  0  0
  158.4020  213.0430  138.0810 O   0  0  0  0  0  0  0  0  0  0  0  0
  159.2070  213.5560  139.1130 C   0  0  2  0  0  3  0  0  0  0  0  0
  159.3100  212.1480  138.6710 C   0  0  2  0  0  3  0  0  0  0  0  0
  160.5000  211.9790  137.7460 C   0  0  0  0  0  2  0  0  0  0  0  0
  162.5840  210.9750  139.0710 C   0  0  2  0  0  3  0  0  0  0  0  0
  162.7440  210.8820  137.5600 C   0  0  0  0  0  2  0  0  0  0  0  0
  161.3640  210.7910  138.1710 C   0  0  2  0  0  0  0  0  0  0  0  0
  159.7970  209.1790  138.9890 O   0  0  0  0  0  1  0  0  0  0  0  0
  160.8090  209.3820  138.0480 C   0  0  0  0  0  2  0  0  0  0  0  0
  162.7790  212.4200  139.5360 C   0  0  1  0  0  3  0  0  0  0  0  0
  162.3580  212.5790  140.9630 C   0  0  0  0  0  0  0  0  0  0  0  0
  161.5700  211.6160  141.5830 O   0  0  0  0  0  0  0  0  0  0  0  0
  162.7880  213.5570  141.6310 O   0  0  0  0  0  1  0  0  0  0  0  0
  164.1230  212.7830  139.4050 O   0  0  0  0  0  0  0  0  0  0  0  0
  164.1400  213.7480  138.3950 C   0  0  0  0  0  1  0  0  0  0  0  0
  160.9360  211.8290  151.9260 C   0  0  0  0  0  2  0  0  0  0  0  0
  159.2630  213.1060  153.0880 C   0  0  0  0  0  2  0  0  0  0  0  0
  157.5520  213.8000  154.6730 O   0  0  0  0  0  1  0  0  0  0  0  0
  158.2060  211.4830  154.5940 C   0  0  0  0  0  0  0  0  0  0  0  0
  159.5050  211.9780  152.1570 N   0  0  0  0  0  0  0  0  0  0  0  0
  157.5200  211.1920  155.6110 O   0  0  0  0  0  0  0  0  0  0  0  0
  158.2460  212.8000  154.0810 N   0  0  0  0  0  0  0  0  0  0  0  0
  158.9810  210.4530  153.8630 C   0  0  1  0  0  3  0  0  0  0  0  0
  158.9530  210.7460  152.4700 O   0  0  0  0  0  0  0  0  0  0  0  0
  160.3530  209.9440  155.8100 O   0  0  0  0  0  0  0  0  0  0  0  0
  161.0920  208.1800  157.2300 C   0  0  0  0  0  2  0  0  0  0  0  0
  161.2120  209.0690  153.7930 C   0  0  2  0  0  3  0  0  0  0  0  0
  161.4820  208.1940  154.8800 O   0  0  0  0  0  0  0  0  0  0  0  0
  160.9850  208.7440  156.0370 C   0  0  0  0  0  0  0  0  0  0  0  0
  160.4050  210.2510  154.4200 C   0  0  1  0  0  3  0  0  0  0  0  0
  160.5070  208.3030  152.6800 C   0  0  0  0  0  2  0  0  0  0  0  0
  161.4230  207.3310  152.0990 N   0  0  0  0  0  2  0  0  0  0  0  0
  162.2350  207.7050  149.8310 C   0  0  0  0  0  3  0  0  0  0  0  0
  161.4220  206.3730  147.9710 C   0  0  0  0  0  0  0  0  0  0  0  0
  160.6030  205.9630  150.2180 C   0  0  0  0  0  3  0  0  0  0  0  0
  160.6060  205.6560  148.8560 C   0  0  0  0  0  3  0  0  0  0  0  0
  162.2390  207.3990  148.4680 C   0  0  0  0  0  3  0  0  0  0  0  0
  161.4190  206.9910  150.7120 C   0  0  0  0  0  0  0  0  0  0  0  0
  161.4290  206.0550  146.5360 C   0  0  0  0  0  0  0  0  0  0  0  0
  160.3950  206.2320  145.8380 O   0  0  0  0  0  0  0  0  0  0  0  0
  162.5780  205.5590  145.9330 O   0  0  0  0  0  1  0  0  0  0  0  0
  1  5  1  0  0  0  0
  2  3  1  0  0  0  0
  3  5  2  0  0  0  0
  4  1  2  0  0  0  0
  5 30  1  0  0  0  0
  6  2  2  0  0  0  0
  6  4  1  0  0  0  0
  7  2  1  0  0  0  0
  8  7  1  0  0  0  0
  9  8  1  0  0  0  0
 10  9  1  0  0  0  0
 11 10  1  0  0  0  0
 12 13  2  0  0  0  0
 13 14  1  0  0  0  0
 14 11  1  0  0  0  0
 15 17  1  0  0  0  0
 15 16  1  0  0  0  0
 16 13  1  1  0  0  0
 17 18  1  6  0  0  0
 17 16  1  0  0  0  0
 19 24  1  6  0  0  0
 20 21  1  0  0  0  0
 20 19  1  0  0  0  0
 21 18  1  6  0  0  0
 21 19  1  0  0  0  0
 23 21  1  0  0  0  0
 23 22  1  0  0  0  0
 24 28  1  1  0  0  0
 24 25  1  0  0  0  0
 25 26  2  0  0  0  0
 25 27  1  0  0  0  0
 29 28  1  0  0  0  0
 30 34  1  0  0  0  0
 31 36  1  0  0  0  0
 33 35  2  0  0  0  0
 34 38  1  0  0  0  0
 34 31  1  0  0  0  0
 36 33  1  0  0  0  0
 36 32  1  0  0  0  0
 37 38  1  6  0  0  0
 37 44  1  0  0  0  0
 37 33  1  0  0  0  0
 39 43  1  0  0  0  0
 41 45  1  6  0  0  0
 41 44  1  0  0  0  0
 41 42  1  0  0  0  0
 42 43  1  0  0  0  0
 43 40  2  0  0  0  0
 44 39  1  1  0  0  0
 46 45  1  0  0  0  0
 47 52  1  0  0  0  0
 48 51  1  0  0  0  0
 48 50  2  0  0  0  0
 49 52  2  0  0  0  0
 50 49  1  0  0  0  0
 51 47  2  0  0  0  0
 52 46  1  0  0  0  0
 53 48  1  0  0  0  0
 54 53  2  0  0  0  0
 55 53  1  0  0  0  0
M  END
>  <MODEL>
3

>  <REMARK>
 VINA RESULT:      -5.4      2.613      5.949
  Name = 
  20 active torsions:
  status: ('A' for Active; 'I' for Inactive)
    1  A    between atoms: C_1  and  C_53
    2  A    between atoms: C_2  and  N_28
    3  A    between atoms: C_2  and  C_44
    4  A    between atoms: C_3  and  C_53
    5  A    between atoms: O_6  and  C_53
    6  A    between atoms: C_8  and  N_22
    7  A    between atoms: C_8  and  C_35
    8  A    between atoms: C_10  and  C_32
    9  A    between atoms: C_16  and  C_36
   10  A    between atoms: C_20  and  C_42
   11  A    between atoms: C_25  and  C_38
   12  A    between atoms: C_26  and  C_45
   13  A    between atoms: C_27  and  C_54
   14  A    between atoms: C_29  and  C_38
   15  A    between atoms: C_29  and  C_50
   16  A    between atoms: N_33  and  C_36
   17  A    between atoms: N_33  and  C_52
   18  A    between atoms: C_35  and  C_43
   19  A    between atoms: C_43  and  S_51
   20  A    between atoms: S_51  and  C_54
                            x       y       z     vdW  Elec       q    Type
                         _______ _______ _______ _____ _____    ______ ____

>  <TORSDO>
F 20

$$$$
=
 OpenBabel11062408553D

 55 60  0  0  1  0  0  0  0  0999 V2000
  161.7590  209.3690  151.5340 C   0  0  0  0  0  3  0  0  0  0  0  0
  161.4620  206.7650  152.5130 C   0  0  0  0  0  0  0  0  0  0  0  0
  160.6580  207.7960  153.0100 C   0  0  0  0  0  3  0  0  0  0  0  0
  162.5640  208.3400  151.0370 C   0  0  0  0  0  3  0  0  0  0  0  0
  160.8010  209.0970  152.5190 C   0  0  0  0  0  0  0  0  0  0  0  0
  162.4170  207.0380  151.5260 C   0  0  0  0  0  3  0  0  0  0  0  0
  161.3040  205.3820  153.0460 C   0  0  0  0  0  2  0  0  0  0  0  0
  162.3960  204.2150  152.1720 S   0  0  0  0  0  0  0  0  0  0  0  0
  161.0180  203.1530  151.6380 C   0  0  0  0  0  2  0  0  0  0  0  0
  161.4720  201.7040  151.5560 C   0  0  0  0  0  2  0  0  0  0  0  0
  160.5200  200.9030  150.6850 C   0  0  0  0  0  2  0  0  0  0  0  0
  161.0900  200.0040  148.0450 O   0  0  0  0  0  0  0  0  0  0  0  0
  160.5210  201.1220  148.1710 C   0  0  0  0  0  0  0  0  0  0  0  0
  160.2250  201.6420  149.4670 N   0  0  0  0  0  2  0  0  0  0  0  0
  160.8240  201.3600  145.8360 O   0  0  0  0  0  0  0  0  0  0  0  0
  160.1960  201.9300  146.9580 C   0  0  2  0  0  3  0  0  0  0  0  0
  161.4300  202.5060  146.3780 C   0  0  2  0  0  3  0  0  0  0  0  0
  161.0870  203.6980  145.5050 C   0  0  0  0  0  2  0  0  0  0  0  0
  162.1070  206.0280  146.3030 C   0  0  2  0  0  3  0  0  0  0  0  0
  161.7890  206.0010  144.8140 C   0  0  0  0  0  2  0  0  0  0  0  0
  162.2160  204.7280  145.5100 C   0  0  2  0  0  0  0  0  0  0  0  0
  164.4830  204.3160  146.1570 O   0  0  0  0  0  1  0  0  0  0  0  0
  163.6080  204.3100  145.0670 C   0  0  0  0  0  2  0  0  0  0  0  0
  160.8150  206.1310  147.1170 C   0  0  1  0  0  3  0  0  0  0  0  0
  160.9940  205.5230  148.4720 C   0  0  0  0  0  0  0  0  0  0  0  0
  160.0320  205.6980  149.4610 O   0  0  0  0  0  1  0  0  0  0  0  0
  161.9880  204.7800  148.6940 O   0  0  0  0  0  0  0  0  0  0  0  0
  160.4460  207.4730  147.2560 O   0  0  0  0  0  0  0  0  0  0  0  0
  161.4950  208.0640  147.9640 C   0  0  0  0  0  1  0  0  0  0  0  0
  159.9480  210.1900  153.0610 C   0  0  0  0  0  2  0  0  0  0  0  0
  161.0960  210.7060  155.1100 C   0  0  0  0  0  2  0  0  0  0  0  0
  161.6940  211.6750  157.2610 O   0  0  0  0  0  1  0  0  0  0  0  0
  159.9570  212.7100  155.9500 C   0  0  0  0  0  0  0  0  0  0  0  0
  160.7710  211.1810  153.7440 N   0  0  0  0  0  0  0  0  0  0  0  0
  159.6530  213.5110  156.8750 O   0  0  0  0  0  0  0  0  0  0  0  0
  160.9950  211.7610  156.1050 N   0  0  0  0  0  0  0  0  0  0  0  0
  159.2650  212.7420  154.6400 C   0  0  1  0  0  3  0  0  0  0  0  0
  160.1990  212.4360  153.6100 O   0  0  0  0  0  0  0  0  0  0  0  0
  157.5880  211.5260  155.9200 O   0  0  0  0  0  0  0  0  0  0  0  0
  155.6370  211.7830  157.2600 C   0  0  0  0  0  2  0  0  0  0  0  0
  156.7340  212.5430  153.9690 C   0  0  2  0  0  3  0  0  0  0  0  0
  155.7710  212.5610  155.0130 O   0  0  0  0  0  0  0  0  0  0  0  0
  156.2950  211.9450  156.1240 C   0  0  0  0  0  0  0  0  0  0  0  0
  157.9960  211.8680  154.5990 C   0  0  1  0  0  3  0  0  0  0  0  0
  156.9370  213.9550  153.4330 C   0  0  0  0  0  2  0  0  0  0  0  0
  156.4230  214.0400  152.0730 N   0  0  0  0  0  2  0  0  0  0  0  0
  158.6310  213.9670  151.0430 C   0  0  0  0  0  3  0  0  0  0  0  0
  158.8950  213.5430  148.6670 C   0  0  0  0  0  0  0  0  0  0  0  0
  156.6820  213.5930  149.6610 C   0  0  0  0  0  3  0  0  0  0  0  0
  157.5040  213.4350  148.5430 C   0  0  0  0  0  3  0  0  0  0  0  0
  159.4540  213.8080  149.9250 C   0  0  0  0  0  3  0  0  0  0  0  0
  157.2440  213.8610  150.9180 C   0  0  0  0  0  0  0  0  0  0  0  0
  159.7650  213.3780  147.4930 C   0  0  0  0  0  0  0  0  0  0  0  0
  159.2670  213.2010  146.3490 O   0  0  0  0  0  0  0  0  0  0  0  0
  161.1470  213.4210  147.6330 O   0  0  0  0  0  1  0  0  0  0  0  0
  1  5  1  0  0  0  0
  2  3  1  0  0  0  0
  2  7  1  0  0  0  0
  4  6  1  0  0  0  0
  4  1  2  0  0  0  0
  5  3  2  0  0  0  0
  5 30  1  0  0  0  0
  6  2  2  0  0  0  0
  8  7  1  0  0  0  0
  9  8  1  0  0  0  0
 10  9  1  0  0  0  0
 11 10  1  0  0  0  0
 12 13  2  0  0  0  0
 13 14  1  0  0  0  0
 14 11  1  0  0  0  0
 15 17  1  0  0  0  0
 15 16  1  0  0  0  0
 16 13  1  1  0  0  0
 17 18  1  6  0  0  0
 17 16  1  0  0  0  0
 18 21  1  0  0  0  0
 19 24  1  1  0  0  0
 20 21  1  0  0  0  0
 20 19  1  0  0  0  0
 21 23  1  6  0  0  0
 21 19  1  0  0  0  0
 23 22  1  0  0  0  0
 24 28  1  1  0  0  0
 24 25  1  0  0  0  0
 25 27  2  0  0  0  0
 25 26  1  0  0  0  0
 28 29  1  0  0  0  0
 30 34  1  0  0  0  0
 31 36  1  0  0  0  0
 33 36  1  0  0  0  0
 33 35  2  0  0  0  0
 34 31  1  0  0  0  0
 36 32  1  0  0  0  0
 37 38  1  6  0  0  0
 37 33  1  0  0  0  0
 38 34  1  0  0  0  0
 39 43  1  0  0  0  0
 41 45  1  1  0  0  0
 41 44  1  0  0  0  0
 41 42  1  0  0  0  0
 42 43  1  0  0  0  0
 43 40  2  0  0  0  0
 44 37  1  0  0  0  0
 44 39  1  1  0  0  0
 46 45  1  0  0  0  0
 48 51  1  0  0  0  0
 49 52  2  0  0  0  0
 50 48  2  0  0  0  0
 50 49  1  0  0  0  0
 51 47  2  0  0  0  0
 52 47  1  0  0  0  0
 52 46  1  0  0  0  0
 53 55  1  0  0  0  0
 53 48  1  0  0  0  0
 54 53  2  0  0  0  0
M  END
>  <MODEL>
4

>  <REMARK>
 VINA RESULT:      -5.0      4.511      6.397
  Name = 
  20 active torsions:
  status: ('A' for Active; 'I' for Inactive)
    1  A    between atoms: C_1  and  C_53
    2  A    between atoms: C_2  and  N_28
    3  A    between atoms: C_2  and  C_44
    4  A    between atoms: C_3  and  C_53
    5  A    between atoms: O_6  and  C_53
    6  A    between atoms: C_8  and  N_22
    7  A    between atoms: C_8  and  C_35
    8  A    between atoms: C_10  and  C_32
    9  A    between atoms: C_16  and  C_36
   10  A    between atoms: C_20  and  C_42
   11  A    between atoms: C_25  and  C_38
   12  A    between atoms: C_26  and  C_45
   13  A    between atoms: C_27  and  C_54
   14  A    between atoms: C_29  and  C_38
   15  A    between atoms: C_29  and  C_50
   16  A    between atoms: N_33  and  C_36
   17  A    between atoms: N_33  and  C_52
   18  A    between atoms: C_35  and  C_43
   19  A    between atoms: C_43  and  S_51
   20  A    between atoms: S_51  and  C_54
                            x       y       z     vdW  Elec       q    Type
                         _______ _______ _______ _____ _____    ______ ____

>  <TORSDO>
F 20

$$$$
=
 OpenBabel11062408553D

 55 60  0  0  1  0  0  0  0  0999 V2000
  161.9900  208.8490  149.9610 C   0  0  0  0  0  3  0  0  0  0  0  0
  161.5710  211.0850  148.3330 C   0  0  0  0  0  0  0  0  0  0  0  0
  161.2100  209.8120  147.8800 C   0  0  0  0  0  3  0  0  0  0  0  0
  162.3530  210.1210  150.4150 C   0  0  0  0  0  3  0  0  0  0  0  0
  161.4140  208.6940  148.6940 C   0  0  0  0  0  0  0  0  0  0  0  0
  162.1440  211.2390  149.6010 C   0  0  0  0  0  3  0  0  0  0  0  0
  161.3540  212.2710  147.4550 C   0  0  0  0  0  2  0  0  0  0  0  0
  162.8130  213.3610  147.4560 S   0  0  0  0  0  0  0  0  0  0  0  0
  162.1450  214.4390  146.1490 C   0  0  0  0  0  2  0  0  0  0  0  0
  162.3890  213.8200  144.7820 C   0  0  0  0  0  2  0  0  0  0  0  0
  161.1170  213.8570  143.9520 C   0  0  0  0  0  2  0  0  0  0  0  0
  162.2880  213.1750  141.4500 O   0  0  0  0  0  0  0  0  0  0  0  0
  161.5740  212.3040  142.0170 C   0  0  0  0  0  0  0  0  0  0  0  0
  160.9410  212.5870  143.2640 N   0  0  0  0  0  2  0  0  0  0  0  0
  162.2830  210.8200  140.3150 O   0  0  0  0  0  0  0  0  0  0  0  0
  161.3530  210.9830  141.3570 C   0  0  2  0  0  3  0  0  0  0  0  0
  160.9760  211.1730  139.9390 C   0  0  2  0  0  3  0  0  0  0  0  0
  160.2680  209.9360  139.4200 C   0  0  0  0  0  2  0  0  0  0  0  0
  158.7020  210.2300  137.2810 C   0  0  2  0  0  3  0  0  0  0  0  0
  159.2760  208.8250  137.4060 C   0  0  0  0  0  2  0  0  0  0  0  0
  160.0780  210.0050  137.9040 C   0  0  2  0  0  0  0  0  0  0  0  0
  162.2110  209.2210  137.1520 O   0  0  0  0  0  1  0  0  0  0  0  0
  161.2830  210.2560  137.0130 C   0  0  0  0  0  2  0  0  0  0  0  0
  157.5980  210.4430  138.3200 C   0  0  1  0  0  3  0  0  0  0  0  0
  157.3700  211.9030  138.5570 C   0  0  0  0  0  0  0  0  0  0  0  0
  156.8040  212.7030  137.5710 O   0  0  0  0  0  0  0  0  0  0  0  0
  157.6200  212.3940  139.6900 O   0  0  0  0  0  1  0  0  0  0  0  0
  156.4100  209.8540  137.8780 O   0  0  0  0  0  0  0  0  0  0  0  0
  155.7640  209.4280  139.0400 C   0  0  0  0  0  1  0  0  0  0  0  0
  161.0370  207.3410  148.2000 C   0  0  0  0  0  2  0  0  0  0  0  0
  161.3850  206.6010  145.9390 C   0  0  0  0  0  2  0  0  0  0  0  0
  161.7700  205.2090  143.9810 O   0  0  0  0  0  1  0  0  0  0  0  0
  162.0990  204.2660  146.1740 C   0  0  0  0  0  0  0  0  0  0  0  0
  162.0290  206.8550  147.2500 N   0  0  0  0  0  0  0  0  0  0  0  0
  162.2740  203.1050  145.7140 O   0  0  0  0  0  0  0  0  0  0  0  0
  161.8440  205.3670  145.3230 N   0  0  0  0  0  0  0  0  0  0  0  0
  162.1840  204.5440  147.6270 C   0  0  1  0  0  3  0  0  0  0  0  0
  162.7630  205.8290  147.8250 O   0  0  0  0  0  0  0  0  0  0  0  0
  160.3640  203.0240  148.1820 O   0  0  0  0  0  0  0  0  0  0  0  0
  159.7500  201.1910  149.5730 C   0  0  0  0  0  2  0  0  0  0  0  0
  160.8960  204.5360  149.9150 C   0  0  2  0  0  3  0  0  0  0  0  0
  160.4970  203.2780  150.4440 O   0  0  0  0  0  0  0  0  0  0  0  0
  160.1770  202.4330  149.4090 C   0  0  0  0  0  0  0  0  0  0  0  0
  160.8430  204.3530  148.3640 C   0  0  1  0  0  3  0  0  0  0  0  0
  162.2520  204.9270  150.4890 C   0  0  0  0  0  2  0  0  0  0  0  0
  162.1910  204.9060  151.9440 N   0  0  0  0  0  2  0  0  0  0  0  0
  161.6620  205.8920  154.1100 C   0  0  0  0  0  3  0  0  0  0  0  0
  160.7060  208.1170  154.2770 C   0  0  0  0  0  0  0  0  0  0  0  0
  161.2340  207.1740  152.1050 C   0  0  0  0  0  3  0  0  0  0  0  0
  160.7420  208.2260  152.8810 C   0  0  0  0  0  3  0  0  0  0  0  0
  161.1710  206.9440  154.8880 C   0  0  0  0  0  3  0  0  0  0  0  0
  161.6960  206.0010  152.7180 C   0  0  0  0  0  0  0  0  0  0  0  0
  160.1880  209.2210  155.0990 C   0  0  0  0  0  0  0  0  0  0  0  0
  159.7830  209.0080  156.2730 O   0  0  0  0  0  1  0  0  0  0  0  0
  160.1430  210.5130  154.5890 O   0  0  0  0  0  0  0  0  0  0  0  0
  1  4  1  0  0  0  0
  2  6  1  0  0  0  0
  3  2  2  0  0  0  0
  3  5  1  0  0  0  0
  5  1  2  0  0  0  0
  6  4  2  0  0  0  0
  7  8  1  0  0  0  0
  7  2  1  0  0  0  0
  9  8  1  0  0  0  0
 10  9  1  0  0  0  0
 11 10  1  0  0  0  0
 12 13  2  0  0  0  0
 13 14  1  0  0  0  0
 14 11  1  0  0  0  0
 15 16  1  0  0  0  0
 16 13  1  1  0  0  0
 17 18  1  6  0  0  0
 17 15  1  0  0  0  0
 17 16  1  0  0  0  0
 19 20  1  0  0  0  0
 19 21  1  0  0  0  0
 19 24  1  1  0  0  0
 20 21  1  0  0  0  0
 21 23  1  6  0  0  0
 21 18  1  0  0  0  0
 23 22  1  0  0  0  0
 24 28  1  6  0  0  0
 24 25  1  0  0  0  0
 25 27  1  0  0  0  0
 26 25  2  0  0  0  0
 28 29  1  0  0  0  0
 30  5  1  0  0  0  0
 31 34  1  0  0  0  0
 32 36  1  0  0  0  0
 34 38  1  0  0  0  0
 34 30  1  0  0  0  0
 35 33  2  0  0  0  0
 36 31  1  0  0  0  0
 36 33  1  0  0  0  0
 37 33  1  6  0  0  0
 37 38  1  0  0  0  0
 37 44  1  0  0  0  0
 39 43  1  0  0  0  0
 41 42  1  0  0  0  0
 41 45  1  1  0  0  0
 43 40  2  0  0  0  0
 43 42  1  0  0  0  0
 44 39  1  1  0  0  0
 44 41  1  0  0  0  0
 45 46  1  0  0  0  0
 46 52  1  0  0  0  0
 47 51  1  0  0  0  0
 48 51  2  0  0  0  0
 48 53  1  0  0  0  0
 49 52  1  0  0  0  0
 49 50  2  0  0  0  0
 50 48  1  0  0  0  0
 52 47  2  0  0  0  0
 53 54  1  0  0  0  0
 55 53  2  0  0  0  0
M  END
>  <MODEL>
5

>  <REMARK>
 VINA RESULT:      -4.5      3.375      7.640
  Name = 
  20 active torsions:
  status: ('A' for Active; 'I' for Inactive)
    1  A    between atoms: C_1  and  C_53
    2  A    between atoms: C_2  and  N_28
    3  A    between atoms: C_2  and  C_44
    4  A    between atoms: C_3  and  C_53
    5  A    between atoms: O_6  and  C_53
    6  A    between atoms: C_8  and  N_22
    7  A    between atoms: C_8  and  C_35
    8  A    between atoms: C_10  and  C_32
    9  A    between atoms: C_16  and  C_36
   10  A    between atoms: C_20  and  C_42
   11  A    between atoms: C_25  and  C_38
   12  A    between atoms: C_26  and  C_45
   13  A    between atoms: C_27  and  C_54
   14  A    between atoms: C_29  and  C_38
   15  A    between atoms: C_29  and  C_50
   16  A    between atoms: N_33  and  C_36
   17  A    between atoms: N_33  and  C_52
   18  A    between atoms: C_35  and  C_43
   19  A    between atoms: C_43  and  S_51
   20  A    between atoms: S_51  and  C_54
                            x       y       z     vdW  Elec       q    Type
                         _______ _______ _______ _____ _____    ______ ____

>  <TORSDO>
F 20

$$$$
=
 OpenBabel11062408553D

 55 60  0  0  1  0  0  0  0  0999 V2000
  162.3310  210.8400  150.2580 C   0  0  0  0  0  3  0  0  0  0  0  0
  161.2180  212.8730  148.6900 C   0  0  0  0  0  0  0  0  0  0  0  0
  160.8590  212.7510  150.0360 C   0  0  0  0  0  3  0  0  0  0  0  0
  162.6910  210.9600  148.9120 C   0  0  0  0  0  3  0  0  0  0  0  0
  161.4180  211.7390  150.8220 C   0  0  0  0  0  0  0  0  0  0  0  0
  162.1340  211.9760  148.1270 C   0  0  0  0  0  3  0  0  0  0  0  0
  160.6130  213.9530  147.8590 C   0  0  0  0  0  2  0  0  0  0  0  0
  158.9960  213.4400  147.1970 S   0  0  0  0  0  0  0  0  0  0  0  0
  159.1970  214.3970  145.6620 C   0  0  0  0  0  2  0  0  0  0  0  0
  159.6140  213.4820  144.5220 C   0  0  0  0  0  2  0  0  0  0  0  0
  158.5610  213.4880  143.4280 C   0  0  0  0  0  2  0  0  0  0  0  0
  157.8980  214.4520  140.8330 O   0  0  0  0  0  0  0  0  0  0  0  0
  158.7740  213.5490  140.9140 C   0  0  0  0  0  0  0  0  0  0  0  0
  159.1390  213.0060  142.1830 N   0  0  0  0  0  2  0  0  0  0  0  0
  159.0770  213.8460  138.5860 O   0  0  0  0  0  0  0  0  0  0  0  0
  159.4010  213.0110  139.6710 C   0  0  2  0  0  3  0  0  0  0  0  0
  158.3590  212.6420  138.6870 C   0  0  2  0  0  3  0  0  0  0  0  0
  158.9190  211.6550  137.6820 C   0  0  0  0  0  2  0  0  0  0  0  0
  159.8890  209.2400  138.2650 C   0  0  2  0  0  3  0  0  0  0  0  0
  158.9940  209.2360  137.0340 C   0  0  0  0  0  2  0  0  0  0  0  0
  158.7180  210.2140  138.1530 C   0  0  2  0  0  0  0  0  0  0  0  0
  156.5990  209.1050  138.0630 O   0  0  0  0  0  1  0  0  0  0  0  0
  157.4440  209.8430  138.8950 C   0  0  0  0  0  2  0  0  0  0  0  0
  161.2390  209.8810  137.9350 C   0  0  1  0  0  3  0  0  0  0  0  0
  161.8230  210.5390  139.1450 C   0  0  0  0  0  0  0  0  0  0  0  0
  162.7540  211.5640  139.0160 O   0  0  0  0  0  0  0  0  0  0  0  0
  161.4080  210.2140  140.2900 O   0  0  0  0  0  1  0  0  0  0  0  0
  162.1250  208.9060  137.4650 O   0  0  0  0  0  0  0  0  0  0  0  0
  161.5950  207.6920  137.9090 C   0  0  0  0  0  1  0  0  0  0  0  0
  161.0220  211.6100  152.2520 C   0  0  0  0  0  2  0  0  0  0  0  0
  159.4450  213.0420  153.3660 C   0  0  0  0  0  2  0  0  0  0  0  0
  157.7410  213.8900  154.8820 O   0  0  0  0  0  1  0  0  0  0  0  0
  158.1280  211.5150  154.7640 C   0  0  0  0  0  0  0  0  0  0  0  0
  159.6070  211.9170  152.4140 N   0  0  0  0  0  0  0  0  0  0  0  0
  157.3590  211.2810  155.7350 O   0  0  0  0  0  0  0  0  0  0  0  0
  158.3470  212.8320  154.2950 N   0  0  0  0  0  0  0  0  0  0  0  0
  158.8190  210.4210  154.0420 C   0  0  1  0  0  3  0  0  0  0  0  0
  158.9010  210.7500  152.6590 O   0  0  0  0  0  0  0  0  0  0  0  0
  159.9950  209.5520  155.9890 O   0  0  0  0  0  0  0  0  0  0  0  0
  160.5050  207.5610  157.1940 C   0  0  0  0  0  2  0  0  0  0  0  0
  160.9580  208.9000  153.9350 C   0  0  2  0  0  3  0  0  0  0  0  0
  161.0830  207.8680  154.9040 O   0  0  0  0  0  0  0  0  0  0  0  0
  160.5300  208.2890  156.0890 C   0  0  0  0  0  0  0  0  0  0  0  0
  160.1780  210.0420  154.6650 C   0  0  1  0  0  3  0  0  0  0  0  0
  160.2980  208.3470  152.6780 C   0  0  0  0  0  2  0  0  0  0  0  0
  160.8570  207.0390  152.3680 N   0  0  0  0  0  2  0  0  0  0  0  0
  160.8290  205.2010  150.7660 C   0  0  0  0  0  3  0  0  0  0  0  0
  161.3600  205.5670  148.4260 C   0  0  0  0  0  0  0  0  0  0  0  0
  161.3830  207.4230  149.9890 C   0  0  0  0  0  3  0  0  0  0  0  0
  161.5500  206.9290  148.6930 C   0  0  0  0  0  3  0  0  0  0  0  0
  160.9970  204.7060  149.4710 C   0  0  0  0  0  3  0  0  0  0  0  0
  161.0210  206.5590  151.0330 C   0  0  0  0  0  0  0  0  0  0  0  0
  161.5370  205.0410  147.0640 C   0  0  0  0  0  0  0  0  0  0  0  0
  162.3300  204.0870  146.8450 O   0  0  0  0  0  1  0  0  0  0  0  0
  160.8260  205.5900  146.0030 O   0  0  0  0  0  0  0  0  0  0  0  0
  1  5  1  0  0  0  0
  2  3  1  0  0  0  0
  3  5  2  0  0  0  0
  4  1  2  0  0  0  0
  5 30  1  0  0  0  0
  6  2  2  0  0  0  0
  6  4  1  0  0  0  0
  7  2  1  0  0  0  0
  8  7  1  0  0  0  0
  9  8  1  0  0  0  0
 10  9  1  0  0  0  0
 11 10  1  0  0  0  0
 12 13  2  0  0  0  0
 13 14  1  0  0  0  0
 14 11  1  0  0  0  0
 15 17  1  0  0  0  0
 15 16  1  0  0  0  0
 16 13  1  1  0  0  0
 17 18  1  6  0  0  0
 17 16  1  0  0  0  0
 19 24  1  6  0  0  0
 20 21  1  0  0  0  0
 20 19  1  0  0  0  0
 21 18  1  6  0  0  0
 21 19  1  0  0  0  0
 21 23  1  0  0  0  0
 22 23  1  0  0  0  0
 24 28  1  1  0  0  0
 24 25  1  0  0  0  0
 25 27  1  0  0  0  0
 26 25  2  0  0  0  0
 28 29  1  0  0  0  0
 30 34  1  0  0  0  0
 31 36  1  0  0  0  0
 33 35  2  0  0  0  0
 34 38  1  0  0  0  0
 34 31  1  0  0  0  0
 36 33  1  0  0  0  0
 36 32  1  0  0  0  0
 37 38  1  6  0  0  0
 37 44  1  0  0  0  0
 37 33  1  0  0  0  0
 39 43  1  0  0  0  0
 41 45  1  6  0  0  0
 41 44  1  0  0  0  0
 41 42  1  0  0  0  0
 42 43  1  0  0  0  0
 43 40  2  0  0  0  0
 44 39  1  1  0  0  0
 46 45  1  0  0  0  0
 47 52  1  0  0  0  0
 48 50  2  0  0  0  0
 48 51  1  0  0  0  0
 49 52  2  0  0  0  0
 50 49  1  0  0  0  0
 51 47  2  0  0  0  0
 52 46  1  0  0  0  0
 53 48  1  0  0  0  0
 54 53  1  0  0  0  0
 55 53  2  0  0  0  0
M  END
>  <MODEL>
6

>  <REMARK>
 VINA RESULT:      -4.5      2.813      6.288
  Name = 
  20 active torsions:
  status: ('A' for Active; 'I' for Inactive)
    1  A    between atoms: C_1  and  C_53
    2  A    between atoms: C_2  and  N_28
    3  A    between atoms: C_2  and  C_44
    4  A    between atoms: C_3  and  C_53
    5  A    between atoms: O_6  and  C_53
    6  A    between atoms: C_8  and  N_22
    7  A    between atoms: C_8  and  C_35
    8  A    between atoms: C_10  and  C_32
    9  A    between atoms: C_16  and  C_36
   10  A    between atoms: C_20  and  C_42
   11  A    between atoms: C_25  and  C_38
   12  A    between atoms: C_26  and  C_45
   13  A    between atoms: C_27  and  C_54
   14  A    between atoms: C_29  and  C_38
   15  A    between atoms: C_29  and  C_50
   16  A    between atoms: N_33  and  C_36
   17  A    between atoms: N_33  and  C_52
   18  A    between atoms: C_35  and  C_43
   19  A    between atoms: C_43  and  S_51
   20  A    between atoms: S_51  and  C_54
                            x       y       z     vdW  Elec       q    Type
                         _______ _______ _______ _____ _____    ______ ____

>  <TORSDO>
F 20

$$$$
=
 OpenBabel11062408553D

 55 60  0  0  1  0  0  0  0  0999 V2000
  162.0930  211.2990  150.2660 C   0  0  0  0  0  3  0  0  0  0  0  0
  160.6540  213.3590  149.0370 C   0  0  0  0  0  0  0  0  0  0  0  0
  160.4660  213.0880  150.3960 C   0  0  0  0  0  3  0  0  0  0  0  0
  162.2820  211.5680  148.9070 C   0  0  0  0  0  3  0  0  0  0  0  0
  161.1880  212.0630  151.0130 C   0  0  0  0  0  0  0  0  0  0  0  0
  161.5620  212.5970  148.2920 C   0  0  0  0  0  3  0  0  0  0  0  0
  159.8760  214.4530  148.3870 C   0  0  0  0  0  2  0  0  0  0  0  0
  158.3220  213.8180  147.6800 S   0  0  0  0  0  0  0  0  0  0  0  0
  158.8060  214.2200  145.9720 C   0  0  0  0  0  2  0  0  0  0  0  0
  159.3940  212.9950  145.2900 C   0  0  0  0  0  2  0  0  0  0  0  0
  158.9300  212.9220  143.8450 C   0  0  0  0  0  2  0  0  0  0  0  0
  160.7570  213.5170  141.7460 O   0  0  0  0  0  0  0  0  0  0  0  0
  160.6360  212.3090  142.0900 C   0  0  0  0  0  0  0  0  0  0  0  0
  159.7220  211.9390  143.1220 N   0  0  0  0  0  2  0  0  0  0  0  0
  162.5920  211.8220  140.8500 O   0  0  0  0  0  0  0  0  0  0  0  0
  161.4200  211.2540  141.3820 C   0  0  2  0  0  3  0  0  0  0  0  0
  161.5440  211.5840  139.9440 C   0  0  2  0  0  3  0  0  0  0  0  0
  161.8620  210.3320  139.1490 C   0  0  0  0  0  2  0  0  0  0  0  0
  160.5740  208.3440  137.9260 C   0  0  2  0  0  3  0  0  0  0  0  0
  160.8200  209.5380  137.0140 C   0  0  0  0  0  2  0  0  0  0  0  0
  160.6040  209.7610  138.4940 C   0  0  2  0  0  0  0  0  0  0  0  0
  158.4130  210.2370  137.6590 O   0  0  0  0  0  1  0  0  0  0  0  0
  159.2620  210.4240  138.7530 C   0  0  0  0  0  2  0  0  0  0  0  0
  161.8780  207.5760  138.1530 C   0  0  1  0  0  3  0  0  0  0  0  0
  162.1890  207.4790  139.6130 C   0  0  0  0  0  0  0  0  0  0  0  0
  162.9800  208.4380  140.2360 O   0  0  0  0  0  0  0  0  0  0  0  0
  161.6640  206.5630  140.3000 O   0  0  0  0  0  1  0  0  0  0  0  0
  161.7710  206.2890  137.6160 O   0  0  0  0  0  0  0  0  0  0  0  0
  163.0170  206.0330  137.0390 C   0  0  0  0  0  1  0  0  0  0  0  0
  160.9740  211.7740  152.4590 C   0  0  0  0  0  2  0  0  0  0  0  0
  159.4100  212.9020  153.8930 C   0  0  0  0  0  2  0  0  0  0  0  0
  157.8160  213.3950  155.6650 O   0  0  0  0  0  1  0  0  0  0  0  0
  158.3980  211.1000  155.2160 C   0  0  0  0  0  0  0  0  0  0  0  0
  159.5640  211.9150  152.7980 N   0  0  0  0  0  0  0  0  0  0  0  0
  157.7660  210.6800  156.2230 O   0  0  0  0  0  0  0  0  0  0  0  0
  158.4450  212.4770  154.8940 N   0  0  0  0  0  0  0  0  0  0  0  0
  159.0990  210.1710  154.2990 C   0  0  1  0  0  3  0  0  0  0  0  0
  158.9960  210.6620  152.9670 O   0  0  0  0  0  0  0  0  0  0  0  0
  160.5760  209.4160  156.0820 O   0  0  0  0  0  0  0  0  0  0  0  0
  161.3340  207.4900  157.2610 C   0  0  0  0  0  2  0  0  0  0  0  0
  161.2610  208.7260  153.9320 C   0  0  2  0  0  3  0  0  0  0  0  0
  161.5660  207.7350  154.9030 O   0  0  0  0  0  0  0  0  0  0  0  0
  161.1710  208.1780  156.1420 C   0  0  0  0  0  0  0  0  0  0  0  0
  160.5470  209.8640  154.7310 C   0  0  1  0  0  3  0  0  0  0  0  0
  160.4520  208.1050  152.8000 C   0  0  0  0  0  2  0  0  0  0  0  0
  161.3440  207.7250  151.7130 N   0  0  0  0  0  2  0  0  0  0  0  0
  160.9230  206.4410  149.6840 C   0  0  0  0  0  3  0  0  0  0  0  0
  161.0510  204.0170  149.6820 C   0  0  0  0  0  0  0  0  0  0  0  0
  161.4920  205.2630  151.7170 C   0  0  0  0  0  3  0  0  0  0  0  0
  161.3900  204.0450  151.0410 C   0  0  0  0  0  3  0  0  0  0  0  0
  160.8210  205.2240  149.0060 C   0  0  0  0  0  3  0  0  0  0  0  0
  161.2580  206.4680  151.0390 C   0  0  0  0  0  0  0  0  0  0  0  0
  160.9410  202.7380  148.9660 C   0  0  0  0  0  0  0  0  0  0  0  0
  160.2370  201.8030  149.4320 O   0  0  0  0  0  1  0  0  0  0  0  0
  161.6110  202.5480  147.7620 O   0  0  0  0  0  0  0  0  0  0  0  0
  1  5  1  0  0  0  0
  2  3  1  0  0  0  0
  3  5  2  0  0  0  0
  4  1  2  0  0  0  0
  5 30  1  0  0  0  0
  6  4  1  0  0  0  0
  6  2  2  0  0  0  0
  7  2  1  0  0  0  0
  8  7  1  0  0  0  0
  9  8  1  0  0  0  0
 10  9  1  0  0  0  0
 11 10  1  0  0  0  0
 12 13  2  0  0  0  0
 13 14  1  0  0  0  0
 14 11  1  0  0  0  0
 15 16  1  0  0  0  0
 16 13  1  1  0  0  0
 17 18  1  6  0  0  0
 17 15  1  0  0  0  0
 17 16  1  0  0  0  0
 19 24  1  1  0  0  0
 19 21  1  0  0  0  0
 20 19  1  0  0  0  0
 20 21  1  0  0  0  0
 21 23  1  1  0  0  0
 21 18  1  0  0  0  0
 22 23  1  0  0  0  0
 24 28  1  1  0  0  0
 24 25  1  0  0  0  0
 25 26  2  0  0  0  0
 25 27  1  0  0  0  0
 29 28  1  0  0  0  0
 30 34  1  0  0  0  0
 31 36  1  0  0  0  0
 33 35  2  0  0  0  0
 34 38  1  0  0  0  0
 34 31  1  0  0  0  0
 36 33  1  0  0  0  0
 36 32  1  0  0  0  0
 37 38  1  6  0  0  0
 37 44  1  0  0  0  0
 37 33  1  0  0  0  0
 39 43  1  0  0  0  0
 41 45  1  6  0  0  0
 41 44  1  0  0  0  0
 41 42  1  0  0  0  0
 42 43  1  0  0  0  0
 43 40  2  0  0  0  0
 44 39  1  1  0  0  0
 46 45  1  0  0  0  0
 47 52  1  0  0  0  0
 48 50  2  0  0  0  0
 50 49  1  0  0  0  0
 51 48  1  0  0  0  0
 51 47  2  0  0  0  0
 52 46  1  0  0  0  0
 52 49  2  0  0  0  0
 53 54  1  0  0  0  0
 53 48  1  0  0  0  0
 55 53  2  0  0  0  0
M  END
>  <MODEL>
7

>  <REMARK>
 VINA RESULT:      -3.4      2.893      6.689
  Name = 
  20 active torsions:
  status: ('A' for Active; 'I' for Inactive)
    1  A    between atoms: C_1  and  C_53
    2  A    between atoms: C_2  and  N_28
    3  A    between atoms: C_2  and  C_44
    4  A    between atoms: C_3  and  C_53
    5  A    between atoms: O_6  and  C_53
    6  A    between atoms: C_8  and  N_22
    7  A    between atoms: C_8  and  C_35
    8  A    between atoms: C_10  and  C_32
    9  A    between atoms: C_16  and  C_36
   10  A    between atoms: C_20  and  C_42
   11  A    between atoms: C_25  and  C_38
   12  A    between atoms: C_26  and  C_45
   13  A    between atoms: C_27  and  C_54
   14  A    between atoms: C_29  and  C_38
   15  A    between atoms: C_29  and  C_50
   16  A    between atoms: N_33  and  C_36
   17  A    between atoms: N_33  and  C_52
   18  A    between atoms: C_35  and  C_43
   19  A    between atoms: C_43  and  S_51
   20  A    between atoms: S_51  and  C_54
                            x       y       z     vdW  Elec       q    Type
                         _______ _______ _______ _____ _____    ______ ____

>  <TORSDO>
F 20

$$$$
=
 OpenBabel11062408553D

 55 60  0  0  1  0  0  0  0  0999 V2000
  159.7850  209.0980  155.2870 C   0  0  0  0  0  3  0  0  0  0  0  0
  161.3870  207.5130  153.6280 C   0  0  0  0  0  0  0  0  0  0  0  0
  160.8750  208.7260  153.1560 C   0  0  0  0  0  3  0  0  0  0  0  0
  160.2950  207.8850  155.7600 C   0  0  0  0  0  3  0  0  0  0  0  0
  160.0780  209.5210  153.9840 C   0  0  0  0  0  0  0  0  0  0  0  0
  161.0950  207.0920  154.9310 C   0  0  0  0  0  3  0  0  0  0  0  0
  162.2310  206.6690  152.7340 C   0  0  0  0  0  2  0  0  0  0  0  0
  161.4040  205.0930  152.3500 S   0  0  0  0  0  0  0  0  0  0  0  0
  160.4170  205.8130  151.0000 C   0  0  0  0  0  2  0  0  0  0  0  0
  161.1190  207.0350  150.4290 C   0  0  0  0  0  2  0  0  0  0  0  0
  160.5970  207.3390  149.0350 C   0  0  0  0  0  2  0  0  0  0  0  0
  163.0010  207.1730  147.5210 O   0  0  0  0  0  0  0  0  0  0  0  0
  162.1780  206.2230  147.4160 C   0  0  0  0  0  0  0  0  0  0  0  0
  160.9440  206.2520  148.1320 N   0  0  0  0  0  2  0  0  0  0  0  0
  162.2910  205.4910  145.1680 O   0  0  0  0  0  0  0  0  0  0  0  0
  162.4760  205.0820  146.5010 C   0  0  2  0  0  3  0  0  0  0  0  0
  161.2680  204.7100  145.7310 C   0  0  2  0  0  3  0  0  0  0  0  0
  161.3970  203.2910  145.2140 C   0  0  0  0  0  2  0  0  0  0  0  0
  159.8850  201.2850  146.1080 C   0  0  2  0  0  3  0  0  0  0  0  0
  160.1500  201.2040  144.6110 C   0  0  0  0  0  2  0  0  0  0  0  0
  160.0580  202.5560  145.2790 C   0  0  2  0  0  0  0  0  0  0  0  0
  158.8230  203.5670  143.4960 O   0  0  0  0  0  1  0  0  0  0  0  0
  158.7880  203.2810  144.8630 C   0  0  0  0  0  2  0  0  0  0  0  0
  161.1430  200.8990  146.8890 C   0  0  1  0  0  3  0  0  0  0  0  0
  161.1210  201.5000  148.2590 C   0  0  0  0  0  0  0  0  0  0  0  0
  160.6770  200.7620  149.3510 O   0  0  0  0  0  1  0  0  0  0  0  0
  161.5820  202.6590  148.4370 O   0  0  0  0  0  0  0  0  0  0  0  0
  161.2290  199.5070  146.9940 O   0  0  0  0  0  0  0  0  0  0  0  0
  161.3310  199.0520  145.6780 C   0  0  0  0  0  1  0  0  0  0  0  0
  159.5290  210.8070  153.4710 C   0  0  0  0  0  2  0  0  0  0  0  0
  157.9410  211.3030  155.2060 C   0  0  0  0  0  2  0  0  0  0  0  0
  156.1690  212.3450  156.5080 O   0  0  0  0  0  1  0  0  0  0  0  0
  157.0980  213.5340  154.6300 C   0  0  0  0  0  0  0  0  0  0  0  0
  159.2230  211.7030  154.5780 N   0  0  0  0  0  0  0  0  0  0  0  0
  156.2380  214.4530  154.7100 O   0  0  0  0  0  0  0  0  0  0  0  0
  157.1010  212.4440  155.5320 N   0  0  0  0  0  0  0  0  0  0  0  0
  158.1730  213.5650  153.6100 C   0  0  1  0  0  3  0  0  0  0  0  0
  159.3630  213.0190  154.1660 O   0  0  0  0  0  0  0  0  0  0  0  0
  156.4640  213.3520  151.8870 O   0  0  0  0  0  0  0  0  0  0  0  0
  155.4810  214.4420  150.0120 C   0  0  0  0  0  2  0  0  0  0  0  0
  158.6680  213.2640  151.0480 C   0  0  2  0  0  3  0  0  0  0  0  0
  157.8000  213.9110  150.1270 O   0  0  0  0  0  0  0  0  0  0  0  0
  156.5260  213.9260  150.6400 C   0  0  0  0  0  0  0  0  0  0  0  0
  157.7630  212.9140  152.2730 C   0  0  1  0  0  3  0  0  0  0  0  0
  159.8630  214.1610  151.3440 C   0  0  0  0  0  2  0  0  0  0  0  0
  161.0370  213.6600  150.6420 N   0  0  0  0  0  2  0  0  0  0  0  0
  161.7800  214.4250  148.4500 C   0  0  0  0  0  3  0  0  0  0  0  0
  161.1780  213.2210  146.4300 C   0  0  0  0  0  0  0  0  0  0  0  0
  160.4330  212.4220  148.5960 C   0  0  0  0  0  3  0  0  0  0  0  0
  160.4810  212.2860  147.2070 C   0  0  0  0  0  3  0  0  0  0  0  0
  161.8290  214.2900  147.0600 C   0  0  0  0  0  3  0  0  0  0  0  0
  161.0830  213.4940  149.2240 C   0  0  0  0  0  0  0  0  0  0  0  0
  161.2310  213.0850  144.9670 C   0  0  0  0  0  0  0  0  0  0  0  0
  160.1790  212.8720  144.3060 O   0  0  0  0  0  1  0  0  0  0  0  0
  162.4440  213.1930  144.2960 O   0  0  0  0  0  0  0  0  0  0  0  0
  1  4  1  0  0  0  0
  2  6  1  0  0  0  0
  3  2  2  0  0  0  0
  3  5  1  0  0  0  0
  5  1  2  0  0  0  0
  6  4  2  0  0  0  0
  7  2  1  0  0  0  0
  8  7  1  0  0  0  0
  9  8  1  0  0  0  0
 10  9  1  0  0  0  0
 11 10  1  0  0  0  0
 13 12  2  0  0  0  0
 13 14  1  0  0  0  0
 14 11  1  0  0  0  0
 15 17  1  0  0  0  0
 15 16  1  0  0  0  0
 16 13  1  1  0  0  0
 17 18  1  6  0  0  0
 17 16  1  0  0  0  0
 18 21  1  0  0  0  0
 19 24  1  1  0  0  0
 20 21  1  0  0  0  0
 20 19  1  0  0  0  0
 21 23  1  6  0  0  0
 21 19  1  0  0  0  0
 22 23  1  0  0  0  0
 24 28  1  1  0  0  0
 24 25  1  0  0  0  0
 25 27  2  0  0  0  0
 25 26  1  0  0  0  0
 29 28  1  0  0  0  0
 30  5  1  0  0  0  0
 30 34  1  0  0  0  0
 31 36  1  0  0  0  0
 33 35  2  0  0  0  0
 33 36  1  0  0  0  0
 34 31  1  0  0  0  0
 36 32  1  0  0  0  0
 37 38  1  1  0  0  0
 37 33  1  0  0  0  0
 38 34  1  0  0  0  0
 40 43  2  0  0  0  0
 41 45  1  1  0  0  0
 41 44  1  0  0  0  0
 42 43  1  0  0  0  0
 42 41  1  0  0  0  0
 43 39  1  0  0  0  0
 44 39  1  6  0  0  0
 44 37  1  0  0  0  0
 46 45  1  0  0  0  0
 47 52  1  0  0  0  0
 48 51  1  0  0  0  0
 48 50  2  0  0  0  0
 49 52  2  0  0  0  0
 50 49  1  0  0  0  0
 51 47  2  0  0  0  0
 52 46  1  0  0  0  0
 53 48  1  0  0  0  0
 54 53  1  0  0  0  0
 55 53  2  0  0  0  0
M  END
>  <MODEL>
8

>  <REMARK>
 VINA RESULT:      -2.9      3.845      7.353
  Name = 
  20 active torsions:
  status: ('A' for Active; 'I' for Inactive)
    1  A    between atoms: C_1  and  C_53
    2  A    between atoms: C_2  and  N_28
    3  A    between atoms: C_2  and  C_44
    4  A    between atoms: C_3  and  C_53
    5  A    between atoms: O_6  and  C_53
    6  A    between atoms: C_8  and  N_22
    7  A    between atoms: C_8  and  C_35
    8  A    between atoms: C_10  and  C_32
    9  A    between atoms: C_16  and  C_36
   10  A    between atoms: C_20  and  C_42
   11  A    between atoms: C_25  and  C_38
   12  A    between atoms: C_26  and  C_45
   13  A    between atoms: C_27  and  C_54
   14  A    between atoms: C_29  and  C_38
   15  A    between atoms: C_29  and  C_50
   16  A    between atoms: N_33  and  C_36
   17  A    between atoms: N_33  and  C_52
   18  A    between atoms: C_35  and  C_43
   19  A    between atoms: C_43  and  S_51
   20  A    between atoms: S_51  and  C_54
                            x       y       z     vdW  Elec       q    Type
                         _______ _______ _______ _____ _____    ______ ____

>  <TORSDO>
F 20

$$$$
