=
 OpenBabel11062409113D

 37 40  0  0  1  0  0  0  0  0999 V2000
  158.5650  211.1040  152.5460 C   0  0  0  0  0  2  0  0  0  0  0  0
  162.5380  209.5420  151.9480 C   0  0  0  0  0  2  0  0  0  0  0  0
  160.3130  210.5680  157.0950 N   0  0  0  0  0  2  0  0  0  0  0  0
  160.0690  211.0470  152.7660 C   0  0  2  0  0  3  0  0  0  0  0  0
  159.9360  210.6590  155.6820 C   0  0  2  0  0  3  0  0  0  0  0  0
  160.8260  211.3570  151.4750 C   0  0  2  0  0  3  0  0  0  0  0  0
  158.4670  210.3070  155.5020 C   0  0  0  0  0  2  0  0  0  0  0  0
  160.8600  209.7630  154.8410 C   0  0  2  0  0  3  0  0  0  0  0  0
  162.5800  210.0010  156.2800 C   0  0  0  0  0  2  0  0  0  0  0  0
  157.3850  213.0260  153.2870 O   0  0  0  0  0  0  0  0  0  0  0  0
  157.7630  211.4600  154.9590 N   0  0  0  0  0  2  0  0  0  0  0  0
  162.1780  210.2380  154.9510 O   0  0  0  0  0  0  0  0  0  0  0  0
  162.3010  211.0310  151.6680 C   0  0  0  0  0  2  0  0  0  0  0  0
  157.8860  211.9160  153.6050 C   0  0  0  0  0  0  0  0  0  0  0  0
  160.4270  209.6710  153.3680 C   0  0  2  0  0  3  0  0  0  0  0  0
  161.7480  210.8440  157.2610 C   0  0  1  0  0  3  0  0  0  0  0  0
  161.3140  208.7500  152.4830 C   0  0  1  0  0  0  0  0  0  0  0  0
  162.0510  212.3290  157.0970 C   0  0  0  0  0  2  0  0  0  0  0  0
  160.7840  213.1470  157.2560 C   0  0  0  0  0  1  0  0  0  0  0  0
  160.4720  208.2700  151.2780 C   0  0  0  0  0  2  0  0  0  0  0  0
  161.3060  207.9430  150.0420 C   0  0  0  0  0  2  0  0  0  0  0  0
  161.6170  206.4290  148.1120 C   0  0  0  0  0  1  0  0  0  0  0  0
  160.7330  206.7540  149.2980 C   0  0  0  0  0  2  0  0  0  0  0  0
  161.7410  207.6470  153.2740 O   0  0  0  0  0  0  0  0  0  0  0  0
  160.7450  206.6530  153.3190 C   0  0  0  0  0  2  0  0  0  0  0  0
  161.3980  205.2920  153.4290 C   0  0  0  0  0  2  0  0  0  0  0  0
  160.7250  203.8490  151.5390 C   0  0  0  0  0  1  0  0  0  0  0  0
  161.7820  204.8050  152.0480 C   0  0  0  0  0  2  0  0  0  0  0  0
  160.6720  212.8280  151.1230 C   0  0  0  0  0  2  0  0  0  0  0  0
  159.7170  212.9950  149.9530 C   0  0  0  0  0  2  0  0  0  0  0  0
  161.9780  213.1350  148.7230 C   0  0  0  0  0  2  0  0  0  0  0  0
  160.4700  213.0420  148.6680 C   0  0  0  0  0  0  0  0  0  0  0  0
  159.8090  212.9240  147.5120 C   0  0  0  0  0  3  0  0  0  0  0  0
  159.9000  212.8160  145.1510 O   0  0  0  0  0  0  0  0  0  0  0  0
  161.9790  213.1480  146.2250 C   0  0  0  0  0  3  0  0  0  0  0  0
  160.5280  212.9480  146.2340 C   0  0  0  0  0  0  0  0  0  0  0  0
  162.6490  213.2490  147.3760 C   0  0  0  0  0  3  0  0  0  0  0  0
  1 14  1  0  0  0  0
  2 17  1  0  0  0  0
  3 16  1  0  0  0  0
  4  1  1  6  0  0  0
  4 15  1  0  0  0  0
  5  7  1  1  0  0  0
  5  3  1  0  0  0  0
  6 29  1  1  0  0  0
  6 13  1  0  0  0  0
  6  4  1  0  0  0  0
  8 12  1  6  0  0  0
  8  5  1  0  0  0  0
  9 16  1  0  0  0  0
 10 14  2  0  0  0  0
 11  7  1  0  0  0  0
 12  9  1  0  0  0  0
 13  2  1  0  0  0  0
 14 11  1  0  0  0  0
 15  8  1  0  0  0  0
 17 24  1  0  0  0  0
 17 15  1  0  0  0  0
 18 19  1  0  0  0  0
 18 16  1  0  0  0  0
 20 17  1  0  0  0  0
 21 20  1  0  0  0  0
 22 23  1  0  0  0  0
 23 21  1  0  0  0  0
 24 25  1  0  0  0  0
 25 26  1  0  0  0  0
 27 28  1  0  0  0  0
 28 26  1  0  0  0  0
 30 29  1  0  0  0  0
 32 31  1  0  0  0  0
 32 30  1  0  0  0  0
 33 32  2  0  0  0  0
 34 36  2  0  0  0  0
 35 36  1  0  0  0  0
 35 37  2  0  0  0  0
 36 33  1  0  0  0  0
 37 31  1  0  0  0  0
M  END
>  <MODEL>
1

>  <REMARK>
 VINA RESULT:      -3.8      0.000      0.000
  Name = 
  11 active torsions:
  status: ('A' for Active; 'I' for Inactive)
    1  A    between atoms: C_1  and  C_5
    2  A    between atoms: C_1  and  C_36
    3  A    between atoms: C_3  and  C_32
    4  A    between atoms: C_5  and  C_23
    5  A    between atoms: C_6  and  C_31
    6  A    between atoms: C_14  and  C_37
    7  A    between atoms: C_17  and  C_26
    8  A    between atoms: C_17  and  O_33
    9  A    between atoms: C_26  and  C_34
   10  A    between atoms: C_31  and  C_37
   11  A    between atoms: O_33  and  C_36
                            x       y       z     vdW  Elec       q    Type
                         _______ _______ _______ _____ _____    ______ ____

>  <TORSDO>
F 11

$$$$
=
 OpenBabel11062409113D

 37 40  0  0  1  0  0  0  0  0999 V2000
  161.4310  211.4560  154.9080 C   0  0  0  0  0  2  0  0  0  0  0  0
  158.3900  211.7660  151.8680 C   0  0  0  0  0  2  0  0  0  0  0  0
  157.6390  213.5070  157.2430 N   0  0  0  0  0  2  0  0  0  0  0  0
  160.0270  211.2920  154.3430 C   0  0  2  0  0  3  0  0  0  0  0  0
  158.6770  212.9020  156.4060 C   0  0  2  0  0  3  0  0  0  0  0  0
  160.0190  210.3150  153.1670 C   0  0  2  0  0  3  0  0  0  0  0  0
  160.0480  213.4370  156.7920 C   0  0  0  0  0  2  0  0  0  0  0  0
  158.3520  213.1460  154.9220 C   0  0  2  0  0  3  0  0  0  0  0  0
  156.1300  213.1960  155.3080 C   0  0  0  0  0  2  0  0  0  0  0  0
  161.9800  210.3180  156.9170 O   0  0  0  0  0  0  0  0  0  0  0  0
  160.8770  212.3330  157.2560 N   0  0  0  0  0  2  0  0  0  0  0  0
  157.1400  212.5040  154.6120 O   0  0  0  0  0  0  0  0  0  0  0  0
  158.6670  210.3830  152.4680 C   0  0  0  0  0  2  0  0  0  0  0  0
  161.4390  211.3300  156.4000 C   0  0  0  0  0  0  0  0  0  0  0  0
  159.4770  212.6880  153.9790 C   0  0  2  0  0  3  0  0  0  0  0  0
  156.3080  213.0400  156.8270 C   0  0  1  0  0  3  0  0  0  0  0  0
  159.2060  212.9420  152.4690 C   0  0  1  0  0  0  0  0  0  0  0  0
  156.0620  211.5990  157.2600 C   0  0  0  0  0  2  0  0  0  0  0  0
  155.2110  210.8780  156.2330 C   0  0  0  0  0  1  0  0  0  0  0  0
  160.5650  213.0250  151.7350 C   0  0  0  0  0  2  0  0  0  0  0  0
  160.5270  212.4650  150.3150 C   0  0  0  0  0  2  0  0  0  0  0  0
  161.2590  213.0750  148.0340 C   0  0  0  0  0  1  0  0  0  0  0  0
  160.5800  213.5790  149.2890 C   0  0  0  0  0  2  0  0  0  0  0  0
  158.4880  214.1640  152.3420 O   0  0  0  0  0  0  0  0  0  0  0  0
  157.2740  213.9590  151.6600 C   0  0  0  0  0  2  0  0  0  0  0  0
  157.4090  214.4530  150.2360 C   0  0  0  0  0  2  0  0  0  0  0  0
  157.0770  213.3400  148.0540 C   0  0  0  0  0  1  0  0  0  0  0  0
  156.4110  213.7290  149.3570 C   0  0  0  0  0  2  0  0  0  0  0  0
  160.2620  208.9000  153.6670 C   0  0  0  0  0  2  0  0  0  0  0  0
  161.5750  208.3640  153.1190 C   0  0  0  0  0  2  0  0  0  0  0  0
  161.1520  207.5660  150.7040 C   0  0  0  0  0  2  0  0  0  0  0  0
  161.3250  207.2420  152.1720 C   0  0  0  0  0  0  0  0  0  0  0  0
  161.3370  205.9830  152.6230 C   0  0  0  0  0  3  0  0  0  0  0  0
  161.1460  203.6760  152.1370 O   0  0  0  0  0  0  0  0  0  0  0  0
  160.8290  205.1230  150.2950 C   0  0  0  0  0  3  0  0  0  0  0  0
  161.1130  204.8590  151.7080 C   0  0  0  0  0  0  0  0  0  0  0  0
  160.8330  206.3750  149.8330 C   0  0  0  0  0  3  0  0  0  0  0  0
  1 14  1  0  0  0  0
  2 13  1  0  0  0  0
  2 17  1  0  0  0  0
  4  1  1  6  0  0  0
  5  7  1  1  0  0  0
  5  3  1  0  0  0  0
  6 29  1  1  0  0  0
  6  4  1  0  0  0  0
  7 11  1  0  0  0  0
  8 12  1  6  0  0  0
  8  5  1  0  0  0  0
  9 16  1  0  0  0  0
 12  9  1  0  0  0  0
 13  6  1  0  0  0  0
 14 10  2  0  0  0  0
 14 11  1  0  0  0  0
 15  4  1  0  0  0  0
 15  8  1  0  0  0  0
 16  3  1  0  0  0  0
 16 18  1  0  0  0  0
 17 15  1  0  0  0  0
 19 18  1  0  0  0  0
 20 17  1  0  0  0  0
 21 20  1  0  0  0  0
 22 23  1  0  0  0  0
 23 21  1  0  0  0  0
 24 17  1  0  0  0  0
 25 24  1  0  0  0  0
 26 25  1  0  0  0  0
 27 28  1  0  0  0  0
 28 26  1  0  0  0  0
 30 29  1  0  0  0  0
 31 32  1  0  0  0  0
 32 33  2  0  0  0  0
 32 30  1  0  0  0  0
 35 36  1  0  0  0  0
 36 34  2  0  0  0  0
 36 33  1  0  0  0  0
 37 35  2  0  0  0  0
 37 31  1  0  0  0  0
M  END
>  <MODEL>
2

>  <REMARK>
 VINA RESULT:      -3.7      2.054      6.570
  Name = 
  11 active torsions:
  status: ('A' for Active; 'I' for Inactive)
    1  A    between atoms: C_1  and  C_5
    2  A    between atoms: C_1  and  C_36
    3  A    between atoms: C_3  and  C_32
    4  A    between atoms: C_5  and  C_23
    5  A    between atoms: C_6  and  C_31
    6  A    between atoms: C_14  and  C_37
    7  A    between atoms: C_17  and  C_26
    8  A    between atoms: C_17  and  O_33
    9  A    between atoms: C_26  and  C_34
   10  A    between atoms: C_31  and  C_37
   11  A    between atoms: O_33  and  C_36
                            x       y       z     vdW  Elec       q    Type
                         _______ _______ _______ _____ _____    ______ ____

>  <TORSDO>
F 11

$$$$
=
 OpenBabel11062409113D

 37 40  0  0  1  0  0  0  0  0999 V2000
  162.0890  210.4880  154.9970 C   0  0  0  0  0  2  0  0  0  0  0  0
  159.1300  210.9940  151.9030 C   0  0  0  0  0  2  0  0  0  0  0  0
  158.6380  213.2520  157.1130 N   0  0  0  0  0  2  0  0  0  0  0  0
  160.6770  210.4860  154.4280 C   0  0  2  0  0  3  0  0  0  0  0  0
  159.5760  212.4370  156.3390 C   0  0  2  0  0  3  0  0  0  0  0  0
  160.5270  209.4290  153.3340 C   0  0  2  0  0  3  0  0  0  0  0  0
  161.0100  212.7940  156.7000 C   0  0  0  0  0  2  0  0  0  0  0  0
  159.2920  212.6050  154.8370 C   0  0  2  0  0  3  0  0  0  0  0  0
  157.1010  213.0110  155.1890 C   0  0  0  0  0  2  0  0  0  0  0  0
  162.4630  209.4470  157.0970 O   0  0  0  0  0  0  0  0  0  0  0  0
  161.6670  211.6220  157.2610 N   0  0  0  0  0  2  0  0  0  0  0  0
  158.0000  212.1250  154.5630 O   0  0  0  0  0  0  0  0  0  0  0  0
  159.2010  209.6380  152.6150 C   0  0  0  0  0  2  0  0  0  0  0  0
  162.0770  210.4820  156.4940 C   0  0  0  0  0  0  0  0  0  0  0  0
  160.3390  211.9130  153.9480 C   0  0  2  0  0  3  0  0  0  0  0  0
  157.2530  212.9540  156.7180 C   0  0  1  0  0  3  0  0  0  0  0  0
  160.1100  212.0820  152.4190 C   0  0  1  0  0  0  0  0  0  0  0  0
  156.7980  211.6040  157.2610 C   0  0  0  0  0  2  0  0  0  0  0  0
  155.3800  211.3060  156.8110 C   0  0  0  0  0  1  0  0  0  0  0  0
  161.4670  211.9050  151.6990 C   0  0  0  0  0  2  0  0  0  0  0  0
  161.3540  211.2060  150.3460 C   0  0  0  0  0  2  0  0  0  0  0  0
  161.9420  209.1930  149.0360 C   0  0  0  0  0  1  0  0  0  0  0  0
  162.2550  209.9890  150.2850 C   0  0  0  0  0  2  0  0  0  0  0  0
  159.5790  213.3820  152.1870 O   0  0  0  0  0  0  0  0  0  0  0  0
  158.7130  213.3740  151.0770 C   0  0  0  0  0  2  0  0  0  0  0  0
  157.3900  213.9950  151.4680 C   0  0  0  0  0  2  0  0  0  0  0  0
  157.0670  213.1480  149.1690 C   0  0  0  0  0  1  0  0  0  0  0  0
  156.4540  213.9750  150.2790 C   0  0  0  0  0  2  0  0  0  0  0  0
  160.5590  208.0380  153.9480 C   0  0  0  0  0  2  0  0  0  0  0  0
  161.7840  207.2770  153.4690 C   0  0  0  0  0  2  0  0  0  0  0  0
  161.1030  204.8210  153.0820 C   0  0  0  0  0  2  0  0  0  0  0  0
  161.3890  206.1970  152.5220 C   0  0  0  0  0  0  0  0  0  0  0  0
  161.2210  206.4840  151.2270 C   0  0  0  0  0  3  0  0  0  0  0  0
  160.6390  205.7260  149.0630 O   0  0  0  0  0  0  0  0  0  0  0  0
  160.6320  204.0670  150.7470 C   0  0  0  0  0  3  0  0  0  0  0  0
  160.8140  205.4430  150.2770 C   0  0  0  0  0  0  0  0  0  0  0  0
  160.7790  203.7760  152.0420 C   0  0  0  0  0  3  0  0  0  0  0  0
  1 14  1  0  0  0  0
  2 17  1  0  0  0  0
  2 13  1  0  0  0  0
  4  1  1  6  0  0  0
  5  7  1  6  0  0  0
  5  3  1  0  0  0  0
  6 29  1  1  0  0  0
  6  4  1  0  0  0  0
  7 11  1  0  0  0  0
  8 12  1  1  0  0  0
  8  5  1  0  0  0  0
  9 16  1  0  0  0  0
 12  9  1  0  0  0  0
 13  6  1  0  0  0  0
 14 10  2  0  0  0  0
 14 11  1  0  0  0  0
 15  4  1  0  0  0  0
 15  8  1  0  0  0  0
 16  3  1  0  0  0  0
 16 18  1  0  0  0  0
 17 15  1  0  0  0  0
 19 18  1  0  0  0  0
 20 17  1  0  0  0  0
 21 20  1  0  0  0  0
 22 23  1  0  0  0  0
 23 21  1  0  0  0  0
 24 17  1  0  0  0  0
 25 26  1  0  0  0  0
 25 24  1  0  0  0  0
 27 28  1  0  0  0  0
 28 26  1  0  0  0  0
 30 29  1  0  0  0  0
 32 31  1  0  0  0  0
 32 30  1  0  0  0  0
 33 32  2  0  0  0  0
 34 36  2  0  0  0  0
 35 37  2  0  0  0  0
 36 35  1  0  0  0  0
 36 33  1  0  0  0  0
 37 31  1  0  0  0  0
M  END
>  <MODEL>
3

>  <REMARK>
 VINA RESULT:      -3.6      2.423      6.294
  Name = 
  11 active torsions:
  status: ('A' for Active; 'I' for Inactive)
    1  A    between atoms: C_1  and  C_5
    2  A    between atoms: C_1  and  C_36
    3  A    between atoms: C_3  and  C_32
    4  A    between atoms: C_5  and  C_23
    5  A    between atoms: C_6  and  C_31
    6  A    between atoms: C_14  and  C_37
    7  A    between atoms: C_17  and  C_26
    8  A    between atoms: C_17  and  O_33
    9  A    between atoms: C_26  and  C_34
   10  A    between atoms: C_31  and  C_37
   11  A    between atoms: O_33  and  C_36
                            x       y       z     vdW  Elec       q    Type
                         _______ _______ _______ _____ _____    ______ ____

>  <TORSDO>
F 11

$$$$
=
 OpenBabel11062409113D

 37 40  0  0  1  0  0  0  0  0999 V2000
  162.1730  210.2420  155.0550 C   0  0  0  0  0  2  0  0  0  0  0  0
  159.2540  210.8350  151.9390 C   0  0  0  0  0  2  0  0  0  0  0  0
  158.9640  213.3780  157.0320 N   0  0  0  0  0  2  0  0  0  0  0  0
  160.7630  210.3270  154.4870 C   0  0  2  0  0  3  0  0  0  0  0  0
  159.8310  212.4520  156.3000 C   0  0  2  0  0  3  0  0  0  0  0  0
  160.5240  209.2340  153.4460 C   0  0  2  0  0  3  0  0  0  0  0  0
  161.2910  212.7090  156.6430 C   0  0  0  0  0  2  0  0  0  0  0  0
  159.5560  212.5690  154.7910 C   0  0  2  0  0  3  0  0  0  0  0  0
  157.4070  213.1690  155.1210 C   0  0  0  0  0  2  0  0  0  0  0  0
  162.4680  209.2780  157.2040 O   0  0  0  0  0  0  0  0  0  0  0  0
  161.8520  211.5160  157.2610 N   0  0  0  0  0  2  0  0  0  0  0  0
  158.2280  212.1830  154.5400 O   0  0  0  0  0  0  0  0  0  0  0  0
  159.2160  209.5150  152.7160 C   0  0  0  0  0  2  0  0  0  0  0  0
  162.1650  210.3100  156.5510 C   0  0  0  0  0  0  0  0  0  0  0  0
  160.5400  211.7520  153.9370 C   0  0  2  0  0  3  0  0  0  0  0  0
  157.5590  213.1740  156.6510 C   0  0  1  0  0  3  0  0  0  0  0  0
  160.3200  211.8640  152.4020 C   0  0  1  0  0  0  0  0  0  0  0  0
  156.9970  211.8940  157.2600 C   0  0  0  0  0  2  0  0  0  0  0  0
  155.5130  211.7800  156.9710 C   0  0  0  0  0  1  0  0  0  0  0  0
  161.6560  211.5430  151.6920 C   0  0  0  0  0  2  0  0  0  0  0  0
  161.4780  210.8890  150.3230 C   0  0  0  0  0  2  0  0  0  0  0  0
  162.7200  211.6160  148.3130 C   0  0  0  0  0  1  0  0  0  0  0  0
  161.5430  211.9200  149.2150 C   0  0  0  0  0  2  0  0  0  0  0  0
  159.8960  213.1900  152.1060 O   0  0  0  0  0  0  0  0  0  0  0  0
  158.7510  213.1750  151.2870 C   0  0  0  0  0  2  0  0  0  0  0  0
  158.8460  214.2900  150.2690 C   0  0  0  0  0  2  0  0  0  0  0  0
  157.0830  213.0660  149.0440 C   0  0  0  0  0  1  0  0  0  0  0  0
  158.4160  213.7710  148.9130 C   0  0  0  0  0  2  0  0  0  0  0  0
  160.4450  207.8770  154.1270 C   0  0  0  0  0  2  0  0  0  0  0  0
  161.6410  207.0220  153.7400 C   0  0  0  0  0  2  0  0  0  0  0  0
  161.4270  207.0760  151.1720 C   0  0  0  0  0  2  0  0  0  0  0  0
  161.3720  206.2960  152.4670 C   0  0  0  0  0  0  0  0  0  0  0  0
  161.1700  204.9750  152.4910 C   0  0  0  0  0  3  0  0  0  0  0  0
  160.7530  202.9870  151.2790 O   0  0  0  0  0  0  0  0  0  0  0  0
  160.8540  204.9580  149.9770 C   0  0  0  0  0  3  0  0  0  0  0  0
  160.9230  204.2340  151.2490 C   0  0  0  0  0  0  0  0  0  0  0  0
  161.0730  206.2740  149.9420 C   0  0  0  0  0  3  0  0  0  0  0  0
  1 14  1  0  0  0  0
  2 17  1  0  0  0  0
  2 13  1  0  0  0  0
  4  1  1  6  0  0  0
  5  7  1  6  0  0  0
  5  3  1  0  0  0  0
  6 29  1  1  0  0  0
  6  4  1  0  0  0  0
  7 11  1  0  0  0  0
  8 12  1  1  0  0  0
  8  5  1  0  0  0  0
  9 16  1  0  0  0  0
 12  9  1  0  0  0  0
 13  6  1  0  0  0  0
 14 10  2  0  0  0  0
 14 11  1  0  0  0  0
 15  4  1  0  0  0  0
 15  8  1  0  0  0  0
 16  3  1  0  0  0  0
 16 18  1  0  0  0  0
 17 15  1  0  0  0  0
 19 18  1  0  0  0  0
 20 17  1  0  0  0  0
 21 20  1  0  0  0  0
 22 23  1  0  0  0  0
 23 21  1  0  0  0  0
 24 17  1  0  0  0  0
 25 24  1  0  0  0  0
 26 25  1  0  0  0  0
 28 27  1  0  0  0  0
 28 26  1  0  0  0  0
 30 29  1  0  0  0  0
 31 32  1  0  0  0  0
 32 33  2  0  0  0  0
 32 30  1  0  0  0  0
 35 36  1  0  0  0  0
 36 34  2  0  0  0  0
 36 33  1  0  0  0  0
 37 35  2  0  0  0  0
 37 31  1  0  0  0  0
M  END
>  <MODEL>
4

>  <REMARK>
 VINA RESULT:      -3.4      2.100      6.320
  Name = 
  11 active torsions:
  status: ('A' for Active; 'I' for Inactive)
    1  A    between atoms: C_1  and  C_5
    2  A    between atoms: C_1  and  C_36
    3  A    between atoms: C_3  and  C_32
    4  A    between atoms: C_5  and  C_23
    5  A    between atoms: C_6  and  C_31
    6  A    between atoms: C_14  and  C_37
    7  A    between atoms: C_17  and  C_26
    8  A    between atoms: C_17  and  O_33
    9  A    between atoms: C_26  and  C_34
   10  A    between atoms: C_31  and  C_37
   11  A    between atoms: O_33  and  C_36
                            x       y       z     vdW  Elec       q    Type
                         _______ _______ _______ _____ _____    ______ ____

>  <TORSDO>
F 11

$$$$
=
 OpenBabel11062409113D

 37 40  0  0  1  0  0  0  0  0999 V2000
  160.6070  212.3890  152.0220 C   0  0  0  0  0  2  0  0  0  0  0  0
  159.5570  209.9980  155.4520 C   0  0  0  0  0  2  0  0  0  0  0  0
  162.4560  207.9700  150.9820 N   0  0  0  0  0  2  0  0  0  0  0  0
  160.0470  211.1610  152.7240 C   0  0  2  0  0  3  0  0  0  0  0  0
  161.8570  209.2250  151.4420 C   0  0  2  0  0  3  0  0  0  0  0  0
  158.8150  211.5170  153.5570 C   0  0  2  0  0  3  0  0  0  0  0  0
  162.7160  210.4070  151.0190 C   0  0  0  0  0  2  0  0  0  0  0  0
  161.6460  209.1700  152.9640 C   0  0  2  0  0  3  0  0  0  0  0  0
  161.3850  206.9300  152.9550 C   0  0  0  0  0  2  0  0  0  0  0  0
  160.1460  212.6770  149.7110 O   0  0  0  0  0  0  0  0  0  0  0  0
  161.9420  211.2680  150.1370 N   0  0  0  0  0  2  0  0  0  0  0  0
  160.7350  208.1420  153.2600 O   0  0  0  0  0  0  0  0  0  0  0  0
  158.4510  210.3340  154.4440 C   0  0  0  0  0  2  0  0  0  0  0  0
  160.8730  212.1180  150.5730 C   0  0  0  0  0  0  0  0  0  0  0  0
  161.1760  210.5110  153.5530 C   0  0  2  0  0  3  0  0  0  0  0  0
  161.6610  206.8230  151.4470 C   0  0  1  0  0  3  0  0  0  0  0  0
  160.9780  210.5130  155.0950 C   0  0  1  0  0  0  0  0  0  0  0  0
  160.3610  206.6920  150.6620 C   0  0  0  0  0  2  0  0  0  0  0  0
  160.6120  205.9920  149.3400 C   0  0  0  0  0  1  0  0  0  0  0  0
  161.1170  211.9670  155.6040 C   0  0  0  0  0  2  0  0  0  0  0  0
  160.3060  212.2520  156.8660 C   0  0  0  0  0  2  0  0  0  0  0  0
  159.6280  214.4530  155.9650 C   0  0  0  0  0  1  0  0  0  0  0  0
  160.2450  213.7390  157.1490 C   0  0  0  0  0  2  0  0  0  0  0  0
  161.9720  209.6770  155.6750 O   0  0  0  0  0  0  0  0  0  0  0  0
  161.4720  209.0330  156.8230 C   0  0  0  0  0  2  0  0  0  0  0  0
  161.9690  207.6040  156.8540 C   0  0  0  0  0  2  0  0  0  0  0  0
  159.5780  207.0820  156.5080 C   0  0  0  0  0  1  0  0  0  0  0  0
  160.8340  206.6860  157.2550 C   0  0  0  0  0  2  0  0  0  0  0  0
  157.6470  211.8450  152.6400 C   0  0  0  0  0  2  0  0  0  0  0  0
  157.0450  213.1900  153.0120 C   0  0  0  0  0  2  0  0  0  0  0  0
  156.5450  214.4510  155.2050 C   0  0  0  0  0  2  0  0  0  0  0  0
  156.5340  213.1630  154.4120 C   0  0  0  0  0  0  0  0  0  0  0  0
  156.0110  212.0330  154.9010 C   0  0  0  0  0  3  0  0  0  0  0  0
  154.9760  210.9240  156.7150 O   0  0  0  0  0  0  0  0  0  0  0  0
  155.5720  213.1750  157.1200 C   0  0  0  0  0  3  0  0  0  0  0  0
  155.4840  211.9850  156.2690 C   0  0  0  0  0  0  0  0  0  0  0  0
  156.0750  214.3120  156.6330 C   0  0  0  0  0  3  0  0  0  0  0  0
  3  5  1  0  0  0  0
  3 16  1  0  0  0  0
  4  1  1  1  0  0  0
  4 15  1  0  0  0  0
  4  6  1  0  0  0  0
  5  7  1  1  0  0  0
  5  8  1  0  0  0  0
  6 29  1  6  0  0  0
  6 13  1  0  0  0  0
  8 12  1  6  0  0  0
  8 15  1  0  0  0  0
  9 12  1  0  0  0  0
 10 14  2  0  0  0  0
 11 14  1  0  0  0  0
 11  7  1  0  0  0  0
 13  2  1  0  0  0  0
 14  1  1  0  0  0  0
 15 17  1  0  0  0  0
 16  9  1  0  0  0  0
 17  2  1  0  0  0  0
 17 20  1  0  0  0  0
 17 24  1  0  0  0  0
 18 16  1  0  0  0  0
 19 18  1  0  0  0  0
 20 21  1  0  0  0  0
 21 23  1  0  0  0  0
 22 23  1  0  0  0  0
 24 25  1  0  0  0  0
 25 26  1  0  0  0  0
 26 28  1  0  0  0  0
 27 28  1  0  0  0  0
 29 30  1  0  0  0  0
 30 32  1  0  0  0  0
 31 37  1  0  0  0  0
 32 33  2  0  0  0  0
 32 31  1  0  0  0  0
 33 36  1  0  0  0  0
 36 34  2  0  0  0  0
 36 35  1  0  0  0  0
 37 35  2  0  0  0  0
M  END
>  <MODEL>
5

>  <REMARK>
 VINA RESULT:      -2.7      2.692      6.952
  Name = 
  11 active torsions:
  status: ('A' for Active; 'I' for Inactive)
    1  A    between atoms: C_1  and  C_5
    2  A    between atoms: C_1  and  C_36
    3  A    between atoms: C_3  and  C_32
    4  A    between atoms: C_5  and  C_23
    5  A    between atoms: C_6  and  C_31
    6  A    between atoms: C_14  and  C_37
    7  A    between atoms: C_17  and  C_26
    8  A    between atoms: C_17  and  O_33
    9  A    between atoms: C_26  and  C_34
   10  A    between atoms: C_31  and  C_37
   11  A    between atoms: O_33  and  C_36
                            x       y       z     vdW  Elec       q    Type
                         _______ _______ _______ _____ _____    ______ ____

>  <TORSDO>
F 11

$$$$
=
 OpenBabel11062409113D

 37 40  0  0  1  0  0  0  0  0999 V2000
  160.7410  212.6270  151.8970 C   0  0  0  0  0  2  0  0  0  0  0  0
  159.1310  210.5580  155.3200 C   0  0  0  0  0  2  0  0  0  0  0  0
  162.5720  208.0970  151.4980 N   0  0  0  0  0  2  0  0  0  0  0  0
  160.0460  211.4750  152.6080 C   0  0  2  0  0  3  0  0  0  0  0  0
  161.9560  209.3990  151.7630 C   0  0  2  0  0  3  0  0  0  0  0  0
  158.7200  211.9260  153.2200 C   0  0  2  0  0  3  0  0  0  0  0  0
  162.9050  210.5220  151.3760 C   0  0  0  0  0  2  0  0  0  0  0  0
  161.5270  209.4780  153.2380 C   0  0  2  0  0  3  0  0  0  0  0  0
  161.1950  207.2510  153.3720 C   0  0  0  0  0  2  0  0  0  0  0  0
  160.6260  212.7280  149.5290 O   0  0  0  0  0  0  0  0  0  0  0  0
  162.2940  211.3220  150.3240 N   0  0  0  0  0  2  0  0  0  0  0  0
  160.5480  208.4980  153.4790 O   0  0  0  0  0  0  0  0  0  0  0  0
  158.1930  210.8310  154.1380 C   0  0  0  0  0  2  0  0  0  0  0  0
  161.2030  212.2290  150.5300 C   0  0  0  0  0  0  0  0  0  0  0  0
  161.0220  210.8740  153.6410 C   0  0  2  0  0  3  0  0  0  0  0  0
  161.6810  207.0100  151.9330 C   0  0  1  0  0  3  0  0  0  0  0  0
  160.6050  211.0100  155.1330 C   0  0  1  0  0  0  0  0  0  0  0  0
  160.5030  206.8410  150.9800 C   0  0  0  0  0  2  0  0  0  0  0  0
  160.9980  206.6490  149.5600 C   0  0  0  0  0  1  0  0  0  0  0  0
  160.7180  212.4990  155.5380 C   0  0  0  0  0  2  0  0  0  0  0  0
  159.6340  212.9500  156.5150 C   0  0  0  0  0  2  0  0  0  0  0  0
  157.4820  214.1650  156.5730 C   0  0  0  0  0  1  0  0  0  0  0  0
  158.8700  214.1380  155.9680 C   0  0  0  0  0  2  0  0  0  0  0  0
  161.4770  210.2050  155.9180 O   0  0  0  0  0  0  0  0  0  0  0  0
  160.7430  209.3810  156.7910 C   0  0  0  0  0  2  0  0  0  0  0  0
  161.5250  208.1150  157.0650 C   0  0  0  0  0  2  0  0  0  0  0  0
  159.6700  206.8580  156.0220 C   0  0  0  0  0  1  0  0  0  0  0  0
  160.5640  206.9580  157.2390 C   0  0  0  0  0  2  0  0  0  0  0  0
  157.7060  212.2000  152.1210 C   0  0  0  0  0  2  0  0  0  0  0  0
  157.6060  213.6930  151.8550 C   0  0  0  0  0  2  0  0  0  0  0  0
  155.6660  214.2820  150.2620 C   0  0  0  0  0  2  0  0  0  0  0  0
  157.1260  213.9440  150.4660 C   0  0  0  0  0  0  0  0  0  0  0  0
  158.0010  213.9410  149.4560 C   0  0  0  0  0  3  0  0  0  0  0  0
  158.3920  214.2190  147.1400 O   0  0  0  0  0  0  0  0  0  0  0  0
  156.1360  214.4280  147.8120 C   0  0  0  0  0  3  0  0  0  0  0  0
  157.5580  214.2040  148.0830 C   0  0  0  0  0  0  0  0  0  0  0  0
  155.2580  214.4500  148.8180 C   0  0  0  0  0  3  0  0  0  0  0  0
  3  5  1  0  0  0  0
  3 16  1  0  0  0  0
  4  1  1  1  0  0  0
  4  6  1  0  0  0  0
  4 15  1  0  0  0  0
  5  7  1  1  0  0  0
  5  8  1  0  0  0  0
  6 29  1  6  0  0  0
  6 13  1  0  0  0  0
  8 12  1  6  0  0  0
  8 15  1  0  0  0  0
  9 12  1  0  0  0  0
 10 14  2  0  0  0  0
 11 14  1  0  0  0  0
 11  7  1  0  0  0  0
 13  2  1  0  0  0  0
 14  1  1  0  0  0  0
 15 17  1  0  0  0  0
 16  9  1  0  0  0  0
 17  2  1  0  0  0  0
 17 20  1  0  0  0  0
 17 24  1  0  0  0  0
 18 16  1  0  0  0  0
 19 18  1  0  0  0  0
 20 21  1  0  0  0  0
 23 21  1  0  0  0  0
 23 22  1  0  0  0  0
 24 25  1  0  0  0  0
 25 26  1  0  0  0  0
 26 28  1  0  0  0  0
 27 28  1  0  0  0  0
 30 29  1  0  0  0  0
 31 32  1  0  0  0  0
 32 30  1  0  0  0  0
 33 32  2  0  0  0  0
 34 36  2  0  0  0  0
 35 36  1  0  0  0  0
 35 37  2  0  0  0  0
 36 33  1  0  0  0  0
 37 31  1  0  0  0  0
M  END
>  <MODEL>
6

>  <REMARK>
 VINA RESULT:      -2.4      2.706      5.663
  Name = 
  11 active torsions:
  status: ('A' for Active; 'I' for Inactive)
    1  A    between atoms: C_1  and  C_5
    2  A    between atoms: C_1  and  C_36
    3  A    between atoms: C_3  and  C_32
    4  A    between atoms: C_5  and  C_23
    5  A    between atoms: C_6  and  C_31
    6  A    between atoms: C_14  and  C_37
    7  A    between atoms: C_17  and  C_26
    8  A    between atoms: C_17  and  O_33
    9  A    between atoms: C_26  and  C_34
   10  A    between atoms: C_31  and  C_37
   11  A    between atoms: O_33  and  C_36
                            x       y       z     vdW  Elec       q    Type
                         _______ _______ _______ _____ _____    ______ ____

>  <TORSDO>
F 11

$$$$
=
 OpenBabel11062409113D

 37 40  0  0  1  0  0  0  0  0999 V2000
  161.3670  208.4450  155.4910 C   0  0  0  0  0  2  0  0  0  0  0  0
  160.9550  209.8770  151.4460 C   0  0  0  0  0  2  0  0  0  0  0  0
  157.5650  211.5320  155.7200 N   0  0  0  0  0  2  0  0  0  0  0  0
  160.5990  208.7800  154.2210 C   0  0  2  0  0  3  0  0  0  0  0  0
  158.7150  210.6550  155.4890 C   0  0  2  0  0  3  0  0  0  0  0  0
  161.0660  207.9130  153.0520 C   0  0  2  0  0  3  0  0  0  0  0  0
  159.6540  210.6880  156.6850 C   0  0  0  0  0  2  0  0  0  0  0  0
  159.4180  211.0570  154.1810 C   0  0  2  0  0  3  0  0  0  0  0  0
  157.5060  211.8230  153.2630 C   0  0  0  0  0  2  0  0  0  0  0  0
  160.3030  207.1030  157.1350 O   0  0  0  0  0  0  0  0  0  0  0  0
  159.7420  209.3530  157.2600 N   0  0  0  0  0  2  0  0  0  0  0  0
  158.5280  210.8670  153.1100 O   0  0  0  0  0  0  0  0  0  0  0  0
  160.4730  208.4550  151.7580 C   0  0  0  0  0  2  0  0  0  0  0  0
  160.4450  208.2590  156.6560 C   0  0  0  0  0  0  0  0  0  0  0  0
  160.7330  210.2940  153.9500 C   0  0  2  0  0  3  0  0  0  0  0  0
  156.6900  211.5510  154.5380 C   0  0  1  0  0  3  0  0  0  0  0  0
  161.4970  210.6890  152.6540 C   0  0  1  0  0  0  0  0  0  0  0  0
  155.8960  210.2560  154.4110 C   0  0  0  0  0  2  0  0  0  0  0  0
  155.1420  209.9720  155.6950 C   0  0  0  0  0  1  0  0  0  0  0  0
  162.9930  210.3480  152.8450 C   0  0  0  0  0  2  0  0  0  0  0  0
  163.5840  210.8980  154.1410 C   0  0  0  0  0  2  0  0  0  0  0  0
  165.5790  211.9610  155.1440 C   0  0  0  0  0  1  0  0  0  0  0  0
  165.0850  211.0660  154.0260 C   0  0  0  0  0  2  0  0  0  0  0  0
  161.3190  212.0840  152.4370 O   0  0  0  0  0  0  0  0  0  0  0  0
  160.8590  212.3300  151.1300 C   0  0  0  0  0  2  0  0  0  0  0  0
  159.9180  213.5150  151.1410 C   0  0  0  0  0  2  0  0  0  0  0  0
  161.1770  213.9120  149.0520 C   0  0  0  0  0  1  0  0  0  0  0  0
  159.8520  214.1180  149.7550 C   0  0  0  0  0  2  0  0  0  0  0  0
  160.6110  206.4770  153.2570 C   0  0  0  0  0  2  0  0  0  0  0  0
  161.7240  205.5110  152.8850 C   0  0  0  0  0  2  0  0  0  0  0  0
  161.3980  205.6330  150.3310 C   0  0  0  0  0  2  0  0  0  0  0  0
  161.4070  204.8180  151.6050 C   0  0  0  0  0  0  0  0  0  0  0  0
  161.2180  203.4940  151.6010 C   0  0  0  0  0  3  0  0  0  0  0  0
  160.7660  201.5360  150.3540 O   0  0  0  0  0  0  0  0  0  0  0  0
  160.7930  203.5430  149.1040 C   0  0  0  0  0  3  0  0  0  0  0  0
  160.9240  202.7860  150.3520 C   0  0  0  0  0  0  0  0  0  0  0  0
  160.9980  204.8620  149.0960 C   0  0  0  0  0  3  0  0  0  0  0  0
  1 14  1  0  0  0  0
  2 13  1  0  0  0  0
  2 17  1  0  0  0  0
  4  1  1  1  0  0  0
  5  3  1  0  0  0  0
  5  7  1  1  0  0  0
  6 29  1  1  0  0  0
  6  4  1  0  0  0  0
  7 11  1  0  0  0  0
  8 12  1  6  0  0  0
  8  5  1  0  0  0  0
  9 16  1  0  0  0  0
 12  9  1  0  0  0  0
 13  6  1  0  0  0  0
 14 10  2  0  0  0  0
 14 11  1  0  0  0  0
 15  8  1  0  0  0  0
 15  4  1  0  0  0  0
 16  3  1  0  0  0  0
 17 20  1  0  0  0  0
 17 15  1  0  0  0  0
 18 16  1  0  0  0  0
 18 19  1  0  0  0  0
 20 21  1  0  0  0  0
 23 21  1  0  0  0  0
 23 22  1  0  0  0  0
 24 17  1  0  0  0  0
 25 26  1  0  0  0  0
 25 24  1  0  0  0  0
 27 28  1  0  0  0  0
 28 26  1  0  0  0  0
 30 29  1  0  0  0  0
 31 32  1  0  0  0  0
 32 30  1  0  0  0  0
 33 32  2  0  0  0  0
 35 36  1  0  0  0  0
 36 34  2  0  0  0  0
 36 33  1  0  0  0  0
 37 35  2  0  0  0  0
 37 31  1  0  0  0  0
M  END
>  <MODEL>
7

>  <REMARK>
 VINA RESULT:      -1.9      2.197      6.803
  Name = 
  11 active torsions:
  status: ('A' for Active; 'I' for Inactive)
    1  A    between atoms: C_1  and  C_5
    2  A    between atoms: C_1  and  C_36
    3  A    between atoms: C_3  and  C_32
    4  A    between atoms: C_5  and  C_23
    5  A    between atoms: C_6  and  C_31
    6  A    between atoms: C_14  and  C_37
    7  A    between atoms: C_17  and  C_26
    8  A    between atoms: C_17  and  O_33
    9  A    between atoms: C_26  and  C_34
   10  A    between atoms: C_31  and  C_37
   11  A    between atoms: O_33  and  C_36
                            x       y       z     vdW  Elec       q    Type
                         _______ _______ _______ _____ _____    ______ ____

>  <TORSDO>
F 11

$$$$
=
 OpenBabel11062409113D

 37 40  0  0  1  0  0  0  0  0999 V2000
  160.9820  212.5210  151.0990 C   0  0  0  0  0  2  0  0  0  0  0  0
  159.7110  209.5230  153.9240 C   0  0  0  0  0  2  0  0  0  0  0  0
  162.4900  208.3070  149.0980 N   0  0  0  0  0  2  0  0  0  0  0  0
  160.3200  211.2160  151.5170 C   0  0  2  0  0  3  0  0  0  0  0  0
  161.9870  209.4730  149.8280 C   0  0  2  0  0  3  0  0  0  0  0  0
  159.1110  211.4760  152.4160 C   0  0  2  0  0  3  0  0  0  0  0  0
  162.9400  210.6480  149.6700 C   0  0  0  0  0  2  0  0  0  0  0  0
  161.7550  209.1010  151.3020 C   0  0  2  0  0  3  0  0  0  0  0  0
  161.3190  206.9460  150.8010 C   0  0  0  0  0  2  0  0  0  0  0  0
  160.5710  213.3470  148.9120 O   0  0  0  0  0  0  0  0  0  0  0  0
  162.2450  211.7410  149.0050 N   0  0  0  0  0  2  0  0  0  0  0  0
  160.7630  208.1090  151.3690 O   0  0  0  0  0  0  0  0  0  0  0  0
  158.6460  210.1590  153.0230 C   0  0  0  0  0  2  0  0  0  0  0  0
  161.2420  212.5560  149.6250 C   0  0  0  0  0  0  0  0  0  0  0  0
  161.3850  210.3130  152.1750 C   0  0  2  0  0  3  0  0  0  0  0  0
  161.6030  207.1530  149.3030 C   0  0  1  0  0  3  0  0  0  0  0  0
  161.1710  209.9900  153.6800 C   0  0  1  0  0  0  0  0  0  0  0  0
  160.3050  207.3010  148.5180 C   0  0  0  0  0  2  0  0  0  0  0  0
  160.4160  206.5980  147.1790 C   0  0  0  0  0  1  0  0  0  0  0  0
  161.4180  211.2810  154.4970 C   0  0  0  0  0  2  0  0  0  0  0  0
  160.5790  211.3680  155.7700 C   0  0  0  0  0  2  0  0  0  0  0  0
  162.8870  211.0210  156.5890 C   0  0  0  0  0  1  0  0  0  0  0  0
  161.4520  211.2680  157.0040 C   0  0  0  0  0  2  0  0  0  0  0  0
  162.0900  208.9710  154.0550 O   0  0  0  0  0  0  0  0  0  0  0  0
  161.4160  207.8870  154.6480 C   0  0  0  0  0  2  0  0  0  0  0  0
  161.9750  206.5900  154.1050 C   0  0  0  0  0  2  0  0  0  0  0  0
  161.1710  204.6940  152.7390 C   0  0  0  0  0  1  0  0  0  0  0  0
  160.8460  205.6000  153.9070 C   0  0  0  0  0  2  0  0  0  0  0  0
  157.9820  212.0890  151.6030 C   0  0  0  0  0  2  0  0  0  0  0  0
  157.7170  213.5150  152.0570 C   0  0  0  0  0  2  0  0  0  0  0  0
  158.7270  214.2730  154.3040 C   0  0  0  0  0  2  0  0  0  0  0  0
  157.6200  213.5790  153.5420 C   0  0  0  0  0  0  0  0  0  0  0  0
  156.5330  213.0980  154.1530 C   0  0  0  0  0  3  0  0  0  0  0  0
  155.3680  212.7280  156.1790 O   0  0  0  0  0  0  0  0  0  0  0  0
  157.4980  213.7280  156.4090 C   0  0  0  0  0  3  0  0  0  0  0  0
  156.4040  213.1660  155.6130 C   0  0  0  0  0  0  0  0  0  0  0  0
  158.5790  214.2270  155.8060 C   0  0  0  0  0  3  0  0  0  0  0  0
  3 16  1  0  0  0  0
  3  5  1  0  0  0  0
  4  1  1  1  0  0  0
  4 15  1  0  0  0  0
  4  6  1  0  0  0  0
  5  7  1  1  0  0  0
  5  8  1  0  0  0  0
  6 29  1  6  0  0  0
  6 13  1  0  0  0  0
  8 12  1  6  0  0  0
  8 15  1  0  0  0  0
  9 12  1  0  0  0  0
 10 14  2  0  0  0  0
 11 14  1  0  0  0  0
 11  7  1  0  0  0  0
 13  2  1  0  0  0  0
 14  1  1  0  0  0  0
 15 17  1  0  0  0  0
 16  9  1  0  0  0  0
 17  2  1  0  0  0  0
 17 24  1  0  0  0  0
 17 20  1  0  0  0  0
 18 16  1  0  0  0  0
 19 18  1  0  0  0  0
 20 21  1  0  0  0  0
 21 23  1  0  0  0  0
 22 23  1  0  0  0  0
 24 25  1  0  0  0  0
 26 25  1  0  0  0  0
 27 28  1  0  0  0  0
 28 26  1  0  0  0  0
 29 30  1  0  0  0  0
 30 32  1  0  0  0  0
 31 37  1  0  0  0  0
 32 33  2  0  0  0  0
 32 31  1  0  0  0  0
 33 36  1  0  0  0  0
 36 34  2  0  0  0  0
 36 35  1  0  0  0  0
 37 35  2  0  0  0  0
M  END
>  <MODEL>
8

>  <REMARK>
 VINA RESULT:      -1.0      2.544      6.555
  Name = 
  11 active torsions:
  status: ('A' for Active; 'I' for Inactive)
    1  A    between atoms: C_1  and  C_5
    2  A    between atoms: C_1  and  C_36
    3  A    between atoms: C_3  and  C_32
    4  A    between atoms: C_5  and  C_23
    5  A    between atoms: C_6  and  C_31
    6  A    between atoms: C_14  and  C_37
    7  A    between atoms: C_17  and  C_26
    8  A    between atoms: C_17  and  O_33
    9  A    between atoms: C_26  and  C_34
   10  A    between atoms: C_31  and  C_37
   11  A    between atoms: O_33  and  C_36
                            x       y       z     vdW  Elec       q    Type
                         _______ _______ _______ _____ _____    ______ ____

>  <TORSDO>
F 11

$$$$
=
 OpenBabel11062409113D

 37 40  0  0  1  0  0  0  0  0999 V2000
  162.0960  207.6670  154.3430 C   0  0  0  0  0  2  0  0  0  0  0  0
  160.8160  208.7030  150.3590 C   0  0  0  0  0  2  0  0  0  0  0  0
  159.6060  211.8460  154.9580 N   0  0  0  0  0  2  0  0  0  0  0  0
  161.0840  208.0970  153.2900 C   0  0  2  0  0  3  0  0  0  0  0  0
  160.3220  210.6170  154.6080 C   0  0  2  0  0  3  0  0  0  0  0  0
  160.8830  207.0010  152.2430 C   0  0  2  0  0  3  0  0  0  0  0  0
  161.5670  210.4670  155.4690 C   0  0  0  0  0  2  0  0  0  0  0  0
  160.6470  210.6170  153.1050 C   0  0  2  0  0  3  0  0  0  0  0  0
  158.8390  211.8690  152.6050 C   0  0  0  0  0  2  0  0  0  0  0  0
  161.2890  206.9420  156.4550 O   0  0  0  0  0  0  0  0  0  0  0  0
  161.4560  209.2500  156.2610 N   0  0  0  0  0  2  0  0  0  0  0  0
  159.4430  210.6170  152.3800 O   0  0  0  0  0  0  0  0  0  0  0  0
  160.0810  207.5650  151.0770 C   0  0  0  0  0  2  0  0  0  0  0  0
  161.5870  207.9260  155.7280 C   0  0  0  0  0  0  0  0  0  0  0  0
  161.5450  209.4410  152.6860 C   0  0  2  0  0  3  0  0  0  0  0  0
  158.4380  212.0240  154.0820 C   0  0  1  0  0  3  0  0  0  0  0  0
  161.9260  209.4160  151.1790 C   0  0  1  0  0  0  0  0  0  0  0  0
  157.3150  211.0600  154.4460 C   0  0  0  0  0  2  0  0  0  0  0  0
  156.0800  211.8270  154.8750 C   0  0  0  0  0  1  0  0  0  0  0  0
  163.2430  208.6210  151.0200 C   0  0  0  0  0  2  0  0  0  0  0  0
  163.1230  207.4200  150.0850 C   0  0  0  0  0  2  0  0  0  0  0  0
  162.3440  206.8210  147.8160 C   0  0  0  0  0  1  0  0  0  0  0  0
  163.0770  207.8620  148.6360 C   0  0  0  0  0  2  0  0  0  0  0  0
  162.0880  210.7580  150.7350 O   0  0  0  0  0  0  0  0  0  0  0  0
  161.8620  210.8550  149.3500 C   0  0  0  0  0  2  0  0  0  0  0  0
  161.4900  212.2790  148.9990 C   0  0  0  0  0  2  0  0  0  0  0  0
  160.4570  212.3180  146.7540 C   0  0  0  0  0  1  0  0  0  0  0  0
  161.7440  212.5180  147.5260 C   0  0  0  0  0  2  0  0  0  0  0  0
  160.1340  205.8290  152.8560 C   0  0  0  0  0  2  0  0  0  0  0  0
  161.0120  204.5880  152.8660 C   0  0  0  0  0  2  0  0  0  0  0  0
  160.9820  204.7210  150.2920 C   0  0  0  0  0  2  0  0  0  0  0  0
  160.9380  203.8880  151.5530 C   0  0  0  0  0  0  0  0  0  0  0  0
  160.9160  202.5510  151.5190 C   0  0  0  0  0  3  0  0  0  0  0  0
  160.8620  200.5780  150.2150 O   0  0  0  0  0  0  0  0  0  0  0  0
  160.7910  202.5980  148.9890 C   0  0  0  0  0  3  0  0  0  0  0  0
  160.8630  201.8370  150.2390 C   0  0  0  0  0  0  0  0  0  0  0  0
  160.8310  203.9320  149.0130 C   0  0  0  0  0  3  0  0  0  0  0  0
  1 14  1  0  0  0  0
  2 13  1  0  0  0  0
  2 17  1  0  0  0  0
  4  1  1  1  0  0  0
  5  3  1  0  0  0  0
  5  7  1  1  0  0  0
  6 29  1  1  0  0  0
  6  4  1  0  0  0  0
  7 11  1  0  0  0  0
  8 12  1  6  0  0  0
  8  5  1  0  0  0  0
  9 16  1  0  0  0  0
 12  9  1  0  0  0  0
 13  6  1  0  0  0  0
 14 11  1  0  0  0  0
 14 10  2  0  0  0  0
 15  8  1  0  0  0  0
 15  4  1  0  0  0  0
 16 18  1  0  0  0  0
 16  3  1  0  0  0  0
 17 15  1  0  0  0  0
 18 19  1  0  0  0  0
 20 17  1  0  0  0  0
 21 20  1  0  0  0  0
 22 23  1  0  0  0  0
 23 21  1  0  0  0  0
 24 17  1  0  0  0  0
 25 24  1  0  0  0  0
 26 25  1  0  0  0  0
 27 28  1  0  0  0  0
 28 26  1  0  0  0  0
 29 30  1  0  0  0  0
 31 32  1  0  0  0  0
 32 30  1  0  0  0  0
 33 32  2  0  0  0  0
 34 36  2  0  0  0  0
 35 37  2  0  0  0  0
 35 36  1  0  0  0  0
 36 33  1  0  0  0  0
 37 31  1  0  0  0  0
M  END
>  <MODEL>
9

>  <REMARK>
 VINA RESULT:      -1.0      2.186      6.613
  Name = 
  11 active torsions:
  status: ('A' for Active; 'I' for Inactive)
    1  A    between atoms: C_1  and  C_5
    2  A    between atoms: C_1  and  C_36
    3  A    between atoms: C_3  and  C_32
    4  A    between atoms: C_5  and  C_23
    5  A    between atoms: C_6  and  C_31
    6  A    between atoms: C_14  and  C_37
    7  A    between atoms: C_17  and  C_26
    8  A    between atoms: C_17  and  O_33
    9  A    between atoms: C_26  and  C_34
   10  A    between atoms: C_31  and  C_37
   11  A    between atoms: O_33  and  C_36
                            x       y       z     vdW  Elec       q    Type
                         _______ _______ _______ _____ _____    ______ ____

>  <TORSDO>
F 11

$$$$
