=
 OpenBabel11052421433D

 30 34  0  0  1  0  0  0  0  0999 V2000
  161.2950  209.9080  152.3490 C   0  0  0  0  0  0  0  0  0  0  0  0
  161.0290  209.8090  154.8920 C   0  0  0  0  0  0  0  0  0  0  0  0
  160.9760  205.7380  153.2590 C   0  0  0  0  0  2  0  0  0  0  0  0
  161.9590  209.4410  151.1680 C   0  0  0  0  0  0  0  0  0  0  0  0
  160.5600  211.1130  152.3120 C   0  0  0  0  0  3  0  0  0  0  0  0
  160.9990  212.2840  149.0090 N   0  0  0  0  0  0  0  0  0  0  0  0
  161.1780  211.4050  150.0080 C   0  0  0  0  0  0  0  0  0  0  0  0
  159.9240  213.0010  150.8960 N   0  0  0  0  0  2  0  0  0  0  0  0
  162.0350  205.9960  152.2360 C   0  0  0  0  0  0  0  0  0  0  0  0
  160.5380  211.8330  151.1260 C   0  0  0  0  0  0  0  0  0  0  0  0
  161.8990  210.2090  149.9760 C   0  0  0  0  0  0  0  0  0  0  0  0
  160.0290  209.2760  155.8900 C   0  0  0  0  0  2  0  0  0  0  0  0
  159.7710  214.4530  148.8720 C   0  0  0  0  0  1  0  0  0  0  0  0
  161.8540  210.7170  155.2650 N   0  0  0  0  0  2  0  0  0  0  0  0
  160.9100  206.9650  154.1490 C   0  0  2  0  0  3  0  0  0  0  0  0
  160.4360  207.8940  156.4210 C   0  0  0  0  0  2  0  0  0  0  0  0
  160.2280  213.2370  149.5950 C   0  0  0  0  0  0  0  0  0  0  0  0
  161.2790  209.0640  153.5970 C   0  0  1  0  0  3  0  0  0  0  0  0
  162.7180  208.1310  151.1530 C   0  0  0  0  0  2  0  0  0  0  0  0
  163.1650  205.4540  152.3650 O   0  0  0  0  0  0  0  0  0  0  0  0
  161.8240  206.9720  151.2080 N   0  0  0  0  0  0  0  0  0  0  0  0
  160.1300  206.7570  155.4360 C   0  0  0  0  0  2  0  0  0  0  0  0
  160.3540  208.0300  153.4410 O   0  0  0  0  0  0  0  0  0  0  0  0
  160.2660  205.5380  150.1570 O   0  0  0  0  0  0  0  0  0  0  0  0
  160.6510  206.8860  150.3330 C   0  0  2  0  0  3  0  0  0  0  0  0
  160.9420  206.1350  149.0800 C   0  0  0  0  0  0  0  0  0  0  0  0
  162.2740  205.4430  148.8410 C   0  0  0  0  0  1  0  0  0  0  0  0
  160.0100  206.3500  147.9070 C   0  0  0  0  0  1  0  0  0  0  0  0
  161.7010  209.1210  147.8850 O   0  0  0  0  0  1  0  0  0  0  0  0
  162.5970  209.7840  148.7230 C   0  0  0  0  0  2  0  0  0  0  0  0
  2 14  2  0  0  0  0
  2 12  1  0  0  0  0
  4  1  2  0  0  0  0
  5  1  1  0  0  0  0
  6 17  2  0  0  0  0
  6  7  1  0  0  0  0
  7 10  1  0  0  0  0
  8 10  1  0  0  0  0
  9 20  2  0  0  0  0
  9  3  1  0  0  0  0
 10  5  2  0  0  0  0
 11  7  2  0  0  0  0
 11  4  1  0  0  0  0
 12 16  1  0  0  0  0
 13 17  1  0  0  0  0
 15  3  1  6  0  0  0
 15 22  1  0  0  0  0
 17  8  1  0  0  0  0
 18  1  1  6  0  0  0
 18  2  1  0  0  0  0
 19  4  1  0  0  0  0
 19 21  1  0  0  0  0
 21  9  1  0  0  0  0
 22 16  1  0  0  0  0
 23 18  1  0  0  0  0
 23 15  1  0  0  0  0
 24 25  1  0  0  0  0
 25 21  1  1  0  0  0
 26 24  1  0  0  0  0
 26 25  1  0  0  0  0
 27 26  1  0  0  0  0
 28 26  1  0  0  0  0
 29 30  1  0  0  0  0
 30 11  1  0  0  0  0
M  END
>  <MODEL>
1

>  <REMARK>
 VINA RESULT:      -4.2      0.000      0.000
  Name = 
  2 active torsions:
  status: ('A' for Active; 'I' for Inactive)
    1  A    between atoms: C_10  and  N_25
    2  A    between atoms: C_13  and  C_30
                            x       y       z     vdW  Elec       q    Type
                         _______ _______ _______ _____ _____    ______ ____

>  <TORSDO>
F 2

$$$$
=
 OpenBabel11052421433D

 30 34  0  0  1  0  0  0  0  0999 V2000
  160.6970  210.5150  152.0490 C   0  0  0  0  0  0  0  0  0  0  0  0
  161.2030  211.9620  149.9990 C   0  0  0  0  0  0  0  0  0  0  0  0
  158.1930  213.9590  152.4880 C   0  0  0  0  0  2  0  0  0  0  0  0
  160.5460  210.4160  153.4710 C   0  0  0  0  0  0  0  0  0  0  0  0
  160.8810  209.3470  151.2780 C   0  0  0  0  0  3  0  0  0  0  0  0
  160.9280  206.7440  153.6640 N   0  0  0  0  0  0  0  0  0  0  0  0
  160.8230  208.0280  153.2870 C   0  0  0  0  0  0  0  0  0  0  0  0
  161.1410  206.9190  151.3950 N   0  0  0  0  0  2  0  0  0  0  0  0
  158.8200  213.5690  153.7870 C   0  0  0  0  0  0  0  0  0  0  0  0
  160.9490  208.1290  151.9380 C   0  0  0  0  0  0  0  0  0  0  0  0
  160.6130  209.1440  154.0980 C   0  0  0  0  0  0  0  0  0  0  0  0
  160.4430  212.5590  148.8400 C   0  0  0  0  0  2  0  0  0  0  0  0
  161.3090  204.6340  152.3860 C   0  0  0  0  0  1  0  0  0  0  0  0
  162.4740  211.8210  149.9010 N   0  0  0  0  0  2  0  0  0  0  0  0
  159.1590  213.5570  151.3890 C   0  0  2  0  0  3  0  0  0  0  0  0
  160.0580  214.0220  149.1040 C   0  0  0  0  0  2  0  0  0  0  0  0
  161.1190  206.1070  152.4810 C   0  0  0  0  0  0  0  0  0  0  0  0
  160.5440  211.8470  151.3590 C   0  0  1  0  0  3  0  0  0  0  0  0
  160.2990  211.6390  154.3260 C   0  0  0  0  0  2  0  0  0  0  0  0
  159.3580  214.4530  154.5050 O   0  0  0  0  0  0  0  0  0  0  0  0
  158.9530  212.1850  154.1390 N   0  0  0  0  0  0  0  0  0  0  0  0
  158.8450  214.1660  150.0330 C   0  0  0  0  0  2  0  0  0  0  0  0
  159.1890  212.1670  151.2740 O   0  0  0  0  0  0  0  0  0  0  0  0
  156.5980  212.0730  154.3010 O   0  0  0  0  0  0  0  0  0  0  0  0
  157.7780  211.3100  154.1600 C   0  0  2  0  0  3  0  0  0  0  0  0
  157.0380  211.3960  155.4510 C   0  0  0  0  0  0  0  0  0  0  0  0
  157.4190  212.3890  156.5370 C   0  0  0  0  0  1  0  0  0  0  0  0
  156.1080  210.2540  155.7980 C   0  0  0  0  0  1  0  0  0  0  0  0
  161.7590  208.9470  156.1570 O   0  0  0  0  0  1  0  0  0  0  0  0
  160.4900  208.9850  155.5800 C   0  0  0  0  0  2  0  0  0  0  0  0
  1  4  1  0  0  0  0
  3  9  1  0  0  0  0
  4 11  2  0  0  0  0
  4 19  1  0  0  0  0
  5 10  1  0  0  0  0
  5  1  2  0  0  0  0
  7  6  1  0  0  0  0
  7 11  1  0  0  0  0
  8 10  1  0  0  0  0
  8 17  1  0  0  0  0
  9 21  1  0  0  0  0
  9 20  2  0  0  0  0
 10  7  2  0  0  0  0
 11 30  1  0  0  0  0
 12 16  1  0  0  0  0
 12  2  1  0  0  0  0
 13 17  1  0  0  0  0
 14  2  2  0  0  0  0
 15 22  1  6  0  0  0
 15  3  1  0  0  0  0
 16 22  1  0  0  0  0
 17  6  2  0  0  0  0
 18  2  1  6  0  0  0
 18  1  1  0  0  0  0
 21 19  1  0  0  0  0
 23 18  1  0  0  0  0
 23 15  1  0  0  0  0
 24 26  1  0  0  0  0
 25 21  1  1  0  0  0
 25 24  1  0  0  0  0
 25 26  1  0  0  0  0
 26 28  1  0  0  0  0
 26 27  1  0  0  0  0
 30 29  1  0  0  0  0
M  END
>  <MODEL>
2

>  <REMARK>
 VINA RESULT:      -3.6      2.807      7.260
  Name = 
  2 active torsions:
  status: ('A' for Active; 'I' for Inactive)
    1  A    between atoms: C_10  and  N_25
    2  A    between atoms: C_13  and  C_30
                            x       y       z     vdW  Elec       q    Type
                         _______ _______ _______ _____ _____    ______ ____

>  <TORSDO>
F 2

$$$$
=
 OpenBabel11052421433D

 30 34  0  0  1  0  0  0  0  0999 V2000
  161.3760  209.2220  151.2660 C   0  0  0  0  0  0  0  0  0  0  0  0
  161.2440  211.4960  150.0980 C   0  0  0  0  0  0  0  0  0  0  0  0
  160.0060  211.9300  154.2840 C   0  0  0  0  0  2  0  0  0  0  0  0
  161.8200  208.4440  152.3840 C   0  0  0  0  0  0  0  0  0  0  0  0
  160.9900  208.5790  150.0700 C   0  0  0  0  0  3  0  0  0  0  0  0
  161.5300  205.1510  150.7280 N   0  0  0  0  0  0  0  0  0  0  0  0
  161.5260  206.4530  151.0560 C   0  0  0  0  0  0  0  0  0  0  0  0
  160.8000  206.4070  148.9630 N   0  0  0  0  0  2  0  0  0  0  0  0
  161.0330  210.9860  154.8210 C   0  0  0  0  0  0  0  0  0  0  0  0
  161.0910  207.1970  150.0060 C   0  0  0  0  0  0  0  0  0  0  0  0
  161.8960  207.0310  152.2720 C   0  0  0  0  0  0  0  0  0  0  0  0
  160.2000  212.5490  149.8220 C   0  0  0  0  0  2  0  0  0  0  0  0
  160.9220  203.9360  148.6340 C   0  0  0  0  0  1  0  0  0  0  0  0
  162.3030  211.4670  149.3750 N   0  0  0  0  0  2  0  0  0  0  0  0
  160.3240  212.1450  152.8160 C   0  0  2  0  0  3  0  0  0  0  0  0
  160.2520  213.6880  150.8510 C   0  0  0  0  0  2  0  0  0  0  0  0
  161.0790  205.1710  149.4480 C   0  0  0  0  0  0  0  0  0  0  0  0
  161.2090  210.7140  151.3960 C   0  0  1  0  0  3  0  0  0  0  0  0
  162.1970  209.0920  153.6980 C   0  0  0  0  0  2  0  0  0  0  0  0
  161.9810  211.4330  155.5170 O   0  0  0  0  0  0  0  0  0  0  0  0
  161.0300  209.6100  154.4160 N   0  0  0  0  0  0  0  0  0  0  0  0
  159.5950  213.3200  152.1880 C   0  0  0  0  0  2  0  0  0  0  0  0
  160.0330  210.9850  152.0970 O   0  0  0  0  0  0  0  0  0  0  0  0
  159.1700  209.1230  155.7910 O   0  0  0  0  0  0  0  0  0  0  0  0
  159.8270  208.7900  154.5850 C   0  0  2  0  0  3  0  0  0  0  0  0
  159.9050  207.9260  155.7970 C   0  0  0  0  0  0  0  0  0  0  0  0
  161.0570  208.0170  156.7840 C   0  0  0  0  0  1  0  0  0  0  0  0
  158.9860  206.7250  155.8560 C   0  0  0  0  0  1  0  0  0  0  0  0
  161.3340  205.3770  153.8670 O   0  0  0  0  0  1  0  0  0  0  0  0
  162.3790  206.1720  153.3970 C   0  0  0  0  0  2  0  0  0  0  0  0
  1 18  1  0  0  0  0
  1  4  1  0  0  0  0
  3  9  1  0  0  0  0
  4 19  1  0  0  0  0
  5  1  2  0  0  0  0
  6  7  1  0  0  0  0
  7 11  1  0  0  0  0
  8 17  1  0  0  0  0
  8 10  1  0  0  0  0
  9 20  2  0  0  0  0
 10  5  1  0  0  0  0
 10  7  2  0  0  0  0
 11  4  2  0  0  0  0
 11 30  1  0  0  0  0
 12  2  1  0  0  0  0
 12 16  1  0  0  0  0
 13 17  1  0  0  0  0
 14  2  2  0  0  0  0
 15 22  1  6  0  0  0
 15  3  1  0  0  0  0
 16 22  1  0  0  0  0
 17  6  2  0  0  0  0
 18  2  1  6  0  0  0
 18 23  1  0  0  0  0
 19 21  1  0  0  0  0
 21  9  1  0  0  0  0
 23 15  1  0  0  0  0
 24 26  1  0  0  0  0
 25 21  1  1  0  0  0
 25 24  1  0  0  0  0
 25 26  1  0  0  0  0
 26 28  1  0  0  0  0
 26 27  1  0  0  0  0
 30 29  1  0  0  0  0
M  END
>  <MODEL>
3

>  <REMARK>
 VINA RESULT:      -3.6      1.944      6.105
  Name = 
  2 active torsions:
  status: ('A' for Active; 'I' for Inactive)
    1  A    between atoms: C_10  and  N_25
    2  A    between atoms: C_13  and  C_30
                            x       y       z     vdW  Elec       q    Type
                         _______ _______ _______ _____ _____    ______ ____

>  <TORSDO>
F 2

$$$$
=
 OpenBabel11052421433D

 30 34  0  0  1  0  0  0  0  0999 V2000
  160.9880  208.3640  151.1160 C   0  0  0  0  0  0  0  0  0  0  0  0
  160.8180  205.9330  150.3360 C   0  0  0  0  0  0  0  0  0  0  0  0
  161.1810  206.0420  154.7060 C   0  0  0  0  0  2  0  0  0  0  0  0
  160.5390  209.4030  151.9960 C   0  0  0  0  0  0  0  0  0  0  0  0
  161.7090  208.6950  149.9480 C   0  0  0  0  0  3  0  0  0  0  0  0
  161.8310  212.2250  149.9880 N   0  0  0  0  0  0  0  0  0  0  0  0
  161.4910  211.0270  150.4900 C   0  0  0  0  0  0  0  0  0  0  0  0
  162.5630  210.5540  148.6090 N   0  0  0  0  0  2  0  0  0  0  0  0
  160.3100  207.2440  154.8780 C   0  0  0  0  0  0  0  0  0  0  0  0
  161.9270  210.0370  149.6700 C   0  0  0  0  0  0  0  0  0  0  0  0
  160.7960  210.7600  151.6710 C   0  0  0  0  0  0  0  0  0  0  0  0
  161.6370  204.6690  150.4360 C   0  0  0  0  0  2  0  0  0  0  0  0
  163.0470  212.9020  147.9160 C   0  0  0  0  0  1  0  0  0  0  0  0
  159.9350  206.0280  149.4120 N   0  0  0  0  0  2  0  0  0  0  0  0
  161.0840  205.6270  153.2500 C   0  0  2  0  0  3  0  0  0  0  0  0
  161.1570  203.7670  151.5820 C   0  0  0  0  0  2  0  0  0  0  0  0
  162.4830  211.8870  148.8450 C   0  0  0  0  0  0  0  0  0  0  0  0
  160.7980  206.9160  151.4890 C   0  0  1  0  0  3  0  0  0  0  0  0
  159.8050  209.0870  153.2810 C   0  0  0  0  0  2  0  0  0  0  0  0
  159.1790  207.1170  155.4180 O   0  0  0  0  0  0  0  0  0  0  0  0
  160.6860  208.4980  154.2920 N   0  0  0  0  0  0  0  0  0  0  0  0
  161.6350  204.2410  152.9610 C   0  0  0  0  0  2  0  0  0  0  0  0
  161.7440  206.5610  152.4510 O   0  0  0  0  0  0  0  0  0  0  0  0
  162.3660  208.8150  155.9240 O   0  0  0  0  0  0  0  0  0  0  0  0
  161.9910  209.0940  154.5910 C   0  0  2  0  0  3  0  0  0  0  0  0
  161.9050  210.1180  155.6700 C   0  0  0  0  0  0  0  0  0  0  0  0
  160.6180  210.3830  156.4340 C   0  0  0  0  0  1  0  0  0  0  0  0
  163.0340  211.1210  155.7680 C   0  0  0  0  0  1  0  0  0  0  0  0
  159.0890  212.3450  152.0840 O   0  0  0  0  0  1  0  0  0  0  0  0
  160.3250  211.8850  152.5380 C   0  0  0  0  0  2  0  0  0  0  0  0
  1 18  1  0  0  0  0
  1  4  1  0  0  0  0
  2 12  1  0  0  0  0
  3  9  1  0  0  0  0
  4 19  1  0  0  0  0
  5  1  2  0  0  0  0
  6  7  1  0  0  0  0
  7 11  1  0  0  0  0
  8 17  1  0  0  0  0
  8 10  1  0  0  0  0
  9 20  2  0  0  0  0
 10  5  1  0  0  0  0
 10  7  2  0  0  0  0
 11  4  2  0  0  0  0
 11 30  1  0  0  0  0
 12 16  1  0  0  0  0
 13 17  1  0  0  0  0
 14  2  2  0  0  0  0
 15 22  1  1  0  0  0
 15  3  1  0  0  0  0
 16 22  1  0  0  0  0
 17  6  2  0  0  0  0
 18  2  1  6  0  0  0
 18 23  1  0  0  0  0
 19 21  1  0  0  0  0
 21  9  1  0  0  0  0
 23 15  1  0  0  0  0
 25 21  1  1  0  0  0
 25 26  1  0  0  0  0
 25 24  1  0  0  0  0
 26 28  1  0  0  0  0
 26 24  1  0  0  0  0
 26 27  1  0  0  0  0
 29 30  1  0  0  0  0
M  END
>  <MODEL>
4

>  <REMARK>
 VINA RESULT:      -3.2      2.010      4.948
  Name = 
  2 active torsions:
  status: ('A' for Active; 'I' for Inactive)
    1  A    between atoms: C_10  and  N_25
    2  A    between atoms: C_13  and  C_30
                            x       y       z     vdW  Elec       q    Type
                         _______ _______ _______ _____ _____    ______ ____

>  <TORSDO>
F 2

$$$$
=
 OpenBabel11052421433D

 30 34  0  0  1  0  0  0  0  0999 V2000
  157.9490  212.9960  152.1190 C   0  0  0  0  0  0  0  0  0  0  0  0
  156.3120  213.1860  154.0770 C   0  0  0  0  0  0  0  0  0  0  0  0
  159.3760  210.1920  155.0210 C   0  0  0  0  0  2  0  0  0  0  0  0
  159.3040  212.9690  151.6530 C   0  0  0  0  0  0  0  0  0  0  0  0
  156.8970  213.2390  151.2090 C   0  0  0  0  0  3  0  0  0  0  0  0
  158.5360  213.7430  148.1210 N   0  0  0  0  0  0  0  0  0  0  0  0
  158.5040  213.4760  149.4360 C   0  0  0  0  0  0  0  0  0  0  0  0
  156.3780  213.7560  148.8760 N   0  0  0  0  0  2  0  0  0  0  0  0
  160.5000  210.9570  154.4000 C   0  0  0  0  0  0  0  0  0  0  0  0
  157.2210  213.4840  149.8820 C   0  0  0  0  0  0  0  0  0  0  0  0
  159.5820  213.2160  150.2840 C   0  0  0  0  0  0  0  0  0  0  0  0
  155.3830  212.2800  154.8470 C   0  0  0  0  0  2  0  0  0  0  0  0
  156.7450  214.2370  146.4540 C   0  0  0  0  0  1  0  0  0  0  0  0
  156.1180  214.4530  154.1180 N   0  0  0  0  0  2  0  0  0  0  0  0
  158.1640  211.1050  155.0220 C   0  0  2  0  0  3  0  0  0  0  0  0
  156.0300  211.7670  156.1420 C   0  0  0  0  0  2  0  0  0  0  0  0
  157.2210  213.9040  147.8240 C   0  0  0  0  0  0  0  0  0  0  0  0
  157.6290  212.6520  153.5510 C   0  0  1  0  0  3  0  0  0  0  0  0
  160.4540  212.6660  152.5880 C   0  0  0  0  0  2  0  0  0  0  0  0
  161.3910  211.4550  155.1370 O   0  0  0  0  0  0  0  0  0  0  0  0
  160.4800  211.2590  152.9980 N   0  0  0  0  0  0  0  0  0  0  0  0
  157.0260  210.6230  155.9060 C   0  0  0  0  0  2  0  0  0  0  0  0
  157.6970  211.2690  153.7180 O   0  0  0  0  0  0  0  0  0  0  0  0
  160.9250  208.9950  152.4890 O   0  0  0  0  0  0  0  0  0  0  0  0
  160.3370  210.1870  152.0100 C   0  0  2  0  0  3  0  0  0  0  0  0
  161.6560  209.6990  151.5180 C   0  0  0  0  0  0  0  0  0  0  0  0
  162.9700  210.1930  152.1000 C   0  0  0  0  0  1  0  0  0  0  0  0
  161.6750  208.9490  150.2040 C   0  0  0  0  0  1  0  0  0  0  0  0
  161.1840  212.1130  148.9380 O   0  0  0  0  0  1  0  0  0  0  0  0
  160.9790  213.2280  149.7490 C   0  0  0  0  0  2  0  0  0  0  0  0
  2 14  2  0  0  0  0
  2 12  1  0  0  0  0
  4  1  1  0  0  0  0
  4 19  1  0  0  0  0
  5  1  2  0  0  0  0
  6  7  1  0  0  0  0
  7 10  2  0  0  0  0
  7 11  1  0  0  0  0
  8 10  1  0  0  0  0
  9  3  1  0  0  0  0
  9 20  2  0  0  0  0
 10  5  1  0  0  0  0
 11  4  2  0  0  0  0
 12 16  1  0  0  0  0
 13 17  1  0  0  0  0
 15  3  1  6  0  0  0
 15 22  1  0  0  0  0
 17  6  2  0  0  0  0
 17  8  1  0  0  0  0
 18  1  1  6  0  0  0
 18 23  1  0  0  0  0
 18  2  1  0  0  0  0
 19 21  1  0  0  0  0
 21  9  1  0  0  0  0
 22 16  1  0  0  0  0
 23 15  1  0  0  0  0
 25 24  1  0  0  0  0
 25 21  1  1  0  0  0
 26 25  1  0  0  0  0
 26 27  1  0  0  0  0
 26 24  1  0  0  0  0
 28 26  1  0  0  0  0
 29 30  1  0  0  0  0
 30 11  1  0  0  0  0
M  END
>  <MODEL>
5

>  <REMARK>
 VINA RESULT:      -3.0      3.107      4.754
  Name = 
  2 active torsions:
  status: ('A' for Active; 'I' for Inactive)
    1  A    between atoms: C_10  and  N_25
    2  A    between atoms: C_13  and  C_30
                            x       y       z     vdW  Elec       q    Type
                         _______ _______ _______ _____ _____    ______ ____

>  <TORSDO>
F 2

$$$$
=
 OpenBabel11052421433D

 30 34  0  0  1  0  0  0  0  0999 V2000
  160.4010  210.3750  151.8710 C   0  0  0  0  0  0  0  0  0  0  0  0
  161.0920  207.9100  151.8800 C   0  0  0  0  0  0  0  0  0  0  0  0
  160.0670  209.1540  155.9600 C   0  0  0  0  0  2  0  0  0  0  0  0
  159.4590  211.3840  152.2570 C   0  0  0  0  0  0  0  0  0  0  0  0
  161.3360  210.6390  150.8470 C   0  0  0  0  0  3  0  0  0  0  0  0
  160.5500  213.9190  149.7970 N   0  0  0  0  0  0  0  0  0  0  0  0
  160.3850  212.8290  150.5640 C   0  0  0  0  0  0  0  0  0  0  0  0
  162.0620  212.3060  149.2130 N   0  0  0  0  0  2  0  0  0  0  0  0
  158.9130  210.0100  155.5480 C   0  0  0  0  0  0  0  0  0  0  0  0
  161.2850  211.8730  150.2150 C   0  0  0  0  0  0  0  0  0  0  0  0
  159.4540  212.6340  151.5850 C   0  0  0  0  0  0  0  0  0  0  0  0
  162.1310  207.0450  152.5500 C   0  0  0  0  0  2  0  0  0  0  0  0
  162.1280  214.4510  147.9380 C   0  0  0  0  0  1  0  0  0  0  0  0
  160.5380  207.4920  150.8020 N   0  0  0  0  0  2  0  0  0  0  0  0
  160.5260  208.4020  154.7250 C   0  0  2  0  0  3  0  0  0  0  0  0
  161.5670  206.3320  153.7870 C   0  0  0  0  0  2  0  0  0  0  0  0
  161.5820  213.5560  148.9920 C   0  0  0  0  0  0  0  0  0  0  0  0
  160.4760  209.0740  152.6290 C   0  0  1  0  0  3  0  0  0  0  0  0
  158.4730  211.1560  153.3810 C   0  0  0  0  0  2  0  0  0  0  0  0
  157.7410  209.6490  155.8370 O   0  0  0  0  0  0  0  0  0  0  0  0
  159.1220  211.1430  154.6940 N   0  0  0  0  0  0  0  0  0  0  0  0
  161.4680  207.2460  155.0170 C   0  0  0  0  0  2  0  0  0  0  0  0
  161.1410  209.2850  153.8380 O   0  0  0  0  0  0  0  0  0  0  0  0
  160.4320  212.0650  156.4320 O   0  0  0  0  0  0  0  0  0  0  0  0
  160.0810  212.1860  155.0690 C   0  0  2  0  0  3  0  0  0  0  0  0
  159.5360  213.0990  156.1130 C   0  0  0  0  0  0  0  0  0  0  0  0
  158.1900  212.8570  156.7780 C   0  0  0  0  0  1  0  0  0  0  0  0
  160.1930  214.4530  156.2650 C   0  0  0  0  0  1  0  0  0  0  0  0
  157.4200  213.6990  151.0160 O   0  0  0  0  0  1  0  0  0  0  0  0
  158.4750  213.7130  151.9270 C   0  0  0  0  0  2  0  0  0  0  0  0
  1  4  1  0  0  0  0
  2 12  1  0  0  0  0
  2 18  1  0  0  0  0
  4 19  1  0  0  0  0
  5  1  2  0  0  0  0
  6  7  1  0  0  0  0
  7 11  1  0  0  0  0
  8 10  1  0  0  0  0
  9 20  2  0  0  0  0
  9  3  1  0  0  0  0
 10  7  2  0  0  0  0
 10  5  1  0  0  0  0
 11 30  1  0  0  0  0
 11  4  2  0  0  0  0
 12 16  1  0  0  0  0
 13 17  1  0  0  0  0
 14  2  2  0  0  0  0
 15 22  1  1  0  0  0
 15  3  1  0  0  0  0
 16 22  1  0  0  0  0
 17  8  1  0  0  0  0
 17  6  2  0  0  0  0
 18  1  1  6  0  0  0
 18 23  1  0  0  0  0
 19 21  1  0  0  0  0
 21  9  1  0  0  0  0
 23 15  1  0  0  0  0
 25 21  1  1  0  0  0
 25 26  1  0  0  0  0
 25 24  1  0  0  0  0
 26 28  1  0  0  0  0
 26 24  1  0  0  0  0
 26 27  1  0  0  0  0
 29 30  1  0  0  0  0
M  END
>  <MODEL>
6

>  <REMARK>
 VINA RESULT:      -2.9      2.626      5.533
  Name = 
  2 active torsions:
  status: ('A' for Active; 'I' for Inactive)
    1  A    between atoms: C_10  and  N_25
    2  A    between atoms: C_13  and  C_30
                            x       y       z     vdW  Elec       q    Type
                         _______ _______ _______ _____ _____    ______ ____

>  <TORSDO>
F 2

$$$$
=
 OpenBabel11052421433D

 30 34  0  0  1  0  0  0  0  0999 V2000
  159.8740  212.3350  152.0800 C   0  0  0  0  0  0  0  0  0  0  0  0
  158.7160  213.2500  154.1710 C   0  0  0  0  0  0  0  0  0  0  0  0
  159.8560  209.0680  154.8450 C   0  0  0  0  0  2  0  0  0  0  0  0
  160.9830  211.6360  151.5000 C   0  0  0  0  0  0  0  0  0  0  0  0
  159.0350  213.1240  151.2630 C   0  0  0  0  0  3  0  0  0  0  0  0
  160.4710  212.8540  148.0470 N   0  0  0  0  0  0  0  0  0  0  0  0
  160.4010  212.5820  149.3600 C   0  0  0  0  0  0  0  0  0  0  0  0
  158.6910  213.9400  148.9840 N   0  0  0  0  0  2  0  0  0  0  0  0
  161.1650  209.1740  154.1310 C   0  0  0  0  0  0  0  0  0  0  0  0
  159.3420  213.2280  149.9140 C   0  0  0  0  0  0  0  0  0  0  0  0
  161.2490  211.7670  150.1120 C   0  0  0  0  0  0  0  0  0  0  0  0
  157.5120  212.9160  155.0160 C   0  0  0  0  0  2  0  0  0  0  0  0
  159.0760  214.2730  146.5410 C   0  0  0  0  0  1  0  0  0  0  0  0
  159.2070  214.4330  154.2300 N   0  0  0  0  0  2  0  0  0  0  0  0
  159.2920  210.4720  154.9510 C   0  0  2  0  0  3  0  0  0  0  0  0
  157.8930  212.0860  156.2500 C   0  0  0  0  0  2  0  0  0  0  0  0
  159.4100  213.6810  147.8640 C   0  0  0  0  0  0  0  0  0  0  0  0
  159.5280  212.1400  153.5340 C   0  0  1  0  0  3  0  0  0  0  0  0
  161.8760  210.7430  152.3330 C   0  0  0  0  0  2  0  0  0  0  0  0
  162.2360  209.1100  154.7910 O   0  0  0  0  0  0  0  0  0  0  0  0
  161.2030  209.5070  152.7370 N   0  0  0  0  0  0  0  0  0  0  0  0
  158.1360  210.6050  155.9280 C   0  0  0  0  0  2  0  0  0  0  0  0
  158.8840  210.9120  153.6920 O   0  0  0  0  0  0  0  0  0  0  0  0
  160.4710  207.3430  152.1320 O   0  0  0  0  0  0  0  0  0  0  0  0
  160.4560  208.7060  151.7630 C   0  0  2  0  0  3  0  0  0  0  0  0
  161.3230  207.7070  151.0770 C   0  0  0  0  0  0  0  0  0  0  0  0
  162.7750  207.4910  151.4680 C   0  0  0  0  0  1  0  0  0  0  0  0
  160.8290  207.1450  149.7610 C   0  0  0  0  0  1  0  0  0  0  0  0
  161.9510  210.0560  148.6380 O   0  0  0  0  0  1  0  0  0  0  0  0
  162.4100  211.0840  149.4600 C   0  0  0  0  0  2  0  0  0  0  0  0
  2 14  2  0  0  0  0
  2 12  1  0  0  0  0
  4  1  1  0  0  0  0
  4 19  1  0  0  0  0
  5  1  2  0  0  0  0
  6  7  1  0  0  0  0
  7 10  2  0  0  0  0
  7 11  1  0  0  0  0
  8 10  1  0  0  0  0
  9 20  2  0  0  0  0
  9  3  1  0  0  0  0
 10  5  1  0  0  0  0
 11  4  2  0  0  0  0
 12 16  1  0  0  0  0
 13 17  1  0  0  0  0
 15  3  1  6  0  0  0
 15 22  1  0  0  0  0
 17  6  2  0  0  0  0
 17  8  1  0  0  0  0
 18  1  1  6  0  0  0
 18 23  1  0  0  0  0
 18  2  1  0  0  0  0
 19 21  1  0  0  0  0
 21  9  1  0  0  0  0
 22 16  1  0  0  0  0
 23 15  1  0  0  0  0
 25 24  1  0  0  0  0
 25 21  1  1  0  0  0
 26 27  1  0  0  0  0
 26 25  1  0  0  0  0
 26 24  1  0  0  0  0
 28 26  1  0  0  0  0
 29 30  1  0  0  0  0
 30 11  1  0  0  0  0
M  END
>  <MODEL>
7

>  <REMARK>
 VINA RESULT:      -2.5      2.082      3.147
  Name = 
  2 active torsions:
  status: ('A' for Active; 'I' for Inactive)
    1  A    between atoms: C_10  and  N_25
    2  A    between atoms: C_13  and  C_30
                            x       y       z     vdW  Elec       q    Type
                         _______ _______ _______ _____ _____    ______ ____

>  <TORSDO>
F 2

$$$$
