=
 OpenBabel11052421463D

 30 32  0  0  1  0  0  0  0  0999 V2000
  159.7440  210.4290  138.4400 N   0  0  2  0  0  0  0  0  0  0  0  0
  160.5950  211.5960  138.7910 C   0  0  1  0  0  3  0  0  0  0  0  0
  160.4190  209.3670  137.6800 C   0  0  0  0  0  2  0  0  0  0  0  0
  161.4130  207.6390  140.1090 O   0  0  0  0  0  0  0  0  0  0  0  0
  161.9230  208.8840  139.7250 C   0  0  1  0  0  3  0  0  0  0  0  0
  162.2820  207.4000  137.5860 S   0  0  0  0  0  0  0  0  0  0  0  0
  161.8200  209.0200  138.2120 C   0  0  1  0  0  3  0  0  0  0  0  0
  161.2660  210.0100  140.5270 C   0  0  0  0  0  2  0  0  0  0  0  0
  163.1970  206.2310  139.7790 O   0  0  0  0  0  1  0  0  0  0  0  0
  161.9930  206.6940  139.2440 C   0  0  1  0  0  3  0  0  0  0  0  0
  161.5190  211.3130  139.9080 N   0  0  0  0  0  0  0  0  0  0  0  0
  161.2530  212.3090  140.9310 C   0  0  0  0  0  1  0  0  0  0  0  0
  157.4600  209.6440  137.8740 C   0  0  1  0  0  3  0  0  0  0  0  0
  156.5830  212.4520  137.6130 C   0  0  2  0  0  3  0  0  0  0  0  0
  156.1550  210.0210  137.1680 C   0  0  2  0  0  3  0  0  0  0  0  0
  157.9980  208.5160  137.2790 F   0  0  0  0  0  0  0  0  0  0  0  0
  155.5590  211.3160  137.7330 C   0  0  1  0  0  3  0  0  0  0  0  0
  155.2340  208.9760  137.2610 O   0  0  0  0  0  1  0  0  0  0  0  0
  158.4710  210.7970  137.7990 C   0  0  1  0  0  3  0  0  0  0  0  0
  155.0750  211.1380  139.1710 C   0  0  0  0  0  1  0  0  0  0  0  0
  157.8800  212.1070  138.3420 C   0  0  0  0  0  2  0  0  0  0  0  0
  156.0580  213.6470  138.1090 O   0  0  0  0  0  0  0  0  0  0  0  0
  156.9530  214.0680  138.9770 O   0  0  0  0  0  1  0  0  0  0  0  0
  161.3750  212.1580  137.6000 C   0  0  0  0  0  2  0  0  0  0  0  0
  161.4440  213.6720  137.6760 C   0  0  0  0  0  2  0  0  0  0  0  0
  162.7690  214.1330  137.2920 N   0  0  0  0  0  2  0  0  0  0  0  0
  163.9020  214.2250  138.1670 C   0  0  0  0  0  0  0  0  0  0  0  0
  163.6300  214.4530  139.7600 S   0  0  0  0  0  0  0  0  0  0  0  0
  165.3050  214.1380  137.7180 C   0  0  0  0  0  3  0  0  0  0  0  0
  166.3560  214.2940  138.5110 C   0  0  0  0  0  2  0  0  0  0  0  0
  1  3  1  6  0  0  0
  1  2  1  0  0  0  0
  2 24  1  6  0  0  0
  2 11  1  0  0  0  0
  5  4  1  0  0  0  0
  5  8  1  1  0  0  0
  6  7  1  0  0  0  0
  6 10  1  0  0  0  0
  7  3  1  1  0  0  0
  7  5  1  0  0  0  0
 10  9  1  1  0  0  0
 10  4  1  0  0  0  0
 11  8  1  0  0  0  0
 11 12  1  0  0  0  0
 13 16  1  6  0  0  0
 14 17  1  0  0  0  0
 14 22  1  1  0  0  0
 14 21  1  0  0  0  0
 15 18  1  1  0  0  0
 15 17  1  0  0  0  0
 15 13  1  0  0  0  0
 17 20  1  1  0  0  0
 19 13  1  0  0  0  0
 19 21  1  1  0  0  0
 19  1  1  0  0  0  0
 22 23  1  0  0  0  0
 24 25  1  0  0  0  0
 26 25  1  0  0  0  0
 26 27  1  0  0  0  0
 27 28  2  0  0  0  0
 29 27  1  0  0  0  0
 29 30  2  0  0  0  0
M  END
>  <MODEL>
1

>  <REMARK>
 VINA RESULT:      -4.1      0.000      0.000
  Name = 
  7 active torsions:
  status: ('A' for Active; 'I' for Inactive)
    1  A    between atoms: N_1  and  C_22
    2  A    between atoms: C_3  and  O_11
    3  A    between atoms: C_4  and  C_23
    4  A    between atoms: C_7  and  N_10
    5  A    between atoms: C_7  and  C_15
    6  A    between atoms: N_10  and  C_25
    7  A    between atoms: C_23  and  C_25
                            x       y       z     vdW  Elec       q    Type
                         _______ _______ _______ _____ _____    ______ ____

>  <TORSDO>
F 7

$$$$
=
 OpenBabel11052421463D

 30 32  0  0  1  0  0  0  0  0999 V2000
  159.9020  211.4720  152.6010 N   0  0  2  0  0  0  0  0  0  0  0  0
  160.8420  210.4340  153.0970 C   0  0  1  0  0  3  0  0  0  0  0  0
  158.4980  211.2850  152.9940 C   0  0  0  0  0  2  0  0  0  0  0  0
  158.5590  212.9270  155.6730 O   0  0  0  0  0  0  0  0  0  0  0  0
  159.1550  211.6790  155.4620 C   0  0  1  0  0  3  0  0  0  0  0  0
  156.6170  211.2300  154.9470 S   0  0  0  0  0  0  0  0  0  0  0  0
  158.3150  210.8870  154.4690 C   0  0  1  0  0  3  0  0  0  0  0  0
  160.6300  211.8380  155.0870 C   0  0  0  0  0  2  0  0  0  0  0  0
  156.9640  212.4710  157.2600 O   0  0  0  0  0  1  0  0  0  0  0  0
  157.1930  212.6760  155.8990 C   0  0  1  0  0  3  0  0  0  0  0  0
  161.1680  210.5960  154.5280 N   0  0  0  0  0  0  0  0  0  0  0  0
  162.6140  210.7010  154.6170 C   0  0  0  0  0  1  0  0  0  0  0  0
  159.2950  213.0260  150.7660 C   0  0  1  0  0  3  0  0  0  0  0  0
  161.4910  211.9180  149.1310 C   0  0  2  0  0  3  0  0  0  0  0  0
  159.3730  213.2550  149.2540 C   0  0  2  0  0  3  0  0  0  0  0  0
  157.9680  212.9650  151.1560 F   0  0  0  0  0  0  0  0  0  0  0  0
  160.8220  213.2460  148.7530 C   0  0  1  0  0  3  0  0  0  0  0  0
  158.7440  214.4530  148.9120 O   0  0  0  0  0  1  0  0  0  0  0  0
  160.0070  211.7220  151.1540 C   0  0  1  0  0  3  0  0  0  0  0  0
  161.6110  214.4470  149.2740 C   0  0  0  0  0  1  0  0  0  0  0  0
  161.4540  211.6890  150.6410 C   0  0  0  0  0  2  0  0  0  0  0  0
  162.8100  211.8800  148.6730 O   0  0  0  0  0  0  0  0  0  0  0  0
  162.7760  212.4970  147.5110 O   0  0  0  0  0  1  0  0  0  0  0  0
  160.3630  209.0040  152.8310 C   0  0  0  0  0  2  0  0  0  0  0  0
  161.5090  208.1450  152.3270 C   0  0  0  0  0  2  0  0  0  0  0  0
  161.3160  207.8270  150.9220 N   0  0  0  0  0  2  0  0  0  0  0  0
  161.2510  206.5040  150.3710 C   0  0  0  0  0  0  0  0  0  0  0  0
  160.6580  206.3270  148.8600 S   0  0  0  0  0  0  0  0  0  0  0  0
  161.6760  205.2850  151.0860 C   0  0  0  0  0  3  0  0  0  0  0  0
  160.8800  204.2600  151.3570 C   0  0  0  0  0  2  0  0  0  0  0  0
  1  3  1  6  0  0  0
  1  2  1  0  0  0  0
  2 24  1  1  0  0  0
  2 11  1  0  0  0  0
  4 10  1  0  0  0  0
  5  8  1  6  0  0  0
  5  4  1  0  0  0  0
  6 10  1  0  0  0  0
  7  3  1  6  0  0  0
  7  6  1  0  0  0  0
  7  5  1  0  0  0  0
 10  9  1  1  0  0  0
 11 12  1  0  0  0  0
 11  8  1  0  0  0  0
 13 19  1  0  0  0  0
 13 16  1  6  0  0  0
 14 22  1  1  0  0  0
 14 21  1  0  0  0  0
 15 18  1  1  0  0  0
 15 13  1  0  0  0  0
 17 14  1  0  0  0  0
 17 15  1  0  0  0  0
 17 20  1  1  0  0  0
 19 21  1  1  0  0  0
 19  1  1  0  0  0  0
 23 22  1  0  0  0  0
 25 24  1  0  0  0  0
 26 25  1  0  0  0  0
 27 26  1  0  0  0  0
 27 29  1  0  0  0  0
 28 27  2  0  0  0  0
 29 30  2  0  0  0  0
M  END
>  <MODEL>
2

>  <REMARK>
 VINA RESULT:      -3.8     12.456     14.872
  Name = 
  7 active torsions:
  status: ('A' for Active; 'I' for Inactive)
    1  A    between atoms: N_1  and  C_22
    2  A    between atoms: C_3  and  O_11
    3  A    between atoms: C_4  and  C_23
    4  A    between atoms: C_7  and  N_10
    5  A    between atoms: C_7  and  C_15
    6  A    between atoms: N_10  and  C_25
    7  A    between atoms: C_23  and  C_25
                            x       y       z     vdW  Elec       q    Type
                         _______ _______ _______ _____ _____    ______ ____

>  <TORSDO>
F 7

$$$$
=
 OpenBabel11052421463D

 30 32  0  0  1  0  0  0  0  0999 V2000
  159.5190  212.0360  152.5380 N   0  0  2  0  0  0  0  0  0  0  0  0
  159.3870  212.8690  151.3150 C   0  0  1  0  0  3  0  0  0  0  0  0
  159.5660  212.7840  153.8030 C   0  0  0  0  0  2  0  0  0  0  0  0
  156.4840  212.8190  154.4180 O   0  0  0  0  0  0  0  0  0  0  0  0
  157.1290  213.5530  153.4180 C   0  0  1  0  0  3  0  0  0  0  0  0
  158.3150  214.3620  155.6190 S   0  0  0  0  0  0  0  0  0  0  0  0
  158.5300  213.9180  153.8910 C   0  0  1  0  0  3  0  0  0  0  0  0
  157.0650  212.8180  152.0770 C   0  0  0  0  0  2  0  0  0  0  0  0
  155.6760  214.4530  155.8140 O   0  0  0  0  0  1  0  0  0  0  0  0
  156.6960  213.5200  155.6180 C   0  0  1  0  0  3  0  0  0  0  0  0
  158.0180  213.3850  151.1200 N   0  0  0  0  0  0  0  0  0  0  0  0
  157.5880  212.9410  149.8060 C   0  0  0  0  0  1  0  0  0  0  0  0
  160.3560  209.8700  153.4090 C   0  0  1  0  0  3  0  0  0  0  0  0
  162.0970  209.6140  151.0370 C   0  0  2  0  0  3  0  0  0  0  0  0
  161.5220  208.8800  153.3650 C   0  0  2  0  0  3  0  0  0  0  0  0
  160.1860  210.3270  154.7040 F   0  0  0  0  0  0  0  0  0  0  0  0
  161.8090  208.4040  151.9360 C   0  0  1  0  0  3  0  0  0  0  0  0
  161.2670  207.7910  154.2010 O   0  0  0  0  0  1  0  0  0  0  0  0
  160.6170  211.0580  152.4720 C   0  0  1  0  0  3  0  0  0  0  0  0
  160.6740  207.5440  151.3840 C   0  0  0  0  0  1  0  0  0  0  0  0
  160.9280  210.5970  151.0410 C   0  0  0  0  0  2  0  0  0  0  0  0
  162.3750  209.2050  149.7310 O   0  0  0  0  0  0  0  0  0  0  0  0
  162.0070  210.2220  148.9800 O   0  0  0  0  0  1  0  0  0  0  0  0
  160.3920  214.0230  151.2560 C   0  0  0  0  0  2  0  0  0  0  0  0
  160.6240  214.4530  149.8190 C   0  0  0  0  0  2  0  0  0  0  0  0
  161.0650  213.3200  149.0220 N   0  0  0  0  0  2  0  0  0  0  0  0
  161.0510  213.2560  147.5890 C   0  0  0  0  0  0  0  0  0  0  0  0
  162.4370  213.5740  146.7900 S   0  0  0  0  0  0  0  0  0  0  0  0
  159.8570  212.9300  146.7850 C   0  0  0  0  0  3  0  0  0  0  0  0
  159.8830  212.2580  145.6430 C   0  0  0  0  0  2  0  0  0  0  0  0
  1  3  1  1  0  0  0
  2 24  1  1  0  0  0
  2  1  1  0  0  0  0
  4 10  1  0  0  0  0
  5  8  1  6  0  0  0
  5  7  1  0  0  0  0
  5  4  1  0  0  0  0
  7  3  1  1  0  0  0
  7  6  1  0  0  0  0
 10  6  1  0  0  0  0
 10  9  1  6  0  0  0
 11  2  1  0  0  0  0
 11  8  1  0  0  0  0
 12 11  1  0  0  0  0
 13 16  1  1  0  0  0
 14 22  1  6  0  0  0
 14 21  1  0  0  0  0
 14 17  1  0  0  0  0
 15 13  1  0  0  0  0
 15 18  1  1  0  0  0
 17 20  1  6  0  0  0
 17 15  1  0  0  0  0
 19 21  1  6  0  0  0
 19  1  1  0  0  0  0
 19 13  1  0  0  0  0
 23 22  1  0  0  0  0
 25 24  1  0  0  0  0
 26 25  1  0  0  0  0
 27 26  1  0  0  0  0
 28 27  2  0  0  0  0
 29 27  1  0  0  0  0
 30 29  2  0  0  0  0
M  END
>  <MODEL>
3

>  <REMARK>
 VINA RESULT:      -3.6     11.951     14.512
  Name = 
  7 active torsions:
  status: ('A' for Active; 'I' for Inactive)
    1  A    between atoms: N_1  and  C_22
    2  A    between atoms: C_3  and  O_11
    3  A    between atoms: C_4  and  C_23
    4  A    between atoms: C_7  and  N_10
    5  A    between atoms: C_7  and  C_15
    6  A    between atoms: N_10  and  C_25
    7  A    between atoms: C_23  and  C_25
                            x       y       z     vdW  Elec       q    Type
                         _______ _______ _______ _____ _____    ______ ____

>  <TORSDO>
F 7

$$$$
=
 OpenBabel11052421463D

 30 32  0  0  1  0  0  0  0  0999 V2000
  161.6380  209.0300  152.9030 N   0  0  2  0  0  0  0  0  0  0  0  0
  160.8720  210.2450  152.5230 C   0  0  1  0  0  3  0  0  0  0  0  0
  161.1070  207.7640  152.3740 C   0  0  0  0  0  2  0  0  0  0  0  0
  162.7300  207.6870  149.6840 O   0  0  0  0  0  0  0  0  0  0  0  0
  161.6710  208.5510  149.9770 C   0  0  1  0  0  3  0  0  0  0  0  0
  160.5960  206.1670  150.2430 S   0  0  0  0  0  0  0  0  0  0  0  0
  160.6860  207.8390  150.8960 C   0  0  1  0  0  3  0  0  0  0  0  0
  162.1910  209.8930  150.4960 C   0  0  0  0  0  2  0  0  0  0  0  0
  161.9000  206.4270  147.9530 O   0  0  0  0  0  1  0  0  0  0  0  0
  162.1470  206.4580  149.3270 C   0  0  1  0  0  3  0  0  0  0  0  0
  161.1200  210.6650  151.1300 N   0  0  0  0  0  0  0  0  0  0  0  0
  161.5850  212.0390  151.1850 C   0  0  0  0  0  1  0  0  0  0  0  0
  162.1630  210.2990  154.9680 C   0  0  1  0  0  3  0  0  0  0  0  0
  161.1360  208.0500  156.5840 C   0  0  2  0  0  3  0  0  0  0  0  0
  162.4710  210.1700  156.4620 C   0  0  2  0  0  3  0  0  0  0  0  0
  163.2320  210.8980  154.3260 F   0  0  0  0  0  0  0  0  0  0  0  0
  161.3530  209.4340  157.2100 C   0  0  1  0  0  3  0  0  0  0  0  0
  162.6900  211.4290  157.0230 O   0  0  0  0  0  1  0  0  0  0  0  0
  161.8960  208.9200  154.3470 C   0  0  1  0  0  3  0  0  0  0  0  0
  160.0610  210.2490  157.2460 C   0  0  0  0  0  1  0  0  0  0  0  0
  160.7920  208.1620  155.1000 C   0  0  0  0  0  2  0  0  0  0  0  0
  160.1300  207.3540  157.2580 O   0  0  0  0  0  0  0  0  0  0  0  0
  159.3270  206.9270  156.3060 O   0  0  0  0  0  1  0  0  0  0  0  0
  159.3660  210.1140  152.7680 C   0  0  0  0  0  2  0  0  0  0  0  0
  158.8970  211.1550  153.7680 C   0  0  0  0  0  2  0  0  0  0  0  0
  159.0010  212.4860  153.1920 N   0  0  0  0  0  2  0  0  0  0  0  0
  157.9610  213.1630  152.4720 C   0  0  0  0  0  0  0  0  0  0  0  0
  156.6990  213.7570  153.3190 S   0  0  0  0  0  0  0  0  0  0  0  0
  157.9520  213.3510  151.0080 C   0  0  0  0  0  3  0  0  0  0  0  0
  158.7470  214.1870  150.3550 C   0  0  0  0  0  2  0  0  0  0  0  0
  1  3  1  1  0  0  0
  1 19  1  0  0  0  0
  2 24  1  6  0  0  0
  2  1  1  0  0  0  0
  4  5  1  0  0  0  0
  5  8  1  1  0  0  0
  5  7  1  0  0  0  0
  6  7  1  0  0  0  0
  7  3  1  1  0  0  0
  8 11  1  0  0  0  0
 10  9  1  6  0  0  0
 10  4  1  0  0  0  0
 10  6  1  0  0  0  0
 11 12  1  0  0  0  0
 11  2  1  0  0  0  0
 13 16  1  6  0  0  0
 13 15  1  0  0  0  0
 14 17  1  0  0  0  0
 14 22  1  1  0  0  0
 15 18  1  1  0  0  0
 15 17  1  0  0  0  0
 17 20  1  6  0  0  0
 19 13  1  0  0  0  0
 19 21  1  1  0  0  0
 21 14  1  0  0  0  0
 23 22  1  0  0  0  0
 24 25  1  0  0  0  0
 26 25  1  0  0  0  0
 27 26  1  0  0  0  0
 27 28  2  0  0  0  0
 29 27  1  0  0  0  0
 30 29  2  0  0  0  0
M  END
>  <MODEL>
4

>  <REMARK>
 VINA RESULT:      -3.2     13.355     15.686
  Name = 
  7 active torsions:
  status: ('A' for Active; 'I' for Inactive)
    1  A    between atoms: N_1  and  C_22
    2  A    between atoms: C_3  and  O_11
    3  A    between atoms: C_4  and  C_23
    4  A    between atoms: C_7  and  N_10
    5  A    between atoms: C_7  and  C_15
    6  A    between atoms: N_10  and  C_25
    7  A    between atoms: C_23  and  C_25
                            x       y       z     vdW  Elec       q    Type
                         _______ _______ _______ _____ _____    ______ ____

>  <TORSDO>
F 7

$$$$
=
 OpenBabel11052421463D

 30 32  0  0  1  0  0  0  0  0999 V2000
  160.0940  211.1450  152.6800 N   0  0  2  0  0  0  0  0  0  0  0  0
  159.6970  212.2020  151.7140 C   0  0  1  0  0  3  0  0  0  0  0  0
  160.4950  211.6290  154.0090 C   0  0  0  0  0  2  0  0  0  0  0  0
  157.6740  211.5340  155.3910 O   0  0  0  0  0  0  0  0  0  0  0  0
  158.0790  212.4520  154.4180 C   0  0  1  0  0  3  0  0  0  0  0  0
  159.8210  212.8160  156.3520 S   0  0  0  0  0  0  0  0  0  0  0  0
  159.5700  212.7210  154.5750 C   0  0  1  0  0  3  0  0  0  0  0  0
  157.6430  211.9950  153.0240 C   0  0  0  0  0  2  0  0  0  0  0  0
  157.3240  212.8590  157.2330 O   0  0  0  0  0  1  0  0  0  0  0  0
  158.2160  211.9860  156.6080 C   0  0  1  0  0  3  0  0  0  0  0  0
  158.3490  212.7420  151.9800 N   0  0  0  0  0  0  0  0  0  0  0  0
  157.5800  212.5640  150.7610 C   0  0  0  0  0  1  0  0  0  0  0  0
  160.8520  208.7830  152.6850 C   0  0  1  0  0  3  0  0  0  0  0  0
  162.2590  209.2530  150.1310 C   0  0  2  0  0  3  0  0  0  0  0  0
  161.9190  207.8190  152.1600 C   0  0  2  0  0  3  0  0  0  0  0  0
  160.8830  208.7980  154.0680 F   0  0  0  0  0  0  0  0  0  0  0  0
  161.9870  207.8280  150.6280 C   0  0  1  0  0  3  0  0  0  0  0  0
  161.6810  206.5280  152.6330 O   0  0  0  0  0  1  0  0  0  0  0  0
  161.0920  210.2020  152.1490 C   0  0  1  0  0  3  0  0  0  0  0  0
  160.7250  207.2380  150.0000 C   0  0  0  0  0  1  0  0  0  0  0  0
  161.1830  210.2230  150.6160 C   0  0  0  0  0  2  0  0  0  0  0  0
  162.3390  209.2840  148.7360 O   0  0  0  0  0  0  0  0  0  0  0  0
  161.8910  210.4780  148.4060 O   0  0  0  0  0  1  0  0  0  0  0  0
  160.7080  213.3480  151.6200 C   0  0  0  0  0  2  0  0  0  0  0  0
  160.2350  214.3930  150.6260 C   0  0  0  0  0  2  0  0  0  0  0  0
  161.1440  214.4530  149.4920 N   0  0  0  0  0  2  0  0  0  0  0  0
  160.9080  213.8620  148.2060 C   0  0  0  0  0  0  0  0  0  0  0  0
  162.1640  213.7470  147.1700 S   0  0  0  0  0  0  0  0  0  0  0  0
  159.5980  213.3570  147.7520 C   0  0  0  0  0  3  0  0  0  0  0  0
  159.4110  212.6390  146.6540 C   0  0  0  0  0  2  0  0  0  0  0  0
  1  3  1  1  0  0  0
  2 24  1  1  0  0  0
  2 11  1  0  0  0  0
  2  1  1  0  0  0  0
  4 10  1  0  0  0  0
  5  8  1  6  0  0  0
  5  7  1  0  0  0  0
  5  4  1  0  0  0  0
  6 10  1  0  0  0  0
  7  3  1  1  0  0  0
  7  6  1  0  0  0  0
 10  9  1  6  0  0  0
 11  8  1  0  0  0  0
 12 11  1  0  0  0  0
 13 16  1  1  0  0  0
 14 22  1  6  0  0  0
 14 21  1  0  0  0  0
 14 17  1  0  0  0  0
 15 18  1  6  0  0  0
 15 13  1  0  0  0  0
 17 20  1  6  0  0  0
 17 15  1  0  0  0  0
 19 21  1  6  0  0  0
 19  1  1  0  0  0  0
 19 13  1  0  0  0  0
 23 22  1  0  0  0  0
 25 24  1  0  0  0  0
 26 25  1  0  0  0  0
 27 26  1  0  0  0  0
 28 27  2  0  0  0  0
 29 27  1  0  0  0  0
 30 29  2  0  0  0  0
M  END
>  <MODEL>
5

>  <REMARK>
 VINA RESULT:      -3.1     12.037     14.442
  Name = 
  7 active torsions:
  status: ('A' for Active; 'I' for Inactive)
    1  A    between atoms: N_1  and  C_22
    2  A    between atoms: C_3  and  O_11
    3  A    between atoms: C_4  and  C_23
    4  A    between atoms: C_7  and  N_10
    5  A    between atoms: C_7  and  C_15
    6  A    between atoms: N_10  and  C_25
    7  A    between atoms: C_23  and  C_25
                            x       y       z     vdW  Elec       q    Type
                         _______ _______ _______ _____ _____    ______ ____

>  <TORSDO>
F 7

$$$$
=
 OpenBabel11052421463D

 30 32  0  0  1  0  0  0  0  0999 V2000
  160.0580  210.8900  154.4530 N   0  0  2  0  0  0  0  0  0  0  0  0
  160.8450  210.5480  155.6650 C   0  0  1  0  0  3  0  0  0  0  0  0
  160.8420  211.0390  153.2170 C   0  0  0  0  0  2  0  0  0  0  0  0
  160.6780  208.0620  152.2220 O   0  0  0  0  0  0  0  0  0  0  0  0
  161.4280  208.5230  153.3090 C   0  0  1  0  0  3  0  0  0  0  0  0
  162.3770  209.9110  151.2890 S   0  0  0  0  0  0  0  0  0  0  0  0
  161.9020  209.9420  153.0210 C   0  0  1  0  0  3  0  0  0  0  0  0
  160.6540  208.3470  154.6170 C   0  0  0  0  0  2  0  0  0  0  0  0
  162.2890  207.3160  150.7660 O   0  0  0  0  0  1  0  0  0  0  0  0
  161.4250  208.3700  151.0700 C   0  0  1  0  0  3  0  0  0  0  0  0
  161.2590  209.1310  155.6960 N   0  0  0  0  0  0  0  0  0  0  0  0
  160.7500  208.5750  156.9380 C   0  0  0  0  0  1  0  0  0  0  0  0
  158.3150  212.2900  153.3780 C   0  0  1  0  0  3  0  0  0  0  0  0
  157.4000  213.1610  156.0480 C   0  0  2  0  0  3  0  0  0  0  0  0
  157.4130  213.5120  153.5650 C   0  0  2  0  0  3  0  0  0  0  0  0
  159.1490  212.4920  152.2930 F   0  0  0  0  0  0  0  0  0  0  0  0
  156.5240  213.3770  154.8070 C   0  0  1  0  0  3  0  0  0  0  0  0
  156.6330  213.7190  152.4250 O   0  0  0  0  0  1  0  0  0  0  0  0
  159.1580  212.0400  154.6370 C   0  0  1  0  0  3  0  0  0  0  0  0
  155.4860  212.2680  154.6450 C   0  0  0  0  0  1  0  0  0  0  0  0
  158.2820  211.9230  155.8940 C   0  0  0  0  0  2  0  0  0  0  0  0
  156.6130  213.0480  157.1960 O   0  0  0  0  0  0  0  0  0  0  0  0
  155.5870  213.8430  156.9740 O   0  0  0  0  0  1  0  0  0  0  0  0
  162.0650  211.4500  155.8710 C   0  0  0  0  0  2  0  0  0  0  0  0
  163.2840  210.6220  156.2340 C   0  0  0  0  0  2  0  0  0  0  0  0
  164.2480  211.4390  156.9540 N   0  0  0  0  0  2  0  0  0  0  0  0
  165.3810  212.0960  156.3700 C   0  0  0  0  0  0  0  0  0  0  0  0
  166.1660  213.2160  157.2610 S   0  0  0  0  0  0  0  0  0  0  0  0
  165.8810  211.8330  155.0070 C   0  0  0  0  0  3  0  0  0  0  0  0
  167.1460  211.9710  154.6330 C   0  0  0  0  0  2  0  0  0  0  0  0
  1  3  1  6  0  0  0
  1 19  1  0  0  0  0
  1  2  1  0  0  0  0
  2 11  1  0  0  0  0
  2 24  1  6  0  0  0
  4  5  1  0  0  0  0
  5  8  1  1  0  0  0
  6  7  1  0  0  0  0
  7  3  1  6  0  0  0
  7  5  1  0  0  0  0
  8 11  1  0  0  0  0
 10  9  1  1  0  0  0
 10  6  1  0  0  0  0
 10  4  1  0  0  0  0
 11 12  1  0  0  0  0
 13 16  1  6  0  0  0
 13 15  1  0  0  0  0
 13 19  1  0  0  0  0
 14 22  1  1  0  0  0
 15 18  1  6  0  0  0
 15 17  1  0  0  0  0
 17 20  1  6  0  0  0
 17 14  1  0  0  0  0
 19 21  1  1  0  0  0
 21 14  1  0  0  0  0
 23 22  1  0  0  0  0
 24 25  1  0  0  0  0
 25 26  1  0  0  0  0
 27 26  1  0  0  0  0
 27 28  2  0  0  0  0
 29 27  1  0  0  0  0
 30 29  2  0  0  0  0
M  END
>  <MODEL>
6

>  <REMARK>
 VINA RESULT:      -3.1     14.681     16.357
  Name = 
  7 active torsions:
  status: ('A' for Active; 'I' for Inactive)
    1  A    between atoms: N_1  and  C_22
    2  A    between atoms: C_3  and  O_11
    3  A    between atoms: C_4  and  C_23
    4  A    between atoms: C_7  and  N_10
    5  A    between atoms: C_7  and  C_15
    6  A    between atoms: N_10  and  C_25
    7  A    between atoms: C_23  and  C_25
                            x       y       z     vdW  Elec       q    Type
                         _______ _______ _______ _____ _____    ______ ____

>  <TORSDO>
F 7

$$$$
=
 OpenBabel11052421463D

 30 32  0  0  1  0  0  0  0  0999 V2000
  160.1610  209.4800  153.3810 N   0  0  2  0  0  0  0  0  0  0  0  0
  161.1400  209.6700  154.4820 C   0  0  1  0  0  3  0  0  0  0  0  0
  160.7380  209.0680  152.0920 C   0  0  0  0  0  2  0  0  0  0  0  0
  160.5650  205.9570  152.4960 O   0  0  0  0  0  0  0  0  0  0  0  0
  161.4500  206.8200  153.1500 C   0  0  1  0  0  3  0  0  0  0  0  0
  162.0110  207.1900  150.6090 S   0  0  0  0  0  0  0  0  0  0  0  0
  161.8070  207.9690  152.2160 C   0  0  1  0  0  3  0  0  0  0  0  0
  160.8950  207.2380  154.5130 C   0  0  0  0  0  2  0  0  0  0  0  0
  161.9670  204.6240  151.2600 O   0  0  0  0  0  1  0  0  0  0  0  0
  161.1110  205.7260  151.2210 C   0  0  1  0  0  3  0  0  0  0  0  0
  161.6200  208.3930  155.0460 N   0  0  0  0  0  0  0  0  0  0  0  0
  161.3350  208.4320  156.4690 C   0  0  0  0  0  1  0  0  0  0  0  0
  158.6620  211.0780  154.5440 C   0  0  1  0  0  3  0  0  0  0  0  0
  158.8740  212.9160  152.2420 C   0  0  2  0  0  3  0  0  0  0  0  0
  157.6810  212.2350  154.3390 C   0  0  2  0  0  3  0  0  0  0  0  0
  158.0090  210.0200  155.1520 F   0  0  0  0  0  0  0  0  0  0  0  0
  158.3310  213.4050  153.5910 C   0  0  1  0  0  3  0  0  0  0  0  0
  157.1720  212.6620  155.5670 O   0  0  0  0  0  1  0  0  0  0  0  0
  159.2460  210.6180  153.2000 C   0  0  1  0  0  3  0  0  0  0  0  0
  159.4150  214.0830  154.4270 C   0  0  0  0  0  1  0  0  0  0  0  0
  159.8820  211.7840  152.4280 C   0  0  0  0  0  2  0  0  0  0  0  0
  159.4600  213.9680  151.5330 O   0  0  0  0  0  0  0  0  0  0  0  0
  159.2440  213.6760  150.2680 O   0  0  0  0  0  1  0  0  0  0  0  0
  162.3330  210.5460  154.0880 C   0  0  0  0  0  2  0  0  0  0  0  0
  163.2850  210.7060  155.2590 C   0  0  0  0  0  2  0  0  0  0  0  0
  164.5130  211.3490  154.8220 N   0  0  0  0  0  2  0  0  0  0  0  0
  165.5610  211.8140  155.6850 C   0  0  0  0  0  0  0  0  0  0  0  0
  165.2090  212.0560  157.2600 S   0  0  0  0  0  0  0  0  0  0  0  0
  166.9380  212.0990  155.2390 C   0  0  0  0  0  3  0  0  0  0  0  0
  167.5510  213.2630  155.3990 C   0  0  0  0  0  2  0  0  0  0  0  0
  1  3  1  6  0  0  0
  1  2  1  0  0  0  0
  2 24  1  6  0  0  0
  2 11  1  0  0  0  0
  4  5  1  0  0  0  0
  5  8  1  1  0  0  0
  6 10  1  0  0  0  0
  6  7  1  0  0  0  0
  7  3  1  6  0  0  0
  7  5  1  0  0  0  0
  8 11  1  0  0  0  0
 10  9  1  1  0  0  0
 10  4  1  0  0  0  0
 11 12  1  0  0  0  0
 13 16  1  6  0  0  0
 14 22  1  1  0  0  0
 14 21  1  0  0  0  0
 14 17  1  0  0  0  0
 15 13  1  0  0  0  0
 15 18  1  1  0  0  0
 17 15  1  0  0  0  0
 17 20  1  1  0  0  0
 19 21  1  1  0  0  0
 19  1  1  0  0  0  0
 19 13  1  0  0  0  0
 23 22  1  0  0  0  0
 24 25  1  0  0  0  0
 26 25  1  0  0  0  0
 26 27  1  0  0  0  0
 27 28  2  0  0  0  0
 29 30  2  0  0  0  0
 29 27  1  0  0  0  0
M  END
>  <MODEL>
7

>  <REMARK>
 VINA RESULT:      -2.9     14.012     15.580
  Name = 
  7 active torsions:
  status: ('A' for Active; 'I' for Inactive)
    1  A    between atoms: N_1  and  C_22
    2  A    between atoms: C_3  and  O_11
    3  A    between atoms: C_4  and  C_23
    4  A    between atoms: C_7  and  N_10
    5  A    between atoms: C_7  and  C_15
    6  A    between atoms: N_10  and  C_25
    7  A    between atoms: C_23  and  C_25
                            x       y       z     vdW  Elec       q    Type
                         _______ _______ _______ _____ _____    ______ ____

>  <TORSDO>
F 7

$$$$
=
 OpenBabel11052421463D

 30 32  0  0  1  0  0  0  0  0999 V2000
  159.9440  209.8330  152.6060 N   0  0  2  0  0  0  0  0  0  0  0  0
  160.7990  209.3480  153.7210 C   0  0  1  0  0  3  0  0  0  0  0  0
  160.6710  210.4100  151.4650 C   0  0  0  0  0  2  0  0  0  0  0  0
  161.0100  207.7810  149.7760 O   0  0  0  0  0  0  0  0  0  0  0  0
  161.6860  208.0870  150.9610 C   0  0  1  0  0  3  0  0  0  0  0  0
  162.3480  210.0650  149.3630 S   0  0  0  0  0  0  0  0  0  0  0  0
  161.9030  209.5920  151.0380 C   0  0  1  0  0  3  0  0  0  0  0  0
  160.9740  207.4680  152.1670 C   0  0  0  0  0  2  0  0  0  0  0  0
  162.7020  207.6990  148.2270 O   0  0  0  0  0  1  0  0  0  0  0  0
  161.6740  208.4830  148.7530 C   0  0  1  0  0  3  0  0  0  0  0  0
  161.4520  208.0580  153.4200 N   0  0  0  0  0  0  0  0  0  0  0  0
  161.0670  207.1390  154.4760 C   0  0  0  0  0  1  0  0  0  0  0  0
  158.7580  210.7740  154.5710 C   0  0  1  0  0  3  0  0  0  0  0  0
  157.8030  213.0110  152.8950 C   0  0  2  0  0  3  0  0  0  0  0  0
  157.6030  211.6780  155.0100 C   0  0  2  0  0  3  0  0  0  0  0  0
  158.5550  209.4950  155.0580 F   0  0  0  0  0  0  0  0  0  0  0  0
  157.7340  213.0900  154.4250 C   0  0  1  0  0  3  0  0  0  0  0  0
  157.5300  211.7300  156.4030 O   0  0  0  0  0  1  0  0  0  0  0  0
  158.8620  210.7320  153.0390 C   0  0  1  0  0  3  0  0  0  0  0  0
  158.9310  213.8380  155.0090 C   0  0  0  0  0  1  0  0  0  0  0  0
  158.9720  212.1400  152.4370 C   0  0  0  0  0  2  0  0  0  0  0  0
  157.9090  214.2870  152.3370 O   0  0  0  0  0  0  0  0  0  0  0  0
  158.0560  214.0730  151.0460 O   0  0  0  0  0  1  0  0  0  0  0  0
  161.8470  210.3690  154.1710 C   0  0  0  0  0  2  0  0  0  0  0  0
  161.2020  211.4570  155.0100 C   0  0  0  0  0  2  0  0  0  0  0  0
  161.4240  211.1980  156.4240 N   0  0  0  0  0  2  0  0  0  0  0  0
  162.4730  210.3820  156.9640 C   0  0  0  0  0  0  0  0  0  0  0  0
  163.9170  211.0810  157.2610 S   0  0  0  0  0  0  0  0  0  0  0  0
  162.3360  208.9430  157.2610 C   0  0  0  0  0  3  0  0  0  0  0  0
  161.1850  208.2850  157.2610 C   0  0  0  0  0  2  0  0  0  0  0  0
  1  3  1  6  0  0  0
  1 19  1  0  0  0  0
  1  2  1  0  0  0  0
  2 24  1  6  0  0  0
  4  5  1  0  0  0  0
  5  7  1  0  0  0  0
  5  8  1  1  0  0  0
  6  7  1  0  0  0  0
  7  3  1  6  0  0  0
  8 11  1  0  0  0  0
 10  9  1  1  0  0  0
 10  6  1  0  0  0  0
 10  4  1  0  0  0  0
 11  2  1  0  0  0  0
 11 12  1  0  0  0  0
 13 15  1  0  0  0  0
 13 16  1  6  0  0  0
 14 22  1  6  0  0  0
 14 17  1  0  0  0  0
 15 18  1  1  0  0  0
 17 20  1  1  0  0  0
 17 15  1  0  0  0  0
 19 21  1  1  0  0  0
 19 13  1  0  0  0  0
 21 14  1  0  0  0  0
 23 22  1  0  0  0  0
 24 25  1  0  0  0  0
 25 26  1  0  0  0  0
 26 27  1  0  0  0  0
 27 28  2  0  0  0  0
 27 29  1  0  0  0  0
 29 30  2  0  0  0  0
M  END
>  <MODEL>
8

>  <REMARK>
 VINA RESULT:      -2.9     13.600     15.520
  Name = 
  7 active torsions:
  status: ('A' for Active; 'I' for Inactive)
    1  A    between atoms: N_1  and  C_22
    2  A    between atoms: C_3  and  O_11
    3  A    between atoms: C_4  and  C_23
    4  A    between atoms: C_7  and  N_10
    5  A    between atoms: C_7  and  C_15
    6  A    between atoms: N_10  and  C_25
    7  A    between atoms: C_23  and  C_25
                            x       y       z     vdW  Elec       q    Type
                         _______ _______ _______ _____ _____    ______ ____

>  <TORSDO>
F 7

$$$$
=
 OpenBabel11052421463D

 30 32  0  0  1  0  0  0  0  0999 V2000
  160.3660  212.0350  152.3690 N   0  0  2  0  0  0  0  0  0  0  0  0
  161.0130  210.7500  152.7410 C   0  0  1  0  0  3  0  0  0  0  0  0
  158.8970  212.0350  152.4230 C   0  0  0  0  0  2  0  0  0  0  0  0
  158.5560  212.9730  155.4030 O   0  0  0  0  0  0  0  0  0  0  0  0
  159.0080  211.7170  154.9850 C   0  0  1  0  0  3  0  0  0  0  0  0
  156.6240  211.8940  153.8930 S   0  0  0  0  0  0  0  0  0  0  0  0
  158.3220  211.3510  153.6750 C   0  0  1  0  0  3  0  0  0  0  0  0
  160.5370  211.6720  154.9550 C   0  0  0  0  0  2  0  0  0  0  0  0
  156.5870  212.4790  156.4760 O   0  0  0  0  0  1  0  0  0  0  0  0
  157.1540  212.9440  155.2880 C   0  0  1  0  0  3  0  0  0  0  0  0
  161.0150  210.5130  154.1990 N   0  0  0  0  0  0  0  0  0  0  0  0
  162.4000  210.3160  154.5870 C   0  0  0  0  0  1  0  0  0  0  0  0
  161.5840  211.5220  150.2700 C   0  0  1  0  0  3  0  0  0  0  0  0
  160.2820  213.8360  148.9760 C   0  0  2  0  0  3  0  0  0  0  0  0
  162.1070  212.1160  148.9600 C   0  0  2  0  0  3  0  0  0  0  0  0
  162.6440  211.0260  151.0080 F   0  0  0  0  0  0  0  0  0  0  0  0
  160.9820  212.7570  148.1390 C   0  0  1  0  0  3  0  0  0  0  0  0
  162.7630  211.1370  148.2110 O   0  0  0  0  0  1  0  0  0  0  0  0
  160.8390  212.5860  151.0890 C   0  0  1  0  0  3  0  0  0  0  0  0
  159.9950  211.7150  147.6160 C   0  0  0  0  0  1  0  0  0  0  0  0
  159.7220  213.2530  150.2720 C   0  0  0  0  0  2  0  0  0  0  0  0
  159.2600  214.4450  148.2440 O   0  0  0  0  0  0  0  0  0  0  0  0
  158.1690  214.2150  148.9440 O   0  0  0  0  0  1  0  0  0  0  0  0
  160.4180  209.5390  152.0170 C   0  0  0  0  0  2  0  0  0  0  0  0
  161.0600  208.2560  152.5130 C   0  0  0  0  0  2  0  0  0  0  0  0
  161.9160  207.6930  151.4810 N   0  0  0  0  0  2  0  0  0  0  0  0
  161.4600  207.0110  150.3040 C   0  0  0  0  0  0  0  0  0  0  0  0
  161.6090  207.7690  148.8670 S   0  0  0  0  0  0  0  0  0  0  0  0
  160.8520  205.6660  150.3080 C   0  0  0  0  0  3  0  0  0  0  0  0
  161.2030  204.6830  149.4900 C   0  0  0  0  0  2  0  0  0  0  0  0
  1  3  1  6  0  0  0
  1  2  1  0  0  0  0
  2 24  1  6  0  0  0
  2 11  1  0  0  0  0
  5  8  1  6  0  0  0
  5  4  1  0  0  0  0
  6 10  1  0  0  0  0
  7  3  1  6  0  0  0
  7  6  1  0  0  0  0
  7  5  1  0  0  0  0
 10  4  1  0  0  0  0
 10  9  1  1  0  0  0
 11 12  1  0  0  0  0
 11  8  1  0  0  0  0
 13 16  1  1  0  0  0
 13 19  1  0  0  0  0
 14 22  1  6  0  0  0
 14 21  1  0  0  0  0
 15 18  1  6  0  0  0
 15 13  1  0  0  0  0
 17 20  1  1  0  0  0
 17 15  1  0  0  0  0
 17 14  1  0  0  0  0
 19 21  1  6  0  0  0
 19  1  1  0  0  0  0
 22 23  1  0  0  0  0
 24 25  1  0  0  0  0
 26 25  1  0  0  0  0
 27 29  1  0  0  0  0
 27 26  1  0  0  0  0
 28 27  2  0  0  0  0
 30 29  2  0  0  0  0
M  END
>  <MODEL>
9

>  <REMARK>
 VINA RESULT:      -2.6     12.038     14.396
  Name = 
  7 active torsions:
  status: ('A' for Active; 'I' for Inactive)
    1  A    between atoms: N_1  and  C_22
    2  A    between atoms: C_3  and  O_11
    3  A    between atoms: C_4  and  C_23
    4  A    between atoms: C_7  and  N_10
    5  A    between atoms: C_7  and  C_15
    6  A    between atoms: N_10  and  C_25
    7  A    between atoms: C_23  and  C_25
                            x       y       z     vdW  Elec       q    Type
                         _______ _______ _______ _____ _____    ______ ____

>  <TORSDO>
F 7

$$$$
