=
 OpenBabel11052422323D

 31 36  0  0  1  0  0  0  0  0999 V2000
  161.1730  207.6980  154.7350 C   0  0  1  0  0  3  0  0  0  0  0  0
  161.1580  207.4880  150.8670 C   0  0  1  0  0  3  0  0  0  0  0  0
  161.3650  206.0130  150.5780 C   0  0  0  0  0  0  0  0  0  0  0  0
  161.2390  203.9660  151.9660 C   0  0  0  0  0  3  0  0  0  0  0  0
  161.5840  207.9420  152.2750 C   0  0  2  0  0  3  0  0  0  0  0  0
  161.0620  209.2130  154.8780 C   0  0  0  0  0  2  0  0  0  0  0  0
  162.0770  205.1300  151.5600 C   0  0  0  0  0  2  0  0  0  0  0  0
  161.7360  209.8040  149.9690 C   0  0  2  0  0  3  0  0  0  0  0  0
  160.3420  207.0540  155.7350 N   0  0  0  0  0  1  0  0  0  0  0  0
  160.5730  206.5620  148.3180 C   0  0  0  0  0  2  0  0  0  0  0  0
  160.8390  203.0340  151.1040 C   0  0  0  0  0  3  0  0  0  0  0  0
  162.2450  210.1830  151.3550 C   0  0  0  0  0  2  0  0  0  0  0  0
  161.8630  208.2930  149.7550 C   0  0  2  0  0  3  0  0  0  0  0  0
  160.7210  207.2660  153.3430 C   0  0  0  0  0  2  0  0  0  0  0  0
  161.0900  203.0710  149.6510 C   0  0  0  0  0  3  0  0  0  0  0  0
  161.4330  209.4640  152.4190 C   0  0  2  0  0  3  0  0  0  0  0  0
  161.8930  209.9090  153.8030 C   0  0  0  0  0  2  0  0  0  0  0  0
  161.3540  207.8870  148.3550 C   0  0  0  0  0  2  0  0  0  0  0  0
  161.0700  205.5740  149.3370 C   0  0  0  0  0  0  0  0  0  0  0  0
  161.1960  204.1690  148.8930 C   0  0  0  0  0  3  0  0  0  0  0  0
  162.7110  210.7180  148.7300 S   0  0  0  0  0  0  0  0  0  0  0  0
  157.3260  214.0070  146.1640 C   0  0  0  0  0  2  0  0  0  0  0  0
  159.7440  212.5890  146.7730 C   0  0  0  0  0  0  0  0  0  0  0  0
  159.8110  213.5470  148.9930 C   0  0  0  0  0  3  0  0  0  0  0  0
  160.8780  212.7060  149.3080 C   0  0  0  0  0  3  0  0  0  0  0  0
  158.2780  213.6560  145.0300 C   0  0  0  0  0  2  0  0  0  0  0  0
  161.3510  211.8120  148.3440 C   0  0  0  0  0  0  0  0  0  0  0  0
  159.1120  212.4360  145.4180 C   0  0  0  0  0  2  0  0  0  0  0  0
  159.2210  213.4860  147.7290 C   0  0  0  0  0  0  0  0  0  0  0  0
  160.7790  211.7720  147.1120 N   0  0  0  0  0  0  0  0  0  0  0  0
  158.1230  214.4530  147.3870 C   0  0  0  0  0  2  0  0  0  0  0  0
  1  6  1  0  0  0  0
  1  9  1  1  0  0  0
  2  3  1  6  0  0  0
  2  5  1  0  0  0  0
  3  7  1  0  0  0  0
  5 16  1  0  0  0  0
  5 14  1  1  0  0  0
  7  4  1  0  0  0  0
  8 21  1  6  0  0  0
  8 12  1  0  0  0  0
 10 18  1  0  0  0  0
 10 19  1  0  0  0  0
 11  4  2  0  0  0  0
 13 18  1  6  0  0  0
 13  8  1  0  0  0  0
 13  2  1  0  0  0  0
 14  1  1  0  0  0  0
 15 11  1  0  0  0  0
 16 12  1  6  0  0  0
 16 17  1  0  0  0  0
 17  6  1  0  0  0  0
 19  3  2  0  0  0  0
 20 19  1  0  0  0  0
 20 15  2  0  0  0  0
 22 31  1  0  0  0  0
 23 30  2  0  0  0  0
 23 29  1  0  0  0  0
 24 25  1  0  0  0  0
 26 28  1  0  0  0  0
 26 22  1  0  0  0  0
 27 21  1  0  0  0  0
 27 25  2  0  0  0  0
 28 23  1  0  0  0  0
 29 24  2  0  0  0  0
 30 27  1  0  0  0  0
 31 29  1  0  0  0  0
M  END
>  <MODEL>
1

>  <REMARK>
 VINA RESULT:     -10.1      0.000      0.000
  Name = 
  2 active torsions:
  status: ('A' for Active; 'I' for Inactive)
    1  A    between atoms: C_9  and  S_23
    2  A    between atoms: C_15  and  S_23
                            x       y       z     vdW  Elec       q    Type
                         _______ _______ _______ _____ _____    ______ ____

>  <TORSDO>
F 2

$$$$
=
 OpenBabel11052422323D

 31 36  0  0  1  0  0  0  0  0999 V2000
  160.8400  202.1570  150.7840 C   0  0  1  0  0  3  0  0  0  0  0  0
  161.0530  205.5700  148.9640 C   0  0  1  0  0  3  0  0  0  0  0  0
  161.3910  205.2020  147.5310 C   0  0  0  0  0  0  0  0  0  0  0  0
  161.3490  203.0800  146.2570 C   0  0  0  0  0  3  0  0  0  0  0  0
  161.3650  204.4810  150.0060 C   0  0  2  0  0  3  0  0  0  0  0  0
  160.6030  202.6720  152.2000 C   0  0  0  0  0  2  0  0  0  0  0  0
  162.1150  203.9260  147.2160 C   0  0  0  0  0  2  0  0  0  0  0  0
  161.4980  207.3560  150.7300 C   0  0  2  0  0  3  0  0  0  0  0  0
  160.0080  200.9930  150.5460 N   0  0  0  0  0  1  0  0  0  0  0  0
  160.6840  207.4940  147.0000 C   0  0  0  0  0  2  0  0  0  0  0  0
  161.0710  203.4710  145.0160 C   0  0  0  0  0  3  0  0  0  0  0  0
  161.8990  206.2540  151.7020 C   0  0  0  0  0  2  0  0  0  0  0  0
  161.7540  206.9060  149.2880 C   0  0  2  0  0  3  0  0  0  0  0  0
  160.5000  203.2420  149.7650 C   0  0  0  0  0  2  0  0  0  0  0  0
  161.3980  204.7980  144.4600 C   0  0  0  0  0  3  0  0  0  0  0  0
  161.0880  204.9990  151.4260 C   0  0  2  0  0  3  0  0  0  0  0  0
  161.4360  203.9270  152.4540 C   0  0  0  0  0  2  0  0  0  0  0  0
  161.3560  208.0100  148.2840 C   0  0  0  0  0  2  0  0  0  0  0  0
  161.2000  206.1440  146.5850 C   0  0  0  0  0  0  0  0  0  0  0  0
  161.4590  205.9480  145.1420 C   0  0  0  0  0  3  0  0  0  0  0  0
  162.4660  208.8490  151.1240 S   0  0  0  0  0  0  0  0  0  0  0  0
  157.4530  211.3890  154.9760 C   0  0  0  0  0  2  0  0  0  0  0  0
  159.5670  210.7660  153.1390 C   0  0  0  0  0  0  0  0  0  0  0  0
  160.4550  209.0930  154.6430 C   0  0  0  0  0  3  0  0  0  0  0  0
  161.3530  208.6990  153.6510 C   0  0  0  0  0  3  0  0  0  0  0  0
  157.9530  212.4750  154.0340 C   0  0  0  0  0  2  0  0  0  0  0  0
  161.3310  209.3460  152.4130 C   0  0  0  0  0  0  0  0  0  0  0  0
  158.5680  211.8350  152.7910 C   0  0  0  0  0  2  0  0  0  0  0  0
  159.5420  210.1190  154.3920 C   0  0  0  0  0  0  0  0  0  0  0  0
  160.4460  210.3530  152.1860 N   0  0  0  0  0  0  0  0  0  0  0  0
  158.6350  210.5780  155.5000 C   0  0  0  0  0  2  0  0  0  0  0  0
  1  9  1  6  0  0  0
  1  6  1  0  0  0  0
  2  3  1  6  0  0  0
  2 13  1  0  0  0  0
  2  5  1  0  0  0  0
  4  7  1  0  0  0  0
  5 14  1  6  0  0  0
  5 16  1  0  0  0  0
  6 17  1  0  0  0  0
  7  3  1  0  0  0  0
  8 21  1  1  0  0  0
  8 12  1  0  0  0  0
 10 18  1  0  0  0  0
 11  4  2  0  0  0  0
 13 18  1  6  0  0  0
 13  8  1  0  0  0  0
 14  1  1  0  0  0  0
 15 11  1  0  0  0  0
 15 20  2  0  0  0  0
 16 12  1  1  0  0  0
 16 17  1  0  0  0  0
 19 10  1  0  0  0  0
 19  3  2  0  0  0  0
 20 19  1  0  0  0  0
 21 27  1  0  0  0  0
 22 31  1  0  0  0  0
 23 29  1  0  0  0  0
 25 24  1  0  0  0  0
 26 22  1  0  0  0  0
 27 25  2  0  0  0  0
 28 23  1  0  0  0  0
 28 26  1  0  0  0  0
 29 24  2  0  0  0  0
 29 31  1  0  0  0  0
 30 27  1  0  0  0  0
 30 23  2  0  0  0  0
M  END
>  <MODEL>
2

>  <REMARK>
 VINA RESULT:      -9.1      3.397      5.697
  Name = 
  2 active torsions:
  status: ('A' for Active; 'I' for Inactive)
    1  A    between atoms: C_9  and  S_23
    2  A    between atoms: C_15  and  S_23
                            x       y       z     vdW  Elec       q    Type
                         _______ _______ _______ _____ _____    ______ ____

>  <TORSDO>
F 2

$$$$
=
 OpenBabel11052422323D

 31 36  0  0  1  0  0  0  0  0999 V2000
  161.8790  209.8910  149.2360 C   0  0  1  0  0  3  0  0  0  0  0  0
  161.5570  206.6390  151.3170 C   0  0  1  0  0  3  0  0  0  0  0  0
  161.1540  205.5890  150.2980 C   0  0  0  0  0  0  0  0  0  0  0  0
  161.1500  205.5240  147.8230 C   0  0  0  0  0  3  0  0  0  0  0  0
  161.3020  208.0950  150.8860 C   0  0  2  0  0  3  0  0  0  0  0  0
  162.1790  210.8590  150.3770 C   0  0  0  0  0  2  0  0  0  0  0  0
  160.4250  205.9750  149.0440 C   0  0  0  0  0  2  0  0  0  0  0  0
  161.1850  207.3160  153.7470 C   0  0  2  0  0  3  0  0  0  0  0  0
  162.7060  210.2200  148.0900 N   0  0  0  0  0  1  0  0  0  0  0  0
  161.8210  203.9690  152.0200 C   0  0  0  0  0  2  0  0  0  0  0  0
  161.3670  204.2400  147.5480 C   0  0  0  0  0  3  0  0  0  0  0  0
  160.8380  208.7210  153.2730 C   0  0  0  0  0  2  0  0  0  0  0  0
  160.8640  206.2940  152.6520 C   0  0  2  0  0  3  0  0  0  0  0  0
  162.1630  208.4570  149.6730 C   0  0  0  0  0  2  0  0  0  0  0  0
  161.0050  203.1180  148.4360 C   0  0  0  0  0  3  0  0  0  0  0  0
  161.6430  209.0620  152.0310 C   0  0  2  0  0  3  0  0  0  0  0  0
  161.3510  210.4990  151.6080 C   0  0  0  0  0  2  0  0  0  0  0  0
  161.2070  204.8610  153.1120 C   0  0  0  0  0  2  0  0  0  0  0  0
  161.2950  204.2950  150.6490 C   0  0  0  0  0  0  0  0  0  0  0  0
  160.9690  203.1480  149.7730 C   0  0  0  0  0  3  0  0  0  0  0  0
  160.2280  206.9670  155.2580 S   0  0  0  0  0  0  0  0  0  0  0  0
  159.1000  213.3800  157.2610 C   0  0  0  0  0  2  0  0  0  0  0  0
  159.2210  210.7670  156.0810 C   0  0  0  0  0  0  0  0  0  0  0  0
  161.5260  210.5060  156.7650 C   0  0  0  0  0  3  0  0  0  0  0  0
  161.4860  209.1780  156.3400 C   0  0  0  0  0  3  0  0  0  0  0  0
  158.2090  213.0700  156.0660 C   0  0  0  0  0  2  0  0  0  0  0  0
  160.3030  208.6690  155.8000 C   0  0  0  0  0  0  0  0  0  0  0  0
  157.9500  211.5670  155.9940 C   0  0  0  0  0  2  0  0  0  0  0  0
  160.3900  211.3100  156.6560 C   0  0  0  0  0  0  0  0  0  0  0  0
  159.2070  209.4660  155.6860 N   0  0  0  0  0  0  0  0  0  0  0  0
  160.4770  212.7580  157.0510 C   0  0  0  0  0  2  0  0  0  0  0  0
  1  9  1  6  0  0  0
  1 14  1  0  0  0  0
  1  6  1  0  0  0  0
  2  3  1  6  0  0  0
  2 13  1  0  0  0  0
  3 19  2  0  0  0  0
  4  7  1  0  0  0  0
  5 14  1  6  0  0  0
  5  2  1  0  0  0  0
  5 16  1  0  0  0  0
  6 17  1  0  0  0  0
  7  3  1  0  0  0  0
  8 21  1  1  0  0  0
 10 18  1  0  0  0  0
 11  4  2  0  0  0  0
 11 15  1  0  0  0  0
 12  8  1  0  0  0  0
 13 18  1  1  0  0  0
 13  8  1  0  0  0  0
 15 20  2  0  0  0  0
 16 17  1  6  0  0  0
 16 12  1  0  0  0  0
 19 10  1  0  0  0  0
 20 19  1  0  0  0  0
 21 27  1  0  0  0  0
 23 29  1  0  0  0  0
 25 24  1  0  0  0  0
 26 22  1  0  0  0  0
 27 25  2  0  0  0  0
 28 26  1  0  0  0  0
 28 23  1  0  0  0  0
 29 24  2  0  0  0  0
 29 31  1  0  0  0  0
 30 27  1  0  0  0  0
 30 23  2  0  0  0  0
 31 22  1  0  0  0  0
M  END
>  <MODEL>
3

>  <REMARK>
 VINA RESULT:      -9.1      3.220      6.457
  Name = 
  2 active torsions:
  status: ('A' for Active; 'I' for Inactive)
    1  A    between atoms: C_9  and  S_23
    2  A    between atoms: C_15  and  S_23
                            x       y       z     vdW  Elec       q    Type
                         _______ _______ _______ _____ _____    ______ ____

>  <TORSDO>
F 2

$$$$
=
 OpenBabel11052422323D

 31 36  0  0  1  0  0  0  0  0999 V2000
  160.9430  202.1630  150.8410 C   0  0  1  0  0  3  0  0  0  0  0  0
  161.0050  205.4980  148.8710 C   0  0  1  0  0  3  0  0  0  0  0  0
  161.3210  205.0780  147.4470 C   0  0  0  0  0  0  0  0  0  0  0  0
  161.3170  202.9010  146.2670 C   0  0  0  0  0  3  0  0  0  0  0  0
  161.3760  204.4660  149.9510 C   0  0  2  0  0  3  0  0  0  0  0  0
  160.7230  202.7320  152.2390 C   0  0  0  0  0  2  0  0  0  0  0  0
  162.0780  203.8130  147.1690 C   0  0  0  0  0  2  0  0  0  0  0  0
  161.4330  207.3730  150.5460 C   0  0  2  0  0  3  0  0  0  0  0  0
  160.1430  200.9640  150.6740 N   0  0  0  0  0  1  0  0  0  0  0  0
  160.5290  207.3220  146.8350 C   0  0  0  0  0  2  0  0  0  0  0  0
  160.9980  203.2290  145.0180 C   0  0  0  0  0  3  0  0  0  0  0  0
  161.8910  206.3270  151.5550 C   0  0  0  0  0  2  0  0  0  0  0  0
  161.6690  206.8680  149.1190 C   0  0  2  0  0  3  0  0  0  0  0  0
  160.5450  203.1910  149.7850 C   0  0  0  0  0  2  0  0  0  0  0  0
  161.2690  204.5400  144.3970 C   0  0  0  0  0  3  0  0  0  0  0  0
  161.1150  205.0370  151.3530 C   0  0  2  0  0  3  0  0  0  0  0  0
  161.5200  204.0220  152.4170 C   0  0  0  0  0  2  0  0  0  0  0  0
  161.2130  207.9140  148.0790 C   0  0  0  0  0  2  0  0  0  0  0  0
  161.0780  205.9710  146.4660 C   0  0  0  0  0  0  0  0  0  0  0  0
  161.3100  205.7200  145.0270 C   0  0  0  0  0  3  0  0  0  0  0  0
  162.3610  208.9110  150.8520 S   0  0  0  0  0  0  0  0  0  0  0  0
  159.8920  209.5320  157.1710 C   0  0  0  0  0  2  0  0  0  0  0  0
  161.0160  208.7980  154.6350 C   0  0  0  0  0  0  0  0  0  0  0  0
  159.7670  210.5420  153.5160 C   0  0  0  0  0  3  0  0  0  0  0  0
  160.4700  210.2700  152.3420 C   0  0  0  0  0  3  0  0  0  0  0  0
  160.3130  208.0870  156.9430 C   0  0  0  0  0  2  0  0  0  0  0  0
  161.4420  209.2680  152.3440 C   0  0  0  0  0  0  0  0  0  0  0  0
  161.3980  208.0310  155.8700 C   0  0  0  0  0  2  0  0  0  0  0  0
  160.0440  209.8210  154.6790 C   0  0  0  0  0  0  0  0  0  0  0  0
  161.6930  208.5630  153.4790 N   0  0  0  0  0  0  0  0  0  0  0  0
  159.2240  210.0780  155.9120 C   0  0  0  0  0  2  0  0  0  0  0  0
  1  9  1  1  0  0  0
  1  6  1  0  0  0  0
  2  3  1  6  0  0  0
  2 13  1  0  0  0  0
  2  5  1  0  0  0  0
  4  7  1  0  0  0  0
  5 14  1  6  0  0  0
  5 16  1  0  0  0  0
  6 17  1  0  0  0  0
  7  3  1  0  0  0  0
  8 21  1  1  0  0  0
  8 12  1  0  0  0  0
 10 18  1  0  0  0  0
 11  4  2  0  0  0  0
 13 18  1  6  0  0  0
 13  8  1  0  0  0  0
 14  1  1  0  0  0  0
 15 11  1  0  0  0  0
 15 20  2  0  0  0  0
 16 12  1  1  0  0  0
 16 17  1  0  0  0  0
 19 10  1  0  0  0  0
 19  3  2  0  0  0  0
 20 19  1  0  0  0  0
 21 27  1  0  0  0  0
 23 29  1  0  0  0  0
 23 28  1  0  0  0  0
 24 29  2  0  0  0  0
 25 27  2  0  0  0  0
 25 24  1  0  0  0  0
 26 22  1  0  0  0  0
 27 30  1  0  0  0  0
 28 26  1  0  0  0  0
 29 31  1  0  0  0  0
 30 23  2  0  0  0  0
 31 22  1  0  0  0  0
M  END
>  <MODEL>
4

>  <REMARK>
 VINA RESULT:      -9.0      3.545      6.409
  Name = 
  2 active torsions:
  status: ('A' for Active; 'I' for Inactive)
    1  A    between atoms: C_9  and  S_23
    2  A    between atoms: C_15  and  S_23
                            x       y       z     vdW  Elec       q    Type
                         _______ _______ _______ _____ _____    ______ ____

>  <TORSDO>
F 2

$$$$
=
 OpenBabel11052422323D

 31 36  0  0  1  0  0  0  0  0999 V2000
  162.0220  210.5130  150.0160 C   0  0  1  0  0  3  0  0  0  0  0  0
  160.9000  208.1140  152.8430 C   0  0  1  0  0  3  0  0  0  0  0  0
  161.0680  208.9350  154.1090 C   0  0  0  0  0  0  0  0  0  0  0  0
  161.4190  211.3460  154.5480 C   0  0  0  0  0  3  0  0  0  0  0  0
  161.6980  208.6220  151.6290 C   0  0  2  0  0  3  0  0  0  0  0  0
  161.9040  209.5460  148.8410 C   0  0  0  0  0  2  0  0  0  0  0  0
  162.0630  210.0550  154.1720 C   0  0  0  0  0  2  0  0  0  0  0  0
  161.1130  205.7310  151.9600 C   0  0  2  0  0  3  0  0  0  0  0  0
  161.5370  211.8210  149.6180 N   0  0  0  0  0  1  0  0  0  0  0  0
  159.6390  207.2280  155.1500 C   0  0  0  0  0  2  0  0  0  0  0  0
  160.8210  211.5350  155.7220 C   0  0  0  0  0  3  0  0  0  0  0  0
  161.9860  206.2600  150.8280 C   0  0  0  0  0  2  0  0  0  0  0  0
  161.2260  206.6450  153.1840 C   0  0  2  0  0  3  0  0  0  0  0  0
  161.2030  210.0060  151.2000 C   0  0  0  0  0  2  0  0  0  0  0  0
  160.6410  210.4940  156.7510 C   0  0  0  0  0  3  0  0  0  0  0  0
  161.5410  207.6600  150.4410 C   0  0  2  0  0  3  0  0  0  0  0  0
  162.3650  208.1510  149.2550 C   0  0  0  0  0  2  0  0  0  0  0  0
  160.3500  206.1270  154.3450 C   0  0  0  0  0  2  0  0  0  0  0  0
  160.4430  208.4970  155.2220 C   0  0  0  0  0  0  0  0  0  0  0  0
  160.4860  209.1830  156.5320 C   0  0  0  0  0  3  0  0  0  0  0  0
  161.6570  204.0390  152.3620 S   0  0  0  0  0  0  0  0  0  0  0  0
  161.2670  202.8880  145.6580 C   0  0  0  0  0  2  0  0  0  0  0  0
  161.3720  203.8500  148.3600 C   0  0  0  0  0  0  0  0  0  0  0  0
  160.5790  201.7260  149.2040 C   0  0  0  0  0  3  0  0  0  0  0  0
  160.8160  202.1720  150.5040 C   0  0  0  0  0  3  0  0  0  0  0  0
  161.0780  204.3760  145.9180 C   0  0  0  0  0  2  0  0  0  0  0  0
  161.3370  203.4520  150.7030 C   0  0  0  0  0  0  0  0  0  0  0  0
  161.7610  204.7610  147.2280 C   0  0  0  0  0  2  0  0  0  0  0  0
  160.8700  202.5530  148.1170 C   0  0  0  0  0  0  0  0  0  0  0  0
  161.6030  204.2540  149.6380 N   0  0  0  0  0  0  0  0  0  0  0  0
  160.5380  202.0820  146.7290 C   0  0  0  0  0  2  0  0  0  0  0  0
  1  9  1  6  0  0  0
  1 14  1  0  0  0  0
  2 13  1  0  0  0  0
  2  3  1  1  0  0  0
  3  7  1  0  0  0  0
  3 19  2  0  0  0  0
  4 11  2  0  0  0  0
  5 14  1  6  0  0  0
  5  2  1  0  0  0  0
  6 17  1  0  0  0  0
  6  1  1  0  0  0  0
  7  4  1  0  0  0  0
  8 21  1  1  0  0  0
  8 13  1  0  0  0  0
 10 19  1  0  0  0  0
 11 15  1  0  0  0  0
 12  8  1  0  0  0  0
 13 18  1  1  0  0  0
 16 17  1  6  0  0  0
 16 12  1  0  0  0  0
 16  5  1  0  0  0  0
 18 10  1  0  0  0  0
 19 20  1  0  0  0  0
 20 15  2  0  0  0  0
 22 26  1  0  0  0  0
 22 31  1  0  0  0  0
 23 30  1  0  0  0  0
 24 25  2  0  0  0  0
 25 27  1  0  0  0  0
 26 28  1  0  0  0  0
 27 21  1  0  0  0  0
 28 23  1  0  0  0  0
 29 23  2  0  0  0  0
 29 24  1  0  0  0  0
 30 27  2  0  0  0  0
 31 29  1  0  0  0  0
M  END
>  <MODEL>
5

>  <REMARK>
 VINA RESULT:      -8.0      3.419      7.778
  Name = 
  2 active torsions:
  status: ('A' for Active; 'I' for Inactive)
    1  A    between atoms: C_9  and  S_23
    2  A    between atoms: C_15  and  S_23
                            x       y       z     vdW  Elec       q    Type
                         _______ _______ _______ _____ _____    ______ ____

>  <TORSDO>
F 2

$$$$
