=
 OpenBabel11052423083D

 27 31  0  0  1  0  0  0  0  0999 V2000
  158.5180  212.9570  154.5730 C   0  0  2  0  0  0  0  0  0  0  0  0
  159.1560  212.9240  152.0920 C   0  0  2  0  0  3  0  0  0  0  0  0
  156.8250  213.5490  152.8300 O   0  0  0  0  0  0  0  0  0  0  0  0
  158.4610  214.2210  148.3100 C   0  0  0  0  0  3  0  0  0  0  0  0
  156.8860  214.4530  146.4020 C   0  0  0  0  0  1  0  0  0  0  0  0
  160.2650  213.4260  151.2790 N   0  0  0  0  0  0  0  0  0  0  0  0
  156.3490  213.5030  150.0570 C   0  0  0  0  0  2  0  0  0  0  0  0
  155.2210  211.2630  154.6150 C   0  0  0  0  0  1  0  0  0  0  0  0
  155.9530  214.1180  148.7100 C   0  0  0  0  0  2  0  0  0  0  0  0
  156.3660  212.6400  156.3580 C   0  0  0  0  0  2  0  0  0  0  0  0
  157.9560  213.9010  152.0400 C   0  0  2  0  0  3  0  0  0  0  0  0
  159.6300  212.6710  153.5310 C   0  0  2  0  0  3  0  0  0  0  0  0
  157.1120  214.2470  147.8190 N   0  0  0  0  0  0  0  0  0  0  0  0
  158.7030  214.1730  149.6200 C   0  0  0  0  0  0  0  0  0  0  0  0
  158.6240  214.4200  154.9970 C   0  0  0  0  0  1  0  0  0  0  0  0
  157.5550  214.2650  150.5970 C   0  0  1  0  0  3  0  0  0  0  0  0
  155.9590  212.5610  154.8790 C   0  0  1  0  0  3  0  0  0  0  0  0
  160.0700  213.9620  150.1120 C   0  0  0  0  0  3  0  0  0  0  0  0
  157.6220  211.9610  156.6060 N   0  0  0  0  0  0  0  0  0  0  0  0
  158.6310  212.1070  155.8170 C   0  0  0  0  0  3  0  0  0  0  0  0
  157.1460  212.6810  153.9060 C   0  0  2  0  0  3  0  0  0  0  0  0
  161.4240  208.8070  153.8310 N   0  0  0  0  0  0  0  0  0  0  0  0
  160.2560  211.3040  153.6220 C   0  0  0  0  0  0  0  0  0  0  0  0
  159.8720  210.2710  152.7570 C   0  0  0  0  0  3  0  0  0  0  0  0
  160.4750  209.0170  152.8800 C   0  0  0  0  0  3  0  0  0  0  0  0
  161.8100  209.7960  154.6820 C   0  0  0  0  0  3  0  0  0  0  0  0
  161.2320  211.0640  154.5920 C   0  0  0  0  0  3  0  0  0  0  0  0
  1 15  1  1  0  0  0
  1 20  1  0  0  0  0
  2  6  1  6  0  0  0
  2 12  1  0  0  0  0
  4 14  2  0  0  0  0
  5 13  1  0  0  0  0
  9  7  1  0  0  0  0
 10 19  1  0  0  0  0
 11  2  1  0  0  0  0
 11  3  1  6  0  0  0
 12 23  1  6  0  0  0
 12  1  1  0  0  0  0
 13  4  1  0  0  0  0
 13  9  1  0  0  0  0
 14 18  1  0  0  0  0
 14 16  1  0  0  0  0
 16  7  1  6  0  0  0
 16 11  1  0  0  0  0
 17  8  1  1  0  0  0
 17 10  1  0  0  0  0
 18  6  2  0  0  0  0
 20 19  2  0  0  0  0
 21  3  1  6  0  0  0
 21  1  1  0  0  0  0
 21 17  1  0  0  0  0
 22 26  1  0  0  0  0
 23 27  1  0  0  0  0
 24 25  1  0  0  0  0
 24 23  2  0  0  0  0
 25 22  2  0  0  0  0
 27 26  2  0  0  0  0
M  END
>  <MODEL>
1

>  <REMARK>
 VINA RESULT:      -4.4      0.000      0.000
  Name = 
  1 active torsions:
  status: ('A' for Active; 'I' for Inactive)
    1  A    between atoms: C_9  and  C_15
                            x       y       z     vdW  Elec       q    Type
                         _______ _______ _______ _____ _____    ______ ____

>  <TORSDO>
F 1

$$$$
=
 OpenBabel11052423083D

 27 31  0  0  1  0  0  0  0  0999 V2000
  159.1070  212.2840  154.7910 C   0  0  2  0  0  0  0  0  0  0  0  0
  159.2190  209.7270  154.9250 C   0  0  2  0  0  3  0  0  0  0  0  0
  160.2560  210.9770  152.9940 O   0  0  0  0  0  0  0  0  0  0  0  0
  161.0640  206.2710  153.8680 C   0  0  0  0  0  3  0  0  0  0  0  0
  161.8570  204.7540  152.0660 C   0  0  0  0  0  1  0  0  0  0  0  0
  159.5520  208.7360  155.9500 N   0  0  0  0  0  0  0  0  0  0  0  0
  160.6360  208.3680  152.0110 C   0  0  0  0  0  2  0  0  0  0  0  0
  158.1940  212.8980  151.2510 C   0  0  0  0  0  1  0  0  0  0  0  0
  161.4740  207.1780  151.5290 C   0  0  0  0  0  2  0  0  0  0  0  0
  159.0730  214.4530  152.9980 C   0  0  0  0  0  2  0  0  0  0  0  0
  160.4370  209.9940  154.0080 C   0  0  2  0  0  3  0  0  0  0  0  0
  158.7030  211.0160  155.5850 C   0  0  2  0  0  3  0  0  0  0  0  0
  161.4450  206.0760  152.4970 N   0  0  0  0  0  0  0  0  0  0  0  0
  160.8120  207.4960  154.3310 C   0  0  0  0  0  0  0  0  0  0  0  0
  160.4510  212.7740  155.3220 C   0  0  0  0  0  1  0  0  0  0  0  0
  161.0440  208.6950  153.4440 C   0  0  1  0  0  3  0  0  0  0  0  0
  159.2560  213.0900  152.3150 C   0  0  1  0  0  3  0  0  0  0  0  0
  160.2480  207.6750  155.6750 C   0  0  0  0  0  3  0  0  0  0  0  0
  158.1080  214.3870  154.0780 N   0  0  0  0  0  0  0  0  0  0  0  0
  158.1160  213.4160  154.9270 C   0  0  0  0  0  3  0  0  0  0  0  0
  159.2210  211.9010  153.2930 C   0  0  2  0  0  3  0  0  0  0  0  0
  154.5300  210.6680  156.4240 N   0  0  0  0  0  0  0  0  0  0  0  0
  157.2300  210.8810  155.8700 C   0  0  0  0  0  0  0  0  0  0  0  0
  156.3920  210.1450  155.0220 C   0  0  0  0  0  3  0  0  0  0  0  0
  155.0310  210.0500  155.3210 C   0  0  0  0  0  3  0  0  0  0  0  0
  155.3270  211.3880  157.2600 C   0  0  0  0  0  3  0  0  0  0  0  0
  156.6920  211.5070  156.9970 C   0  0  0  0  0  3  0  0  0  0  0  0
  1 20  1  0  0  0  0
  1 15  1  1  0  0  0
  1 12  1  0  0  0  0
  2 12  1  0  0  0  0
  2  6  1  1  0  0  0
  4 14  2  0  0  0  0
  5 13  1  0  0  0  0
  9  7  1  0  0  0  0
  9 13  1  0  0  0  0
 10 19  1  0  0  0  0
 11  3  1  6  0  0  0
 11  2  1  0  0  0  0
 12 23  1  6  0  0  0
 13  4  1  0  0  0  0
 14 18  1  0  0  0  0
 16  7  1  6  0  0  0
 16 11  1  0  0  0  0
 16 14  1  0  0  0  0
 17  8  1  6  0  0  0
 17 10  1  0  0  0  0
 17 21  1  0  0  0  0
 18  6  2  0  0  0  0
 19 20  2  0  0  0  0
 21  3  1  1  0  0  0
 21  1  1  0  0  0  0
 22 26  1  0  0  0  0
 23 27  1  0  0  0  0
 24 25  1  0  0  0  0
 24 23  2  0  0  0  0
 25 22  2  0  0  0  0
 27 26  2  0  0  0  0
M  END
>  <MODEL>
2

>  <REMARK>
 VINA RESULT:      -4.4      2.630      6.369
  Name = 
  1 active torsions:
  status: ('A' for Active; 'I' for Inactive)
    1  A    between atoms: C_9  and  C_15
                            x       y       z     vdW  Elec       q    Type
                         _______ _______ _______ _____ _____    ______ ____

>  <TORSDO>
F 1

$$$$
=
 OpenBabel11052423083D

 27 31  0  0  1  0  0  0  0  0999 V2000
  161.2290  209.7030  154.8850 C   0  0  2  0  0  0  0  0  0  0  0  0
  159.7700  211.1520  153.3570 C   0  0  2  0  0  3  0  0  0  0  0  0
  158.9730  210.4660  155.6510 O   0  0  0  0  0  0  0  0  0  0  0  0
  156.7640  213.8490  152.9600 C   0  0  0  0  0  3  0  0  0  0  0  0
  154.3870  214.4530  153.3640 C   0  0  0  0  0  1  0  0  0  0  0  0
  159.9650  212.3440  152.5280 N   0  0  0  0  0  0  0  0  0  0  0  0
  156.5890  211.6680  154.7600 C   0  0  0  0  0  2  0  0  0  0  0  0
  158.8330  207.2020  156.2070 C   0  0  0  0  0  1  0  0  0  0  0  0
  155.4560  212.6970  154.8100 C   0  0  0  0  0  2  0  0  0  0  0  0
  161.1370  207.8050  156.9610 C   0  0  0  0  0  2  0  0  0  0  0  0
  159.1690  211.5350  154.7300 C   0  0  2  0  0  3  0  0  0  0  0  0
  161.0950  210.3880  153.5010 C   0  0  2  0  0  3  0  0  0  0  0  0
  155.5490  213.6510  153.6980 N   0  0  0  0  0  0  0  0  0  0  0  0
  157.8870  213.2320  153.3290 C   0  0  0  0  0  0  0  0  0  0  0  0
  161.9070  210.6810  155.8410 C   0  0  0  0  0  1  0  0  0  0  0  0
  157.9100  212.4140  154.5980 C   0  0  1  0  0  3  0  0  0  0  0  0
  159.7580  208.3490  156.5600 C   0  0  1  0  0  3  0  0  0  0  0  0
  159.0780  213.2900  152.4720 C   0  0  0  0  0  3  0  0  0  0  0  0
  161.9810  207.5770  155.8050 N   0  0  0  0  0  0  0  0  0  0  0  0
  162.0590  208.4410  154.8510 C   0  0  0  0  0  3  0  0  0  0  0  0
  159.8060  209.3470  155.3890 C   0  0  2  0  0  3  0  0  0  0  0  0
  161.6640  207.8380  150.1230 N   0  0  0  0  0  0  0  0  0  0  0  0
  161.2850  209.4790  152.3160 C   0  0  0  0  0  0  0  0  0  0  0  0
  160.7520  208.1830  152.3030 C   0  0  0  0  0  3  0  0  0  0  0  0
  160.9550  207.3710  151.1850 C   0  0  0  0  0  3  0  0  0  0  0  0
  162.1910  209.0930  150.1150 C   0  0  0  0  0  3  0  0  0  0  0  0
  162.0100  209.9360  151.2130 C   0  0  0  0  0  3  0  0  0  0  0  0
  1 21  1  0  0  0  0
  1 15  1  1  0  0  0
  2  6  1  6  0  0  0
  2 12  1  0  0  0  0
  2 11  1  0  0  0  0
  4 14  2  0  0  0  0
  4 13  1  0  0  0  0
  5 13  1  0  0  0  0
  7  9  1  0  0  0  0
 11  3  1  6  0  0  0
 12 23  1  6  0  0  0
 12  1  1  0  0  0  0
 13  9  1  0  0  0  0
 14 16  1  0  0  0  0
 16 11  1  0  0  0  0
 16  7  1  6  0  0  0
 17  8  1  6  0  0  0
 17 10  1  0  0  0  0
 18  6  2  0  0  0  0
 18 14  1  0  0  0  0
 19 10  1  0  0  0  0
 20  1  1  0  0  0  0
 20 19  2  0  0  0  0
 21  3  1  1  0  0  0
 21 17  1  0  0  0  0
 22 25  1  0  0  0  0
 24 23  1  0  0  0  0
 25 24  2  0  0  0  0
 26 22  2  0  0  0  0
 26 27  1  0  0  0  0
 27 23  2  0  0  0  0
M  END
>  <MODEL>
3

>  <REMARK>
 VINA RESULT:      -4.4      2.816      4.653
  Name = 
  1 active torsions:
  status: ('A' for Active; 'I' for Inactive)
    1  A    between atoms: C_9  and  C_15
                            x       y       z     vdW  Elec       q    Type
                         _______ _______ _______ _____ _____    ______ ____

>  <TORSDO>
F 1

$$$$
=
 OpenBabel11052423083D

 27 31  0  0  1  0  0  0  0  0999 V2000
  160.9680  213.4210  148.6180 C   0  0  2  0  0  0  0  0  0  0  0  0
  158.8180  213.4370  150.0130 C   0  0  2  0  0  3  0  0  0  0  0  0
  160.8430  212.1250  150.7540 O   0  0  0  0  0  0  0  0  0  0  0  0
  157.0120  212.9610  153.6150 C   0  0  0  0  0  3  0  0  0  0  0  0
  156.5430  211.5120  155.5790 C   0  0  0  0  0  1  0  0  0  0  0  0
  157.8790  214.4510  150.4960 N   0  0  0  0  0  0  0  0  0  0  0  0
  159.0510  211.2080  152.7210 C   0  0  0  0  0  2  0  0  0  0  0  0
  161.9390  209.8440  148.6140 C   0  0  0  0  0  1  0  0  0  0  0  0
  158.5530  211.0140  154.1570 C   0  0  0  0  0  2  0  0  0  0  0  0
  163.2370  211.8830  147.9790 C   0  0  0  0  0  2  0  0  0  0  0  0
  159.8420  213.0710  151.1150 C   0  0  2  0  0  3  0  0  0  0  0  0
  159.5060  213.9250  148.7280 C   0  0  2  0  0  3  0  0  0  0  0  0
  157.3640  211.8300  154.4270 N   0  0  0  0  0  0  0  0  0  0  0  0
  157.8180  213.3650  152.6330 C   0  0  0  0  0  0  0  0  0  0  0  0
  161.8810  214.4530  149.2740 C   0  0  0  0  0  1  0  0  0  0  0  0
  159.1640  212.7050  152.4500 C   0  0  1  0  0  3  0  0  0  0  0  0
  162.3350  211.2420  149.0450 C   0  0  1  0  0  3  0  0  0  0  0  0
  157.3740  214.4000  151.6920 C   0  0  0  0  0  3  0  0  0  0  0  0
  162.4610  212.5070  146.9260 N   0  0  0  0  0  0  0  0  0  0  0  0
  161.4310  213.2360  147.1920 C   0  0  0  0  0  3  0  0  0  0  0  0
  161.0680  212.0600  149.3540 C   0  0  2  0  0  3  0  0  0  0  0  0
  157.0040  213.0230  145.3870 N   0  0  0  0  0  0  0  0  0  0  0  0
  158.6320  213.6180  147.5410 C   0  0  0  0  0  0  0  0  0  0  0  0
  158.6380  214.4370  146.4040 C   0  0  0  0  0  3  0  0  0  0  0  0
  157.8080  214.1190  145.3280 C   0  0  0  0  0  3  0  0  0  0  0  0
  156.9820  212.2150  146.4810 C   0  0  0  0  0  3  0  0  0  0  0  0
  157.7970  212.4980  147.5790 C   0  0  0  0  0  3  0  0  0  0  0  0
  1 12  1  0  0  0  0
  1 15  1  1  0  0  0
  1 21  1  0  0  0  0
  2  6  1  1  0  0  0
  2 11  1  0  0  0  0
  4 13  1  0  0  0  0
  6 18  2  0  0  0  0
  7  9  1  0  0  0  0
  9 13  1  0  0  0  0
 10 17  1  0  0  0  0
 11  3  1  6  0  0  0
 11 16  1  0  0  0  0
 12 23  1  6  0  0  0
 12  2  1  0  0  0  0
 13  5  1  0  0  0  0
 14  4  2  0  0  0  0
 16 14  1  0  0  0  0
 16  7  1  6  0  0  0
 17  8  1  6  0  0  0
 17 21  1  0  0  0  0
 18 14  1  0  0  0  0
 19 20  2  0  0  0  0
 19 10  1  0  0  0  0
 20  1  1  0  0  0  0
 21  3  1  1  0  0  0
 22 26  1  0  0  0  0
 23 27  1  0  0  0  0
 24 23  2  0  0  0  0
 25 22  2  0  0  0  0
 25 24  1  0  0  0  0
 26 27  2  0  0  0  0
M  END
>  <MODEL>
4

>  <REMARK>
 VINA RESULT:      -3.9      2.517      7.190
  Name = 
  1 active torsions:
  status: ('A' for Active; 'I' for Inactive)
    1  A    between atoms: C_9  and  C_15
                            x       y       z     vdW  Elec       q    Type
                         _______ _______ _______ _____ _____    ______ ____

>  <TORSDO>
F 1

$$$$
=
 OpenBabel11052423083D

 27 31  0  0  1  0  0  0  0  0999 V2000
  161.2680  209.7230  154.2890 C   0  0  2  0  0  0  0  0  0  0  0  0
  161.1530  210.2080  151.7760 C   0  0  2  0  0  3  0  0  0  0  0  0
  159.8740  211.6150  153.4340 O   0  0  0  0  0  0  0  0  0  0  0  0
  160.4590  212.8530  148.7770 C   0  0  0  0  0  3  0  0  0  0  0  0
  158.9100  214.4530  147.6750 C   0  0  0  0  0  1  0  0  0  0  0  0
  162.1150  210.3340  150.6780 N   0  0  0  0  0  0  0  0  0  0  0  0
  158.8140  212.7380  151.0810 C   0  0  0  0  0  2  0  0  0  0  0  0
  157.7270  209.9770  155.3550 C   0  0  0  0  0  1  0  0  0  0  0  0
  158.5390  213.8750  150.0920 C   0  0  0  0  0  2  0  0  0  0  0  0
  159.8320  209.9370  156.7000 C   0  0  0  0  0  2  0  0  0  0  0  0
  160.7710  211.6020  152.3280 C   0  0  2  0  0  3  0  0  0  0  0  0
  161.7200  209.2910  152.8700 C   0  0  2  0  0  3  0  0  0  0  0  0
  159.3050  213.7040  148.8520 N   0  0  0  0  0  0  0  0  0  0  0  0
  160.9330  212.2580  149.8730 C   0  0  0  0  0  0  0  0  0  0  0  0
  162.2980  210.7040  154.8420 C   0  0  0  0  0  1  0  0  0  0  0  0
  160.3240  212.5740  151.2180 C   0  0  1  0  0  3  0  0  0  0  0  0
  159.1160  210.5670  155.4960 C   0  0  1  0  0  3  0  0  0  0  0  0
  161.9940  211.2500  149.7650 C   0  0  0  0  0  3  0  0  0  0  0  0
  160.4780  208.6880  156.3470 N   0  0  0  0  0  0  0  0  0  0  0  0
  161.1610  208.5700  155.2600 C   0  0  0  0  0  3  0  0  0  0  0  0
  159.8790  210.4010  154.1690 C   0  0  2  0  0  3  0  0  0  0  0  0
  160.9270  205.2260  151.8280 N   0  0  0  0  0  0  0  0  0  0  0  0
  161.4390  207.8540  152.5190 C   0  0  0  0  0  0  0  0  0  0  0  0
  161.4930  206.8450  153.4900 C   0  0  0  0  0  3  0  0  0  0  0  0
  161.2300  205.5250  153.1200 C   0  0  0  0  0  3  0  0  0  0  0  0
  160.8700  206.1900  150.8690 C   0  0  0  0  0  3  0  0  0  0  0  0
  161.1260  207.5220  151.1980 C   0  0  0  0  0  3  0  0  0  0  0  0
  1 15  1  1  0  0  0
  1 20  1  0  0  0  0
  2  6  1  6  0  0  0
  2 11  1  0  0  0  0
  2 12  1  0  0  0  0
  4 13  1  0  0  0  0
  4 14  2  0  0  0  0
  5 13  1  0  0  0  0
  9  7  1  0  0  0  0
 11  3  1  1  0  0  0
 12 23  1  6  0  0  0
 12  1  1  0  0  0  0
 13  9  1  0  0  0  0
 14 16  1  0  0  0  0
 16  7  1  6  0  0  0
 16 11  1  0  0  0  0
 17  8  1  6  0  0  0
 17 10  1  0  0  0  0
 18 14  1  0  0  0  0
 18  6  2  0  0  0  0
 19 10  1  0  0  0  0
 20 19  2  0  0  0  0
 21  3  1  1  0  0  0
 21  1  1  0  0  0  0
 21 17  1  0  0  0  0
 22 25  1  0  0  0  0
 23 24  1  0  0  0  0
 25 24  2  0  0  0  0
 26 27  1  0  0  0  0
 26 22  2  0  0  0  0
 27 23  2  0  0  0  0
M  END
>  <MODEL>
5

>  <REMARK>
 VINA RESULT:      -3.7      2.393      3.768
  Name = 
  1 active torsions:
  status: ('A' for Active; 'I' for Inactive)
    1  A    between atoms: C_9  and  C_15
                            x       y       z     vdW  Elec       q    Type
                         _______ _______ _______ _____ _____    ______ ____

>  <TORSDO>
F 1

$$$$
=
 OpenBabel11052423083D

 27 31  0  0  1  0  0  0  0  0999 V2000
  161.5680  212.9320  148.3720 C   0  0  2  0  0  0  0  0  0  0  0  0
  161.1680  211.0910  150.1100 C   0  0  2  0  0  3  0  0  0  0  0  0
  161.7240  210.5230  147.7150 O   0  0  0  0  0  0  0  0  0  0  0  0
  161.7520  207.2580  151.3070 C   0  0  0  0  0  3  0  0  0  0  0  0
  161.5350  204.8290  150.8280 C   0  0  0  0  0  1  0  0  0  0  0  0
  161.6110  210.8150  151.4780 N   0  0  0  0  0  0  0  0  0  0  0  0
  161.1750  207.9130  148.6110 C   0  0  0  0  0  2  0  0  0  0  0  0
  159.6530  211.7390  145.4310 C   0  0  0  0  0  1  0  0  0  0  0  0
  161.5210  206.4500  148.9080 C   0  0  0  0  0  2  0  0  0  0  0  0
  161.3880  213.5250  145.6270 C   0  0  0  0  0  2  0  0  0  0  0  0
  162.0250  210.3050  149.0890 C   0  0  2  0  0  3  0  0  0  0  0  0
  161.1980  212.6040  149.8410 C   0  0  2  0  0  3  0  0  0  0  0  0
  161.5890  206.1980  150.3530 N   0  0  0  0  0  0  0  0  0  0  0  0
  161.9440  208.5130  150.8970 C   0  0  0  0  0  0  0  0  0  0  0  0
  163.0850  213.0760  148.2800 C   0  0  0  0  0  1  0  0  0  0  0  0
  162.1090  208.8030  149.4240 C   0  0  1  0  0  3  0  0  0  0  0  0
  161.0300  212.0720  145.9700 C   0  0  1  0  0  3  0  0  0  0  0  0
  161.9270  209.6160  151.8650 C   0  0  0  0  0  3  0  0  0  0  0  0
  160.8610  214.4530  146.6080 N   0  0  0  0  0  0  0  0  0  0  0  0
  160.9510  214.2170  147.8720 C   0  0  0  0  0  3  0  0  0  0  0  0
  161.0770  211.7640  147.4780 C   0  0  2  0  0  3  0  0  0  0  0  0
  157.5970  214.3990  151.2730 N   0  0  0  0  0  0  0  0  0  0  0  0
  159.9200  213.2290  150.3340 C   0  0  0  0  0  0  0  0  0  0  0  0
  158.7490  213.1860  149.5670 C   0  0  0  0  0  3  0  0  0  0  0  0
  157.5860  213.7830  150.0600 C   0  0  0  0  0  3  0  0  0  0  0  0
  158.7240  214.4530  152.0330 C   0  0  0  0  0  3  0  0  0  0  0  0
  159.9070  213.8690  151.5770 C   0  0  0  0  0  3  0  0  0  0  0  0
  1 15  1  6  0  0  0
  1 12  1  0  0  0  0
  2  6  1  1  0  0  0
  6 18  2  0  0  0  0
  7  9  1  0  0  0  0
  9 13  1  0  0  0  0
 10 17  1  0  0  0  0
 10 19  1  0  0  0  0
 11  3  1  6  0  0  0
 11 16  1  0  0  0  0
 11  2  1  0  0  0  0
 12  2  1  0  0  0  0
 12 23  1  6  0  0  0
 13  5  1  0  0  0  0
 13  4  1  0  0  0  0
 14  4  2  0  0  0  0
 14 18  1  0  0  0  0
 16  7  1  6  0  0  0
 16 14  1  0  0  0  0
 17  8  1  1  0  0  0
 17 21  1  0  0  0  0
 19 20  2  0  0  0  0
 20  1  1  0  0  0  0
 21  3  1  6  0  0  0
 21  1  1  0  0  0  0
 22 26  1  0  0  0  0
 23 27  1  0  0  0  0
 24 25  1  0  0  0  0
 24 23  2  0  0  0  0
 25 22  2  0  0  0  0
 27 26  2  0  0  0  0
M  END
>  <MODEL>
6

>  <REMARK>
 VINA RESULT:      -3.4      3.501      7.675
  Name = 
  1 active torsions:
  status: ('A' for Active; 'I' for Inactive)
    1  A    between atoms: C_9  and  C_15
                            x       y       z     vdW  Elec       q    Type
                         _______ _______ _______ _____ _____    ______ ____

>  <TORSDO>
F 1

$$$$
=
 OpenBabel11052423083D

 27 31  0  0  1  0  0  0  0  0999 V2000
  161.7670  212.4390  149.0910 C   0  0  2  0  0  0  0  0  0  0  0  0
  161.3960  210.2050  150.2900 C   0  0  2  0  0  3  0  0  0  0  0  0
  161.5770  210.3200  147.7760 O   0  0  0  0  0  0  0  0  0  0  0  0
  161.7110  206.1600  150.2730 C   0  0  0  0  0  3  0  0  0  0  0  0
  161.1750  203.9940  149.1780 C   0  0  0  0  0  1  0  0  0  0  0  0
  161.9780  209.5160  151.4430 N   0  0  0  0  0  0  0  0  0  0  0  0
  160.8690  207.6050  147.9860 C   0  0  0  0  0  2  0  0  0  0  0  0
  159.3750  212.2810  146.2640 C   0  0  0  0  0  1  0  0  0  0  0  0
  161.0900  206.0990  147.8090 C   0  0  0  0  0  2  0  0  0  0  0  0
  161.3040  213.8140  146.6790 C   0  0  0  0  0  2  0  0  0  0  0  0
  162.0260  209.6930  148.9730 C   0  0  2  0  0  3  0  0  0  0  0  0
  161.5550  211.7260  150.4510 C   0  0  2  0  0  3  0  0  0  0  0  0
  161.3150  205.4350  149.0990 N   0  0  0  0  0  0  0  0  0  0  0  0
  161.9830  207.4630  150.2030 C   0  0  0  0  0  0  0  0  0  0  0  0
  163.2670  212.5020  148.8120 C   0  0  0  0  0  1  0  0  0  0  0  0
  161.9900  208.1560  148.8610 C   0  0  1  0  0  3  0  0  0  0  0  0
  160.8370  212.3510  146.6560 C   0  0  1  0  0  3  0  0  0  0  0  0
  162.2090  208.2370  151.4300 C   0  0  0  0  0  3  0  0  0  0  0  0
  161.0090  214.4510  147.9470 N   0  0  0  0  0  0  0  0  0  0  0  0
  161.2340  213.8520  149.0670 C   0  0  0  0  0  3  0  0  0  0  0  0
  161.0430  211.6170  147.9940 C   0  0  2  0  0  3  0  0  0  0  0  0
  158.3240  213.2610  152.7830 N   0  0  0  0  0  0  0  0  0  0  0  0
  160.4250  212.2650  151.2870 C   0  0  0  0  0  0  0  0  0  0  0  0
  160.4160  212.1130  152.6800 C   0  0  0  0  0  3  0  0  0  0  0  0
  159.3460  212.6240  153.4160 C   0  0  0  0  0  3  0  0  0  0  0  0
  158.3130  213.4190  151.4320 C   0  0  0  0  0  3  0  0  0  0  0  0
  159.3640  212.9230  150.6590 C   0  0  0  0  0  3  0  0  0  0  0  0
  1 15  1  6  0  0  0
  1 12  1  0  0  0  0
  2 12  1  0  0  0  0
  2  6  1  1  0  0  0
  9  7  1  0  0  0  0
  9 13  1  0  0  0  0
 10 19  1  0  0  0  0
 11  3  1  6  0  0  0
 11  2  1  0  0  0  0
 12 23  1  6  0  0  0
 13  5  1  0  0  0  0
 13  4  1  0  0  0  0
 14  4  2  0  0  0  0
 14 18  1  0  0  0  0
 16  7  1  1  0  0  0
 16 11  1  0  0  0  0
 16 14  1  0  0  0  0
 17  8  1  1  0  0  0
 17 10  1  0  0  0  0
 17 21  1  0  0  0  0
 18  6  2  0  0  0  0
 19 20  2  0  0  0  0
 20  1  1  0  0  0  0
 21  3  1  6  0  0  0
 21  1  1  0  0  0  0
 22 25  1  0  0  0  0
 23 24  1  0  0  0  0
 24 25  2  0  0  0  0
 26 22  2  0  0  0  0
 27 23  2  0  0  0  0
 27 26  1  0  0  0  0
M  END
>  <MODEL>
7

>  <REMARK>
 VINA RESULT:      -2.7      3.737      7.415
  Name = 
  1 active torsions:
  status: ('A' for Active; 'I' for Inactive)
    1  A    between atoms: C_9  and  C_15
                            x       y       z     vdW  Elec       q    Type
                         _______ _______ _______ _____ _____    ______ ____

>  <TORSDO>
F 1

$$$$
=
 OpenBabel11052423083D

 27 31  0  0  1  0  0  0  0  0999 V2000
  160.6670  213.5090  149.2480 C   0  0  2  0  0  0  0  0  0  0  0  0
  160.1370  211.9220  151.1890 C   0  0  2  0  0  3  0  0  0  0  0  0
  161.6140  211.1950  149.2770 O   0  0  0  0  0  0  0  0  0  0  0  0
  161.1640  208.6830  153.4060 C   0  0  0  0  0  3  0  0  0  0  0  0
  161.7170  206.2610  153.4960 C   0  0  0  0  0  1  0  0  0  0  0  0
  160.1260  212.0070  152.6500 N   0  0  0  0  0  0  0  0  0  0  0  0
  161.4280  208.7100  150.5850 C   0  0  0  0  0  2  0  0  0  0  0  0
  160.2460  211.3530  146.2620 C   0  0  0  0  0  1  0  0  0  0  0  0
  161.9880  207.4870  151.3200 C   0  0  0  0  0  2  0  0  0  0  0  0
  161.3220  213.5940  146.5120 C   0  0  0  0  0  2  0  0  0  0  0  0
  161.4590  211.2910  150.6890 C   0  0  2  0  0  3  0  0  0  0  0  0
  159.8960  213.3120  150.5790 C   0  0  2  0  0  3  0  0  0  0  0  0
  161.6050  207.4910  152.7370 N   0  0  0  0  0  0  0  0  0  0  0  0
  161.1810  209.8580  152.7760 C   0  0  0  0  0  0  0  0  0  0  0  0
  162.0380  214.0960  149.5710 C   0  0  0  0  0  1  0  0  0  0  0  0
  161.7770  209.9570  151.3920 C   0  0  1  0  0  3  0  0  0  0  0  0
  161.2250  212.1700  147.0810 C   0  0  1  0  0  3  0  0  0  0  0  0
  160.5630  211.0370  153.3950 C   0  0  0  0  0  3  0  0  0  0  0  0
  160.2800  214.4530  147.0370 N   0  0  0  0  0  0  0  0  0  0  0  0
  159.9760  214.4510  148.2900 C   0  0  0  0  0  3  0  0  0  0  0  0
  160.8150  212.1260  148.5640 C   0  0  2  0  0  3  0  0  0  0  0  0
  155.7030  214.1020  150.4160 N   0  0  0  0  0  0  0  0  0  0  0  0
  158.4170  213.5820  150.5070 C   0  0  0  0  0  0  0  0  0  0  0  0
  157.6840  213.3050  149.3460 C   0  0  0  0  0  3  0  0  0  0  0  0
  156.3140  213.5750  149.3210 C   0  0  0  0  0  3  0  0  0  0  0  0
  156.3960  214.3790  151.5530 C   0  0  0  0  0  3  0  0  0  0  0  0
  157.7670  214.1240  151.6190 C   0  0  0  0  0  3  0  0  0  0  0  0
  1 15  1  1  0  0  0
  1 12  1  0  0  0  0
  2  6  1  1  0  0  0
  6 18  2  0  0  0  0
  7  9  1  0  0  0  0
  9 13  1  0  0  0  0
 10 19  1  0  0  0  0
 10 17  1  0  0  0  0
 11  3  1  6  0  0  0
 11  2  1  0  0  0  0
 11 16  1  0  0  0  0
 12 23  1  6  0  0  0
 12  2  1  0  0  0  0
 13  4  1  0  0  0  0
 13  5  1  0  0  0  0
 14 18  1  0  0  0  0
 14  4  2  0  0  0  0
 16  7  1  6  0  0  0
 16 14  1  0  0  0  0
 17  8  1  6  0  0  0
 17 21  1  0  0  0  0
 19 20  2  0  0  0  0
 20  1  1  0  0  0  0
 21  1  1  0  0  0  0
 21  3  1  1  0  0  0
 22 26  1  0  0  0  0
 23 27  1  0  0  0  0
 24 23  2  0  0  0  0
 25 24  1  0  0  0  0
 25 22  2  0  0  0  0
 26 27  2  0  0  0  0
M  END
>  <MODEL>
8

>  <REMARK>
 VINA RESULT:      -2.5      2.791      7.327
  Name = 
  1 active torsions:
  status: ('A' for Active; 'I' for Inactive)
    1  A    between atoms: C_9  and  C_15
                            x       y       z     vdW  Elec       q    Type
                         _______ _______ _______ _____ _____    ______ ____

>  <TORSDO>
F 1

$$$$
