=
 OpenBabel11052423183D

 27 31  0  0  0  0  0  0  0  0999 V2000
  160.8780  210.1750  151.7820 C   0  0  0  0  0  3  0  0  0  0  0  0
  161.7410  208.6350  150.0050 C   0  0  0  0  0  0  0  0  0  0  0  0
  161.6420  207.3020  152.1720 C   0  0  0  0  0  3  0  0  0  0  0  0
  161.5870  204.9080  147.9660 C   0  0  0  0  0  3  0  0  0  0  0  0
  161.0110  202.5660  147.9110 O   0  0  0  0  0  1  0  0  0  0  0  0
  162.1960  208.4840  148.5990 C   0  0  0  0  0  3  0  0  0  0  0  0
  160.7500  203.8170  149.9560 C   0  0  0  0  0  3  0  0  0  0  0  0
  161.1170  207.9310  156.6370 O   0  0  0  0  0  0  0  0  0  0  0  0
  160.8580  205.0190  150.6610 C   0  0  0  0  0  3  0  0  0  0  0  0
  161.0050  208.4160  155.4810 C   0  0  0  0  0  0  0  0  0  0  0  0
  161.3340  206.1810  150.0270 C   0  0  0  0  0  0  0  0  0  0  0  0
  161.4850  209.8760  150.4750 C   0  0  0  0  0  0  0  0  0  0  0  0
  161.1170  203.7610  148.6100 C   0  0  0  0  0  0  0  0  0  0  0  0
  161.6920  206.1120  148.6670 C   0  0  0  0  0  0  0  0  0  0  0  0
  160.8260  209.4790  152.9150 C   0  0  0  0  0  0  0  0  0  0  0  0
  161.4660  207.4270  150.7530 N   0  0  0  0  0  0  0  0  0  0  0  0
  161.4450  207.7150  154.4050 N   0  0  0  0  0  2  0  0  0  0  0  0
  162.1790  207.3090  147.9800 C   0  0  0  0  0  3  0  0  0  0  0  0
  160.4100  209.6580  155.3030 C   0  0  0  0  0  3  0  0  0  0  0  0
  160.3310  210.1850  154.0160 C   0  0  0  0  0  3  0  0  0  0  0  0
  161.3490  208.1820  153.1270 C   0  0  0  0  0  0  0  0  0  0  0  0
  162.2450  213.3960  148.1390 C   0  0  0  0  0  3  0  0  0  0  0  0
  161.7370  211.0830  149.6460 C   0  0  0  0  0  0  0  0  0  0  0  0
  162.8410  211.1390  148.7790 C   0  0  0  0  0  3  0  0  0  0  0  0
  163.0900  212.2890  148.0260 C   0  0  0  0  0  3  0  0  0  0  0  0
  161.1530  213.3550  149.0080 C   0  0  0  0  0  3  0  0  0  0  0  0
  160.9020  212.2050  149.7620 C   0  0  0  0  0  3  0  0  0  0  0  0
  1 15  2  0  0  0  0
  2 12  2  0  0  0  0
  2 16  1  0  0  0  0
  3 21  2  0  0  0  0
  4 13  2  0  0  0  0
  4 14  1  0  0  0  0
  5 13  1  0  0  0  0
  6  2  1  0  0  0  0
  7  9  2  0  0  0  0
 10  8  2  0  0  0  0
 11  9  1  0  0  0  0
 11 16  1  0  0  0  0
 12  1  1  0  0  0  0
 13  7  1  0  0  0  0
 14 11  2  0  0  0  0
 15 21  1  0  0  0  0
 15 20  1  0  0  0  0
 16  3  1  0  0  0  0
 17 10  1  0  0  0  0
 18  6  2  0  0  0  0
 18 14  1  0  0  0  0
 19 10  1  0  0  0  0
 20 19  2  0  0  0  0
 21 17  1  0  0  0  0
 22 26  1  0  0  0  0
 23 27  1  0  0  0  0
 23 12  1  0  0  0  0
 24 23  2  0  0  0  0
 25 22  2  0  0  0  0
 25 24  1  0  0  0  0
 26 27  2  0  0  0  0
M  END
>  <MODEL>
1

>  <REMARK>
 VINA RESULT:      -8.7      0.000      0.000
  Name = 
  1 active torsions:
  status: ('A' for Active; 'I' for Inactive)
    1  A    between atoms: C_9  and  C_15
                            x       y       z     vdW  Elec       q    Type
                         _______ _______ _______ _____ _____    ______ ____

>  <TORSDO>
F 1

$$$$
=
 OpenBabel11052423183D

 27 31  0  0  0  0  0  0  0  0999 V2000
  161.3610  206.0410  153.0960 C   0  0  0  0  0  3  0  0  0  0  0  0
  161.1390  207.0190  150.8000 C   0  0  0  0  0  0  0  0  0  0  0  0
  160.6560  208.8860  152.4620 C   0  0  0  0  0  3  0  0  0  0  0  0
  162.0720  210.0680  147.9880 C   0  0  0  0  0  3  0  0  0  0  0  0
  162.7510  212.3280  147.4880 O   0  0  0  0  0  1  0  0  0  0  0  0
  161.1310  206.7730  149.3350 C   0  0  0  0  0  3  0  0  0  0  0  0
  162.3320  211.6800  149.7730 C   0  0  0  0  0  3  0  0  0  0  0  0
  159.8010  209.4930  156.8790 O   0  0  0  0  0  0  0  0  0  0  0  0
  161.9620  210.7070  150.7060 C   0  0  0  0  0  3  0  0  0  0  0  0
  160.2270  208.7200  155.9820 C   0  0  0  0  0  0  0  0  0  0  0  0
  161.6400  209.4020  150.2910 C   0  0  0  0  0  0  0  0  0  0  0  0
  161.1840  205.9580  151.6370 C   0  0  0  0  0  0  0  0  0  0  0  0
  162.3850  211.3610  148.4140 C   0  0  0  0  0  0  0  0  0  0  0  0
  161.7060  209.0920  148.9190 C   0  0  0  0  0  0  0  0  0  0  0  0
  161.1080  207.0160  153.9650 C   0  0  0  0  0  0  0  0  0  0  0  0
  161.2390  208.3920  151.2470 N   0  0  0  0  0  0  0  0  0  0  0  0
  160.1610  209.0920  154.6780 N   0  0  0  0  0  2  0  0  0  0  0  0
  161.3870  207.7390  148.4610 C   0  0  0  0  0  3  0  0  0  0  0  0
  160.7880  207.4970  156.3260 C   0  0  0  0  0  3  0  0  0  0  0  0
  161.2190  206.6480  155.3100 C   0  0  0  0  0  3  0  0  0  0  0  0
  160.6090  208.3040  153.6590 C   0  0  0  0  0  0  0  0  0  0  0  0
  160.9620  201.9290  150.1750 C   0  0  0  0  0  3  0  0  0  0  0  0
  161.1310  204.5660  151.1220 C   0  0  0  0  0  0  0  0  0  0  0  0
  160.8460  204.3120  149.7700 C   0  0  0  0  0  3  0  0  0  0  0  0
  160.7670  202.9990  149.2990 C   0  0  0  0  0  3  0  0  0  0  0  0
  161.2310  202.1710  151.5240 C   0  0  0  0  0  3  0  0  0  0  0  0
  161.3110  203.4840  151.9970 C   0  0  0  0  0  3  0  0  0  0  0  0
  1 15  2  0  0  0  0
  2 16  1  0  0  0  0
  2 12  2  0  0  0  0
  3 21  2  0  0  0  0
  4 13  2  0  0  0  0
  4 14  1  0  0  0  0
  5 13  1  0  0  0  0
  6  2  1  0  0  0  0
  7  9  2  0  0  0  0
 10 19  1  0  0  0  0
 10  8  2  0  0  0  0
 11  9  1  0  0  0  0
 11 16  1  0  0  0  0
 12  1  1  0  0  0  0
 13  7  1  0  0  0  0
 14 11  2  0  0  0  0
 15 20  1  0  0  0  0
 16  3  1  0  0  0  0
 17 10  1  0  0  0  0
 18 14  1  0  0  0  0
 18  6  2  0  0  0  0
 20 19  2  0  0  0  0
 21 15  1  0  0  0  0
 21 17  1  0  0  0  0
 22 26  1  0  0  0  0
 23 12  1  0  0  0  0
 23 27  1  0  0  0  0
 24 23  2  0  0  0  0
 25 24  1  0  0  0  0
 25 22  2  0  0  0  0
 26 27  2  0  0  0  0
M  END
>  <MODEL>
2

>  <REMARK>
 VINA RESULT:      -8.6      2.320      5.868
  Name = 
  1 active torsions:
  status: ('A' for Active; 'I' for Inactive)
    1  A    between atoms: C_9  and  C_15
                            x       y       z     vdW  Elec       q    Type
                         _______ _______ _______ _____ _____    ______ ____

>  <TORSDO>
F 1

$$$$
=
 OpenBabel11052423183D

 27 31  0  0  0  0  0  0  0  0999 V2000
  161.0900  210.9680  151.1400 C   0  0  0  0  0  3  0  0  0  0  0  0
  161.8480  209.0520  149.7160 C   0  0  0  0  0  0  0  0  0  0  0  0
  161.7280  208.2050  152.1140 C   0  0  0  0  0  3  0  0  0  0  0  0
  161.4830  204.9950  148.5000 C   0  0  0  0  0  3  0  0  0  0  0  0
  160.7990  202.7240  148.9400 O   0  0  0  0  0  1  0  0  0  0  0  0
  162.2680  208.5900  148.3680 C   0  0  0  0  0  3  0  0  0  0  0  0
  160.6350  204.3840  150.6820 C   0  0  0  0  0  3  0  0  0  0  0  0
  161.3170  209.7730  156.3540 O   0  0  0  0  0  0  0  0  0  0  0  0
  160.8110  205.6990  151.1190 C   0  0  0  0  0  3  0  0  0  0  0  0
  161.2050  210.0130  155.1240 C   0  0  0  0  0  0  0  0  0  0  0  0
  161.3280  206.6790  150.2530 C   0  0  0  0  0  0  0  0  0  0  0  0
  161.6580  210.3750  149.9190 C   0  0  0  0  0  0  0  0  0  0  0  0
  160.9730  204.0310  149.3730 C   0  0  0  0  0  0  0  0  0  0  0  0
  161.6570  206.3120  148.9340 C   0  0  0  0  0  0  0  0  0  0  0  0
  161.0270  210.5260  152.3940 C   0  0  0  0  0  0  0  0  0  0  0  0
  161.5310  208.0410  150.7010 N   0  0  0  0  0  0  0  0  0  0  0  0
  161.5930  209.0830  154.2130 N   0  0  0  0  0  2  0  0  0  0  0  0
  162.1850  207.3140  148.0080 C   0  0  0  0  0  3  0  0  0  0  0  0
  160.6650  211.2190  154.6950 C   0  0  0  0  0  3  0  0  0  0  0  0
  160.5860  211.4700  153.3280 C   0  0  0  0  0  3  0  0  0  0  0  0
  161.4940  209.2780  152.8670 C   0  0  0  0  0  0  0  0  0  0  0  0
  162.4920  213.3020  146.8920 C   0  0  0  0  0  3  0  0  0  0  0  0
  161.9500  211.3690  148.8540 C   0  0  0  0  0  0  0  0  0  0  0  0
  163.2750  211.6720  148.5000 C   0  0  0  0  0  3  0  0  0  0  0  0
  163.5440  212.6300  147.5200 C   0  0  0  0  0  3  0  0  0  0  0  0
  161.1710  213.0180  147.2460 C   0  0  0  0  0  3  0  0  0  0  0  0
  160.9010  212.0580  148.2270 C   0  0  0  0  0  3  0  0  0  0  0  0
  1 15  2  0  0  0  0
  2 12  2  0  0  0  0
  2 16  1  0  0  0  0
  3 21  2  0  0  0  0
  4 14  2  0  0  0  0
  4 13  1  0  0  0  0
  5 13  1  0  0  0  0
  6  2  1  0  0  0  0
  7  9  1  0  0  0  0
 10  8  2  0  0  0  0
 11 16  1  0  0  0  0
 11  9  2  0  0  0  0
 12  1  1  0  0  0  0
 13  7  2  0  0  0  0
 14 11  1  0  0  0  0
 15 21  1  0  0  0  0
 15 20  1  0  0  0  0
 16  3  1  0  0  0  0
 17 10  1  0  0  0  0
 18  6  2  0  0  0  0
 18 14  1  0  0  0  0
 19 10  1  0  0  0  0
 20 19  2  0  0  0  0
 21 17  1  0  0  0  0
 22 26  2  0  0  0  0
 22 25  1  0  0  0  0
 23 12  1  0  0  0  0
 24 23  1  0  0  0  0
 25 24  2  0  0  0  0
 26 27  1  0  0  0  0
 27 23  2  0  0  0  0
M  END
>  <MODEL>
3

>  <REMARK>
 VINA RESULT:      -8.4      0.989      1.094
  Name = 
  1 active torsions:
  status: ('A' for Active; 'I' for Inactive)
    1  A    between atoms: C_9  and  C_15
                            x       y       z     vdW  Elec       q    Type
                         _______ _______ _______ _____ _____    ______ ____

>  <TORSDO>
F 1

$$$$
=
 OpenBabel11052423183D

 27 31  0  0  0  0  0  0  0  0999 V2000
  162.3310  208.3770  148.3510 C   0  0  0  0  0  3  0  0  0  0  0  0
  161.3980  209.3870  150.4450 C   0  0  0  0  0  0  0  0  0  0  0  0
  160.8610  206.8990  150.5070 C   0  0  0  0  0  3  0  0  0  0  0  0
  160.9640  209.3590  154.6740 C   0  0  0  0  0  3  0  0  0  0  0  0
  160.9730  208.1800  156.7790 O   0  0  0  0  0  1  0  0  0  0  0  0
  161.1320  210.6260  151.2210 C   0  0  0  0  0  3  0  0  0  0  0  0
  161.2190  206.9530  154.7160 C   0  0  0  0  0  3  0  0  0  0  0  0
  160.8590  203.2600  147.7940 O   0  0  0  0  0  0  0  0  0  0  0  0
  161.2960  206.9370  153.3210 C   0  0  0  0  0  3  0  0  0  0  0  0
  161.2510  204.4420  147.9760 C   0  0  0  0  0  0  0  0  0  0  0  0
  161.2060  208.1320  152.5840 C   0  0  0  0  0  0  0  0  0  0  0  0
  161.8690  209.5000  149.1830 C   0  0  0  0  0  0  0  0  0  0  0  0
  161.0510  208.1640  155.3920 C   0  0  0  0  0  0  0  0  0  0  0  0
  161.0450  209.3450  153.2790 C   0  0  0  0  0  0  0  0  0  0  0  0
  162.0500  207.0770  148.3830 C   0  0  0  0  0  0  0  0  0  0  0  0
  161.2680  208.1230  151.1370 N   0  0  0  0  0  0  0  0  0  0  0  0
  160.8200  205.1410  149.0570 N   0  0  0  0  0  2  0  0  0  0  0  0
  160.9610  210.6040  152.5380 C   0  0  0  0  0  3  0  0  0  0  0  0
  162.1430  205.0240  147.0840 C   0  0  0  0  0  3  0  0  0  0  0  0
  162.5310  206.3450  147.2920 C   0  0  0  0  0  3  0  0  0  0  0  0
  161.2100  206.4230  149.3140 C   0  0  0  0  0  0  0  0  0  0  0  0
  162.3720  213.3010  147.2540 C   0  0  0  0  0  3  0  0  0  0  0  0
  162.0320  210.8270  148.5360 C   0  0  0  0  0  0  0  0  0  0  0  0
  160.9520  211.4460  147.8860 C   0  0  0  0  0  3  0  0  0  0  0  0
  161.1210  212.6800  147.2530 C   0  0  0  0  0  3  0  0  0  0  0  0
  163.4560  212.6870  147.8860 C   0  0  0  0  0  3  0  0  0  0  0  0
  163.2880  211.4530  148.5200 C   0  0  0  0  0  3  0  0  0  0  0  0
  1 15  2  0  0  0  0
  1 12  1  0  0  0  0
  2 16  1  0  0  0  0
  2  6  1  0  0  0  0
  3 16  1  0  0  0  0
  4 13  1  0  0  0  0
  6 18  2  0  0  0  0
  7 13  2  0  0  0  0
  8 10  2  0  0  0  0
  9  7  1  0  0  0  0
 10 17  1  0  0  0  0
 11 14  1  0  0  0  0
 11  9  2  0  0  0  0
 12  2  2  0  0  0  0
 13  5  1  0  0  0  0
 14  4  2  0  0  0  0
 15 21  1  0  0  0  0
 16 11  1  0  0  0  0
 17 21  1  0  0  0  0
 18 14  1  0  0  0  0
 19 20  2  0  0  0  0
 19 10  1  0  0  0  0
 20 15  1  0  0  0  0
 21  3  2  0  0  0  0
 22 26  1  0  0  0  0
 23 12  1  0  0  0  0
 24 23  2  0  0  0  0
 25 22  2  0  0  0  0
 25 24  1  0  0  0  0
 26 27  2  0  0  0  0
 27 23  1  0  0  0  0
M  END
>  <MODEL>
4

>  <REMARK>
 VINA RESULT:      -8.3      1.207      5.555
  Name = 
  1 active torsions:
  status: ('A' for Active; 'I' for Inactive)
    1  A    between atoms: C_9  and  C_15
                            x       y       z     vdW  Elec       q    Type
                         _______ _______ _______ _____ _____    ______ ____

>  <TORSDO>
F 1

$$$$
=
 OpenBabel11052423183D

 27 31  0  0  0  0  0  0  0  0999 V2000
  161.2060  207.8210  148.8020 C   0  0  0  0  0  3  0  0  0  0  0  0
  161.4870  206.8340  151.0880 C   0  0  0  0  0  0  0  0  0  0  0  0
  162.0060  209.3190  151.2730 C   0  0  0  0  0  3  0  0  0  0  0  0
  160.6840  206.9160  155.2610 C   0  0  0  0  0  3  0  0  0  0  0  0
  160.0810  208.1230  157.2610 O   0  0  0  0  0  1  0  0  0  0  0  0
  161.5070  205.6040  151.9210 C   0  0  0  0  0  3  0  0  0  0  0  0
  160.4500  209.3240  155.2010 C   0  0  0  0  0  3  0  0  0  0  0  0
  162.8230  212.9220  148.6360 O   0  0  0  0  0  0  0  0  0  0  0  0
  160.7790  209.3220  153.8430 C   0  0  0  0  0  3  0  0  0  0  0  0
  162.3850  211.7450  148.7100 C   0  0  0  0  0  0  0  0  0  0  0  0
  161.0660  208.1170  153.1770 C   0  0  0  0  0  0  0  0  0  0  0  0
  161.3990  206.7070  149.7440 C   0  0  0  0  0  0  0  0  0  0  0  0
  160.4050  208.1210  155.9110 C   0  0  0  0  0  0  0  0  0  0  0  0
  161.0080  206.9120  153.9020 C   0  0  0  0  0  0  0  0  0  0  0  0
  161.4780  209.1200  148.8990 C   0  0  0  0  0  0  0  0  0  0  0  0
  161.4240  208.1060  151.7740 N   0  0  0  0  0  0  0  0  0  0  0  0
  162.4790  211.0580  149.8770 N   0  0  0  0  0  2  0  0  0  0  0  0
  161.2910  205.6420  153.2310 C   0  0  0  0  0  3  0  0  0  0  0  0
  161.7830  211.1550  147.6060 C   0  0  0  0  0  3  0  0  0  0  0  0
  161.3380  209.8400  147.7070 C   0  0  0  0  0  3  0  0  0  0  0  0
  162.0200  209.7820  150.0250 C   0  0  0  0  0  0  0  0  0  0  0  0
  161.3780  202.8600  147.8410 C   0  0  0  0  0  3  0  0  0  0  0  0
  161.4160  205.3720  149.0920 C   0  0  0  0  0  0  0  0  0  0  0  0
  161.9540  205.2100  147.8050 C   0  0  0  0  0  3  0  0  0  0  0  0
  161.9390  203.9580  147.1850 C   0  0  0  0  0  3  0  0  0  0  0  0
  160.8290  203.0130  149.1160 C   0  0  0  0  0  3  0  0  0  0  0  0
  160.8430  204.2650  149.7380 C   0  0  0  0  0  3  0  0  0  0  0  0
  1 15  2  0  0  0  0
  1 12  1  0  0  0  0
  2 16  1  0  0  0  0
  2  6  1  0  0  0  0
  3 16  1  0  0  0  0
  4 13  1  0  0  0  0
  6 18  2  0  0  0  0
  7 13  2  0  0  0  0
  8 10  2  0  0  0  0
  9  7  1  0  0  0  0
 10 17  1  0  0  0  0
 11  9  2  0  0  0  0
 11 14  1  0  0  0  0
 12  2  2  0  0  0  0
 13  5  1  0  0  0  0
 14  4  2  0  0  0  0
 15 21  1  0  0  0  0
 16 11  1  0  0  0  0
 17 21  1  0  0  0  0
 18 14  1  0  0  0  0
 19 20  2  0  0  0  0
 19 10  1  0  0  0  0
 20 15  1  0  0  0  0
 21  3  2  0  0  0  0
 22 26  1  0  0  0  0
 23 27  1  0  0  0  0
 23 12  1  0  0  0  0
 24 23  2  0  0  0  0
 25 24  1  0  0  0  0
 25 22  2  0  0  0  0
 26 27  2  0  0  0  0
M  END
>  <MODEL>
5

>  <REMARK>
 VINA RESULT:      -8.1      2.362      6.684
  Name = 
  1 active torsions:
  status: ('A' for Active; 'I' for Inactive)
    1  A    between atoms: C_9  and  C_15
                            x       y       z     vdW  Elec       q    Type
                         _______ _______ _______ _____ _____    ______ ____

>  <TORSDO>
F 1

$$$$
=
 OpenBabel11052423183D

 27 31  0  0  0  0  0  0  0  0999 V2000
  162.1100  209.2140  151.0000 C   0  0  0  0  0  3  0  0  0  0  0  0
  161.1860  206.9650  150.3980 C   0  0  0  0  0  0  0  0  0  0  0  0
  161.2540  208.3470  148.2610 C   0  0  0  0  0  3  0  0  0  0  0  0
  161.2060  203.5200  147.9060 C   0  0  0  0  0  3  0  0  0  0  0  0
  161.7040  202.4530  145.8010 O   0  0  0  0  0  1  0  0  0  0  0  0
  160.7190  205.6390  150.8780 C   0  0  0  0  0  3  0  0  0  0  0  0
  162.0180  204.8330  146.0430 C   0  0  0  0  0  3  0  0  0  0  0  0
  161.8250  212.6380  146.8940 O   0  0  0  0  0  0  0  0  0  0  0  0
  161.9540  205.9870  146.8280 C   0  0  0  0  0  3  0  0  0  0  0  0
  161.9460  211.8010  147.8260 C   0  0  0  0  0  0  0  0  0  0  0  0
  161.5120  205.9230  148.1630 C   0  0  0  0  0  0  0  0  0  0  0  0
  161.4860  207.9170  151.3090 C   0  0  0  0  0  0  0  0  0  0  0  0
  161.6420  203.6000  146.5820 C   0  0  0  0  0  0  0  0  0  0  0  0
  161.1450  204.6720  148.6940 C   0  0  0  0  0  0  0  0  0  0  0  0
  162.1450  209.9370  149.8840 C   0  0  0  0  0  0  0  0  0  0  0  0
  161.4260  207.1160  148.9790 N   0  0  0  0  0  0  0  0  0  0  0  0
  161.4770  210.5370  147.6680 N   0  0  0  0  0  2  0  0  0  0  0  0
  160.6940  204.5750  150.0830 C   0  0  0  0  0  3  0  0  0  0  0  0
  162.5810  212.1620  149.0080 C   0  0  0  0  0  3  0  0  0  0  0  0
  162.6700  211.2250  150.0340 C   0  0  0  0  0  3  0  0  0  0  0  0
  161.5810  209.5820  148.6360 C   0  0  0  0  0  0  0  0  0  0  0  0
  160.7840  207.2630  155.4930 C   0  0  0  0  0  3  0  0  0  0  0  0
  161.2680  207.6920  152.7610 C   0  0  0  0  0  0  0  0  0  0  0  0
  161.4420  206.4170  153.3230 C   0  0  0  0  0  3  0  0  0  0  0  0
  161.2060  206.2050  154.6830 C   0  0  0  0  0  3  0  0  0  0  0  0
  160.5950  208.5320  154.9410 C   0  0  0  0  0  3  0  0  0  0  0  0
  160.8310  208.7450  153.5800 C   0  0  0  0  0  3  0  0  0  0  0  0
  1 12  1  0  0  0  0
  2  6  1  0  0  0  0
  2 12  2  0  0  0  0
  3 21  2  0  0  0  0
  3 16  1  0  0  0  0
  4 14  1  0  0  0  0
  5 13  1  0  0  0  0
  7 13  1  0  0  0  0
  7  9  2  0  0  0  0
  8 10  2  0  0  0  0
  9 11  1  0  0  0  0
 10 19  1  0  0  0  0
 11 14  2  0  0  0  0
 11 16  1  0  0  0  0
 12 23  1  0  0  0  0
 13  4  2  0  0  0  0
 14 18  1  0  0  0  0
 15 20  1  0  0  0  0
 15  1  2  0  0  0  0
 16  2  1  0  0  0  0
 17 10  1  0  0  0  0
 17 21  1  0  0  0  0
 18  6  2  0  0  0  0
 19 20  2  0  0  0  0
 21 15  1  0  0  0  0
 23 24  2  0  0  0  0
 23 27  1  0  0  0  0
 24 25  1  0  0  0  0
 25 22  2  0  0  0  0
 26 22  1  0  0  0  0
 27 26  2  0  0  0  0
M  END
>  <MODEL>
6

>  <REMARK>
 VINA RESULT:      -7.5      2.628      5.412
  Name = 
  1 active torsions:
  status: ('A' for Active; 'I' for Inactive)
    1  A    between atoms: C_9  and  C_15
                            x       y       z     vdW  Elec       q    Type
                         _______ _______ _______ _____ _____    ______ ____

>  <TORSDO>
F 1

$$$$
=
 OpenBabel11052423183D

 27 31  0  0  0  0  0  0  0  0999 V2000
  161.9950  208.6210  152.2030 C   0  0  0  0  0  3  0  0  0  0  0  0
  160.9860  206.3340  152.0290 C   0  0  0  0  0  0  0  0  0  0  0  0
  161.0430  207.3110  149.6790 C   0  0  0  0  0  3  0  0  0  0  0  0
  160.8360  202.5030  150.1920 C   0  0  0  0  0  3  0  0  0  0  0  0
  161.2470  201.0630  148.3020 O   0  0  0  0  0  1  0  0  0  0  0  0
  160.4900  205.1320  152.7470 C   0  0  0  0  0  3  0  0  0  0  0  0
  161.6400  203.4340  148.1100 C   0  0  0  0  0  3  0  0  0  0  0  0
  161.7130  211.2690  147.5580 O   0  0  0  0  0  0  0  0  0  0  0  0
  161.6320  204.7110  148.6770 C   0  0  0  0  0  3  0  0  0  0  0  0
  161.8320  210.6070  148.6220 C   0  0  0  0  0  0  0  0  0  0  0  0
  161.2230  204.9010  150.0100 C   0  0  0  0  0  0  0  0  0  0  0  0
  161.3390  207.4220  152.7500 C   0  0  0  0  0  0  0  0  0  0  0  0
  161.2400  202.3310  148.8660 C   0  0  0  0  0  0  0  0  0  0  0  0
  160.8300  203.7790  150.7630 C   0  0  0  0  0  0  0  0  0  0  0  0
  162.0250  209.1320  150.9750 C   0  0  0  0  0  0  0  0  0  0  0  0
  161.1950  206.2220  150.6020 N   0  0  0  0  0  0  0  0  0  0  0  0
  161.3190  209.3520  148.7010 N   0  0  0  0  0  2  0  0  0  0  0  0
  160.4120  203.9450  152.1550 C   0  0  0  0  0  3  0  0  0  0  0  0
  162.5070  211.1490  149.7080 C   0  0  0  0  0  3  0  0  0  0  0  0
  162.5930  210.4070  150.8830 C   0  0  0  0  0  3  0  0  0  0  0  0
  161.4180  208.5810  149.8220 C   0  0  0  0  0  0  0  0  0  0  0  0
  160.7640  207.6150  156.9990 C   0  0  0  0  0  3  0  0  0  0  0  0
  161.1510  207.4660  154.2230 C   0  0  0  0  0  0  0  0  0  0  0  0
  160.0940  206.7710  154.8320 C   0  0  0  0  0  3  0  0  0  0  0  0
  159.9050  206.8410  156.2140 C   0  0  0  0  0  3  0  0  0  0  0  0
  161.8100  208.3220  156.4010 C   0  0  0  0  0  3  0  0  0  0  0  0
  162.0000  208.2510  155.0180 C   0  0  0  0  0  3  0  0  0  0  0  0
  1 12  1  0  0  0  0
  2  6  1  0  0  0  0
  2 12  2  0  0  0  0
  3 21  2  0  0  0  0
  3 16  1  0  0  0  0
  4 14  1  0  0  0  0
  5 13  1  0  0  0  0
  7  9  2  0  0  0  0
  7 13  1  0  0  0  0
  8 10  2  0  0  0  0
  9 11  1  0  0  0  0
 10 17  1  0  0  0  0
 10 19  1  0  0  0  0
 11 16  1  0  0  0  0
 11 14  2  0  0  0  0
 12 23  1  0  0  0  0
 13  4  2  0  0  0  0
 14 18  1  0  0  0  0
 15  1  2  0  0  0  0
 16  2  1  0  0  0  0
 17 21  1  0  0  0  0
 18  6  2  0  0  0  0
 19 20  2  0  0  0  0
 20 15  1  0  0  0  0
 21 15  1  0  0  0  0
 23 24  2  0  0  0  0
 23 27  1  0  0  0  0
 24 25  1  0  0  0  0
 25 22  2  0  0  0  0
 26 22  1  0  0  0  0
 27 26  2  0  0  0  0
M  END
>  <MODEL>
7

>  <REMARK>
 VINA RESULT:      -7.1      2.529      5.538
  Name = 
  1 active torsions:
  status: ('A' for Active; 'I' for Inactive)
    1  A    between atoms: C_9  and  C_15
                            x       y       z     vdW  Elec       q    Type
                         _______ _______ _______ _____ _____    ______ ____

>  <TORSDO>
F 1

$$$$
=
 OpenBabel11052423183D

 27 31  0  0  0  0  0  0  0  0999 V2000
  161.0170  206.3970  150.3070 C   0  0  0  0  0  3  0  0  0  0  0  0
  161.6270  208.8070  150.6210 C   0  0  0  0  0  0  0  0  0  0  0  0
  162.2830  208.1680  148.2450 C   0  0  0  0  0  3  0  0  0  0  0  0
  161.5310  212.8380  149.2730 C   0  0  0  0  0  3  0  0  0  0  0  0
  161.3230  214.4530  147.4940 O   0  0  0  0  0  1  0  0  0  0  0  0
  161.7280  209.9560  151.5570 C   0  0  0  0  0  3  0  0  0  0  0  0
  161.4010  212.1000  146.9730 C   0  0  0  0  0  3  0  0  0  0  0  0
  162.8160  204.4900  145.6390 O   0  0  0  0  0  0  0  0  0  0  0  0
  161.5000  210.7710  147.3940 C   0  0  0  0  0  3  0  0  0  0  0  0
  162.3430  204.9730  146.7000 C   0  0  0  0  0  0  0  0  0  0  0  0
  161.6170  210.4580  148.7610 C   0  0  0  0  0  0  0  0  0  0  0  0
  161.3120  207.5900  151.1180 C   0  0  0  0  0  0  0  0  0  0  0  0
  161.4190  213.1330  147.9130 C   0  0  0  0  0  0  0  0  0  0  0  0
  161.6250  211.5090  149.6970 C   0  0  0  0  0  0  0  0  0  0  0  0
  161.3600  206.0630  149.0660 C   0  0  0  0  0  0  0  0  0  0  0  0
  161.7370  209.0850  149.2050 N   0  0  0  0  0  0  0  0  0  0  0  0
  162.5980  206.2650  147.0300 N   0  0  0  0  0  2  0  0  0  0  0  0
  161.7340  211.2120  151.1250 C   0  0  0  0  0  3  0  0  0  0  0  0
  161.5400  204.1940  147.5230 C   0  0  0  0  0  3  0  0  0  0  0  0
  161.0580  204.7450  148.7070 C   0  0  0  0  0  3  0  0  0  0  0  0
  162.1110  206.8510  148.1620 C   0  0  0  0  0  0  0  0  0  0  0  0
  160.8000  206.9500  155.3310 C   0  0  0  0  0  3  0  0  0  0  0  0
  161.1600  207.3680  152.5790 C   0  0  0  0  0  0  0  0  0  0  0  0
  161.3130  206.0850  153.1300 C   0  0  0  0  0  3  0  0  0  0  0  0
  161.1390  205.8790  154.5000 C   0  0  0  0  0  3  0  0  0  0  0  0
  160.6320  208.2270  154.7910 C   0  0  0  0  0  3  0  0  0  0  0  0
  160.8070  208.4350  153.4200 C   0  0  0  0  0  3  0  0  0  0  0  0
  1 12  1  0  0  0  0
  2 12  2  0  0  0  0
  2  6  1  0  0  0  0
  3 16  1  0  0  0  0
  4 14  1  0  0  0  0
  5 13  1  0  0  0  0
  7  9  2  0  0  0  0
  7 13  1  0  0  0  0
  8 10  2  0  0  0  0
  9 11  1  0  0  0  0
 10 17  1  0  0  0  0
 10 19  1  0  0  0  0
 11 16  1  0  0  0  0
 11 14  2  0  0  0  0
 12 23  1  0  0  0  0
 13  4  2  0  0  0  0
 14 18  1  0  0  0  0
 15  1  2  0  0  0  0
 16  2  1  0  0  0  0
 17 21  1  0  0  0  0
 18  6  2  0  0  0  0
 19 20  2  0  0  0  0
 20 15  1  0  0  0  0
 21  3  2  0  0  0  0
 21 15  1  0  0  0  0
 23 24  2  0  0  0  0
 23 27  1  0  0  0  0
 24 25  1  0  0  0  0
 25 22  2  0  0  0  0
 26 22  1  0  0  0  0
 27 26  2  0  0  0  0
M  END
>  <MODEL>
8

>  <REMARK>
 VINA RESULT:      -7.0      2.715      7.136
  Name = 
  1 active torsions:
  status: ('A' for Active; 'I' for Inactive)
    1  A    between atoms: C_9  and  C_15
                            x       y       z     vdW  Elec       q    Type
                         _______ _______ _______ _____ _____    ______ ____

>  <TORSDO>
F 1

$$$$
=
 OpenBabel11052423183D

 27 31  0  0  0  0  0  0  0  0999 V2000
  161.2370  207.6420  150.0260 C   0  0  0  0  0  3  0  0  0  0  0  0
  161.0450  207.6860  152.5240 C   0  0  0  0  0  0  0  0  0  0  0  0
  161.7080  210.0290  151.7800 C   0  0  0  0  0  3  0  0  0  0  0  0
  159.5420  209.4790  156.0730 C   0  0  0  0  0  3  0  0  0  0  0  0
  158.6950  211.4010  157.2590 O   0  0  0  0  0  1  0  0  0  0  0  0
  160.8290  206.9090  153.7710 C   0  0  0  0  0  3  0  0  0  0  0  0
  159.5030  211.6470  155.0000 C   0  0  0  0  0  3  0  0  0  0  0  0
  163.2350  212.2270  148.1130 O   0  0  0  0  0  0  0  0  0  0  0  0
  160.0600  211.0870  153.8470 C   0  0  0  0  0  3  0  0  0  0  0  0
  162.7040  211.1830  148.5740 C   0  0  0  0  0  0  0  0  0  0  0  0
  160.3670  209.7140  153.7930 C   0  0  0  0  0  0  0  0  0  0  0  0
  161.1810  207.0160  151.3570 C   0  0  0  0  0  0  0  0  0  0  0  0
  159.2460  210.8440  156.1130 C   0  0  0  0  0  0  0  0  0  0  0  0
  160.0950  208.9160  154.9200 C   0  0  0  0  0  0  0  0  0  0  0  0
  161.5840  208.8670  149.6370 C   0  0  0  0  0  0  0  0  0  0  0  0
  160.9600  209.1280  152.6100 N   0  0  0  0  0  0  0  0  0  0  0  0
  162.5440  211.0390  149.9150 N   0  0  0  0  0  2  0  0  0  0  0  0
  160.3940  207.4830  154.8880 C   0  0  0  0  0  3  0  0  0  0  0  0
  162.2590  210.1890  147.7130 C   0  0  0  0  0  3  0  0  0  0  0  0
  161.7070  209.0310  148.2530 C   0  0  0  0  0  3  0  0  0  0  0  0
  161.9720  209.9360  150.4780 C   0  0  0  0  0  0  0  0  0  0  0  0
  161.1950  202.7250  151.2590 C   0  0  0  0  0  3  0  0  0  0  0  0
  161.2110  205.5310  151.3180 C   0  0  0  0  0  0  0  0  0  0  0  0
  161.1930  204.8460  150.0930 C   0  0  0  0  0  3  0  0  0  0  0  0
  161.1900  203.4490  150.0640 C   0  0  0  0  0  3  0  0  0  0  0  0
  161.1990  203.3980  152.4830 C   0  0  0  0  0  3  0  0  0  0  0  0
  161.2020  204.7950  152.5130 C   0  0  0  0  0  3  0  0  0  0  0  0
  1 12  1  0  0  0  0
  2 16  1  0  0  0  0
  2  6  1  0  0  0  0
  3 16  1  0  0  0  0
  4 13  1  0  0  0  0
  6 18  2  0  0  0  0
  7 13  2  0  0  0  0
  8 10  2  0  0  0  0
  9  7  1  0  0  0  0
 10 17  1  0  0  0  0
 11  9  2  0  0  0  0
 11 14  1  0  0  0  0
 12  2  2  0  0  0  0
 13  5  1  0  0  0  0
 14  4  2  0  0  0  0
 15  1  2  0  0  0  0
 15 21  1  0  0  0  0
 16 11  1  0  0  0  0
 17 21  1  0  0  0  0
 18 14  1  0  0  0  0
 19 20  2  0  0  0  0
 19 10  1  0  0  0  0
 20 15  1  0  0  0  0
 21  3  2  0  0  0  0
 22 26  1  0  0  0  0
 23 12  1  0  0  0  0
 23 27  1  0  0  0  0
 24 23  2  0  0  0  0
 25 24  1  0  0  0  0
 25 22  2  0  0  0  0
 26 27  2  0  0  0  0
M  END
>  <MODEL>
9

>  <REMARK>
 VINA RESULT:      -7.0      2.539      7.393
  Name = 
  1 active torsions:
  status: ('A' for Active; 'I' for Inactive)
    1  A    between atoms: C_9  and  C_15
                            x       y       z     vdW  Elec       q    Type
                         _______ _______ _______ _____ _____    ______ ____

>  <TORSDO>
F 1

$$$$
