=
 OpenBabel11052422203D

 25 28  0  0  1  0  0  0  0  0999 V2000
  161.0580  204.6160  150.5220 C   0  0  0  0  0  0  0  0  0  0  0  0
  161.3470  205.9400  150.1760 C   0  0  0  0  0  0  0  0  0  0  0  0
  161.7100  204.9600  152.8180 C   0  0  0  0  0  3  0  0  0  0  0  0
  160.4590  203.5180  149.7130 C   0  0  2  0  0  3  0  0  0  0  0  0
  162.1330  207.2610  148.2840 N   0  0  0  0  0  0  0  0  0  0  0  0
  160.8260  200.7330  149.0780 C   0  0  0  0  0  3  0  0  0  0  0  0
  162.0230  206.2900  152.5040 C   0  0  0  0  0  3  0  0  0  0  0  0
  160.4600  202.4200  150.7440 C   0  0  0  0  0  0  0  0  0  0  0  0
  160.4000  201.0200  150.3160 C   0  0  0  0  0  3  0  0  0  0  0  0
  162.2650  208.2430  150.9330 C   0  0  2  0  0  3  0  0  0  0  0  0
  162.3040  208.9860  152.1140 O   0  0  0  0  0  1  0  0  0  0  0  0
  161.0640  206.3940  148.7710 C   0  0  0  0  0  2  0  0  0  0  0  0
  161.3850  201.7940  148.1980 C   0  0  0  0  0  3  0  0  0  0  0  0
  161.2100  204.1520  151.8040 C   0  0  0  0  0  0  0  0  0  0  0  0
  160.8740  202.7790  151.9180 N   0  0  0  0  0  0  0  0  0  0  0  0
  161.3600  208.9570  149.9380 C   0  0  0  0  0  2  0  0  0  0  0  0
  161.2750  203.0950  148.5170 C   0  0  0  0  0  3  0  0  0  0  0  0
  161.7750  208.6680  148.4930 C   0  0  0  0  0  2  0  0  0  0  0  0
  161.8290  206.8120  151.2020 C   0  0  0  0  0  0  0  0  0  0  0  0
  162.3700  207.0180  146.8570 C   0  0  0  0  0  2  0  0  0  0  0  0
  163.1970  204.8010  146.0360 C   0  0  0  0  0  1  0  0  0  0  0  0
  161.9650  205.6140  146.3910 C   0  0  2  0  0  3  0  0  0  0  0  0
  161.0610  205.7100  145.2100 C   0  0  0  0  0  0  0  0  0  0  0  0
  159.9430  206.2750  145.3240 O   0  0  0  0  0  1  0  0  0  0  0  0
  161.4430  205.1810  143.9830 O   0  0  0  0  0  0  0  0  0  0  0  0
  1 14  1  0  0  0  0
  2  1  2  0  0  0  0
  2 19  1  0  0  0  0
  4 17  1  6  0  0  0
  4  1  1  0  0  0  0
  4  8  1  0  0  0  0
  5 18  1  0  0  0  0
  5 12  1  0  0  0  0
  6  9  2  0  0  0  0
  7  3  1  0  0  0  0
  8 15  2  0  0  0  0
  9  8  1  0  0  0  0
 10 19  1  0  0  0  0
 10 11  1  1  0  0  0
 12  2  1  0  0  0  0
 13 17  2  0  0  0  0
 13  6  1  0  0  0  0
 14 15  1  0  0  0  0
 14  3  2  0  0  0  0
 16 10  1  0  0  0  0
 18 16  1  0  0  0  0
 19  7  2  0  0  0  0
 20  5  1  0  0  0  0
 22 21  1  6  0  0  0
 22 20  1  0  0  0  0
 23 24  1  0  0  0  0
 23 22  1  0  0  0  0
 25 23  2  0  0  0  0
M  END
>  <MODEL>
1

>  <REMARK>
 VINA RESULT:      -9.1      0.000      0.000
  Name = 
  3 active torsions:
  status: ('A' for Active; 'I' for Inactive)
    1  A    between atoms: C_2  and  C_25
    2  A    between atoms: N_6  and  C_15
    3  A    between atoms: C_15  and  C_25
                            x       y       z     vdW  Elec       q    Type
                         _______ _______ _______ _____ _____    ______ ____

>  <TORSDO>
F 3

$$$$
=
 OpenBabel11052422203D

 25 28  0  0  1  0  0  0  0  0999 V2000
  161.0770  206.0960  150.7260 C   0  0  0  0  0  0  0  0  0  0  0  0
  161.1160  207.1190  151.6790 C   0  0  0  0  0  0  0  0  0  0  0  0
  161.2080  204.3750  152.4100 C   0  0  0  0  0  3  0  0  0  0  0  0
  160.9010  206.1620  149.2490 C   0  0  2  0  0  3  0  0  0  0  0  0
  161.9100  209.4080  151.9510 N   0  0  0  0  0  0  0  0  0  0  0  0
  162.0000  205.1140  146.8010 C   0  0  0  0  0  3  0  0  0  0  0  0
  161.2620  205.3750  153.3920 C   0  0  0  0  0  3  0  0  0  0  0  0
  160.9640  204.6930  148.9240 C   0  0  0  0  0  0  0  0  0  0  0  0
  161.3030  204.2620  147.5650 C   0  0  0  0  0  3  0  0  0  0  0  0
  161.3330  207.7650  154.1790 C   0  0  2  0  0  3  0  0  0  0  0  0
  160.9890  207.2040  155.4110 O   0  0  0  0  0  1  0  0  0  0  0  0
  160.9960  208.5420  151.2100 C   0  0  0  0  0  2  0  0  0  0  0  0
  162.4520  206.4260  147.3390 C   0  0  0  0  0  3  0  0  0  0  0  0
  161.0970  204.7710  151.0830 C   0  0  0  0  0  0  0  0  0  0  0  0
  161.0670  203.9130  149.9540 N   0  0  0  0  0  0  0  0  0  0  0  0
  160.4850  209.0100  153.9560 C   0  0  0  0  0  2  0  0  0  0  0  0
  161.9930  206.8950  148.5110 C   0  0  0  0  0  3  0  0  0  0  0  0
  161.2090  210.0330  153.0770 C   0  0  0  0  0  2  0  0  0  0  0  0
  161.1930  206.7490  153.0580 C   0  0  0  0  0  0  0  0  0  0  0  0
  162.4490  210.4460  151.0660 C   0  0  0  0  0  2  0  0  0  0  0  0
  162.2870  210.5700  148.5700 C   0  0  0  0  0  1  0  0  0  0  0  0
  161.5420  210.7800  149.8760 C   0  0  2  0  0  3  0  0  0  0  0  0
  161.0740  212.1930  149.9720 C   0  0  0  0  0  0  0  0  0  0  0  0
  161.4010  213.0190  149.0820 O   0  0  0  0  0  0  0  0  0  0  0  0
  160.2780  212.6040  151.0350 O   0  0  0  0  0  1  0  0  0  0  0  0
  1 14  2  0  0  0  0
  1  2  1  0  0  0  0
  2 19  2  0  0  0  0
  3  7  2  0  0  0  0
  4 17  1  6  0  0  0
  4  1  1  0  0  0  0
  5 18  1  0  0  0  0
  6 13  1  0  0  0  0
  6  9  2  0  0  0  0
  8  4  1  0  0  0  0
  8 15  2  0  0  0  0
  9  8  1  0  0  0  0
 10 11  1  1  0  0  0
 12  2  1  0  0  0  0
 12  5  1  0  0  0  0
 13 17  2  0  0  0  0
 14  3  1  0  0  0  0
 15 14  1  0  0  0  0
 16 10  1  0  0  0  0
 18 16  1  0  0  0  0
 19  7  1  0  0  0  0
 19 10  1  0  0  0  0
 20  5  1  0  0  0  0
 22 21  1  6  0  0  0
 22 23  1  0  0  0  0
 22 20  1  0  0  0  0
 23 25  1  0  0  0  0
 24 23  2  0  0  0  0
M  END
>  <MODEL>
2

>  <REMARK>
 VINA RESULT:      -7.9      3.165      4.715
  Name = 
  3 active torsions:
  status: ('A' for Active; 'I' for Inactive)
    1  A    between atoms: C_2  and  C_25
    2  A    between atoms: N_6  and  C_15
    3  A    between atoms: C_15  and  C_25
                            x       y       z     vdW  Elec       q    Type
                         _______ _______ _______ _____ _____    ______ ____

>  <TORSDO>
F 3

$$$$
=
 OpenBabel11052422203D

 25 28  0  0  1  0  0  0  0  0999 V2000
  161.2410  205.9510  149.7030 C   0  0  0  0  0  0  0  0  0  0  0  0
  161.2960  207.1970  150.3370 C   0  0  0  0  0  0  0  0  0  0  0  0
  161.4650  204.7610  151.7880 C   0  0  0  0  0  3  0  0  0  0  0  0
  161.0100  205.6070  148.2730 C   0  0  2  0  0  3  0  0  0  0  0  0
  162.0570  209.4780  149.9380 N   0  0  0  0  0  0  0  0  0  0  0  0
  162.0380  203.9350  146.1650 C   0  0  0  0  0  3  0  0  0  0  0  0
  161.5360  205.9920  152.4550 C   0  0  0  0  0  3  0  0  0  0  0  0
  161.0890  204.1060  148.3620 C   0  0  0  0  0  0  0  0  0  0  0  0
  161.3850  203.3200  147.1610 C   0  0  0  0  0  3  0  0  0  0  0  0
  161.5930  208.5080  152.5530 C   0  0  2  0  0  3  0  0  0  0  0  0
  161.3030  208.3050  153.9040 O   0  0  0  0  0  1  0  0  0  0  0  0
  161.1330  208.4350  149.5000 C   0  0  0  0  0  2  0  0  0  0  0  0
  162.4850  205.3470  146.3030 C   0  0  0  0  0  3  0  0  0  0  0  0
  161.2980  204.7750  150.4100 C   0  0  0  0  0  0  0  0  0  0  0  0
  161.2430  203.6400  149.5620 N   0  0  0  0  0  0  0  0  0  0  0  0
  160.7140  209.6370  152.0300 C   0  0  0  0  0  2  0  0  0  0  0  0
  162.0610  206.1170  147.3200 C   0  0  0  0  0  3  0  0  0  0  0  0
  161.3860  210.3840  150.8760 C   0  0  0  0  0  2  0  0  0  0  0  0
  161.4300  207.2210  151.7600 C   0  0  0  0  0  0  0  0  0  0  0  0
  162.5450  210.2370  148.7810 C   0  0  0  0  0  2  0  0  0  0  0  0
  160.7990  211.5710  147.5790 C   0  0  0  0  0  1  0  0  0  0  0  0
  161.8970  211.6180  148.6270 C   0  0  2  0  0  3  0  0  0  0  0  0
  162.9260  212.6250  148.2400 C   0  0  0  0  0  0  0  0  0  0  0  0
  164.0730  212.2420  147.8930 O   0  0  0  0  0  0  0  0  0  0  0  0
  162.6280  213.9830  148.2570 O   0  0  0  0  0  1  0  0  0  0  0  0
  1  2  2  0  0  0  0
  1 14  1  0  0  0  0
  2 19  1  0  0  0  0
  3  7  1  0  0  0  0
  4 17  1  6  0  0  0
  4  8  1  0  0  0  0
  4  1  1  0  0  0  0
  5 18  1  0  0  0  0
  6 13  1  0  0  0  0
  6  9  2  0  0  0  0
  8 15  2  0  0  0  0
  9  8  1  0  0  0  0
 10 11  1  1  0  0  0
 12  5  1  0  0  0  0
 12  2  1  0  0  0  0
 13 17  2  0  0  0  0
 14  3  2  0  0  0  0
 15 14  1  0  0  0  0
 16 10  1  0  0  0  0
 18 16  1  0  0  0  0
 19  7  2  0  0  0  0
 19 10  1  0  0  0  0
 20  5  1  0  0  0  0
 22 21  1  6  0  0  0
 22 20  1  0  0  0  0
 23 25  1  0  0  0  0
 23 22  1  0  0  0  0
 24 23  2  0  0  0  0
M  END
>  <MODEL>
3

>  <REMARK>
 VINA RESULT:      -7.7      2.841      4.270
  Name = 
  3 active torsions:
  status: ('A' for Active; 'I' for Inactive)
    1  A    between atoms: C_2  and  C_25
    2  A    between atoms: N_6  and  C_15
    3  A    between atoms: C_15  and  C_25
                            x       y       z     vdW  Elec       q    Type
                         _______ _______ _______ _____ _____    ______ ____

>  <TORSDO>
F 3

$$$$
=
 OpenBabel11052422203D

 25 28  0  0  1  0  0  0  0  0999 V2000
  160.9850  203.9480  148.1820 C   0  0  0  0  0  0  0  0  0  0  0  0
  161.0620  204.3210  149.5290 C   0  0  0  0  0  0  0  0  0  0  0  0
  160.8890  201.6010  148.7260 C   0  0  0  0  0  3  0  0  0  0  0  0
  160.8870  204.7860  146.9550 C   0  0  2  0  0  3  0  0  0  0  0  0
  162.0290  206.0480  150.9500 N   0  0  0  0  0  0  0  0  0  0  0  0
  162.0140  205.0560  144.3180 C   0  0  0  0  0  3  0  0  0  0  0  0
  160.9770  201.9370  150.0840 C   0  0  0  0  0  3  0  0  0  0  0  0
  160.8440  203.6990  145.9140 C   0  0  0  0  0  0  0  0  0  0  0  0
  161.2120  204.0030  144.5280 C   0  0  0  0  0  3  0  0  0  0  0  0
  161.2090  203.5540  152.0000 C   0  0  2  0  0  3  0  0  0  0  0  0
  160.7590  202.4730  152.7610 O   0  0  0  0  0  1  0  0  0  0  0  0
  161.0840  205.7840  149.8690 C   0  0  0  0  0  2  0  0  0  0  0  0
  162.5470  205.8490  145.4590 C   0  0  0  0  0  3  0  0  0  0  0  0
  160.8760  202.6350  147.7980 C   0  0  0  0  0  0  0  0  0  0  0  0
  160.8300  202.4930  146.3880 N   0  0  0  0  0  0  0  0  0  0  0  0
  160.4790  204.8100  152.4580 C   0  0  0  0  0  2  0  0  0  0  0  0
  162.0720  205.6850  146.7050 C   0  0  0  0  0  3  0  0  0  0  0  0
  161.3280  206.0640  152.2380 C   0  0  0  0  0  2  0  0  0  0  0  0
  161.0400  203.2840  150.5140 C   0  0  0  0  0  0  0  0  0  0  0  0
  162.6960  207.3360  150.7340 C   0  0  0  0  0  2  0  0  0  0  0  0
  162.0740  208.6650  148.7040 C   0  0  0  0  0  1  0  0  0  0  0  0
  161.7750  208.4260  150.1730 C   0  0  2  0  0  3  0  0  0  0  0  0
  161.9550  209.6920  150.9400 C   0  0  0  0  0  0  0  0  0  0  0  0
  161.9690  210.7930  150.3310 O   0  0  0  0  0  0  0  0  0  0  0  0
  162.1060  209.6660  152.3210 O   0  0  0  0  0  1  0  0  0  0  0  0
  1  2  1  0  0  0  0
  2 12  1  0  0  0  0
  2 19  2  0  0  0  0
  3  7  2  0  0  0  0
  4 17  1  6  0  0  0
  4  1  1  0  0  0  0
  5 18  1  0  0  0  0
  6  9  2  0  0  0  0
  6 13  1  0  0  0  0
  7 19  1  0  0  0  0
  8 15  2  0  0  0  0
  8  4  1  0  0  0  0
  9  8  1  0  0  0  0
 10 16  1  0  0  0  0
 10 11  1  1  0  0  0
 12  5  1  0  0  0  0
 13 17  2  0  0  0  0
 14  1  2  0  0  0  0
 14  3  1  0  0  0  0
 15 14  1  0  0  0  0
 18 16  1  0  0  0  0
 19 10  1  0  0  0  0
 20  5  1  0  0  0  0
 22 21  1  6  0  0  0
 22 20  1  0  0  0  0
 22 23  1  0  0  0  0
 23 25  1  0  0  0  0
 24 23  2  0  0  0  0
M  END
>  <MODEL>
4

>  <REMARK>
 VINA RESULT:      -7.5      2.557      5.128
  Name = 
  3 active torsions:
  status: ('A' for Active; 'I' for Inactive)
    1  A    between atoms: C_2  and  C_25
    2  A    between atoms: N_6  and  C_15
    3  A    between atoms: C_15  and  C_25
                            x       y       z     vdW  Elec       q    Type
                         _______ _______ _______ _____ _____    ______ ____

>  <TORSDO>
F 3

$$$$
=
 OpenBabel11052422203D

 25 28  0  0  1  0  0  0  0  0999 V2000
  161.1660  205.1010  149.7660 C   0  0  0  0  0  0  0  0  0  0  0  0
  161.2040  206.0900  150.7550 C   0  0  0  0  0  0  0  0  0  0  0  0
  161.1680  203.3210  151.3930 C   0  0  0  0  0  3  0  0  0  0  0  0
  161.0500  205.2220  148.2860 C   0  0  2  0  0  3  0  0  0  0  0  0
  162.0680  208.3360  151.1350 N   0  0  0  0  0  0  0  0  0  0  0  0
  162.2060  204.2150  145.8470 C   0  0  0  0  0  3  0  0  0  0  0  0
  161.2190  204.2850  152.4100 C   0  0  0  0  0  3  0  0  0  0  0  0
  161.0740  203.7630  147.9140 C   0  0  0  0  0  0  0  0  0  0  0  0
  161.4500  203.3640  146.5550 C   0  0  0  0  0  3  0  0  0  0  0  0
  161.3460  206.6440  153.2820 C   0  0  2  0  0  3  0  0  0  0  0  0
  160.9330  206.0560  154.4800 O   0  0  0  0  0  1  0  0  0  0  0  0
  161.1530  207.5310  150.3310 C   0  0  0  0  0  2  0  0  0  0  0  0
  162.6840  205.4910  146.4470 C   0  0  0  0  0  3  0  0  0  0  0  0
  161.1240  203.7640  150.0780 C   0  0  0  0  0  0  0  0  0  0  0  0
  161.1080  202.9460  148.9200 N   0  0  0  0  0  0  0  0  0  0  0  0
  160.5520  207.9260  153.0700 C   0  0  0  0  0  2  0  0  0  0  0  0
  162.1970  205.9370  147.6170 C   0  0  0  0  0  3  0  0  0  0  0  0
  161.3470  208.9500  152.2550 C   0  0  0  0  0  2  0  0  0  0  0  0
  161.2130  205.6710  152.1220 C   0  0  0  0  0  0  0  0  0  0  0  0
  162.6790  209.3830  150.3080 C   0  0  0  0  0  2  0  0  0  0  0  0
  162.0830  209.1700  147.8850 C   0  0  0  0  0  1  0  0  0  0  0  0
  161.7720  209.8930  149.1830 C   0  0  2  0  0  3  0  0  0  0  0  0
  161.9580  211.3620  149.0030 C   0  0  0  0  0  0  0  0  0  0  0  0
  162.8460  211.7860  148.2190 O   0  0  0  0  0  0  0  0  0  0  0  0
  161.1580  212.2650  149.6920 O   0  0  0  0  0  1  0  0  0  0  0  0
  1 14  2  0  0  0  0
  1  2  1  0  0  0  0
  2 19  2  0  0  0  0
  3  7  2  0  0  0  0
  4 17  1  6  0  0  0
  4  1  1  0  0  0  0
  5 18  1  0  0  0  0
  6 13  1  0  0  0  0
  6  9  2  0  0  0  0
  8  4  1  0  0  0  0
  8 15  2  0  0  0  0
  9  8  1  0  0  0  0
 10 11  1  1  0  0  0
 12  2  1  0  0  0  0
 12  5  1  0  0  0  0
 13 17  2  0  0  0  0
 14  3  1  0  0  0  0
 15 14  1  0  0  0  0
 16 10  1  0  0  0  0
 18 16  1  0  0  0  0
 19  7  1  0  0  0  0
 19 10  1  0  0  0  0
 20  5  1  0  0  0  0
 22 21  1  6  0  0  0
 22 20  1  0  0  0  0
 23 22  1  0  0  0  0
 23 25  1  0  0  0  0
 24 23  2  0  0  0  0
M  END
>  <MODEL>
5

>  <REMARK>
 VINA RESULT:      -7.4      2.738      4.114
  Name = 
  3 active torsions:
  status: ('A' for Active; 'I' for Inactive)
    1  A    between atoms: C_2  and  C_25
    2  A    between atoms: N_6  and  C_15
    3  A    between atoms: C_15  and  C_25
                            x       y       z     vdW  Elec       q    Type
                         _______ _______ _______ _____ _____    ______ ____

>  <TORSDO>
F 3

$$$$
=
 OpenBabel11052422203D

 25 28  0  0  1  0  0  0  0  0999 V2000
  161.6120  205.1910  150.2820 C   0  0  0  0  0  0  0  0  0  0  0  0
  161.3220  203.9990  149.6080 C   0  0  0  0  0  0  0  0  0  0  0  0
  160.8310  204.3170  152.3890 C   0  0  0  0  0  3  0  0  0  0  0  0
  162.2690  206.4360  149.7970 C   0  0  2  0  0  3  0  0  0  0  0  0
  160.6220  203.2010  147.4150 N   0  0  0  0  0  0  0  0  0  0  0  0
  161.9780  209.3010  149.8460 C   0  0  0  0  0  3  0  0  0  0  0  0
  160.5160  203.1120  151.7440 C   0  0  0  0  0  3  0  0  0  0  0  0
  162.2280  207.2500  151.0640 C   0  0  0  0  0  0  0  0  0  0  0  0
  162.3310  208.7100  150.9950 C   0  0  0  0  0  3  0  0  0  0  0  0
  160.3320  201.6080  149.7330 C   0  0  2  0  0  3  0  0  0  0  0  0
  160.2170  200.6000  150.6930 O   0  0  0  0  0  1  0  0  0  0  0  0
  161.6760  203.8940  148.1510 C   0  0  0  0  0  2  0  0  0  0  0  0
  161.4530  208.5020  148.7060 C   0  0  0  0  0  3  0  0  0  0  0  0
  161.3970  205.3330  151.6300 C   0  0  0  0  0  0  0  0  0  0  0  0
  161.7450  206.6270  152.0930 N   0  0  0  0  0  0  0  0  0  0  0  0
  161.2800  201.1330  148.6390 C   0  0  0  0  0  2  0  0  0  0  0  0
  161.5260  207.1600  148.7020 C   0  0  0  0  0  3  0  0  0  0  0  0
  160.9480  201.7760  147.2910 C   0  0  0  0  0  2  0  0  0  0  0  0
  160.7730  202.9180  150.3650 C   0  0  0  0  0  0  0  0  0  0  0  0
  160.4670  203.7910  146.0810 C   0  0  0  0  0  2  0  0  0  0  0  0
  160.0810  206.2030  145.5310 C   0  0  0  0  0  1  0  0  0  0  0  0
  161.1190  205.1710  145.9330 C   0  0  2  0  0  3  0  0  0  0  0  0
  162.2040  205.1170  144.9120 C   0  0  0  0  0  0  0  0  0  0  0  0
  161.9590  205.4530  143.7240 O   0  0  0  0  0  0  0  0  0  0  0  0
  163.4830  204.7000  145.2610 O   0  0  0  0  0  1  0  0  0  0  0  0
  1 14  1  0  0  0  0
  2  1  2  0  0  0  0
  2 19  1  0  0  0  0
  4 17  1  6  0  0  0
  4  1  1  0  0  0  0
  4  8  1  0  0  0  0
  5 12  1  0  0  0  0
  6  9  2  0  0  0  0
  7  3  1  0  0  0  0
  8 15  2  0  0  0  0
  9  8  1  0  0  0  0
 10 19  1  0  0  0  0
 10 11  1  1  0  0  0
 12  2  1  0  0  0  0
 13  6  1  0  0  0  0
 14 15  1  0  0  0  0
 14  3  2  0  0  0  0
 16 10  1  0  0  0  0
 17 13  2  0  0  0  0
 18  5  1  0  0  0  0
 18 16  1  0  0  0  0
 19  7  2  0  0  0  0
 20  5  1  0  0  0  0
 22 21  1  6  0  0  0
 22 20  1  0  0  0  0
 23 25  1  0  0  0  0
 23 22  1  0  0  0  0
 24 23  2  0  0  0  0
M  END
>  <MODEL>
6

>  <REMARK>
 VINA RESULT:      -7.1      2.237      4.898
  Name = 
  3 active torsions:
  status: ('A' for Active; 'I' for Inactive)
    1  A    between atoms: C_2  and  C_25
    2  A    between atoms: N_6  and  C_15
    3  A    between atoms: C_15  and  C_25
                            x       y       z     vdW  Elec       q    Type
                         _______ _______ _______ _____ _____    ______ ____

>  <TORSDO>
F 3

$$$$
=
 OpenBabel11052422203D

 25 28  0  0  1  0  0  0  0  0999 V2000
  161.7580  207.3110  150.9860 C   0  0  0  0  0  0  0  0  0  0  0  0
  161.5220  205.9820  150.6190 C   0  0  0  0  0  0  0  0  0  0  0  0
  160.9160  206.9560  153.2180 C   0  0  0  0  0  3  0  0  0  0  0  0
  162.4040  208.4190  150.2300 C   0  0  2  0  0  3  0  0  0  0  0  0
  160.9250  204.6480  148.6690 N   0  0  0  0  0  0  0  0  0  0  0  0
  162.0460  211.1980  149.5620 C   0  0  0  0  0  3  0  0  0  0  0  0
  160.6550  205.6210  152.8800 C   0  0  0  0  0  3  0  0  0  0  0  0
  162.2960  209.5170  151.2550 C   0  0  0  0  0  0  0  0  0  0  0  0
  162.3680  210.9180  150.8320 C   0  0  0  0  0  3  0  0  0  0  0  0
  160.5830  203.6640  151.2970 C   0  0  2  0  0  3  0  0  0  0  0  0
  160.4540  202.9200  152.4720 O   0  0  0  0  0  1  0  0  0  0  0  0
  161.9330  205.5330  149.2440 C   0  0  0  0  0  2  0  0  0  0  0  0
  161.5840  210.1270  148.6380 C   0  0  0  0  0  3  0  0  0  0  0  0
  161.4880  207.7730  152.2500 C   0  0  0  0  0  0  0  0  0  0  0  0
  161.7880  209.1510  152.3910 N   0  0  0  0  0  0  0  0  0  0  0  0
  161.5820  202.9650  150.3850 C   0  0  0  0  0  2  0  0  0  0  0  0
  161.6880  208.8280  148.9680 C   0  0  0  0  0  3  0  0  0  0  0  0
  161.2890  203.2470  148.9100 C   0  0  0  0  0  2  0  0  0  0  0  0
  160.9690  205.1020  151.6010 C   0  0  0  0  0  0  0  0  0  0  0  0
  160.8090  204.8860  147.2260 C   0  0  0  0  0  2  0  0  0  0  0  0
  162.8550  204.6830  145.7970 C   0  0  0  0  0  1  0  0  0  0  0  0
  161.6600  203.9420  146.3700 C   0  0  2  0  0  3  0  0  0  0  0  0
  160.8370  203.3740  145.2640 C   0  0  0  0  0  0  0  0  0  0  0  0
  160.4490  204.1200  144.3280 O   0  0  0  0  0  0  0  0  0  0  0  0
  160.4970  202.0260  145.2560 O   0  0  0  0  0  1  0  0  0  0  0  0
  1 14  1  0  0  0  0
  2  1  2  0  0  0  0
  2 19  1  0  0  0  0
  4 17  1  6  0  0  0
  4  1  1  0  0  0  0
  4  8  1  0  0  0  0
  5 18  1  0  0  0  0
  5 12  1  0  0  0  0
  6  9  2  0  0  0  0
  7  3  1  0  0  0  0
  8 15  2  0  0  0  0
  9  8  1  0  0  0  0
 10 19  1  0  0  0  0
 10 11  1  1  0  0  0
 12  2  1  0  0  0  0
 13 17  2  0  0  0  0
 13  6  1  0  0  0  0
 14 15  1  0  0  0  0
 14  3  2  0  0  0  0
 16 10  1  0  0  0  0
 18 16  1  0  0  0  0
 19  7  2  0  0  0  0
 20  5  1  0  0  0  0
 22 21  1  6  0  0  0
 22 20  1  0  0  0  0
 23 22  1  0  0  0  0
 24 23  2  0  0  0  0
 25 23  1  0  0  0  0
M  END
>  <MODEL>
7

>  <REMARK>
 VINA RESULT:      -7.0      2.216      5.088
  Name = 
  3 active torsions:
  status: ('A' for Active; 'I' for Inactive)
    1  A    between atoms: C_2  and  C_25
    2  A    between atoms: N_6  and  C_15
    3  A    between atoms: C_15  and  C_25
                            x       y       z     vdW  Elec       q    Type
                         _______ _______ _______ _____ _____    ______ ____

>  <TORSDO>
F 3

$$$$
=
 OpenBabel11052422203D

 25 28  0  0  1  0  0  0  0  0999 V2000
  161.5060  205.6490  149.5920 C   0  0  0  0  0  0  0  0  0  0  0  0
  161.6410  206.9170  150.1680 C   0  0  0  0  0  0  0  0  0  0  0  0
  161.2420  206.5640  147.3770 C   0  0  0  0  0  3  0  0  0  0  0  0
  161.6200  204.2960  150.2040 C   0  0  2  0  0  3  0  0  0  0  0  0
  161.1540  208.1030  152.2400 N   0  0  0  0  0  0  0  0  0  0  0  0
  160.2830  201.7460  150.2920 C   0  0  0  0  0  3  0  0  0  0  0  0
  161.3600  207.8510  147.9210 C   0  0  0  0  0  3  0  0  0  0  0  0
  161.3570  203.4490  148.9870 C   0  0  0  0  0  0  0  0  0  0  0  0
  160.9030  202.0650  149.1470 C   0  0  0  0  0  3  0  0  0  0  0  0
  161.6260  209.4850  149.8190 C   0  0  2  0  0  3  0  0  0  0  0  0
  161.9550  210.3770  148.7960 O   0  0  0  0  0  1  0  0  0  0  0  0
  161.9160  207.0100  151.6420 C   0  0  0  0  0  2  0  0  0  0  0  0
  160.0250  202.7770  151.3330 C   0  0  0  0  0  3  0  0  0  0  0  0
  161.3390  205.4800  148.2400 C   0  0  0  0  0  0  0  0  0  0  0  0
  161.2070  204.1140  147.8850 N   0  0  0  0  0  0  0  0  0  0  0  0
  162.6120  209.6700  150.9650 C   0  0  0  0  0  2  0  0  0  0  0  0
  160.5930  203.9930  151.2670 C   0  0  0  0  0  3  0  0  0  0  0  0
  161.9800  209.3120  152.3120 C   0  0  0  0  0  2  0  0  0  0  0  0
  161.5840  208.0550  149.3040 C   0  0  0  0  0  0  0  0  0  0  0  0
  160.7070  207.7280  153.5860 C   0  0  0  0  0  2  0  0  0  0  0  0
  161.5830  208.0020  155.9160 C   0  0  0  0  0  1  0  0  0  0  0  0
  161.1060  208.7330  154.6740 C   0  0  2  0  0  3  0  0  0  0  0  0
  159.9460  209.6060  155.0130 C   0  0  0  0  0  0  0  0  0  0  0  0
  159.3280  209.4290  156.0940 O   0  0  0  0  0  1  0  0  0  0  0  0
  159.5440  210.6150  154.1450 O   0  0  0  0  0  0  0  0  0  0  0  0
  1  2  1  0  0  0  0
  1  4  1  0  0  0  0
  2 12  1  0  0  0  0
  3  7  2  0  0  0  0
  3 14  1  0  0  0  0
  4 17  1  1  0  0  0
  5 18  1  0  0  0  0
  5 20  1  0  0  0  0
  6 13  1  0  0  0  0
  7 19  1  0  0  0  0
  8  9  1  0  0  0  0
  8  4  1  0  0  0  0
  9  6  2  0  0  0  0
 10 11  1  6  0  0  0
 10 16  1  0  0  0  0
 12  5  1  0  0  0  0
 14  1  2  0  0  0  0
 15 14  1  0  0  0  0
 15  8  2  0  0  0  0
 16 18  1  0  0  0  0
 17 13  2  0  0  0  0
 19 10  1  0  0  0  0
 19  2  2  0  0  0  0
 20 22  1  0  0  0  0
 22 23  1  0  0  0  0
 22 21  1  1  0  0  0
 23 24  1  0  0  0  0
 25 23  2  0  0  0  0
M  END
>  <MODEL>
8

>  <REMARK>
 VINA RESULT:      -6.8      2.548      5.678
  Name = 
  3 active torsions:
  status: ('A' for Active; 'I' for Inactive)
    1  A    between atoms: C_2  and  C_25
    2  A    between atoms: N_6  and  C_15
    3  A    between atoms: C_15  and  C_25
                            x       y       z     vdW  Elec       q    Type
                         _______ _______ _______ _____ _____    ______ ____

>  <TORSDO>
F 3

$$$$
=
 OpenBabel11052422203D

 25 28  0  0  1  0  0  0  0  0999 V2000
  161.3120  206.5860  149.7850 C   0  0  0  0  0  0  0  0  0  0  0  0
  161.4200  205.7260  148.6860 C   0  0  0  0  0  0  0  0  0  0  0  0
  162.3720  208.4020  148.6060 C   0  0  0  0  0  3  0  0  0  0  0  0
  160.6580  206.3810  151.1070 C   0  0  2  0  0  3  0  0  0  0  0  0
  161.7100  203.3630  148.1680 N   0  0  0  0  0  0  0  0  0  0  0  0
  161.1190  206.7460  153.9270 C   0  0  0  0  0  3  0  0  0  0  0  0
  162.5080  207.5660  147.4890 C   0  0  0  0  0  3  0  0  0  0  0  0
  160.9500  207.7160  151.7390 C   0  0  0  0  0  0  0  0  0  0  0  0
  160.9220  207.8530  153.1980 C   0  0  0  0  0  3  0  0  0  0  0  0
  162.2770  205.3770  146.2650 C   0  0  2  0  0  3  0  0  0  0  0  0
  162.4870  206.1680  145.1340 O   0  0  0  0  0  1  0  0  0  0  0  0
  160.8310  204.3480  148.7920 C   0  0  0  0  0  2  0  0  0  0  0  0
  161.4060  205.4410  153.2710 C   0  0  0  0  0  3  0  0  0  0  0  0
  161.7500  207.8860  149.7350 C   0  0  0  0  0  0  0  0  0  0  0  0
  161.5560  208.5620  150.9660 N   0  0  0  0  0  0  0  0  0  0  0  0
  161.1400  204.4060  145.9780 C   0  0  0  0  0  2  0  0  0  0  0  0
  161.2550  205.2790  151.9460 C   0  0  0  0  0  3  0  0  0  0  0  0
  161.2860  203.1140  146.7860 C   0  0  0  0  0  2  0  0  0  0  0  0
  162.0210  206.2360  147.4930 C   0  0  0  0  0  0  0  0  0  0  0  0
  161.6810  202.1080  148.9270 C   0  0  0  0  0  2  0  0  0  0  0  0
  161.5120  201.6980  151.3920 C   0  0  0  0  0  1  0  0  0  0  0  0
  160.7590  202.1450  150.1520 C   0  0  2  0  0  3  0  0  0  0  0  0
  159.5780  201.2620  149.9290 C   0  0  0  0  0  0  0  0  0  0  0  0
  159.2740  200.3980  150.7920 O   0  0  0  0  0  1  0  0  0  0  0  0
  158.8100  201.3850  148.7770 O   0  0  0  0  0  0  0  0  0  0  0  0
  1  4  1  0  0  0  0
  2 12  1  0  0  0  0
  2  1  2  0  0  0  0
  3 14  2  0  0  0  0
  4  8  1  0  0  0  0
  4 17  1  1  0  0  0
  5 12  1  0  0  0  0
  5 20  1  0  0  0  0
  7 19  2  0  0  0  0
  7  3  1  0  0  0  0
  8  9  1  0  0  0  0
  9  6  2  0  0  0  0
 10 11  1  6  0  0  0
 10 19  1  0  0  0  0
 13  6  1  0  0  0  0
 14  1  1  0  0  0  0
 14 15  1  0  0  0  0
 15  8  2  0  0  0  0
 16 10  1  0  0  0  0
 16 18  1  0  0  0  0
 17 13  2  0  0  0  0
 18  5  1  0  0  0  0
 19  2  1  0  0  0  0
 20 22  1  0  0  0  0
 22 21  1  1  0  0  0
 23 22  1  0  0  0  0
 23 24  1  0  0  0  0
 25 23  2  0  0  0  0
M  END
>  <MODEL>
9

>  <REMARK>
 VINA RESULT:      -6.6      2.514      5.547
  Name = 
  3 active torsions:
  status: ('A' for Active; 'I' for Inactive)
    1  A    between atoms: C_2  and  C_25
    2  A    between atoms: N_6  and  C_15
    3  A    between atoms: C_15  and  C_25
                            x       y       z     vdW  Elec       q    Type
                         _______ _______ _______ _____ _____    ______ ____

>  <TORSDO>
F 3

$$$$
