=
 OpenBabel11062409023D

 37 43  0  0  1  0  0  0  0  0999 V2000
  162.2450  207.9110  148.3010 C   0  0  0  0  0  2  0  0  0  0  0  0
  162.5720  213.3050  147.0580 C   0  0  2  0  0  3  0  0  0  0  0  0
  161.1200  211.8320  150.9660 C   0  0  1  0  0  3  0  0  0  0  0  0
  161.5980  206.7750  147.5030 C   0  0  2  0  0  3  0  0  0  0  0  0
  160.6480  208.4970  152.5060 O   0  0  0  0  0  0  0  0  0  0  0  0
  160.5530  212.8900  148.7140 C   0  0  1  0  0  3  0  0  0  0  0  0
  160.9040  210.3430  151.0020 C   0  0  2  0  0  3  0  0  0  0  0  0
  161.5470  212.1230  149.5450 C   0  0  2  0  0  3  0  0  0  0  0  0
  161.2920  209.7300  152.3500 C   0  0  1  0  0  3  0  0  0  0  0  0
  160.0820  214.1150  149.4610 C   0  0  0  0  0  2  0  0  0  0  0  0
  160.7070  205.8440  148.3420 C   0  0  0  0  0  2  0  0  0  0  0  0
  161.8030  210.8610  148.8590 N   0  0  1  0  0  0  0  0  0  0  0  0
  163.5610  212.3630  147.7920 C   0  0  0  0  0  2  0  0  0  0  0  0
  159.0180  211.8880  152.4320 C   0  0  0  0  0  2  0  0  0  0  0  0
  159.2330  213.6080  150.6240 C   0  0  0  0  0  2  0  0  0  0  0  0
  163.0820  210.9270  148.1320 C   0  0  0  0  0  2  0  0  0  0  0  0
  160.9230  205.9520  149.8560 C   0  0  2  0  0  3  0  0  0  0  0  0
  161.4270  207.5760  151.7930 C   0  0  0  0  0  2  0  0  0  0  0  0
  160.0140  212.7180  151.6080 C   0  0  2  0  0  3  0  0  0  0  0  0
  161.8070  209.8210  149.8930 C   0  0  2  0  0  3  0  0  0  0  0  0
  161.0520  213.1250  147.2780 C   0  0  0  0  0  2  0  0  0  0  0  0
  161.0320  210.6670  153.5490 C   0  0  1  0  0  3  0  0  0  0  0  0
  162.8650  213.2870  145.5730 C   0  0  0  0  0  1  0  0  0  0  0  0
  160.8670  207.4070  150.3750 C   0  0  1  0  0  3  0  0  0  0  0  0
  161.2780  208.4870  149.3290 C   0  0  2  0  0  3  0  0  0  0  0  0
  159.6070  211.2320  153.6910 C   0  0  0  0  0  2  0  0  0  0  0  0
  162.5700  210.7360  155.5530 C   0  0  0  0  0  3  0  0  0  0  0  0
  161.5450  210.1010  154.8360 C   0  0  0  0  0  0  0  0  0  0  0  0
  160.9700  208.9300  155.3430 C   0  0  0  0  0  3  0  0  0  0  0  0
  160.8630  207.2560  157.0370 F   0  0  0  0  0  0  0  0  0  0  0  0
  162.4460  209.0250  157.2610 C   0  0  0  0  0  3  0  0  0  0  0  0
  161.4210  208.3910  156.5510 C   0  0  0  0  0  0  0  0  0  0  0  0
  163.0200  210.1970  156.7610 C   0  0  0  0  0  3  0  0  0  0  0  0
  162.0800  205.0800  150.3670 C   0  0  0  0  0  2  0  0  0  0  0  0
  161.6340  203.9610  151.2920 C   0  0  0  0  0  1  0  0  0  0  0  0
  161.9480  205.4700  145.7510 C   0  0  0  0  0  1  0  0  0  0  0  0
  162.5880  206.0320  146.8580 O   0  0  0  0  0  0  0  0  0  0  0  0
  1 25  1  0  0  0  0
  2 23  1  6  0  0  0
  2 21  1  0  0  0  0
  2 13  1  0  0  0  0
  3  7  1  0  0  0  0
  3 19  1  0  0  0  0
  4  1  1  0  0  0  0
  4 11  1  0  0  0  0
  6 10  1  0  0  0  0
  6  8  1  0  0  0  0
  7  9  1  0  0  0  0
  8  3  1  0  0  0  0
  9  5  1  0  0  0  0
  9 22  1  0  0  0  0
 10 15  1  0  0  0  0
 11 17  1  0  0  0  0
 12  8  1  0  0  0  0
 12 20  1  0  0  0  0
 13 16  1  0  0  0  0
 14 26  1  0  0  0  0
 15 19  1  0  0  0  0
 16 12  1  0  0  0  0
 17 34  1  0  0  0  0
 17 24  1  0  0  0  0
 18  5  1  0  0  0  0
 19 14  1  0  0  0  0
 20  7  1  0  0  0  0
 21  6  1  0  0  0  0
 22 26  1  0  0  0  0
 22 28  1  0  0  0  0
 24 18  1  0  0  0  0
 25 20  1  0  0  0  0
 25 24  1  0  0  0  0
 27 33  1  0  0  0  0
 28 29  1  0  0  0  0
 28 27  2  0  0  0  0
 29 32  2  0  0  0  0
 32 30  1  0  0  0  0
 32 31  1  0  0  0  0
 33 31  2  0  0  0  0
 34 35  1  0  0  0  0
 36 37  1  0  0  0  0
 37  4  1  0  0  0  0
M  END
>  <MODEL>
1

>  <REMARK>
 VINA RESULT:      -7.3      0.000      0.000
  Name = 
  3 active torsions:
  status: ('A' for Active; 'I' for Inactive)
    1  A    between atoms: C_5  and  O_23
    2  A    between atoms: C_6  and  C_31
    3  A    between atoms: C_11  and  C_26
                            x       y       z     vdW  Elec       q    Type
                         _______ _______ _______ _____ _____    ______ ____

>  <TORSDO>
F 3

$$$$
=
 OpenBabel11062409023D

 37 43  0  0  1  0  0  0  0  0999 V2000
  162.4570  208.3320  148.7040 C   0  0  0  0  0  2  0  0  0  0  0  0
  162.6400  213.4560  146.5940 C   0  0  2  0  0  3  0  0  0  0  0  0
  160.7600  212.5370  150.4880 C   0  0  1  0  0  3  0  0  0  0  0  0
  161.9900  207.0330  148.0430 C   0  0  2  0  0  3  0  0  0  0  0  0
  160.2750  209.4750  152.5140 O   0  0  0  0  0  0  0  0  0  0  0  0
  160.4430  213.1610  148.0340 C   0  0  1  0  0  3  0  0  0  0  0  0
  160.6260  211.0620  150.7550 C   0  0  2  0  0  3  0  0  0  0  0  0
  161.3580  212.6220  149.1020 C   0  0  2  0  0  3  0  0  0  0  0  0
  160.8630  210.7120  152.2260 C   0  0  1  0  0  3  0  0  0  0  0  0
  159.8060  214.4510  148.4930 C   0  0  0  0  0  2  0  0  0  0  0  0
  161.0490  206.1840  148.9140 C   0  0  0  0  0  2  0  0  0  0  0  0
  161.7760  211.2890  148.6820 N   0  0  1  0  0  0  0  0  0  0  0  0
  163.5730  212.7300  147.5960 C   0  0  0  0  0  2  0  0  0  0  0  0
  158.4790  212.6670  151.6510 C   0  0  0  0  0  2  0  0  0  0  0  0
  158.8380  214.0760  149.6120 C   0  0  0  0  0  2  0  0  0  0  0  0
  163.1360  211.3360  148.1190 C   0  0  0  0  0  2  0  0  0  0  0  0
  161.0520  206.5580  150.4020 C   0  0  2  0  0  3  0  0  0  0  0  0
  161.1950  208.5140  152.0740 C   0  0  0  0  0  2  0  0  0  0  0  0
  159.5280  213.4260  150.8250 C   0  0  2  0  0  3  0  0  0  0  0  0
  161.7000  210.4380  149.8740 C   0  0  2  0  0  3  0  0  0  0  0  0
  161.1180  213.1950  146.6520 C   0  0  0  0  0  2  0  0  0  0  0  0
  160.3900  211.8100  153.2040 C   0  0  1  0  0  3  0  0  0  0  0  0
  163.1320  213.2170  145.1820 C   0  0  0  0  0  1  0  0  0  0  0  0
  160.8430  208.0690  150.6490 C   0  0  1  0  0  3  0  0  0  0  0  0
  161.3280  208.9910  149.4900 C   0  0  2  0  0  3  0  0  0  0  0  0
  158.9290  212.2760  153.0680 C   0  0  0  0  0  2  0  0  0  0  0  0
  159.8930  211.8280  155.6810 C   0  0  0  0  0  3  0  0  0  0  0  0
  160.7560  211.5070  154.6230 C   0  0  0  0  0  0  0  0  0  0  0  0
  161.9710  210.8680  154.8920 C   0  0  0  0  0  3  0  0  0  0  0  0
  163.5070  209.9430  156.4630 F   0  0  0  0  0  0  0  0  0  0  0  0
  161.4660  210.8850  157.2600 C   0  0  0  0  0  3  0  0  0  0  0  0
  162.3280  210.5590  156.2070 C   0  0  0  0  0  0  0  0  0  0  0  0
  160.2490  211.5190  156.9960 C   0  0  0  0  0  3  0  0  0  0  0  0
  162.1770  205.8770  151.1950 C   0  0  0  0  0  2  0  0  0  0  0  0
  161.8270  204.4740  151.6620 C   0  0  0  0  0  1  0  0  0  0  0  0
  162.5820  205.2710  146.8420 C   0  0  0  0  0  1  0  0  0  0  0  0
  163.0990  206.2740  147.6630 O   0  0  0  0  0  0  0  0  0  0  0  0
  1 25  1  0  0  0  0
  2 23  1  6  0  0  0
  2 21  1  0  0  0  0
  2 13  1  0  0  0  0
  3  7  1  0  0  0  0
  3 19  1  0  0  0  0
  4  1  1  0  0  0  0
  4 11  1  0  0  0  0
  6 10  1  0  0  0  0
  6  8  1  0  0  0  0
  7  9  1  0  0  0  0
  8  3  1  0  0  0  0
  9  5  1  0  0  0  0
  9 22  1  0  0  0  0
 10 15  1  0  0  0  0
 11 17  1  0  0  0  0
 12  8  1  0  0  0  0
 12 20  1  0  0  0  0
 13 16  1  0  0  0  0
 14 26  1  0  0  0  0
 15 19  1  0  0  0  0
 16 12  1  0  0  0  0
 17 24  1  0  0  0  0
 17 34  1  0  0  0  0
 18  5  1  0  0  0  0
 19 14  1  0  0  0  0
 20  7  1  0  0  0  0
 21  6  1  0  0  0  0
 22 28  1  0  0  0  0
 24 18  1  0  0  0  0
 25 20  1  0  0  0  0
 25 24  1  0  0  0  0
 26 22  1  0  0  0  0
 27 33  1  0  0  0  0
 28 29  1  0  0  0  0
 28 27  2  0  0  0  0
 29 32  2  0  0  0  0
 32 30  1  0  0  0  0
 32 31  1  0  0  0  0
 33 31  2  0  0  0  0
 34 35  1  0  0  0  0
 36 37  1  0  0  0  0
 37  4  1  0  0  0  0
M  END
>  <MODEL>
2

>  <REMARK>
 VINA RESULT:      -6.0      1.211      1.416
  Name = 
  3 active torsions:
  status: ('A' for Active; 'I' for Inactive)
    1  A    between atoms: C_5  and  O_23
    2  A    between atoms: C_6  and  C_31
    3  A    between atoms: C_11  and  C_26
                            x       y       z     vdW  Elec       q    Type
                         _______ _______ _______ _____ _____    ______ ____

>  <TORSDO>
F 3

$$$$
