=
 OpenBabel11062408163D

 32 38  0  0  1  0  0  0  0  0999 V2000
  160.7070  208.8460  154.2870 C   0  0  1  0  0  3  0  0  0  0  0  0
  161.2890  211.1070  154.6830 C   0  0  2  0  0  3  0  0  0  0  0  0
  161.2800  207.1170  154.3140 S   0  0  0  0  0  0  0  0  0  0  0  0
  161.5660  209.7270  155.2000 C   0  0  1  0  0  3  0  0  0  0  0  0
  160.0980  211.5620  155.4970 C   0  0  2  0  0  0  0  0  0  0  0  0
  158.8140  213.3340  151.0140 C   0  0  0  0  0  3  0  0  0  0  0  0
  160.9220  211.0250  153.2100 C   0  0  1  0  0  3  0  0  0  0  0  0
  158.5160  214.0390  153.3120 C   0  0  0  0  0  3  0  0  0  0  0  0
  159.3330  212.9910  153.7460 C   0  0  0  0  0  0  0  0  0  0  0  0
  158.9480  210.5790  155.7810 C   0  0  2  0  0  3  0  0  0  0  0  0
  160.8370  208.4700  157.2610 C   0  0  0  0  0  2  0  0  0  0  0  0
  159.5490  212.8090  155.1220 O   0  0  0  0  0  0  0  0  0  0  0  0
  161.1120  209.7650  156.6150 N   0  0  2  0  0  0  0  0  0  0  0  0
  159.6910  207.6910  156.6190 C   0  0  0  0  0  2  0  0  0  0  0  0
  160.5250  209.5620  152.9260 C   0  0  1  0  0  3  0  0  0  0  0  0
  157.8040  211.2410  156.2320 O   0  0  0  0  0  1  0  0  0  0  0  0
  159.9150  212.0990  152.7910 C   0  0  0  0  0  0  0  0  0  0  0  0
  160.0620  210.7940  156.7920 C   0  0  1  0  0  3  0  0  0  0  0  0
  160.2070  206.5760  155.7060 C   0  0  0  0  0  2  0  0  0  0  0  0
  158.2570  214.2080  151.9510 C   0  0  0  0  0  3  0  0  0  0  0  0
  159.6440  212.2910  151.4330 C   0  0  0  0  0  3  0  0  0  0  0  0
  161.7060  209.4140  149.4280 C   0  0  1  0  0  3  0  0  0  0  0  0
  162.5210  210.1580  148.5710 O   0  0  0  0  0  1  0  0  0  0  0  0
  162.0450  207.9190  149.3510 C   0  0  1  0  0  3  0  0  0  0  0  0
  160.5630  208.0130  151.2560 O   0  0  0  0  0  0  0  0  0  0  0  0
  161.4420  207.1740  150.5470 C   0  0  0  0  0  2  0  0  0  0  0  0
  161.7920  209.9430  150.8730 C   0  0  2  0  0  3  0  0  0  0  0  0
  163.1020  210.3330  151.1660 O   0  0  0  0  0  1  0  0  0  0  0  0
  161.3530  208.9410  151.8730 N   0  0  1  0  0  0  0  0  0  0  0  0
  161.5000  207.3100  148.0670 C   0  0  0  0  0  2  0  0  0  0  0  0
  161.6190  204.8710  147.5530 C   0  0  0  0  0  1  0  0  0  0  0  0
  160.8710  205.9480  148.3160 C   0  0  0  0  0  2  0  0  0  0  0  0
  1  3  1  6  0  0  0
  1  4  1  0  0  0  0
  2  4  1  0  0  0  0
  2  5  1  0  0  0  0
  3 19  1  0  0  0  0
  4 13  1  0  0  0  0
  5 10  1  0  0  0  0
  5 18  1  0  0  0  0
  6 21  2  0  0  0  0
  6 20  1  0  0  0  0
  7  2  1  0  0  0  0
  8  9  1  0  0  0  0
  9 12  1  0  0  0  0
 10 16  1  0  0  0  0
 10 18  1  0  0  0  0
 12  5  1  0  0  0  0
 13 18  1  0  0  0  0
 13 11  1  0  0  0  0
 14 11  1  0  0  0  0
 15  7  1  0  0  0  0
 15  1  1  0  0  0  0
 17  7  1  0  0  0  0
 17  9  2  0  0  0  0
 19 14  1  0  0  0  0
 20  8  2  0  0  0  0
 21 17  1  0  0  0  0
 22 27  1  0  0  0  0
 23 22  1  0  0  0  0
 24 22  1  0  0  0  0
 24 26  1  0  0  0  0
 25 29  1  0  0  0  0
 26 25  1  0  0  0  0
 27 28  1  0  0  0  0
 27 29  1  0  0  0  0
 29 15  1  0  0  0  0
 30 32  1  0  0  0  0
 30 24  1  0  0  0  0
 31 32  1  0  0  0  0
M  END
>  <MODEL>
1

>  <REMARK>
 VINA RESULT:      -6.7      0.000      0.000
  Name = 
  3 active torsions:
  status: ('A' for Active; 'I' for Inactive)
    1  A    between atoms: C_15  and  C_19
    2  A    between atoms: C_19  and  C_26
    3  A    between atoms: C_24  and  N_27
                            x       y       z     vdW  Elec       q    Type
                         _______ _______ _______ _____ _____    ______ ____

>  <TORSDO>
F 3

$$$$
=
 OpenBabel11062408163D

 32 38  0  0  1  0  0  0  0  0999 V2000
  159.5990  212.6220  154.4100 C   0  0  1  0  0  3  0  0  0  0  0  0
  158.8540  210.4100  154.0070 C   0  0  2  0  0  3  0  0  0  0  0  0
  159.1010  214.3310  154.7970 S   0  0  0  0  0  0  0  0  0  0  0  0
  158.5110  211.6230  154.8190 C   0  0  1  0  0  3  0  0  0  0  0  0
  159.7940  209.6340  154.9030 C   0  0  2  0  0  0  0  0  0  0  0  0
  162.0630  208.9970  150.5060 C   0  0  0  0  0  3  0  0  0  0  0  0
  159.5710  210.8430  152.7390 C   0  0  1  0  0  3  0  0  0  0  0  0
  161.7660  207.6780  152.5170 C   0  0  0  0  0  3  0  0  0  0  0  0
  160.9080  208.6520  153.0360 C   0  0  0  0  0  0  0  0  0  0  0  0
  160.8750  210.3800  155.7040 C   0  0  2  0  0  3  0  0  0  0  0  0
  158.7630  212.2030  157.2600 C   0  0  0  0  0  2  0  0  0  0  0  0
  160.3700  208.4810  154.3220 O   0  0  0  0  0  0  0  0  0  0  0  0
  158.6060  211.1630  156.2290 N   0  0  2  0  0  0  0  0  0  0  0  0
  160.0590  213.0010  157.1380 C   0  0  0  0  0  2  0  0  0  0  0  0
  160.0790  212.2790  152.9770 C   0  0  1  0  0  3  0  0  0  0  0  0
  161.8500  209.5070  156.1920 O   0  0  0  0  0  1  0  0  0  0  0  0
  160.6090  209.8210  152.2690 C   0  0  0  0  0  0  0  0  0  0  0  0
  159.5420  210.0210  156.3370 C   0  0  1  0  0  3  0  0  0  0  0  0
  159.8230  214.3660  156.4880 C   0  0  0  0  0  2  0  0  0  0  0  0
  162.3430  207.8520  151.2570 C   0  0  0  0  0  3  0  0  0  0  0  0
  161.1950  209.9710  151.0080 C   0  0  0  0  0  3  0  0  0  0  0  0
  158.1300  213.0190  149.9270 C   0  0  1  0  0  3  0  0  0  0  0  0
  156.7930  213.0350  149.5240 O   0  0  0  0  0  1  0  0  0  0  0  0
  158.8550  214.2960  149.4820 C   0  0  1  0  0  3  0  0  0  0  0  0
  160.4660  213.2830  150.9690 O   0  0  0  0  0  0  0  0  0  0  0  0
  160.1750  214.4530  150.2450 C   0  0  0  0  0  2  0  0  0  0  0  0
  158.2480  212.7990  151.4490 C   0  0  2  0  0  3  0  0  0  0  0  0
  157.2280  213.4850  152.1140 O   0  0  0  0  0  1  0  0  0  0  0  0
  159.5560  213.2410  151.9870 N   0  0  1  0  0  0  0  0  0  0  0  0
  159.1530  214.2510  147.9890 C   0  0  0  0  0  2  0  0  0  0  0  0
  161.1230  213.1260  146.9510 C   0  0  0  0  0  1  0  0  0  0  0  0
  159.7570  212.9180  147.5790 C   0  0  0  0  0  2  0  0  0  0  0  0
  1  3  1  6  0  0  0
  1  4  1  0  0  0  0
  2  4  1  0  0  0  0
  2  5  1  0  0  0  0
  3 19  1  0  0  0  0
  4 13  1  0  0  0  0
  5 10  1  0  0  0  0
  5 18  1  0  0  0  0
  6 21  2  0  0  0  0
  6 20  1  0  0  0  0
  7 15  1  0  0  0  0
  7  2  1  0  0  0  0
  8  9  1  0  0  0  0
  9 12  1  0  0  0  0
 10 16  1  0  0  0  0
 10 18  1  0  0  0  0
 12  5  1  0  0  0  0
 13 18  1  0  0  0  0
 13 11  1  0  0  0  0
 14 11  1  0  0  0  0
 15  1  1  0  0  0  0
 17  7  1  0  0  0  0
 17  9  2  0  0  0  0
 19 14  1  0  0  0  0
 20  8  2  0  0  0  0
 21 17  1  0  0  0  0
 22 27  1  0  0  0  0
 23 22  1  0  0  0  0
 24 22  1  0  0  0  0
 24 26  1  0  0  0  0
 25 29  1  0  0  0  0
 26 25  1  0  0  0  0
 27 29  1  0  0  0  0
 27 28  1  0  0  0  0
 29 15  1  0  0  0  0
 30 24  1  0  0  0  0
 31 32  1  0  0  0  0
 32 30  1  0  0  0  0
M  END
>  <MODEL>
2

>  <REMARK>
 VINA RESULT:      -5.7      2.931      5.316
  Name = 
  3 active torsions:
  status: ('A' for Active; 'I' for Inactive)
    1  A    between atoms: C_15  and  C_19
    2  A    between atoms: C_19  and  C_26
    3  A    between atoms: C_24  and  N_27
                            x       y       z     vdW  Elec       q    Type
                         _______ _______ _______ _____ _____    ______ ____

>  <TORSDO>
F 3

$$$$
=
 OpenBabel11062408163D

 32 38  0  0  1  0  0  0  0  0999 V2000
  160.7970  211.2210  150.8600 C   0  0  1  0  0  3  0  0  0  0  0  0
  162.6880  209.8380  151.1980 C   0  0  2  0  0  3  0  0  0  0  0  0
  160.1770  212.9330  150.7870 S   0  0  0  0  0  0  0  0  0  0  0  0
  162.3110  211.1710  150.6260 C   0  0  1  0  0  3  0  0  0  0  0  0
  162.5560  208.8940  150.0230 C   0  0  2  0  0  0  0  0  0  0  0  0
  160.6190  206.0560  153.6400 C   0  0  0  0  0  3  0  0  0  0  0  0
  161.7000  209.4630  152.2910 C   0  0  1  0  0  3  0  0  0  0  0  0
  161.9250  205.6680  151.6360 C   0  0  0  0  0  3  0  0  0  0  0  0
  162.0560  207.0460  151.4480 C   0  0  0  0  0  0  0  0  0  0  0  0
  161.3600  209.0330  149.0650 C   0  0  2  0  0  3  0  0  0  0  0  0
  162.0740  212.0440  148.2720 C   0  0  0  0  0  2  0  0  0  0  0  0
  162.7450  207.5260  150.3210 O   0  0  0  0  0  0  0  0  0  0  0  0
  162.7040  211.0850  149.1960 N   0  0  2  0  0  0  0  0  0  0  0  0
  160.5600  211.8840  148.1570 C   0  0  0  0  0  2  0  0  0  0  0  0
  160.4500  210.3420  152.0870 C   0  0  1  0  0  3  0  0  0  0  0  0
  161.2060  207.8980  148.2640 O   0  0  0  0  0  1  0  0  0  0  0  0
  161.4660  207.9540  152.3830 C   0  0  0  0  0  0  0  0  0  0  0  0
  162.6980  209.6760  148.7430 C   0  0  1  0  0  3  0  0  0  0  0  0
  159.8150  212.9340  148.9840 C   0  0  0  0  0  2  0  0  0  0  0  0
  161.2070  205.1750  152.7280 C   0  0  0  0  0  3  0  0  0  0  0  0
  160.7550  207.4360  153.4710 C   0  0  0  0  0  3  0  0  0  0  0  0
  159.5680  210.6340  155.6630 C   0  0  1  0  0  3  0  0  0  0  0  0
  160.1760  210.4360  156.9050 O   0  0  0  0  0  1  0  0  0  0  0  0
  158.8270  211.9780  155.6190 C   0  0  1  0  0  3  0  0  0  0  0  0
  158.7730  211.2860  153.3060 O   0  0  0  0  0  0  0  0  0  0  0  0
  158.5070  212.3630  154.1710 C   0  0  0  0  0  2  0  0  0  0  0  0
  160.5940  210.5130  154.5180 C   0  0  2  0  0  3  0  0  0  0  0  0
  161.8130  211.0780  154.9030 O   0  0  0  0  0  1  0  0  0  0  0  0
  160.1330  211.1660  153.2700 N   0  0  1  0  0  0  0  0  0  0  0  0
  157.5270  211.8990  156.4070 C   0  0  0  0  0  2  0  0  0  0  0  0
  155.5900  210.7020  155.3850 C   0  0  0  0  0  1  0  0  0  0  0  0
  156.3140  212.0310  155.4990 C   0  0  0  0  0  2  0  0  0  0  0  0
  1  3  1  1  0  0  0
  1 15  1  0  0  0  0
  2  7  1  0  0  0  0
  4  1  1  0  0  0  0
  4  2  1  0  0  0  0
  5 12  1  0  0  0  0
  5  2  1  0  0  0  0
  7 17  1  0  0  0  0
  8 20  1  0  0  0  0
  9  8  2  0  0  0  0
  9 17  1  0  0  0  0
 10  5  1  0  0  0  0
 11 13  1  0  0  0  0
 12  9  1  0  0  0  0
 13  4  1  0  0  0  0
 14 11  1  0  0  0  0
 14 19  1  0  0  0  0
 15  7  1  0  0  0  0
 15 29  1  0  0  0  0
 16 10  1  0  0  0  0
 17 21  2  0  0  0  0
 18 10  1  0  0  0  0
 18 13  1  0  0  0  0
 18  5  1  0  0  0  0
 19  3  1  0  0  0  0
 20  6  2  0  0  0  0
 21  6  1  0  0  0  0
 22 23  1  0  0  0  0
 24 22  1  0  0  0  0
 24 30  1  0  0  0  0
 25 26  1  0  0  0  0
 26 24  1  0  0  0  0
 27 28  1  0  0  0  0
 27 22  1  0  0  0  0
 29 25  1  0  0  0  0
 29 27  1  0  0  0  0
 31 32  1  0  0  0  0
 32 30  1  0  0  0  0
M  END
>  <MODEL>
3

>  <REMARK>
 VINA RESULT:      -3.8      2.504      7.356
  Name = 
  3 active torsions:
  status: ('A' for Active; 'I' for Inactive)
    1  A    between atoms: C_15  and  C_19
    2  A    between atoms: C_19  and  C_26
    3  A    between atoms: C_24  and  N_27
                            x       y       z     vdW  Elec       q    Type
                         _______ _______ _______ _____ _____    ______ ____

>  <TORSDO>
F 3

$$$$
