=
 OpenBabel11052422163D

 25 28  0  0  1  0  0  0  0  0999 V2000
  161.3790  205.2120  148.6380 C   0  0  0  0  0  0  0  0  0  0  0  0
  161.2210  206.1100  149.7000 C   0  0  0  0  0  0  0  0  0  0  0  0
  160.9440  203.3020  150.0520 C   0  0  0  0  0  3  0  0  0  0  0  0
  161.7030  205.4790  147.2040 C   0  0  1  0  0  3  0  0  0  0  0  0
  160.6310  204.9010  144.6260 C   0  0  0  0  0  3  0  0  0  0  0  0
  160.8010  204.1720  151.1420 C   0  0  0  0  0  3  0  0  0  0  0  0
  161.6600  204.1310  146.6230 N   0  0  0  0  0  0  0  0  0  0  0  0
  161.2960  203.9340  145.2570 C   0  0  0  0  0  3  0  0  0  0  0  0
  160.2470  206.1170  145.3710 C   0  0  0  0  0  3  0  0  0  0  0  0
  161.2490  203.8560  148.8150 C   0  0  0  0  0  0  0  0  0  0  0  0
  161.4120  203.1540  147.5960 N   0  0  0  0  0  2  0  0  0  0  0  0
  160.7000  206.3430  146.5710 N   0  0  0  0  0  0  0  0  0  0  0  0
  160.9440  205.5670  150.9870 C   0  0  0  0  0  0  0  0  0  0  0  0
  160.8890  206.3760  152.1620 N   0  0  0  0  0  0  0  0  0  0  0  0
  160.9190  206.5000  153.6490 C   0  0  0  0  0  2  0  0  0  0  0  0
  160.8160  207.6620  152.9180 C   0  0  0  0  0  2  0  0  0  0  0  0
  161.3310  207.5160  149.4370 N   0  0  0  0  0  2  0  0  0  0  0  0
  162.4810  208.3330  149.7840 C   0  0  0  0  0  2  0  0  0  0  0  0
  162.0750  209.7950  149.8480 C   0  0  0  0  0  2  0  0  0  0  0  0
  162.0410  210.3560  148.5070 N   0  0  0  0  0  2  0  0  0  0  0  0
  162.1310  211.8030  148.6350 C   0  0  2  0  0  3  0  0  0  0  0  0
  161.2480  212.2470  149.6210 O   0  0  0  0  0  1  0  0  0  0  0  0
  161.8030  212.4490  147.3330 C   0  0  0  0  0  0  0  0  0  0  0  0
  160.5640  212.2300  146.7480 O   0  0  0  0  0  0  0  0  0  0  0  0
  162.6410  213.1960  146.7610 O   0  0  0  0  0  1  0  0  0  0  0  0
  1 10  2  0  0  0  0
  1  2  1  0  0  0  0
  2 13  2  0  0  0  0
  3  6  2  0  0  0  0
  4 12  1  6  0  0  0
  4  1  1  0  0  0  0
  5  8  2  0  0  0  0
  5  9  1  0  0  0  0
  7  4  1  0  0  0  0
  7 11  1  0  0  0  0
  8  7  1  0  0  0  0
  9 12  2  0  0  0  0
 10  3  1  0  0  0  0
 11 10  1  0  0  0  0
 13  6  1  0  0  0  0
 13 14  1  0  0  0  0
 14 16  1  0  0  0  0
 14 15  1  0  0  0  0
 16 15  1  0  0  0  0
 17  2  1  0  0  0  0
 17 18  1  0  0  0  0
 18 19  1  0  0  0  0
 20 21  1  0  0  0  0
 20 19  1  0  0  0  0
 21 22  1  1  0  0  0
 23 21  1  0  0  0  0
 24 23  2  0  0  0  0
 25 23  1  0  0  0  0
M  END
>  <MODEL>
1

>  <REMARK>
 VINA RESULT:      -7.9      0.000      0.000
  Name = 
  7 active torsions:
  status: ('A' for Active; 'I' for Inactive)
    1  A    between atoms: C_2  and  C_21
    2  A    between atoms: C_3  and  N_16
    3  A    between atoms: C_6  and  N_15
    4  A    between atoms: C_6  and  C_23
    5  A    between atoms: N_13  and  C_24
    6  A    between atoms: N_15  and  C_21
    7  A    between atoms: N_16  and  C_23
                            x       y       z     vdW  Elec       q    Type
                         _______ _______ _______ _____ _____    ______ ____

>  <TORSDO>
F 7

$$$$
=
 OpenBabel11052422163D

 25 28  0  0  1  0  0  0  0  0999 V2000
  160.8450  206.1470  151.2860 C   0  0  0  0  0  0  0  0  0  0  0  0
  160.7720  205.1830  150.2750 C   0  0  0  0  0  0  0  0  0  0  0  0
  161.2710  204.4830  152.9850 C   0  0  0  0  0  3  0  0  0  0  0  0
  160.6900  207.6310  151.2020 C   0  0  1  0  0  3  0  0  0  0  0  0
  162.1440  209.9770  151.9140 C   0  0  0  0  0  3  0  0  0  0  0  0
  161.1830  203.4900  152.0000 C   0  0  0  0  0  3  0  0  0  0  0  0
  160.9390  208.0460  152.5880 N   0  0  0  0  0  0  0  0  0  0  0  0
  161.4990  209.3260  152.8810 C   0  0  0  0  0  3  0  0  0  0  0  0
  162.3070  209.3340  150.5940 C   0  0  0  0  0  3  0  0  0  0  0  0
  161.0800  205.8030  152.5950 C   0  0  0  0  0  0  0  0  0  0  0  0
  161.1490  206.9450  153.4290 N   0  0  0  0  0  2  0  0  0  0  0  0
  161.6790  208.2320  150.3000 N   0  0  0  0  0  0  0  0  0  0  0  0
  160.9270  203.8190  150.6520 C   0  0  0  0  0  0  0  0  0  0  0  0
  160.7480  202.7460  149.7280 N   0  0  0  0  0  0  0  0  0  0  0  0
  159.8760  201.7050  149.1090 C   0  0  0  0  0  2  0  0  0  0  0  0
  161.1640  201.8150  148.6350 C   0  0  0  0  0  2  0  0  0  0  0  0
  160.5630  205.6160  148.9230 N   0  0  0  0  0  2  0  0  0  0  0  0
  161.6090  205.7240  147.9200 C   0  0  0  0  0  2  0  0  0  0  0  0
  161.0640  206.4050  146.6770 C   0  0  0  0  0  2  0  0  0  0  0  0
  161.6930  205.8430  145.4930 N   0  0  0  0  0  2  0  0  0  0  0  0
  161.9570  204.4380  145.7620 C   0  0  2  0  0  3  0  0  0  0  0  0
  163.2310  204.0980  145.3020 O   0  0  0  0  0  1  0  0  0  0  0  0
  160.9330  203.5910  145.0870 C   0  0  0  0  0  0  0  0  0  0  0  0
  160.8550  202.2370  145.3820 O   0  0  0  0  0  1  0  0  0  0  0  0
  160.1350  204.0950  144.2530 O   0  0  0  0  0  0  0  0  0  0  0  0
  1 10  1  0  0  0  0
  2 13  1  0  0  0  0
  2  1  2  0  0  0  0
  4 12  1  6  0  0  0
  4  1  1  0  0  0  0
  4  7  1  0  0  0  0
  5  8  2  0  0  0  0
  6  3  1  0  0  0  0
  7  8  1  0  0  0  0
  7 11  1  0  0  0  0
  9  5  1  0  0  0  0
 10  3  2  0  0  0  0
 10 11  1  0  0  0  0
 12  9  2  0  0  0  0
 13  6  2  0  0  0  0
 14 13  1  0  0  0  0
 15 14  1  0  0  0  0
 16 15  1  0  0  0  0
 16 14  1  0  0  0  0
 17  2  1  0  0  0  0
 18 17  1  0  0  0  0
 19 18  1  0  0  0  0
 20 21  1  0  0  0  0
 20 19  1  0  0  0  0
 21 22  1  6  0  0  0
 23 24  1  0  0  0  0
 23 21  1  0  0  0  0
 25 23  2  0  0  0  0
M  END
>  <MODEL>
2

>  <REMARK>
 VINA RESULT:      -7.7      3.577      6.355
  Name = 
  7 active torsions:
  status: ('A' for Active; 'I' for Inactive)
    1  A    between atoms: C_2  and  C_21
    2  A    between atoms: C_3  and  N_16
    3  A    between atoms: C_6  and  N_15
    4  A    between atoms: C_6  and  C_23
    5  A    between atoms: N_13  and  C_24
    6  A    between atoms: N_15  and  C_21
    7  A    between atoms: N_16  and  C_23
                            x       y       z     vdW  Elec       q    Type
                         _______ _______ _______ _____ _____    ______ ____

>  <TORSDO>
F 7

$$$$
=
 OpenBabel11052422163D

 25 28  0  0  1  0  0  0  0  0999 V2000
  161.4870  204.7100  148.7040 C   0  0  0  0  0  0  0  0  0  0  0  0
  161.5190  205.4860  149.8680 C   0  0  0  0  0  0  0  0  0  0  0  0
  160.6900  202.7660  149.8970 C   0  0  0  0  0  3  0  0  0  0  0  0
  161.8480  205.0800  147.3020 C   0  0  1  0  0  3  0  0  0  0  0  0
  160.6650  205.0390  144.7080 C   0  0  0  0  0  3  0  0  0  0  0  0
  160.7300  203.5090  151.0850 C   0  0  0  0  0  3  0  0  0  0  0  0
  161.5330  203.8470  146.5680 N   0  0  0  0  0  0  0  0  0  0  0  0
  161.1280  203.8910  145.2000 C   0  0  0  0  0  3  0  0  0  0  0  0
  160.5360  206.2080  145.6020 C   0  0  0  0  0  3  0  0  0  0  0  0
  161.0910  203.3940  148.7250 C   0  0  0  0  0  0  0  0  0  0  0  0
  161.1030  202.8270  147.4280 N   0  0  0  0  0  2  0  0  0  0  0  0
  161.0330  206.1940  146.8050 N   0  0  0  0  0  0  0  0  0  0  0  0
  161.1480  204.8570  151.0900 C   0  0  0  0  0  0  0  0  0  0  0  0
  161.2630  205.5130  152.3530 N   0  0  0  0  0  0  0  0  0  0  0  0
  162.1080  206.1240  153.4210 C   0  0  0  0  0  2  0  0  0  0  0  0
  160.7420  206.1610  153.5950 C   0  0  0  0  0  2  0  0  0  0  0  0
  161.9040  206.8640  149.7680 N   0  0  0  0  0  2  0  0  0  0  0  0
  161.1650  207.9720  150.3500 C   0  0  0  0  0  2  0  0  0  0  0  0
  162.0920  208.8190  151.2040 C   0  0  0  0  0  2  0  0  0  0  0  0
  161.4360  210.0690  151.5510 N   0  0  0  0  0  2  0  0  0  0  0  0
  160.4860  209.7840  152.6170 C   0  0  2  0  0  3  0  0  0  0  0  0
  159.4250  210.6900  152.5610 O   0  0  0  0  0  1  0  0  0  0  0  0
  161.1640  209.8810  153.9410 C   0  0  0  0  0  0  0  0  0  0  0  0
  162.3040  210.6620  154.0750 O   0  0  0  0  0  0  0  0  0  0  0  0
  160.7090  209.2620  154.9380 O   0  0  0  0  0  1  0  0  0  0  0  0
  1 10  2  0  0  0  0
  1  2  1  0  0  0  0
  2 13  2  0  0  0  0
  3  6  2  0  0  0  0
  4 12  1  6  0  0  0
  4  1  1  0  0  0  0
  5  8  2  0  0  0  0
  5  9  1  0  0  0  0
  6 13  1  0  0  0  0
  7  4  1  0  0  0  0
  7 11  1  0  0  0  0
  8  7  1  0  0  0  0
  9 12  2  0  0  0  0
 10  3  1  0  0  0  0
 11 10  1  0  0  0  0
 13 14  1  0  0  0  0
 14 15  1  0  0  0  0
 14 16  1  0  0  0  0
 15 16  1  0  0  0  0
 17  2  1  0  0  0  0
 17 18  1  0  0  0  0
 18 19  1  0  0  0  0
 19 20  1  0  0  0  0
 20 21  1  0  0  0  0
 21 22  1  1  0  0  0
 21 23  1  0  0  0  0
 23 24  2  0  0  0  0
 23 25  1  0  0  0  0
M  END
>  <MODEL>
3

>  <REMARK>
 VINA RESULT:      -7.4      2.596      3.207
  Name = 
  7 active torsions:
  status: ('A' for Active; 'I' for Inactive)
    1  A    between atoms: C_2  and  C_21
    2  A    between atoms: C_3  and  N_16
    3  A    between atoms: C_6  and  N_15
    4  A    between atoms: C_6  and  C_23
    5  A    between atoms: N_13  and  C_24
    6  A    between atoms: N_15  and  C_21
    7  A    between atoms: N_16  and  C_23
                            x       y       z     vdW  Elec       q    Type
                         _______ _______ _______ _____ _____    ______ ____

>  <TORSDO>
F 7

$$$$
=
 OpenBabel11052422163D

 25 28  0  0  1  0  0  0  0  0999 V2000
  161.1380  205.4420  149.6340 C   0  0  0  0  0  0  0  0  0  0  0  0
  161.3320  206.6370  150.3360 C   0  0  0  0  0  0  0  0  0  0  0  0
  162.2130  206.3120  147.6530 C   0  0  0  0  0  3  0  0  0  0  0  0
  160.4830  204.1730  150.0730 C   0  0  1  0  0  3  0  0  0  0  0  0
  161.0970  201.3940  150.2330 C   0  0  0  0  0  3  0  0  0  0  0  0
  162.4050  207.5290  148.3210 C   0  0  0  0  0  3  0  0  0  0  0  0
  160.6670  203.3100  148.8990 N   0  0  0  0  0  0  0  0  0  0  0  0
  160.7760  201.8940  149.0400 C   0  0  0  0  0  3  0  0  0  0  0  0
  161.3830  202.3160  151.3500 C   0  0  0  0  0  3  0  0  0  0  0  0
  161.5610  205.2930  148.3350 C   0  0  0  0  0  0  0  0  0  0  0  0
  161.2920  203.9910  147.8470 N   0  0  0  0  0  2  0  0  0  0  0  0
  161.1490  203.5940  151.2450 N   0  0  0  0  0  0  0  0  0  0  0  0
  161.9660  207.7110  149.6500 C   0  0  0  0  0  0  0  0  0  0  0  0
  162.1020  209.0100  150.2240 N   0  0  0  0  0  0  0  0  0  0  0  0
  161.9960  210.4940  150.1040 C   0  0  0  0  0  2  0  0  0  0  0  0
  162.3810  209.9830  151.3230 C   0  0  0  0  0  2  0  0  0  0  0  0
  160.9010  206.7100  151.7030 N   0  0  0  0  0  2  0  0  0  0  0  0
  161.7740  206.5450  152.8530 C   0  0  0  0  0  2  0  0  0  0  0  0
  161.0940  207.0850  154.0990 C   0  0  0  0  0  2  0  0  0  0  0  0
  160.8410  208.5080  153.9450 N   0  0  0  0  0  2  0  0  0  0  0  0
  160.9750  209.1210  155.2580 C   0  0  2  0  0  3  0  0  0  0  0  0
  159.7240  209.2060  155.8720 O   0  0  0  0  0  1  0  0  0  0  0  0
  161.5660  210.4830  155.1240 C   0  0  0  0  0  0  0  0  0  0  0  0
  160.7670  211.5450  154.7250 O   0  0  0  0  0  0  0  0  0  0  0  0
  162.7850  210.6780  155.3740 O   0  0  0  0  0  1  0  0  0  0  0  0
  1  2  1  0  0  0  0
  2 17  1  0  0  0  0
  3  6  2  0  0  0  0
  3 10  1  0  0  0  0
  4  1  1  6  0  0  0
  4 12  1  0  0  0  0
  5  9  1  0  0  0  0
  6 13  1  0  0  0  0
  7  8  1  0  0  0  0
  7  4  1  0  0  0  0
  8  5  2  0  0  0  0
 10  1  2  0  0  0  0
 11 10  1  0  0  0  0
 11  7  1  0  0  0  0
 12  9  2  0  0  0  0
 13 14  1  0  0  0  0
 13  2  2  0  0  0  0
 14 16  1  0  0  0  0
 15 14  1  0  0  0  0
 15 16  1  0  0  0  0
 17 18  1  0  0  0  0
 18 19  1  0  0  0  0
 20 19  1  0  0  0  0
 20 21  1  0  0  0  0
 21 22  1  6  0  0  0
 23 21  1  0  0  0  0
 23 25  1  0  0  0  0
 24 23  2  0  0  0  0
M  END
>  <MODEL>
4

>  <REMARK>
 VINA RESULT:      -7.2      3.100      5.127
  Name = 
  7 active torsions:
  status: ('A' for Active; 'I' for Inactive)
    1  A    between atoms: C_2  and  C_21
    2  A    between atoms: C_3  and  N_16
    3  A    between atoms: C_6  and  N_15
    4  A    between atoms: C_6  and  C_23
    5  A    between atoms: N_13  and  C_24
    6  A    between atoms: N_15  and  C_21
    7  A    between atoms: N_16  and  C_23
                            x       y       z     vdW  Elec       q    Type
                         _______ _______ _______ _____ _____    ______ ____

>  <TORSDO>
F 7

$$$$
=
 OpenBabel11052422163D

 25 28  0  0  1  0  0  0  0  0999 V2000
  161.8390  207.7630  151.3960 C   0  0  0  0  0  0  0  0  0  0  0  0
  161.9920  208.6460  150.3210 C   0  0  0  0  0  0  0  0  0  0  0  0
  161.0460  209.5160  152.8570 C   0  0  0  0  0  3  0  0  0  0  0  0
  162.1130  206.2960  151.4710 C   0  0  1  0  0  3  0  0  0  0  0  0
  160.7420  203.8990  152.1820 C   0  0  0  0  0  3  0  0  0  0  0  0
  161.2060  210.4300  151.8070 C   0  0  0  0  0  3  0  0  0  0  0  0
  161.6900  205.9740  152.8400 N   0  0  0  0  0  0  0  0  0  0  0  0
  161.1880  204.6790  153.1670 C   0  0  0  0  0  3  0  0  0  0  0  0
  160.7320  204.4180  150.7990 C   0  0  0  0  0  3  0  0  0  0  0  0
  161.3880  208.1900  152.6210 C   0  0  0  0  0  0  0  0  0  0  0  0
  161.2780  207.1170  153.5380 N   0  0  0  0  0  2  0  0  0  0  0  0
  161.3150  205.5430  150.4970 N   0  0  0  0  0  0  0  0  0  0  0  0
  161.6830  210.0170  150.5440 C   0  0  0  0  0  0  0  0  0  0  0  0
  161.9200  211.0240  149.5610 N   0  0  0  0  0  0  0  0  0  0  0  0
  161.6250  212.3730  148.9940 C   0  0  0  0  0  2  0  0  0  0  0  0
  162.6080  211.6290  148.3810 C   0  0  0  0  0  2  0  0  0  0  0  0
  162.4300  208.1250  149.0580 N   0  0  0  0  0  2  0  0  0  0  0  0
  161.5440  207.7310  147.9750 C   0  0  0  0  0  2  0  0  0  0  0  0
  162.1540  206.5740  147.2030 C   0  0  0  0  0  2  0  0  0  0  0  0
  161.1440  205.9590  146.3580 N   0  0  0  0  0  2  0  0  0  0  0  0
  161.8000  204.9200  145.5780 C   0  0  2  0  0  3  0  0  0  0  0  0
  161.4440  205.0410  144.2340 O   0  0  0  0  0  1  0  0  0  0  0  0
  161.4030  203.5760  146.0870 C   0  0  0  0  0  0  0  0  0  0  0  0
  160.8250  202.6560  145.2240 O   0  0  0  0  0  0  0  0  0  0  0  0
  161.5910  203.2690  147.2940 O   0  0  0  0  0  1  0  0  0  0  0  0
  1  4  1  0  0  0  0
  1 10  1  0  0  0  0
  2 13  1  0  0  0  0
  2  1  2  0  0  0  0
  4 12  1  6  0  0  0
  4  7  1  0  0  0  0
  5  8  2  0  0  0  0
  6  3  1  0  0  0  0
  7  8  1  0  0  0  0
  7 11  1  0  0  0  0
  9  5  1  0  0  0  0
 10  3  2  0  0  0  0
 10 11  1  0  0  0  0
 12  9  2  0  0  0  0
 13  6  2  0  0  0  0
 14 13  1  0  0  0  0
 15 14  1  0  0  0  0
 16 15  1  0  0  0  0
 16 14  1  0  0  0  0
 17  2  1  0  0  0  0
 18 17  1  0  0  0  0
 19 18  1  0  0  0  0
 20 19  1  0  0  0  0
 21 22  1  6  0  0  0
 21 23  1  0  0  0  0
 21 20  1  0  0  0  0
 23 25  1  0  0  0  0
 24 23  2  0  0  0  0
M  END
>  <MODEL>
5

>  <REMARK>
 VINA RESULT:      -7.1      3.321      6.420
  Name = 
  7 active torsions:
  status: ('A' for Active; 'I' for Inactive)
    1  A    between atoms: C_2  and  C_21
    2  A    between atoms: C_3  and  N_16
    3  A    between atoms: C_6  and  N_15
    4  A    between atoms: C_6  and  C_23
    5  A    between atoms: N_13  and  C_24
    6  A    between atoms: N_15  and  C_21
    7  A    between atoms: N_16  and  C_23
                            x       y       z     vdW  Elec       q    Type
                         _______ _______ _______ _____ _____    ______ ____

>  <TORSDO>
F 7

$$$$
=
 OpenBabel11052422163D

 25 28  0  0  1  0  0  0  0  0999 V2000
  161.5320  205.0530  151.1470 C   0  0  0  0  0  0  0  0  0  0  0  0
  161.6550  206.4230  150.8910 C   0  0  0  0  0  0  0  0  0  0  0  0
  160.8310  205.4360  153.4270 C   0  0  0  0  0  3  0  0  0  0  0  0
  161.7820  203.8880  150.2450 C   0  0  1  0  0  3  0  0  0  0  0  0
  160.3990  201.5810  149.2980 C   0  0  0  0  0  3  0  0  0  0  0  0
  160.9650  206.8150  153.2100 C   0  0  0  0  0  3  0  0  0  0  0  0
  161.4110  202.7520  151.0990 N   0  0  0  0  0  0  0  0  0  0  0  0
  160.8990  201.5460  150.5330 C   0  0  0  0  0  3  0  0  0  0  0  0
  160.3400  202.8700  148.5790 C   0  0  0  0  0  3  0  0  0  0  0  0
  161.1390  204.5810  152.3760 C   0  0  0  0  0  0  0  0  0  0  0  0
  161.0490  203.1690  152.3870 N   0  0  0  0  0  2  0  0  0  0  0  0
  160.9310  203.9310  149.0510 N   0  0  0  0  0  0  0  0  0  0  0  0
  161.3810  207.3210  151.9600 C   0  0  0  0  0  0  0  0  0  0  0  0
  161.5950  208.7280  151.8510 N   0  0  0  0  0  0  0  0  0  0  0  0
  161.2110  210.1260  152.2050 C   0  0  0  0  0  2  0  0  0  0  0  0
  162.3150  209.9570  151.4000 C   0  0  0  0  0  2  0  0  0  0  0  0
  162.0320  206.8470  149.5720 N   0  0  0  0  0  2  0  0  0  0  0  0
  161.2190  207.6910  148.7140 C   0  0  0  0  0  2  0  0  0  0  0  0
  160.8940  206.9560  147.4250 C   0  0  0  0  0  2  0  0  0  0  0  0
  162.0810  206.2760  146.9330 N   0  0  0  0  0  2  0  0  0  0  0  0
  161.7880  205.8030  145.5880 C   0  0  2  0  0  3  0  0  0  0  0  0
  160.4280  205.9590  145.3160 O   0  0  0  0  0  1  0  0  0  0  0  0
  162.1680  204.3670  145.4620 C   0  0  0  0  0  0  0  0  0  0  0  0
  161.1890  203.4160  145.2060 O   0  0  0  0  0  0  0  0  0  0  0  0
  163.3700  204.0100  145.5820 O   0  0  0  0  0  1  0  0  0  0  0  0
  1 10  1  0  0  0  0
  2  1  2  0  0  0  0
  2 13  1  0  0  0  0
  4 12  1  6  0  0  0
  4  7  1  0  0  0  0
  4  1  1  0  0  0  0
  5  8  2  0  0  0  0
  6  3  1  0  0  0  0
  7 11  1  0  0  0  0
  8  7  1  0  0  0  0
  9 12  2  0  0  0  0
  9  5  1  0  0  0  0
 10 11  1  0  0  0  0
 10  3  2  0  0  0  0
 13  6  2  0  0  0  0
 14 13  1  0  0  0  0
 14 15  1  0  0  0  0
 16 14  1  0  0  0  0
 16 15  1  0  0  0  0
 17  2  1  0  0  0  0
 18 17  1  0  0  0  0
 19 18  1  0  0  0  0
 20 19  1  0  0  0  0
 21 22  1  1  0  0  0
 21 20  1  0  0  0  0
 23 25  1  0  0  0  0
 23 21  1  0  0  0  0
 24 23  2  0  0  0  0
M  END
>  <MODEL>
6

>  <REMARK>
 VINA RESULT:      -7.0      3.278      4.975
  Name = 
  7 active torsions:
  status: ('A' for Active; 'I' for Inactive)
    1  A    between atoms: C_2  and  C_21
    2  A    between atoms: C_3  and  N_16
    3  A    between atoms: C_6  and  N_15
    4  A    between atoms: C_6  and  C_23
    5  A    between atoms: N_13  and  C_24
    6  A    between atoms: N_15  and  C_21
    7  A    between atoms: N_16  and  C_23
                            x       y       z     vdW  Elec       q    Type
                         _______ _______ _______ _____ _____    ______ ____

>  <TORSDO>
F 7

$$$$
=
 OpenBabel11052422163D

 25 28  0  0  1  0  0  0  0  0999 V2000
  160.9030  204.6060  149.8530 C   0  0  0  0  0  0  0  0  0  0  0  0
  161.0650  204.8520  148.4850 C   0  0  0  0  0  0  0  0  0  0  0  0
  161.0700  202.2150  149.5480 C   0  0  0  0  0  3  0  0  0  0  0  0
  160.7040  205.5680  150.9790 C   0  0  1  0  0  3  0  0  0  0  0  0
  161.8950  206.1980  153.4910 C   0  0  0  0  0  3  0  0  0  0  0  0
  161.2140  202.4260  148.1690 C   0  0  0  0  0  3  0  0  0  0  0  0
  160.6680  204.6760  152.1440 N   0  0  0  0  0  0  0  0  0  0  0  0
  161.1060  205.1260  153.4260 C   0  0  0  0  0  3  0  0  0  0  0  0
  162.3330  206.8500  152.2400 C   0  0  0  0  0  3  0  0  0  0  0  0
  160.9010  203.3290  150.3610 C   0  0  0  0  0  0  0  0  0  0  0  0
  160.7610  203.3290  151.7690 N   0  0  0  0  0  2  0  0  0  0  0  0
  161.8200  206.5140  151.0910 N   0  0  0  0  0  0  0  0  0  0  0  0
  161.2050  203.7270  147.6240 C   0  0  0  0  0  0  0  0  0  0  0  0
  161.2500  203.8540  146.2030 N   0  0  0  0  0  0  0  0  0  0  0  0
  160.5490  203.9060  144.8870 C   0  0  0  0  0  2  0  0  0  0  0  0
  161.9150  204.0710  144.8830 C   0  0  0  0  0  2  0  0  0  0  0  0
  161.0990  206.2120  148.0290 N   0  0  0  0  0  2  0  0  0  0  0  0
  162.2790  206.8780  147.5050 C   0  0  0  0  0  2  0  0  0  0  0  0
  162.7020  207.9940  148.4450 C   0  0  0  0  0  2  0  0  0  0  0  0
  161.7320  209.0750  148.3940 N   0  0  0  0  0  2  0  0  0  0  0  0
  162.3320  210.2330  149.0410 C   0  0  2  0  0  3  0  0  0  0  0  0
  161.8470  210.3510  150.3450 O   0  0  0  0  0  1  0  0  0  0  0  0
  162.0140  211.4680  148.2690 C   0  0  0  0  0  0  0  0  0  0  0  0
  162.9690  212.4670  148.1450 O   0  0  0  0  0  1  0  0  0  0  0  0
  160.8870  211.6080  147.7240 O   0  0  0  0  0  0  0  0  0  0  0  0
  1 10  1  0  0  0  0
  2  1  2  0  0  0  0
  3 10  2  0  0  0  0
  4  1  1  6  0  0  0
  4 12  1  0  0  0  0
  4  7  1  0  0  0  0
  6  3  1  0  0  0  0
  7  8  1  0  0  0  0
  8  5  2  0  0  0  0
  9  5  1  0  0  0  0
 10 11  1  0  0  0  0
 11  7  1  0  0  0  0
 12  9  2  0  0  0  0
 13  6  2  0  0  0  0
 13  2  1  0  0  0  0
 14 13  1  0  0  0  0
 15 14  1  0  0  0  0
 16 15  1  0  0  0  0
 16 14  1  0  0  0  0
 17  2  1  0  0  0  0
 18 17  1  0  0  0  0
 18 19  1  0  0  0  0
 20 19  1  0  0  0  0
 20 21  1  0  0  0  0
 21 22  1  1  0  0  0
 23 21  1  0  0  0  0
 24 23  1  0  0  0  0
 25 23  2  0  0  0  0
M  END
>  <MODEL>
7

>  <REMARK>
 VINA RESULT:      -6.8      1.387      4.779
  Name = 
  7 active torsions:
  status: ('A' for Active; 'I' for Inactive)
    1  A    between atoms: C_2  and  C_21
    2  A    between atoms: C_3  and  N_16
    3  A    between atoms: C_6  and  N_15
    4  A    between atoms: C_6  and  C_23
    5  A    between atoms: N_13  and  C_24
    6  A    between atoms: N_15  and  C_21
    7  A    between atoms: N_16  and  C_23
                            x       y       z     vdW  Elec       q    Type
                         _______ _______ _______ _____ _____    ______ ____

>  <TORSDO>
F 7

$$$$
=
 OpenBabel11052422163D

 25 28  0  0  1  0  0  0  0  0999 V2000
  161.1890  206.4810  149.2760 C   0  0  0  0  0  0  0  0  0  0  0  0
  161.0680  206.1100  150.6200 C   0  0  0  0  0  0  0  0  0  0  0  0
  161.9530  208.7000  149.8500 C   0  0  0  0  0  3  0  0  0  0  0  0
  160.9080  205.6910  148.0400 C   0  0  1  0  0  3  0  0  0  0  0  0
  162.2500  204.9130  145.6480 C   0  0  0  0  0  3  0  0  0  0  0  0
  161.8230  208.3680  151.2060 C   0  0  0  0  0  3  0  0  0  0  0  0
  161.2950  206.6300  146.9790 N   0  0  0  0  0  0  0  0  0  0  0  0
  161.7830  206.1590  145.7240 C   0  0  0  0  0  3  0  0  0  0  0  0
  162.2980  204.0830  146.8690 C   0  0  0  0  0  3  0  0  0  0  0  0
  161.6120  207.7360  148.9100 C   0  0  0  0  0  0  0  0  0  0  0  0
  161.6930  207.8680  147.5030 N   0  0  0  0  0  2  0  0  0  0  0  0
  161.7270  204.4760  147.9720 N   0  0  0  0  0  0  0  0  0  0  0  0
  161.3760  207.0900  151.6050 C   0  0  0  0  0  0  0  0  0  0  0  0
  161.1680  206.8640  152.9990 N   0  0  0  0  0  0  0  0  0  0  0  0
  160.9330  205.9270  154.1370 C   0  0  0  0  0  2  0  0  0  0  0  0
  161.0560  207.2660  154.4340 C   0  0  0  0  0  2  0  0  0  0  0  0
  160.6590  204.7700  150.9310 N   0  0  0  0  0  2  0  0  0  0  0  0
  161.5640  203.6990  151.3100 C   0  0  0  0  0  2  0  0  0  0  0  0
  160.8310  202.3690  151.2830 C   0  0  0  0  0  2  0  0  0  0  0  0
  161.3090  201.5660  150.1700 N   0  0  0  0  0  2  0  0  0  0  0  0
  160.3930  201.7700  149.0570 C   0  0  2  0  0  3  0  0  0  0  0  0
  159.1140  201.3350  149.4100 O   0  0  0  0  0  1  0  0  0  0  0  0
  160.8710  201.0190  147.8620 C   0  0  0  0  0  0  0  0  0  0  0  0
  160.3820  201.3430  146.6040 O   0  0  0  0  0  0  0  0  0  0  0  0
  161.7180  200.0950  147.9840 O   0  0  0  0  0  1  0  0  0  0  0  0
  1  2  1  0  0  0  0
  2 17  1  0  0  0  0
  2 13  2  0  0  0  0
  3  6  2  0  0  0  0
  4 12  1  1  0  0  0
  4  1  1  0  0  0  0
  5  8  2  0  0  0  0
  5  9  1  0  0  0  0
  6 13  1  0  0  0  0
  7 11  1  0  0  0  0
  7  4  1  0  0  0  0
  8  7  1  0  0  0  0
  9 12  2  0  0  0  0
 10  1  2  0  0  0  0
 10  3  1  0  0  0  0
 11 10  1  0  0  0  0
 13 14  1  0  0  0  0
 14 15  1  0  0  0  0
 14 16  1  0  0  0  0
 15 16  1  0  0  0  0
 17 18  1  0  0  0  0
 19 18  1  0  0  0  0
 20 19  1  0  0  0  0
 21 22  1  1  0  0  0
 21 20  1  0  0  0  0
 23 25  1  0  0  0  0
 23 21  1  0  0  0  0
 24 23  2  0  0  0  0
M  END
>  <MODEL>
8

>  <REMARK>
 VINA RESULT:      -6.8      4.285      6.185
  Name = 
  7 active torsions:
  status: ('A' for Active; 'I' for Inactive)
    1  A    between atoms: C_2  and  C_21
    2  A    between atoms: C_3  and  N_16
    3  A    between atoms: C_6  and  N_15
    4  A    between atoms: C_6  and  C_23
    5  A    between atoms: N_13  and  C_24
    6  A    between atoms: N_15  and  C_21
    7  A    between atoms: N_16  and  C_23
                            x       y       z     vdW  Elec       q    Type
                         _______ _______ _______ _____ _____    ______ ____

>  <TORSDO>
F 7

$$$$
=
 OpenBabel11052422163D

 25 28  0  0  1  0  0  0  0  0999 V2000
  161.4180  208.0410  152.9880 C   0  0  0  0  0  0  0  0  0  0  0  0
  161.2160  207.2840  151.8290 C   0  0  0  0  0  0  0  0  0  0  0  0
  161.7140  210.0820  151.7290 C   0  0  0  0  0  3  0  0  0  0  0  0
  161.4260  207.6110  154.4190 C   0  0  1  0  0  3  0  0  0  0  0  0
  160.1280  208.2920  156.8640 C   0  0  0  0  0  3  0  0  0  0  0  0
  161.5370  209.3490  150.5470 C   0  0  0  0  0  3  0  0  0  0  0  0
  161.6290  208.8840  155.1220 N   0  0  0  0  0  0  0  0  0  0  0  0
  161.1080  209.0870  156.4360 C   0  0  0  0  0  3  0  0  0  0  0  0
  159.5770  207.2690  155.9530 C   0  0  0  0  0  3  0  0  0  0  0  0
  161.6640  209.3920  152.9340 C   0  0  0  0  0  0  0  0  0  0  0  0
  161.7970  209.9500  154.2280 N   0  0  0  0  0  2  0  0  0  0  0  0
  160.1490  207.0050  154.8120 N   0  0  0  0  0  0  0  0  0  0  0  0
  161.2980  207.9590  150.5780 C   0  0  0  0  0  0  0  0  0  0  0  0
  161.2340  207.2670  149.3310 N   0  0  0  0  0  0  0  0  0  0  0  0
  161.8660  206.8710  148.0380 C   0  0  0  0  0  2  0  0  0  0  0  0
  160.6090  206.3780  148.3060 C   0  0  0  0  0  2  0  0  0  0  0  0
  160.9240  205.8860  151.9610 N   0  0  0  0  0  2  0  0  0  0  0  0
  161.9190  204.8270  151.9110 C   0  0  0  0  0  2  0  0  0  0  0  0
  161.2620  203.5210  151.4990 C   0  0  0  0  0  2  0  0  0  0  0  0
  161.0190  203.5230  150.0650 N   0  0  0  0  0  2  0  0  0  0  0  0
  160.6150  202.1760  149.6880 C   0  0  2  0  0  3  0  0  0  0  0  0
  161.1680  201.2500  150.5750 O   0  0  0  0  0  1  0  0  0  0  0  0
  161.0700  201.8800  148.3000 C   0  0  0  0  0  0  0  0  0  0  0  0
  161.2900  200.5660  147.9130 O   0  0  0  0  0  1  0  0  0  0  0  0
  161.2520  202.8140  147.4740 O   0  0  0  0  0  0  0  0  0  0  0  0
  2 17  1  0  0  0  0
  2  1  2  0  0  0  0
  3 10  2  0  0  0  0
  4  1  1  6  0  0  0
  4 12  1  0  0  0  0
  4  7  1  0  0  0  0
  6 13  2  0  0  0  0
  6  3  1  0  0  0  0
  7  8  1  0  0  0  0
  8  5  2  0  0  0  0
  9  5  1  0  0  0  0
 10  1  1  0  0  0  0
 10 11  1  0  0  0  0
 11  7  1  0  0  0  0
 12  9  2  0  0  0  0
 13  2  1  0  0  0  0
 14 13  1  0  0  0  0
 15 16  1  0  0  0  0
 15 14  1  0  0  0  0
 16 14  1  0  0  0  0
 18 17  1  0  0  0  0
 19 18  1  0  0  0  0
 20 19  1  0  0  0  0
 21 20  1  0  0  0  0
 21 22  1  1  0  0  0
 23 21  1  0  0  0  0
 24 23  1  0  0  0  0
 25 23  2  0  0  0  0
M  END
>  <MODEL>
9

>  <REMARK>
 VINA RESULT:      -6.7      4.300      8.158
  Name = 
  7 active torsions:
  status: ('A' for Active; 'I' for Inactive)
    1  A    between atoms: C_2  and  C_21
    2  A    between atoms: C_3  and  N_16
    3  A    between atoms: C_6  and  N_15
    4  A    between atoms: C_6  and  C_23
    5  A    between atoms: N_13  and  C_24
    6  A    between atoms: N_15  and  C_21
    7  A    between atoms: N_16  and  C_23
                            x       y       z     vdW  Elec       q    Type
                         _______ _______ _______ _____ _____    ______ ____

>  <TORSDO>
F 7

$$$$
