=
 OpenBabel11062408583D

 55 60  0  0  1  0  0  0  0  0999 V2000
  161.4620  203.5510  146.0750 C   0  0  0  0  0  2  0  0  0  0  0  0
  161.4040  205.8850  144.4360 C   0  0  2  0  0  3  0  0  0  0  0  0
  162.3180  205.8820  145.6670 C   0  0  2  0  0  3  0  0  0  0  0  0
  160.6990  203.7080  144.7660 C   0  0  0  0  0  2  0  0  0  0  0  0
  162.6950  204.4460  146.0400 C   0  0  0  0  0  2  0  0  0  0  0  0
  160.2740  205.0470  144.5950 O   0  0  0  0  0  0  0  0  0  0  0  0
  162.1390  205.6380  143.1260 C   0  0  0  0  0  2  0  0  0  0  0  0
  161.5530  206.5380  142.0570 C   0  0  0  0  0  2  0  0  0  0  0  0
  162.3930  206.4940  140.7960 C   0  0  0  0  0  2  0  0  0  0  0  0
  161.8180  207.3740  139.7390 C   0  0  0  0  0  0  0  0  0  0  0  0
  161.9290  207.0500  138.5270 O   0  0  0  0  0  0  0  0  0  0  0  0
  161.1290  208.5310  140.1070 O   0  0  0  0  0  0  0  0  0  0  0  0
  159.6520  209.2540  138.2730 C   0  0  0  0  0  2  0  0  0  0  0  0
  160.7850  209.5520  139.1770 C   0  0  1  0  0  0  0  0  0  0  0  0
  159.5020  210.0710  139.4190 O   0  0  0  0  0  0  0  0  0  0  0  0
  161.8230  210.6110  138.7770 C   0  0  1  0  0  0  0  0  0  0  0  0
  162.8510  210.6050  139.7270 O   0  0  0  0  0  1  0  0  0  0  0  0
  162.3640  210.3110  137.5350 F   0  0  0  0  0  0  0  0  0  0  0  0
  161.5730  212.7090  137.6070 F   0  0  0  0  0  0  0  0  0  0  0  0
  161.1890  212.0070  138.7370 C   0  0  2  0  0  3  0  0  0  0  0  0
  161.4580  212.7950  140.0270 C   0  0  2  0  0  3  0  0  0  0  0  0
  162.1490  214.1200  139.7210 C   0  0  0  0  0  2  0  0  0  0  0  0
  163.9590  213.9490  139.5990 S   0  0  0  0  0  1  0  0  0  0  0  0
  162.2270  212.0110  141.0950 C   0  0  0  0  0  2  0  0  0  0  0  0
  160.1250  211.7030  142.2020 O   0  0  0  0  0  1  0  0  0  0  0  0
  161.4850  211.9270  142.4310 C   0  0  2  0  0  3  0  0  0  0  0  0
  161.6890  213.1610  143.3160 C   0  0  0  0  0  3  0  0  0  0  0  0
  160.6900  213.1560  144.4530 C   0  0  0  0  0  1  0  0  0  0  0  0
  163.0860  213.1870  143.9060 C   0  0  0  0  0  1  0  0  0  0  0  0
  161.5840  206.5740  146.8020 C   0  0  0  0  0  2  0  0  0  0  0  0
  162.5030  207.0350  147.8400 N   0  0  0  0  0  2  0  0  0  0  0  0
  161.9040  206.8100  149.1630 C   0  0  2  0  0  3  0  0  0  0  0  0
  160.9670  204.5130  149.6100 C   0  0  2  0  0  3  0  0  0  0  0  0
  160.0550  205.4720  150.3680 C   0  0  0  0  0  2  0  0  0  0  0  0
  160.6620  205.8960  149.0440 C   0  0  1  0  0  3  0  0  0  0  0  0
  160.2480  203.5730  148.8470 O   0  0  0  0  0  0  0  0  0  0  0  0
  161.1810  200.7370  148.3090 C   0  0  0  0  0  0  0  0  0  0  0  0
  161.6120  199.7360  147.6750 O   0  0  0  0  0  0  0  0  0  0  0  0
  161.8040  201.8290  149.1090 C   0  0  0  0  0  2  0  0  0  0  0  0
  160.4740  202.2890  149.3920 C   0  0  2  0  0  3  0  0  0  0  0  0
  159.8750  201.3120  148.5620 O   0  0  0  0  0  0  0  0  0  0  0  0
  161.7120  208.1420  149.9280 C   0  0  1  0  0  3  0  0  0  0  0  0
  162.4630  206.5550  151.7120 C   0  0  0  0  0  2  0  0  0  0  0  0
  161.9690  207.0530  154.1130 C   0  0  0  0  0  2  0  0  0  0  0  0
  160.6570  208.2960  152.2840 C   0  0  2  0  0  3  0  0  0  0  0  0
  160.8830  208.0830  153.7880 C   0  0  0  0  0  2  0  0  0  0  0  0
  162.0160  205.9670  153.0520 C   0  0  0  0  0  2  0  0  0  0  0  0
  161.9110  207.9680  151.4420 C   0  0  2  0  0  3  0  0  0  0  0  0
  160.2400  209.6690  152.0680 N   0  0  0  0  0  1  0  0  0  0  0  0
  162.5690  209.1380  149.4410 O   0  0  0  0  0  0  0  0  0  0  0  0
  161.8550  210.3310  149.5830 C   0  0  0  0  0  2  0  0  0  0  0  0
  161.6090  212.4500  148.5330 C   0  0  0  0  0  0  0  0  0  0  0  0
  163.0150  211.9690  148.3540 O   0  0  0  0  0  0  0  0  0  0  0  0
  160.7330  213.4220  148.7490 C   0  0  0  0  0  2  0  0  0  0  0  0
  161.9360  211.1330  148.3020 C   0  0  1  0  0  3  0  0  0  0  0  0
  2  7  1  6  0  0  0
  2  6  1  0  0  0  0
  2  3  1  0  0  0  0
  3  5  1  0  0  0  0
  3 30  1  1  0  0  0
  4  1  1  0  0  0  0
  5  1  1  0  0  0  0
  6  4  1  0  0  0  0
  8  7  1  0  0  0  0
  9  8  1  0  0  0  0
 10 12  1  0  0  0  0
 10  9  1  0  0  0  0
 11 10  2  0  0  0  0
 13 14  1  0  0  0  0
 13 15  1  0  0  0  0
 14 15  1  0  0  0  0
 14 12  1  1  0  0  0
 16 18  1  6  0  0  0
 16 14  1  0  0  0  0
 16 17  1  0  0  0  0
 20 19  1  6  0  0  0
 20 16  1  0  0  0  0
 20 21  1  0  0  0  0
 21 22  1  6  0  0  0
 21 24  1  0  0  0  0
 23 22  1  0  0  0  0
 24 26  1  0  0  0  0
 26 25  1  6  0  0  0
 26 27  1  0  0  0  0
 27 29  1  0  0  0  0
 27 28  1  0  0  0  0
 30 31  1  0  0  0  0
 32 31  1  6  0  0  0
 32 42  1  0  0  0  0
 33 36  1  6  0  0  0
 33 34  1  0  0  0  0
 35 32  1  1  0  0  0
 35 33  1  0  0  0  0
 35 34  1  0  0  0  0
 37 41  1  0  0  0  0
 37 39  1  0  0  0  0
 38 37  2  0  0  0  0
 39 40  1  0  0  0  0
 40 36  1  6  0  0  0
 41 40  1  0  0  0  0
 42 50  1  6  0  0  0
 43 47  1  0  0  0  0
 45 49  1  1  0  0  0
 45 46  1  0  0  0  0
 46 44  1  0  0  0  0
 47 44  1  0  0  0  0
 48 42  1  6  0  0  0
 48 43  1  0  0  0  0
 48 45  1  0  0  0  0
 50 51  1  0  0  0  0
 52 54  2  0  0  0  0
 53 52  1  0  0  0  0
 55 53  1  0  0  0  0
 55 52  1  0  0  0  0
 55 51  1  1  0  0  0
M  END
>  <MODEL>
1

>  <REMARK>
 VINA RESULT:      -6.0      0.000      0.000
  Name = 
  24 active torsions:
  status: ('A' for Active; 'I' for Inactive)
    1  A    between atoms: C_1  and  C_29
    2  A    between atoms: C_2  and  N_28
    3  A    between atoms: C_2  and  C_31
    4  A    between atoms: C_3  and  C_29
    5  A    between atoms: C_3  and  C_38
    6  A    between atoms: C_6  and  C_14
    7  A    between atoms: C_6  and  C_20
    8  A    between atoms: C_8  and  O_22
    9  A    between atoms: C_8  and  C_35
   10  A    between atoms: C_11  and  C_38
   11  A    between atoms: C_13  and  O_48
   12  A    between atoms: C_14  and  C_38
   13  A    between atoms: C_19  and  C_40
   14  A    between atoms: C_19  and  O_45
   15  A    between atoms: C_20  and  O_22
   16  A    between atoms: C_26  and  C_49
   17  A    between atoms: C_27  and  C_54
   18  A    between atoms: N_28  and  C_33
   19  A    between atoms: C_33  and  C_49
   20  A    between atoms: C_33  and  C_52
   21  A    between atoms: C_35  and  C_51
   22  A    between atoms: C_39  and  O_48
   23  A    between atoms: O_45  and  C_49
   24  A    between atoms: C_51  and  C_54
                            x       y       z     vdW  Elec       q    Type
                         _______ _______ _______ _____ _____    ______ ____

>  <TORSDO>
F 24

$$$$
=
 OpenBabel11062408583D

 55 60  0  0  1  0  0  0  0  0999 V2000
  161.6520  203.7610  146.5710 C   0  0  0  0  0  2  0  0  0  0  0  0
  161.2540  205.8380  144.6570 C   0  0  2  0  0  3  0  0  0  0  0  0
  162.2120  206.0980  145.8250 C   0  0  2  0  0  3  0  0  0  0  0  0
  160.8220  203.6590  145.2970 C   0  0  0  0  0  2  0  0  0  0  0  0
  162.7700  204.7740  146.3540 C   0  0  0  0  0  2  0  0  0  0  0  0
  160.2370  204.9090  144.9830 O   0  0  0  0  0  0  0  0  0  0  0  0
  161.9580  205.5050  143.3490 C   0  0  0  0  0  2  0  0  0  0  0  0
  161.7460  206.6450  142.3730 C   0  0  0  0  0  2  0  0  0  0  0  0
  161.8150  206.1480  140.9430 C   0  0  0  0  0  2  0  0  0  0  0  0
  162.1760  207.2540  140.0100 C   0  0  0  0  0  0  0  0  0  0  0  0
  162.9280  207.0220  139.0260 O   0  0  0  0  0  0  0  0  0  0  0  0
  161.6450  208.5290  140.2150 O   0  0  0  0  0  0  0  0  0  0  0  0
  159.9420  208.6610  138.4420 C   0  0  0  0  0  2  0  0  0  0  0  0
  161.0600  209.2980  139.1700 C   0  0  1  0  0  0  0  0  0  0  0  0
  159.7250  209.6300  139.4490 O   0  0  0  0  0  0  0  0  0  0  0  0
  161.8610  210.4270  138.5060 C   0  0  1  0  0  0  0  0  0  0  0  0
  162.5830  209.8900  137.4350 O   0  0  0  0  0  1  0  0  0  0  0  0
  161.0040  211.4040  138.0190 F   0  0  0  0  0  0  0  0  0  0  0  0
  163.3770  210.1140  140.3610 F   0  0  0  0  0  0  0  0  0  0  0  0
  162.8420  211.0580  139.5030 C   0  0  2  0  0  3  0  0  0  0  0  0
  162.2100  212.2350  140.2600 C   0  0  2  0  0  3  0  0  0  0  0  0
  162.8670  213.5530  139.8650 C   0  0  0  0  0  2  0  0  0  0  0  0
  164.3390  213.3100  138.8190 S   0  0  0  0  0  1  0  0  0  0  0  0
  162.1920  212.0670  141.7830 C   0  0  0  0  0  2  0  0  0  0  0  0
  159.8260  212.1740  141.4240 O   0  0  0  0  0  1  0  0  0  0  0  0
  160.7990  211.7680  142.3410 C   0  0  2  0  0  3  0  0  0  0  0  0
  160.5460  212.4030  143.7130 C   0  0  0  0  0  3  0  0  0  0  0  0
  161.4430  213.6080  143.9000 C   0  0  0  0  0  1  0  0  0  0  0  0
  159.1040  212.8520  143.8510 C   0  0  0  0  0  1  0  0  0  0  0  0
  161.4500  206.8480  146.9040 C   0  0  0  0  0  2  0  0  0  0  0  0
  162.2890  207.1240  148.0680 N   0  0  0  0  0  2  0  0  0  0  0  0
  161.6140  208.0940  148.9410 C   0  0  2  0  0  3  0  0  0  0  0  0
  161.6890  210.5930  148.6200 C   0  0  2  0  0  3  0  0  0  0  0  0
  161.9530  210.3730  150.1060 C   0  0  0  0  0  2  0  0  0  0  0  0
  162.4720  209.3730  149.0910 C   0  0  1  0  0  3  0  0  0  0  0  0
  162.6040  211.4880  148.0340 O   0  0  0  0  0  0  0  0  0  0  0  0
  160.4820  213.6520  147.9280 C   0  0  0  0  0  0  0  0  0  0  0  0
  159.5900  214.4520  148.3220 O   0  0  0  0  0  0  0  0  0  0  0  0
  161.9560  213.7280  147.7290 C   0  0  0  0  0  2  0  0  0  0  0  0
  161.8880  212.3890  147.2150 C   0  0  2  0  0  3  0  0  0  0  0  0
  160.5030  212.2720  147.4840 O   0  0  0  0  0  0  0  0  0  0  0  0
  161.1300  207.4300  150.2540 C   0  0  1  0  0  3  0  0  0  0  0  0
  160.2450  205.1730  149.6300 C   0  0  0  0  0  2  0  0  0  0  0  0
  161.3300  203.1120  150.5410 C   0  0  0  0  0  2  0  0  0  0  0  0
  161.7950  205.3740  151.6740 C   0  0  2  0  0  3  0  0  0  0  0  0
  162.0560  203.8610  151.6640 C   0  0  0  0  0  2  0  0  0  0  0  0
  160.0050  203.7800  150.2180 C   0  0  0  0  0  2  0  0  0  0  0  0
  161.4260  205.9220  150.2760 C   0  0  2  0  0  3  0  0  0  0  0  0
  162.9730  206.0440  152.1910 N   0  0  0  0  0  1  0  0  0  0  0  0
  161.6950  208.0490  151.3770 O   0  0  0  0  0  0  0  0  0  0  0  0
  160.6250  208.2610  152.2500 C   0  0  0  0  0  2  0  0  0  0  0  0
  160.6550  210.1050  153.7500 C   0  0  0  0  0  0  0  0  0  0  0  0
  160.1050  208.9030  154.4530 O   0  0  0  0  0  0  0  0  0  0  0  0
  160.6600  211.4090  153.5130 C   0  0  0  0  0  2  0  0  0  0  0  0
  161.1340  208.8280  153.5570 C   0  0  1  0  0  3  0  0  0  0  0  0
  2  7  1  6  0  0  0
  2  6  1  0  0  0  0
  2  3  1  0  0  0  0
  3  5  1  0  0  0  0
  3 30  1  1  0  0  0
  4  1  1  0  0  0  0
  5  1  1  0  0  0  0
  6  4  1  0  0  0  0
  8  7  1  0  0  0  0
  9  8  1  0  0  0  0
 10 12  1  0  0  0  0
 10  9  1  0  0  0  0
 11 10  2  0  0  0  0
 13 14  1  0  0  0  0
 13 15  1  0  0  0  0
 14 15  1  0  0  0  0
 14 12  1  1  0  0  0
 16 17  1  6  0  0  0
 16 14  1  0  0  0  0
 16 20  1  0  0  0  0
 18 16  1  0  0  0  0
 20 21  1  0  0  0  0
 20 19  1  1  0  0  0
 21 22  1  1  0  0  0
 21 24  1  0  0  0  0
 23 22  1  0  0  0  0
 24 26  1  0  0  0  0
 26 25  1  6  0  0  0
 26 27  1  0  0  0  0
 27 29  1  0  0  0  0
 27 28  1  0  0  0  0
 30 31  1  0  0  0  0
 32 31  1  1  0  0  0
 32 42  1  0  0  0  0
 33 36  1  6  0  0  0
 33 35  1  0  0  0  0
 33 34  1  0  0  0  0
 35 32  1  1  0  0  0
 35 34  1  0  0  0  0
 37 38  2  0  0  0  0
 39 37  1  0  0  0  0
 40 41  1  0  0  0  0
 40 39  1  0  0  0  0
 40 36  1  1  0  0  0
 41 37  1  0  0  0  0
 42 50  1  1  0  0  0
 43 47  1  0  0  0  0
 43 48  1  0  0  0  0
 44 46  1  0  0  0  0
 45 49  1  6  0  0  0
 46 45  1  0  0  0  0
 47 44  1  0  0  0  0
 48 42  1  1  0  0  0
 48 45  1  0  0  0  0
 50 51  1  0  0  0  0
 52 53  1  0  0  0  0
 54 52  2  0  0  0  0
 55 51  1  6  0  0  0
 55 52  1  0  0  0  0
 55 53  1  0  0  0  0
M  END
>  <MODEL>
2

>  <REMARK>
 VINA RESULT:      -6.0      1.764      4.786
  Name = 
  24 active torsions:
  status: ('A' for Active; 'I' for Inactive)
    1  A    between atoms: C_1  and  C_29
    2  A    between atoms: C_2  and  N_28
    3  A    between atoms: C_2  and  C_31
    4  A    between atoms: C_3  and  C_29
    5  A    between atoms: C_3  and  C_38
    6  A    between atoms: C_6  and  C_14
    7  A    between atoms: C_6  and  C_20
    8  A    between atoms: C_8  and  O_22
    9  A    between atoms: C_8  and  C_35
   10  A    between atoms: C_11  and  C_38
   11  A    between atoms: C_13  and  O_48
   12  A    between atoms: C_14  and  C_38
   13  A    between atoms: C_19  and  C_40
   14  A    between atoms: C_19  and  O_45
   15  A    between atoms: C_20  and  O_22
   16  A    between atoms: C_26  and  C_49
   17  A    between atoms: C_27  and  C_54
   18  A    between atoms: N_28  and  C_33
   19  A    between atoms: C_33  and  C_49
   20  A    between atoms: C_33  and  C_52
   21  A    between atoms: C_35  and  C_51
   22  A    between atoms: C_39  and  O_48
   23  A    between atoms: O_45  and  C_49
   24  A    between atoms: C_51  and  C_54
                            x       y       z     vdW  Elec       q    Type
                         _______ _______ _______ _____ _____    ______ ____

>  <TORSDO>
F 24

$$$$
=
 OpenBabel11062408583D

 55 60  0  0  1  0  0  0  0  0999 V2000
  162.0120  203.5550  146.3390 C   0  0  0  0  0  2  0  0  0  0  0  0
  161.2240  205.6340  144.5520 C   0  0  2  0  0  3  0  0  0  0  0  0
  162.2080  205.9750  145.6780 C   0  0  2  0  0  3  0  0  0  0  0  0
  161.1270  203.3930  145.1090 C   0  0  0  0  0  2  0  0  0  0  0  0
  162.9690  204.7190  146.1110 C   0  0  0  0  0  2  0  0  0  0  0  0
  160.3620  204.5620  144.8880 O   0  0  0  0  0  0  0  0  0  0  0  0
  161.8860  205.4530  143.1940 C   0  0  0  0  0  2  0  0  0  0  0  0
  161.5400  206.6390  142.3160 C   0  0  0  0  0  2  0  0  0  0  0  0
  161.9910  206.4030  140.8880 C   0  0  0  0  0  2  0  0  0  0  0  0
  162.0890  207.6880  140.1390 C   0  0  0  0  0  0  0  0  0  0  0  0
  163.1880  208.3000  140.0870 O   0  0  0  0  0  0  0  0  0  0  0  0
  160.9670  208.1820  139.4700 O   0  0  0  0  0  0  0  0  0  0  0  0
  161.3410  209.7140  137.5790 C   0  0  0  0  0  2  0  0  0  0  0  0
  160.8900  209.5130  138.9730 C   0  0  1  0  0  0  0  0  0  0  0  0
  159.9710  209.6260  137.9170 O   0  0  0  0  0  0  0  0  0  0  0  0
  160.8710  210.6990  139.9490 C   0  0  1  0  0  0  0  0  0  0  0  0
  159.6330  211.3410  139.8420 O   0  0  0  0  0  1  0  0  0  0  0  0
  161.0290  210.2530  141.2540 F   0  0  0  0  0  0  0  0  0  0  0  0
  163.2140  211.2690  140.0760 F   0  0  0  0  0  0  0  0  0  0  0  0
  161.9830  211.6990  139.6120 C   0  0  2  0  0  3  0  0  0  0  0  0
  161.6450  213.1160  140.0990 C   0  0  2  0  0  3  0  0  0  0  0  0
  161.7400  214.1210  138.9550 C   0  0  0  0  0  2  0  0  0  0  0  0
  163.3000  213.9710  138.0260 S   0  0  0  0  0  1  0  0  0  0  0  0
  162.4680  213.5810  141.3050 C   0  0  0  0  0  2  0  0  0  0  0  0
  160.7510  213.8040  142.9610 O   0  0  0  0  0  1  0  0  0  0  0  0
  161.9080  213.0880  142.6420 C   0  0  2  0  0  3  0  0  0  0  0  0
  162.9220  213.1610  143.7880 C   0  0  0  0  0  3  0  0  0  0  0  0
  163.8310  214.3570  143.6010 C   0  0  0  0  0  1  0  0  0  0  0  0
  162.2250  213.2940  145.1280 C   0  0  0  0  0  1  0  0  0  0  0  0
  161.4180  206.5690  146.8310 C   0  0  0  0  0  2  0  0  0  0  0  0
  162.2920  207.2050  147.8150 N   0  0  0  0  0  2  0  0  0  0  0  0
  162.0640  206.6040  149.1360 C   0  0  2  0  0  3  0  0  0  0  0  0
  160.9810  204.3870  149.6540 C   0  0  2  0  0  3  0  0  0  0  0  0
  160.2460  205.4040  150.5220 C   0  0  0  0  0  2  0  0  0  0  0  0
  160.7410  205.8040  149.1440 C   0  0  1  0  0  3  0  0  0  0  0  0
  160.1040  203.5300  148.9630 O   0  0  0  0  0  0  0  0  0  0  0  0
  161.1540  200.7610  148.3090 C   0  0  0  0  0  0  0  0  0  0  0  0
  161.6690  199.8200  147.6460 O   0  0  0  0  0  0  0  0  0  0  0  0
  161.6690  201.7980  149.2460 C   0  0  0  0  0  2  0  0  0  0  0  0
  160.3060  202.2120  149.4300 C   0  0  2  0  0  3  0  0  0  0  0  0
  159.8160  201.2920  148.4730 O   0  0  0  0  0  0  0  0  0  0  0  0
  162.2500  207.6440  150.2680 C   0  0  1  0  0  3  0  0  0  0  0  0
  162.3460  209.4800  148.5690 C   0  0  0  0  0  2  0  0  0  0  0  0
  161.2960  211.6950  149.0660 C   0  0  0  0  0  2  0  0  0  0  0  0
  161.7750  210.0770  151.0060 C   0  0  2  0  0  3  0  0  0  0  0  0
  161.2260  211.4450  150.5760 C   0  0  0  0  0  2  0  0  0  0  0  0
  162.5010  210.9980  148.4600 C   0  0  0  0  0  2  0  0  0  0  0  0
  161.6840  209.0200  149.8820 C   0  0  2  0  0  3  0  0  0  0  0  0
  161.0500  209.6360  152.1830 N   0  0  0  0  0  1  0  0  0  0  0  0
  161.6700  207.2030  151.4650 O   0  0  0  0  0  0  0  0  0  0  0  0
  162.7180  206.6130  152.1780 C   0  0  0  0  0  2  0  0  0  0  0  0
  161.2470  206.6390  154.0470 C   0  0  0  0  0  0  0  0  0  0  0  0
  160.8690  205.5150  153.1330 O   0  0  0  0  0  0  0  0  0  0  0  0
  160.9210  207.6220  154.8730 C   0  0  0  0  0  2  0  0  0  0  0  0
  162.1670  205.8660  153.3730 C   0  0  1  0  0  3  0  0  0  0  0  0
  2  7  1  6  0  0  0
  2  6  1  0  0  0  0
  2  3  1  0  0  0  0
  3  5  1  0  0  0  0
  3 30  1  1  0  0  0
  4  1  1  0  0  0  0
  5  1  1  0  0  0  0
  6  4  1  0  0  0  0
  8  7  1  0  0  0  0
  9  8  1  0  0  0  0
 10  9  1  0  0  0  0
 11 10  2  0  0  0  0
 12 10  1  0  0  0  0
 13 15  1  0  0  0  0
 13 14  1  0  0  0  0
 14 12  1  1  0  0  0
 14 16  1  0  0  0  0
 15 14  1  0  0  0  0
 16 17  1  6  0  0  0
 16 18  1  0  0  0  0
 20 16  1  0  0  0  0
 20 19  1  1  0  0  0
 20 21  1  0  0  0  0
 21 22  1  6  0  0  0
 21 24  1  0  0  0  0
 23 22  1  0  0  0  0
 24 26  1  0  0  0  0
 26 25  1  1  0  0  0
 26 27  1  0  0  0  0
 27 29  1  0  0  0  0
 28 27  1  0  0  0  0
 30 31  1  0  0  0  0
 32 31  1  6  0  0  0
 32 42  1  0  0  0  0
 33 36  1  6  0  0  0
 33 34  1  0  0  0  0
 35 32  1  1  0  0  0
 35 33  1  0  0  0  0
 35 34  1  0  0  0  0
 37 41  1  0  0  0  0
 37 39  1  0  0  0  0
 38 37  2  0  0  0  0
 39 40  1  0  0  0  0
 40 36  1  6  0  0  0
 41 40  1  0  0  0  0
 42 50  1  1  0  0  0
 43 48  1  0  0  0  0
 44 46  1  0  0  0  0
 45 49  1  1  0  0  0
 46 45  1  0  0  0  0
 47 43  1  0  0  0  0
 47 44  1  0  0  0  0
 48 42  1  1  0  0  0
 48 45  1  0  0  0  0
 50 51  1  0  0  0  0
 52 54  2  0  0  0  0
 53 55  1  0  0  0  0
 53 52  1  0  0  0  0
 55 51  1  6  0  0  0
 55 52  1  0  0  0  0
M  END
>  <MODEL>
3

>  <REMARK>
 VINA RESULT:      -4.9      1.448      3.071
  Name = 
  24 active torsions:
  status: ('A' for Active; 'I' for Inactive)
    1  A    between atoms: C_1  and  C_29
    2  A    between atoms: C_2  and  N_28
    3  A    between atoms: C_2  and  C_31
    4  A    between atoms: C_3  and  C_29
    5  A    between atoms: C_3  and  C_38
    6  A    between atoms: C_6  and  C_14
    7  A    between atoms: C_6  and  C_20
    8  A    between atoms: C_8  and  O_22
    9  A    between atoms: C_8  and  C_35
   10  A    between atoms: C_11  and  C_38
   11  A    between atoms: C_13  and  O_48
   12  A    between atoms: C_14  and  C_38
   13  A    between atoms: C_19  and  C_40
   14  A    between atoms: C_19  and  O_45
   15  A    between atoms: C_20  and  O_22
   16  A    between atoms: C_26  and  C_49
   17  A    between atoms: C_27  and  C_54
   18  A    between atoms: N_28  and  C_33
   19  A    between atoms: C_33  and  C_49
   20  A    between atoms: C_33  and  C_52
   21  A    between atoms: C_35  and  C_51
   22  A    between atoms: C_39  and  O_48
   23  A    between atoms: O_45  and  C_49
   24  A    between atoms: C_51  and  C_54
                            x       y       z     vdW  Elec       q    Type
                         _______ _______ _______ _____ _____    ______ ____

>  <TORSDO>
F 24

$$$$
=
 OpenBabel11062408583D

 55 60  0  0  1  0  0  0  0  0999 V2000
  161.4690  203.2580  146.2420 C   0  0  0  0  0  2  0  0  0  0  0  0
  161.1360  205.6830  144.7780 C   0  0  2  0  0  3  0  0  0  0  0  0
  161.8360  205.7460  146.1400 C   0  0  2  0  0  3  0  0  0  0  0  0
  160.8910  203.3860  144.8370 C   0  0  0  0  0  2  0  0  0  0  0  0
  162.4640  204.3890  146.4730 C   0  0  0  0  0  2  0  0  0  0  0  0
  160.2090  204.6160  144.6890 O   0  0  0  0  0  0  0  0  0  0  0  0
  162.0930  205.7320  143.5950 C   0  0  0  0  0  2  0  0  0  0  0  0
  161.3230  206.1460  142.3570 C   0  0  0  0  0  2  0  0  0  0  0  0
  162.2110  206.1000  141.1290 C   0  0  0  0  0  2  0  0  0  0  0  0
  162.1560  207.3870  140.3800 C   0  0  0  0  0  0  0  0  0  0  0  0
  163.0820  208.2300  140.5170 O   0  0  0  0  0  0  0  0  0  0  0  0
  161.0950  207.6300  139.5060 O   0  0  0  0  0  0  0  0  0  0  0  0
  162.0700  207.6750  137.2450 C   0  0  0  0  0  2  0  0  0  0  0  0
  161.2520  208.3400  138.2820 C   0  0  1  0  0  0  0  0  0  0  0  0
  160.6560  207.6640  137.2050 O   0  0  0  0  0  0  0  0  0  0  0  0
  161.0630  209.8630  138.2470 C   0  0  1  0  0  0  0  0  0  0  0  0
  162.2910  210.4560  137.9360 O   0  0  0  0  0  1  0  0  0  0  0  0
  160.1410  210.2130  137.2710 F   0  0  0  0  0  0  0  0  0  0  0  0
  159.2120  210.2970  139.7380 F   0  0  0  0  0  0  0  0  0  0  0  0
  160.5880  210.3840  139.6090 C   0  0  2  0  0  3  0  0  0  0  0  0
  161.1050  211.8020  139.8920 C   0  0  2  0  0  3  0  0  0  0  0  0
  161.8960  211.8440  141.1950 C   0  0  0  0  0  2  0  0  0  0  0  0
  162.2070  213.5460  141.7660 S   0  0  0  0  0  1  0  0  0  0  0  0
  160.0190  212.8840  139.8760 C   0  0  0  0  0  2  0  0  0  0  0  0
  160.1970  214.4500  138.0720 O   0  0  0  0  0  1  0  0  0  0  0  0
  159.5690  213.2650  138.4640 C   0  0  2  0  0  3  0  0  0  0  0  0
  158.0480  213.3890  138.3260 C   0  0  0  0  0  3  0  0  0  0  0  0
  157.4970  212.2010  137.5660 C   0  0  0  0  0  1  0  0  0  0  0  0
  157.3780  213.4400  139.6860 C   0  0  0  0  0  1  0  0  0  0  0  0
  160.8070  206.1490  147.1820 C   0  0  0  0  0  2  0  0  0  0  0  0
  161.3220  207.1790  148.0810 N   0  0  0  0  0  2  0  0  0  0  0  0
  161.6170  206.5860  149.3920 C   0  0  2  0  0  3  0  0  0  0  0  0
  161.0970  204.1370  149.6870 C   0  0  2  0  0  3  0  0  0  0  0  0
  160.8130  204.7720  151.0440 C   0  0  0  0  0  2  0  0  0  0  0  0
  160.5330  205.5500  149.7730 C   0  0  1  0  0  3  0  0  0  0  0  0
  160.0590  203.2870  149.2590 O   0  0  0  0  0  0  0  0  0  0  0  0
  161.1800  200.6490  148.2680 C   0  0  0  0  0  0  0  0  0  0  0  0
  161.6590  199.7920  147.4760 O   0  0  0  0  0  0  0  0  0  0  0  0
  161.7500  201.6540  149.2080 C   0  0  0  0  0  2  0  0  0  0  0  0
  160.4010  201.9590  149.5950 C   0  0  2  0  0  3  0  0  0  0  0  0
  159.8450  201.0730  148.6410 O   0  0  0  0  0  0  0  0  0  0  0  0
  161.9330  207.6750  150.4460 C   0  0  1  0  0  3  0  0  0  0  0  0
  162.3660  209.4010  148.6850 C   0  0  0  0  0  2  0  0  0  0  0  0
  161.5190  211.7340  148.9900 C   0  0  0  0  0  2  0  0  0  0  0  0
  161.6580  210.1790  151.0330 C   0  0  2  0  0  3  0  0  0  0  0  0
  161.2960  211.5710  150.4970 C   0  0  0  0  0  2  0  0  0  0  0  0
  162.6910  210.8870  148.5250 C   0  0  0  0  0  2  0  0  0  0  0  0
  161.5500  209.0790  149.9520 C   0  0  2  0  0  3  0  0  0  0  0  0
  160.7930  209.8760  152.1580 N   0  0  0  0  0  1  0  0  0  0  0  0
  161.2970  207.4040  151.6650 O   0  0  0  0  0  0  0  0  0  0  0  0
  162.3040  206.9020  152.4940 C   0  0  0  0  0  2  0  0  0  0  0  0
  161.2030  207.4690  154.5240 C   0  0  0  0  0  0  0  0  0  0  0  0
  160.3420  206.5300  153.7390 O   0  0  0  0  0  0  0  0  0  0  0  0
  161.3490  208.5200  155.3180 C   0  0  0  0  0  2  0  0  0  0  0  0
  161.7020  206.4130  153.7940 C   0  0  1  0  0  3  0  0  0  0  0  0
  1  5  1  0  0  0  0
  2  7  1  6  0  0  0
  2  3  1  0  0  0  0
  3  5  1  0  0  0  0
  3 30  1  1  0  0  0
  4  1  1  0  0  0  0
  6  2  1  0  0  0  0
  6  4  1  0  0  0  0
  8  7  1  0  0  0  0
  9  8  1  0  0  0  0
 10 11  2  0  0  0  0
 10  9  1  0  0  0  0
 12 10  1  0  0  0  0
 13 14  1  0  0  0  0
 14 12  1  1  0  0  0
 15 13  1  0  0  0  0
 15 14  1  0  0  0  0
 16 18  1  6  0  0  0
 16 14  1  0  0  0  0
 16 20  1  0  0  0  0
 17 16  1  0  0  0  0
 20 19  1  6  0  0  0
 20 21  1  0  0  0  0
 21 24  1  1  0  0  0
 21 22  1  0  0  0  0
 22 23  1  0  0  0  0
 26 25  1  1  0  0  0
 26 24  1  0  0  0  0
 27 26  1  0  0  0  0
 27 29  1  0  0  0  0
 28 27  1  0  0  0  0
 30 31  1  0  0  0  0
 32 31  1  6  0  0  0
 32 42  1  0  0  0  0
 33 36  1  6  0  0  0
 33 35  1  0  0  0  0
 33 34  1  0  0  0  0
 35 32  1  1  0  0  0
 35 34  1  0  0  0  0
 37 41  1  0  0  0  0
 37 39  1  0  0  0  0
 38 37  2  0  0  0  0
 39 40  1  0  0  0  0
 40 36  1  6  0  0  0
 41 40  1  0  0  0  0
 42 50  1  1  0  0  0
 43 48  1  0  0  0  0
 44 46  1  0  0  0  0
 45 49  1  1  0  0  0
 46 45  1  0  0  0  0
 47 43  1  0  0  0  0
 47 44  1  0  0  0  0
 48 42  1  1  0  0  0
 48 45  1  0  0  0  0
 50 51  1  0  0  0  0
 52 54  2  0  0  0  0
 53 55  1  0  0  0  0
 53 52  1  0  0  0  0
 55 51  1  6  0  0  0
 55 52  1  0  0  0  0
M  END
>  <MODEL>
4

>  <REMARK>
 VINA RESULT:      -4.9      1.840      3.587
  Name = 
  24 active torsions:
  status: ('A' for Active; 'I' for Inactive)
    1  A    between atoms: C_1  and  C_29
    2  A    between atoms: C_2  and  N_28
    3  A    between atoms: C_2  and  C_31
    4  A    between atoms: C_3  and  C_29
    5  A    between atoms: C_3  and  C_38
    6  A    between atoms: C_6  and  C_14
    7  A    between atoms: C_6  and  C_20
    8  A    between atoms: C_8  and  O_22
    9  A    between atoms: C_8  and  C_35
   10  A    between atoms: C_11  and  C_38
   11  A    between atoms: C_13  and  O_48
   12  A    between atoms: C_14  and  C_38
   13  A    between atoms: C_19  and  C_40
   14  A    between atoms: C_19  and  O_45
   15  A    between atoms: C_20  and  O_22
   16  A    between atoms: C_26  and  C_49
   17  A    between atoms: C_27  and  C_54
   18  A    between atoms: N_28  and  C_33
   19  A    between atoms: C_33  and  C_49
   20  A    between atoms: C_33  and  C_52
   21  A    between atoms: C_35  and  C_51
   22  A    between atoms: C_39  and  O_48
   23  A    between atoms: O_45  and  C_49
   24  A    between atoms: C_51  and  C_54
                            x       y       z     vdW  Elec       q    Type
                         _______ _______ _______ _____ _____    ______ ____

>  <TORSDO>
F 24

$$$$
=
 OpenBabel11062408583D

 55 60  0  0  1  0  0  0  0  0999 V2000
  161.9090  203.8510  146.8460 C   0  0  0  0  0  2  0  0  0  0  0  0
  161.1650  205.7550  144.8560 C   0  0  2  0  0  3  0  0  0  0  0  0
  162.1840  206.1760  145.9220 C   0  0  2  0  0  3  0  0  0  0  0  0
  160.9930  203.5930  145.6550 C   0  0  0  0  0  2  0  0  0  0  0  0
  162.9040  204.9440  146.4770 C   0  0  0  0  0  2  0  0  0  0  0  0
  160.2690  204.7610  145.3210 O   0  0  0  0  0  0  0  0  0  0  0  0
  161.7920  205.4020  143.5150 C   0  0  0  0  0  2  0  0  0  0  0  0
  161.8090  206.6390  142.6400 C   0  0  0  0  0  2  0  0  0  0  0  0
  161.9720  206.2630  141.1800 C   0  0  0  0  0  2  0  0  0  0  0  0
  161.9320  207.4730  140.3090 C   0  0  0  0  0  0  0  0  0  0  0  0
  162.8420  208.3390  140.4010 O   0  0  0  0  0  0  0  0  0  0  0  0
  160.9050  207.6140  139.3740 O   0  0  0  0  0  0  0  0  0  0  0  0
  161.9270  207.9230  137.1550 C   0  0  0  0  0  2  0  0  0  0  0  0
  161.0270  208.4290  138.2140 C   0  0  1  0  0  0  0  0  0  0  0  0
  160.5220  207.7890  137.0700 O   0  0  0  0  0  0  0  0  0  0  0  0
  160.7000  209.9280  138.2880 C   0  0  1  0  0  0  0  0  0  0  0  0
  161.8020  210.5950  138.8340 O   0  0  0  0  0  1  0  0  0  0  0  0
  160.4590  210.4320  137.0180 F   0  0  0  0  0  0  0  0  0  0  0  0
  158.3610  209.5000  138.7110 F   0  0  0  0  0  0  0  0  0  0  0  0
  159.4750  210.1740  139.1780 C   0  0  2  0  0  3  0  0  0  0  0  0
  159.2040  211.6730  139.3750 C   0  0  2  0  0  3  0  0  0  0  0  0
  158.1090  212.1570  138.4300 C   0  0  0  0  0  2  0  0  0  0  0  0
  156.4370  211.8270  139.0760 S   0  0  0  0  0  1  0  0  0  0  0  0
  160.4500  212.5580  139.2670 C   0  0  0  0  0  2  0  0  0  0  0  0
  162.0190  213.3860  140.8770 O   0  0  0  0  0  1  0  0  0  0  0  0
  160.6740  213.4360  140.5000 C   0  0  2  0  0  3  0  0  0  0  0  0
  159.7690  213.0660  141.6800 C   0  0  0  0  0  3  0  0  0  0  0  0
  160.5770  213.0130  142.9580 C   0  0  0  0  0  1  0  0  0  0  0  0
  158.6580  214.0830  141.8570 C   0  0  0  0  0  1  0  0  0  0  0  0
  161.4420  206.9220  147.0170 C   0  0  0  0  0  2  0  0  0  0  0  0
  162.3280  207.2890  148.1190 N   0  0  0  0  0  2  0  0  0  0  0  0
  161.6480  208.2500  148.9980 C   0  0  2  0  0  3  0  0  0  0  0  0
  161.6900  210.6920  148.3720 C   0  0  2  0  0  3  0  0  0  0  0  0
  161.7940  210.6670  149.8940 C   0  0  0  0  0  2  0  0  0  0  0  0
  162.4490  209.5710  149.0740 C   0  0  1  0  0  3  0  0  0  0  0  0
  162.6390  211.5450  147.7780 O   0  0  0  0  0  0  0  0  0  0  0  0
  160.2400  213.3840  147.5300 C   0  0  0  0  0  0  0  0  0  0  0  0
  159.1640  213.9680  147.8310 O   0  0  0  0  0  0  0  0  0  0  0  0
  161.6890  213.6930  147.6840 C   0  0  0  0  0  2  0  0  0  0  0  0
  161.9570  212.4790  146.9680 C   0  0  2  0  0  3  0  0  0  0  0  0
  160.5880  212.1280  146.8940 O   0  0  0  0  0  0  0  0  0  0  0  0
  161.2570  207.6010  150.3480 C   0  0  1  0  0  3  0  0  0  0  0  0
  160.2960  205.4340  149.5430 C   0  0  0  0  0  2  0  0  0  0  0  0
  161.1580  203.2720  150.4570 C   0  0  0  0  0  2  0  0  0  0  0  0
  161.6520  205.4510  151.7290 C   0  0  2  0  0  3  0  0  0  0  0  0
  161.8170  203.9260  151.6750 C   0  0  0  0  0  2  0  0  0  0  0  0
  159.9150  204.0390  150.0420 C   0  0  0  0  0  2  0  0  0  0  0  0
  161.4540  206.0770  150.3300 C   0  0  2  0  0  3  0  0  0  0  0  0
  162.8150  206.0200  152.3840 N   0  0  0  0  0  1  0  0  0  0  0  0
  161.9720  208.1670  151.4120 O   0  0  0  0  0  0  0  0  0  0  0  0
  161.0030  208.4960  152.3640 C   0  0  0  0  0  2  0  0  0  0  0  0
  160.1840  210.5460  153.2480 C   0  0  0  0  0  0  0  0  0  0  0  0
  160.9600  209.8250  154.3060 O   0  0  0  0  0  0  0  0  0  0  0  0
  159.1620  211.2990  152.8700 C   0  0  0  0  0  2  0  0  0  0  0  0
  161.3350  209.8330  152.9920 C   0  0  1  0  0  3  0  0  0  0  0  0
  2  7  1  6  0  0  0
  2  6  1  0  0  0  0
  2  3  1  0  0  0  0
  3  5  1  0  0  0  0
  3 30  1  1  0  0  0
  4  1  1  0  0  0  0
  5  1  1  0  0  0  0
  6  4  1  0  0  0  0
  8  7  1  0  0  0  0
  9  8  1  0  0  0  0
 10 11  2  0  0  0  0
 10  9  1  0  0  0  0
 12 10  1  0  0  0  0
 13 14  1  0  0  0  0
 14 16  1  0  0  0  0
 14 12  1  1  0  0  0
 15 13  1  0  0  0  0
 15 14  1  0  0  0  0
 16 18  1  6  0  0  0
 16 17  1  0  0  0  0
 16 20  1  0  0  0  0
 20 19  1  6  0  0  0
 20 21  1  0  0  0  0
 21 22  1  6  0  0  0
 22 23  1  0  0  0  0
 24 21  1  0  0  0  0
 24 26  1  0  0  0  0
 26 25  1  1  0  0  0
 26 27  1  0  0  0  0
 27 29  1  0  0  0  0
 27 28  1  0  0  0  0
 30 31  1  0  0  0  0
 32 31  1  6  0  0  0
 32 42  1  0  0  0  0
 33 36  1  6  0  0  0
 33 35  1  0  0  0  0
 33 34  1  0  0  0  0
 35 32  1  1  0  0  0
 35 34  1  0  0  0  0
 37 39  1  0  0  0  0
 37 38  2  0  0  0  0
 40 39  1  0  0  0  0
 40 36  1  1  0  0  0
 41 40  1  0  0  0  0
 41 37  1  0  0  0  0
 42 50  1  1  0  0  0
 43 47  1  0  0  0  0
 43 48  1  0  0  0  0
 44 46  1  0  0  0  0
 45 49  1  6  0  0  0
 46 45  1  0  0  0  0
 47 44  1  0  0  0  0
 48 42  1  1  0  0  0
 48 45  1  0  0  0  0
 50 51  1  0  0  0  0
 52 53  1  0  0  0  0
 54 52  2  0  0  0  0
 55 51  1  6  0  0  0
 55 52  1  0  0  0  0
 55 53  1  0  0  0  0
M  END
>  <MODEL>
5

>  <REMARK>
 VINA RESULT:      -4.8      2.248      4.994
  Name = 
  24 active torsions:
  status: ('A' for Active; 'I' for Inactive)
    1  A    between atoms: C_1  and  C_29
    2  A    between atoms: C_2  and  N_28
    3  A    between atoms: C_2  and  C_31
    4  A    between atoms: C_3  and  C_29
    5  A    between atoms: C_3  and  C_38
    6  A    between atoms: C_6  and  C_14
    7  A    between atoms: C_6  and  C_20
    8  A    between atoms: C_8  and  O_22
    9  A    between atoms: C_8  and  C_35
   10  A    between atoms: C_11  and  C_38
   11  A    between atoms: C_13  and  O_48
   12  A    between atoms: C_14  and  C_38
   13  A    between atoms: C_19  and  C_40
   14  A    between atoms: C_19  and  O_45
   15  A    between atoms: C_20  and  O_22
   16  A    between atoms: C_26  and  C_49
   17  A    between atoms: C_27  and  C_54
   18  A    between atoms: N_28  and  C_33
   19  A    between atoms: C_33  and  C_49
   20  A    between atoms: C_33  and  C_52
   21  A    between atoms: C_35  and  C_51
   22  A    between atoms: C_39  and  O_48
   23  A    between atoms: O_45  and  C_49
   24  A    between atoms: C_51  and  C_54
                            x       y       z     vdW  Elec       q    Type
                         _______ _______ _______ _____ _____    ______ ____

>  <TORSDO>
F 24

$$$$
=
 OpenBabel11062408583D

 55 60  0  0  1  0  0  0  0  0999 V2000
  162.6880  210.0340  152.7270 C   0  0  0  0  0  2  0  0  0  0  0  0
  160.6510  208.0380  152.6690 C   0  0  2  0  0  3  0  0  0  0  0  0
  160.4040  209.3520  151.9190 C   0  0  2  0  0  3  0  0  0  0  0  0
  162.7860  208.6350  153.3240 C   0  0  0  0  0  2  0  0  0  0  0  0
  161.7380  209.9990  151.5360 C   0  0  0  0  0  2  0  0  0  0  0  0
  161.5190  208.1980  153.7770 O   0  0  0  0  0  0  0  0  0  0  0  0
  161.0570  206.8830  151.7650 C   0  0  0  0  0  2  0  0  0  0  0  0
  160.9080  207.3150  150.3200 C   0  0  0  0  0  2  0  0  0  0  0  0
  162.2640  207.4640  149.6600 C   0  0  0  0  0  2  0  0  0  0  0  0
  162.2010  207.0950  148.2170 C   0  0  0  0  0  0  0  0  0  0  0  0
  163.0870  207.5130  147.4250 O   0  0  0  0  0  0  0  0  0  0  0  0
  161.1790  206.2580  147.7650 O   0  0  0  0  0  0  0  0  0  0  0  0
  160.0340  205.7380  145.6480 C   0  0  0  0  0  2  0  0  0  0  0  0
  161.2270  205.5920  146.5080 C   0  0  1  0  0  0  0  0  0  0  0  0
  161.2080  206.4970  145.4340 O   0  0  0  0  0  0  0  0  0  0  0  0
  162.1740  204.4000  146.3060 C   0  0  1  0  0  0  0  0  0  0  0  0
  163.1690  204.7720  145.3960 O   0  0  0  0  0  1  0  0  0  0  0  0
  162.7780  204.0540  147.5070 F   0  0  0  0  0  0  0  0  0  0  0  0
  160.2050  203.5600  145.1860 F   0  0  0  0  0  0  0  0  0  0  0  0
  161.4150  203.1900  145.7480 C   0  0  2  0  0  3  0  0  0  0  0  0
  161.2480  202.0840  146.8000 C   0  0  2  0  0  3  0  0  0  0  0  0
  160.9560  200.7410  146.1380 C   0  0  0  0  0  2  0  0  0  0  0  0
  159.8070  200.8950  144.7320 S   0  0  0  0  0  1  0  0  0  0  0  0
  160.2100  202.3960  147.8840 C   0  0  0  0  0  2  0  0  0  0  0  0
  159.4870  201.2320  149.8490 O   0  0  0  0  0  1  0  0  0  0  0  0
  160.5940  201.8510  149.2610 C   0  0  2  0  0  3  0  0  0  0  0  0
  161.1750  202.9180  150.1950 C   0  0  0  0  0  3  0  0  0  0  0  0
  160.1320  203.9740  150.4900 C   0  0  0  0  0  1  0  0  0  0  0  0
  161.6260  202.3080  151.5080 C   0  0  0  0  0  1  0  0  0  0  0  0
  159.5860  210.2630  152.8180 C   0  0  0  0  0  2  0  0  0  0  0  0
  160.1310  211.6190  152.8550 N   0  0  0  0  0  2  0  0  0  0  0  0
  159.1030  212.5490  153.3430 C   0  0  2  0  0  3  0  0  0  0  0  0
  159.1350  213.3570  150.9550 C   0  0  2  0  0  3  0  0  0  0  0  0
  157.7870  213.8050  151.5100 C   0  0  0  0  0  2  0  0  0  0  0  0
  159.0060  213.7820  152.4140 C   0  0  1  0  0  3  0  0  0  0  0  0
  159.8070  214.3870  150.2690 O   0  0  0  0  0  0  0  0  0  0  0  0
  161.9330  213.1110  148.5230 C   0  0  0  0  0  0  0  0  0  0  0  0
  163.0390  212.6070  148.1870 O   0  0  0  0  0  0  0  0  0  0  0  0
  160.6360  212.5740  149.0210 C   0  0  0  0  0  2  0  0  0  0  0  0
  160.1390  213.9210  148.9780 C   0  0  2  0  0  3  0  0  0  0  0  0
  161.3920  214.4530  148.5910 O   0  0  0  0  0  0  0  0  0  0  0  0
  159.2740  212.8340  154.8550 C   0  0  1  0  0  3  0  0  0  0  0  0
  157.2540  211.3560  154.8440 C   0  0  0  0  0  2  0  0  0  0  0  0
  155.4650  211.6760  156.5620 C   0  0  0  0  0  2  0  0  0  0  0  0
  157.1660  213.5630  156.1640 C   0  0  2  0  0  3  0  0  0  0  0  0
  155.9330  213.0840  156.9430 C   0  0  0  0  0  2  0  0  0  0  0  0
  155.7450  211.3940  155.0960 C   0  0  0  0  0  2  0  0  0  0  0  0
  158.0440  212.3930  155.6640 C   0  0  2  0  0  3  0  0  0  0  0  0
  157.9340  214.4530  157.0130 N   0  0  0  0  0  1  0  0  0  0  0  0
  160.4290  212.2230  155.3610 O   0  0  0  0  0  0  0  0  0  0  0  0
  160.1350  211.9490  156.7000 C   0  0  0  0  0  2  0  0  0  0  0  0
  160.8230  209.6730  156.6960 C   0  0  0  0  0  0  0  0  0  0  0  0
  161.9600  210.5350  156.2420 O   0  0  0  0  0  0  0  0  0  0  0  0
  160.1110  208.5580  156.6210 C   0  0  0  0  0  2  0  0  0  0  0  0
  161.0980  210.9100  157.2340 C   0  0  1  0  0  3  0  0  0  0  0  0
  1  4  1  0  0  0  0
  2  7  1  6  0  0  0
  2  6  1  0  0  0  0
  3  2  1  0  0  0  0
  3 30  1  1  0  0  0
  4  6  1  0  0  0  0
  5  3  1  0  0  0  0
  5  1  1  0  0  0  0
  8  7  1  0  0  0  0
  9  8  1  0  0  0  0
 10  9  1  0  0  0  0
 11 10  2  0  0  0  0
 12 10  1  0  0  0  0
 13 14  1  0  0  0  0
 14 12  1  1  0  0  0
 15 13  1  0  0  0  0
 15 14  1  0  0  0  0
 16 17  1  6  0  0  0
 16 14  1  0  0  0  0
 16 18  1  0  0  0  0
 20 19  1  1  0  0  0
 20 16  1  0  0  0  0
 20 21  1  0  0  0  0
 21 22  1  6  0  0  0
 21 24  1  0  0  0  0
 23 22  1  0  0  0  0
 24 26  1  0  0  0  0
 26 25  1  1  0  0  0
 26 27  1  0  0  0  0
 27 28  1  0  0  0  0
 27 29  1  0  0  0  0
 30 31  1  0  0  0  0
 32 31  1  6  0  0  0
 32 42  1  0  0  0  0
 33 36  1  6  0  0  0
 33 34  1  0  0  0  0
 33 35  1  0  0  0  0
 34 35  1  0  0  0  0
 35 32  1  1  0  0  0
 37 41  1  0  0  0  0
 37 39  1  0  0  0  0
 38 37  2  0  0  0  0
 40 39  1  0  0  0  0
 40 36  1  1  0  0  0
 41 40  1  0  0  0  0
 42 50  1  1  0  0  0
 43 47  1  0  0  0  0
 43 48  1  0  0  0  0
 44 46  1  0  0  0  0
 45 46  1  0  0  0  0
 45 49  1  1  0  0  0
 47 44  1  0  0  0  0
 48 42  1  6  0  0  0
 48 45  1  0  0  0  0
 50 51  1  0  0  0  0
 52 55  1  0  0  0  0
 53 52  1  0  0  0  0
 53 55  1  0  0  0  0
 54 52  2  0  0  0  0
 55 51  1  6  0  0  0
M  END
>  <MODEL>
6

>  <REMARK>
 VINA RESULT:      -4.6      5.256      9.853
  Name = 
  24 active torsions:
  status: ('A' for Active; 'I' for Inactive)
    1  A    between atoms: C_1  and  C_29
    2  A    between atoms: C_2  and  N_28
    3  A    between atoms: C_2  and  C_31
    4  A    between atoms: C_3  and  C_29
    5  A    between atoms: C_3  and  C_38
    6  A    between atoms: C_6  and  C_14
    7  A    between atoms: C_6  and  C_20
    8  A    between atoms: C_8  and  O_22
    9  A    between atoms: C_8  and  C_35
   10  A    between atoms: C_11  and  C_38
   11  A    between atoms: C_13  and  O_48
   12  A    between atoms: C_14  and  C_38
   13  A    between atoms: C_19  and  C_40
   14  A    between atoms: C_19  and  O_45
   15  A    between atoms: C_20  and  O_22
   16  A    between atoms: C_26  and  C_49
   17  A    between atoms: C_27  and  C_54
   18  A    between atoms: N_28  and  C_33
   19  A    between atoms: C_33  and  C_49
   20  A    between atoms: C_33  and  C_52
   21  A    between atoms: C_35  and  C_51
   22  A    between atoms: C_39  and  O_48
   23  A    between atoms: O_45  and  C_49
   24  A    between atoms: C_51  and  C_54
                            x       y       z     vdW  Elec       q    Type
                         _______ _______ _______ _____ _____    ______ ____

>  <TORSDO>
F 24

$$$$
=
 OpenBabel11062408583D

 55 60  0  0  1  0  0  0  0  0999 V2000
  163.2240  204.2780  146.4430 C   0  0  0  0  0  2  0  0  0  0  0  0
  161.1600  205.7140  145.0970 C   0  0  2  0  0  3  0  0  0  0  0  0
  161.5740  206.1770  146.4990 C   0  0  2  0  0  3  0  0  0  0  0  0
  162.7460  204.0340  145.0170 C   0  0  0  0  0  2  0  0  0  0  0  0
  163.0140  205.7460  146.7920 C   0  0  0  0  0  2  0  0  0  0  0  0
  161.3670  204.3280  144.8970 O   0  0  0  0  0  0  0  0  0  0  0  0
  161.7410  206.5630  143.9750 C   0  0  0  0  0  2  0  0  0  0  0  0
  161.5850  205.8200  142.6640 C   0  0  0  0  0  2  0  0  0  0  0  0
  161.2060  206.7720  141.5470 C   0  0  0  0  0  2  0  0  0  0  0  0
  162.2750  206.8300  140.5090 C   0  0  0  0  0  0  0  0  0  0  0  0
  162.9900  205.8160  140.2900 O   0  0  0  0  0  0  0  0  0  0  0  0
  162.4490  207.9980  139.7640 O   0  0  0  0  0  0  0  0  0  0  0  0
  162.3350  208.0270  137.3050 C   0  0  0  0  0  2  0  0  0  0  0  0
  161.6810  208.2930  138.6040 C   0  0  1  0  0  0  0  0  0  0  0  0
  161.3870  207.1370  137.8620 O   0  0  0  0  0  0  0  0  0  0  0  0
  160.5210  209.2970  138.6840 C   0  0  1  0  0  0  0  0  0  0  0  0
  159.9320  209.3960  137.4190 O   0  0  0  0  0  1  0  0  0  0  0  0
  159.5630  208.8570  139.5870 F   0  0  0  0  0  0  0  0  0  0  0  0
  161.1240  210.7890  140.4850 F   0  0  0  0  0  0  0  0  0  0  0  0
  161.0270  210.6810  139.1090 C   0  0  2  0  0  3  0  0  0  0  0  0
  160.1850  211.8110  138.4990 C   0  0  2  0  0  3  0  0  0  0  0  0
  161.0600  213.0040  138.1300 C   0  0  0  0  0  2  0  0  0  0  0  0
  162.8360  212.5960  138.1490 S   0  0  0  0  0  1  0  0  0  0  0  0
  158.9980  212.2490  139.3640 C   0  0  0  0  0  2  0  0  0  0  0  0
  157.2330  213.5810  138.4430 O   0  0  0  0  0  1  0  0  0  0  0  0
  157.6710  212.2640  138.6030 C   0  0  2  0  0  3  0  0  0  0  0  0
  156.5840  211.4100  139.2640 C   0  0  0  0  0  3  0  0  0  0  0  0
  155.2310  212.0680  139.0960 C   0  0  0  0  0  1  0  0  0  0  0  0
  156.5240  210.0260  138.6460 C   0  0  0  0  0  1  0  0  0  0  0  0
  160.6020  205.5770  147.5000 C   0  0  0  0  0  2  0  0  0  0  0  0
  160.2430  206.5310  148.5460 N   0  0  0  0  0  2  0  0  0  0  0  0
  161.0270  206.2520  149.7570 C   0  0  2  0  0  3  0  0  0  0  0  0
  161.0070  203.7340  149.8670 C   0  0  2  0  0  3  0  0  0  0  0  0
  161.4940  204.1890  151.2380 C   0  0  0  0  0  2  0  0  0  0  0  0
  160.4620  205.0130  150.4910 C   0  0  1  0  0  3  0  0  0  0  0  0
  159.9980  202.7550  149.9490 O   0  0  0  0  0  0  0  0  0  0  0  0
  160.6700  201.4740  147.2830 C   0  0  0  0  0  0  0  0  0  0  0  0
  160.8160  201.3470  146.0370 O   0  0  0  0  0  0  0  0  0  0  0  0
  161.5500  201.8810  148.4140 C   0  0  0  0  0  2  0  0  0  0  0  0
  160.4490  201.5910  149.2880 C   0  0  2  0  0  3  0  0  0  0  0  0
  159.5760  201.2890  148.2160 O   0  0  0  0  0  0  0  0  0  0  0  0
  161.2230  207.5300  150.6090 C   0  0  1  0  0  3  0  0  0  0  0  0
  160.0950  208.4480  152.6460 C   0  0  0  0  0  2  0  0  0  0  0  0
  160.5850  207.4650  154.8930 C   0  0  0  0  0  2  0  0  0  0  0  0
  162.1950  206.9910  152.9440 C   0  0  2  0  0  3  0  0  0  0  0  0
  161.8710  206.7720  154.4290 C   0  0  0  0  0  2  0  0  0  0  0  0
  160.3600  208.7540  154.1220 C   0  0  0  0  0  2  0  0  0  0  0  0
  160.9340  207.2780  152.0970 C   0  0  2  0  0  3  0  0  0  0  0  0
  162.8910  205.8200  152.4440 N   0  0  0  0  0  1  0  0  0  0  0  0
  162.5130  208.0540  150.4510 O   0  0  0  0  0  0  0  0  0  0  0  0
  162.3440  209.4410  150.4610 C   0  0  0  0  0  2  0  0  0  0  0  0
  162.2170  210.9360  148.6160 C   0  0  0  0  0  0  0  0  0  0  0  0
  162.2980  209.5300  148.1090 O   0  0  0  0  0  0  0  0  0  0  0  0
  162.5280  212.2210  148.5260 C   0  0  0  0  0  2  0  0  0  0  0  0
  161.5860  209.8740  149.2240 C   0  0  1  0  0  3  0  0  0  0  0  0
  1  5  1  0  0  0  0
  2  7  1  6  0  0  0
  2  3  1  0  0  0  0
  3  5  1  0  0  0  0
  3 30  1  1  0  0  0
  4  1  1  0  0  0  0
  6  4  1  0  0  0  0
  6  2  1  0  0  0  0
  8  7  1  0  0  0  0
  9  8  1  0  0  0  0
 10  9  1  0  0  0  0
 11 10  2  0  0  0  0
 12 10  1  0  0  0  0
 13 15  1  0  0  0  0
 13 14  1  0  0  0  0
 14 16  1  0  0  0  0
 14 12  1  1  0  0  0
 15 14  1  0  0  0  0
 16 17  1  6  0  0  0
 16 20  1  0  0  0  0
 16 18  1  0  0  0  0
 20 19  1  1  0  0  0
 21 22  1  1  0  0  0
 21 20  1  0  0  0  0
 21 24  1  0  0  0  0
 22 23  1  0  0  0  0
 26 25  1  1  0  0  0
 26 27  1  0  0  0  0
 26 24  1  0  0  0  0
 28 27  1  0  0  0  0
 29 27  1  0  0  0  0
 30 31  1  0  0  0  0
 32 31  1  6  0  0  0
 32 42  1  0  0  0  0
 33 36  1  1  0  0  0
 33 35  1  0  0  0  0
 33 34  1  0  0  0  0
 35 32  1  6  0  0  0
 35 34  1  0  0  0  0
 37 41  1  0  0  0  0
 37 39  1  0  0  0  0
 38 37  2  0  0  0  0
 39 40  1  0  0  0  0
 40 36  1  6  0  0  0
 41 40  1  0  0  0  0
 42 50  1  1  0  0  0
 43 47  1  0  0  0  0
 45 49  1  6  0  0  0
 45 46  1  0  0  0  0
 46 44  1  0  0  0  0
 47 44  1  0  0  0  0
 48 42  1  6  0  0  0
 48 43  1  0  0  0  0
 48 45  1  0  0  0  0
 50 51  1  0  0  0  0
 52 55  1  0  0  0  0
 53 52  1  0  0  0  0
 53 55  1  0  0  0  0
 54 52  2  0  0  0  0
 55 51  1  1  0  0  0
M  END
>  <MODEL>
7

>  <REMARK>
 VINA RESULT:      -3.4      2.105      2.947
  Name = 
  24 active torsions:
  status: ('A' for Active; 'I' for Inactive)
    1  A    between atoms: C_1  and  C_29
    2  A    between atoms: C_2  and  N_28
    3  A    between atoms: C_2  and  C_31
    4  A    between atoms: C_3  and  C_29
    5  A    between atoms: C_3  and  C_38
    6  A    between atoms: C_6  and  C_14
    7  A    between atoms: C_6  and  C_20
    8  A    between atoms: C_8  and  O_22
    9  A    between atoms: C_8  and  C_35
   10  A    between atoms: C_11  and  C_38
   11  A    between atoms: C_13  and  O_48
   12  A    between atoms: C_14  and  C_38
   13  A    between atoms: C_19  and  C_40
   14  A    between atoms: C_19  and  O_45
   15  A    between atoms: C_20  and  O_22
   16  A    between atoms: C_26  and  C_49
   17  A    between atoms: C_27  and  C_54
   18  A    between atoms: N_28  and  C_33
   19  A    between atoms: C_33  and  C_49
   20  A    between atoms: C_33  and  C_52
   21  A    between atoms: C_35  and  C_51
   22  A    between atoms: C_39  and  O_48
   23  A    between atoms: O_45  and  C_49
   24  A    between atoms: C_51  and  C_54
                            x       y       z     vdW  Elec       q    Type
                         _______ _______ _______ _____ _____    ______ ____

>  <TORSDO>
F 24

$$$$
=
 OpenBabel11062408583D

 55 60  0  0  1  0  0  0  0  0999 V2000
  163.2610  204.4000  146.2930 C   0  0  0  0  0  2  0  0  0  0  0  0
  160.8960  205.6930  145.3600 C   0  0  2  0  0  3  0  0  0  0  0  0
  161.5280  206.1850  146.6680 C   0  0  2  0  0  3  0  0  0  0  0  0
  162.5470  204.1210  144.9750 C   0  0  0  0  0  2  0  0  0  0  0  0
  163.0220  205.8510  146.6890 C   0  0  0  0  0  2  0  0  0  0  0  0
  161.1530  204.3220  145.1120 O   0  0  0  0  0  0  0  0  0  0  0  0
  161.2050  206.5760  144.1600 C   0  0  0  0  0  2  0  0  0  0  0  0
  161.6500  205.6990  143.0060 C   0  0  0  0  0  2  0  0  0  0  0  0
  161.2100  206.2890  141.6810 C   0  0  0  0  0  2  0  0  0  0  0  0
  162.3740  206.4850  140.7700 C   0  0  0  0  0  0  0  0  0  0  0  0
  162.9420  205.4850  140.2580 O   0  0  0  0  0  0  0  0  0  0  0  0
  162.7990  207.7800  140.4660 O   0  0  0  0  0  0  0  0  0  0  0  0
  161.8000  208.1500  138.2460 C   0  0  0  0  0  2  0  0  0  0  0  0
  162.0670  208.6510  139.6120 C   0  0  1  0  0  0  0  0  0  0  0  0
  160.8170  208.1130  139.2620 O   0  0  0  0  0  0  0  0  0  0  0  0
  162.0430  210.1610  139.8900 C   0  0  1  0  0  0  0  0  0  0  0  0
  161.0520  210.4210  140.8430 O   0  0  0  0  0  1  0  0  0  0  0  0
  163.2660  210.5780  140.3960 F   0  0  0  0  0  0  0  0  0  0  0  0
  162.8730  211.4240  138.0060 F   0  0  0  0  0  0  0  0  0  0  0  0
  161.7240  210.9450  138.6110 C   0  0  2  0  0  3  0  0  0  0  0  0
  160.6970  212.0590  138.8640 C   0  0  2  0  0  3  0  0  0  0  0  0
  159.4620  211.8700  137.9890 C   0  0  0  0  0  2  0  0  0  0  0  0
  158.1890  210.8460  138.7960 S   0  0  0  0  0  1  0  0  0  0  0  0
  161.2580  213.4770  138.7200 C   0  0  0  0  0  2  0  0  0  0  0  0
  163.0140  213.6430  140.3410 O   0  0  0  0  0  1  0  0  0  0  0  0
  161.7200  214.0810  140.0480 C   0  0  2  0  0  3  0  0  0  0  0  0
  160.7710  213.7790  141.2130 C   0  0  0  0  0  3  0  0  0  0  0  0
  161.3680  214.2780  142.5120 C   0  0  0  0  0  1  0  0  0  0  0  0
  159.4270  214.4530  141.0130 C   0  0  0  0  0  1  0  0  0  0  0  0
  160.7970  205.5240  147.8240 C   0  0  0  0  0  2  0  0  0  0  0  0
  160.3480  206.5030  148.8110 N   0  0  0  0  0  2  0  0  0  0  0  0
  161.3390  206.6020  149.8910 C   0  0  2  0  0  3  0  0  0  0  0  0
  161.2560  204.1160  150.3010 C   0  0  2  0  0  3  0  0  0  0  0  0
  162.3240  204.6430  151.2540 C   0  0  0  0  0  2  0  0  0  0  0  0
  161.1060  205.4910  150.9420 C   0  0  1  0  0  3  0  0  0  0  0  0
  160.3460  203.2480  150.9340 O   0  0  0  0  0  0  0  0  0  0  0  0
  160.6080  201.6780  148.3530 C   0  0  0  0  0  0  0  0  0  0  0  0
  160.6920  201.4440  147.1170 O   0  0  0  0  0  0  0  0  0  0  0  0
  161.5860  201.9090  149.4530 C   0  0  0  0  0  2  0  0  0  0  0  0
  160.4640  201.9700  150.3470 C   0  0  2  0  0  3  0  0  0  0  0  0
  159.5230  201.8420  149.2980 O   0  0  0  0  0  0  0  0  0  0  0  0
  161.4440  208.0510  150.4280 C   0  0  1  0  0  3  0  0  0  0  0  0
  161.4150  206.6530  152.5050 C   0  0  0  0  0  2  0  0  0  0  0  0
  161.2140  207.7500  154.7430 C   0  0  0  0  0  2  0  0  0  0  0  0
  160.5870  209.0860  152.6370 C   0  0  2  0  0  3  0  0  0  0  0  0
  160.7040  209.0750  154.1680 C   0  0  0  0  0  2  0  0  0  0  0  0
  160.7610  206.5810  153.8860 C   0  0  0  0  0  2  0  0  0  0  0  0
  161.5540  208.0880  151.9610 C   0  0  2  0  0  3  0  0  0  0  0  0
  160.8290  210.4350  152.1630 N   0  0  0  0  0  1  0  0  0  0  0  0
  162.5250  208.7310  149.8510 O   0  0  0  0  0  0  0  0  0  0  0  0
  161.9610  209.5120  148.8390 C   0  0  0  0  0  2  0  0  0  0  0  0
  162.5700  211.7470  148.2980 C   0  0  0  0  0  0  0  0  0  0  0  0
  161.0850  211.6660  148.4690 O   0  0  0  0  0  0  0  0  0  0  0  0
  163.6430  212.2210  147.6820 C   0  0  0  0  0  2  0  0  0  0  0  0
  161.9580  210.9680  149.2550 C   0  0  1  0  0  3  0  0  0  0  0  0
  1  5  1  0  0  0  0
  2  7  1  6  0  0  0
  2  3  1  0  0  0  0
  3  5  1  0  0  0  0
  3 30  1  1  0  0  0
  4  6  1  0  0  0  0
  4  1  1  0  0  0  0
  6  2  1  0  0  0  0
  8  7  1  0  0  0  0
  9  8  1  0  0  0  0
 10  9  1  0  0  0  0
 11 10  2  0  0  0  0
 12 10  1  0  0  0  0
 13 15  1  0  0  0  0
 13 14  1  0  0  0  0
 14 16  1  0  0  0  0
 14 12  1  1  0  0  0
 15 14  1  0  0  0  0
 16 18  1  1  0  0  0
 16 17  1  0  0  0  0
 20 19  1  1  0  0  0
 20 21  1  0  0  0  0
 20 16  1  0  0  0  0
 21 22  1  6  0  0  0
 22 23  1  0  0  0  0
 24 21  1  0  0  0  0
 24 26  1  0  0  0  0
 26 25  1  1  0  0  0
 26 27  1  0  0  0  0
 27 28  1  0  0  0  0
 29 27  1  0  0  0  0
 30 31  1  0  0  0  0
 32 31  1  6  0  0  0
 32 42  1  0  0  0  0
 33 36  1  1  0  0  0
 33 35  1  0  0  0  0
 33 34  1  0  0  0  0
 35 32  1  6  0  0  0
 35 34  1  0  0  0  0
 37 41  1  0  0  0  0
 37 39  1  0  0  0  0
 38 37  2  0  0  0  0
 39 40  1  0  0  0  0
 40 36  1  6  0  0  0
 41 40  1  0  0  0  0
 42 50  1  6  0  0  0
 43 47  1  0  0  0  0
 45 49  1  6  0  0  0
 45 46  1  0  0  0  0
 46 44  1  0  0  0  0
 47 44  1  0  0  0  0
 48 42  1  6  0  0  0
 48 43  1  0  0  0  0
 48 45  1  0  0  0  0
 51 50  1  0  0  0  0
 52 53  1  0  0  0  0
 52 55  1  0  0  0  0
 53 55  1  0  0  0  0
 54 52  2  0  0  0  0
 55 51  1  6  0  0  0
M  END
>  <MODEL>
8

>  <REMARK>
 VINA RESULT:      -3.4      1.687      2.170
  Name = 
  24 active torsions:
  status: ('A' for Active; 'I' for Inactive)
    1  A    between atoms: C_1  and  C_29
    2  A    between atoms: C_2  and  N_28
    3  A    between atoms: C_2  and  C_31
    4  A    between atoms: C_3  and  C_29
    5  A    between atoms: C_3  and  C_38
    6  A    between atoms: C_6  and  C_14
    7  A    between atoms: C_6  and  C_20
    8  A    between atoms: C_8  and  O_22
    9  A    between atoms: C_8  and  C_35
   10  A    between atoms: C_11  and  C_38
   11  A    between atoms: C_13  and  O_48
   12  A    between atoms: C_14  and  C_38
   13  A    between atoms: C_19  and  C_40
   14  A    between atoms: C_19  and  O_45
   15  A    between atoms: C_20  and  O_22
   16  A    between atoms: C_26  and  C_49
   17  A    between atoms: C_27  and  C_54
   18  A    between atoms: N_28  and  C_33
   19  A    between atoms: C_33  and  C_49
   20  A    between atoms: C_33  and  C_52
   21  A    between atoms: C_35  and  C_51
   22  A    between atoms: C_39  and  O_48
   23  A    between atoms: O_45  and  C_49
   24  A    between atoms: C_51  and  C_54
                            x       y       z     vdW  Elec       q    Type
                         _______ _______ _______ _____ _____    ______ ____

>  <TORSDO>
F 24

$$$$
=
 OpenBabel11062408583D

 55 60  0  0  1  0  0  0  0  0999 V2000
  161.8930  202.8300  151.9760 C   0  0  0  0  0  2  0  0  0  0  0  0
  161.5070  205.6440  152.2340 C   0  0  2  0  0  3  0  0  0  0  0  0
  160.2700  204.7390  152.2120 C   0  0  2  0  0  3  0  0  0  0  0  0
  162.9920  203.8770  152.1160 C   0  0  0  0  0  2  0  0  0  0  0  0
  160.6400  203.3300  152.6840 C   0  0  0  0  0  2  0  0  0  0  0  0
  162.5980  205.0960  151.5160 O   0  0  0  0  0  0  0  0  0  0  0  0
  161.8980  206.1140  153.6280 C   0  0  0  0  0  2  0  0  0  0  0  0
  160.6400  206.3440  154.4400 C   0  0  0  0  0  2  0  0  0  0  0  0
  160.4540  207.8180  154.7390 C   0  0  0  0  0  2  0  0  0  0  0  0
  160.3740  208.0600  156.2080 C   0  0  0  0  0  0  0  0  0  0  0  0
  160.6980  207.1440  157.0110 O   0  0  0  0  0  0  0  0  0  0  0  0
  159.9770  209.3130  156.6800 O   0  0  0  0  0  0  0  0  0  0  0  0
  161.9210  210.8230  156.7270 C   0  0  0  0  0  2  0  0  0  0  0  0
  160.5610  210.5280  156.2250 C   0  0  1  0  0  0  0  0  0  0  0  0
  161.6980  210.2980  155.4320 O   0  0  0  0  0  0  0  0  0  0  0  0
  159.6670  211.6710  155.7220 C   0  0  1  0  0  0  0  0  0  0  0  0
  159.0520  212.2720  156.8250 O   0  0  0  0  0  1  0  0  0  0  0  0
  160.4290  212.6250  155.0630 F   0  0  0  0  0  0  0  0  0  0  0  0
  159.0980  210.2180  153.8770 F   0  0  0  0  0  0  0  0  0  0  0  0
  158.5840  211.1380  154.7750 C   0  0  2  0  0  3  0  0  0  0  0  0
  157.8320  212.2750  154.0690 C   0  0  2  0  0  3  0  0  0  0  0  0
  156.3440  212.2330  154.4030 C   0  0  0  0  0  2  0  0  0  0  0  0
  155.9410  210.9370  155.6190 S   0  0  0  0  0  1  0  0  0  0  0  0
  158.0500  212.3300  152.5530 C   0  0  0  0  0  2  0  0  0  0  0  0
  159.1620  214.3720  153.1310 O   0  0  0  0  0  1  0  0  0  0  0  0
  159.0520  213.4060  152.1270 C   0  0  2  0  0  3  0  0  0  0  0  0
  158.7060  214.0580  150.7850 C   0  0  0  0  0  3  0  0  0  0  0  0
  159.9730  214.4240  150.0430 C   0  0  0  0  0  1  0  0  0  0  0  0
  157.8950  213.1190  149.9130 C   0  0  0  0  0  1  0  0  0  0  0  0
  159.7230  204.7210  150.7950 C   0  0  0  0  0  2  0  0  0  0  0  0
  160.4000  205.6950  149.9410 N   0  0  0  0  0  2  0  0  0  0  0  0
  160.8240  205.0440  148.6930 C   0  0  2  0  0  3  0  0  0  0  0  0
  161.2950  202.8340  147.5740 C   0  0  2  0  0  3  0  0  0  0  0  0
  162.2390  202.8860  148.7710 C   0  0  0  0  0  2  0  0  0  0  0  0
  160.8590  203.5080  148.8710 C   0  0  1  0  0  3  0  0  0  0  0  0
  160.6090  201.6090  147.4780 O   0  0  0  0  0  0  0  0  0  0  0  0
  159.3580  202.3930  144.8290 C   0  0  0  0  0  0  0  0  0  0  0  0
  158.6770  203.0450  143.9920 O   0  0  0  0  0  0  0  0  0  0  0  0
  160.7800  202.4060  145.2730 C   0  0  0  0  0  2  0  0  0  0  0  0
  160.4590  201.2860  146.1120 C   0  0  2  0  0  3  0  0  0  0  0  0
  159.0870  201.3210  145.7660 O   0  0  0  0  0  0  0  0  0  0  0  0
  162.1020  205.7030  148.1200 C   0  0  1  0  0  3  0  0  0  0  0  0
  160.5230  206.3330  146.2830 C   0  0  0  0  0  2  0  0  0  0  0  0
  161.2160  206.0630  143.8950 C   0  0  0  0  0  2  0  0  0  0  0  0
  162.5330  204.8270  145.7260 C   0  0  2  0  0  3  0  0  0  0  0  0
  162.3720  205.1140  144.2260 C   0  0  0  0  0  2  0  0  0  0  0  0
  160.0780  205.8920  144.8870 C   0  0  0  0  0  2  0  0  0  0  0  0
  161.9830  205.9690  146.6110 C   0  0  2  0  0  3  0  0  0  0  0  0
  163.9380  204.5940  146.0050 N   0  0  0  0  0  1  0  0  0  0  0  0
  162.4100  206.8910  148.7960 O   0  0  0  0  0  0  0  0  0  0  0  0
  162.0210  207.9130  147.9250 C   0  0  0  0  0  2  0  0  0  0  0  0
  162.0220  209.0810  149.9970 C   0  0  0  0  0  0  0  0  0  0  0  0
  162.5280  209.9860  148.9170 O   0  0  0  0  0  0  0  0  0  0  0  0
  162.0580  208.6270  151.2410 C   0  0  0  0  0  2  0  0  0  0  0  0
  161.5100  209.0960  148.7190 C   0  0  1  0  0  3  0  0  0  0  0  0
  1  4  1  0  0  0  0
  1  5  1  0  0  0  0
  2  7  1  1  0  0  0
  3 30  1  6  0  0  0
  3  2  1  0  0  0  0
  3  5  1  0  0  0  0
  6  4  1  0  0  0  0
  6  2  1  0  0  0  0
  7  8  1  0  0  0  0
  8  9  1  0  0  0  0
  9 10  1  0  0  0  0
 10 12  1  0  0  0  0
 10 11  2  0  0  0  0
 14 12  1  1  0  0  0
 14 13  1  0  0  0  0
 15 14  1  0  0  0  0
 15 13  1  0  0  0  0
 16 18  1  6  0  0  0
 16 14  1  0  0  0  0
 16 17  1  0  0  0  0
 20 19  1  6  0  0  0
 20 16  1  0  0  0  0
 21 24  1  6  0  0  0
 21 22  1  0  0  0  0
 21 20  1  0  0  0  0
 22 23  1  0  0  0  0
 26 24  1  0  0  0  0
 26 25  1  1  0  0  0
 27 26  1  0  0  0  0
 28 27  1  0  0  0  0
 29 27  1  0  0  0  0
 31 30  1  0  0  0  0
 32 31  1  1  0  0  0
 33 36  1  1  0  0  0
 33 34  1  0  0  0  0
 33 35  1  0  0  0  0
 34 35  1  0  0  0  0
 35 32  1  6  0  0  0
 37 39  1  0  0  0  0
 37 41  1  0  0  0  0
 38 37  2  0  0  0  0
 39 40  1  0  0  0  0
 40 36  1  1  0  0  0
 41 40  1  0  0  0  0
 42 32  1  0  0  0  0
 42 50  1  1  0  0  0
 43 48  1  0  0  0  0
 44 46  1  0  0  0  0
 44 47  1  0  0  0  0
 45 49  1  6  0  0  0
 45 48  1  0  0  0  0
 46 45  1  0  0  0  0
 47 43  1  0  0  0  0
 48 42  1  1  0  0  0
 51 50  1  0  0  0  0
 52 54  2  0  0  0  0
 53 52  1  0  0  0  0
 55 51  1  6  0  0  0
 55 53  1  0  0  0  0
 55 52  1  0  0  0  0
M  END
>  <MODEL>
9

>  <REMARK>
 VINA RESULT:      -3.3      5.839     10.506
  Name = 
  24 active torsions:
  status: ('A' for Active; 'I' for Inactive)
    1  A    between atoms: C_1  and  C_29
    2  A    between atoms: C_2  and  N_28
    3  A    between atoms: C_2  and  C_31
    4  A    between atoms: C_3  and  C_29
    5  A    between atoms: C_3  and  C_38
    6  A    between atoms: C_6  and  C_14
    7  A    between atoms: C_6  and  C_20
    8  A    between atoms: C_8  and  O_22
    9  A    between atoms: C_8  and  C_35
   10  A    between atoms: C_11  and  C_38
   11  A    between atoms: C_13  and  O_48
   12  A    between atoms: C_14  and  C_38
   13  A    between atoms: C_19  and  C_40
   14  A    between atoms: C_19  and  O_45
   15  A    between atoms: C_20  and  O_22
   16  A    between atoms: C_26  and  C_49
   17  A    between atoms: C_27  and  C_54
   18  A    between atoms: N_28  and  C_33
   19  A    between atoms: C_33  and  C_49
   20  A    between atoms: C_33  and  C_52
   21  A    between atoms: C_35  and  C_51
   22  A    between atoms: C_39  and  O_48
   23  A    between atoms: O_45  and  C_49
   24  A    between atoms: C_51  and  C_54
                            x       y       z     vdW  Elec       q    Type
                         _______ _______ _______ _____ _____    ______ ____

>  <TORSDO>
F 24

$$$$
