=
 OpenBabel11052422343D

 31 34  0  0  1  0  0  0  0  0999 V2000
  161.3060  200.6840  148.0980 C   0  0  0  0  0  0  0  0  0  0  0  0
  160.9250  204.4200  148.3220 N   0  0  0  0  0  0  0  0  0  0  0  0
  161.0180  203.0250  148.6930 C   0  0  0  0  0  0  0  0  0  0  0  0
  161.2000  200.3230  149.4420 C   0  0  0  0  0  3  0  0  0  0  0  0
  161.1170  205.0630  150.6820 C   0  0  1  0  0  3  0  0  0  0  0  0
  161.5520  199.4530  146.8770 Cl  0  0  0  0  0  0  0  0  0  0  0  0
  160.6390  203.6760  151.1100 C   0  0  0  0  0  2  0  0  0  0  0  0
  160.5190  205.4070  149.3250 C   0  0  0  0  0  2  0  0  0  0  0  0
  161.2120  202.0260  147.7240 C   0  0  0  0  0  3  0  0  0  0  0  0
  160.9180  202.6520  150.0500 C   0  0  0  0  0  0  0  0  0  0  0  0
  161.0010  201.3040  150.4150 C   0  0  0  0  0  3  0  0  0  0  0  0
  161.2020  204.8720  146.9840 C   0  0  0  0  0  0  0  0  0  0  0  0
  160.8840  204.6240  144.6210 N   0  0  0  0  0  0  0  0  0  0  0  0
  160.6160  204.2200  145.8900 C   0  0  0  0  0  3  0  0  0  0  0  0
  161.7230  205.6620  144.3680 C   0  0  0  0  0  3  0  0  0  0  0  0
  162.3310  206.3430  145.4220 C   0  0  0  0  0  3  0  0  0  0  0  0
  162.0710  205.9530  146.7440 C   0  0  0  0  0  0  0  0  0  0  0  0
  162.6560  206.6300  147.8240 O   0  0  0  0  0  0  0  0  0  0  0  0
  161.7930  208.4200  149.1900 C   0  0  0  0  0  1  0  0  0  0  0  0
  162.6200  208.0450  147.9740 C   0  0  0  0  0  2  0  0  0  0  0  0
  162.7060  206.0020  152.8480 O   0  0  0  0  0  0  0  0  0  0  0  0
  161.5420  206.4780  152.7400 C   0  0  0  0  0  0  0  0  0  0  0  0
  160.7020  206.0560  151.6600 N   0  0  0  0  0  2  0  0  0  0  0  0
  160.0590  209.2860  155.6300 C   0  0  0  0  0  0  0  0  0  0  0  0
  160.4640  207.0140  154.9110 C   0  0  0  0  0  3  0  0  0  0  0  0
  161.6780  209.3810  152.3260 O   0  0  0  0  0  1  0  0  0  0  0  0
  159.4470  210.4130  156.8210 Cl  0  0  0  0  0  0  0  0  0  0  0  0
  159.9770  207.9130  155.8630 C   0  0  0  0  0  3  0  0  0  0  0  0
  161.1190  208.8660  153.4900 C   0  0  0  0  0  0  0  0  0  0  0  0
  161.0400  207.4730  153.7160 C   0  0  0  0  0  0  0  0  0  0  0  0
  160.6290  209.7600  154.4470 C   0  0  0  0  0  3  0  0  0  0  0  0
  1  4  1  0  0  0  0
  2  3  1  0  0  0  0
  2  8  1  0  0  0  0
  3 10  2  0  0  0  0
  4 11  2  0  0  0  0
  5  7  1  0  0  0  0
  5 23  1  1  0  0  0
  6  1  1  0  0  0  0
  8  5  1  0  0  0  0
  9  1  2  0  0  0  0
  9  3  1  0  0  0  0
 10 11  1  0  0  0  0
 10  7  1  0  0  0  0
 12  2  1  0  0  0  0
 13 14  1  0  0  0  0
 14 12  2  0  0  0  0
 15 13  2  0  0  0  0
 15 16  1  0  0  0  0
 16 17  2  0  0  0  0
 17 12  1  0  0  0  0
 17 18  1  0  0  0  0
 18 20  1  0  0  0  0
 20 19  1  0  0  0  0
 22 21  2  0  0  0  0
 22 30  1  0  0  0  0
 23 22  1  0  0  0  0
 24 28  1  0  0  0  0
 24 27  1  0  0  0  0
 25 28  2  0  0  0  0
 26 29  1  0  0  0  0
 29 30  2  0  0  0  0
 29 31  1  0  0  0  0
 30 25  1  0  0  0  0
 31 24  2  0  0  0  0
M  END
>  <MODEL>
1

>  <REMARK>
 VINA RESULT:      -8.3      0.000      0.000
  Name = 
  5 active torsions:
  status: ('A' for Active; 'I' for Inactive)
    1  A    between atoms: N_4  and  C_5
    2  A    between atoms: C_9  and  C_22
    3  A    between atoms: C_15  and  N_23
    4  A    between atoms: C_29  and  O_31
    5  A    between atoms: C_30  and  O_31
                            x       y       z     vdW  Elec       q    Type
                         _______ _______ _______ _____ _____    ______ ____

>  <TORSDO>
F 5

$$$$
=
 OpenBabel11052422343D

 31 34  0  0  1  0  0  0  0  0999 V2000
  161.3880  210.2180  155.9620 C   0  0  0  0  0  0  0  0  0  0  0  0
  161.3100  209.1370  152.3600 N   0  0  0  0  0  0  0  0  0  0  0  0
  161.3480  209.0940  153.8050 C   0  0  0  0  0  0  0  0  0  0  0  0
  161.4180  208.9830  156.6120 C   0  0  0  0  0  3  0  0  0  0  0  0
  160.8400  206.7300  152.2990 C   0  0  1  0  0  3  0  0  0  0  0  0
  161.3940  211.6990  156.8960 Cl  0  0  0  0  0  0  0  0  0  0  0  0
  161.4370  206.5670  153.6960 C   0  0  0  0  0  2  0  0  0  0  0  0
  161.5090  207.9020  151.5960 C   0  0  0  0  0  2  0  0  0  0  0  0
  161.3570  210.2750  154.5670 C   0  0  0  0  0  3  0  0  0  0  0  0
  161.3720  207.8500  154.4700 C   0  0  0  0  0  0  0  0  0  0  0  0
  161.4170  207.8020  155.8680 C   0  0  0  0  0  3  0  0  0  0  0  0
  161.0980  210.3640  151.6390 C   0  0  0  0  0  0  0  0  0  0  0  0
  161.7710  211.8690  149.8980 N   0  0  0  0  0  0  0  0  0  0  0  0
  161.9460  210.7050  150.5750 C   0  0  0  0  0  3  0  0  0  0  0  0
  160.7800  212.7400  150.2260 C   0  0  0  0  0  3  0  0  0  0  0  0
  159.9110  212.4470  151.2760 C   0  0  0  0  0  3  0  0  0  0  0  0
  160.0630  211.2500  151.9920 C   0  0  0  0  0  0  0  0  0  0  0  0
  159.1950  210.9230  153.0420 O   0  0  0  0  0  0  0  0  0  0  0  0
  157.8550  211.5480  154.9470 C   0  0  0  0  0  1  0  0  0  0  0  0
  158.1290  211.7630  153.4700 C   0  0  0  0  0  2  0  0  0  0  0  0
  160.0690  206.3580  149.5850 O   0  0  0  0  0  0  0  0  0  0  0  0
  160.6250  205.3840  150.1630 C   0  0  0  0  0  0  0  0  0  0  0  0
  161.0500  205.5170  151.5240 N   0  0  0  0  0  2  0  0  0  0  0  0
  161.2340  201.6330  148.1640 C   0  0  0  0  0  0  0  0  0  0  0  0
  160.5380  202.9040  150.0990 C   0  0  0  0  0  3  0  0  0  0  0  0
  161.6830  205.2120  147.4310 O   0  0  0  0  0  1  0  0  0  0  0  0
  161.4750  200.0930  147.3680 Cl  0  0  0  0  0  0  0  0  0  0  0  0
  160.7290  201.6740  149.4640 C   0  0  0  0  0  3  0  0  0  0  0  0
  161.3580  204.0550  148.1280 C   0  0  0  0  0  0  0  0  0  0  0  0
  160.8470  204.1070  149.4450 C   0  0  0  0  0  0  0  0  0  0  0  0
  161.5470  202.8190  147.4990 C   0  0  0  0  0  3  0  0  0  0  0  0
  1  4  1  0  0  0  0
  1  6  1  0  0  0  0
  2  3  1  0  0  0  0
  3 10  2  0  0  0  0
  3  9  1  0  0  0  0
  5 23  1  6  0  0  0
  5  7  1  0  0  0  0
  7 10  1  0  0  0  0
  8  5  1  0  0  0  0
  8  2  1  0  0  0  0
  9  1  2  0  0  0  0
 10 11  1  0  0  0  0
 11  4  2  0  0  0  0
 12 17  1  0  0  0  0
 12  2  1  0  0  0  0
 13 15  2  0  0  0  0
 13 14  1  0  0  0  0
 14 12  2  0  0  0  0
 15 16  1  0  0  0  0
 16 17  2  0  0  0  0
 17 18  1  0  0  0  0
 18 20  1  0  0  0  0
 20 19  1  0  0  0  0
 21 22  2  0  0  0  0
 22 23  1  0  0  0  0
 24 28  1  0  0  0  0
 26 29  1  0  0  0  0
 27 24  1  0  0  0  0
 28 25  2  0  0  0  0
 29 30  2  0  0  0  0
 30 25  1  0  0  0  0
 30 22  1  0  0  0  0
 31 29  1  0  0  0  0
 31 24  2  0  0  0  0
M  END
>  <MODEL>
2

>  <REMARK>
 VINA RESULT:      -7.1      2.406      8.392
  Name = 
  5 active torsions:
  status: ('A' for Active; 'I' for Inactive)
    1  A    between atoms: N_4  and  C_5
    2  A    between atoms: C_9  and  C_22
    3  A    between atoms: C_15  and  N_23
    4  A    between atoms: C_29  and  O_31
    5  A    between atoms: C_30  and  O_31
                            x       y       z     vdW  Elec       q    Type
                         _______ _______ _______ _____ _____    ______ ____

>  <TORSDO>
F 5

$$$$
=
 OpenBabel11052422343D

 31 34  0  0  1  0  0  0  0  0999 V2000
  161.2210  210.1810  156.2010 C   0  0  0  0  0  0  0  0  0  0  0  0
  161.2250  209.1100  152.5950 N   0  0  0  0  0  0  0  0  0  0  0  0
  161.2340  209.0630  154.0400 C   0  0  0  0  0  0  0  0  0  0  0  0
  161.2470  208.9440  156.8470 C   0  0  0  0  0  3  0  0  0  0  0  0
  160.7750  206.7000  152.5170 C   0  0  1  0  0  3  0  0  0  0  0  0
  161.1950  211.6590  157.1390 Cl  0  0  0  0  0  0  0  0  0  0  0  0
  161.3450  206.5370  153.9250 C   0  0  0  0  0  2  0  0  0  0  0  0
  161.4500  207.8800  151.8320 C   0  0  0  0  0  2  0  0  0  0  0  0
  161.2180  210.2420  154.8060 C   0  0  0  0  0  3  0  0  0  0  0  0
  161.2540  207.8180  154.7020 C   0  0  0  0  0  0  0  0  0  0  0  0
  161.2700  207.7650  156.1000 C   0  0  0  0  0  3  0  0  0  0  0  0
  161.0190  210.3380  151.8730 C   0  0  0  0  0  0  0  0  0  0  0  0
  160.0480  212.5280  151.7750 N   0  0  0  0  0  0  0  0  0  0  0  0
  160.2670  211.3710  152.4510 C   0  0  0  0  0  3  0  0  0  0  0  0
  160.5420  212.7240  150.5240 C   0  0  0  0  0  3  0  0  0  0  0  0
  161.2960  211.7280  149.9060 C   0  0  0  0  0  3  0  0  0  0  0  0
  161.5440  210.5230  150.5800 C   0  0  0  0  0  0  0  0  0  0  0  0
  162.3120  209.5100  149.9890 O   0  0  0  0  0  0  0  0  0  0  0  0
  162.8420  207.7090  148.4770 C   0  0  0  0  0  1  0  0  0  0  0  0
  162.0580  208.9910  148.6880 C   0  0  0  0  0  2  0  0  0  0  0  0
  159.9190  206.2700  149.8380 O   0  0  0  0  0  0  0  0  0  0  0  0
  160.5410  205.3270  150.4000 C   0  0  0  0  0  0  0  0  0  0  0  0
  161.0110  205.4910  151.7430 N   0  0  0  0  0  2  0  0  0  0  0  0
  161.2530  201.5910  148.4080 C   0  0  0  0  0  0  0  0  0  0  0  0
  160.6750  202.8480  150.3900 C   0  0  0  0  0  3  0  0  0  0  0  0
  161.2810  205.1730  147.5640 O   0  0  0  0  0  1  0  0  0  0  0  0
  161.5400  200.0570  147.6150 Cl  0  0  0  0  0  0  0  0  0  0  0  0
  160.9030  201.6230  149.7580 C   0  0  0  0  0  3  0  0  0  0  0  0
  161.1480  204.0120  148.3150 C   0  0  0  0  0  0  0  0  0  0  0  0
  160.7930  204.0550  149.6830 C   0  0  0  0  0  0  0  0  0  0  0  0
  161.3750  202.7810  147.6900 C   0  0  0  0  0  3  0  0  0  0  0  0
  1  4  1  0  0  0  0
  1  6  1  0  0  0  0
  2  3  1  0  0  0  0
  3 10  2  0  0  0  0
  3  9  1  0  0  0  0
  5 23  1  6  0  0  0
  5  7  1  0  0  0  0
  7 10  1  0  0  0  0
  8  5  1  0  0  0  0
  8  2  1  0  0  0  0
  9  1  2  0  0  0  0
 10 11  1  0  0  0  0
 11  4  2  0  0  0  0
 12 14  1  0  0  0  0
 12  2  1  0  0  0  0
 13 14  2  0  0  0  0
 15 13  1  0  0  0  0
 16 15  2  0  0  0  0
 16 17  1  0  0  0  0
 17 12  2  0  0  0  0
 18 17  1  0  0  0  0
 19 20  1  0  0  0  0
 20 18  1  0  0  0  0
 21 22  2  0  0  0  0
 22 23  1  0  0  0  0
 24 28  1  0  0  0  0
 26 29  1  0  0  0  0
 27 24  1  0  0  0  0
 28 25  2  0  0  0  0
 29 30  2  0  0  0  0
 30 25  1  0  0  0  0
 30 22  1  0  0  0  0
 31 29  1  0  0  0  0
 31 24  2  0  0  0  0
M  END
>  <MODEL>
3

>  <REMARK>
 VINA RESULT:      -7.1      2.271      8.111
  Name = 
  5 active torsions:
  status: ('A' for Active; 'I' for Inactive)
    1  A    between atoms: N_4  and  C_5
    2  A    between atoms: C_9  and  C_22
    3  A    between atoms: C_15  and  N_23
    4  A    between atoms: C_29  and  O_31
    5  A    between atoms: C_30  and  O_31
                            x       y       z     vdW  Elec       q    Type
                         _______ _______ _______ _____ _____    ______ ____

>  <TORSDO>
F 5

$$$$
=
 OpenBabel11052422343D

 31 34  0  0  1  0  0  0  0  0999 V2000
  161.3200  200.7970  148.3600 C   0  0  0  0  0  0  0  0  0  0  0  0
  161.0880  204.5480  148.1900 N   0  0  0  0  0  0  0  0  0  0  0  0
  161.1000  203.1960  148.7030 C   0  0  0  0  0  0  0  0  0  0  0  0
  161.1240  200.5790  149.7250 C   0  0  0  0  0  3  0  0  0  0  0  0
  161.1760  205.4190  150.4820 C   0  0  1  0  0  3  0  0  0  0  0  0
  161.5810  199.4410  147.2850 Cl  0  0  0  0  0  0  0  0  0  0  0  0
  160.6160  204.1020  151.0160 C   0  0  0  0  0  2  0  0  0  0  0  0
  160.6700  205.6470  149.0640 C   0  0  0  0  0  2  0  0  0  0  0  0
  161.3050  202.0970  147.8510 C   0  0  0  0  0  3  0  0  0  0  0  0
  160.9090  202.9660  150.0820 C   0  0  0  0  0  0  0  0  0  0  0  0
  160.9130  201.6600  150.5830 C   0  0  0  0  0  3  0  0  0  0  0  0
  161.4590  204.8520  146.8340 C   0  0  0  0  0  0  0  0  0  0  0  0
  162.7070  206.2030  145.2950 N   0  0  0  0  0  0  0  0  0  0  0  0
  162.3630  205.8920  146.5720 C   0  0  0  0  0  3  0  0  0  0  0  0
  162.1910  205.5270  144.2350 C   0  0  0  0  0  3  0  0  0  0  0  0
  161.2880  204.4840  144.4430 C   0  0  0  0  0  3  0  0  0  0  0  0
  160.9160  204.1360  145.7500 C   0  0  0  0  0  0  0  0  0  0  0  0
  160.0230  203.0820  145.9890 O   0  0  0  0  0  0  0  0  0  0  0  0
  159.7690  200.9540  144.8860 C   0  0  0  0  0  1  0  0  0  0  0  0
  159.3190  202.4010  144.9570 C   0  0  0  0  0  2  0  0  0  0  0  0
  162.7060  207.7530  151.0380 O   0  0  0  0  0  0  0  0  0  0  0  0
  161.5720  207.6660  151.5860 C   0  0  0  0  0  0  0  0  0  0  0  0
  160.7500  206.5210  151.3310 N   0  0  0  0  0  2  0  0  0  0  0  0
  160.1520  210.8310  154.1150 C   0  0  0  0  0  0  0  0  0  0  0  0
  160.8300  210.0070  151.9460 C   0  0  0  0  0  3  0  0  0  0  0  0
  161.0960  207.2900  154.4570 O   0  0  0  0  0  1  0  0  0  0  0  0
  159.5730  212.1360  155.1280 Cl  0  0  0  0  0  0  0  0  0  0  0  0
  160.3670  211.0480  152.7530 C   0  0  0  0  0  3  0  0  0  0  0  0
  160.8620  208.5260  153.8660 C   0  0  0  0  0  0  0  0  0  0  0  0
  161.0830  208.7360  152.4860 C   0  0  0  0  0  0  0  0  0  0  0  0
  160.3990  209.5740  154.6680 C   0  0  0  0  0  3  0  0  0  0  0  0
  1  4  1  0  0  0  0
  2  3  1  0  0  0  0
  2  8  1  0  0  0  0
  3 10  2  0  0  0  0
  4 11  2  0  0  0  0
  5  7  1  0  0  0  0
  5 23  1  1  0  0  0
  6  1  1  0  0  0  0
  8  5  1  0  0  0  0
  9  1  2  0  0  0  0
  9  3  1  0  0  0  0
 10 11  1  0  0  0  0
 10  7  1  0  0  0  0
 12  2  1  0  0  0  0
 13 14  2  0  0  0  0
 14 12  1  0  0  0  0
 15 16  2  0  0  0  0
 15 13  1  0  0  0  0
 16 17  1  0  0  0  0
 17 18  1  0  0  0  0
 17 12  2  0  0  0  0
 19 20  1  0  0  0  0
 20 18  1  0  0  0  0
 21 22  2  0  0  0  0
 22 30  1  0  0  0  0
 23 22  1  0  0  0  0
 24 31  1  0  0  0  0
 24 27  1  0  0  0  0
 25 30  2  0  0  0  0
 25 28  1  0  0  0  0
 28 24  2  0  0  0  0
 29 26  1  0  0  0  0
 29 31  2  0  0  0  0
 30 29  1  0  0  0  0
M  END
>  <MODEL>
4

>  <REMARK>
 VINA RESULT:      -6.6      1.629      2.833
  Name = 
  5 active torsions:
  status: ('A' for Active; 'I' for Inactive)
    1  A    between atoms: N_4  and  C_5
    2  A    between atoms: C_9  and  C_22
    3  A    between atoms: C_15  and  N_23
    4  A    between atoms: C_29  and  O_31
    5  A    between atoms: C_30  and  O_31
                            x       y       z     vdW  Elec       q    Type
                         _______ _______ _______ _____ _____    ______ ____

>  <TORSDO>
F 5

$$$$
=
 OpenBabel11052422343D

 31 34  0  0  1  0  0  0  0  0999 V2000
  161.1590  201.5320  148.9560 C   0  0  0  0  0  0  0  0  0  0  0  0
  160.7510  205.2700  148.8340 N   0  0  0  0  0  0  0  0  0  0  0  0
  160.9050  203.9220  149.3350 C   0  0  0  0  0  0  0  0  0  0  0  0
  161.2070  201.3130  150.3330 C   0  0  0  0  0  3  0  0  0  0  0  0
  161.1920  206.1560  151.0790 C   0  0  1  0  0  3  0  0  0  0  0  0
  161.2890  200.1820  147.8490 Cl  0  0  0  0  0  0  0  0  0  0  0  0
  160.7840  204.8200  151.6980 C   0  0  0  0  0  2  0  0  0  0  0  0
  160.4430  206.3560  149.7680 C   0  0  0  0  0  2  0  0  0  0  0  0
  161.0060  202.8280  148.4580 C   0  0  0  0  0  3  0  0  0  0  0  0
  160.9600  203.6920  150.7260 C   0  0  0  0  0  0  0  0  0  0  0  0
  161.1020  202.3900  151.2170 C   0  0  0  0  0  3  0  0  0  0  0  0
  160.8730  205.5820  147.4350 C   0  0  0  0  0  0  0  0  0  0  0  0
  159.9140  205.5890  145.2370 N   0  0  0  0  0  0  0  0  0  0  0  0
  159.8060  205.3190  146.5640 C   0  0  0  0  0  3  0  0  0  0  0  0
  161.0500  206.1170  144.7100 C   0  0  0  0  0  3  0  0  0  0  0  0
  162.1390  206.3970  145.5340 C   0  0  0  0  0  3  0  0  0  0  0  0
  162.0580  206.1320  146.9090 C   0  0  0  0  0  0  0  0  0  0  0  0
  163.1310  206.4180  147.7640 O   0  0  0  0  0  0  0  0  0  0  0  0
  162.3720  208.6520  148.2610 C   0  0  0  0  0  1  0  0  0  0  0  0
  163.0810  207.4150  148.7790 C   0  0  0  0  0  2  0  0  0  0  0  0
  161.8350  206.2250  153.8500 O   0  0  0  0  0  0  0  0  0  0  0  0
  161.2090  207.2150  153.3810 C   0  0  0  0  0  0  0  0  0  0  0  0
  160.8720  207.2440  151.9890 N   0  0  0  0  0  2  0  0  0  0  0  0
  160.1110  210.5620  155.8360 C   0  0  0  0  0  0  0  0  0  0  0  0
  160.8460  209.6470  153.7230 C   0  0  0  0  0  3  0  0  0  0  0  0
  160.3980  206.9090  156.1850 O   0  0  0  0  0  1  0  0  0  0  0  0
  159.6670  211.9400  156.8190 Cl  0  0  0  0  0  0  0  0  0  0  0  0
  160.4910  210.7480  154.5060 C   0  0  0  0  0  3  0  0  0  0  0  0
  160.4380  208.1700  155.6030 C   0  0  0  0  0  0  0  0  0  0  0  0
  160.8240  208.3480  154.2550 C   0  0  0  0  0  0  0  0  0  0  0  0
  160.0840  209.2780  156.3810 C   0  0  0  0  0  3  0  0  0  0  0  0
  1  4  1  0  0  0  0
  2  3  1  0  0  0  0
  2  8  1  0  0  0  0
  3 10  2  0  0  0  0
  4 11  2  0  0  0  0
  5  7  1  0  0  0  0
  5 23  1  1  0  0  0
  6  1  1  0  0  0  0
  8  5  1  0  0  0  0
  9  1  2  0  0  0  0
  9  3  1  0  0  0  0
 10 11  1  0  0  0  0
 10  7  1  0  0  0  0
 12  2  1  0  0  0  0
 13 14  1  0  0  0  0
 14 12  2  0  0  0  0
 15 13  2  0  0  0  0
 15 16  1  0  0  0  0
 16 17  2  0  0  0  0
 17 12  1  0  0  0  0
 17 18  1  0  0  0  0
 18 20  1  0  0  0  0
 19 20  1  0  0  0  0
 22 21  2  0  0  0  0
 22 30  1  0  0  0  0
 23 22  1  0  0  0  0
 24 31  1  0  0  0  0
 24 27  1  0  0  0  0
 25 30  2  0  0  0  0
 25 28  1  0  0  0  0
 28 24  2  0  0  0  0
 29 26  1  0  0  0  0
 29 31  2  0  0  0  0
 30 29  1  0  0  0  0
M  END
>  <MODEL>
5

>  <REMARK>
 VINA RESULT:      -5.7      1.237      1.660
  Name = 
  5 active torsions:
  status: ('A' for Active; 'I' for Inactive)
    1  A    between atoms: N_4  and  C_5
    2  A    between atoms: C_9  and  C_22
    3  A    between atoms: C_15  and  N_23
    4  A    between atoms: C_29  and  O_31
    5  A    between atoms: C_30  and  O_31
                            x       y       z     vdW  Elec       q    Type
                         _______ _______ _______ _____ _____    ______ ____

>  <TORSDO>
F 5

$$$$
=
 OpenBabel11052422343D

 31 34  0  0  1  0  0  0  0  0999 V2000
  161.1270  208.5840  154.7970 C   0  0  0  0  0  0  0  0  0  0  0  0
  161.6690  207.4800  151.2420 N   0  0  0  0  0  0  0  0  0  0  0  0
  161.3890  207.4510  152.6600 C   0  0  0  0  0  0  0  0  0  0  0  0
  160.8360  207.3670  155.4140 C   0  0  0  0  0  3  0  0  0  0  0  0
  160.8770  205.1670  151.0350 C   0  0  1  0  0  3  0  0  0  0  0  0
  161.1470  210.0600  155.7380 Cl  0  0  0  0  0  0  0  0  0  0  0  0
  161.1300  204.9360  152.5240 C   0  0  0  0  0  2  0  0  0  0  0  0
  161.8460  206.2200  150.5150 C   0  0  0  0  0  2  0  0  0  0  0  0
  161.4050  208.6270  153.4290 C   0  0  0  0  0  3  0  0  0  0  0  0
  161.0880  206.2250  153.2910 C   0  0  0  0  0  0  0  0  0  0  0  0
  160.8230  206.1880  154.6640 C   0  0  0  0  0  3  0  0  0  0  0  0
  161.7990  208.7160  150.5160 C   0  0  0  0  0  0  0  0  0  0  0  0
  161.5620  211.1010  150.4560 N   0  0  0  0  0  0  0  0  0  0  0  0
  161.4630  209.9280  151.1340 C   0  0  0  0  0  3  0  0  0  0  0  0
  161.9830  211.1410  149.1640 C   0  0  0  0  0  3  0  0  0  0  0  0
  162.3290  209.9620  148.5050 C   0  0  0  0  0  3  0  0  0  0  0  0
  162.2420  208.7360  149.1800 C   0  0  0  0  0  0  0  0  0  0  0  0
  162.5980  207.5370  148.5470 O   0  0  0  0  0  0  0  0  0  0  0  0
  160.8300  207.0070  146.9950 C   0  0  0  0  0  1  0  0  0  0  0  0
  162.3160  207.2570  147.1800 C   0  0  0  0  0  2  0  0  0  0  0  0
  160.4570  204.8290  148.2410 O   0  0  0  0  0  0  0  0  0  0  0  0
  160.8280  203.8140  148.8930 C   0  0  0  0  0  0  0  0  0  0  0  0
  161.0700  203.9270  150.3000 N   0  0  0  0  0  2  0  0  0  0  0  0
  161.3630  200.0780  146.8450 C   0  0  0  0  0  0  0  0  0  0  0  0
  160.9060  202.4520  146.8190 C   0  0  0  0  0  3  0  0  0  0  0  0
  161.4290  201.3150  150.3110 O   0  0  0  0  0  1  0  0  0  0  0  0
  161.5770  198.5660  145.9900 Cl  0  0  0  0  0  0  0  0  0  0  0  0
  161.0780  201.2460  146.1360 C   0  0  0  0  0  3  0  0  0  0  0  0
  161.3070  201.3210  148.9270 C   0  0  0  0  0  0  0  0  0  0  0  0
  161.0180  202.5090  148.2170 C   0  0  0  0  0  0  0  0  0  0  0  0
  161.4770  200.1170  148.2350 C   0  0  0  0  0  3  0  0  0  0  0  0
  1  4  1  0  0  0  0
  1  6  1  0  0  0  0
  2  3  1  0  0  0  0
  3 10  2  0  0  0  0
  3  9  1  0  0  0  0
  5 23  1  6  0  0  0
  5  7  1  0  0  0  0
  7 10  1  0  0  0  0
  8  5  1  0  0  0  0
  8  2  1  0  0  0  0
  9  1  2  0  0  0  0
 10 11  1  0  0  0  0
 11  4  2  0  0  0  0
 12 14  1  0  0  0  0
 12  2  1  0  0  0  0
 13 14  2  0  0  0  0
 15 13  1  0  0  0  0
 16 15  2  0  0  0  0
 16 17  1  0  0  0  0
 17 12  2  0  0  0  0
 18 17  1  0  0  0  0
 19 20  1  0  0  0  0
 20 18  1  0  0  0  0
 21 22  2  0  0  0  0
 22 23  1  0  0  0  0
 24 31  1  0  0  0  0
 25 30  2  0  0  0  0
 27 24  1  0  0  0  0
 28 25  1  0  0  0  0
 28 24  2  0  0  0  0
 29 26  1  0  0  0  0
 30 22  1  0  0  0  0
 30 29  1  0  0  0  0
 31 29  2  0  0  0  0
M  END
>  <MODEL>
6

>  <REMARK>
 VINA RESULT:      -5.4      2.072      7.819
  Name = 
  5 active torsions:
  status: ('A' for Active; 'I' for Inactive)
    1  A    between atoms: N_4  and  C_5
    2  A    between atoms: C_9  and  C_22
    3  A    between atoms: C_15  and  N_23
    4  A    between atoms: C_29  and  O_31
    5  A    between atoms: C_30  and  O_31
                            x       y       z     vdW  Elec       q    Type
                         _______ _______ _______ _____ _____    ______ ____

>  <TORSDO>
F 5

$$$$
