=
 OpenBabel11052422053D

 25 28  0  0  1  0  0  0  0  0999 V2000
  161.5180  204.5210  149.2910 N   0  0  0  0  0  0  0  0  0  0  0  0
  161.7970  205.3230  150.3590 C   0  0  0  0  0  0  0  0  0  0  0  0
  160.4670  202.8590  150.6520 C   0  0  0  0  0  3  0  0  0  0  0  0
  161.7720  204.6670  147.9790 C   0  0  0  0  0  0  0  0  0  0  0  0
  162.0230  204.4660  145.2500 C   0  0  0  0  0  3  0  0  0  0  0  0
  160.7400  203.6490  151.7760 C   0  0  0  0  0  3  0  0  0  0  0  0
  161.2890  203.5820  147.2970 C   0  0  0  0  0  0  0  0  0  0  0  0
  161.4060  203.4680  145.9510 N   0  0  0  0  0  0  0  0  0  0  0  0
  161.6820  205.7340  152.8070 C   0  0  0  0  0  0  0  0  0  0  0  0
  161.4950  205.3110  153.9790 O   0  0  0  0  0  0  0  0  0  0  0  0
  162.5900  206.6010  150.2070 C   0  0  0  0  0  2  0  0  0  0  0  0
  162.5320  205.6020  145.9160 C   0  0  0  0  0  3  0  0  0  0  0  0
  160.8760  203.3330  149.4080 C   0  0  0  0  0  0  0  0  0  0  0  0
  160.7010  202.6910  148.1810 C   0  0  0  0  0  3  0  0  0  0  0  0
  162.1880  207.0550  152.5980 N   0  0  0  0  0  2  0  0  0  0  0  0
  162.4060  205.7130  147.3110 C   0  0  0  0  0  3  0  0  0  0  0  0
  162.2120  207.6480  151.2610 C   0  0  2  0  0  3  0  0  0  0  0  0
  161.4040  204.8830  151.6400 C   0  0  0  0  0  0  0  0  0  0  0  0
  160.8580  208.2640  150.9290 C   0  0  0  0  0  2  0  0  0  0  0  0
  160.4500  209.1940  151.9730 N   0  0  0  0  0  2  0  0  0  0  0  0
  160.8300  210.5700  151.9710 C   0  0  0  0  0  0  0  0  0  0  0  0
  161.5270  211.0410  151.0300 O   0  0  0  0  0  0  0  0  0  0  0  0
  160.4020  211.4470  153.1000 C   0  0  2  0  0  3  0  0  0  0  0  0
  160.9820  210.9780  154.3460 N   0  0  0  0  0  1  0  0  0  0  0  0
  158.8890  211.4610  153.2120 C   0  0  0  0  0  1  0  0  0  0  0  0
  1 13  1  0  0  0  0
  1  2  1  0  0  0  0
  2 18  2  0  0  0  0
  3  6  2  0  0  0  0
  4  1  1  0  0  0  0
  5 12  1  0  0  0  0
  5  8  2  0  0  0  0
  7  4  2  0  0  0  0
  7 14  1  0  0  0  0
  8  7  1  0  0  0  0
  9 10  2  0  0  0  0
 11  2  1  0  0  0  0
 11 17  1  0  0  0  0
 12 16  2  0  0  0  0
 13  3  1  0  0  0  0
 14 13  2  0  0  0  0
 15  9  1  0  0  0  0
 16  4  1  0  0  0  0
 17 19  1  6  0  0  0
 17 15  1  0  0  0  0
 18  6  1  0  0  0  0
 18  9  1  0  0  0  0
 19 20  1  0  0  0  0
 21 20  1  0  0  0  0
 21 23  1  0  0  0  0
 22 21  2  0  0  0  0
 23 25  1  1  0  0  0
 23 24  1  0  0  0  0
M  END
>  <MODEL>
1

>  <REMARK>
 VINA RESULT:      -7.3      0.000      0.000
  Name = 
  3 active torsions:
  status: ('A' for Active; 'I' for Inactive)
    1  A    between atoms: C_2  and  C_21
    2  A    between atoms: C_6  and  N_15
    3  A    between atoms: C_6  and  C_23
                            x       y       z     vdW  Elec       q    Type
                         _______ _______ _______ _____ _____    ______ ____

>  <TORSDO>
F 3

$$$$
=
 OpenBabel11052422053D

 25 28  0  0  1  0  0  0  0  0999 V2000
  161.2720  207.0110  151.5930 N   0  0  0  0  0  0  0  0  0  0  0  0
  161.3660  208.1150  152.3910 C   0  0  0  0  0  0  0  0  0  0  0  0
  161.0120  205.5310  153.4540 C   0  0  0  0  0  3  0  0  0  0  0  0
  161.3190  206.8740  150.2570 C   0  0  0  0  0  0  0  0  0  0  0  0
  161.3360  206.0410  147.6390 C   0  0  0  0  0  3  0  0  0  0  0  0
  161.1100  206.6370  154.3090 C   0  0  0  0  0  3  0  0  0  0  0  0
  161.1740  205.5520  149.9290 C   0  0  0  0  0  0  0  0  0  0  0  0
  161.1810  205.1250  148.6420 N   0  0  0  0  0  0  0  0  0  0  0  0
  161.3750  209.1060  154.6700 C   0  0  0  0  0  0  0  0  0  0  0  0
  161.4700  208.9740  155.9190 O   0  0  0  0  0  0  0  0  0  0  0  0
  161.6460  209.4860  151.8210 C   0  0  0  0  0  2  0  0  0  0  0  0
  161.4860  207.4130  147.9360 C   0  0  0  0  0  3  0  0  0  0  0  0
  161.0980  205.7590  152.0830 C   0  0  0  0  0  0  0  0  0  0  0  0
  161.0280  204.7920  151.0780 C   0  0  0  0  0  3  0  0  0  0  0  0
  161.3650  210.4120  154.0890 N   0  0  0  0  0  2  0  0  0  0  0  0
  161.4780  207.8470  149.2720 C   0  0  0  0  0  3  0  0  0  0  0  0
  161.0420  210.6060  152.6760 C   0  0  2  0  0  3  0  0  0  0  0  0
  161.2880  207.9320  153.7870 C   0  0  0  0  0  0  0  0  0  0  0  0
  159.5310  210.6600  152.4800 C   0  0  0  0  0  2  0  0  0  0  0  0
  159.0360  212.0120  152.6990 N   0  0  0  0  0  2  0  0  0  0  0  0
  158.0150  212.3150  153.6500 C   0  0  0  0  0  0  0  0  0  0  0  0
  157.5150  211.4030  154.3640 O   0  0  0  0  0  0  0  0  0  0  0  0
  157.5370  213.7220  153.7840 C   0  0  2  0  0  3  0  0  0  0  0  0
  156.6350  213.8400  154.9160 N   0  0  0  0  0  1  0  0  0  0  0  0
  156.8290  214.1620  152.5170 C   0  0  0  0  0  1  0  0  0  0  0  0
  1 13  1  0  0  0  0
  1  2  1  0  0  0  0
  2 18  2  0  0  0  0
  3  6  2  0  0  0  0
  4  1  1  0  0  0  0
  5 12  2  0  0  0  0
  5  8  1  0  0  0  0
  7  4  1  0  0  0  0
  7 14  1  0  0  0  0
  8  7  2  0  0  0  0
  9 10  2  0  0  0  0
 11  2  1  0  0  0  0
 11 17  1  0  0  0  0
 12 16  1  0  0  0  0
 13  3  1  0  0  0  0
 14 13  2  0  0  0  0
 15  9  1  0  0  0  0
 16  4  2  0  0  0  0
 17 19  1  1  0  0  0
 17 15  1  0  0  0  0
 18  6  1  0  0  0  0
 18  9  1  0  0  0  0
 19 20  1  0  0  0  0
 20 21  1  0  0  0  0
 21 23  1  0  0  0  0
 21 22  2  0  0  0  0
 23 25  1  6  0  0  0
 23 24  1  0  0  0  0
M  END
>  <MODEL>
2

>  <REMARK>
 VINA RESULT:      -7.3      2.379      3.671
  Name = 
  3 active torsions:
  status: ('A' for Active; 'I' for Inactive)
    1  A    between atoms: C_2  and  C_21
    2  A    between atoms: C_6  and  N_15
    3  A    between atoms: C_6  and  C_23
                            x       y       z     vdW  Elec       q    Type
                         _______ _______ _______ _____ _____    ______ ____

>  <TORSDO>
F 3

$$$$
=
 OpenBabel11052422053D

 25 28  0  0  1  0  0  0  0  0999 V2000
  161.3780  207.4080  151.8050 N   0  0  0  0  0  0  0  0  0  0  0  0
  161.4340  208.4060  152.7350 C   0  0  0  0  0  0  0  0  0  0  0  0
  160.8710  205.7390  153.4420 C   0  0  0  0  0  3  0  0  0  0  0  0
  161.5560  207.4230  150.4730 C   0  0  0  0  0  0  0  0  0  0  0  0
  161.8080  206.8970  147.7880 C   0  0  0  0  0  3  0  0  0  0  0  0
  160.9250  206.7320  154.4280 C   0  0  0  0  0  3  0  0  0  0  0  0
  161.3930  206.1570  149.9760 C   0  0  0  0  0  0  0  0  0  0  0  0
  161.5150  205.8820  148.6540 N   0  0  0  0  0  0  0  0  0  0  0  0
  161.2490  209.1260  155.1060 C   0  0  0  0  0  0  0  0  0  0  0  0
  161.2100  208.8470  156.3340 O   0  0  0  0  0  0  0  0  0  0  0  0
  161.8240  209.8180  152.3630 C   0  0  0  0  0  2  0  0  0  0  0  0
  161.9820  208.2170  148.2600 C   0  0  0  0  0  3  0  0  0  0  0  0
  161.1050  206.1180  152.1220 C   0  0  0  0  0  0  0  0  0  0  0  0
  161.1000  205.2790  151.0070 C   0  0  0  0  0  3  0  0  0  0  0  0
  161.3510  210.4900  154.6870 N   0  0  0  0  0  2  0  0  0  0  0  0
  161.8530  208.4940  149.6320 C   0  0  0  0  0  3  0  0  0  0  0  0
  161.1810  210.8610  153.2830 C   0  0  2  0  0  3  0  0  0  0  0  0
  161.2060  208.0680  154.0850 C   0  0  0  0  0  0  0  0  0  0  0  0
  159.7020  211.0150  152.9490 C   0  0  0  0  0  2  0  0  0  0  0  0
  159.5200  211.9690  151.8640 N   0  0  0  0  0  2  0  0  0  0  0  0
  158.4750  212.9430  151.8600 C   0  0  0  0  0  0  0  0  0  0  0  0
  157.6740  213.0250  152.8310 O   0  0  0  0  0  0  0  0  0  0  0  0
  158.3350  213.8580  150.6900 C   0  0  2  0  0  3  0  0  0  0  0  0
  157.2920  213.3780  149.8010 N   0  0  0  0  0  1  0  0  0  0  0  0
  159.6470  213.9540  149.9350 C   0  0  0  0  0  1  0  0  0  0  0  0
  1 13  1  0  0  0  0
  1  2  1  0  0  0  0
  2 18  2  0  0  0  0
  3  6  2  0  0  0  0
  4  1  1  0  0  0  0
  5 12  2  0  0  0  0
  5  8  1  0  0  0  0
  7  4  1  0  0  0  0
  7 14  1  0  0  0  0
  8  7  2  0  0  0  0
  9 10  2  0  0  0  0
 11  2  1  0  0  0  0
 11 17  1  0  0  0  0
 12 16  1  0  0  0  0
 13  3  1  0  0  0  0
 14 13  2  0  0  0  0
 15  9  1  0  0  0  0
 16  4  2  0  0  0  0
 17 19  1  6  0  0  0
 17 15  1  0  0  0  0
 18  6  1  0  0  0  0
 18  9  1  0  0  0  0
 20 19  1  0  0  0  0
 21 20  1  0  0  0  0
 21 22  2  0  0  0  0
 23 25  1  6  0  0  0
 23 21  1  0  0  0  0
 24 23  1  0  0  0  0
M  END
>  <MODEL>
3

>  <REMARK>
 VINA RESULT:      -7.2      2.555      3.998
  Name = 
  3 active torsions:
  status: ('A' for Active; 'I' for Inactive)
    1  A    between atoms: C_2  and  C_21
    2  A    between atoms: C_6  and  N_15
    3  A    between atoms: C_6  and  C_23
                            x       y       z     vdW  Elec       q    Type
                         _______ _______ _______ _____ _____    ______ ____

>  <TORSDO>
F 3

$$$$
=
 OpenBabel11052422053D

 25 28  0  0  1  0  0  0  0  0999 V2000
  161.3340  207.8650  152.3630 N   0  0  0  0  0  0  0  0  0  0  0  0
  161.2900  208.7950  153.3620 C   0  0  0  0  0  0  0  0  0  0  0  0
  160.9220  206.0480  153.8620 C   0  0  0  0  0  3  0  0  0  0  0  0
  161.5420  207.9910  151.0410 C   0  0  0  0  0  0  0  0  0  0  0  0
  161.8980  207.6820  148.3340 C   0  0  0  0  0  3  0  0  0  0  0  0
  160.8740  206.9680  154.9170 C   0  0  0  0  0  3  0  0  0  0  0  0
  161.4910  206.7550  150.4510 C   0  0  0  0  0  0  0  0  0  0  0  0
  161.6650  206.5870  149.1170 N   0  0  0  0  0  0  0  0  0  0  0  0
  160.9920  209.3240  155.7710 C   0  0  0  0  0  0  0  0  0  0  0  0
  160.9470  208.9540  156.9750 O   0  0  0  0  0  0  0  0  0  0  0  0
  161.5760  210.2550  153.1010 C   0  0  0  0  0  2  0  0  0  0  0  0
  161.9560  208.9730  148.9030 C   0  0  0  0  0  3  0  0  0  0  0  0
  161.1570  206.5390  152.5800 C   0  0  0  0  0  0  0  0  0  0  0  0
  161.2440  205.7840  151.4090 C   0  0  0  0  0  3  0  0  0  0  0  0
  160.9960  210.7180  155.4530 N   0  0  0  0  0  2  0  0  0  0  0  0
  161.7740  209.1390  150.2860 C   0  0  0  0  0  3  0  0  0  0  0  0
  160.8310  211.1760  154.0740 C   0  0  2  0  0  3  0  0  0  0  0  0
  161.0570  208.3430  154.6770 C   0  0  0  0  0  0  0  0  0  0  0  0
  159.3520  211.2400  153.7090 C   0  0  0  0  0  2  0  0  0  0  0  0
  159.1810  211.7580  152.3580 N   0  0  0  0  0  2  0  0  0  0  0  0
  158.3580  212.8870  152.0640 C   0  0  0  0  0  0  0  0  0  0  0  0
  157.7590  213.5010  152.9890 O   0  0  0  0  0  0  0  0  0  0  0  0
  158.2060  213.3290  150.6470 C   0  0  2  0  0  3  0  0  0  0  0  0
  159.4160  213.9940  150.1960 N   0  0  0  0  0  1  0  0  0  0  0  0
  157.0230  214.2690  150.5110 C   0  0  0  0  0  1  0  0  0  0  0  0
  1 13  1  0  0  0  0
  1  2  1  0  0  0  0
  2 18  2  0  0  0  0
  3  6  2  0  0  0  0
  4  1  1  0  0  0  0
  5 12  2  0  0  0  0
  5  8  1  0  0  0  0
  7  4  1  0  0  0  0
  7 14  1  0  0  0  0
  8  7  2  0  0  0  0
  9 10  2  0  0  0  0
 11  2  1  0  0  0  0
 11 17  1  0  0  0  0
 12 16  1  0  0  0  0
 13  3  1  0  0  0  0
 14 13  2  0  0  0  0
 15  9  1  0  0  0  0
 16  4  2  0  0  0  0
 17 19  1  6  0  0  0
 17 15  1  0  0  0  0
 18  6  1  0  0  0  0
 18  9  1  0  0  0  0
 20 19  1  0  0  0  0
 21 20  1  0  0  0  0
 21 22  2  0  0  0  0
 23 25  1  1  0  0  0
 23 21  1  0  0  0  0
 24 23  1  0  0  0  0
M  END
>  <MODEL>
4

>  <REMARK>
 VINA RESULT:      -7.0      2.786      4.493
  Name = 
  3 active torsions:
  status: ('A' for Active; 'I' for Inactive)
    1  A    between atoms: C_2  and  C_21
    2  A    between atoms: C_6  and  N_15
    3  A    between atoms: C_6  and  C_23
                            x       y       z     vdW  Elec       q    Type
                         _______ _______ _______ _____ _____    ______ ____

>  <TORSDO>
F 3

$$$$
=
 OpenBabel11052422053D

 25 28  0  0  1  0  0  0  0  0999 V2000
  161.3070  203.9560  149.3280 N   0  0  0  0  0  0  0  0  0  0  0  0
  161.8360  205.0530  149.9440 C   0  0  0  0  0  0  0  0  0  0  0  0
  160.4070  203.0870  151.3660 C   0  0  0  0  0  3  0  0  0  0  0  0
  161.3250  203.5640  148.0420 C   0  0  0  0  0  0  0  0  0  0  0  0
  161.0540  202.3220  145.6060 C   0  0  0  0  0  3  0  0  0  0  0  0
  160.9380  204.1960  152.0390 C   0  0  0  0  0  3  0  0  0  0  0  0
  160.6470  202.3800  147.9170 C   0  0  0  0  0  0  0  0  0  0  0  0
  160.5060  201.7550  146.7220 N   0  0  0  0  0  0  0  0  0  0  0  0
  162.2040  206.3620  152.0240 C   0  0  0  0  0  0  0  0  0  0  0  0
  162.2050  206.4390  153.2810 O   0  0  0  0  0  0  0  0  0  0  0  0
  162.6780  206.0580  149.1920 C   0  0  0  0  0  2  0  0  0  0  0  0
  161.7580  203.5420  145.6930 C   0  0  0  0  0  3  0  0  0  0  0  0
  160.6130  202.9990  149.9920 C   0  0  0  0  0  0  0  0  0  0  0  0
  160.1680  201.9760  149.1530 C   0  0  0  0  0  3  0  0  0  0  0  0
  162.7570  207.4250  151.2430 N   0  0  0  0  0  2  0  0  0  0  0  0
  161.9000  204.1840  146.9350 C   0  0  0  0  0  3  0  0  0  0  0  0
  162.5780  207.4650  149.7920 C   0  0  2  0  0  3  0  0  0  0  0  0
  161.6540  205.1830  151.3370 C   0  0  0  0  0  0  0  0  0  0  0  0
  161.2340  208.0930  149.4400 C   0  0  0  0  0  2  0  0  0  0  0  0
  161.4230  209.2600  148.5910 N   0  0  0  0  0  2  0  0  0  0  0  0
  161.8160  210.5330  149.1060 C   0  0  0  0  0  0  0  0  0  0  0  0
  162.0410  210.6830  150.3380 O   0  0  0  0  0  0  0  0  0  0  0  0
  161.9490  211.6890  148.1710 C   0  0  2  0  0  3  0  0  0  0  0  0
  163.3470  212.0480  148.0140 N   0  0  0  0  0  1  0  0  0  0  0  0
  161.1690  212.8810  148.6920 C   0  0  0  0  0  1  0  0  0  0  0  0
  1  2  1  0  0  0  0
  1 13  1  0  0  0  0
  2 18  2  0  0  0  0
  3  6  2  0  0  0  0
  4  1  1  0  0  0  0
  5 12  2  0  0  0  0
  5  8  1  0  0  0  0
  7  4  1  0  0  0  0
  7 14  1  0  0  0  0
  8  7  2  0  0  0  0
  9 10  2  0  0  0  0
 11 17  1  0  0  0  0
 11  2  1  0  0  0  0
 12 16  1  0  0  0  0
 13  3  1  0  0  0  0
 14 13  2  0  0  0  0
 15  9  1  0  0  0  0
 16  4  2  0  0  0  0
 17 19  1  1  0  0  0
 17 15  1  0  0  0  0
 18  9  1  0  0  0  0
 18  6  1  0  0  0  0
 20 21  1  0  0  0  0
 20 19  1  0  0  0  0
 21 22  2  0  0  0  0
 23 25  1  1  0  0  0
 23 21  1  0  0  0  0
 24 23  1  0  0  0  0
M  END
>  <MODEL>
5

>  <REMARK>
 VINA RESULT:      -7.0      2.162      2.537
  Name = 
  3 active torsions:
  status: ('A' for Active; 'I' for Inactive)
    1  A    between atoms: C_2  and  C_21
    2  A    between atoms: C_6  and  N_15
    3  A    between atoms: C_6  and  C_23
                            x       y       z     vdW  Elec       q    Type
                         _______ _______ _______ _____ _____    ______ ____

>  <TORSDO>
F 3

$$$$
=
 OpenBabel11052422053D

 25 28  0  0  1  0  0  0  0  0999 V2000
  161.3680  204.7040  148.5320 N   0  0  0  0  0  0  0  0  0  0  0  0
  161.2180  205.8970  149.1760 C   0  0  0  0  0  0  0  0  0  0  0  0
  162.4920  205.7030  146.6720 C   0  0  0  0  0  3  0  0  0  0  0  0
  160.9940  203.4580  148.8710 C   0  0  0  0  0  0  0  0  0  0  0  0
  160.4760  200.7670  149.0700 C   0  0  0  0  0  3  0  0  0  0  0  0
  162.3540  206.9500  147.2970 C   0  0  0  0  0  3  0  0  0  0  0  0
  161.3740  202.5840  147.8870 C   0  0  0  0  0  0  0  0  0  0  0  0
  161.1250  201.2530  147.9700 N   0  0  0  0  0  0  0  0  0  0  0  0
  161.5810  208.3550  149.2260 C   0  0  0  0  0  0  0  0  0  0  0  0
  161.8670  209.4310  148.6360 O   0  0  0  0  0  0  0  0  0  0  0  0
  160.4560  206.0080  150.4760 C   0  0  0  0  0  2  0  0  0  0  0  0
  160.0690  201.6340  150.1070 C   0  0  0  0  0  3  0  0  0  0  0  0
  161.9810  204.5860  147.3280 C   0  0  0  0  0  0  0  0  0  0  0  0
  162.0170  203.2690  146.8680 C   0  0  0  0  0  3  0  0  0  0  0  0
  161.1000  208.3870  150.5730 N   0  0  0  0  0  2  0  0  0  0  0  0
  160.3320  203.0120  150.0120 C   0  0  0  0  0  3  0  0  0  0  0  0
  160.9660  207.1570  151.3530 C   0  0  2  0  0  3  0  0  0  0  0  0
  161.7190  207.0570  148.5480 C   0  0  0  0  0  0  0  0  0  0  0  0
  162.3010  206.7830  151.9870 C   0  0  0  0  0  2  0  0  0  0  0  0
  162.1490  206.5930  153.4230 N   0  0  0  0  0  2  0  0  0  0  0  0
  161.5380  207.5680  154.2690 C   0  0  0  0  0  0  0  0  0  0  0  0
  161.0780  208.6380  153.7850 O   0  0  0  0  0  0  0  0  0  0  0  0
  161.4580  207.3110  155.7370 C   0  0  2  0  0  3  0  0  0  0  0  0
  160.0890  207.0120  156.1200 N   0  0  0  0  0  1  0  0  0  0  0  0
  161.9540  208.5180  156.5110 C   0  0  0  0  0  1  0  0  0  0  0  0
  1  4  1  0  0  0  0
  1  2  1  0  0  0  0
  2 11  1  0  0  0  0
  3  6  2  0  0  0  0
  3 13  1  0  0  0  0
  4 16  1  0  0  0  0
  5 12  1  0  0  0  0
  6 18  1  0  0  0  0
  7  8  1  0  0  0  0
  7  4  2  0  0  0  0
  8  5  2  0  0  0  0
  9 15  1  0  0  0  0
 10  9  2  0  0  0  0
 11 17  1  0  0  0  0
 13  1  1  0  0  0  0
 14 13  2  0  0  0  0
 14  7  1  0  0  0  0
 15 17  1  0  0  0  0
 16 12  2  0  0  0  0
 17 19  1  6  0  0  0
 18  2  2  0  0  0  0
 18  9  1  0  0  0  0
 19 20  1  0  0  0  0
 20 21  1  0  0  0  0
 21 23  1  0  0  0  0
 22 21  2  0  0  0  0
 23 24  1  0  0  0  0
 23 25  1  1  0  0  0
M  END
>  <MODEL>
6

>  <REMARK>
 VINA RESULT:      -6.9      2.280      3.951
  Name = 
  3 active torsions:
  status: ('A' for Active; 'I' for Inactive)
    1  A    between atoms: C_2  and  C_21
    2  A    between atoms: C_6  and  N_15
    3  A    between atoms: C_6  and  C_23
                            x       y       z     vdW  Elec       q    Type
                         _______ _______ _______ _____ _____    ______ ____

>  <TORSDO>
F 3

$$$$
=
 OpenBabel11052422053D

 25 28  0  0  1  0  0  0  0  0999 V2000
  161.0020  209.2900  152.5480 N   0  0  0  0  0  0  0  0  0  0  0  0
  161.5870  209.0580  151.3370 C   0  0  0  0  0  0  0  0  0  0  0  0
  160.4560  211.5520  151.9940 C   0  0  0  0  0  3  0  0  0  0  0  0
  160.8310  208.4970  153.6200 C   0  0  0  0  0  0  0  0  0  0  0  0
  160.2220  207.3300  156.0310 C   0  0  0  0  0  3  0  0  0  0  0  0
  161.0520  211.3580  150.7410 C   0  0  0  0  0  3  0  0  0  0  0  0
  160.1780  209.1910  154.6030 C   0  0  0  0  0  0  0  0  0  0  0  0
  159.8710  208.6300  155.7980 N   0  0  0  0  0  0  0  0  0  0  0  0
  162.2350  209.8880  149.0860 C   0  0  0  0  0  0  0  0  0  0  0  0
  162.4290  210.8420  148.2870 O   0  0  0  0  0  0  0  0  0  0  0  0
  162.2710  207.7480  151.0230 C   0  0  0  0  0  2  0  0  0  0  0  0
  160.8940  206.5790  155.0430 C   0  0  0  0  0  3  0  0  0  0  0  0
  160.4480  210.4810  152.8850 C   0  0  0  0  0  0  0  0  0  0  0  0
  159.9100  210.4810  154.1720 C   0  0  0  0  0  3  0  0  0  0  0  0
  162.6270  208.5620  148.7230 N   0  0  0  0  0  2  0  0  0  0  0  0
  161.2080  207.1680  153.8060 C   0  0  0  0  0  3  0  0  0  0  0  0
  162.2240  207.4100  149.5290 C   0  0  2  0  0  3  0  0  0  0  0  0
  161.6200  210.1150  150.4040 C   0  0  0  0  0  0  0  0  0  0  0  0
  160.8230  206.9530  149.1370 C   0  0  0  0  0  2  0  0  0  0  0  0
  160.4930  205.6970  149.7960 N   0  0  0  0  0  2  0  0  0  0  0  0
  160.8900  204.4270  149.2780 C   0  0  0  0  0  0  0  0  0  0  0  0
  161.5750  204.3520  148.2220 O   0  0  0  0  0  0  0  0  0  0  0  0
  160.4760  203.1850  149.9950 C   0  0  2  0  0  3  0  0  0  0  0  0
  161.1750  203.0820  151.2640 N   0  0  0  0  0  1  0  0  0  0  0  0
  160.7710  201.9620  149.1460 C   0  0  0  0  0  1  0  0  0  0  0  0
  1 13  1  0  0  0  0
  1  4  1  0  0  0  0
  2  1  1  0  0  0  0
  3 13  1  0  0  0  0
  4 16  2  0  0  0  0
  4  7  1  0  0  0  0
  6  3  2  0  0  0  0
  7  8  2  0  0  0  0
  8  5  1  0  0  0  0
  9 18  1  0  0  0  0
 10  9  2  0  0  0  0
 11  2  1  0  0  0  0
 12  5  2  0  0  0  0
 13 14  2  0  0  0  0
 14  7  1  0  0  0  0
 15  9  1  0  0  0  0
 15 17  1  0  0  0  0
 16 12  1  0  0  0  0
 17 19  1  6  0  0  0
 17 11  1  0  0  0  0
 18  6  1  0  0  0  0
 18  2  2  0  0  0  0
 19 20  1  0  0  0  0
 21 20  1  0  0  0  0
 21 23  1  0  0  0  0
 22 21  2  0  0  0  0
 23 25  1  6  0  0  0
 23 24  1  0  0  0  0
M  END
>  <MODEL>
7

>  <REMARK>
 VINA RESULT:      -6.9      2.465      7.466
  Name = 
  3 active torsions:
  status: ('A' for Active; 'I' for Inactive)
    1  A    between atoms: C_2  and  C_21
    2  A    between atoms: C_6  and  N_15
    3  A    between atoms: C_6  and  C_23
                            x       y       z     vdW  Elec       q    Type
                         _______ _______ _______ _____ _____    ______ ____

>  <TORSDO>
F 3

$$$$
=
 OpenBabel11052422053D

 25 28  0  0  1  0  0  0  0  0999 V2000
  161.4570  207.6000  152.0500 N   0  0  0  0  0  0  0  0  0  0  0  0
  161.5100  208.4680  153.1020 C   0  0  0  0  0  0  0  0  0  0  0  0
  160.9940  205.7230  153.4590 C   0  0  0  0  0  3  0  0  0  0  0  0
  161.6180  207.7920  150.7290 C   0  0  0  0  0  0  0  0  0  0  0  0
  161.8420  207.6260  147.9960 C   0  0  0  0  0  3  0  0  0  0  0  0
  161.0470  206.5790  154.5660 C   0  0  0  0  0  3  0  0  0  0  0  0
  161.4660  206.6000  150.0730 C   0  0  0  0  0  0  0  0  0  0  0  0
  161.5750  206.5020  148.7250 N   0  0  0  0  0  0  0  0  0  0  0  0
  161.3450  208.8680  155.5490 C   0  0  0  0  0  0  0  0  0  0  0  0
  161.3260  208.4300  156.7300 O   0  0  0  0  0  0  0  0  0  0  0  0
  161.8750  209.9220  152.9130 C   0  0  0  0  0  2  0  0  0  0  0  0
  162.0030  208.8750  148.6350 C   0  0  0  0  0  3  0  0  0  0  0  0
  161.2060  206.2750  152.1980 C   0  0  0  0  0  0  0  0  0  0  0  0
  161.1990  205.5890  150.9820 C   0  0  0  0  0  3  0  0  0  0  0  0
  161.4220  210.2760  155.3110 N   0  0  0  0  0  2  0  0  0  0  0  0
  161.8880  208.9680  150.0330 C   0  0  0  0  0  3  0  0  0  0  0  0
  161.2290  210.8260  153.9690 C   0  0  2  0  0  3  0  0  0  0  0  0
  161.3040  207.9520  154.3980 C   0  0  0  0  0  0  0  0  0  0  0  0
  159.7430  210.9990  153.6750 C   0  0  0  0  0  2  0  0  0  0  0  0
  159.0050  211.2500  154.9050 N   0  0  0  0  0  2  0  0  0  0  0  0
  157.6360  211.6570  154.9120 C   0  0  0  0  0  0  0  0  0  0  0  0
  157.0020  211.7910  153.8300 O   0  0  0  0  0  0  0  0  0  0  0  0
  156.9640  211.9320  156.2160 C   0  0  2  0  0  3  0  0  0  0  0  0
  155.6650  211.2860  156.2570 N   0  0  0  0  0  1  0  0  0  0  0  0
  156.8010  213.4270  156.4210 C   0  0  0  0  0  1  0  0  0  0  0  0
  1 13  1  0  0  0  0
  1  2  1  0  0  0  0
  2 18  2  0  0  0  0
  3  6  2  0  0  0  0
  4  1  1  0  0  0  0
  5 12  2  0  0  0  0
  5  8  1  0  0  0  0
  7  4  1  0  0  0  0
  7 14  1  0  0  0  0
  8  7  2  0  0  0  0
  9 10  2  0  0  0  0
 11  2  1  0  0  0  0
 11 17  1  0  0  0  0
 12 16  1  0  0  0  0
 13  3  1  0  0  0  0
 14 13  2  0  0  0  0
 15  9  1  0  0  0  0
 16  4  2  0  0  0  0
 17 19  1  6  0  0  0
 17 15  1  0  0  0  0
 18  6  1  0  0  0  0
 18  9  1  0  0  0  0
 19 20  1  0  0  0  0
 20 21  1  0  0  0  0
 21 23  1  0  0  0  0
 22 21  2  0  0  0  0
 23 24  1  0  0  0  0
 23 25  1  6  0  0  0
M  END
>  <MODEL>
8

>  <REMARK>
 VINA RESULT:      -6.7      2.675      4.316
  Name = 
  3 active torsions:
  status: ('A' for Active; 'I' for Inactive)
    1  A    between atoms: C_2  and  C_21
    2  A    between atoms: C_6  and  N_15
    3  A    between atoms: C_6  and  C_23
                            x       y       z     vdW  Elec       q    Type
                         _______ _______ _______ _____ _____    ______ ____

>  <TORSDO>
F 3

$$$$
=
 OpenBabel11052422053D

 25 28  0  0  1  0  0  0  0  0999 V2000
  160.8970  209.4730  152.7050 N   0  0  0  0  0  0  0  0  0  0  0  0
  161.5030  209.2280  151.5070 C   0  0  0  0  0  0  0  0  0  0  0  0
  160.3240  211.7150  152.1000 C   0  0  0  0  0  3  0  0  0  0  0  0
  160.7220  208.6970  153.7890 C   0  0  0  0  0  0  0  0  0  0  0  0
  160.0940  207.5660  156.2130 C   0  0  0  0  0  3  0  0  0  0  0  0
  160.9420  211.5070  150.8600 C   0  0  0  0  0  3  0  0  0  0  0  0
  160.0430  209.4000  154.7490 C   0  0  0  0  0  0  0  0  0  0  0  0
  159.7270  208.8560  155.9500 N   0  0  0  0  0  0  0  0  0  0  0  0
  162.1710  210.0260  149.2510 C   0  0  0  0  0  0  0  0  0  0  0  0
  162.3630  210.9680  148.4370 O   0  0  0  0  0  0  0  0  0  0  0  0
  162.2110  207.9220  151.2290 C   0  0  0  0  0  2  0  0  0  0  0  0
  160.7930  206.8070  155.2490 C   0  0  0  0  0  3  0  0  0  0  0  0
  160.3190  210.6620  153.0110 C   0  0  0  0  0  0  0  0  0  0  0  0
  159.7620  210.6770  154.2900 C   0  0  0  0  0  3  0  0  0  0  0  0
  162.5890  208.6990  148.9190 N   0  0  0  0  0  2  0  0  0  0  0  0
  161.1160  207.3790  154.0060 C   0  0  0  0  0  3  0  0  0  0  0  0
  162.1920  207.5560  149.7400 C   0  0  2  0  0  3  0  0  0  0  0  0
  161.5340  210.2670  150.5550 C   0  0  0  0  0  0  0  0  0  0  0  0
  160.8050  207.0700  149.3370 C   0  0  0  0  0  2  0  0  0  0  0  0
  160.7950  206.6540  147.9410 N   0  0  0  0  0  2  0  0  0  0  0  0
  161.1820  205.3440  147.5250 C   0  0  0  0  0  0  0  0  0  0  0  0
  161.5300  204.4780  148.3750 O   0  0  0  0  0  0  0  0  0  0  0  0
  161.1820  205.0110  146.0700 C   0  0  2  0  0  3  0  0  0  0  0  0
  162.5440  204.9420  145.5710 N   0  0  0  0  0  1  0  0  0  0  0  0
  160.4020  206.0530  145.2910 C   0  0  0  0  0  1  0  0  0  0  0  0
  1 13  1  0  0  0  0
  1  4  1  0  0  0  0
  2  1  1  0  0  0  0
  3 13  1  0  0  0  0
  4 16  2  0  0  0  0
  4  7  1  0  0  0  0
  6  3  2  0  0  0  0
  7  8  2  0  0  0  0
  8  5  1  0  0  0  0
  9 18  1  0  0  0  0
 10  9  2  0  0  0  0
 11  2  1  0  0  0  0
 12  5  2  0  0  0  0
 13 14  2  0  0  0  0
 14  7  1  0  0  0  0
 15  9  1  0  0  0  0
 15 17  1  0  0  0  0
 16 12  1  0  0  0  0
 17 19  1  6  0  0  0
 17 11  1  0  0  0  0
 18  6  1  0  0  0  0
 18  2  2  0  0  0  0
 20 19  1  0  0  0  0
 21 20  1  0  0  0  0
 21 22  2  0  0  0  0
 23 25  1  6  0  0  0
 23 21  1  0  0  0  0
 24 23  1  0  0  0  0
M  END
>  <MODEL>
9

>  <REMARK>
 VINA RESULT:      -6.6      2.447      7.710
  Name = 
  3 active torsions:
  status: ('A' for Active; 'I' for Inactive)
    1  A    between atoms: C_2  and  C_21
    2  A    between atoms: C_6  and  N_15
    3  A    between atoms: C_6  and  C_23
                            x       y       z     vdW  Elec       q    Type
                         _______ _______ _______ _____ _____    ______ ____

>  <TORSDO>
F 3

$$$$
