=
 OpenBabel11052423183D

 27 31  0  0  1  0  0  0  0  0999 V2000
  161.7010  209.9820  153.4220 C   0  0  0  0  0  2  0  0  0  0  0  0
  161.5700  210.2950  150.9360 C   0  0  0  0  0  0  0  0  0  0  0  0
  160.1450  212.0580  152.1620 C   0  0  0  0  0  2  0  0  0  0  0  0
  161.5220  213.0210  147.2630 S   0  0  0  0  0  0  0  0  0  0  0  0
  159.0980  214.2660  147.5560 C   0  0  0  0  0  1  0  0  0  0  0  0
  162.2550  209.8970  149.7730 C   0  0  0  0  0  3  0  0  0  0  0  0
  160.2950  213.6170  149.5820 N   0  0  0  0  0  0  0  0  0  0  0  0
  157.4960  213.1110  155.1640 O   0  0  0  0  0  0  0  0  0  0  0  0
  159.7270  214.4470  150.6350 C   0  0  0  0  0  1  0  0  0  0  0  0
  158.3500  212.2700  154.7830 C   0  0  0  0  0  0  0  0  0  0  0  0
  160.9200  212.3460  149.7730 C   0  0  0  0  0  0  0  0  0  0  0  0
  161.5900  209.4110  152.0820 N   0  0  0  0  0  0  0  0  0  0  0  0
  160.4520  214.1550  148.2330 C   0  0  1  0  0  3  0  0  0  0  0  0
  161.5900  211.9090  148.6510 C   0  0  0  0  0  0  0  0  0  0  0  0
  160.3190  210.3030  153.9820 C   0  0  1  0  0  3  0  0  0  0  0  0
  160.8770  211.5480  150.9450 C   0  0  0  0  0  0  0  0  0  0  0  0
  158.1060  211.4780  153.5330 C   0  0  0  0  0  2  0  0  0  0  0  0
  162.2650  210.6960  148.6310 C   0  0  0  0  0  3  0  0  0  0  0  0
  159.5560  212.0420  155.5890 C   0  0  0  0  0  3  0  0  0  0  0  0
  160.4770  211.1530  155.2130 C   0  0  0  0  0  3  0  0  0  0  0  0
  159.4100  210.9590  152.9200 C   0  0  1  0  0  3  0  0  0  0  0  0
  161.1020  205.1990  151.6980 C   0  0  0  0  0  3  0  0  0  0  0  0
  161.4400  207.9800  151.9450 C   0  0  0  0  0  0  0  0  0  0  0  0
  161.1390  207.4030  150.6990 C   0  0  0  0  0  3  0  0  0  0  0  0
  160.9740  206.0210  150.5750 C   0  0  0  0  0  3  0  0  0  0  0  0
  161.3920  205.7590  152.9440 C   0  0  0  0  0  3  0  0  0  0  0  0
  161.5570  207.1420  153.0670 C   0  0  0  0  0  3  0  0  0  0  0  0
  2 16  1  0  0  0  0
  2 12  1  0  0  0  0
  4 13  1  0  0  0  0
  4 14  1  0  0  0  0
  6  2  2  0  0  0  0
  7 11  1  0  0  0  0
  7  9  1  0  0  0  0
 10  8  2  0  0  0  0
 10 19  1  0  0  0  0
 11 16  2  0  0  0  0
 12  1  1  0  0  0  0
 13  5  1  6  0  0  0
 13  7  1  0  0  0  0
 14 11  1  0  0  0  0
 15  1  1  6  0  0  0
 15 20  1  0  0  0  0
 16  3  1  0  0  0  0
 17 10  1  0  0  0  0
 18 14  2  0  0  0  0
 18  6  1  0  0  0  0
 20 19  2  0  0  0  0
 21  3  1  1  0  0  0
 21 17  1  0  0  0  0
 21 15  1  0  0  0  0
 22 26  1  0  0  0  0
 23 12  1  0  0  0  0
 23 27  1  0  0  0  0
 24 23  2  0  0  0  0
 25 24  1  0  0  0  0
 25 22  2  0  0  0  0
 26 27  2  0  0  0  0
M  END
>  <MODEL>
1

>  <REMARK>
 VINA RESULT:      -6.8      0.000      0.000
  Name = 
  1 active torsions:
  status: ('A' for Active; 'I' for Inactive)
    1  A    between atoms: C_9  and  N_15
                            x       y       z     vdW  Elec       q    Type
                         _______ _______ _______ _____ _____    ______ ____

>  <TORSDO>
F 1

$$$$
=
 OpenBabel11052423183D

 27 31  0  0  1  0  0  0  0  0999 V2000
  161.5710  210.0510  153.8290 C   0  0  0  0  0  2  0  0  0  0  0  0
  161.4910  210.3230  151.3360 C   0  0  0  0  0  0  0  0  0  0  0  0
  160.0240  212.0920  152.5030 C   0  0  0  0  0  2  0  0  0  0  0  0
  161.4970  212.9910  147.6200 S   0  0  0  0  0  0  0  0  0  0  0  0
  159.0560  214.2170  147.8420 C   0  0  0  0  0  1  0  0  0  0  0  0
  162.2040  209.9140  150.1930 C   0  0  0  0  0  3  0  0  0  0  0  0
  160.2150  213.6120  149.9020 N   0  0  0  0  0  0  0  0  0  0  0  0
  157.3010  213.1660  155.4300 O   0  0  0  0  0  0  0  0  0  0  0  0
  159.6170  214.4520  150.9300 C   0  0  0  0  0  1  0  0  0  0  0  0
  158.1700  212.3270  155.0810 C   0  0  0  0  0  0  0  0  0  0  0  0
  160.8480  212.3500  150.1260 C   0  0  0  0  0  0  0  0  0  0  0  0
  161.4940  209.4570  152.4960 N   0  0  0  0  0  0  0  0  0  0  0  0
  160.3960  214.1300  148.5490 C   0  0  1  0  0  3  0  0  0  0  0  0
  161.5460  211.9020  149.0270 C   0  0  0  0  0  0  0  0  0  0  0  0
  160.1740  210.3670  154.3530 C   0  0  1  0  0  3  0  0  0  0  0  0
  160.7870  211.5700  151.3100 C   0  0  0  0  0  0  0  0  0  0  0  0
  157.9610  211.5140  153.8390 C   0  0  0  0  0  2  0  0  0  0  0  0
  162.2320  210.6950  149.0400 C   0  0  0  0  0  3  0  0  0  0  0  0
  159.3620  212.1240  155.9160 C   0  0  0  0  0  3  0  0  0  0  0  0
  160.2980  211.2380  155.5740 C   0  0  0  0  0  3  0  0  0  0  0  0
  159.2830  210.9970  153.2620 C   0  0  1  0  0  3  0  0  0  0  0  0
  161.1460  205.2300  152.1280 C   0  0  0  0  0  3  0  0  0  0  0  0
  161.3600  208.0230  152.3770 C   0  0  0  0  0  0  0  0  0  0  0  0
  161.4520  207.1940  153.5080 C   0  0  0  0  0  3  0  0  0  0  0  0
  161.3430  205.8070  153.3850 C   0  0  0  0  0  3  0  0  0  0  0  0
  161.0610  206.0410  150.9940 C   0  0  0  0  0  3  0  0  0  0  0  0
  161.1710  207.4290  151.1180 C   0  0  0  0  0  3  0  0  0  0  0  0
  2 12  1  0  0  0  0
  4 13  1  0  0  0  0
  4 14  1  0  0  0  0
  6  2  2  0  0  0  0
  7 11  1  0  0  0  0
  7  9  1  0  0  0  0
 10  8  2  0  0  0  0
 10 19  1  0  0  0  0
 11 16  2  0  0  0  0
 12  1  1  0  0  0  0
 13  5  1  6  0  0  0
 13  7  1  0  0  0  0
 14 18  2  0  0  0  0
 14 11  1  0  0  0  0
 15  1  1  6  0  0  0
 15 20  1  0  0  0  0
 16  2  1  0  0  0  0
 16  3  1  0  0  0  0
 17 10  1  0  0  0  0
 18  6  1  0  0  0  0
 20 19  2  0  0  0  0
 21  3  1  1  0  0  0
 21 17  1  0  0  0  0
 21 15  1  0  0  0  0
 22 25  1  0  0  0  0
 23 12  1  0  0  0  0
 23 24  1  0  0  0  0
 25 24  2  0  0  0  0
 26 27  1  0  0  0  0
 26 22  2  0  0  0  0
 27 23  2  0  0  0  0
M  END
>  <MODEL>
2

>  <REMARK>
 VINA RESULT:      -6.7      0.389      1.008
  Name = 
  1 active torsions:
  status: ('A' for Active; 'I' for Inactive)
    1  A    between atoms: C_9  and  N_15
                            x       y       z     vdW  Elec       q    Type
                         _______ _______ _______ _____ _____    ______ ____

>  <TORSDO>
F 1

$$$$
=
 OpenBabel11052423183D

 27 31  0  0  1  0  0  0  0  0999 V2000
  160.7200  210.3160  155.0680 C   0  0  0  0  0  2  0  0  0  0  0  0
  160.6320  210.7420  152.5970 C   0  0  0  0  0  0  0  0  0  0  0  0
  158.8300  212.1110  153.8320 C   0  0  0  0  0  2  0  0  0  0  0  0
  160.1860  213.6150  149.0650 S   0  0  0  0  0  0  0  0  0  0  0  0
  157.5510  214.3320  149.2920 C   0  0  0  0  0  1  0  0  0  0  0  0
  161.4300  210.5580  151.4530 C   0  0  0  0  0  3  0  0  0  0  0  0
  158.7690  213.8170  151.3430 N   0  0  0  0  0  0  0  0  0  0  0  0
  155.9010  212.4360  156.7390 O   0  0  0  0  0  0  0  0  0  0  0  0
  158.0020  214.4530  152.4040 C   0  0  0  0  0  1  0  0  0  0  0  0
  156.9220  211.8050  156.3620 C   0  0  0  0  0  0  0  0  0  0  0  0
  159.6300  212.6870  151.5030 C   0  0  0  0  0  0  0  0  0  0  0  0
  160.7820  209.8140  153.6980 N   0  0  0  0  0  0  0  0  0  0  0  0
  158.8700  214.4530  150.0320 C   0  0  1  0  0  3  0  0  0  0  0  0
  160.4200  212.4590  150.3990 C   0  0  0  0  0  0  0  0  0  0  0  0
  159.2790  210.3210  155.5690 C   0  0  1  0  0  3  0  0  0  0  0  0
  159.7000  211.8290  152.6310 C   0  0  0  0  0  0  0  0  0  0  0  0
  156.8950  211.0560  155.0630 C   0  0  0  0  0  2  0  0  0  0  0  0
  161.3260  211.4080  150.3540 C   0  0  0  0  0  3  0  0  0  0  0  0
  158.1150  211.7760  157.2180 C   0  0  0  0  0  3  0  0  0  0  0  0
  159.2110  211.1130  156.8480 C   0  0  0  0  0  3  0  0  0  0  0  0
  158.3020  210.8440  154.4950 C   0  0  1  0  0  3  0  0  0  0  0  0
  161.2660  205.6330  153.0530 C   0  0  0  0  0  3  0  0  0  0  0  0
  160.9300  208.3930  153.4820 C   0  0  0  0  0  0  0  0  0  0  0  0
  160.9320  207.4950  154.5630 C   0  0  0  0  0  3  0  0  0  0  0  0
  161.0960  206.1240  154.3510 C   0  0  0  0  0  3  0  0  0  0  0  0
  161.2750  206.5140  151.9700 C   0  0  0  0  0  3  0  0  0  0  0  0
  161.1110  207.8860  152.1830 C   0  0  0  0  0  3  0  0  0  0  0  0
  2 16  1  0  0  0  0
  2 12  1  0  0  0  0
  4 13  1  0  0  0  0
  4 14  1  0  0  0  0
  6  2  2  0  0  0  0
  7 11  1  0  0  0  0
  7  9  1  0  0  0  0
 10  8  2  0  0  0  0
 10 19  1  0  0  0  0
 11 16  2  0  0  0  0
 12  1  1  0  0  0  0
 13  5  1  6  0  0  0
 13  7  1  0  0  0  0
 14 11  1  0  0  0  0
 15  1  1  6  0  0  0
 15 20  1  0  0  0  0
 16  3  1  0  0  0  0
 17 10  1  0  0  0  0
 18 14  2  0  0  0  0
 18  6  1  0  0  0  0
 20 19  2  0  0  0  0
 21  3  1  1  0  0  0
 21 17  1  0  0  0  0
 21 15  1  0  0  0  0
 22 25  1  0  0  0  0
 23 12  1  0  0  0  0
 23 24  1  0  0  0  0
 25 24  2  0  0  0  0
 26 27  1  0  0  0  0
 26 22  2  0  0  0  0
 27 23  2  0  0  0  0
M  END
>  <MODEL>
3

>  <REMARK>
 VINA RESULT:      -5.7      1.578      2.225
  Name = 
  1 active torsions:
  status: ('A' for Active; 'I' for Inactive)
    1  A    between atoms: C_9  and  N_15
                            x       y       z     vdW  Elec       q    Type
                         _______ _______ _______ _____ _____    ______ ____

>  <TORSDO>
F 1

$$$$
=
 OpenBabel11052423183D

 27 31  0  0  1  0  0  0  0  0999 V2000
  162.7760  209.1830  149.2010 C   0  0  0  0  0  2  0  0  0  0  0  0
  161.7480  209.8260  151.3970 C   0  0  0  0  0  0  0  0  0  0  0  0
  161.5170  207.2930  150.9790 C   0  0  0  0  0  2  0  0  0  0  0  0
  161.0090  209.0120  155.8370 S   0  0  0  0  0  0  0  0  0  0  0  0
  159.3860  206.8090  155.7120 C   0  0  0  0  0  1  0  0  0  0  0  0
  161.7560  210.9000  152.3060 C   0  0  0  0  0  3  0  0  0  0  0  0
  161.0560  207.0920  153.9550 N   0  0  0  0  0  0  0  0  0  0  0  0
  160.7380  204.1040  148.4570 O   0  0  0  0  0  0  0  0  0  0  0  0
  161.2290  205.7630  153.3850 C   0  0  0  0  0  1  0  0  0  0  0  0
  161.0810  205.3120  148.5250 C   0  0  0  0  0  0  0  0  0  0  0  0
  161.3070  208.3250  153.2770 C   0  0  0  0  0  0  0  0  0  0  0  0
  161.9720  210.1090  149.9950 N   0  0  0  0  0  0  0  0  0  0  0  0
  160.8020  207.2460  155.3840 C   0  0  1  0  0  3  0  0  0  0  0  0
  161.3080  209.4090  154.1280 C   0  0  0  0  0  0  0  0  0  0  0  0
  161.8960  208.0900  148.6030 C   0  0  1  0  0  3  0  0  0  0  0  0
  161.5130  208.5000  151.8850 C   0  0  0  0  0  0  0  0  0  0  0  0
  160.1350  206.3220  149.1030 C   0  0  0  0  0  2  0  0  0  0  0  0
  161.5340  210.6980  153.6660 C   0  0  0  0  0  3  0  0  0  0  0  0
  162.3880  205.7270  147.9980 C   0  0  0  0  0  3  0  0  0  0  0  0
  162.7780  207.0020  148.0520 C   0  0  0  0  0  3  0  0  0  0  0  0
  160.8680  207.5610  149.6260 C   0  0  1  0  0  3  0  0  0  0  0  0
  160.2410  213.4990  148.0870 C   0  0  0  0  0  3  0  0  0  0  0  0
  161.3720  211.2500  149.3420 C   0  0  0  0  0  0  0  0  0  0  0  0
  161.4800  211.4240  147.9520 C   0  0  0  0  0  3  0  0  0  0  0  0
  160.9160  212.5400  147.3280 C   0  0  0  0  0  3  0  0  0  0  0  0
  160.1330  213.3420  149.4710 C   0  0  0  0  0  3  0  0  0  0  0  0
  160.6980  212.2260  150.0950 C   0  0  0  0  0  3  0  0  0  0  0  0
  1 12  1  0  0  0  0
  2 16  2  0  0  0  0
  2  6  1  0  0  0  0
  3 16  1  0  0  0  0
  6 18  2  0  0  0  0
  7 13  1  0  0  0  0
  8 10  2  0  0  0  0
  9  7  1  0  0  0  0
 10 17  1  0  0  0  0
 11  7  1  0  0  0  0
 11 14  2  0  0  0  0
 12  2  1  0  0  0  0
 13  5  1  6  0  0  0
 13  4  1  0  0  0  0
 14  4  1  0  0  0  0
 15 20  1  1  0  0  0
 15  1  1  0  0  0  0
 15 21  1  0  0  0  0
 16 11  1  0  0  0  0
 18 14  1  0  0  0  0
 19 20  2  0  0  0  0
 19 10  1  0  0  0  0
 21 17  1  6  0  0  0
 21  3  1  0  0  0  0
 22 26  1  0  0  0  0
 23 12  1  0  0  0  0
 23 27  1  0  0  0  0
 24 23  2  0  0  0  0
 25 24  1  0  0  0  0
 25 22  2  0  0  0  0
 26 27  2  0  0  0  0
M  END
>  <MODEL>
4

>  <REMARK>
 VINA RESULT:      -5.2      3.420      7.263
  Name = 
  1 active torsions:
  status: ('A' for Active; 'I' for Inactive)
    1  A    between atoms: C_9  and  N_15
                            x       y       z     vdW  Elec       q    Type
                         _______ _______ _______ _____ _____    ______ ____

>  <TORSDO>
F 1

$$$$
=
 OpenBabel11052423183D

 27 31  0  0  1  0  0  0  0  0999 V2000
  159.4770  212.9170  154.3570 C   0  0  0  0  0  2  0  0  0  0  0  0
  159.5870  210.4190  154.5600 C   0  0  0  0  0  0  0  0  0  0  0  0
  160.1760  211.1750  152.1670 C   0  0  0  0  0  2  0  0  0  0  0  0
  161.6490  206.4380  153.6530 S   0  0  0  0  0  0  0  0  0  0  0  0
  161.2020  206.2090  150.9590 C   0  0  0  0  0  1  0  0  0  0  0  0
  159.6490  209.4310  155.5600 C   0  0  0  0  0  3  0  0  0  0  0  0
  161.4500  208.4540  151.8830 N   0  0  0  0  0  0  0  0  0  0  0  0
  159.5080  213.5960  148.8760 O   0  0  0  0  0  0  0  0  0  0  0  0
  161.8000  209.2910  150.7450 C   0  0  0  0  0  1  0  0  0  0  0  0
  159.3360  213.4600  150.1140 C   0  0  0  0  0  0  0  0  0  0  0  0
  160.8110  208.9050  153.0800 C   0  0  0  0  0  0  0  0  0  0  0  0
  158.9190  211.6670  154.8660 N   0  0  0  0  0  0  0  0  0  0  0  0
  161.9400  207.0810  151.9580 C   0  0  1  0  0  3  0  0  0  0  0  0
  160.8340  207.9610  154.0830 C   0  0  0  0  0  0  0  0  0  0  0  0
  158.9200  213.2250  152.9710 C   0  0  1  0  0  3  0  0  0  0  0  0
  160.1760  210.1570  153.2810 C   0  0  0  0  0  0  0  0  0  0  0  0
  158.5250  212.3080  150.6290 C   0  0  0  0  0  2  0  0  0  0  0  0
  160.2660  208.2040  155.3260 C   0  0  0  0  0  3  0  0  0  0  0  0
  159.8960  214.4530  151.0400 C   0  0  0  0  0  3  0  0  0  0  0  0
  159.7260  214.3380  152.3580 C   0  0  0  0  0  3  0  0  0  0  0  0
  158.8750  211.9640  152.0810 C   0  0  1  0  0  3  0  0  0  0  0  0
  155.2540  211.8220  157.0270 C   0  0  0  0  0  3  0  0  0  0  0  0
  157.6800  211.7060  155.6090 C   0  0  0  0  0  0  0  0  0  0  0  0
  156.6710  210.7570  155.3790 C   0  0  0  0  0  3  0  0  0  0  0  0
  155.4660  210.8120  156.0850 C   0  0  0  0  0  3  0  0  0  0  0  0
  156.2450  212.7780  157.2600 C   0  0  0  0  0  3  0  0  0  0  0  0
  157.4500  212.7220  156.5530 C   0  0  0  0  0  3  0  0  0  0  0  0
  1 12  1  0  0  0  0
  2 12  1  0  0  0  0
  2  6  1  0  0  0  0
  3 16  1  0  0  0  0
  4 14  1  0  0  0  0
  7 13  1  0  0  0  0
  7 11  1  0  0  0  0
  8 10  2  0  0  0  0
  9  7  1  0  0  0  0
 10 17  1  0  0  0  0
 10 19  1  0  0  0  0
 11 16  1  0  0  0  0
 11 14  2  0  0  0  0
 12 23  1  0  0  0  0
 13  5  1  6  0  0  0
 13  4  1  0  0  0  0
 14 18  1  0  0  0  0
 15 20  1  6  0  0  0
 15  1  1  0  0  0  0
 16  2  2  0  0  0  0
 18  6  2  0  0  0  0
 19 20  2  0  0  0  0
 21 17  1  6  0  0  0
 21  3  1  0  0  0  0
 21 15  1  0  0  0  0
 22 26  1  0  0  0  0
 23 27  1  0  0  0  0
 24 23  2  0  0  0  0
 24 25  1  0  0  0  0
 25 22  2  0  0  0  0
 27 26  2  0  0  0  0
M  END
>  <MODEL>
5

>  <REMARK>
 VINA RESULT:      -5.0      2.939      6.368
  Name = 
  1 active torsions:
  status: ('A' for Active; 'I' for Inactive)
    1  A    between atoms: C_9  and  N_15
                            x       y       z     vdW  Elec       q    Type
                         _______ _______ _______ _____ _____    ______ ____

>  <TORSDO>
F 1

$$$$
=
 OpenBabel11052423183D

 27 31  0  0  1  0  0  0  0  0999 V2000
  160.4630  214.0110  138.9760 C   0  0  0  0  0  2  0  0  0  0  0  0
  159.9230  213.4340  141.3570 C   0  0  0  0  0  0  0  0  0  0  0  0
  162.4620  213.7450  141.0380 C   0  0  0  0  0  2  0  0  0  0  0  0
  160.5590  214.0470  145.8450 S   0  0  0  0  0  0  0  0  0  0  0  0
  163.0890  213.0450  146.1660 C   0  0  0  0  0  1  0  0  0  0  0  0
  158.8140  213.3990  142.2220 C   0  0  0  0  0  3  0  0  0  0  0  0
  162.5470  214.1020  144.0340 N   0  0  0  0  0  0  0  0  0  0  0  0
  165.9230  213.1840  138.8360 O   0  0  0  0  0  0  0  0  0  0  0  0
  163.8340  214.4530  143.4520 C   0  0  0  0  0  1  0  0  0  0  0  0
  164.6660  213.2210  138.8010 C   0  0  0  0  0  0  0  0  0  0  0  0
  161.3430  213.8620  143.3020 C   0  0  0  0  0  0  0  0  0  0  0  0
  159.6990  213.2250  139.9420 N   0  0  0  0  0  0  0  0  0  0  0  0
  162.3530  214.1810  145.4790 C   0  0  1  0  0  3  0  0  0  0  0  0
  160.2300  213.8040  144.1120 C   0  0  0  0  0  0  0  0  0  0  0  0
  161.7760  213.3110  138.6370 C   0  0  1  0  0  3  0  0  0  0  0  0
  161.2270  213.6650  141.9020 C   0  0  0  0  0  0  0  0  0  0  0  0
  163.8710  212.2270  139.5940 C   0  0  0  0  0  2  0  0  0  0  0  0
  158.9620  213.5800  143.5950 C   0  0  0  0  0  3  0  0  0  0  0  0
  163.9910  214.2110  137.9500 C   0  0  0  0  0  3  0  0  0  0  0  0
  162.6610  214.2710  137.8880 C   0  0  0  0  0  3  0  0  0  0  0  0
  162.4570  212.7350  139.8970 C   0  0  1  0  0  3  0  0  0  0  0  0
  157.0020  210.2380  138.5530 C   0  0  0  0  0  3  0  0  0  0  0  0
  158.7860  212.2170  139.4540 C   0  0  0  0  0  0  0  0  0  0  0  0
  157.4740  212.5530  139.0800 C   0  0  0  0  0  3  0  0  0  0  0  0
  156.5880  211.5710  138.6290 C   0  0  0  0  0  3  0  0  0  0  0  0
  158.3010  209.8890  138.9290 C   0  0  0  0  0  3  0  0  0  0  0  0
  159.1870  210.8720  139.3800 C   0  0  0  0  0  3  0  0  0  0  0  0
  1 12  1  0  0  0  0
  2 16  2  0  0  0  0
  2  6  1  0  0  0  0
  3 16  1  0  0  0  0
  6 18  2  0  0  0  0
  7 13  1  0  0  0  0
  9  7  1  0  0  0  0
 10  8  2  0  0  0  0
 10 17  1  0  0  0  0
 11  7  1  0  0  0  0
 11 14  2  0  0  0  0
 12  2  1  0  0  0  0
 13  4  1  0  0  0  0
 13  5  1  1  0  0  0
 14  4  1  0  0  0  0
 15 20  1  1  0  0  0
 15  1  1  0  0  0  0
 15 21  1  0  0  0  0
 16 11  1  0  0  0  0
 18 14  1  0  0  0  0
 19 10  1  0  0  0  0
 20 19  2  0  0  0  0
 21 17  1  6  0  0  0
 21  3  1  0  0  0  0
 22 25  2  0  0  0  0
 22 26  1  0  0  0  0
 23 12  1  0  0  0  0
 24 23  2  0  0  0  0
 25 24  1  0  0  0  0
 26 27  2  0  0  0  0
 27 23  1  0  0  0  0
M  END
>  <MODEL>
6

>  <REMARK>
 VINA RESULT:      -5.0      8.402     12.449
  Name = 
  1 active torsions:
  status: ('A' for Active; 'I' for Inactive)
    1  A    between atoms: C_9  and  N_15
                            x       y       z     vdW  Elec       q    Type
                         _______ _______ _______ _____ _____    ______ ____

>  <TORSDO>
F 1

$$$$
=
 OpenBabel11052423183D

 27 31  0  0  1  0  0  0  0  0999 V2000
  162.4090  206.5990  153.1120 C   0  0  0  0  0  2  0  0  0  0  0  0
  161.9410  207.7060  150.9090 C   0  0  0  0  0  0  0  0  0  0  0  0
  161.1590  209.1870  152.8680 C   0  0  0  0  0  2  0  0  0  0  0  0
  161.8840  211.4340  148.2590 S   0  0  0  0  0  0  0  0  0  0  0  0
  159.8740  212.8860  149.4250 C   0  0  0  0  0  1  0  0  0  0  0  0
  162.3200  207.5980  149.5580 C   0  0  0  0  0  3  0  0  0  0  0  0
  161.2180  211.4440  150.8650 N   0  0  0  0  0  0  0  0  0  0  0  0
  159.3370  209.6300  156.5590 O   0  0  0  0  0  0  0  0  0  0  0  0
  161.0270  211.9730  152.2080 C   0  0  0  0  0  1  0  0  0  0  0  0
  159.9110  208.8310  155.7760 C   0  0  0  0  0  0  0  0  0  0  0  0
  161.5720  210.0970  150.5450 C   0  0  0  0  0  0  0  0  0  0  0  0
  161.9560  206.5110  151.7260 N   0  0  0  0  0  0  0  0  0  0  0  0
  161.2640  212.3520  149.7220 C   0  0  1  0  0  3  0  0  0  0  0  0
  161.9360  209.9410  149.2260 C   0  0  0  0  0  0  0  0  0  0  0  0
  161.2420  206.9380  154.0340 C   0  0  1  0  0  3  0  0  0  0  0  0
  161.5500  208.9830  151.4250 C   0  0  0  0  0  0  0  0  0  0  0  0
  159.2970  208.5290  154.4410 C   0  0  0  0  0  2  0  0  0  0  0  0
  162.3160  208.7070  148.7150 C   0  0  0  0  0  3  0  0  0  0  0  0
  161.1550  208.1710  156.1940 C   0  0  0  0  0  3  0  0  0  0  0  0
  161.7840  207.3150  155.3870 C   0  0  0  0  0  3  0  0  0  0  0  0
  160.3360  208.0340  153.4310 C   0  0  1  0  0  3  0  0  0  0  0  0
  160.5820  202.7670  150.2340 C   0  0  0  0  0  3  0  0  0  0  0  0
  161.4750  205.2420  151.2290 C   0  0  0  0  0  0  0  0  0  0  0  0
  161.5070  204.0920  152.0360 C   0  0  0  0  0  3  0  0  0  0  0  0
  161.0610  202.8630  151.5430 C   0  0  0  0  0  3  0  0  0  0  0  0
  160.5520  203.9000  149.4180 C   0  0  0  0  0  3  0  0  0  0  0  0
  160.9990  205.1290  149.9110 C   0  0  0  0  0  3  0  0  0  0  0  0
  2 16  1  0  0  0  0
  2 12  1  0  0  0  0
  4 14  1  0  0  0  0
  4 13  1  0  0  0  0
  6  2  2  0  0  0  0
  7  9  1  0  0  0  0
 10 19  1  0  0  0  0
 10  8  2  0  0  0  0
 11  7  1  0  0  0  0
 11 16  2  0  0  0  0
 12  1  1  0  0  0  0
 13  5  1  6  0  0  0
 13  7  1  0  0  0  0
 14 11  1  0  0  0  0
 15  1  1  6  0  0  0
 15 20  1  0  0  0  0
 16  3  1  0  0  0  0
 17 10  1  0  0  0  0
 18 14  2  0  0  0  0
 18  6  1  0  0  0  0
 20 19  2  0  0  0  0
 21  3  1  1  0  0  0
 21 15  1  0  0  0  0
 21 17  1  0  0  0  0
 22 25  1  0  0  0  0
 23 12  1  0  0  0  0
 23 24  1  0  0  0  0
 25 24  2  0  0  0  0
 26 27  1  0  0  0  0
 26 22  2  0  0  0  0
 27 23  2  0  0  0  0
M  END
>  <MODEL>
7

>  <REMARK>
 VINA RESULT:      -4.5      2.010      3.153
  Name = 
  1 active torsions:
  status: ('A' for Active; 'I' for Inactive)
    1  A    between atoms: C_9  and  N_15
                            x       y       z     vdW  Elec       q    Type
                         _______ _______ _______ _____ _____    ______ ____

>  <TORSDO>
F 1

$$$$
=
 OpenBabel11052423183D

 27 31  0  0  1  0  0  0  0  0999 V2000
  161.0660  213.7850  150.6910 C   0  0  0  0  0  2  0  0  0  0  0  0
  160.4670  211.5050  151.5490 C   0  0  0  0  0  0  0  0  0  0  0  0
  161.5130  211.3580  149.1980 C   0  0  0  0  0  2  0  0  0  0  0  0
  161.4570  207.0740  152.1070 S   0  0  0  0  0  0  0  0  0  0  0  0
  161.2800  206.1600  149.5290 C   0  0  0  0  0  1  0  0  0  0  0  0
  160.1420  210.8720  152.7630 C   0  0  0  0  0  3  0  0  0  0  0  0
  162.0220  208.4600  149.8720 N   0  0  0  0  0  0  0  0  0  0  0  0
  161.9160  212.7730  145.3280 O   0  0  0  0  0  0  0  0  0  0  0  0
  162.7160  208.8170  148.6430 C   0  0  0  0  0  1  0  0  0  0  0  0
  161.5710  213.0550  146.5040 C   0  0  0  0  0  0  0  0  0  0  0  0
  161.3950  209.3800  150.7690 C   0  0  0  0  0  0  0  0  0  0  0  0
  160.1340  212.9050  151.3910 N   0  0  0  0  0  0  0  0  0  0  0  0
  162.1070  207.0980  150.3900 C   0  0  1  0  0  3  0  0  0  0  0  0
  161.0440  208.7990  151.9670 C   0  0  0  0  0  0  0  0  0  0  0  0
  160.7790  213.7840  149.1930 C   0  0  1  0  0  3  0  0  0  0  0  0
  161.1060  210.7460  150.5160 C   0  0  0  0  0  0  0  0  0  0  0  0
  160.4230  212.3260  147.1370 C   0  0  0  0  0  2  0  0  0  0  0  0
  160.4240  209.5240  152.9750 C   0  0  0  0  0  3  0  0  0  0  0  0
  162.2700  214.1240  147.2310 C   0  0  0  0  0  3  0  0  0  0  0  0
  161.9240  214.4480  148.4770 C   0  0  0  0  0  3  0  0  0  0  0  0
  160.4950  212.3600  148.6670 C   0  0  1  0  0  3  0  0  0  0  0  0
  156.4050  214.4520  152.7410 C   0  0  0  0  0  3  0  0  0  0  0  0
  158.8750  213.4450  151.8510 C   0  0  0  0  0  0  0  0  0  0  0  0
  158.6660  213.7300  153.2110 C   0  0  0  0  0  3  0  0  0  0  0  0
  157.4400  214.2330  153.6530 C   0  0  0  0  0  3  0  0  0  0  0  0
  156.5950  214.1670  151.3880 C   0  0  0  0  0  3  0  0  0  0  0  0
  157.8220  213.6630  150.9460 C   0  0  0  0  0  3  0  0  0  0  0  0
  1 12  1  0  0  0  0
  2  6  1  0  0  0  0
  3 16  1  0  0  0  0
  6 18  2  0  0  0  0
  7 13  1  0  0  0  0
  7 11  1  0  0  0  0
  8 10  2  0  0  0  0
  9  7  1  0  0  0  0
 10 17  1  0  0  0  0
 10 19  1  0  0  0  0
 11 14  2  0  0  0  0
 12  2  1  0  0  0  0
 12 23  1  0  0  0  0
 13  5  1  6  0  0  0
 13  4  1  0  0  0  0
 14  4  1  0  0  0  0
 14 18  1  0  0  0  0
 15 20  1  6  0  0  0
 15  1  1  0  0  0  0
 16 11  1  0  0  0  0
 16  2  2  0  0  0  0
 19 20  2  0  0  0  0
 21 17  1  6  0  0  0
 21 15  1  0  0  0  0
 21  3  1  0  0  0  0
 22 25  1  0  0  0  0
 23 24  1  0  0  0  0
 24 25  2  0  0  0  0
 26 22  2  0  0  0  0
 27 26  1  0  0  0  0
 27 23  2  0  0  0  0
M  END
>  <MODEL>
8

>  <REMARK>
 VINA RESULT:      -4.0      3.088      6.856
  Name = 
  1 active torsions:
  status: ('A' for Active; 'I' for Inactive)
    1  A    between atoms: C_9  and  N_15
                            x       y       z     vdW  Elec       q    Type
                         _______ _______ _______ _____ _____    ______ ____

>  <TORSDO>
F 1

$$$$
=
 OpenBabel11052423183D

 27 31  0  0  1  0  0  0  0  0999 V2000
  159.8570  214.4530  150.4280 C   0  0  0  0  0  2  0  0  0  0  0  0
  159.0000  212.7320  152.0400 C   0  0  0  0  0  0  0  0  0  0  0  0
  161.1500  211.9140  150.8780 C   0  0  0  0  0  2  0  0  0  0  0  0
  159.7450  209.6050  155.2950 S   0  0  0  0  0  0  0  0  0  0  0  0
  161.0220  207.6450  153.8680 C   0  0  0  0  0  1  0  0  0  0  0  0
  158.1040  212.6340  153.1220 C   0  0  0  0  0  3  0  0  0  0  0  0
  161.3540  209.9600  153.1690 N   0  0  0  0  0  0  0  0  0  0  0  0
  163.4980  211.5160  147.4910 O   0  0  0  0  0  0  0  0  0  0  0  0
  162.5810  209.9430  152.3860 C   0  0  0  0  0  1  0  0  0  0  0  0
  162.5630  212.1580  148.0350 C   0  0  0  0  0  0  0  0  0  0  0  0
  160.3010  210.9190  153.0420 C   0  0  0  0  0  0  0  0  0  0  0  0
  158.7380  213.7210  151.0160 N   0  0  0  0  0  0  0  0  0  0  0  0
  161.2120  209.0800  154.3260 C   0  0  1  0  0  3  0  0  0  0  0  0
  159.3900  210.8490  154.0720 C   0  0  0  0  0  0  0  0  0  0  0  0
  160.4180  213.6950  149.2290 C   0  0  1  0  0  3  0  0  0  0  0  0
  160.1280  211.8520  151.9870 C   0  0  0  0  0  0  0  0  0  0  0  0
  161.2910  211.4520  148.3990 C   0  0  0  0  0  2  0  0  0  0  0  0
  158.2920  211.6960  154.1340 C   0  0  0  0  0  3  0  0  0  0  0  0
  162.7110  213.6010  148.2680 C   0  0  0  0  0  3  0  0  0  0  0  0
  161.7360  214.3090  148.8380 C   0  0  0  0  0  3  0  0  0  0  0  0
  160.5290  212.1810  149.5110 C   0  0  1  0  0  3  0  0  0  0  0  0
  154.8050  214.3830  149.5250 C   0  0  0  0  0  3  0  0  0  0  0  0
  157.4050  213.9630  150.5130 C   0  0  0  0  0  0  0  0  0  0  0  0
  156.3420  214.2410  151.3890 C   0  0  0  0  0  3  0  0  0  0  0  0
  155.0510  214.4530  150.8990 C   0  0  0  0  0  3  0  0  0  0  0  0
  155.8500  214.1000  148.6430 C   0  0  0  0  0  3  0  0  0  0  0  0
  157.1410  213.8870  149.1350 C   0  0  0  0  0  3  0  0  0  0  0  0
  1 12  1  0  0  0  0
  2  6  1  0  0  0  0
  3 16  1  0  0  0  0
  6 18  2  0  0  0  0
  7 13  1  0  0  0  0
  8 10  2  0  0  0  0
  9  7  1  0  0  0  0
 10 19  1  0  0  0  0
 10 17  1  0  0  0  0
 11  7  1  0  0  0  0
 11 14  2  0  0  0  0
 12  2  1  0  0  0  0
 13  5  1  6  0  0  0
 13  4  1  0  0  0  0
 14 18  1  0  0  0  0
 14  4  1  0  0  0  0
 15 20  1  1  0  0  0
 15 21  1  0  0  0  0
 15  1  1  0  0  0  0
 16  2  2  0  0  0  0
 16 11  1  0  0  0  0
 19 20  2  0  0  0  0
 21 17  1  6  0  0  0
 21  3  1  0  0  0  0
 22 25  1  0  0  0  0
 23 12  1  0  0  0  0
 23 24  1  0  0  0  0
 25 24  2  0  0  0  0
 26 27  1  0  0  0  0
 26 22  2  0  0  0  0
 27 23  2  0  0  0  0
M  END
>  <MODEL>
9

>  <REMARK>
 VINA RESULT:      -4.0      3.240      7.255
  Name = 
  1 active torsions:
  status: ('A' for Active; 'I' for Inactive)
    1  A    between atoms: C_9  and  N_15
                            x       y       z     vdW  Elec       q    Type
                         _______ _______ _______ _____ _____    ______ ____

>  <TORSDO>
F 1

$$$$
