=
 OpenBabel11052422283D

 31 35  0  0  1  0  0  0  0  0999 V2000
  160.7590  208.1050  154.4670 C   0  0  0  0  0  0  0  0  0  0  0  0
  161.4110  207.5610  150.8410 C   0  0  0  0  0  0  0  0  0  0  0  0
  160.9340  206.1280  150.6620 C   0  0  0  0  0  0  0  0  0  0  0  0
  161.5580  203.8200  151.3130 C   0  0  0  0  0  3  0  0  0  0  0  0
  161.4060  208.1690  152.0480 C   0  0  0  0  0  0  0  0  0  0  0  0
  160.4430  209.8690  154.5070 S   0  0  0  0  0  0  0  0  0  0  0  0
  161.5690  205.1280  151.6000 C   0  0  0  0  0  3  0  0  0  0  0  0
  162.0750  209.7610  149.7970 N   0  0  0  0  0  0  0  0  0  0  0  0
  160.7850  207.4480  155.5390 O   0  0  0  0  0  0  0  0  0  0  0  0
  161.2660  206.4240  148.2070 C   0  0  0  0  0  3  0  0  0  0  0  0
  160.8450  201.6100  149.7560 Cl  0  0  0  0  0  0  0  0  0  0  0  0
  162.1400  210.3210  151.1110 C   0  0  0  0  0  3  0  0  0  0  0  0
  161.7090  208.3770  149.6320 C   0  0  0  0  0  0  0  0  0  0  0  0
  160.9970  207.4500  153.2210 N   0  0  0  0  0  2  0  0  0  0  0  0
  161.0330  203.3290  150.0180 C   0  0  0  0  0  0  0  0  0  0  0  0
  161.8210  209.5950  152.1830 C   0  0  0  0  0  0  0  0  0  0  0  0
  161.9390  210.2200  153.5360 C   0  0  0  0  0  2  0  0  0  0  0  0
  161.6090  207.8380  148.4100 C   0  0  0  0  0  3  0  0  0  0  0  0
  160.9930  205.6220  149.2350 C   0  0  0  0  0  0  0  0  0  0  0  0
  160.8070  204.1810  149.0110 C   0  0  0  0  0  2  0  0  0  0  0  0
  162.4600  210.5990  148.6670 C   0  0  0  0  0  2  0  0  0  0  0  0
  158.1060  214.3310  147.3720 C   0  0  1  0  0  3  0  0  0  0  0  0
  160.7840  211.7020  147.1370 N   0  0  0  0  0  2  0  0  0  0  0  0
  158.2540  213.6550  145.0120 C   0  0  0  0  0  2  0  0  0  0  0  0
  161.0980  212.4240  149.3470 O   0  0  0  0  0  0  0  0  0  0  0  0
  157.2400  214.4530  148.5300 N   0  0  0  0  0  1  0  0  0  0  0  0
  161.4210  211.6370  148.4180 C   0  0  0  0  0  0  0  0  0  0  0  0
  159.1770  213.3730  147.6570 N   0  0  0  0  0  0  0  0  0  0  0  0
  159.1740  212.4920  145.3690 C   0  0  0  0  0  2  0  0  0  0  0  0
  159.7270  212.5950  146.7670 C   0  0  0  0  0  0  0  0  0  0  0  0
  157.2910  213.9140  146.1560 C   0  0  0  0  0  2  0  0  0  0  0  0
  1  6  1  0  0  0  0
  1  9  2  0  0  0  0
  2  5  2  0  0  0  0
  3  2  1  0  0  0  0
  3  7  2  0  0  0  0
  4  7  1  0  0  0  0
  5 16  1  0  0  0  0
  5 14  1  0  0  0  0
  8 12  1  0  0  0  0
 10 18  1  0  0  0  0
 10 19  2  0  0  0  0
 11 15  1  0  0  0  0
 12 16  2  0  0  0  0
 13  8  1  0  0  0  0
 13  2  1  0  0  0  0
 14  1  1  0  0  0  0
 15  4  2  0  0  0  0
 16 17  1  0  0  0  0
 17  6  1  0  0  0  0
 18 13  2  0  0  0  0
 19  3  1  0  0  0  0
 20 19  1  0  0  0  0
 20 15  1  0  0  0  0
 21  8  1  0  0  0  0
 22 28  1  0  0  0  0
 22 26  1  1  0  0  0
 23 27  1  0  0  0  0
 24 29  1  0  0  0  0
 24 31  1  0  0  0  0
 27 21  1  0  0  0  0
 27 25  2  0  0  0  0
 29 30  1  0  0  0  0
 30 23  1  0  0  0  0
 30 28  2  0  0  0  0
 31 22  1  0  0  0  0
M  END
>  <MODEL>
1

>  <REMARK>
 VINA RESULT:     -10.3      0.000      0.000
  Name = 
  2 active torsions:
  status: ('A' for Active; 'I' for Inactive)
    1  A    between atoms: C_9  and  C_23
    2  A    between atoms: N_15  and  C_23
                            x       y       z     vdW  Elec       q    Type
                         _______ _______ _______ _____ _____    ______ ____

>  <TORSDO>
F 2

$$$$
=
 OpenBabel11052422283D

 31 35  0  0  1  0  0  0  0  0999 V2000
  161.9580  210.2840  149.5150 C   0  0  0  0  0  0  0  0  0  0  0  0
  161.3480  208.1490  152.5050 C   0  0  0  0  0  0  0  0  0  0  0  0
  160.8650  209.1780  153.5150 C   0  0  2  0  0  3  0  0  0  0  0  0
  161.7140  211.1000  154.8280 C   0  0  0  0  0  3  0  0  0  0  0  0
  161.7430  208.5010  151.2620 C   0  0  0  0  0  0  0  0  0  0  0  0
  161.6430  209.1260  148.1850 S   0  0  0  0  0  0  0  0  0  0  0  0
  161.7990  210.3470  153.7240 C   0  0  0  0  0  3  0  0  0  0  0  0
  161.5770  205.7270  151.8330 N   0  0  0  0  0  0  0  0  0  0  0  0
  162.3590  211.4480  149.2530 O   0  0  0  0  0  0  0  0  0  0  0  0
  160.3370  207.2840  155.0500 C   0  0  0  0  0  3  0  0  0  0  0  0
  160.5550  211.8460  157.2600 Cl  0  0  0  0  0  0  0  0  0  0  0  0
  162.0760  206.1660  150.5660 C   0  0  0  0  0  3  0  0  0  0  0  0
  161.2030  206.7020  152.8240 C   0  0  0  0  0  0  0  0  0  0  0  0
  161.7700  209.8820  150.8720 N   0  0  0  0  0  2  0  0  0  0  0  0
  160.7900  210.7380  155.9270 C   0  0  0  0  0  0  0  0  0  0  0  0
  162.1530  207.4640  150.2720 C   0  0  0  0  0  0  0  0  0  0  0  0
  162.7130  207.8690  148.9450 C   0  0  0  0  0  2  0  0  0  0  0  0
  160.7020  206.3170  154.0060 C   0  0  0  0  0  3  0  0  0  0  0  0
  160.4440  208.5960  154.8500 C   0  0  0  0  0  0  0  0  0  0  0  0
  160.2190  209.5280  155.9630 C   0  0  0  0  0  3  0  0  0  0  0  0
  161.5400  204.2940  152.1030 C   0  0  0  0  0  2  0  0  0  0  0  0
  160.7220  201.5990  146.9430 C   0  0  1  0  0  3  0  0  0  0  0  0
  161.3980  204.1870  149.5870 N   0  0  0  0  0  2  0  0  0  0  0  0
  160.9620  203.7630  145.7970 C   0  0  0  0  0  2  0  0  0  0  0  0
  160.8490  202.3450  150.9320 O   0  0  0  0  0  0  0  0  0  0  0  0
  161.2150  200.2380  147.0460 N   0  0  0  0  0  1  0  0  0  0  0  0
  161.2300  203.5430  150.8550 C   0  0  0  0  0  0  0  0  0  0  0  0
  160.9530  202.3050  148.2060 N   0  0  0  0  0  0  0  0  0  0  0  0
  161.4530  204.4250  147.0800 C   0  0  0  0  0  2  0  0  0  0  0  0
  161.2040  203.5800  148.3030 C   0  0  0  0  0  0  0  0  0  0  0  0
  161.3940  202.3070  145.7750 C   0  0  0  0  0  2  0  0  0  0  0  0
  1 14  1  0  0  0  0
  2 13  1  0  0  0  0
  2  3  1  0  0  0  0
  3  7  1  1  0  0  0
  3 19  1  0  0  0  0
  4 15  1  0  0  0  0
  5  2  2  0  0  0  0
  6 17  1  0  0  0  0
  6  1  1  0  0  0  0
  7  4  2  0  0  0  0
  8 21  1  0  0  0  0
  8 13  1  0  0  0  0
  9  1  2  0  0  0  0
 12  8  1  0  0  0  0
 13 18  2  0  0  0  0
 14  5  1  0  0  0  0
 15 20  2  0  0  0  0
 15 11  1  0  0  0  0
 16 12  2  0  0  0  0
 16  5  1  0  0  0  0
 17 16  1  0  0  0  0
 18 10  1  0  0  0  0
 19 10  2  0  0  0  0
 19 20  1  0  0  0  0
 22 26  1  1  0  0  0
 22 28  1  0  0  0  0
 23 27  1  0  0  0  0
 24 29  1  0  0  0  0
 27 25  2  0  0  0  0
 27 21  1  0  0  0  0
 28 30  2  0  0  0  0
 29 30  1  0  0  0  0
 30 23  1  0  0  0  0
 31 24  1  0  0  0  0
 31 22  1  0  0  0  0
M  END
>  <MODEL>
2

>  <REMARK>
 VINA RESULT:      -7.9      4.231      8.078
  Name = 
  2 active torsions:
  status: ('A' for Active; 'I' for Inactive)
    1  A    between atoms: C_9  and  C_23
    2  A    between atoms: N_15  and  C_23
                            x       y       z     vdW  Elec       q    Type
                         _______ _______ _______ _____ _____    ______ ____

>  <TORSDO>
F 2

$$$$
=
 OpenBabel11052422283D

 31 35  0  0  1  0  0  0  0  0999 V2000
  161.6880  206.2260  146.2870 C   0  0  0  0  0  0  0  0  0  0  0  0
  161.1850  203.3690  148.6230 C   0  0  0  0  0  0  0  0  0  0  0  0
  161.5090  202.1860  147.7230 C   0  0  0  0  0  0  0  0  0  0  0  0
  160.5970  200.9840  145.7580 C   0  0  0  0  0  3  0  0  0  0  0  0
  161.1900  204.6390  148.1600 C   0  0  0  0  0  0  0  0  0  0  0  0
  162.1960  207.5200  147.4180 S   0  0  0  0  0  0  0  0  0  0  0  0
  160.7150  202.1310  146.4390 C   0  0  0  0  0  3  0  0  0  0  0  0
  160.8310  204.2770  150.9500 N   0  0  0  0  0  0  0  0  0  0  0  0
  161.5290  206.4860  145.0670 O   0  0  0  0  0  0  0  0  0  0  0  0
  161.3510  200.7290  149.7420 C   0  0  0  0  0  3  0  0  0  0  0  0
  161.1450  198.2810  145.3030 Cl  0  0  0  0  0  0  0  0  0  0  0  0
  160.7540  205.5890  150.3860 C   0  0  0  0  0  3  0  0  0  0  0  0
  161.0480  203.1440  150.0880 C   0  0  0  0  0  0  0  0  0  0  0  0
  161.4490  204.9060  146.7740 N   0  0  0  0  0  2  0  0  0  0  0  0
  161.1350  199.7170  146.3020 C   0  0  0  0  0  0  0  0  0  0  0  0
  160.9290  205.7840  149.0780 C   0  0  0  0  0  0  0  0  0  0  0  0
  160.8060  207.1720  148.5350 C   0  0  0  0  0  2  0  0  0  0  0  0
  161.1570  201.9090  150.5960 C   0  0  0  0  0  3  0  0  0  0  0  0
  161.4740  200.8410  148.4210 C   0  0  0  0  0  0  0  0  0  0  0  0
  161.5120  199.6340  147.5840 C   0  0  0  0  0  2  0  0  0  0  0  0
  160.6050  204.1260  152.3840 C   0  0  0  0  0  2  0  0  0  0  0  0
  161.4770  209.3640  154.9080 C   0  0  1  0  0  3  0  0  0  0  0  0
  160.7550  206.6450  152.4120 N   0  0  0  0  0  2  0  0  0  0  0  0
  161.2060  210.4440  152.7150 C   0  0  0  0  0  2  0  0  0  0  0  0
  161.3290  205.3540  154.2860 O   0  0  0  0  0  0  0  0  0  0  0  0
  161.0050  209.3030  156.2790 N   0  0  0  0  0  1  0  0  0  0  0  0
  160.9300  205.3960  153.0920 C   0  0  0  0  0  0  0  0  0  0  0  0
  161.2320  208.0800  154.2450 N   0  0  0  0  0  0  0  0  0  0  0  0
  160.7010  209.1430  152.0990 C   0  0  0  0  0  2  0  0  0  0  0  0
  160.9610  207.9450  152.9770 C   0  0  0  0  0  0  0  0  0  0  0  0
  160.7970  210.5120  154.1750 C   0  0  0  0  0  2  0  0  0  0  0  0
  1 14  1  0  0  0  0
  1  6  1  0  0  0  0
  2 13  1  0  0  0  0
  3 19  1  0  0  0  0
  3  2  1  0  0  0  0
  4 15  2  0  0  0  0
  4  7  1  0  0  0  0
  5  2  2  0  0  0  0
  5 16  1  0  0  0  0
  6 17  1  0  0  0  0
  7  3  2  0  0  0  0
  8 21  1  0  0  0  0
  9  1  2  0  0  0  0
 10 18  1  0  0  0  0
 11 15  1  0  0  0  0
 12  8  1  0  0  0  0
 13 18  2  0  0  0  0
 13  8  1  0  0  0  0
 14  5  1  0  0  0  0
 15 20  1  0  0  0  0
 16 12  2  0  0  0  0
 17 16  1  0  0  0  0
 19 10  2  0  0  0  0
 20 19  1  0  0  0  0
 21 27  1  0  0  0  0
 22 26  1  1  0  0  0
 23 30  1  0  0  0  0
 23 27  1  0  0  0  0
 24 31  1  0  0  0  0
 27 25  2  0  0  0  0
 28 22  1  0  0  0  0
 29 24  1  0  0  0  0
 29 30  1  0  0  0  0
 30 28  2  0  0  0  0
 31 22  1  0  0  0  0
M  END
>  <MODEL>
3

>  <REMARK>
 VINA RESULT:      -7.7      4.709      7.118
  Name = 
  2 active torsions:
  status: ('A' for Active; 'I' for Inactive)
    1  A    between atoms: C_9  and  C_23
    2  A    between atoms: N_15  and  C_23
                            x       y       z     vdW  Elec       q    Type
                         _______ _______ _______ _____ _____    ______ ____

>  <TORSDO>
F 2

$$$$
=
 OpenBabel11052422283D

 31 35  0  0  1  0  0  0  0  0999 V2000
  161.9550  209.5280  149.1980 C   0  0  0  0  0  0  0  0  0  0  0  0
  161.2990  206.5190  151.2930 C   0  0  0  0  0  0  0  0  0  0  0  0
  161.5240  205.4000  150.2880 C   0  0  0  0  0  0  0  0  0  0  0  0
  160.4960  204.4370  148.2500 C   0  0  0  0  0  3  0  0  0  0  0  0
  161.3820  207.8210  150.9400 C   0  0  0  0  0  0  0  0  0  0  0  0
  162.5710  210.6830  150.4220 S   0  0  0  0  0  0  0  0  0  0  0  0
  160.7050  205.5100  149.0240 C   0  0  0  0  0  3  0  0  0  0  0  0
  161.0490  207.2440  153.6970 N   0  0  0  0  0  0  0  0  0  0  0  0
  161.7920  209.9030  148.0080 O   0  0  0  0  0  0  0  0  0  0  0  0
  161.3030  203.7880  152.1790 C   0  0  0  0  0  3  0  0  0  0  0  0
  160.8490  201.7520  147.5540 Cl  0  0  0  0  0  0  0  0  0  0  0  0
  161.0530  208.6020  153.2480 C   0  0  0  0  0  3  0  0  0  0  0  0
  161.1730  206.1780  152.7360 C   0  0  0  0  0  0  0  0  0  0  0  0
  161.6340  208.1890  149.5750 N   0  0  0  0  0  2  0  0  0  0  0  0
  160.9560  203.0930  148.6720 C   0  0  0  0  0  0  0  0  0  0  0  0
  161.2170  208.8980  151.9590 C   0  0  0  0  0  0  0  0  0  0  0  0
  161.1800  210.3320  151.5380 C   0  0  0  0  0  2  0  0  0  0  0  0
  161.2060  204.9000  153.1350 C   0  0  0  0  0  3  0  0  0  0  0  0
  161.4100  204.0050  150.8700 C   0  0  0  0  0  0  0  0  0  0  0  0
  161.3490  202.8750  149.9320 C   0  0  0  0  0  2  0  0  0  0  0  0
  160.8390  206.9850  155.1180 C   0  0  0  0  0  2  0  0  0  0  0  0
  158.2820  211.8260  157.2610 C   0  0  1  0  0  3  0  0  0  0  0  0
  160.7910  209.3920  155.8740 N   0  0  0  0  0  2  0  0  0  0  0  0
  160.4620  212.9660  157.2350 C   0  0  0  0  0  2  0  0  0  0  0  0
  158.9370  207.9790  156.1380 O   0  0  0  0  0  0  0  0  0  0  0  0
  156.9050  211.8650  156.8030 N   0  0  0  0  0  1  0  0  0  0  0  0
  160.1250  208.1300  155.7490 C   0  0  0  0  0  0  0  0  0  0  0  0
  158.9530  210.6480  156.7050 N   0  0  0  0  0  0  0  0  0  0  0  0
  161.0820  211.8320  156.4240 C   0  0  0  0  0  2  0  0  0  0  0  0
  160.2180  210.5970  156.3950 C   0  0  0  0  0  0  0  0  0  0  0  0
  158.9950  213.1130  156.8710 C   0  0  0  0  0  2  0  0  0  0  0  0
  1 14  1  0  0  0  0
  1  6  1  0  0  0  0
  2 13  1  0  0  0  0
  3 19  1  0  0  0  0
  3  2  1  0  0  0  0
  4 15  2  0  0  0  0
  4  7  1  0  0  0  0
  5  2  2  0  0  0  0
  5 16  1  0  0  0  0
  6 17  1  0  0  0  0
  7  3  2  0  0  0  0
  8 21  1  0  0  0  0
  9  1  2  0  0  0  0
 10 18  1  0  0  0  0
 11 15  1  0  0  0  0
 12  8  1  0  0  0  0
 13 18  2  0  0  0  0
 13  8  1  0  0  0  0
 14  5  1  0  0  0  0
 15 20  1  0  0  0  0
 16 12  2  0  0  0  0
 17 16  1  0  0  0  0
 19 10  2  0  0  0  0
 20 19  1  0  0  0  0
 21 27  1  0  0  0  0
 22 26  1  6  0  0  0
 23 30  1  0  0  0  0
 27 23  1  0  0  0  0
 27 25  2  0  0  0  0
 28 22  1  0  0  0  0
 29 24  1  0  0  0  0
 30 29  1  0  0  0  0
 30 28  2  0  0  0  0
 31 24  1  0  0  0  0
 31 22  1  0  0  0  0
M  END
>  <MODEL>
4

>  <REMARK>
 VINA RESULT:      -7.5      3.476      6.515
  Name = 
  2 active torsions:
  status: ('A' for Active; 'I' for Inactive)
    1  A    between atoms: C_9  and  C_23
    2  A    between atoms: N_15  and  C_23
                            x       y       z     vdW  Elec       q    Type
                         _______ _______ _______ _____ _____    ______ ____

>  <TORSDO>
F 2

$$$$
=
 OpenBabel11052422283D

 31 35  0  0  1  0  0  0  0  0999 V2000
  156.7670  214.1460  145.8170 C   0  0  0  0  0  0  0  0  0  0  0  0
  160.3620  213.3180  145.3010 C   0  0  0  0  0  0  0  0  0  0  0  0
  160.5770  213.7950  143.8730 C   0  0  0  0  0  0  0  0  0  0  0  0
  159.9180  213.2190  141.5550 C   0  0  0  0  0  3  0  0  0  0  0  0
  159.1510  213.3790  145.8980 C   0  0  0  0  0  0  0  0  0  0  0  0
  156.7260  214.4520  147.5820 S   0  0  0  0  0  0  0  0  0  0  0  0
  159.6190  213.2140  142.8610 C   0  0  0  0  0  3  0  0  0  0  0  0
  161.3510  212.5890  147.5060 N   0  0  0  0  0  0  0  0  0  0  0  0
  155.7020  214.1770  145.1490 O   0  0  0  0  0  0  0  0  0  0  0  0
  163.0100  213.3390  144.1890 C   0  0  0  0  0  3  0  0  0  0  0  0
  161.5300  213.8670  139.3650 Cl  0  0  0  0  0  0  0  0  0  0  0  0
  160.0290  212.5850  148.0540 C   0  0  0  0  0  3  0  0  0  0  0  0
  161.5460  212.9550  146.1270 C   0  0  0  0  0  0  0  0  0  0  0  0
  158.0060  213.8500  145.1720 N   0  0  0  0  0  2  0  0  0  0  0  0
  161.2430  213.6810  141.0800 C   0  0  0  0  0  0  0  0  0  0  0  0
  158.9820  212.9620  147.3200 C   0  0  0  0  0  0  0  0  0  0  0  0
  157.6180  212.9080  147.9310 C   0  0  0  0  0  2  0  0  0  0  0  0
  162.7770  212.9980  145.5990 C   0  0  0  0  0  3  0  0  0  0  0  0
  162.0050  213.6680  143.3800 C   0  0  0  0  0  0  0  0  0  0  0  0
  162.2520  213.8520  141.9430 C   0  0  0  0  0  2  0  0  0  0  0  0
  162.4520  212.1420  148.3520 C   0  0  0  0  0  2  0  0  0  0  0  0
  161.2430  206.9700  150.8710 C   0  0  1  0  0  3  0  0  0  0  0  0
  161.8860  209.6840  148.3490 N   0  0  0  0  0  2  0  0  0  0  0  0
  160.8690  205.9940  148.6440 C   0  0  0  0  0  2  0  0  0  0  0  0
  161.9380  210.9340  150.3330 O   0  0  0  0  0  0  0  0  0  0  0  0
  161.9910  206.8710  152.1110 N   0  0  0  0  0  1  0  0  0  0  0  0
  162.0690  210.9010  149.0810 C   0  0  0  0  0  0  0  0  0  0  0  0
  161.5600  208.2350  150.2040 N   0  0  0  0  0  0  0  0  0  0  0  0
  161.4490  207.2330  147.9680 C   0  0  0  0  0  2  0  0  0  0  0  0
  161.5830  208.4010  148.9110 C   0  0  0  0  0  0  0  0  0  0  0  0
  161.5520  205.7740  149.9820 C   0  0  0  0  0  2  0  0  0  0  0  0
  1  6  1  0  0  0  0
  2  5  2  0  0  0  0
  2 13  1  0  0  0  0
  3  2  1  0  0  0  0
  4  7  1  0  0  0  0
  5 16  1  0  0  0  0
  6 17  1  0  0  0  0
  7  3  2  0  0  0  0
  8 12  1  0  0  0  0
  8 21  1  0  0  0  0
  9  1  2  0  0  0  0
 10 18  1  0  0  0  0
 11 15  1  0  0  0  0
 13  8  1  0  0  0  0
 14  1  1  0  0  0  0
 14  5  1  0  0  0  0
 15  4  2  0  0  0  0
 15 20  1  0  0  0  0
 16 17  1  0  0  0  0
 16 12  2  0  0  0  0
 18 13  2  0  0  0  0
 19  3  1  0  0  0  0
 19 10  2  0  0  0  0
 20 19  1  0  0  0  0
 21 27  1  0  0  0  0
 22 26  1  1  0  0  0
 23 30  1  0  0  0  0
 23 27  1  0  0  0  0
 24 31  1  0  0  0  0
 27 25  2  0  0  0  0
 28 22  1  0  0  0  0
 29 24  1  0  0  0  0
 29 30  1  0  0  0  0
 30 28  2  0  0  0  0
 31 22  1  0  0  0  0
M  END
>  <MODEL>
5

>  <REMARK>
 VINA RESULT:      -7.4      4.192      8.983
  Name = 
  2 active torsions:
  status: ('A' for Active; 'I' for Inactive)
    1  A    between atoms: C_9  and  C_23
    2  A    between atoms: N_15  and  C_23
                            x       y       z     vdW  Elec       q    Type
                         _______ _______ _______ _____ _____    ______ ____

>  <TORSDO>
F 2

$$$$
=
 OpenBabel11052422283D

 31 35  0  0  1  0  0  0  0  0999 V2000
  161.9560  209.6560  149.1510 C   0  0  0  0  0  0  0  0  0  0  0  0
  161.2420  207.2060  151.8640 C   0  0  0  0  0  0  0  0  0  0  0  0
  161.4690  205.8860  151.1430 C   0  0  2  0  0  3  0  0  0  0  0  0
  160.4560  204.4930  149.3620 C   0  0  0  0  0  3  0  0  0  0  0  0
  161.3430  208.3930  151.2260 C   0  0  0  0  0  0  0  0  0  0  0  0
  162.5680  211.0530  150.0910 S   0  0  0  0  0  0  0  0  0  0  0  0
  160.6670  205.7120  149.8750 C   0  0  0  0  0  3  0  0  0  0  0  0
  160.9700  208.4590  154.0380 N   0  0  0  0  0  0  0  0  0  0  0  0
  161.8120  209.7520  147.9050 O   0  0  0  0  0  0  0  0  0  0  0  0
  161.2060  204.7470  153.3470 C   0  0  0  0  0  3  0  0  0  0  0  0
  160.7900  201.7180  149.2980 Cl  0  0  0  0  0  0  0  0  0  0  0  0
  160.9930  209.6800  153.2920 C   0  0  0  0  0  3  0  0  0  0  0  0
  161.0950  207.2030  153.3460 C   0  0  0  0  0  0  0  0  0  0  0  0
  161.6170  208.4400  149.8180 N   0  0  0  0  0  2  0  0  0  0  0  0
  160.8970  203.2770  150.0840 C   0  0  0  0  0  0  0  0  0  0  0  0
  161.1770  209.6740  151.9720 C   0  0  0  0  0  0  0  0  0  0  0  0
  161.1600  210.9760  151.2370 C   0  0  0  0  0  2  0  0  0  0  0  0
  161.1090  206.0470  154.0240 C   0  0  0  0  0  3  0  0  0  0  0  0
  161.3320  204.6610  152.0240 C   0  0  0  0  0  0  0  0  0  0  0  0
  161.2710  203.3470  151.3670 C   0  0  0  0  0  3  0  0  0  0  0  0
  160.7400  208.5310  155.4770 C   0  0  0  0  0  2  0  0  0  0  0  0
  157.1820  213.1050  156.4680 C   0  0  1  0  0  3  0  0  0  0  0  0
  160.2170  210.9110  156.1320 N   0  0  0  0  0  2  0  0  0  0  0  0
  159.1160  214.4190  157.2330 C   0  0  0  0  0  2  0  0  0  0  0  0
  158.5200  209.3470  155.7130 O   0  0  0  0  0  0  0  0  0  0  0  0
  156.0720  213.0410  155.5350 N   0  0  0  0  0  1  0  0  0  0  0  0
  159.7510  209.6020  155.7860 C   0  0  0  0  0  0  0  0  0  0  0  0
  158.1050  211.9960  156.2120 N   0  0  0  0  0  0  0  0  0  0  0  0
  160.0820  213.3560  156.7210 C   0  0  0  0  0  2  0  0  0  0  0  0
  159.3950  212.0550  156.3910 C   0  0  0  0  0  0  0  0  0  0  0  0
  157.8790  214.4530  156.3520 C   0  0  0  0  0  2  0  0  0  0  0  0
  1 14  1  0  0  0  0
  1  6  1  0  0  0  0
  2 13  1  0  0  0  0
  3  7  1  6  0  0  0
  3  2  1  0  0  0  0
  3 19  1  0  0  0  0
  4  7  2  0  0  0  0
  4 15  1  0  0  0  0
  5  2  2  0  0  0  0
  5 16  1  0  0  0  0
  6 17  1  0  0  0  0
  8 21  1  0  0  0  0
  9  1  2  0  0  0  0
 10 18  1  0  0  0  0
 11 15  1  0  0  0  0
 12  8  1  0  0  0  0
 13 18  2  0  0  0  0
 13  8  1  0  0  0  0
 14  5  1  0  0  0  0
 15 20  2  0  0  0  0
 16 12  2  0  0  0  0
 17 16  1  0  0  0  0
 19 10  2  0  0  0  0
 20 19  1  0  0  0  0
 21 27  1  0  0  0  0
 22 26  1  6  0  0  0
 23 30  1  0  0  0  0
 25 27  2  0  0  0  0
 27 23  1  0  0  0  0
 28 30  2  0  0  0  0
 28 22  1  0  0  0  0
 29 24  1  0  0  0  0
 30 29  1  0  0  0  0
 31 22  1  0  0  0  0
 31 24  1  0  0  0  0
M  END
>  <MODEL>
6

>  <REMARK>
 VINA RESULT:      -7.3      3.399      6.280
  Name = 
  2 active torsions:
  status: ('A' for Active; 'I' for Inactive)
    1  A    between atoms: C_9  and  C_23
    2  A    between atoms: N_15  and  C_23
                            x       y       z     vdW  Elec       q    Type
                         _______ _______ _______ _____ _____    ______ ____

>  <TORSDO>
F 2

$$$$
