=
 OpenBabel11062408333D

 32 35  0  0  1  0  0  0  0  0999 V2000
  161.8430  206.7370  153.1540 O   0  0  0  0  0  0  0  0  0  0  0  0
  161.4670  206.6610  151.7920 C   0  0  2  0  0  3  0  0  0  0  0  0
  161.2610  205.2490  151.3090 C   0  0  0  0  0  0  0  0  0  0  0  0
  161.1370  204.2200  152.2500 C   0  0  0  0  0  3  0  0  0  0  0  0
  161.0010  201.9820  147.7360 C   0  0  0  0  0  3  0  0  0  0  0  0
  161.2680  204.9410  149.9390 C   0  0  0  0  0  3  0  0  0  0  0  0
  160.8720  201.2580  150.0480 C   0  0  0  0  0  3  0  0  0  0  0  0
  160.9990  202.5840  150.4710 C   0  0  0  0  0  0  0  0  0  0  0  0
  161.0030  202.8930  151.8340 C   0  0  0  0  0  3  0  0  0  0  0  0
  161.1320  203.6180  149.5160 C   0  0  0  0  0  0  0  0  0  0  0  0
  160.8740  200.9580  148.6810 C   0  0  0  0  0  3  0  0  0  0  0  0
  161.1320  203.3110  148.1530 C   0  0  0  0  0  3  0  0  0  0  0  0
  161.4350  208.4450  150.0590 C   0  0  1  0  0  3  0  0  0  0  0  0
  162.3290  207.5300  150.8730 C   0  0  1  0  0  3  0  0  0  0  0  0
  162.1830  208.9870  151.2610 C   0  0  0  0  0  2  0  0  0  0  0  0
  162.0710  210.2160  148.6100 O   0  0  0  0  0  1  0  0  0  0  0  0
  162.1620  208.8370  148.7900 C   0  0  0  0  0  2  0  0  0  0  0  0
  160.7290  207.1420  153.9130 C   0  0  0  0  0  2  0  0  0  0  0  0
  161.1560  207.9920  155.1070 C   0  0  1  0  0  3  0  0  0  0  0  0
  161.8730  209.1090  154.6770 O   0  0  0  0  0  1  0  0  0  0  0  0
  159.9980  208.4190  156.0150 C   0  0  1  0  0  3  0  0  0  0  0  0
  159.9740  207.6580  157.1860 O   0  0  0  0  0  1  0  0  0  0  0  0
  160.0350  209.9060  156.3690 C   0  0  0  0  0  2  0  0  0  0  0  0
  159.0240  210.7530  155.5900 C   0  0  1  0  0  3  0  0  0  0  0  0
  158.0520  211.4730  156.5140 C   0  0  0  0  0  2  0  0  0  0  0  0
  156.8630  211.9870  155.7260 C   0  0  0  0  0  3  0  0  0  0  0  0
  155.5910  211.6550  156.4790 C   0  0  0  0  0  2  0  0  0  0  0  0
  156.0060  210.8150  155.2940 C   0  0  0  0  0  2  0  0  0  0  0  0
  159.7090  211.7070  154.7290 N   0  0  0  0  0  2  0  0  0  0  0  0
  159.4430  210.4760  152.8150 O   0  0  0  0  0  0  0  0  0  0  0  0
  159.9450  212.6690  152.5260 O   0  0  0  0  0  0  0  0  0  0  0  0
  159.7070  211.5800  153.3320 N   0  0  0  0  0  0  0  0  0  0  0  0
  1 18  1  0  0  0  0
  2  1  1  1  0  0  0
  3  2  1  0  0  0  0
  3  4  1  0  0  0  0
  5 12  2  0  0  0  0
  5 11  1  0  0  0  0
  6  3  2  0  0  0  0
  7  8  1  0  0  0  0
  8  9  1  0  0  0  0
  9  4  2  0  0  0  0
 10  6  1  0  0  0  0
 10  8  2  0  0  0  0
 11  7  2  0  0  0  0
 12 10  1  0  0  0  0
 13 17  1  6  0  0  0
 13 14  1  0  0  0  0
 13 15  1  0  0  0  0
 14 15  1  0  0  0  0
 14  2  1  1  0  0  0
 16 17  1  0  0  0  0
 18 19  1  0  0  0  0
 19 20  1  6  0  0  0
 19 21  1  0  0  0  0
 21 23  1  0  0  0  0
 21 22  1  1  0  0  0
 24 23  1  1  0  0  0
 24 25  1  0  0  0  0
 26 27  1  0  0  0  0
 26 25  1  0  0  0  0
 28 26  1  0  0  0  0
 28 27  1  0  0  0  0
 29 24  1  0  0  0  0
 30 32  2  0  0  0  0
 31 32  2  0  0  0  0
 32 29  1  0  0  0  0
M  END
>  <MODEL>
1

>  <REMARK>
 VINA RESULT:      -7.8      0.000      0.000
  Name = 
  13 active torsions:
  status: ('A' for Active; 'I' for Inactive)
    1  A    between atoms: O_1  and  C_5
    2  A    between atoms: O_1  and  C_30
    3  A    between atoms: C_2  and  C_5
    4  A    between atoms: C_3  and  C_8
    5  A    between atoms: C_3  and  C_20
    6  A    between atoms: C_4  and  C_24
    7  A    between atoms: C_4  and  C_30
    8  A    between atoms: C_5  and  C_14
    9  A    between atoms: C_13  and  C_29
   10  A    between atoms: N_15  and  C_20
   11  A    between atoms: N_15  and  N_26
   12  A    between atoms: C_16  and  C_20
   13  A    between atoms: C_16  and  C_24
                            x       y       z     vdW  Elec       q    Type
                         _______ _______ _______ _____ _____    ______ ____

>  <TORSDO>
F 13

$$$$
=
 OpenBabel11062408333D

 32 35  0  0  1  0  0  0  0  0999 V2000
  161.7110  207.0840  153.1780 O   0  0  0  0  0  0  0  0  0  0  0  0
  161.3950  206.9430  151.8070 C   0  0  2  0  0  3  0  0  0  0  0  0
  161.2010  205.5100  151.3840 C   0  0  0  0  0  0  0  0  0  0  0  0
  161.0640  204.5240  152.3680 C   0  0  0  0  0  3  0  0  0  0  0  0
  161.0050  202.0850  147.9590 C   0  0  0  0  0  3  0  0  0  0  0  0
  161.2300  205.1410  150.0290 C   0  0  0  0  0  3  0  0  0  0  0  0
  160.8410  201.4660  150.2980 C   0  0  0  0  0  3  0  0  0  0  0  0
  160.9590  202.8100  150.6630 C   0  0  0  0  0  0  0  0  0  0  0  0
  160.9390  203.1800  152.0100 C   0  0  0  0  0  3  0  0  0  0  0  0
  161.1040  203.8000  149.6650 C   0  0  0  0  0  0  0  0  0  0  0  0
  160.8660  201.1040  148.9470 C   0  0  0  0  0  3  0  0  0  0  0  0
  161.1260  203.4320  148.3170 C   0  0  0  0  0  3  0  0  0  0  0  0
  161.4640  208.7370  150.0850 C   0  0  1  0  0  3  0  0  0  0  0  0
  162.3040  207.7610  150.8860 C   0  0  1  0  0  3  0  0  0  0  0  0
  162.2540  209.2220  151.2830 C   0  0  0  0  0  2  0  0  0  0  0  0
  162.0690  210.4540  148.5590 O   0  0  0  0  0  1  0  0  0  0  0  0
  162.2050  209.0900  148.8120 C   0  0  0  0  0  2  0  0  0  0  0  0
  160.6650  207.7770  153.8180 C   0  0  0  0  0  2  0  0  0  0  0  0
  161.1730  208.5250  155.0480 C   0  0  1  0  0  3  0  0  0  0  0  0
  161.9650  209.6090  154.6650 O   0  0  0  0  0  1  0  0  0  0  0  0
  160.0640  208.9860  156.0000 C   0  0  1  0  0  3  0  0  0  0  0  0
  160.0090  208.1720  157.1340 O   0  0  0  0  0  1  0  0  0  0  0  0
  160.2100  210.4470  156.4230 C   0  0  0  0  0  2  0  0  0  0  0  0
  159.1130  211.3640  155.8730 C   0  0  1  0  0  3  0  0  0  0  0  0
  159.5700  212.1220  154.6350 C   0  0  0  0  0  2  0  0  0  0  0  0
  159.2560  211.3220  153.3850 C   0  0  0  0  0  3  0  0  0  0  0  0
  160.0550  211.8850  152.2270 C   0  0  0  0  0  2  0  0  0  0  0  0
  158.5900  212.2270  152.3690 C   0  0  0  0  0  2  0  0  0  0  0  0
  157.9050  210.6020  155.5860 N   0  0  0  0  0  2  0  0  0  0  0  0
  155.9030  211.2390  154.6720 O   0  0  0  0  0  0  0  0  0  0  0  0
  156.1470  211.6180  156.8950 O   0  0  0  0  0  0  0  0  0  0  0  0
  156.6270  211.1730  155.6850 N   0  0  0  0  0  0  0  0  0  0  0  0
  1 18  1  0  0  0  0
  2  1  1  1  0  0  0
  3  2  1  0  0  0  0
  3  4  1  0  0  0  0
  5 12  2  0  0  0  0
  5 11  1  0  0  0  0
  6  3  2  0  0  0  0
  7  8  1  0  0  0  0
  8  9  1  0  0  0  0
  9  4  2  0  0  0  0
 10  6  1  0  0  0  0
 10  8  2  0  0  0  0
 11  7  2  0  0  0  0
 12 10  1  0  0  0  0
 13 17  1  6  0  0  0
 13 14  1  0  0  0  0
 13 15  1  0  0  0  0
 14 15  1  0  0  0  0
 14  2  1  1  0  0  0
 16 17  1  0  0  0  0
 18 19  1  0  0  0  0
 19 20  1  6  0  0  0
 19 21  1  0  0  0  0
 21 23  1  0  0  0  0
 21 22  1  1  0  0  0
 24 25  1  6  0  0  0
 24 23  1  0  0  0  0
 26 25  1  0  0  0  0
 27 28  1  0  0  0  0
 27 26  1  0  0  0  0
 28 26  1  0  0  0  0
 29 32  1  0  0  0  0
 29 24  1  0  0  0  0
 30 32  2  0  0  0  0
 32 31  2  0  0  0  0
M  END
>  <MODEL>
2

>  <REMARK>
 VINA RESULT:      -7.8      1.765      2.154
  Name = 
  13 active torsions:
  status: ('A' for Active; 'I' for Inactive)
    1  A    between atoms: O_1  and  C_5
    2  A    between atoms: O_1  and  C_30
    3  A    between atoms: C_2  and  C_5
    4  A    between atoms: C_3  and  C_8
    5  A    between atoms: C_3  and  C_20
    6  A    between atoms: C_4  and  C_24
    7  A    between atoms: C_4  and  C_30
    8  A    between atoms: C_5  and  C_14
    9  A    between atoms: C_13  and  C_29
   10  A    between atoms: N_15  and  C_20
   11  A    between atoms: N_15  and  N_26
   12  A    between atoms: C_16  and  C_20
   13  A    between atoms: C_16  and  C_24
                            x       y       z     vdW  Elec       q    Type
                         _______ _______ _______ _____ _____    ______ ____

>  <TORSDO>
F 13

$$$$
=
 OpenBabel11062408333D

 32 35  0  0  1  0  0  0  0  0999 V2000
  161.8750  207.3720  150.8230 O   0  0  0  0  0  0  0  0  0  0  0  0
  161.1040  206.8340  151.8810 C   0  0  2  0  0  3  0  0  0  0  0  0
  160.9140  207.7930  153.0280 C   0  0  0  0  0  0  0  0  0  0  0  0
  160.8950  207.2920  154.3350 C   0  0  0  0  0  3  0  0  0  0  0  0
  159.9940  212.2340  154.7380 C   0  0  0  0  0  3  0  0  0  0  0  0
  160.6820  209.1590  152.8030 C   0  0  0  0  0  3  0  0  0  0  0  0
  160.2050  210.3680  156.2730 C   0  0  0  0  0  3  0  0  0  0  0  0
  160.4430  209.5090  155.1960 C   0  0  0  0  0  0  0  0  0  0  0  0
  160.6650  208.1470  155.4160 C   0  0  0  0  0  3  0  0  0  0  0  0
  160.4530  210.0190  153.8780 C   0  0  0  0  0  0  0  0  0  0  0  0
  159.9800  211.7290  156.0430 C   0  0  0  0  0  3  0  0  0  0  0  0
  160.2280  211.3800  153.6560 C   0  0  0  0  0  3  0  0  0  0  0  0
  160.7870  204.4030  151.4620 C   0  0  1  0  0  3  0  0  0  0  0  0
  161.5360  205.4250  152.2940 C   0  0  1  0  0  3  0  0  0  0  0  0
  162.2270  204.7400  151.1320 C   0  0  0  0  0  2  0  0  0  0  0  0
  161.7020  202.2260  151.7230 O   0  0  0  0  0  1  0  0  0  0  0  0
  160.7340  203.0950  152.2240 C   0  0  0  0  0  2  0  0  0  0  0  0
  161.0130  207.7360  149.7710 C   0  0  0  0  0  2  0  0  0  0  0  0
  161.6690  207.4910  148.4140 C   0  0  1  0  0  3  0  0  0  0  0  0
  163.0590  207.4960  148.5380 O   0  0  0  0  0  1  0  0  0  0  0  0
  161.2000  206.2090  147.7170 C   0  0  1  0  0  3  0  0  0  0  0  0
  160.0860  206.4570  146.9120 O   0  0  0  0  0  1  0  0  0  0  0  0
  162.2990  205.5480  146.8840 C   0  0  0  0  0  2  0  0  0  0  0  0
  162.2550  204.0170  146.9050 C   0  0  1  0  0  3  0  0  0  0  0  0
  161.2930  203.4890  147.9610 C   0  0  0  0  0  2  0  0  0  0  0  0
  160.8210  202.0960  147.5900 C   0  0  0  0  0  3  0  0  0  0  0  0
  160.0040  201.5320  148.7350 C   0  0  0  0  0  2  0  0  0  0  0  0
  161.4360  201.0910  148.5410 C   0  0  0  0  0  2  0  0  0  0  0  0
  161.9040  203.4960  145.5910 N   0  0  0  0  0  2  0  0  0  0  0  0
  161.5160  205.1740  144.0800 O   0  0  0  0  0  0  0  0  0  0  0  0
  159.7650  203.7980  144.5110 O   0  0  0  0  0  0  0  0  0  0  0  0
  161.0650  204.2000  144.7140 N   0  0  0  0  0  0  0  0  0  0  0  0
  2  1  1  6  0  0  0
  2  3  1  0  0  0  0
  3  4  1  0  0  0  0
  4  9  2  0  0  0  0
  5 11  1  0  0  0  0
  6  3  2  0  0  0  0
  6 10  1  0  0  0  0
  8  9  1  0  0  0  0
  8  7  1  0  0  0  0
 10  8  2  0  0  0  0
 11  7  2  0  0  0  0
 12 10  1  0  0  0  0
 12  5  2  0  0  0  0
 13 17  1  1  0  0  0
 13 14  1  0  0  0  0
 14  2  1  6  0  0  0
 15 13  1  0  0  0  0
 15 14  1  0  0  0  0
 16 17  1  0  0  0  0
 18  1  1  0  0  0  0
 19 20  1  1  0  0  0
 19 18  1  0  0  0  0
 21 22  1  6  0  0  0
 21 19  1  0  0  0  0
 23 21  1  0  0  0  0
 24 23  1  6  0  0  0
 24 25  1  0  0  0  0
 26 25  1  0  0  0  0
 26 28  1  0  0  0  0
 26 27  1  0  0  0  0
 28 27  1  0  0  0  0
 29 24  1  0  0  0  0
 30 32  2  0  0  0  0
 31 32  2  0  0  0  0
 32 29  1  0  0  0  0
M  END
>  <MODEL>
3

>  <REMARK>
 VINA RESULT:      -7.5      3.932      9.160
  Name = 
  13 active torsions:
  status: ('A' for Active; 'I' for Inactive)
    1  A    between atoms: O_1  and  C_5
    2  A    between atoms: O_1  and  C_30
    3  A    between atoms: C_2  and  C_5
    4  A    between atoms: C_3  and  C_8
    5  A    between atoms: C_3  and  C_20
    6  A    between atoms: C_4  and  C_24
    7  A    between atoms: C_4  and  C_30
    8  A    between atoms: C_5  and  C_14
    9  A    between atoms: C_13  and  C_29
   10  A    between atoms: N_15  and  C_20
   11  A    between atoms: N_15  and  N_26
   12  A    between atoms: C_16  and  C_20
   13  A    between atoms: C_16  and  C_24
                            x       y       z     vdW  Elec       q    Type
                         _______ _______ _______ _____ _____    ______ ____

>  <TORSDO>
F 13

$$$$
=
 OpenBabel11062408333D

 32 35  0  0  1  0  0  0  0  0999 V2000
  162.3290  207.6900  151.5080 O   0  0  0  0  0  0  0  0  0  0  0  0
  161.7860  206.7540  152.4190 C   0  0  2  0  0  3  0  0  0  0  0  0
  161.4360  205.4340  151.7810 C   0  0  0  0  0  0  0  0  0  0  0  0
  161.1180  204.3460  152.6020 C   0  0  0  0  0  3  0  0  0  0  0  0
  161.0070  202.5880  147.8800 C   0  0  0  0  0  3  0  0  0  0  0  0
  161.4970  205.2610  150.3880 C   0  0  0  0  0  3  0  0  0  0  0  0
  160.6290  201.6710  150.0920 C   0  0  0  0  0  3  0  0  0  0  0  0
  160.8950  202.9210  150.6570 C   0  0  0  0  0  0  0  0  0  0  0  0
  160.8440  203.0950  152.0430 C   0  0  0  0  0  3  0  0  0  0  0  0
  161.2230  204.0140  149.8240 C   0  0  0  0  0  0  0  0  0  0  0  0
  160.6860  201.5050  148.7050 C   0  0  0  0  0  3  0  0  0  0  0  0
  161.2770  203.8420  148.4380 C   0  0  0  0  0  3  0  0  0  0  0  0
  161.0490  207.1130  154.7670 C   0  0  1  0  0  3  0  0  0  0  0  0
  160.6900  207.3390  153.3120 C   0  0  1  0  0  3  0  0  0  0  0  0
  161.2560  208.4760  154.1390 C   0  0  0  0  0  2  0  0  0  0  0  0
  160.0980  206.9320  156.9360 O   0  0  0  0  0  1  0  0  0  0  0  0
  159.7790  207.1210  155.5930 C   0  0  0  0  0  2  0  0  0  0  0  0
  161.2840  208.4750  150.9840 C   0  0  0  0  0  2  0  0  0  0  0  0
  161.7800  209.8680  150.6050 C   0  0  1  0  0  3  0  0  0  0  0  0
  162.7890  210.2790  151.4770 O   0  0  0  0  0  1  0  0  0  0  0  0
  162.2500  209.9880  149.1510 C   0  0  1  0  0  3  0  0  0  0  0  0
  162.0560  208.7880  148.4620 O   0  0  0  0  0  1  0  0  0  0  0  0
  161.5680  211.1300  148.3970 C   0  0  0  0  0  2  0  0  0  0  0  0
  162.3610  212.4400  148.4090 C   0  0  1  0  0  3  0  0  0  0  0  0
  162.9420  212.7680  147.0400 C   0  0  0  0  0  2  0  0  0  0  0  0
  162.0540  213.7630  146.3190 C   0  0  0  0  0  3  0  0  0  0  0  0
  161.4920  213.1100  145.0730 C   0  0  0  0  0  2  0  0  0  0  0  0
  162.6510  214.0720  144.9620 C   0  0  0  0  0  2  0  0  0  0  0  0
  161.5310  213.5380  148.8850 N   0  0  0  0  0  2  0  0  0  0  0  0
  160.1170  213.0810  150.6290 O   0  0  0  0  0  0  0  0  0  0  0  0
  159.1340  213.4240  148.6140 O   0  0  0  0  0  0  0  0  0  0  0  0
  160.2490  213.3230  149.4130 N   0  0  0  0  0  0  0  0  0  0  0  0
  2  1  1  6  0  0  0
  3  2  1  0  0  0  0
  3  4  1  0  0  0  0
  5 12  2  0  0  0  0
  5 11  1  0  0  0  0
  6  3  2  0  0  0  0
  7  8  1  0  0  0  0
  8  9  1  0  0  0  0
  9  4  2  0  0  0  0
 10  6  1  0  0  0  0
 10  8  2  0  0  0  0
 11  7  2  0  0  0  0
 12 10  1  0  0  0  0
 13 17  1  1  0  0  0
 14  2  1  6  0  0  0
 14 15  1  0  0  0  0
 14 13  1  0  0  0  0
 15 13  1  0  0  0  0
 17 16  1  0  0  0  0
 18  1  1  0  0  0  0
 19 18  1  0  0  0  0
 19 20  1  1  0  0  0
 21 22  1  6  0  0  0
 21 19  1  0  0  0  0
 23 24  1  0  0  0  0
 23 21  1  0  0  0  0
 24 25  1  6  0  0  0
 24 29  1  0  0  0  0
 26 25  1  0  0  0  0
 27 26  1  0  0  0  0
 28 27  1  0  0  0  0
 28 26  1  0  0  0  0
 29 32  1  0  0  0  0
 31 32  2  0  0  0  0
 32 30  2  0  0  0  0
M  END
>  <MODEL>
4

>  <REMARK>
 VINA RESULT:      -7.3      2.732      6.008
  Name = 
  13 active torsions:
  status: ('A' for Active; 'I' for Inactive)
    1  A    between atoms: O_1  and  C_5
    2  A    between atoms: O_1  and  C_30
    3  A    between atoms: C_2  and  C_5
    4  A    between atoms: C_3  and  C_8
    5  A    between atoms: C_3  and  C_20
    6  A    between atoms: C_4  and  C_24
    7  A    between atoms: C_4  and  C_30
    8  A    between atoms: C_5  and  C_14
    9  A    between atoms: C_13  and  C_29
   10  A    between atoms: N_15  and  C_20
   11  A    between atoms: N_15  and  N_26
   12  A    between atoms: C_16  and  C_20
   13  A    between atoms: C_16  and  C_24
                            x       y       z     vdW  Elec       q    Type
                         _______ _______ _______ _____ _____    ______ ____

>  <TORSDO>
F 13

$$$$
=
 OpenBabel11062408333D

 32 35  0  0  1  0  0  0  0  0999 V2000
  160.8740  205.5000  151.4360 O   0  0  0  0  0  0  0  0  0  0  0  0
  161.3560  206.8280  151.5120 C   0  0  2  0  0  3  0  0  0  0  0  0
  161.0720  207.4910  152.8350 C   0  0  0  0  0  0  0  0  0  0  0  0
  160.8340  206.6900  153.9580 C   0  0  0  0  0  3  0  0  0  0  0  0
  160.2260  211.4480  155.5050 C   0  0  0  0  0  3  0  0  0  0  0  0
  160.9680  208.8870  152.9420 C   0  0  0  0  0  3  0  0  0  0  0  0
  160.0900  209.2510  156.5230 C   0  0  0  0  0  3  0  0  0  0  0  0
  160.4180  208.6620  155.2990 C   0  0  0  0  0  0  0  0  0  0  0  0
  160.5130  207.2720  155.1870 C   0  0  0  0  0  3  0  0  0  0  0  0
  160.6490  209.4750  154.1670 C   0  0  0  0  0  0  0  0  0  0  0  0
  159.9930  210.6430  156.6250 C   0  0  0  0  0  3  0  0  0  0  0  0
  160.5520  210.8650  154.2760 C   0  0  0  0  0  3  0  0  0  0  0  0
  162.2680  208.2530  149.6890 C   0  0  1  0  0  3  0  0  0  0  0  0
  161.0010  207.6750  150.2870 C   0  0  1  0  0  3  0  0  0  0  0  0
  161.6030  207.0540  149.0430 C   0  0  0  0  0  2  0  0  0  0  0  0
  162.1950  210.6270  149.6930 O   0  0  0  0  0  1  0  0  0  0  0  0
  161.9160  209.5060  148.9140 C   0  0  0  0  0  2  0  0  0  0  0  0
  161.9720  204.6190  151.3910 C   0  0  0  0  0  2  0  0  0  0  0  0
  161.5250  203.1730  151.5910 C   0  0  1  0  0  3  0  0  0  0  0  0
  160.4280  203.1180  152.4510 O   0  0  0  0  0  1  0  0  0  0  0  0
  161.2190  202.4280  150.2870 C   0  0  1  0  0  3  0  0  0  0  0  0
  160.4530  201.2860  150.5310 O   0  0  0  0  0  1  0  0  0  0  0  0
  160.5170  203.3060  149.2510 C   0  0  0  0  0  2  0  0  0  0  0  0
  160.9020  202.9830  147.8040 C   0  0  1  0  0  3  0  0  0  0  0  0
  161.9800  203.9200  147.2780 C   0  0  0  0  0  2  0  0  0  0  0  0
  161.6720  204.3260  145.8500 C   0  0  0  0  0  3  0  0  0  0  0  0
  162.5260  205.5220  145.4830 C   0  0  0  0  0  2  0  0  0  0  0  0
  161.0720  205.7170  145.8450 C   0  0  0  0  0  2  0  0  0  0  0  0
  161.3290  201.5970  147.6840 N   0  0  0  0  0  2  0  0  0  0  0  0
  160.3290  201.3110  145.6420 O   0  0  0  0  0  0  0  0  0  0  0  0
  161.4890  199.5320  146.4400 O   0  0  0  0  0  0  0  0  0  0  0  0
  161.0130  200.8170  146.5610 N   0  0  0  0  0  0  0  0  0  0  0  0
  2  1  1  6  0  0  0
  2  3  1  0  0  0  0
  3  6  2  0  0  0  0
  3  4  1  0  0  0  0
  4  9  2  0  0  0  0
  5 11  1  0  0  0  0
  6 10  1  0  0  0  0
  7 11  2  0  0  0  0
  8  7  1  0  0  0  0
  9  8  1  0  0  0  0
 10 12  1  0  0  0  0
 10  8  2  0  0  0  0
 12  5  2  0  0  0  0
 13 17  1  6  0  0  0
 13 14  1  0  0  0  0
 14  2  1  1  0  0  0
 15 13  1  0  0  0  0
 15 14  1  0  0  0  0
 17 16  1  0  0  0  0
 18  1  1  0  0  0  0
 18 19  1  0  0  0  0
 19 20  1  1  0  0  0
 21 22  1  1  0  0  0
 21 19  1  0  0  0  0
 23 21  1  0  0  0  0
 24 25  1  1  0  0  0
 24 23  1  0  0  0  0
 26 25  1  0  0  0  0
 27 28  1  0  0  0  0
 27 26  1  0  0  0  0
 28 26  1  0  0  0  0
 29 24  1  0  0  0  0
 30 32  2  0  0  0  0
 31 32  2  0  0  0  0
 32 29  1  0  0  0  0
M  END
>  <MODEL>
5

>  <REMARK>
 VINA RESULT:      -7.3      4.340      8.901
  Name = 
  13 active torsions:
  status: ('A' for Active; 'I' for Inactive)
    1  A    between atoms: O_1  and  C_5
    2  A    between atoms: O_1  and  C_30
    3  A    between atoms: C_2  and  C_5
    4  A    between atoms: C_3  and  C_8
    5  A    between atoms: C_3  and  C_20
    6  A    between atoms: C_4  and  C_24
    7  A    between atoms: C_4  and  C_30
    8  A    between atoms: C_5  and  C_14
    9  A    between atoms: C_13  and  C_29
   10  A    between atoms: N_15  and  C_20
   11  A    between atoms: N_15  and  N_26
   12  A    between atoms: C_16  and  C_20
   13  A    between atoms: C_16  and  C_24
                            x       y       z     vdW  Elec       q    Type
                         _______ _______ _______ _____ _____    ______ ____

>  <TORSDO>
F 13

$$$$
=
 OpenBabel11062408333D

 32 35  0  0  1  0  0  0  0  0999 V2000
  160.9040  207.6190  151.1040 O   0  0  0  0  0  0  0  0  0  0  0  0
  161.3050  206.3170  150.7210 C   0  0  2  0  0  3  0  0  0  0  0  0
  161.3080  206.1100  149.2280 C   0  0  0  0  0  0  0  0  0  0  0  0
  161.2290  207.2270  148.3870 C   0  0  0  0  0  3  0  0  0  0  0  0
  161.2060  203.2080  145.3460 C   0  0  0  0  0  3  0  0  0  0  0  0
  161.3110  204.8200  148.6730 C   0  0  0  0  0  3  0  0  0  0  0  0
  161.1220  205.6150  145.0590 C   0  0  0  0  0  3  0  0  0  0  0  0
  161.1850  205.7830  146.4450 C   0  0  0  0  0  0  0  0  0  0  0  0
  161.1720  207.0650  147.0010 C   0  0  0  0  0  3  0  0  0  0  0  0
  161.2570  204.6520  147.2880 C   0  0  0  0  0  0  0  0  0  0  0  0
  161.1310  204.3270  144.5110 C   0  0  0  0  0  3  0  0  0  0  0  0
  161.2670  203.3690  146.7350 C   0  0  0  0  0  3  0  0  0  0  0  0
  161.6000  204.0900  151.7870 C   0  0  1  0  0  3  0  0  0  0  0  0
  160.6130  205.2080  151.5160 C   0  0  1  0  0  3  0  0  0  0  0  0
  161.2560  205.0790  152.8820 C   0  0  0  0  0  2  0  0  0  0  0  0
  161.1410  201.8990  150.9930 O   0  0  0  0  0  1  0  0  0  0  0  0
  160.8330  202.8030  152.0070 C   0  0  0  0  0  2  0  0  0  0  0  0
  161.8590  208.1460  151.9950 C   0  0  0  0  0  2  0  0  0  0  0  0
  162.0990  209.6300  151.7280 C   0  0  1  0  0  3  0  0  0  0  0  0
  161.9570  209.9090  150.3680 O   0  0  0  0  0  1  0  0  0  0  0  0
  161.2150  210.5650  152.5600 C   0  0  1  0  0  3  0  0  0  0  0  0
  159.8640  210.2420  152.4070 O   0  0  0  0  0  1  0  0  0  0  0  0
  161.5790  210.5640  154.0450 C   0  0  0  0  0  2  0  0  0  0  0  0
  160.3680  210.4810  154.9790 C   0  0  1  0  0  3  0  0  0  0  0  0
  160.6620  209.6530  156.2220 C   0  0  0  0  0  2  0  0  0  0  0  0
  159.7320  208.4580  156.2880 C   0  0  0  0  0  3  0  0  0  0  0  0
  160.4530  207.3090  156.9640 C   0  0  0  0  0  2  0  0  0  0  0  0
  160.3100  207.3290  155.4600 C   0  0  0  0  0  2  0  0  0  0  0  0
  159.9150  211.8140  155.3520 N   0  0  0  0  0  2  0  0  0  0  0  0
  157.7060  211.3240  154.9950 O   0  0  0  0  0  0  0  0  0  0  0  0
  158.1560  213.4320  155.7010 O   0  0  0  0  0  0  0  0  0  0  0  0
  158.5590  212.1720  155.3240 N   0  0  0  0  0  0  0  0  0  0  0  0
  1 18  1  0  0  0  0
  2  1  1  6  0  0  0
  3  2  1  0  0  0  0
  4  3  2  0  0  0  0
  5 12  2  0  0  0  0
  6  3  1  0  0  0  0
  7  8  1  0  0  0  0
  8  9  2  0  0  0  0
  8 10  1  0  0  0  0
  9  4  1  0  0  0  0
 10  6  2  0  0  0  0
 11  7  2  0  0  0  0
 11  5  1  0  0  0  0
 12 10  1  0  0  0  0
 13 17  1  1  0  0  0
 13 15  1  0  0  0  0
 14  2  1  6  0  0  0
 14 13  1  0  0  0  0
 14 15  1  0  0  0  0
 16 17  1  0  0  0  0
 19 20  1  6  0  0  0
 19 18  1  0  0  0  0
 19 21  1  0  0  0  0
 21 22  1  1  0  0  0
 21 23  1  0  0  0  0
 24 23  1  6  0  0  0
 24 29  1  0  0  0  0
 24 25  1  0  0  0  0
 25 26  1  0  0  0  0
 26 27  1  0  0  0  0
 28 26  1  0  0  0  0
 28 27  1  0  0  0  0
 30 32  2  0  0  0  0
 32 29  1  0  0  0  0
 32 31  2  0  0  0  0
M  END
>  <MODEL>
6

>  <REMARK>
 VINA RESULT:      -6.9      2.303      4.324
  Name = 
  13 active torsions:
  status: ('A' for Active; 'I' for Inactive)
    1  A    between atoms: O_1  and  C_5
    2  A    between atoms: O_1  and  C_30
    3  A    between atoms: C_2  and  C_5
    4  A    between atoms: C_3  and  C_8
    5  A    between atoms: C_3  and  C_20
    6  A    between atoms: C_4  and  C_24
    7  A    between atoms: C_4  and  C_30
    8  A    between atoms: C_5  and  C_14
    9  A    between atoms: C_13  and  C_29
   10  A    between atoms: N_15  and  C_20
   11  A    between atoms: N_15  and  N_26
   12  A    between atoms: C_16  and  C_20
   13  A    between atoms: C_16  and  C_24
                            x       y       z     vdW  Elec       q    Type
                         _______ _______ _______ _____ _____    ______ ____

>  <TORSDO>
F 13

$$$$
=
 OpenBabel11062408333D

 32 35  0  0  1  0  0  0  0  0999 V2000
  162.3740  207.7040  151.3180 O   0  0  0  0  0  0  0  0  0  0  0  0
  161.8720  206.7860  152.2710 C   0  0  2  0  0  3  0  0  0  0  0  0
  161.4840  205.4590  151.6740 C   0  0  0  0  0  0  0  0  0  0  0  0
  161.1720  204.3950  152.5290 C   0  0  0  0  0  3  0  0  0  0  0  0
  160.9010  202.5300  147.8550 C   0  0  0  0  0  3  0  0  0  0  0  0
  161.5030  205.2520  150.2850 C   0  0  0  0  0  3  0  0  0  0  0  0
  160.5710  201.6700  150.0990 C   0  0  0  0  0  3  0  0  0  0  0  0
  160.8730  202.9290  150.6260 C   0  0  0  0  0  0  0  0  0  0  0  0
  160.8640  203.1360  152.0080 C   0  0  0  0  0  3  0  0  0  0  0  0
  161.1940  203.9970  149.7580 C   0  0  0  0  0  0  0  0  0  0  0  0
  160.5870  201.4720  148.7140 C   0  0  0  0  0  3  0  0  0  0  0  0
  161.2060  203.7920  148.3760 C   0  0  0  0  0  3  0  0  0  0  0  0
  161.1900  207.0780  154.6450 C   0  0  1  0  0  3  0  0  0  0  0  0
  160.8250  207.3940  153.2080 C   0  0  1  0  0  3  0  0  0  0  0  0
  161.4700  208.4550  154.0770 C   0  0  0  0  0  2  0  0  0  0  0  0
  160.2810  207.1020  156.8400 O   0  0  0  0  0  1  0  0  0  0  0  0
  159.9340  207.1240  155.4900 C   0  0  0  0  0  2  0  0  0  0  0  0
  161.3120  208.5020  150.8520 C   0  0  0  0  0  2  0  0  0  0  0  0
  161.7800  209.9280  150.5680 C   0  0  1  0  0  3  0  0  0  0  0  0
  162.6860  210.3450  151.5430 O   0  0  0  0  0  1  0  0  0  0  0  0
  162.3750  210.1220  149.1680 C   0  0  1  0  0  3  0  0  0  0  0  0
  161.5680  209.5280  148.1950 O   0  0  0  0  0  1  0  0  0  0  0  0
  162.6060  211.5920  148.8180 C   0  0  0  0  0  2  0  0  0  0  0  0
  161.3890  212.2770  148.1880 C   0  0  1  0  0  3  0  0  0  0  0  0
  160.9940  213.5390  148.9410 C   0  0  0  0  0  2  0  0  0  0  0  0
  159.8200  213.2570  149.8580 C   0  0  0  0  0  3  0  0  0  0  0  0
  158.8870  214.4510  149.8470 C   0  0  0  0  0  2  0  0  0  0  0  0
  159.8340  214.2440  151.0060 C   0  0  0  0  0  2  0  0  0  0  0  0
  161.6390  212.5770  146.7860 N   0  0  0  0  0  2  0  0  0  0  0  0
  160.8430  213.0230  144.6840 O   0  0  0  0  0  0  0  0  0  0  0  0
  159.3340  212.2060  146.1670 O   0  0  0  0  0  0  0  0  0  0  0  0
  160.6010  212.6290  145.8420 N   0  0  0  0  0  0  0  0  0  0  0  0
  2  1  1  6  0  0  0
  3  2  1  0  0  0  0
  3  4  1  0  0  0  0
  5 12  2  0  0  0  0
  5 11  1  0  0  0  0
  6  3  2  0  0  0  0
  7  8  1  0  0  0  0
  8  9  1  0  0  0  0
  9  4  2  0  0  0  0
 10  6  1  0  0  0  0
 10  8  2  0  0  0  0
 11  7  2  0  0  0  0
 12 10  1  0  0  0  0
 13 17  1  1  0  0  0
 14  2  1  6  0  0  0
 14 15  1  0  0  0  0
 14 13  1  0  0  0  0
 15 13  1  0  0  0  0
 17 16  1  0  0  0  0
 18  1  1  0  0  0  0
 19 18  1  0  0  0  0
 19 20  1  1  0  0  0
 21 22  1  6  0  0  0
 21 19  1  0  0  0  0
 23 21  1  0  0  0  0
 24 23  1  1  0  0  0
 24 25  1  0  0  0  0
 25 26  1  0  0  0  0
 26 28  1  0  0  0  0
 27 26  1  0  0  0  0
 27 28  1  0  0  0  0
 29 24  1  0  0  0  0
 30 32  2  0  0  0  0
 32 31  2  0  0  0  0
 32 29  1  0  0  0  0
M  END
>  <MODEL>
7

>  <REMARK>
 VINA RESULT:      -6.9      3.162      5.487
  Name = 
  13 active torsions:
  status: ('A' for Active; 'I' for Inactive)
    1  A    between atoms: O_1  and  C_5
    2  A    between atoms: O_1  and  C_30
    3  A    between atoms: C_2  and  C_5
    4  A    between atoms: C_3  and  C_8
    5  A    between atoms: C_3  and  C_20
    6  A    between atoms: C_4  and  C_24
    7  A    between atoms: C_4  and  C_30
    8  A    between atoms: C_5  and  C_14
    9  A    between atoms: C_13  and  C_29
   10  A    between atoms: N_15  and  C_20
   11  A    between atoms: N_15  and  N_26
   12  A    between atoms: C_16  and  C_20
   13  A    between atoms: C_16  and  C_24
                            x       y       z     vdW  Elec       q    Type
                         _______ _______ _______ _____ _____    ______ ____

>  <TORSDO>
F 13

$$$$
=
 OpenBabel11062408333D

 32 35  0  0  1  0  0  0  0  0999 V2000
  162.5020  208.3020  149.9270 O   0  0  0  0  0  0  0  0  0  0  0  0
  162.1560  209.5690  150.4520 C   0  0  2  0  0  3  0  0  0  0  0  0
  161.5330  209.4960  151.8230 C   0  0  0  0  0  0  0  0  0  0  0  0
  161.1030  210.6780  152.4370 C   0  0  0  0  0  3  0  0  0  0  0  0
  160.2970  207.0090  155.7960 C   0  0  0  0  0  3  0  0  0  0  0  0
  161.4460  208.2800  152.5190 C   0  0  0  0  0  3  0  0  0  0  0  0
  159.9550  209.4090  155.7170 C   0  0  0  0  0  3  0  0  0  0  0  0
  160.4770  209.4420  154.4210 C   0  0  0  0  0  0  0  0  0  0  0  0
  160.5740  210.6520  153.7290 C   0  0  0  0  0  3  0  0  0  0  0  0
  160.9160  208.2460  153.8100 C   0  0  0  0  0  0  0  0  0  0  0  0
  159.8660  208.1930  156.4040 C   0  0  0  0  0  3  0  0  0  0  0  0
  160.8240  207.0350  154.5010 C   0  0  0  0  0  3  0  0  0  0  0  0
  162.1090  211.7910  149.3360 C   0  0  1  0  0  3  0  0  0  0  0  0
  161.4030  210.4550  149.4570 C   0  0  1  0  0  3  0  0  0  0  0  0
  162.2840  210.7410  148.2580 C   0  0  0  0  0  2  0  0  0  0  0  0
  161.6730  214.1020  149.0010 O   0  0  0  0  0  1  0  0  0  0  0  0
  161.1120  212.8320  148.8730 C   0  0  0  0  0  2  0  0  0  0  0  0
  161.3770  207.7510  149.2860 C   0  0  0  0  0  2  0  0  0  0  0  0
  161.7700  207.0590  147.9830 C   0  0  1  0  0  3  0  0  0  0  0  0
  163.1000  206.6430  148.0360 O   0  0  0  0  0  1  0  0  0  0  0  0
  160.8590  205.8870  147.6000 C   0  0  1  0  0  3  0  0  0  0  0  0
  160.0700  206.2080  146.4930 O   0  0  0  0  0  1  0  0  0  0  0  0
  161.6320  204.5970  147.3240 C   0  0  0  0  0  2  0  0  0  0  0  0
  161.4750  203.5350  148.4160 C   0  0  1  0  0  3  0  0  0  0  0  0
  160.7010  204.0620  149.6160 C   0  0  0  0  0  2  0  0  0  0  0  0
  161.6380  204.2850  150.7870 C   0  0  0  0  0  3  0  0  0  0  0  0
  161.4160  203.1900  151.8100 C   0  0  0  0  0  2  0  0  0  0  0  0
  160.8220  204.5610  152.0330 C   0  0  0  0  0  2  0  0  0  0  0  0
  160.8350  202.3410  147.8820 N   0  0  0  0  0  2  0  0  0  0  0  0
  161.5790  200.2150  147.4620 O   0  0  0  0  0  0  0  0  0  0  0  0
  161.1830  200.7200  149.6380 O   0  0  0  0  0  0  0  0  0  0  0  0
  161.1980  201.0530  148.3030 N   0  0  0  0  0  0  0  0  0  0  0  0
  2  1  1  6  0  0  0
  2  3  1  0  0  0  0
  3  4  2  0  0  0  0
  3  6  1  0  0  0  0
  4  9  1  0  0  0  0
  5 11  1  0  0  0  0
  6 10  2  0  0  0  0
  7 11  2  0  0  0  0
  8  7  1  0  0  0  0
  9  8  2  0  0  0  0
 10  8  1  0  0  0  0
 10 12  1  0  0  0  0
 12  5  2  0  0  0  0
 13 17  1  6  0  0  0
 13 14  1  0  0  0  0
 14  2  1  1  0  0  0
 15 13  1  0  0  0  0
 15 14  1  0  0  0  0
 17 16  1  0  0  0  0
 18  1  1  0  0  0  0
 19 20  1  1  0  0  0
 19 18  1  0  0  0  0
 21 22  1  6  0  0  0
 21 19  1  0  0  0  0
 23 21  1  0  0  0  0
 24 23  1  6  0  0  0
 24 25  1  0  0  0  0
 25 26  1  0  0  0  0
 26 27  1  0  0  0  0
 26 28  1  0  0  0  0
 27 28  1  0  0  0  0
 29 32  1  0  0  0  0
 29 24  1  0  0  0  0
 30 32  2  0  0  0  0
 32 31  2  0  0  0  0
M  END
>  <MODEL>
8

>  <REMARK>
 VINA RESULT:      -6.8      4.001      8.326
  Name = 
  13 active torsions:
  status: ('A' for Active; 'I' for Inactive)
    1  A    between atoms: O_1  and  C_5
    2  A    between atoms: O_1  and  C_30
    3  A    between atoms: C_2  and  C_5
    4  A    between atoms: C_3  and  C_8
    5  A    between atoms: C_3  and  C_20
    6  A    between atoms: C_4  and  C_24
    7  A    between atoms: C_4  and  C_30
    8  A    between atoms: C_5  and  C_14
    9  A    between atoms: C_13  and  C_29
   10  A    between atoms: N_15  and  C_20
   11  A    between atoms: N_15  and  N_26
   12  A    between atoms: C_16  and  C_20
   13  A    between atoms: C_16  and  C_24
                            x       y       z     vdW  Elec       q    Type
                         _______ _______ _______ _____ _____    ______ ____

>  <TORSDO>
F 13

$$$$
=
 OpenBabel11062408333D

 32 35  0  0  1  0  0  0  0  0999 V2000
  162.4700  209.7900  151.5920 O   0  0  0  0  0  0  0  0  0  0  0  0
  161.6780  209.1710  152.5870 C   0  0  2  0  0  3  0  0  0  0  0  0
  161.4280  207.7080  152.3250 C   0  0  0  0  0  0  0  0  0  0  0  0
  161.3800  206.8230  153.4090 C   0  0  0  0  0  3  0  0  0  0  0  0
  160.8580  203.9780  149.2810 C   0  0  0  0  0  3  0  0  0  0  0  0
  161.3180  207.2120  151.0160 C   0  0  0  0  0  3  0  0  0  0  0  0
  160.9210  203.5870  151.6740 C   0  0  0  0  0  3  0  0  0  0  0  0
  161.0870  204.9570  151.8950 C   0  0  0  0  0  0  0  0  0  0  0  0
  161.2060  205.4530  153.1960 C   0  0  0  0  0  3  0  0  0  0  0  0
  161.1430  205.8440  150.7960 C   0  0  0  0  0  0  0  0  0  0  0  0
  160.8070  203.0980  150.3680 C   0  0  0  0  0  3  0  0  0  0  0  0
  161.0270  205.3500  149.4950 C   0  0  0  0  0  3  0  0  0  0  0  0
  160.4810  210.3430  154.4260 C   0  0  1  0  0  3  0  0  0  0  0  0
  160.4280  209.9740  152.9570 C   0  0  1  0  0  3  0  0  0  0  0  0
  160.8250  211.3760  153.3720 C   0  0  0  0  0  2  0  0  0  0  0  0
  158.9270  210.0170  156.1930 O   0  0  0  0  0  1  0  0  0  0  0  0
  159.0700  210.5760  154.9240 C   0  0  0  0  0  2  0  0  0  0  0  0
  161.6250  210.4660  150.6910 C   0  0  0  0  0  2  0  0  0  0  0  0
  162.2890  210.6200  149.3250 C   0  0  1  0  0  3  0  0  0  0  0  0
  161.9580  209.5450  148.5000 O   0  0  0  0  0  1  0  0  0  0  0  0
  161.9740  211.9460  148.6250 C   0  0  1  0  0  3  0  0  0  0  0  0
  163.1480  212.6100  148.2610 O   0  0  0  0  0  1  0  0  0  0  0  0
  161.0790  211.7740  147.3970 C   0  0  0  0  0  2  0  0  0  0  0  0
  160.0710  212.9110  147.2020 C   0  0  1  0  0  3  0  0  0  0  0  0
  159.5960  213.4860  148.5300 C   0  0  0  0  0  2  0  0  0  0  0  0
  158.1940  214.0460  148.3870 C   0  0  0  0  0  3  0  0  0  0  0  0
  157.2750  213.3240  149.3510 C   0  0  0  0  0  2  0  0  0  0  0  0
  157.2700  212.9560  147.8860 C   0  0  0  0  0  2  0  0  0  0  0  0
  160.6360  213.9600  146.3670 N   0  0  0  0  0  2  0  0  0  0  0  0
  162.6310  213.9320  145.2400 O   0  0  0  0  0  0  0  0  0  0  0  0
  160.8530  213.0560  144.1370 O   0  0  0  0  0  0  0  0  0  0  0  0
  161.4120  213.6700  145.2340 N   0  0  0  0  0  0  0  0  0  0  0  0
  2  1  1  6  0  0  0
  3  2  1  0  0  0  0
  3  4  1  0  0  0  0
  5 12  2  0  0  0  0
  5 11  1  0  0  0  0
  6  3  2  0  0  0  0
  7  8  1  0  0  0  0
  8  9  1  0  0  0  0
  9  4  2  0  0  0  0
 10  6  1  0  0  0  0
 10  8  2  0  0  0  0
 11  7  2  0  0  0  0
 12 10  1  0  0  0  0
 13 17  1  6  0  0  0
 14  2  1  1  0  0  0
 14 15  1  0  0  0  0
 14 13  1  0  0  0  0
 15 13  1  0  0  0  0
 17 16  1  0  0  0  0
 18  1  1  0  0  0  0
 19 20  1  6  0  0  0
 19 18  1  0  0  0  0
 21 22  1  6  0  0  0
 21 19  1  0  0  0  0
 23 21  1  0  0  0  0
 24 23  1  1  0  0  0
 24 25  1  0  0  0  0
 26 25  1  0  0  0  0
 26 27  1  0  0  0  0
 28 26  1  0  0  0  0
 28 27  1  0  0  0  0
 29 24  1  0  0  0  0
 31 32  2  0  0  0  0
 32 30  2  0  0  0  0
 32 29  1  0  0  0  0
M  END
>  <MODEL>
9

>  <REMARK>
 VINA RESULT:      -6.7      3.721      6.260
  Name = 
  13 active torsions:
  status: ('A' for Active; 'I' for Inactive)
    1  A    between atoms: O_1  and  C_5
    2  A    between atoms: O_1  and  C_30
    3  A    between atoms: C_2  and  C_5
    4  A    between atoms: C_3  and  C_8
    5  A    between atoms: C_3  and  C_20
    6  A    between atoms: C_4  and  C_24
    7  A    between atoms: C_4  and  C_30
    8  A    between atoms: C_5  and  C_14
    9  A    between atoms: C_13  and  C_29
   10  A    between atoms: N_15  and  C_20
   11  A    between atoms: N_15  and  N_26
   12  A    between atoms: C_16  and  C_20
   13  A    between atoms: C_16  and  C_24
                            x       y       z     vdW  Elec       q    Type
                         _______ _______ _______ _____ _____    ______ ____

>  <TORSDO>
F 13

$$$$
