=
 OpenBabel11062410163D

 43 47  0  0  1  0  0  0  0  0999 V2000
  160.8540  202.4110  149.7080 C   0  0  0  0  0  0  0  0  0  0  0  0
  161.3290  206.9060  151.9570 C   0  0  0  0  0  0  0  0  0  0  0  0
  161.7440  208.8110  149.9390 C   0  0  0  0  0  0  0  0  0  0  0  0
  161.0010  204.2100  151.3250 C   0  0  0  0  0  0  0  0  0  0  0  0
  161.0530  203.3220  148.6670 C   0  0  0  0  0  3  0  0  0  0  0  0
  160.6790  201.0950  149.4300 F   0  0  0  0  0  0  0  0  0  0  0  0
  161.2050  205.1400  150.2770 C   0  0  0  0  0  0  0  0  0  0  0  0
  160.8280  202.8530  151.0340 C   0  0  0  0  0  3  0  0  0  0  0  0
  161.2290  204.6800  148.9480 C   0  0  0  0  0  3  0  0  0  0  0  0
  161.5870  207.4660  149.6020 C   0  0  0  0  0  3  0  0  0  0  0  0
  161.3730  206.5010  150.5990 C   0  0  0  0  0  0  0  0  0  0  0  0
  161.1260  205.9380  152.9500 C   0  0  0  0  0  3  0  0  0  0  0  0
  161.4930  208.2630  152.2980 C   0  0  0  0  0  0  0  0  0  0  0  0
  161.6990  209.2050  151.2790 C   0  0  0  0  0  3  0  0  0  0  0  0
  160.9690  204.6300  152.6180 N   0  0  0  0  0  0  0  0  0  0  0  0
  161.9970  209.8150  148.8710 C   0  0  0  0  0  2  0  0  0  0  0  0
  162.0400  211.2120  149.4670 C   0  0  0  0  0  2  0  0  0  0  0  0
  161.1440  213.6430  148.7730 O   0  0  0  0  0  0  0  0  0  0  0  0
  161.8020  212.4250  148.1880 S   0  0  0  0  0  0  0  0  0  0  0  0
  163.1300  212.8070  147.5970 O   0  0  0  0  0  0  0  0  0  0  0  0
  160.7650  211.7350  146.9160 C   0  0  0  0  0  2  0  0  0  0  0  0
  160.1720  212.8060  146.1320 N   0  0  0  0  0  0  0  0  0  0  0  0
  158.6260  214.1440  144.2240 C   0  0  0  0  0  2  0  0  0  0  0  0
  159.4020  212.9250  143.7260 C   0  0  2  0  0  3  0  0  0  0  0  0
  158.7250  212.7270  146.3370 C   0  0  0  0  0  2  0  0  0  0  0  0
  160.5430  212.5780  144.7210 C   0  0  1  0  0  3  0  0  0  0  0  0
  161.8130  213.3680  144.4210 C   0  0  0  0  0  1  0  0  0  0  0  0
  158.0190  213.8720  145.6070 C   0  0  0  0  0  2  0  0  0  0  0  0
  159.8490  213.0720  142.2660 C   0  0  2  0  0  3  0  0  0  0  0  0
  159.5290  211.6300  140.4800 C   0  0  0  0  0  0  0  0  0  0  0  0
  158.6510  212.7120  140.3390 N   0  0  0  0  0  0  0  0  0  0  0  0
  159.6090  210.6920  139.6460 O   0  0  0  0  0  0  0  0  0  0  0  0
  158.7430  213.5820  141.4310 N   0  0  0  0  0  0  0  0  0  0  0  0
  160.3180  211.7220  141.7060 C   0  0  0  0  0  2  0  0  0  0  0  0
  161.4810  208.6650  153.6790 N   0  0  0  0  0  2  0  0  0  0  0  0
  161.1360  209.9990  154.1810 C   0  0  2  0  0  3  0  0  0  0  0  0
  162.2350  210.5210  155.0870 C   0  0  0  0  0  1  0  0  0  0  0  0
  159.8640  209.9800  154.8920 N   0  0  0  0  0  2  0  0  0  0  0  0
  159.0830  211.1210  154.4340 C   0  0  0  0  0  2  0  0  0  0  0  0
  158.9480  211.0910  152.9180 C   0  0  0  0  0  2  0  0  0  0  0  0
  157.8040  213.2590  152.4100 O   0  0  0  0  0  1  0  0  0  0  0  0
  158.9520  212.4770  152.3560 C   0  0  0  0  0  0  0  0  0  0  0  0
  160.0040  212.9490  151.8580 O   0  0  0  0  0  0  0  0  0  0  0  0
  1  8  1  0  0  0  0
  2 13  1  0  0  0  0
  2 12  1  0  0  0  0
  3 14  1  0  0  0  0
  4 15  1  0  0  0  0
  5  9  1  0  0  0  0
  5  1  2  0  0  0  0
  6  1  1  0  0  0  0
  7 11  1  0  0  0  0
  7  4  1  0  0  0  0
  8  4  2  0  0  0  0
  9  7  2  0  0  0  0
 10  3  2  0  0  0  0
 10 11  1  0  0  0  0
 11  2  2  0  0  0  0
 13 35  1  0  0  0  0
 14 13  2  0  0  0  0
 15 12  2  0  0  0  0
 16 17  1  0  0  0  0
 16  3  1  0  0  0  0
 19 18  2  0  0  0  0
 19 17  1  0  0  0  0
 20 19  2  0  0  0  0
 21 19  1  0  0  0  0
 22 25  1  0  0  0  0
 22 21  1  0  0  0  0
 23 28  1  0  0  0  0
 24 23  1  1  0  0  0
 24 26  1  0  0  0  0
 26 27  1  6  0  0  0
 26 22  1  0  0  0  0
 28 25  1  0  0  0  0
 29 34  1  6  0  0  0
 29 24  1  0  0  0  0
 30 34  1  0  0  0  0
 31 30  1  0  0  0  0
 31 33  2  0  0  0  0
 32 30  2  0  0  0  0
 33 29  1  0  0  0  0
 35 36  1  0  0  0  0
 36 38  1  0  0  0  0
 36 37  1  1  0  0  0
 39 38  1  0  0  0  0
 40 39  1  0  0  0  0
 42 41  1  0  0  0  0
 42 40  1  0  0  0  0
 43 42  2  0  0  0  0
M  END
>  <MODEL>
1

>  <REMARK>
 VINA RESULT:      -8.4      0.000      0.000
  Name = 
  12 active torsions:
  status: ('A' for Active; 'I' for Inactive)
    1  A    between atoms: C_1  and  N_9
    2  A    between atoms: C_1  and  N_35
    3  A    between atoms: C_2  and  C_6
    4  A    between atoms: C_2  and  C_13
    5  A    between atoms: C_3  and  N_4
    6  A    between atoms: C_3  and  S_12
    7  A    between atoms: C_6  and  S_12
    8  A    between atoms: N_9  and  C_32
    9  A    between atoms: C_11  and  C_14
   10  A    between atoms: C_25  and  C_32
   11  A    between atoms: C_25  and  C_37
   12  A    between atoms: C_34  and  N_35
                            x       y       z     vdW  Elec       q    Type
                         _______ _______ _______ _____ _____    ______ ____

>  <TORSDO>
F 12

$$$$
=
 OpenBabel11062410163D

 43 47  0  0  1  0  0  0  0  0999 V2000
  160.6230  207.7190  155.0570 C   0  0  0  0  0  0  0  0  0  0  0  0
  161.8680  207.3400  150.1780 C   0  0  0  0  0  0  0  0  0  0  0  0
  162.1770  209.9480  149.1890 C   0  0  0  0  0  0  0  0  0  0  0  0
  161.1650  206.9000  152.8410 C   0  0  0  0  0  0  0  0  0  0  0  0
  160.7710  209.0350  154.6130 C   0  0  0  0  0  3  0  0  0  0  0  0
  160.2940  207.4740  156.3490 F   0  0  0  0  0  0  0  0  0  0  0  0
  161.3150  208.2320  152.3820 C   0  0  0  0  0  0  0  0  0  0  0  0
  160.8200  206.6540  154.1730 C   0  0  0  0  0  3  0  0  0  0  0  0
  161.1140  209.2940  153.2820 C   0  0  0  0  0  3  0  0  0  0  0  0
  161.8210  209.7490  150.5240 C   0  0  0  0  0  3  0  0  0  0  0  0
  161.6680  208.4510  151.0360 C   0  0  0  0  0  0  0  0  0  0  0  0
  161.7030  206.0470  150.6910 C   0  0  0  0  0  3  0  0  0  0  0  0
  162.2220  207.5400  148.8290 C   0  0  0  0  0  0  0  0  0  0  0  0
  162.3750  208.8500  148.3490 C   0  0  0  0  0  3  0  0  0  0  0  0
  161.3590  205.8560  151.9910 N   0  0  0  0  0  0  0  0  0  0  0  0
  162.3090  211.3310  148.6580 C   0  0  0  0  0  2  0  0  0  0  0  0
  161.0940  211.6850  147.8180 C   0  0  0  0  0  2  0  0  0  0  0  0
  159.2770  213.4480  148.7050 O   0  0  0  0  0  0  0  0  0  0  0  0
  160.6460  213.3850  148.0870 S   0  0  0  0  0  0  0  0  0  0  0  0
  161.6420  214.0330  149.0070 O   0  0  0  0  0  0  0  0  0  0  0  0
  160.6390  214.2410  146.5260 C   0  0  0  0  0  2  0  0  0  0  0  0
  161.2730  213.4150  145.5110 N   0  0  0  0  0  0  0  0  0  0  0  0
  162.3680  212.5970  143.0710 C   0  0  0  0  0  2  0  0  0  0  0  0
  161.0250  213.3230  142.9960 C   0  0  2  0  0  3  0  0  0  0  0  0
  162.5060  214.1010  145.1210 C   0  0  0  0  0  2  0  0  0  0  0  0
  160.3270  213.2950  144.3840 C   0  0  1  0  0  3  0  0  0  0  0  0
  159.5020  212.0270  144.5760 C   0  0  0  0  0  1  0  0  0  0  0  0
  163.2860  213.2610  144.1060 C   0  0  0  0  0  2  0  0  0  0  0  0
  160.1560  212.8270  141.8340 C   0  0  2  0  0  3  0  0  0  0  0  0
  160.5370  212.9650  139.5510 C   0  0  0  0  0  0  0  0  0  0  0  0
  160.7730  211.6460  139.9620 N   0  0  0  0  0  0  0  0  0  0  0  0
  160.6350  213.3450  138.3570 O   0  0  0  0  0  0  0  0  0  0  0  0
  160.6330  211.5170  141.3480 N   0  0  0  0  0  0  0  0  0  0  0  0
  160.1810  213.8310  140.6730 C   0  0  0  0  0  2  0  0  0  0  0  0
  162.3920  206.4120  147.9540 N   0  0  0  0  0  2  0  0  0  0  0  0
  161.5850  206.1180  146.7660 C   0  0  2  0  0  3  0  0  0  0  0  0
  160.1600  206.5990  146.9640 C   0  0  0  0  0  1  0  0  0  0  0  0
  161.5970  204.6920  146.4620 N   0  0  0  0  0  2  0  0  0  0  0  0
  162.0710  203.9900  147.6470 C   0  0  0  0  0  2  0  0  0  0  0  0
  160.9500  203.1530  148.2450 C   0  0  0  0  0  2  0  0  0  0  0  0
  160.8380  201.4380  146.4250 O   0  0  0  0  0  0  0  0  0  0  0  0
  161.0300  201.7380  147.7680 C   0  0  0  0  0  0  0  0  0  0  0  0
  161.3000  200.8160  148.5790 O   0  0  0  0  0  1  0  0  0  0  0  0
  1  6  1  0  0  0  0
  2 12  1  0  0  0  0
  2 11  1  0  0  0  0
  3 10  1  0  0  0  0
  4  8  1  0  0  0  0
  5  1  1  0  0  0  0
  7  4  2  0  0  0  0
  7  9  1  0  0  0  0
  8  1  2  0  0  0  0
  9  5  2  0  0  0  0
 10 11  2  0  0  0  0
 11  7  1  0  0  0  0
 12 15  2  0  0  0  0
 13  2  2  0  0  0  0
 14 13  1  0  0  0  0
 14  3  2  0  0  0  0
 15  4  1  0  0  0  0
 16  3  1  0  0  0  0
 17 19  1  0  0  0  0
 17 16  1  0  0  0  0
 19 18  2  0  0  0  0
 19 20  2  0  0  0  0
 21 19  1  0  0  0  0
 22 21  1  0  0  0  0
 23 28  1  0  0  0  0
 24 23  1  1  0  0  0
 24 26  1  0  0  0  0
 25 22  1  0  0  0  0
 26 27  1  1  0  0  0
 26 22  1  0  0  0  0
 28 25  1  0  0  0  0
 29 34  1  6  0  0  0
 29 24  1  0  0  0  0
 30 31  1  0  0  0  0
 30 34  1  0  0  0  0
 31 33  2  0  0  0  0
 32 30  2  0  0  0  0
 33 29  1  0  0  0  0
 35 13  1  0  0  0  0
 36 37  1  1  0  0  0
 36 35  1  0  0  0  0
 38 36  1  0  0  0  0
 38 39  1  0  0  0  0
 39 40  1  0  0  0  0
 41 42  2  0  0  0  0
 42 40  1  0  0  0  0
 42 43  1  0  0  0  0
M  END
>  <MODEL>
2

>  <REMARK>
 VINA RESULT:      -8.2      3.514      5.826
  Name = 
  12 active torsions:
  status: ('A' for Active; 'I' for Inactive)
    1  A    between atoms: C_1  and  N_9
    2  A    between atoms: C_1  and  N_35
    3  A    between atoms: C_2  and  C_6
    4  A    between atoms: C_2  and  C_13
    5  A    between atoms: C_3  and  N_4
    6  A    between atoms: C_3  and  S_12
    7  A    between atoms: C_6  and  S_12
    8  A    between atoms: N_9  and  C_32
    9  A    between atoms: C_11  and  C_14
   10  A    between atoms: C_25  and  C_32
   11  A    between atoms: C_25  and  C_37
   12  A    between atoms: C_34  and  N_35
                            x       y       z     vdW  Elec       q    Type
                         _______ _______ _______ _____ _____    ______ ____

>  <TORSDO>
F 12

$$$$
=
 OpenBabel11062410163D

 43 47  0  0  1  0  0  0  0  0999 V2000
  161.3570  204.1700  147.5660 C   0  0  0  0  0  0  0  0  0  0  0  0
  161.5010  207.9110  150.9540 C   0  0  0  0  0  0  0  0  0  0  0  0
  162.0420  210.2830  149.5570 C   0  0  0  0  0  0  0  0  0  0  0  0
  161.3070  205.4770  149.6060 C   0  0  0  0  0  0  0  0  0  0  0  0
  161.6230  205.3240  146.8250 C   0  0  0  0  0  3  0  0  0  0  0  0
  161.2450  202.9740  146.9360 F   0  0  0  0  0  0  0  0  0  0  0  0
  161.5780  206.6520  148.8630 C   0  0  0  0  0  0  0  0  0  0  0  0
  161.2000  204.2450  148.9530 C   0  0  0  0  0  3  0  0  0  0  0  0
  161.7350  206.5610  147.4690 C   0  0  0  0  0  3  0  0  0  0  0  0
  161.9530  209.0750  148.8640 C   0  0  0  0  0  3  0  0  0  0  0  0
  161.6780  207.8800  149.5470 C   0  0  0  0  0  0  0  0  0  0  0  0
  161.2360  206.7140  151.6320 C   0  0  0  0  0  3  0  0  0  0  0  0
  161.5950  209.1300  151.6530 C   0  0  0  0  0  0  0  0  0  0  0  0
  161.8650  210.3090  150.9420 C   0  0  0  0  0  3  0  0  0  0  0  0
  161.1470  205.5390  150.9550 N   0  0  0  0  0  0  0  0  0  0  0  0
  162.3610  211.5360  148.8200 C   0  0  0  0  0  2  0  0  0  0  0  0
  161.2290  211.8860  147.8700 C   0  0  0  0  0  2  0  0  0  0  0  0
  159.5710  213.7690  148.8210 O   0  0  0  0  0  0  0  0  0  0  0  0
  160.8300  213.6130  148.0130 S   0  0  0  0  0  0  0  0  0  0  0  0
  161.9550  214.3400  148.6940 O   0  0  0  0  0  0  0  0  0  0  0  0
  160.5850  214.2930  146.3860 C   0  0  0  0  0  2  0  0  0  0  0  0
  161.2840  213.4780  145.4050 N   0  0  0  0  0  0  0  0  0  0  0  0
  162.5180  212.6830  143.0250 C   0  0  0  0  0  2  0  0  0  0  0  0
  161.1710  213.3890  142.8800 C   0  0  2  0  0  3  0  0  0  0  0  0
  162.5250  214.1840  145.0810 C   0  0  0  0  0  2  0  0  0  0  0  0
  160.4010  213.3480  144.2290 C   0  0  1  0  0  3  0  0  0  0  0  0
  159.5860  212.0660  144.3750 C   0  0  0  0  0  1  0  0  0  0  0  0
  163.3700  213.3580  144.1080 C   0  0  0  0  0  2  0  0  0  0  0  0
  160.3710  212.8830  141.6730 C   0  0  2  0  0  3  0  0  0  0  0  0
  160.8780  213.0170  139.4150 C   0  0  0  0  0  0  0  0  0  0  0  0
  161.1010  211.7010  139.8420 N   0  0  0  0  0  0  0  0  0  0  0  0
  161.0400  213.3930  138.2260 O   0  0  0  0  0  0  0  0  0  0  0  0
  160.8850  211.5750  141.2190 N   0  0  0  0  0  0  0  0  0  0  0  0
  160.4540  213.8830  140.5110 C   0  0  0  0  0  2  0  0  0  0  0  0
  161.4470  209.1520  153.0840 N   0  0  0  0  0  2  0  0  0  0  0  0
  161.0580  210.3140  153.8880 C   0  0  2  0  0  3  0  0  0  0  0  0
  162.0920  210.5790  154.9660 C   0  0  0  0  0  1  0  0  0  0  0  0
  159.7430  210.1210  154.4870 N   0  0  0  0  0  2  0  0  0  0  0  0
  158.9870  211.3530  154.3030 C   0  0  0  0  0  2  0  0  0  0  0  0
  158.5950  211.5150  152.8410 C   0  0  0  0  0  2  0  0  0  0  0  0
  157.9420  213.9240  152.6560 O   0  0  0  0  0  1  0  0  0  0  0  0
  158.8510  212.9120  152.3740 C   0  0  0  0  0  0  0  0  0  0  0  0
  159.9070  213.1800  151.7460 O   0  0  0  0  0  0  0  0  0  0  0  0
  1  8  1  0  0  0  0
  2 12  1  0  0  0  0
  2 13  1  0  0  0  0
  3 14  1  0  0  0  0
  4 15  1  0  0  0  0
  5  9  1  0  0  0  0
  5  1  2  0  0  0  0
  6  1  1  0  0  0  0
  7 11  1  0  0  0  0
  7  4  1  0  0  0  0
  8  4  2  0  0  0  0
  9  7  2  0  0  0  0
 10 11  1  0  0  0  0
 10  3  2  0  0  0  0
 11  2  2  0  0  0  0
 13 35  1  0  0  0  0
 14 13  2  0  0  0  0
 15 12  2  0  0  0  0
 16  3  1  0  0  0  0
 17 19  1  0  0  0  0
 17 16  1  0  0  0  0
 19 20  2  0  0  0  0
 19 18  2  0  0  0  0
 21 19  1  0  0  0  0
 22 21  1  0  0  0  0
 23 28  1  0  0  0  0
 24 23  1  1  0  0  0
 24 26  1  0  0  0  0
 25 22  1  0  0  0  0
 26 27  1  1  0  0  0
 26 22  1  0  0  0  0
 28 25  1  0  0  0  0
 29 34  1  6  0  0  0
 29 24  1  0  0  0  0
 30 31  1  0  0  0  0
 30 34  1  0  0  0  0
 31 33  2  0  0  0  0
 32 30  2  0  0  0  0
 33 29  1  0  0  0  0
 35 36  1  0  0  0  0
 36 38  1  0  0  0  0
 36 37  1  1  0  0  0
 39 38  1  0  0  0  0
 40 39  1  0  0  0  0
 42 41  1  0  0  0  0
 42 40  1  0  0  0  0
 43 42  2  0  0  0  0
M  END
>  <MODEL>
3

>  <REMARK>
 VINA RESULT:      -8.1      1.558      2.225
  Name = 
  12 active torsions:
  status: ('A' for Active; 'I' for Inactive)
    1  A    between atoms: C_1  and  N_9
    2  A    between atoms: C_1  and  N_35
    3  A    between atoms: C_2  and  C_6
    4  A    between atoms: C_2  and  C_13
    5  A    between atoms: C_3  and  N_4
    6  A    between atoms: C_3  and  S_12
    7  A    between atoms: C_6  and  S_12
    8  A    between atoms: N_9  and  C_32
    9  A    between atoms: C_11  and  C_14
   10  A    between atoms: C_25  and  C_32
   11  A    between atoms: C_25  and  C_37
   12  A    between atoms: C_34  and  N_35
                            x       y       z     vdW  Elec       q    Type
                         _______ _______ _______ _____ _____    ______ ____

>  <TORSDO>
F 12

$$$$
=
 OpenBabel11062410163D

 43 47  0  0  1  0  0  0  0  0999 V2000
  160.3410  208.3990  155.9080 C   0  0  0  0  0  0  0  0  0  0  0  0
  161.5020  206.3690  151.4320 C   0  0  0  0  0  0  0  0  0  0  0  0
  161.8370  208.4820  149.6170 C   0  0  0  0  0  0  0  0  0  0  0  0
  160.8360  206.8690  154.0940 C   0  0  0  0  0  0  0  0  0  0  0  0
  160.5020  209.4850  155.0430 C   0  0  0  0  0  3  0  0  0  0  0  0
  160.0290  208.6120  157.2100 F   0  0  0  0  0  0  0  0  0  0  0  0
  160.9990  207.9640  153.2110 C   0  0  0  0  0  0  0  0  0  0  0  0
  160.5070  207.0940  155.4340 C   0  0  0  0  0  3  0  0  0  0  0  0
  160.8280  209.2710  153.7000 C   0  0  0  0  0  3  0  0  0  0  0  0
  161.4990  208.7540  150.9440 C   0  0  0  0  0  3  0  0  0  0  0  0
  161.3340  207.7090  151.8660 C   0  0  0  0  0  0  0  0  0  0  0  0
  161.3250  205.3280  152.3540 C   0  0  0  0  0  3  0  0  0  0  0  0
  161.8380  206.0950  150.0920 C   0  0  0  0  0  0  0  0  0  0  0  0
  162.0040  207.1610  149.1960 C   0  0  0  0  0  3  0  0  0  0  0  0
  161.0000  205.5950  153.6450 N   0  0  0  0  0  0  0  0  0  0  0  0
  161.9820  209.6020  148.6480 C   0  0  0  0  0  2  0  0  0  0  0  0
  161.9880  210.9310  149.3830 C   0  0  0  0  0  2  0  0  0  0  0  0
  163.0420  212.6080  147.5720 O   0  0  0  0  0  0  0  0  0  0  0  0
  161.7350  212.2620  148.2300 S   0  0  0  0  0  0  0  0  0  0  0  0
  160.7410  211.8450  147.1840 O   0  0  0  0  0  0  0  0  0  0  0  0
  161.1110  213.6810  149.1060 C   0  0  0  0  0  2  0  0  0  0  0  0
  159.7730  213.4020  149.6020 N   0  0  0  0  0  0  0  0  0  0  0  0
  157.2570  213.7590  150.7690 C   0  0  0  0  0  2  0  0  0  0  0  0
  158.4410  214.3580  151.5280 C   0  0  2  0  0  3  0  0  0  0  0  0
  158.8590  214.2690  148.8570 C   0  0  0  0  0  2  0  0  0  0  0  0
  159.7660  213.7030  151.0470 C   0  0  1  0  0  3  0  0  0  0  0  0
  160.0710  212.4190  151.8120 C   0  0  0  0  0  1  0  0  0  0  0  0
  157.4090  213.9870  149.2600 C   0  0  0  0  0  2  0  0  0  0  0  0
  158.2330  214.3380  153.0470 C   0  0  2  0  0  3  0  0  0  0  0  0
  156.5650  213.3140  154.2890 C   0  0  0  0  0  0  0  0  0  0  0  0
  157.7400  212.5630  154.4210 N   0  0  0  0  0  0  0  0  0  0  0  0
  155.4900  213.0220  154.8720 O   0  0  0  0  0  0  0  0  0  0  0  0
  158.7670  213.0900  153.6300 N   0  0  0  0  0  0  0  0  0  0  0  0
  156.7420  214.4530  153.3910 C   0  0  0  0  0  2  0  0  0  0  0  0
  161.9760  204.7340  149.6480 N   0  0  0  0  0  2  0  0  0  0  0  0
  160.9390  203.9370  148.9870 C   0  0  2  0  0  3  0  0  0  0  0  0
  160.4920  202.8000  149.8870 C   0  0  0  0  0  1  0  0  0  0  0  0
  161.4120  203.4140  147.7110 N   0  0  0  0  0  2  0  0  0  0  0  0
  161.8020  204.5470  146.8840 C   0  0  0  0  0  2  0  0  0  0  0  0
  161.6500  204.1990  145.4100 C   0  0  0  0  0  2  0  0  0  0  0  0
  160.2370  206.2600  145.2690 O   0  0  0  0  0  1  0  0  0  0  0  0
  161.0880  205.3560  144.6460 C   0  0  0  0  0  0  0  0  0  0  0  0
  161.4070  205.5280  143.4420 O   0  0  0  0  0  0  0  0  0  0  0  0
  1  6  1  0  0  0  0
  2 11  1  0  0  0  0
  2 12  1  0  0  0  0
  3 10  1  0  0  0  0
  4  8  2  0  0  0  0
  5  1  2  0  0  0  0
  7  9  2  0  0  0  0
  7  4  1  0  0  0  0
  8  1  1  0  0  0  0
  9  5  1  0  0  0  0
 10 11  2  0  0  0  0
 11  7  1  0  0  0  0
 12 15  2  0  0  0  0
 13  2  2  0  0  0  0
 14  3  2  0  0  0  0
 14 13  1  0  0  0  0
 15  4  1  0  0  0  0
 16 17  1  0  0  0  0
 16  3  1  0  0  0  0
 18 19  2  0  0  0  0
 19 21  1  0  0  0  0
 19 17  1  0  0  0  0
 20 19  2  0  0  0  0
 21 22  1  0  0  0  0
 22 26  1  0  0  0  0
 24 23  1  6  0  0  0
 24 29  1  0  0  0  0
 25 28  1  0  0  0  0
 25 22  1  0  0  0  0
 26 24  1  0  0  0  0
 26 27  1  1  0  0  0
 28 23  1  0  0  0  0
 29 34  1  6  0  0  0
 29 33  1  0  0  0  0
 30 31  1  0  0  0  0
 30 32  2  0  0  0  0
 33 31  2  0  0  0  0
 34 30  1  0  0  0  0
 35 13  1  0  0  0  0
 36 35  1  0  0  0  0
 36 37  1  1  0  0  0
 38 36  1  0  0  0  0
 39 38  1  0  0  0  0
 40 39  1  0  0  0  0
 42 41  1  0  0  0  0
 42 40  1  0  0  0  0
 43 42  2  0  0  0  0
M  END
>  <MODEL>
4

>  <REMARK>
 VINA RESULT:      -7.8      4.024      7.790
  Name = 
  12 active torsions:
  status: ('A' for Active; 'I' for Inactive)
    1  A    between atoms: C_1  and  N_9
    2  A    between atoms: C_1  and  N_35
    3  A    between atoms: C_2  and  C_6
    4  A    between atoms: C_2  and  C_13
    5  A    between atoms: C_3  and  N_4
    6  A    between atoms: C_3  and  S_12
    7  A    between atoms: C_6  and  S_12
    8  A    between atoms: N_9  and  C_32
    9  A    between atoms: C_11  and  C_14
   10  A    between atoms: C_25  and  C_32
   11  A    between atoms: C_25  and  C_37
   12  A    between atoms: C_34  and  N_35
                            x       y       z     vdW  Elec       q    Type
                         _______ _______ _______ _____ _____    ______ ____

>  <TORSDO>
F 12

$$$$
=
 OpenBabel11062410163D

 43 47  0  0  1  0  0  0  0  0999 V2000
  161.1990  201.0240  148.3800 C   0  0  0  0  0  0  0  0  0  0  0  0
  161.2900  206.0010  149.2280 C   0  0  0  0  0  0  0  0  0  0  0  0
  161.2170  206.3770  152.0080 C   0  0  0  0  0  0  0  0  0  0  0  0
  161.2530  203.4350  148.1360 C   0  0  0  0  0  0  0  0  0  0  0  0
  161.1660  201.1590  149.7700 C   0  0  0  0  0  3  0  0  0  0  0  0
  161.1940  199.7890  147.8210 F   0  0  0  0  0  0  0  0  0  0  0  0
  161.2190  203.5810  149.5440 C   0  0  0  0  0  0  0  0  0  0  0  0
  161.2420  202.1590  147.5650 C   0  0  0  0  0  3  0  0  0  0  0  0
  161.1750  202.4310  150.3520 C   0  0  0  0  0  3  0  0  0  0  0  0
  161.1940  205.0840  151.4820 C   0  0  0  0  0  3  0  0  0  0  0  0
  161.2350  204.8790  150.0940 C   0  0  0  0  0  0  0  0  0  0  0  0
  161.3210  205.7910  147.8430 C   0  0  0  0  0  3  0  0  0  0  0  0
  161.3090  207.3050  149.7600 C   0  0  0  0  0  0  0  0  0  0  0  0
  161.2730  207.4780  151.1510 C   0  0  0  0  0  3  0  0  0  0  0  0
  161.3010  204.5320  147.3330 N   0  0  0  0  0  0  0  0  0  0  0  0
  161.1450  206.5760  153.4800 C   0  0  0  0  0  2  0  0  0  0  0  0
  161.2970  208.0490  153.8170 C   0  0  0  0  0  2  0  0  0  0  0  0
  159.4870  207.6220  155.7510 O   0  0  0  0  0  0  0  0  0  0  0  0
  160.7800  208.3450  155.4920 S   0  0  0  0  0  0  0  0  0  0  0  0
  161.8320  207.8490  156.4430 O   0  0  0  0  0  0  0  0  0  0  0  0
  160.5460  210.0940  155.7300 C   0  0  0  0  0  2  0  0  0  0  0  0
  159.8070  210.6470  154.6060 N   0  0  0  0  0  0  0  0  0  0  0  0
  158.7810  212.4800  152.7600 C   0  0  0  0  0  2  0  0  0  0  0  0
  158.7230  212.9000  154.2280 C   0  0  2  0  0  3  0  0  0  0  0  0
  160.7960  211.2440  153.7060 C   0  0  0  0  0  2  0  0  0  0  0  0
  158.8710  211.6540  155.1440 C   0  0  1  0  0  3  0  0  0  0  0  0
  157.5280  210.9780  155.4010 C   0  0  0  0  0  1  0  0  0  0  0  0
  160.1130  211.7860  152.4480 C   0  0  0  0  0  2  0  0  0  0  0  0
  157.5040  213.7790  154.5380 C   0  0  2  0  0  3  0  0  0  0  0  0
  155.5590  214.0770  153.3130 C   0  0  0  0  0  0  0  0  0  0  0  0
  155.2700  213.2560  154.4110 N   0  0  0  0  0  0  0  0  0  0  0  0
  154.6940  214.4410  152.4770 O   0  0  0  0  0  0  0  0  0  0  0  0
  156.4250  212.9760  155.1500 N   0  0  0  0  0  0  0  0  0  0  0  0
  156.9730  214.4380  153.2580 C   0  0  0  0  0  2  0  0  0  0  0  0
  161.3310  208.4410  148.8780 N   0  0  0  0  0  2  0  0  0  0  0  0
  162.1950  209.6180  149.0170 C   0  0  2  0  0  3  0  0  0  0  0  0
  162.3300  210.0040  150.4780 C   0  0  0  0  0  1  0  0  0  0  0  0
  161.6800  210.7420  148.2440 N   0  0  0  0  0  2  0  0  0  0  0  0
  162.6440  211.8290  148.3450 C   0  0  0  0  0  2  0  0  0  0  0  0
  161.9350  213.1720  148.2400 C   0  0  0  0  0  2  0  0  0  0  0  0
  161.7460  213.1300  145.7440 O   0  0  0  0  0  0  0  0  0  0  0  0
  161.1280  213.2500  146.9830 C   0  0  0  0  0  0  0  0  0  0  0  0
  159.8810  213.3970  147.0450 O   0  0  0  0  0  1  0  0  0  0  0  0
  1  5  1  0  0  0  0
  2 13  2  0  0  0  0
  2 11  1  0  0  0  0
  3 16  1  0  0  0  0
  4  7  2  0  0  0  0
  5  9  2  0  0  0  0
  6  1  1  0  0  0  0
  7 11  1  0  0  0  0
  7  9  1  0  0  0  0
  8  4  1  0  0  0  0
  8  1  2  0  0  0  0
 10  3  1  0  0  0  0
 11 10  2  0  0  0  0
 12  2  1  0  0  0  0
 13 14  1  0  0  0  0
 14  3  2  0  0  0  0
 15 12  2  0  0  0  0
 15  4  1  0  0  0  0
 16 17  1  0  0  0  0
 17 19  1  0  0  0  0
 19 21  1  0  0  0  0
 19 18  2  0  0  0  0
 19 20  2  0  0  0  0
 22 26  1  0  0  0  0
 22 21  1  0  0  0  0
 24 23  1  6  0  0  0
 24 29  1  0  0  0  0
 24 26  1  0  0  0  0
 25 22  1  0  0  0  0
 26 27  1  6  0  0  0
 28 23  1  0  0  0  0
 28 25  1  0  0  0  0
 29 34  1  6  0  0  0
 29 33  1  0  0  0  0
 30 31  1  0  0  0  0
 31 33  2  0  0  0  0
 32 30  2  0  0  0  0
 34 30  1  0  0  0  0
 35 36  1  0  0  0  0
 35 13  1  0  0  0  0
 36 37  1  1  0  0  0
 38 39  1  0  0  0  0
 38 36  1  0  0  0  0
 40 39  1  0  0  0  0
 41 42  2  0  0  0  0
 42 43  1  0  0  0  0
 42 40  1  0  0  0  0
M  END
>  <MODEL>
5

>  <REMARK>
 VINA RESULT:      -7.6      3.544      7.792
  Name = 
  12 active torsions:
  status: ('A' for Active; 'I' for Inactive)
    1  A    between atoms: C_1  and  N_9
    2  A    between atoms: C_1  and  N_35
    3  A    between atoms: C_2  and  C_6
    4  A    between atoms: C_2  and  C_13
    5  A    between atoms: C_3  and  N_4
    6  A    between atoms: C_3  and  S_12
    7  A    between atoms: C_6  and  S_12
    8  A    between atoms: N_9  and  C_32
    9  A    between atoms: C_11  and  C_14
   10  A    between atoms: C_25  and  C_32
   11  A    between atoms: C_25  and  C_37
   12  A    between atoms: C_34  and  N_35
                            x       y       z     vdW  Elec       q    Type
                         _______ _______ _______ _____ _____    ______ ____

>  <TORSDO>
F 12

$$$$
=
 OpenBabel11062410163D

 43 47  0  0  1  0  0  0  0  0999 V2000
  161.3320  204.0750  147.6550 C   0  0  0  0  0  0  0  0  0  0  0  0
  161.4740  207.9450  150.8950 C   0  0  0  0  0  0  0  0  0  0  0  0
  162.1310  210.2430  149.4240 C   0  0  0  0  0  0  0  0  0  0  0  0
  161.2530  205.4650  149.6390 C   0  0  0  0  0  0  0  0  0  0  0  0
  161.6560  205.1900  146.8790 C   0  0  0  0  0  3  0  0  0  0  0  0
  161.2060  202.8580  147.0700 F   0  0  0  0  0  0  0  0  0  0  0  0
  161.5830  206.6000  148.8600 C   0  0  0  0  0  0  0  0  0  0  0  0
  161.1310  204.2110  149.0320 C   0  0  0  0  0  3  0  0  0  0  0  0
  161.7830  206.4480  147.4760 C   0  0  0  0  0  3  0  0  0  0  0  0
  162.0300  209.0100  148.7770 C   0  0  0  0  0  3  0  0  0  0  0  0
  161.6960  207.8520  149.4970 C   0  0  0  0  0  0  0  0  0  0  0  0
  161.1520  206.7850  151.6110 C   0  0  0  0  0  3  0  0  0  0  0  0
  161.5810  209.1880  151.5490 C   0  0  0  0  0  0  0  0  0  0  0  0
  161.9090  210.3290  150.8010 C   0  0  0  0  0  3  0  0  0  0  0  0
  161.0500  205.5870  150.9780 N   0  0  0  0  0  0  0  0  0  0  0  0
  162.5120  211.4540  148.6500 C   0  0  0  0  0  2  0  0  0  0  0  0
  161.3240  211.9550  147.8460 C   0  0  0  0  0  2  0  0  0  0  0  0
  160.5170  214.2410  146.6960 O   0  0  0  0  0  0  0  0  0  0  0  0
  161.7620  213.4480  146.9830 S   0  0  0  0  0  0  0  0  0  0  0  0
  162.6950  214.2670  147.8290 O   0  0  0  0  0  0  0  0  0  0  0  0
  162.5680  213.0230  145.4540 C   0  0  0  0  0  2  0  0  0  0  0  0
  161.6770  213.2980  144.3380 N   0  0  0  0  0  0  0  0  0  0  0  0
  160.1180  212.9300  142.0460 C   0  0  0  0  0  2  0  0  0  0  0  0
  161.5190  212.3210  142.0100 C   0  0  2  0  0  3  0  0  0  0  0  0
  160.5050  212.4400  144.5140 C   0  0  0  0  0  2  0  0  0  0  0  0
  162.4120  212.9790  143.0980 C   0  0  1  0  0  3  0  0  0  0  0  0
  163.0760  214.2540  142.5870 C   0  0  0  0  0  1  0  0  0  0  0  0
  159.4700  212.7190  143.4210 C   0  0  0  0  0  2  0  0  0  0  0  0
  162.1220  212.3230  140.6000 C   0  0  2  0  0  3  0  0  0  0  0  0
  161.9730  210.7150  138.9370 C   0  0  0  0  0  0  0  0  0  0  0  0
  161.1320  211.7830  138.5980 N   0  0  0  0  0  0  0  0  0  0  0  0
  162.1270  209.7000  138.2110 O   0  0  0  0  0  0  0  0  0  0  0  0
  161.1200  212.7550  139.6050 N   0  0  0  0  0  0  0  0  0  0  0  0
  162.6270  210.9220  140.2260 C   0  0  0  0  0  2  0  0  0  0  0  0
  161.3860  209.2730  152.9710 N   0  0  0  0  0  2  0  0  0  0  0  0
  161.0780  210.4920  153.7240 C   0  0  2  0  0  3  0  0  0  0  0  0
  161.5590  210.3640  155.1570 C   0  0  0  0  0  1  0  0  0  0  0  0
  159.6480  210.7790  153.6970 N   0  0  0  0  0  2  0  0  0  0  0  0
  159.4180  211.9620  154.5130 C   0  0  0  0  0  2  0  0  0  0  0  0
  158.1720  211.7760  155.3680 C   0  0  0  0  0  2  0  0  0  0  0  0
  155.8670  211.0740  154.6910 O   0  0  0  0  0  1  0  0  0  0  0  0
  156.9340  211.9530  154.5490 C   0  0  0  0  0  0  0  0  0  0  0  0
  156.8440  212.9160  153.7460 O   0  0  0  0  0  0  0  0  0  0  0  0
  1  8  1  0  0  0  0
  2 13  1  0  0  0  0
  2 12  1  0  0  0  0
  3 14  1  0  0  0  0
  4 15  1  0  0  0  0
  5  9  1  0  0  0  0
  5  1  2  0  0  0  0
  6  1  1  0  0  0  0
  7 11  1  0  0  0  0
  7  4  1  0  0  0  0
  8  4  2  0  0  0  0
  9  7  2  0  0  0  0
 10  3  2  0  0  0  0
 10 11  1  0  0  0  0
 11  2  2  0  0  0  0
 13 35  1  0  0  0  0
 14 13  2  0  0  0  0
 15 12  2  0  0  0  0
 16  3  1  0  0  0  0
 17 16  1  0  0  0  0
 18 19  2  0  0  0  0
 19 20  2  0  0  0  0
 19 17  1  0  0  0  0
 21 19  1  0  0  0  0
 22 25  1  0  0  0  0
 22 21  1  0  0  0  0
 23 28  1  0  0  0  0
 24 23  1  6  0  0  0
 24 26  1  0  0  0  0
 26 27  1  6  0  0  0
 26 22  1  0  0  0  0
 28 25  1  0  0  0  0
 29 34  1  6  0  0  0
 29 24  1  0  0  0  0
 30 34  1  0  0  0  0
 31 30  1  0  0  0  0
 31 33  2  0  0  0  0
 32 30  2  0  0  0  0
 33 29  1  0  0  0  0
 35 36  1  0  0  0  0
 36 37  1  1  0  0  0
 38 36  1  0  0  0  0
 38 39  1  0  0  0  0
 39 40  1  0  0  0  0
 42 41  1  0  0  0  0
 42 40  1  0  0  0  0
 43 42  2  0  0  0  0
M  END
>  <MODEL>
6

>  <REMARK>
 VINA RESULT:      -7.6      1.794      2.360
  Name = 
  12 active torsions:
  status: ('A' for Active; 'I' for Inactive)
    1  A    between atoms: C_1  and  N_9
    2  A    between atoms: C_1  and  N_35
    3  A    between atoms: C_2  and  C_6
    4  A    between atoms: C_2  and  C_13
    5  A    between atoms: C_3  and  N_4
    6  A    between atoms: C_3  and  S_12
    7  A    between atoms: C_6  and  S_12
    8  A    between atoms: N_9  and  C_32
    9  A    between atoms: C_11  and  C_14
   10  A    between atoms: C_25  and  C_32
   11  A    between atoms: C_25  and  C_37
   12  A    between atoms: C_34  and  N_35
                            x       y       z     vdW  Elec       q    Type
                         _______ _______ _______ _____ _____    ______ ____

>  <TORSDO>
F 12

$$$$
=
 OpenBabel11062410163D

 43 47  0  0  1  0  0  0  0  0999 V2000
  161.5790  204.0250  146.3440 C   0  0  0  0  0  0  0  0  0  0  0  0
  161.2160  206.5140  150.7220 C   0  0  0  0  0  0  0  0  0  0  0  0
  161.8140  209.2060  150.2050 C   0  0  0  0  0  0  0  0  0  0  0  0
  161.2610  204.6250  148.6700 C   0  0  0  0  0  0  0  0  0  0  0  0
  161.8790  205.3540  146.0360 C   0  0  0  0  0  3  0  0  0  0  0  0
  161.5820  203.0870  145.3650 F   0  0  0  0  0  0  0  0  0  0  0  0
  161.5660  205.9740  148.3670 C   0  0  0  0  0  0  0  0  0  0  0  0
  161.2710  203.6610  147.6580 C   0  0  0  0  0  3  0  0  0  0  0  0
  161.8750  206.3260  147.0410 C   0  0  0  0  0  3  0  0  0  0  0  0
  161.8470  208.2760  149.1650 C   0  0  0  0  0  3  0  0  0  0  0  0
  161.5440  206.9270  149.4060 C   0  0  0  0  0  0  0  0  0  0  0  0
  160.9260  205.1640  150.9590 C   0  0  0  0  0  3  0  0  0  0  0  0
  161.1880  207.4520  151.7730 C   0  0  0  0  0  0  0  0  0  0  0  0
  161.4880  208.7950  151.5000 C   0  0  0  0  0  3  0  0  0  0  0  0
  160.9550  204.2610  149.9440 N   0  0  0  0  0  0  0  0  0  0  0  0
  162.1630  210.6270  149.9370 C   0  0  0  0  0  2  0  0  0  0  0  0
  162.3200  210.8530  148.4430 C   0  0  0  0  0  2  0  0  0  0  0  0
  162.4530  213.1460  147.0560 O   0  0  0  0  0  0  0  0  0  0  0  0
  161.5410  212.3820  147.9750 S   0  0  0  0  0  0  0  0  0  0  0  0
  160.2440  212.0970  147.2730 O   0  0  0  0  0  0  0  0  0  0  0  0
  161.2220  213.3450  149.4390 C   0  0  0  0  0  2  0  0  0  0  0  0
  159.8160  213.2440  149.7950 N   0  0  0  0  0  0  0  0  0  0  0  0
  157.2760  213.9130  150.7550 C   0  0  0  0  0  2  0  0  0  0  0  0
  158.4550  214.2890  151.6530 C   0  0  2  0  0  3  0  0  0  0  0  0
  159.1130  214.2750  149.0300 C   0  0  0  0  0  2  0  0  0  0  0  0
  159.7120  213.4690  151.2500 C   0  0  1  0  0  3  0  0  0  0  0  0
  159.7530  212.1160  151.9550 C   0  0  0  0  0  1  0  0  0  0  0  0
  157.6050  214.1920  149.2830 C   0  0  0  0  0  2  0  0  0  0  0  0
  158.1000  214.2230  153.1430 C   0  0  2  0  0  3  0  0  0  0  0  0
  156.8470  212.6440  154.2870 C   0  0  0  0  0  0  0  0  0  0  0  0
  158.2010  212.4330  154.5810 N   0  0  0  0  0  0  0  0  0  0  0  0
  155.9180  211.9570  154.7840 O   0  0  0  0  0  0  0  0  0  0  0  0
  159.0160  213.3110  153.8570 N   0  0  0  0  0  0  0  0  0  0  0  0
  156.6570  213.7350  153.3350 C   0  0  0  0  0  2  0  0  0  0  0  0
  160.8870  207.0230  153.1120 N   0  0  0  0  0  2  0  0  0  0  0  0
  161.1980  207.7620  154.3400 C   0  0  2  0  0  3  0  0  0  0  0  0
  160.4460  207.1690  155.5170 C   0  0  0  0  0  1  0  0  0  0  0  0
  160.8780  209.1770  154.1980 N   0  0  0  0  0  2  0  0  0  0  0  0
  160.4350  209.6630  155.4970 C   0  0  0  0  0  2  0  0  0  0  0  0
  161.2900  210.8440  155.9350 C   0  0  0  0  0  2  0  0  0  0  0  0
  163.7740  211.0780  156.1370 O   0  0  0  0  0  0  0  0  0  0  0  0
  162.6150  210.3780  156.4500 C   0  0  0  0  0  0  0  0  0  0  0  0
  162.6800  209.3660  157.1910 O   0  0  0  0  0  1  0  0  0  0  0  0
  1  8  1  0  0  0  0
  2 12  1  0  0  0  0
  2 13  1  0  0  0  0
  3 14  1  0  0  0  0
  4 15  1  0  0  0  0
  5  1  2  0  0  0  0
  5  9  1  0  0  0  0
  6  1  1  0  0  0  0
  7  4  1  0  0  0  0
  7 11  1  0  0  0  0
  8  4  2  0  0  0  0
  9  7  2  0  0  0  0
 10 11  1  0  0  0  0
 10  3  2  0  0  0  0
 11  2  2  0  0  0  0
 13 35  1  0  0  0  0
 14 13  2  0  0  0  0
 15 12  2  0  0  0  0
 16  3  1  0  0  0  0
 17 16  1  0  0  0  0
 18 19  2  0  0  0  0
 19 17  1  0  0  0  0
 19 21  1  0  0  0  0
 20 19  2  0  0  0  0
 21 22  1  0  0  0  0
 22 26  1  0  0  0  0
 24 23  1  6  0  0  0
 24 29  1  0  0  0  0
 25 28  1  0  0  0  0
 25 22  1  0  0  0  0
 26 24  1  0  0  0  0
 26 27  1  1  0  0  0
 28 23  1  0  0  0  0
 29 34  1  6  0  0  0
 29 33  1  0  0  0  0
 30 31  1  0  0  0  0
 30 32  2  0  0  0  0
 33 31  2  0  0  0  0
 34 30  1  0  0  0  0
 35 36  1  0  0  0  0
 36 37  1  1  0  0  0
 38 36  1  0  0  0  0
 38 39  1  0  0  0  0
 39 40  1  0  0  0  0
 40 42  1  0  0  0  0
 41 42  2  0  0  0  0
 42 43  1  0  0  0  0
M  END
>  <MODEL>
7

>  <REMARK>
 VINA RESULT:      -7.3      3.841      6.166
  Name = 
  12 active torsions:
  status: ('A' for Active; 'I' for Inactive)
    1  A    between atoms: C_1  and  N_9
    2  A    between atoms: C_1  and  N_35
    3  A    between atoms: C_2  and  C_6
    4  A    between atoms: C_2  and  C_13
    5  A    between atoms: C_3  and  N_4
    6  A    between atoms: C_3  and  S_12
    7  A    between atoms: C_6  and  S_12
    8  A    between atoms: N_9  and  C_32
    9  A    between atoms: C_11  and  C_14
   10  A    between atoms: C_25  and  C_32
   11  A    between atoms: C_25  and  C_37
   12  A    between atoms: C_34  and  N_35
                            x       y       z     vdW  Elec       q    Type
                         _______ _______ _______ _____ _____    ______ ____

>  <TORSDO>
F 12

$$$$
=
 OpenBabel11062410163D

 43 47  0  0  1  0  0  0  0  0999 V2000
  160.8000  202.7860  148.9150 C   0  0  0  0  0  0  0  0  0  0  0  0
  161.6610  207.7480  149.2700 C   0  0  0  0  0  0  0  0  0  0  0  0
  161.7270  208.3920  152.0000 C   0  0  0  0  0  0  0  0  0  0  0  0
  161.2090  205.1260  148.4360 C   0  0  0  0  0  0  0  0  0  0  0  0
  160.8290  203.0550  150.2860 C   0  0  0  0  0  3  0  0  0  0  0  0
  160.5940  201.5180  148.4800 F   0  0  0  0  0  0  0  0  0  0  0  0
  161.2370  205.4090  149.8230 C   0  0  0  0  0  0  0  0  0  0  0  0
  160.9900  203.8180  147.9920 C   0  0  0  0  0  3  0  0  0  0  0  0
  161.0450  204.3600  150.7400 C   0  0  0  0  0  3  0  0  0  0  0  0
  161.4940  207.0740  151.6040 C   0  0  0  0  0  3  0  0  0  0  0  0
  161.4640  206.7350  150.2420 C   0  0  0  0  0  0  0  0  0  0  0  0
  161.6200  207.4060  147.9120 C   0  0  0  0  0  3  0  0  0  0  0  0
  161.8910  209.0790  149.6710 C   0  0  0  0  0  0  0  0  0  0  0  0
  161.9220  209.3870  151.0390 C   0  0  0  0  0  3  0  0  0  0  0  0
  161.3970  206.1220  147.5280 N   0  0  0  0  0  0  0  0  0  0  0  0
  161.7280  208.7390  153.4470 C   0  0  0  0  0  2  0  0  0  0  0  0
  160.8750  207.7490  154.2220 C   0  0  0  0  0  2  0  0  0  0  0  0
  159.9570  207.3790  156.7160 O   0  0  0  0  0  0  0  0  0  0  0  0
  160.3570  208.4710  155.7630 S   0  0  0  0  0  0  0  0  0  0  0  0
  161.4860  209.2660  156.3560 O   0  0  0  0  0  0  0  0  0  0  0  0
  158.9680  209.5450  155.4660 C   0  0  0  0  0  2  0  0  0  0  0  0
  159.3830  210.9320  155.6060 N   0  0  0  0  0  0  0  0  0  0  0  0
  159.2690  213.7190  155.8070 C   0  0  0  0  0  2  0  0  0  0  0  0
  158.4320  213.0900  154.6930 C   0  0  2  0  0  3  0  0  0  0  0  0
  158.7370  211.4430  156.8160 C   0  0  0  0  0  2  0  0  0  0  0  0
  158.9370  211.6510  154.3970 C   0  0  1  0  0  3  0  0  0  0  0  0
  160.0770  211.6510  153.3840 C   0  0  0  0  0  1  0  0  0  0  0  0
  159.1800  212.8830  157.0900 C   0  0  0  0  0  2  0  0  0  0  0  0
  158.3220  213.9960  153.4600 C   0  0  2  0  0  3  0  0  0  0  0  0
  157.7000  213.4570  151.2930 C   0  0  0  0  0  0  0  0  0  0  0  0
  156.6350  214.1310  151.9060 N   0  0  0  0  0  0  0  0  0  0  0  0
  157.6710  213.0600  150.1010 O   0  0  0  0  0  0  0  0  0  0  0  0
  156.9230  214.4160  153.2460 N   0  0  0  0  0  0  0  0  0  0  0  0
  158.8230  213.2660  152.2070 C   0  0  0  0  0  2  0  0  0  0  0  0
  162.0580  210.1100  148.6820 N   0  0  0  0  0  2  0  0  0  0  0  0
  162.3430  211.5220  148.9540 C   0  0  2  0  0  3  0  0  0  0  0  0
  161.0510  212.2930  149.1470 C   0  0  0  0  0  1  0  0  0  0  0  0
  163.1280  212.1160  147.8790 N   0  0  0  0  0  2  0  0  0  0  0  0
  162.4070  213.2860  147.3970 C   0  0  0  0  0  2  0  0  0  0  0  0
  162.3400  213.2730  145.8760 C   0  0  0  0  0  2  0  0  0  0  0  0
  160.6230  212.4870  144.2330 O   0  0  0  0  0  0  0  0  0  0  0  0
  160.9240  213.1640  145.4080 C   0  0  0  0  0  0  0  0  0  0  0  0
  159.9960  213.6640  146.0940 O   0  0  0  0  0  1  0  0  0  0  0  0
  1  5  1  0  0  0  0
  2 13  2  0  0  0  0
  2 11  1  0  0  0  0
  3 16  1  0  0  0  0
  4  7  2  0  0  0  0
  5  9  2  0  0  0  0
  6  1  1  0  0  0  0
  7 11  1  0  0  0  0
  7  9  1  0  0  0  0
  8  4  1  0  0  0  0
  8  1  2  0  0  0  0
 10  3  1  0  0  0  0
 11 10  2  0  0  0  0
 12  2  1  0  0  0  0
 13 14  1  0  0  0  0
 14  3  2  0  0  0  0
 15 12  2  0  0  0  0
 15  4  1  0  0  0  0
 16 17  1  0  0  0  0
 17 19  1  0  0  0  0
 19 20  2  0  0  0  0
 19 18  2  0  0  0  0
 21 22  1  0  0  0  0
 21 19  1  0  0  0  0
 22 25  1  0  0  0  0
 23 28  1  0  0  0  0
 24 23  1  1  0  0  0
 25 28  1  0  0  0  0
 26 27  1  6  0  0  0
 26 24  1  0  0  0  0
 26 22  1  0  0  0  0
 29 34  1  6  0  0  0
 29 24  1  0  0  0  0
 30 31  1  0  0  0  0
 30 34  1  0  0  0  0
 31 33  2  0  0  0  0
 32 30  2  0  0  0  0
 33 29  1  0  0  0  0
 35 36  1  0  0  0  0
 35 13  1  0  0  0  0
 36 37  1  6  0  0  0
 38 36  1  0  0  0  0
 39 38  1  0  0  0  0
 40 39  1  0  0  0  0
 41 42  2  0  0  0  0
 42 40  1  0  0  0  0
 42 43  1  0  0  0  0
M  END
>  <MODEL>
8

>  <REMARK>
 VINA RESULT:      -7.2      3.210      7.659
  Name = 
  12 active torsions:
  status: ('A' for Active; 'I' for Inactive)
    1  A    between atoms: C_1  and  N_9
    2  A    between atoms: C_1  and  N_35
    3  A    between atoms: C_2  and  C_6
    4  A    between atoms: C_2  and  C_13
    5  A    between atoms: C_3  and  N_4
    6  A    between atoms: C_3  and  S_12
    7  A    between atoms: C_6  and  S_12
    8  A    between atoms: N_9  and  C_32
    9  A    between atoms: C_11  and  C_14
   10  A    between atoms: C_25  and  C_32
   11  A    between atoms: C_25  and  C_37
   12  A    between atoms: C_34  and  N_35
                            x       y       z     vdW  Elec       q    Type
                         _______ _______ _______ _____ _____    ______ ____

>  <TORSDO>
F 12

$$$$
=
 OpenBabel11062410163D

 43 47  0  0  1  0  0  0  0  0999 V2000
  160.7600  206.9610  154.8190 C   0  0  0  0  0  0  0  0  0  0  0  0
  161.6640  209.5340  150.5690 C   0  0  0  0  0  0  0  0  0  0  0  0
  162.2370  207.6580  148.5620 C   0  0  0  0  0  0  0  0  0  0  0  0
  161.0850  208.7060  153.1690 C   0  0  0  0  0  0  0  0  0  0  0  0
  161.0340  205.9890  153.8530 C   0  0  0  0  0  3  0  0  0  0  0  0
  160.4640  206.5870  156.0880 F   0  0  0  0  0  0  0  0  0  0  0  0
  161.3650  207.7280  152.1850 C   0  0  0  0  0  0  0  0  0  0  0  0
  160.7860  208.3160  154.4780 C   0  0  0  0  0  3  0  0  0  0  0  0
  161.3370  206.3680  152.5420 C   0  0  0  0  0  3  0  0  0  0  0  0
  161.9540  207.2240  149.8580 C   0  0  0  0  0  3  0  0  0  0  0  0
  161.6600  208.1480  150.8720 C   0  0  0  0  0  0  0  0  0  0  0  0
  161.3800  210.4530  151.5880 C   0  0  0  0  0  3  0  0  0  0  0  0
  161.9550  209.9730  149.2630 C   0  0  0  0  0  0  0  0  0  0  0  0
  162.2380  209.0240  148.2690 C   0  0  0  0  0  3  0  0  0  0  0  0
  161.1020  210.0270  152.8470 N   0  0  0  0  0  0  0  0  0  0  0  0
  162.5730  206.6650  147.5070 C   0  0  0  0  0  2  0  0  0  0  0  0
  161.3730  206.4370  146.6040 C   0  0  0  0  0  2  0  0  0  0  0  0
  161.7290  205.8720  144.0050 O   0  0  0  0  0  0  0  0  0  0  0  0
  161.7700  205.2260  145.3620 S   0  0  0  0  0  0  0  0  0  0  0  0
  163.1450  204.6740  145.6130 O   0  0  0  0  0  0  0  0  0  0  0  0
  160.5790  203.9050  145.4350 C   0  0  0  0  0  2  0  0  0  0  0  0
  161.1100  202.8100  146.2310 N   0  0  0  0  0  0  0  0  0  0  0  0
  161.2290  200.5460  147.8680 C   0  0  0  0  0  2  0  0  0  0  0  0
  160.2380  201.6300  148.2910 C   0  0  2  0  0  3  0  0  0  0  0  0
  160.6300  201.5720  145.6160 C   0  0  0  0  0  2  0  0  0  0  0  0
  160.6000  202.9770  147.6060 C   0  0  1  0  0  3  0  0  0  0  0  0
  161.6290  203.7620  148.4130 C   0  0  0  0  0  1  0  0  0  0  0  0
  161.2060  200.3550  146.3450 C   0  0  0  0  0  2  0  0  0  0  0  0
  160.0740  201.7110  149.8140 C   0  0  2  0  0  3  0  0  0  0  0  0
  161.6920  201.9670  151.4540 C   0  0  0  0  0  0  0  0  0  0  0  0
  161.0220  203.1880  151.2980 N   0  0  0  0  0  0  0  0  0  0  0  0
  162.6090  201.7860  152.2940 O   0  0  0  0  0  0  0  0  0  0  0  0
  160.0810  203.1170  150.2640 N   0  0  0  0  0  0  0  0  0  0  0  0
  161.2060  200.9530  150.5210 C   0  0  0  0  0  2  0  0  0  0  0  0
  161.9900  211.3800  148.9670 N   0  0  0  0  0  2  0  0  0  0  0  0
  161.7370  211.9880  147.6580 C   0  0  2  0  0  3  0  0  0  0  0  0
  162.7110  213.1240  147.4070 C   0  0  0  0  0  1  0  0  0  0  0  0
  160.3650  212.4710  147.5590 N   0  0  0  0  0  2  0  0  0  0  0  0
  160.2780  213.3230  146.3810 C   0  0  0  0  0  2  0  0  0  0  0  0
  159.5600  212.5920  145.2560 C   0  0  0  0  0  2  0  0  0  0  0  0
  160.0790  211.6000  143.0170 O   0  0  0  0  0  0  0  0  0  0  0  0
  160.4650  212.4090  144.0790 C   0  0  0  0  0  0  0  0  0  0  0  0
  161.5670  213.0120  144.0350 O   0  0  0  0  0  1  0  0  0  0  0  0
  1  6  1  0  0  0  0
  2 11  1  0  0  0  0
  2 12  1  0  0  0  0
  3 10  1  0  0  0  0
  4  8  2  0  0  0  0
  5  1  2  0  0  0  0
  7  9  2  0  0  0  0
  7  4  1  0  0  0  0
  8  1  1  0  0  0  0
  9  5  1  0  0  0  0
 10 11  2  0  0  0  0
 11  7  1  0  0  0  0
 12 15  2  0  0  0  0
 13  2  2  0  0  0  0
 14  3  2  0  0  0  0
 14 13  1  0  0  0  0
 15  4  1  0  0  0  0
 16  3  1  0  0  0  0
 17 16  1  0  0  0  0
 18 19  2  0  0  0  0
 19 21  1  0  0  0  0
 19 20  2  0  0  0  0
 19 17  1  0  0  0  0
 21 22  1  0  0  0  0
 22 26  1  0  0  0  0
 24 23  1  1  0  0  0
 24 29  1  0  0  0  0
 25 22  1  0  0  0  0
 25 28  1  0  0  0  0
 26 24  1  0  0  0  0
 26 27  1  1  0  0  0
 28 23  1  0  0  0  0
 29 33  1  0  0  0  0
 29 34  1  1  0  0  0
 30 32  2  0  0  0  0
 31 30  1  0  0  0  0
 33 31  2  0  0  0  0
 34 30  1  0  0  0  0
 35 13  1  0  0  0  0
 36 37  1  1  0  0  0
 36 35  1  0  0  0  0
 38 36  1  0  0  0  0
 39 38  1  0  0  0  0
 40 39  1  0  0  0  0
 41 42  2  0  0  0  0
 42 40  1  0  0  0  0
 43 42  1  0  0  0  0
M  END
>  <MODEL>
9

>  <REMARK>
 VINA RESULT:      -6.7      3.686      8.971
  Name = 
  12 active torsions:
  status: ('A' for Active; 'I' for Inactive)
    1  A    between atoms: C_1  and  N_9
    2  A    between atoms: C_1  and  N_35
    3  A    between atoms: C_2  and  C_6
    4  A    between atoms: C_2  and  C_13
    5  A    between atoms: C_3  and  N_4
    6  A    between atoms: C_3  and  S_12
    7  A    between atoms: C_6  and  S_12
    8  A    between atoms: N_9  and  C_32
    9  A    between atoms: C_11  and  C_14
   10  A    between atoms: C_25  and  C_32
   11  A    between atoms: C_25  and  C_37
   12  A    between atoms: C_34  and  N_35
                            x       y       z     vdW  Elec       q    Type
                         _______ _______ _______ _____ _____    ______ ____

>  <TORSDO>
F 12

$$$$
