=
 OpenBabel11052422553D

 28 32  0  0  1  0  0  0  0  0999 V2000
  161.9380  209.6720  150.0610 N   0  0  0  0  0  0  0  0  0  0  0  0
  161.6170  205.3890  147.3150 C   0  0  0  0  0  3  0  0  0  0  0  0
  161.1270  206.2630  153.7590 S   0  0  0  0  0  0  0  0  0  0  0  0
  161.0630  203.6840  148.9570 C   0  0  0  0  0  0  0  0  0  0  0  0
  161.5550  206.0040  149.7430 C   0  0  0  0  0  0  0  0  0  0  0  0
  161.1230  203.1300  146.5970 C   0  0  0  0  0  0  0  0  0  0  0  0
  161.4290  205.0140  148.6530 C   0  0  0  0  0  0  0  0  0  0  0  0
  160.4940  204.3900  151.3010 C   0  0  0  0  0  2  0  0  0  0  0  0
  160.9250  202.7490  147.9260 C   0  0  0  0  0  3  0  0  0  0  0  0
  161.5300  208.0210  151.7520 C   0  0  0  0  0  0  0  0  0  0  0  0
  161.6910  207.2680  149.4660 N   0  0  0  0  0  0  0  0  0  0  0  0
  160.8760  203.2310  150.3800 C   0  0  0  0  0  2  0  0  0  0  0  0
  161.7700  210.3170  152.4210 C   0  0  0  0  0  3  0  0  0  0  0  0
  161.2900  206.6240  152.1660 C   0  0  0  0  0  0  0  0  0  0  0  0
  161.4780  209.0850  152.7160 N   0  0  0  0  0  0  0  0  0  0  0  0
  160.9690  202.1330  145.5070 C   0  0  0  0  0  1  0  0  0  0  0  0
  161.4670  204.4500  146.2920 C   0  0  0  0  0  3  0  0  0  0  0  0
  161.5240  205.5130  151.1740 C   0  0  2  0  0  3  0  0  0  0  0  0
  162.2510  210.7030  151.0510 C   0  0  0  0  0  2  0  0  0  0  0  0
  161.7430  208.3040  150.4590 C   0  0  0  0  0  0  0  0  0  0  0  0
  162.0350  210.0280  148.6530 C   0  0  0  0  0  2  0  0  0  0  0  0
  161.7540  211.4430  148.4790 N   0  0  0  0  0  0  0  0  0  0  0  0
  161.3980  213.8270  146.9330 C   0  0  0  0  0  0  0  0  0  0  0  0
  162.9700  212.0610  147.9540 C   0  0  0  0  0  2  0  0  0  0  0  0
  160.7060  211.5410  147.4630 C   0  0  0  0  0  2  0  0  0  0  0  0
  160.2290  212.9850  147.3160 C   0  0  0  0  0  2  0  0  0  0  0  0
  161.4310  214.3870  145.8490 O   0  0  0  0  0  0  0  0  0  0  0  0
  162.8140  213.8760  148.0270 S   0  0  0  0  0  0  0  0  0  0  0  0
  1 20  1  0  0  0  0
  1 19  1  0  0  0  0
  2  7  1  0  0  0  0
  4 12  1  0  0  0  0
  5 18  1  0  0  0  0
  6  9  2  0  0  0  0
  7  4  2  0  0  0  0
  7  5  1  0  0  0  0
  9  4  1  0  0  0  0
 10 14  1  0  0  0  0
 10 15  1  0  0  0  0
 11  5  2  0  0  0  0
 11 20  1  0  0  0  0
 12  8  1  0  0  0  0
 13 15  2  0  0  0  0
 14  3  2  0  0  0  0
 16  6  1  0  0  0  0
 17  6  1  0  0  0  0
 17  2  2  0  0  0  0
 18  8  1  6  0  0  0
 18 14  1  0  0  0  0
 19 13  1  0  0  0  0
 20 10  2  0  0  0  0
 21  1  1  0  0  0  0
 22 21  1  0  0  0  0
 23 26  1  0  0  0  0
 23 28  1  0  0  0  0
 24 28  1  0  0  0  0
 24 22  1  0  0  0  0
 25 22  1  0  0  0  0
 26 25  1  0  0  0  0
 27 23  2  0  0  0  0
M  END
>  <MODEL>
1

>  <REMARK>
 VINA RESULT:      -9.5      0.000      0.000
  Name = 
  2 active torsions:
  status: ('A' for Active; 'I' for Inactive)
    1  A    between atoms: N_1  and  C_2
    2  A    between atoms: C_2  and  N_3
                            x       y       z     vdW  Elec       q    Type
                         _______ _______ _______ _____ _____    ______ ____

>  <TORSDO>
F 2

$$$$
=
 OpenBabel11052422553D

 28 32  0  0  1  0  0  0  0  0999 V2000
  160.5310  210.9110  153.3050 N   0  0  0  0  0  0  0  0  0  0  0  0
  161.1820  207.1250  149.9520 C   0  0  0  0  0  3  0  0  0  0  0  0
  160.8360  206.9240  156.4620 S   0  0  0  0  0  0  0  0  0  0  0  0
  161.1790  205.1210  151.3290 C   0  0  0  0  0  0  0  0  0  0  0  0
  161.0950  207.3550  152.4460 C   0  0  0  0  0  0  0  0  0  0  0  0
  161.2520  204.9400  148.9120 C   0  0  0  0  0  0  0  0  0  0  0  0
  161.1710  206.5290  151.2220 C   0  0  0  0  0  0  0  0  0  0  0  0
  160.5760  205.3150  153.7610 C   0  0  0  0  0  2  0  0  0  0  0  0
  161.2320  204.3380  150.1720 C   0  0  0  0  0  3  0  0  0  0  0  0
  160.6580  208.9900  154.7350 C   0  0  0  0  0  0  0  0  0  0  0  0
  160.8840  208.6360  152.3590 N   0  0  0  0  0  0  0  0  0  0  0  0
  161.1950  204.4400  152.6710 C   0  0  0  0  0  2  0  0  0  0  0  0
  160.3320  211.1500  155.7370 C   0  0  0  0  0  3  0  0  0  0  0  0
  160.8120  207.5360  154.9380 C   0  0  0  0  0  0  0  0  0  0  0  0
  160.3850  209.8570  155.8490 N   0  0  0  0  0  0  0  0  0  0  0  0
  161.3020  204.1010  147.6870 C   0  0  0  0  0  1  0  0  0  0  0  0
  161.2240  206.3340  148.8020 C   0  0  0  0  0  3  0  0  0  0  0  0
  161.2710  206.6770  153.7870 C   0  0  2  0  0  3  0  0  0  0  0  0
  160.6200  211.8380  154.4320 C   0  0  0  0  0  2  0  0  0  0  0  0
  160.7190  209.4980  153.4960 C   0  0  0  0  0  0  0  0  0  0  0  0
  160.4550  211.4730  151.9640 C   0  0  0  0  0  2  0  0  0  0  0  0
  159.5520  212.6120  151.9560 N   0  0  0  0  0  0  0  0  0  0  0  0
  157.0260  213.8940  151.5340 C   0  0  0  0  0  0  0  0  0  0  0  0
  159.1700  212.8470  150.5640 C   0  0  0  0  0  2  0  0  0  0  0  0
  158.3610  212.2100  152.7030 C   0  0  0  0  0  2  0  0  0  0  0  0
  157.4110  213.3920  152.8830 C   0  0  0  0  0  2  0  0  0  0  0  0
  155.8690  213.8270  151.1530 O   0  0  0  0  0  0  0  0  0  0  0  0
  158.3180  214.4530  150.4270 S   0  0  0  0  0  0  0  0  0  0  0  0
  1 20  1  0  0  0  0
  1 19  1  0  0  0  0
  2  7  1  0  0  0  0
  4 12  1  0  0  0  0
  5 18  1  0  0  0  0
  6  9  2  0  0  0  0
  7  4  2  0  0  0  0
  7  5  1  0  0  0  0
  9  4  1  0  0  0  0
 10 14  1  0  0  0  0
 10 15  1  0  0  0  0
 11  5  2  0  0  0  0
 11 20  1  0  0  0  0
 12  8  1  0  0  0  0
 13 15  2  0  0  0  0
 14  3  2  0  0  0  0
 16  6  1  0  0  0  0
 17  6  1  0  0  0  0
 17  2  2  0  0  0  0
 18  8  1  6  0  0  0
 18 14  1  0  0  0  0
 19 13  1  0  0  0  0
 20 10  2  0  0  0  0
 21  1  1  0  0  0  0
 22 21  1  0  0  0  0
 22 25  1  0  0  0  0
 23 26  1  0  0  0  0
 24 22  1  0  0  0  0
 25 26  1  0  0  0  0
 27 23  2  0  0  0  0
 28 24  1  0  0  0  0
 28 23  1  0  0  0  0
M  END
>  <MODEL>
2

>  <REMARK>
 VINA RESULT:      -7.3      3.127      4.017
  Name = 
  2 active torsions:
  status: ('A' for Active; 'I' for Inactive)
    1  A    between atoms: N_1  and  C_2
    2  A    between atoms: C_2  and  N_3
                            x       y       z     vdW  Elec       q    Type
                         _______ _______ _______ _____ _____    ______ ____

>  <TORSDO>
F 2

$$$$
=
 OpenBabel11052422553D

 28 32  0  0  1  0  0  0  0  0999 V2000
  161.8670  209.9370  151.1560 N   0  0  0  0  0  0  0  0  0  0  0  0
  161.8720  206.4150  147.4690 C   0  0  0  0  0  3  0  0  0  0  0  0
  160.9810  205.7320  153.8940 S   0  0  0  0  0  0  0  0  0  0  0  0
  161.2910  204.3580  148.6280 C   0  0  0  0  0  0  0  0  0  0  0  0
  161.6470  206.4390  149.9650 C   0  0  0  0  0  0  0  0  0  0  0  0
  161.5080  204.3780  146.2130 C   0  0  0  0  0  0  0  0  0  0  0  0
  161.6220  205.7310  148.6680 C   0  0  0  0  0  0  0  0  0  0  0  0
  160.5630  204.4770  151.0300 C   0  0  0  0  0  2  0  0  0  0  0  0
  161.2490  203.6900  147.4000 C   0  0  0  0  0  3  0  0  0  0  0  0
  161.4280  207.9240  152.3840 C   0  0  0  0  0  0  0  0  0  0  0  0
  161.7490  207.7360  150.0000 N   0  0  0  0  0  0  0  0  0  0  0  0
  161.0420  203.5780  149.8900 C   0  0  0  0  0  2  0  0  0  0  0  0
  161.5400  210.0020  153.5850 C   0  0  0  0  0  3  0  0  0  0  0  0
  161.2200  206.4630  152.4430 C   0  0  0  0  0  0  0  0  0  0  0  0
  161.2800  208.7290  153.5650 N   0  0  0  0  0  0  0  0  0  0  0  0
  161.4550  203.6620  144.9120 C   0  0  0  0  0  1  0  0  0  0  0  0
  161.8170  205.7410  146.2470 C   0  0  0  0  0  3  0  0  0  0  0  0
  161.5540  205.6230  151.2360 C   0  0  2  0  0  3  0  0  0  0  0  0
  162.0830  210.7120  152.3770 C   0  0  0  0  0  2  0  0  0  0  0  0
  161.7030  208.5090  151.2090 C   0  0  0  0  0  0  0  0  0  0  0  0
  162.0300  210.6160  149.8790 C   0  0  0  0  0  2  0  0  0  0  0  0
  161.5570  211.9860  149.9840 N   0  0  0  0  0  0  0  0  0  0  0  0
  159.6380  214.0830  149.6260 C   0  0  0  0  0  0  0  0  0  0  0  0
  161.3950  212.4900  148.6200 C   0  0  0  0  0  2  0  0  0  0  0  0
  160.2390  211.9280  150.6170 C   0  0  0  0  0  2  0  0  0  0  0  0
  159.7190  213.3330  150.9120 C   0  0  0  0  0  2  0  0  0  0  0  0
  158.5610  214.4530  149.1890 O   0  0  0  0  0  0  0  0  0  0  0  0
  161.1330  214.2940  148.6630 S   0  0  0  0  0  0  0  0  0  0  0  0
  1 20  1  0  0  0  0
  1 19  1  0  0  0  0
  2  7  1  0  0  0  0
  4  7  2  0  0  0  0
  4 12  1  0  0  0  0
  5 11  2  0  0  0  0
  5 18  1  0  0  0  0
  6 17  1  0  0  0  0
  6  9  2  0  0  0  0
  7  5  1  0  0  0  0
  9  4  1  0  0  0  0
 10 14  1  0  0  0  0
 10 15  1  0  0  0  0
 11 20  1  0  0  0  0
 12  8  1  0  0  0  0
 14  3  2  0  0  0  0
 15 13  2  0  0  0  0
 16  6  1  0  0  0  0
 17  2  2  0  0  0  0
 18  8  1  6  0  0  0
 18 14  1  0  0  0  0
 19 13  1  0  0  0  0
 20 10  2  0  0  0  0
 21 22  1  0  0  0  0
 21  1  1  0  0  0  0
 22 25  1  0  0  0  0
 23 26  1  0  0  0  0
 24 28  1  0  0  0  0
 24 22  1  0  0  0  0
 25 26  1  0  0  0  0
 27 23  2  0  0  0  0
 28 23  1  0  0  0  0
M  END
>  <MODEL>
3

>  <REMARK>
 VINA RESULT:      -7.2      1.570      1.719
  Name = 
  2 active torsions:
  status: ('A' for Active; 'I' for Inactive)
    1  A    between atoms: N_1  and  C_2
    2  A    between atoms: C_2  and  N_3
                            x       y       z     vdW  Elec       q    Type
                         _______ _______ _______ _____ _____    ______ ____

>  <TORSDO>
F 2

$$$$
=
 OpenBabel11052422553D

 28 32  0  0  1  0  0  0  0  0999 V2000
  159.9060  211.4570  152.6200 N   0  0  0  0  0  0  0  0  0  0  0  0
  160.8290  207.3450  149.7520 C   0  0  0  0  0  3  0  0  0  0  0  0
  161.3440  208.1350  156.2050 S   0  0  0  0  0  0  0  0  0  0  0  0
  161.3730  205.6150  151.3720 C   0  0  0  0  0  0  0  0  0  0  0  0
  161.0140  207.9530  152.1760 C   0  0  0  0  0  0  0  0  0  0  0  0
  161.1750  205.0640  149.0190 C   0  0  0  0  0  0  0  0  0  0  0  0
  161.0880  206.9670  151.0780 C   0  0  0  0  0  0  0  0  0  0  0  0
  161.0540  206.0930  153.8180 C   0  0  0  0  0  2  0  0  0  0  0  0
  161.4270  204.6760  150.3370 C   0  0  0  0  0  3  0  0  0  0  0  0
  160.5680  209.8390  154.2620 C   0  0  0  0  0  0  0  0  0  0  0  0
  160.5570  209.1510  151.9490 N   0  0  0  0  0  0  0  0  0  0  0  0
  161.6840  205.1700  152.7750 C   0  0  0  0  0  2  0  0  0  0  0  0
  159.9710  212.0470  155.0000 C   0  0  0  0  0  3  0  0  0  0  0  0
  161.0150  208.4820  154.6340 C   0  0  0  0  0  0  0  0  0  0  0  0
  160.2800  210.8150  155.2760 N   0  0  0  0  0  0  0  0  0  0  0  0
  161.2280  204.0590  147.9260 C   0  0  0  0  0  1  0  0  0  0  0  0
  160.8740  206.3970  148.7270 C   0  0  0  0  0  3  0  0  0  0  0  0
  161.4800  207.5380  153.5540 C   0  0  2  0  0  3  0  0  0  0  0  0
  159.9600  212.5550  153.5860 C   0  0  0  0  0  2  0  0  0  0  0  0
  160.3780  210.1450  152.9700 C   0  0  0  0  0  0  0  0  0  0  0  0
  159.5590  211.7770  151.2430 C   0  0  0  0  0  2  0  0  0  0  0  0
  160.7140  212.3330  150.5580 N   0  0  0  0  0  0  0  0  0  0  0  0
  162.0570  213.5310  148.3300 C   0  0  0  0  0  0  0  0  0  0  0  0
  161.0100  211.4500  149.4300 C   0  0  0  0  0  2  0  0  0  0  0  0
  160.3040  213.6360  150.0350 C   0  0  0  0  0  2  0  0  0  0  0  0
  161.4960  214.3720  149.4250 C   0  0  0  0  0  2  0  0  0  0  0  0
  162.0270  213.9160  147.1730 O   0  0  0  0  0  0  0  0  0  0  0  0
  162.6350  211.8830  148.7270 S   0  0  0  0  0  0  0  0  0  0  0  0
  1 20  1  0  0  0  0
  1 19  1  0  0  0  0
  2  7  1  0  0  0  0
  4 12  1  0  0  0  0
  5 18  1  0  0  0  0
  6  9  2  0  0  0  0
  7  4  2  0  0  0  0
  7  5  1  0  0  0  0
  9  4  1  0  0  0  0
 10 14  1  0  0  0  0
 10 15  1  0  0  0  0
 11  5  2  0  0  0  0
 11 20  1  0  0  0  0
 12  8  1  0  0  0  0
 13 15  2  0  0  0  0
 14  3  2  0  0  0  0
 16  6  1  0  0  0  0
 17  6  1  0  0  0  0
 17  2  2  0  0  0  0
 18  8  1  1  0  0  0
 18 14  1  0  0  0  0
 19 13  1  0  0  0  0
 20 10  2  0  0  0  0
 21  1  1  0  0  0  0
 22 21  1  0  0  0  0
 23 28  1  0  0  0  0
 23 26  1  0  0  0  0
 24 22  1  0  0  0  0
 25 22  1  0  0  0  0
 26 25  1  0  0  0  0
 27 23  2  0  0  0  0
 28 24  1  0  0  0  0
M  END
>  <MODEL>
4

>  <REMARK>
 VINA RESULT:      -6.9      2.136      3.108
  Name = 
  2 active torsions:
  status: ('A' for Active; 'I' for Inactive)
    1  A    between atoms: N_1  and  C_2
    2  A    between atoms: C_2  and  N_3
                            x       y       z     vdW  Elec       q    Type
                         _______ _______ _______ _____ _____    ______ ____

>  <TORSDO>
F 2

$$$$
=
 OpenBabel11052422553D

 28 32  0  0  1  0  0  0  0  0999 V2000
  161.9980  209.7020  149.5170 N   0  0  0  0  0  0  0  0  0  0  0  0
  160.1520  211.6860  153.8360 C   0  0  0  0  0  3  0  0  0  0  0  0
  161.5410  205.4900  152.3470 S   0  0  0  0  0  0  0  0  0  0  0  0
  160.0390  209.7850  155.3480 C   0  0  0  0  0  0  0  0  0  0  0  0
  160.6930  209.3980  152.9680 C   0  0  0  0  0  0  0  0  0  0  0  0
  159.5340  212.0160  156.1530 C   0  0  0  0  0  0  0  0  0  0  0  0
  160.2720  210.3060  154.0560 C   0  0  0  0  0  0  0  0  0  0  0  0
  161.0640  207.6030  154.6400 C   0  0  0  0  0  2  0  0  0  0  0  0
  159.6590  210.6440  156.3840 C   0  0  0  0  0  3  0  0  0  0  0  0
  161.7820  207.7610  150.9090 C   0  0  0  0  0  0  0  0  0  0  0  0
  161.1050  209.8850  151.8330 N   0  0  0  0  0  0  0  0  0  0  0  0
  160.1300  208.3090  155.6230 C   0  0  0  0  0  2  0  0  0  0  0  0
  162.6390  207.4890  148.6800 C   0  0  0  0  0  3  0  0  0  0  0  0
  161.4160  207.1200  152.1870 C   0  0  0  0  0  0  0  0  0  0  0  0
  162.3820  206.9920  149.8540 N   0  0  0  0  0  0  0  0  0  0  0  0
  159.1350  212.9230  157.2600 C   0  0  0  0  0  1  0  0  0  0  0  0
  159.7830  212.5370  154.8800 C   0  0  0  0  0  3  0  0  0  0  0  0
  160.6290  207.9050  153.2060 C   0  0  2  0  0  3  0  0  0  0  0  0
  162.2610  208.8980  148.3240 C   0  0  0  0  0  2  0  0  0  0  0  0
  161.6030  209.0810  150.7520 C   0  0  0  0  0  0  0  0  0  0  0  0
  161.9450  211.1490  149.3660 C   0  0  0  0  0  2  0  0  0  0  0  0
  161.7840  211.4950  147.9640 N   0  0  0  0  0  0  0  0  0  0  0  0
  161.3910  213.3160  145.7880 C   0  0  0  0  0  0  0  0  0  0  0  0
  160.4340  212.0340  147.8070 C   0  0  0  0  0  2  0  0  0  0  0  0
  162.7460  212.5600  147.6800 C   0  0  0  0  0  2  0  0  0  0  0  0
  162.7620  212.8910  146.1890 C   0  0  0  0  0  2  0  0  0  0  0  0
  161.1820  214.4530  145.3990 O   0  0  0  0  0  0  0  0  0  0  0  0
  160.0340  212.1730  146.0330 S   0  0  0  0  0  0  0  0  0  0  0  0
  1 20  1  0  0  0  0
  2  7  2  0  0  0  0
  2 17  1  0  0  0  0
  4 12  1  0  0  0  0
  4  9  2  0  0  0  0
  5 18  1  0  0  0  0
  5  7  1  0  0  0  0
  6  9  1  0  0  0  0
  6 16  1  0  0  0  0
  7  4  1  0  0  0  0
  8 12  1  0  0  0  0
 10 14  1  0  0  0  0
 11  5  2  0  0  0  0
 13 15  2  0  0  0  0
 14  3  2  0  0  0  0
 14 18  1  0  0  0  0
 15 10  1  0  0  0  0
 17  6  2  0  0  0  0
 18  8  1  1  0  0  0
 19 13  1  0  0  0  0
 19  1  1  0  0  0  0
 20 10  2  0  0  0  0
 20 11  1  0  0  0  0
 21  1  1  0  0  0  0
 22 21  1  0  0  0  0
 23 28  1  0  0  0  0
 23 26  1  0  0  0  0
 24 22  1  0  0  0  0
 25 22  1  0  0  0  0
 26 25  1  0  0  0  0
 27 23  2  0  0  0  0
 28 24  1  0  0  0  0
M  END
>  <MODEL>
5

>  <REMARK>
 VINA RESULT:      -6.9      2.737      6.385
  Name = 
  2 active torsions:
  status: ('A' for Active; 'I' for Inactive)
    1  A    between atoms: N_1  and  C_2
    2  A    between atoms: C_2  and  N_3
                            x       y       z     vdW  Elec       q    Type
                         _______ _______ _______ _____ _____    ______ ____

>  <TORSDO>
F 2

$$$$
=
 OpenBabel11052422553D

 28 32  0  0  1  0  0  0  0  0999 V2000
  161.4010  209.9980  152.1040 N   0  0  0  0  0  0  0  0  0  0  0  0
  161.5860  207.1170  147.9010 C   0  0  0  0  0  3  0  0  0  0  0  0
  161.0200  205.3490  154.1540 S   0  0  0  0  0  0  0  0  0  0  0  0
  161.2460  204.8560  148.7300 C   0  0  0  0  0  0  0  0  0  0  0  0
  161.4600  206.7260  150.3730 C   0  0  0  0  0  0  0  0  0  0  0  0
  161.3630  205.2760  146.3450 C   0  0  0  0  0  0  0  0  0  0  0  0
  161.4490  206.2310  148.9800 C   0  0  0  0  0  0  0  0  0  0  0  0
  160.6060  204.5240  151.1370 C   0  0  0  0  0  2  0  0  0  0  0  0
  161.2170  204.3880  147.4120 C   0  0  0  0  0  3  0  0  0  0  0  0
  161.2010  207.7840  153.0040 C   0  0  0  0  0  0  0  0  0  0  0  0
  161.4420  208.0050  150.6130 N   0  0  0  0  0  0  0  0  0  0  0  0
  161.1210  203.8660  149.8570 C   0  0  0  0  0  2  0  0  0  0  0  0
  161.1680  209.6480  154.5190 C   0  0  0  0  0  3  0  0  0  0  0  0
  161.1320  206.3190  152.8330 C   0  0  0  0  0  0  0  0  0  0  0  0
  161.0260  208.3750  154.3020 N   0  0  0  0  0  0  0  0  0  0  0  0
  161.3250  204.7720  144.9480 C   0  0  0  0  0  1  0  0  0  0  0  0
  161.5450  206.6410  146.5890 C   0  0  0  0  0  3  0  0  0  0  0  0
  161.4940  205.7160  151.4990 C   0  0  2  0  0  3  0  0  0  0  0  0
  161.5930  210.5890  153.4280 C   0  0  0  0  0  2  0  0  0  0  0  0
  161.3730  208.5700  151.9320 C   0  0  0  0  0  0  0  0  0  0  0  0
  161.4490  210.8820  150.9480 C   0  0  0  0  0  2  0  0  0  0  0  0
  160.7060  212.1000  151.2270 N   0  0  0  0  0  0  0  0  0  0  0  0
  158.4120  213.8080  151.0810 C   0  0  0  0  0  0  0  0  0  0  0  0
  160.4740  212.7630  149.9440 C   0  0  0  0  0  2  0  0  0  0  0  0
  159.4150  211.6880  151.7780 C   0  0  0  0  0  2  0  0  0  0  0  0
  158.6160  212.9020  152.2470 C   0  0  0  0  0  2  0  0  0  0  0  0
  157.2910  214.0210  150.6480 O   0  0  0  0  0  0  0  0  0  0  0  0
  159.8520  214.4530  150.2350 S   0  0  0  0  0  0  0  0  0  0  0  0
  1 19  1  0  0  0  0
  2  7  1  0  0  0  0
  4  7  2  0  0  0  0
  4 12  1  0  0  0  0
  5 11  2  0  0  0  0
  5 18  1  0  0  0  0
  6 17  1  0  0  0  0
  6  9  2  0  0  0  0
  7  5  1  0  0  0  0
  9  4  1  0  0  0  0
 10 15  1  0  0  0  0
 11 20  1  0  0  0  0
 12  8  1  0  0  0  0
 14 10  1  0  0  0  0
 14  3  2  0  0  0  0
 15 13  2  0  0  0  0
 16  6  1  0  0  0  0
 17  2  2  0  0  0  0
 18  8  1  6  0  0  0
 18 14  1  0  0  0  0
 19 13  1  0  0  0  0
 20  1  1  0  0  0  0
 20 10  2  0  0  0  0
 21 22  1  0  0  0  0
 21  1  1  0  0  0  0
 22 25  1  0  0  0  0
 23 26  1  0  0  0  0
 24 28  1  0  0  0  0
 24 22  1  0  0  0  0
 25 26  1  0  0  0  0
 27 23  2  0  0  0  0
 28 23  1  0  0  0  0
M  END
>  <MODEL>
6

>  <REMARK>
 VINA RESULT:      -6.8      2.249      2.730
  Name = 
  2 active torsions:
  status: ('A' for Active; 'I' for Inactive)
    1  A    between atoms: N_1  and  C_2
    2  A    between atoms: C_2  and  N_3
                            x       y       z     vdW  Elec       q    Type
                         _______ _______ _______ _____ _____    ______ ____

>  <TORSDO>
F 2

$$$$
=
 OpenBabel11052422553D

 28 32  0  0  1  0  0  0  0  0999 V2000
  161.2690  207.5120  153.4870 N   0  0  0  0  0  0  0  0  0  0  0  0
  161.5850  210.9770  149.7600 C   0  0  0  0  0  3  0  0  0  0  0  0
  158.5540  211.3120  155.5250 S   0  0  0  0  0  0  0  0  0  0  0  0
  160.4570  212.9250  150.6790 C   0  0  0  0  0  0  0  0  0  0  0  0
  160.4530  210.7970  151.9880 C   0  0  0  0  0  0  0  0  0  0  0  0
  161.5740  213.0620  148.5310 C   0  0  0  0  0  0  0  0  0  0  0  0
  160.8250  211.5660  150.7820 C   0  0  0  0  0  0  0  0  0  0  0  0
  159.7800  212.9120  153.0990 C   0  0  0  0  0  2  0  0  0  0  0  0
  160.8240  213.6600  149.5470 C   0  0  0  0  0  3  0  0  0  0  0  0
  160.0230  209.3470  154.4000 C   0  0  0  0  0  0  0  0  0  0  0  0
  160.9530  209.6130  152.1900 N   0  0  0  0  0  0  0  0  0  0  0  0
  159.6200  213.5900  151.7380 C   0  0  0  0  0  2  0  0  0  0  0  0
  160.2640  207.3520  155.7170 C   0  0  0  0  0  3  0  0  0  0  0  0
  159.4750  210.7150  154.3030 C   0  0  0  0  0  0  0  0  0  0  0  0
  159.8800  208.5890  155.6120 N   0  0  0  0  0  0  0  0  0  0  0  0
  161.9650  213.8510  147.3340 C   0  0  0  0  0  1  0  0  0  0  0  0
  161.9560  211.7220  148.6380 C   0  0  0  0  0  3  0  0  0  0  0  0
  159.4820  211.4170  152.9690 C   0  0  2  0  0  3  0  0  0  0  0  0
  160.8300  206.6020  154.5440 C   0  0  0  0  0  2  0  0  0  0  0  0
  160.7070  208.8300  153.3690 C   0  0  0  0  0  0  0  0  0  0  0  0
  162.1300  206.9780  152.4420 C   0  0  0  0  0  2  0  0  0  0  0  0
  161.3310  206.2700  151.4570 N   0  0  0  0  0  0  0  0  0  0  0  0
  160.9540  204.5010  149.2360 C   0  0  0  0  0  0  0  0  0  0  0  0
  161.7080  206.7900  150.1430 C   0  0  0  0  0  2  0  0  0  0  0  0
  161.7250  204.8620  151.5300 C   0  0  0  0  0  2  0  0  0  0  0  0
  160.8320  204.0040  150.6360 C   0  0  0  0  0  2  0  0  0  0  0  0
  161.4370  203.7940  148.3660 O   0  0  0  0  0  0  0  0  0  0  0  0
  160.5210  206.2030  148.8900 S   0  0  0  0  0  0  0  0  0  0  0  0
  1 19  1  0  0  0  0
  2  7  1  0  0  0  0
  4  7  2  0  0  0  0
  4 12  1  0  0  0  0
  5 11  2  0  0  0  0
  5 18  1  0  0  0  0
  6 17  1  0  0  0  0
  6  9  2  0  0  0  0
  7  5  1  0  0  0  0
  9  4  1  0  0  0  0
 10 15  1  0  0  0  0
 11 20  1  0  0  0  0
 12  8  1  0  0  0  0
 14 10  1  0  0  0  0
 14  3  2  0  0  0  0
 15 13  2  0  0  0  0
 16  6  1  0  0  0  0
 17  2  2  0  0  0  0
 18  8  1  1  0  0  0
 18 14  1  0  0  0  0
 19 13  1  0  0  0  0
 20  1  1  0  0  0  0
 20 10  2  0  0  0  0
 21  1  1  0  0  0  0
 22 25  1  0  0  0  0
 22 21  1  0  0  0  0
 23 26  1  0  0  0  0
 24 22  1  0  0  0  0
 26 25  1  0  0  0  0
 27 23  2  0  0  0  0
 28 23  1  0  0  0  0
 28 24  1  0  0  0  0
M  END
>  <MODEL>
7

>  <REMARK>
 VINA RESULT:      -6.8      3.318      7.454
  Name = 
  2 active torsions:
  status: ('A' for Active; 'I' for Inactive)
    1  A    between atoms: N_1  and  C_2
    2  A    between atoms: C_2  and  N_3
                            x       y       z     vdW  Elec       q    Type
                         _______ _______ _______ _____ _____    ______ ____

>  <TORSDO>
F 2

$$$$
=
 OpenBabel11052422553D

 28 32  0  0  1  0  0  0  0  0999 V2000
  161.9560  210.6250  149.3810 N   0  0  0  0  0  0  0  0  0  0  0  0
  161.2350  208.4820  153.9500 C   0  0  0  0  0  3  0  0  0  0  0  0
  158.9440  214.1040  151.5680 S   0  0  0  0  0  0  0  0  0  0  0  0
  159.6640  209.9740  155.0520 C   0  0  0  0  0  0  0  0  0  0  0  0
  160.5700  210.6140  152.8130 C   0  0  0  0  0  0  0  0  0  0  0  0
  160.3240  207.8980  156.1150 C   0  0  0  0  0  0  0  0  0  0  0  0
  160.5080  209.6810  153.9580 C   0  0  0  0  0  0  0  0  0  0  0  0
  158.6050  211.8260  153.7230 C   0  0  0  0  0  2  0  0  0  0  0  0
  159.5890  209.0850  156.1290 C   0  0  0  0  0  3  0  0  0  0  0  0
  160.5170  212.2120  150.4580 C   0  0  0  0  0  0  0  0  0  0  0  0
  161.1790  210.2640  151.7180 N   0  0  0  0  0  0  0  0  0  0  0  0
  158.8860  211.2610  155.1160 C   0  0  0  0  0  2  0  0  0  0  0  0
  161.2300  212.6510  148.2060 C   0  0  0  0  0  3  0  0  0  0  0  0
  159.7280  212.6620  151.6230 C   0  0  0  0  0  0  0  0  0  0  0  0
  160.4860  212.9540  149.2280 N   0  0  0  0  0  0  0  0  0  0  0  0
  160.2340  206.9550  157.2600 C   0  0  0  0  0  1  0  0  0  0  0  0
  161.1450  207.5950  155.0250 C   0  0  0  0  0  3  0  0  0  0  0  0
  159.9160  211.9710  152.9500 C   0  0  2  0  0  3  0  0  0  0  0  0
  162.2310  211.5330  148.2670 C   0  0  0  0  0  2  0  0  0  0  0  0
  161.2220  211.0750  150.5330 C   0  0  0  0  0  0  0  0  0  0  0  0
  162.6190  209.3290  149.3840 C   0  0  0  0  0  2  0  0  0  0  0  0
  161.6730  208.2890  149.0180 N   0  0  0  0  0  0  0  0  0  0  0  0
  160.8320  205.5700  148.6950 C   0  0  0  0  0  0  0  0  0  0  0  0
  162.2480  207.5640  147.8860 C   0  0  0  0  0  2  0  0  0  0  0  0
  161.5890  207.3780  150.1600 C   0  0  0  0  0  2  0  0  0  0  0  0
  160.5020  206.3280  149.9350 C   0  0  0  0  0  2  0  0  0  0  0  0
  161.0940  204.3790  148.7460 O   0  0  0  0  0  0  0  0  0  0  0  0
  160.9850  206.4710  147.1550 S   0  0  0  0  0  0  0  0  0  0  0  0
  1 21  1  0  0  0  0
  1 20  1  0  0  0  0
  2  7  2  0  0  0  0
  2 17  1  0  0  0  0
  3 14  2  0  0  0  0
  4 12  1  0  0  0  0
  4  9  2  0  0  0  0
  5 18  1  0  0  0  0
  5  7  1  0  0  0  0
  6  9  1  0  0  0  0
  6 16  1  0  0  0  0
  7  4  1  0  0  0  0
  8 12  1  0  0  0  0
 10 20  2  0  0  0  0
 10 14  1  0  0  0  0
 11  5  2  0  0  0  0
 13 19  1  0  0  0  0
 13 15  2  0  0  0  0
 14 18  1  0  0  0  0
 15 10  1  0  0  0  0
 17  6  2  0  0  0  0
 18  8  1  6  0  0  0
 19  1  1  0  0  0  0
 20 11  1  0  0  0  0
 22 21  1  0  0  0  0
 22 25  1  0  0  0  0
 23 27  2  0  0  0  0
 23 26  1  0  0  0  0
 24 22  1  0  0  0  0
 26 25  1  0  0  0  0
 28 24  1  0  0  0  0
 28 23  1  0  0  0  0
M  END
>  <MODEL>
8

>  <REMARK>
 VINA RESULT:      -6.7      3.553      7.200
  Name = 
  2 active torsions:
  status: ('A' for Active; 'I' for Inactive)
    1  A    between atoms: N_1  and  C_2
    2  A    between atoms: C_2  and  N_3
                            x       y       z     vdW  Elec       q    Type
                         _______ _______ _______ _____ _____    ______ ____

>  <TORSDO>
F 2

$$$$
