=
 OpenBabel11062409233D

 37 41  0  0  1  0  0  0  0  0999 V2000
  160.2230  207.5760  155.1360 C   0  0  1  0  0  3  0  0  0  0  0  0
  161.9860  209.0150  154.9480 O   0  0  0  0  0  1  0  0  0  0  0  0
  160.4560  208.0000  152.5080 C   0  0  1  0  0  3  0  0  0  0  0  0
  159.3070  210.8360  152.7170 O   0  0  0  0  0  0  0  0  0  0  0  0
  160.8500  207.0270  151.3790 C   0  0  0  0  0  2  0  0  0  0  0  0
  160.8000  208.8700  155.6810 C   0  0  1  0  0  0  0  0  0  0  0  0
  160.4760  210.5350  153.0790 C   0  0  0  0  0  0  0  0  0  0  0  0
  160.6510  211.3490  155.4340 C   0  0  0  0  0  0  0  0  0  0  0  0
  161.2650  205.9960  153.4650 C   0  0  0  0  0  0  0  0  0  0  0  0
  159.0130  208.8010  154.9720 S   0  0  0  0  0  0  0  0  0  0  0  0
  160.5140  210.2450  156.2100 C   0  0  0  0  0  3  0  0  0  0  0  0
  160.7190  207.2620  153.7700 N   0  0  0  0  0  0  0  0  0  0  0  0
  161.2020  209.3830  152.4030 C   0  0  2  0  0  3  0  0  0  0  0  0
  161.3850  205.7390  152.0160 C   0  0  1  0  0  3  0  0  0  0  0  0
  161.1010  211.2880  154.0930 O   0  0  0  0  0  0  0  0  0  0  0  0
  161.6190  205.1720  154.3500 O   0  0  0  0  0  0  0  0  0  0  0  0
  161.2400  203.2310  152.1040 C   0  0  0  0  0  2  0  0  0  0  0  0
  160.5850  204.4980  151.5950 C   0  0  2  0  0  3  0  0  0  0  0  0
  160.5080  204.3020  150.1030 C   0  0  0  0  0  2  0  0  0  0  0  0
  161.1620  202.9550  149.8910 C   0  0  1  0  0  3  0  0  0  0  0  0
  161.1470  202.2500  151.1050 O   0  0  0  0  0  0  0  0  0  0  0  0
  161.1980  201.0420  148.4380 O   0  0  0  0  0  1  0  0  0  0  0  0
  160.4510  202.1660  148.8010 C   0  0  0  0  0  2  0  0  0  0  0  0
  163.7180  210.5430  152.0240 O   0  0  0  0  0  1  0  0  0  0  0  0
  163.0280  210.4600  150.8130 C   0  0  2  0  0  3  0  0  0  0  0  0
  161.7880  211.3400  150.8910 C   0  0  2  0  0  3  0  0  0  0  0  0
  161.6560  209.8120  150.9900 C   0  0  2  0  0  0  0  0  0  0  0  0
  161.4720  211.9200  149.5440 C   0  0  0  0  0  0  0  0  0  0  0  0
  160.4470  212.6360  149.3960 O   0  0  0  0  0  1  0  0  0  0  0  0
  162.3300  211.7200  148.4690 O   0  0  0  0  0  0  0  0  0  0  0  0
  161.0640  209.1120  149.7550 C   0  0  0  0  0  2  0  0  0  0  0  0
  162.0020  208.1260  149.1490 C   0  0  0  0  0  0  0  0  0  0  0  0
  162.4810  206.5650  147.3660 O   0  0  0  0  0  1  0  0  0  0  0  0
  163.0840  207.8490  149.7320 O   0  0  0  0  0  0  0  0  0  0  0  0
  161.6610  207.4870  147.9220 N   0  0  0  0  0  2  0  0  0  0  0  0
  159.5120  213.4010  155.2420 O   0  0  0  0  0  1  0  0  0  0  0  0
  160.3970  212.6800  156.0440 C   0  0  0  0  0  2  0  0  0  0  0  0
  1 10  1  6  0  0  0
  1  6  1  0  0  0  0
  3  5  1  6  0  0  0
  3 12  1  0  0  0  0
  4  7  2  0  0  0  0
  6  2  1  6  0  0  0
  6 11  1  0  0  0  0
  7 15  1  0  0  0  0
  8 37  1  0  0  0  0
  8 11  2  0  0  0  0
  9 12  1  0  0  0  0
  9 16  2  0  0  0  0
 10  6  1  0  0  0  0
 12  1  1  0  0  0  0
 13  3  1  0  0  0  0
 13  7  1  6  0  0  0
 14  5  1  6  0  0  0
 14  9  1  0  0  0  0
 15  8  1  0  0  0  0
 18 19  1  6  0  0  0
 18 14  1  0  0  0  0
 18 17  1  0  0  0  0
 20 23  1  6  0  0  0
 20 19  1  0  0  0  0
 20 21  1  0  0  0  0
 21 17  1  0  0  0  0
 22 23  1  0  0  0  0
 25 26  1  0  0  0  0
 25 27  1  0  0  0  0
 25 24  1  1  0  0  0
 26 28  1  6  0  0  0
 26 27  1  0  0  0  0
 27 31  1  6  0  0  0
 27 13  1  0  0  0  0
 29 28  1  0  0  0  0
 30 28  2  0  0  0  0
 32 34  2  0  0  0  0
 32 31  1  0  0  0  0
 33 35  1  0  0  0  0
 35 32  1  0  0  0  0
 36 37  1  0  0  0  0
M  END
>  <MODEL>
1

>  <REMARK>
 VINA RESULT:      -2.8      0.000      0.000
  Name = 
  7 active torsions:
  status: ('A' for Active; 'I' for Inactive)
    1  A    between atoms: C_1  and  C_5
    2  A    between atoms: C_1  and  C_36
    3  A    between atoms: C_6  and  C_31
    4  A    between atoms: C_11  and  C_33
    5  A    between atoms: C_18  and  C_19
    6  A    between atoms: C_21  and  C_30
    7  A    between atoms: C_29  and  C_36
                            x       y       z     vdW  Elec       q    Type
                         _______ _______ _______ _____ _____    ______ ____

>  <TORSDO>
F 7

$$$$
=
 OpenBabel11062409233D

 37 41  0  0  1  0  0  0  0  0999 V2000
  161.7990  207.9040  149.1190 C   0  0  1  0  0  3  0  0  0  0  0  0
  163.1560  207.4300  150.8940 O   0  0  0  0  0  1  0  0  0  0  0  0
  160.9780  209.5650  151.0440 C   0  0  1  0  0  3  0  0  0  0  0  0
  159.6200  207.3070  152.6140 O   0  0  0  0  0  0  0  0  0  0  0  0
  161.0500  211.1030  151.1220 C   0  0  0  0  0  2  0  0  0  0  0  0
  162.3590  206.7640  149.9530 C   0  0  1  0  0  0  0  0  0  0  0  0
  160.8690  207.4750  152.5840 C   0  0  0  0  0  0  0  0  0  0  0  0
  161.7980  205.2690  151.8700 C   0  0  0  0  0  0  0  0  0  0  0  0
  162.3460  210.3630  149.2900 C   0  0  0  0  0  0  0  0  0  0  0  0
  160.4630  206.9710  149.7010 S   0  0  0  0  0  0  0  0  0  0  0  0
  162.1090  205.4150  150.5580 C   0  0  0  0  0  3  0  0  0  0  0  0
  161.7880  209.1950  149.8560 N   0  0  0  0  0  0  0  0  0  0  0  0
  161.4390  208.8690  152.3800 C   0  0  2  0  0  3  0  0  0  0  0  0
  161.9500  211.6030  149.9860 C   0  0  1  0  0  3  0  0  0  0  0  0
  161.7200  206.3660  152.7610 O   0  0  0  0  0  0  0  0  0  0  0  0
  163.1110  210.3390  148.2890 O   0  0  0  0  0  0  0  0  0  0  0  0
  160.5110  211.8250  147.9380 C   0  0  0  0  0  2  0  0  0  0  0  0
  161.2250  212.5740  149.0430 C   0  0  2  0  0  3  0  0  0  0  0  0
  162.1480  213.5160  148.3160 C   0  0  0  0  0  2  0  0  0  0  0  0
  161.9040  213.1930  146.8590 C   0  0  1  0  0  3  0  0  0  0  0  0
  160.6660  212.5420  146.7420 O   0  0  0  0  0  0  0  0  0  0  0  0
  162.1200  214.1320  144.6580 O   0  0  0  0  0  1  0  0  0  0  0  0
  161.9340  214.4530  146.0060 C   0  0  0  0  0  2  0  0  0  0  0  0
  163.4750  210.5880  153.2270 O   0  0  0  0  0  1  0  0  0  0  0  0
  162.4060  210.6120  154.1260 C   0  0  2  0  0  3  0  0  0  0  0  0
  162.2620  209.2330  154.7560 C   0  0  2  0  0  3  0  0  0  0  0  0
  161.2720  209.6940  153.6760 C   0  0  2  0  0  0  0  0  0  0  0  0
  161.7660  209.3510  156.1670 C   0  0  0  0  0  0  0  0  0  0  0  0
  161.2620  208.3500  156.7390 O   0  0  0  0  0  0  0  0  0  0  0  0
  161.9090  210.5430  156.8690 O   0  0  0  0  0  1  0  0  0  0  0  0
  159.8610  210.0530  154.1730 C   0  0  0  0  0  2  0  0  0  0  0  0
  159.5500  211.5010  154.0200 C   0  0  0  0  0  0  0  0  0  0  0  0
  158.3530  213.2380  152.8380 O   0  0  0  0  0  1  0  0  0  0  0  0
  160.1120  212.3460  154.7670 O   0  0  0  0  0  0  0  0  0  0  0  0
  158.6300  211.9260  153.0170 N   0  0  0  0  0  2  0  0  0  0  0  0
  161.0430  203.0820  151.4270 O   0  0  0  0  0  1  0  0  0  0  0  0
  161.6130  203.8950  152.4060 C   0  0  0  0  0  2  0  0  0  0  0  0
  1 10  1  1  0  0  0
  1 12  1  0  0  0  0
  1  6  1  0  0  0  0
  3  5  1  1  0  0  0
  3 13  1  0  0  0  0
  6 11  1  0  0  0  0
  6  2  1  1  0  0  0
  7  4  2  0  0  0  0
  7 15  1  0  0  0  0
  8 37  1  0  0  0  0
  8 15  1  0  0  0  0
  9 12  1  0  0  0  0
  9 14  1  0  0  0  0
 10  6  1  0  0  0  0
 11  8  2  0  0  0  0
 12  3  1  0  0  0  0
 13  7  1  1  0  0  0
 13 27  1  0  0  0  0
 14  5  1  1  0  0  0
 16  9  2  0  0  0  0
 18 17  1  6  0  0  0
 18 14  1  0  0  0  0
 19 18  1  0  0  0  0
 20 23  1  6  0  0  0
 20 19  1  0  0  0  0
 21 20  1  0  0  0  0
 21 17  1  0  0  0  0
 22 23  1  0  0  0  0
 25 24  1  6  0  0  0
 25 26  1  0  0  0  0
 26 28  1  1  0  0  0
 27 25  1  0  0  0  0
 27 31  1  1  0  0  0
 27 26  1  0  0  0  0
 28 29  2  0  0  0  0
 28 30  1  0  0  0  0
 32 31  1  0  0  0  0
 32 34  2  0  0  0  0
 33 35  1  0  0  0  0
 35 32  1  0  0  0  0
 36 37  1  0  0  0  0
M  END
>  <MODEL>
2

>  <REMARK>
 VINA RESULT:      -1.8      2.315      7.408
  Name = 
  7 active torsions:
  status: ('A' for Active; 'I' for Inactive)
    1  A    between atoms: C_1  and  C_5
    2  A    between atoms: C_1  and  C_36
    3  A    between atoms: C_6  and  C_31
    4  A    between atoms: C_11  and  C_33
    5  A    between atoms: C_18  and  C_19
    6  A    between atoms: C_21  and  C_30
    7  A    between atoms: C_29  and  C_36
                            x       y       z     vdW  Elec       q    Type
                         _______ _______ _______ _____ _____    ______ ____

>  <TORSDO>
F 7

$$$$
=
 OpenBabel11062409233D

 37 41  0  0  1  0  0  0  0  0999 V2000
  161.9440  208.4010  148.9240 C   0  0  1  0  0  3  0  0  0  0  0  0
  163.2720  207.9280  150.7210 O   0  0  0  0  0  1  0  0  0  0  0  0
  160.9330  209.8840  150.9050 C   0  0  1  0  0  3  0  0  0  0  0  0
  159.7000  207.4440  152.2950 O   0  0  0  0  0  0  0  0  0  0  0  0
  160.8860  211.4150  151.0690 C   0  0  0  0  0  2  0  0  0  0  0  0
  162.5600  207.2600  149.7150 C   0  0  1  0  0  0  0  0  0  0  0  0
  160.9330  207.7050  152.3220 C   0  0  0  0  0  0  0  0  0  0  0  0
  162.0500  205.6190  151.5240 C   0  0  0  0  0  0  0  0  0  0  0  0
  162.2950  210.8800  149.2500 C   0  0  0  0  0  0  0  0  0  0  0  0
  160.6630  207.3400  149.4020 S   0  0  0  0  0  0  0  0  0  0  0  0
  162.3940  205.8630  150.2340 C   0  0  0  0  0  3  0  0  0  0  0  0
  161.8090  209.6430  149.7290 N   0  0  0  0  0  0  0  0  0  0  0  0
  161.4010  209.1480  152.2170 C   0  0  2  0  0  3  0  0  0  0  0  0
  161.7830  212.0450  149.9980 C   0  0  1  0  0  3  0  0  0  0  0  0
  161.8590  206.6540  152.4710 O   0  0  0  0  0  0  0  0  0  0  0  0
  163.0940  210.9710  148.2790 O   0  0  0  0  0  0  0  0  0  0  0  0
  159.7730  213.5360  149.7660 C   0  0  0  0  0  2  0  0  0  0  0  0
  161.0190  213.0120  149.0830 C   0  0  2  0  0  3  0  0  0  0  0  0
  160.5070  212.3740  147.8180 C   0  0  0  0  0  2  0  0  0  0  0  0
  159.0090  212.5580  147.9120 C   0  0  1  0  0  3  0  0  0  0  0  0
  158.7380  213.5930  148.8200 O   0  0  0  0  0  0  0  0  0  0  0  0
  157.1740  212.2290  146.3970 O   0  0  0  0  0  1  0  0  0  0  0  0
  158.4090  212.8670  146.5480 C   0  0  0  0  0  2  0  0  0  0  0  0
  163.4260  210.6310  153.4470 O   0  0  0  0  0  1  0  0  0  0  0  0
  162.2570  210.6700  154.2090 C   0  0  2  0  0  3  0  0  0  0  0  0
  161.9400  209.2630  154.6970 C   0  0  2  0  0  3  0  0  0  0  0  0
  161.1280  209.8810  153.5490 C   0  0  2  0  0  0  0  0  0  0  0  0
  161.2780  209.3120  156.0430 C   0  0  0  0  0  0  0  0  0  0  0  0
  160.5550  208.3530  156.4200 O   0  0  0  0  0  0  0  0  0  0  0  0
  161.5000  210.3830  156.9020 O   0  0  0  0  0  1  0  0  0  0  0  0
  159.6940  210.3120  153.9010 C   0  0  0  0  0  2  0  0  0  0  0  0
  159.5480  211.7890  154.0120 C   0  0  0  0  0  0  0  0  0  0  0  0
  158.6140  213.8400  153.1350 O   0  0  0  0  0  1  0  0  0  0  0  0
  160.1530  212.4130  154.9250 O   0  0  0  0  0  0  0  0  0  0  0  0
  158.7380  212.4930  153.0730 N   0  0  0  0  0  2  0  0  0  0  0  0
  160.6590  203.9480  152.4270 O   0  0  0  0  0  1  0  0  0  0  0  0
  161.9530  204.2070  151.9760 C   0  0  0  0  0  2  0  0  0  0  0  0
  1 10  1  1  0  0  0
  1  6  1  0  0  0  0
  1 12  1  0  0  0  0
  3  5  1  1  0  0  0
  3 13  1  0  0  0  0
  4  7  2  0  0  0  0
  6 11  1  0  0  0  0
  6  2  1  1  0  0  0
  7 15  1  0  0  0  0
  8 37  1  0  0  0  0
  8 15  1  0  0  0  0
  9 12  1  0  0  0  0
  9 14  1  0  0  0  0
 10  6  1  0  0  0  0
 11  8  2  0  0  0  0
 12  3  1  0  0  0  0
 13  7  1  1  0  0  0
 13 27  1  0  0  0  0
 14  5  1  1  0  0  0
 16  9  2  0  0  0  0
 18 19  1  6  0  0  0
 18 17  1  0  0  0  0
 18 14  1  0  0  0  0
 19 20  1  0  0  0  0
 20 23  1  6  0  0  0
 20 21  1  0  0  0  0
 21 17  1  0  0  0  0
 22 23  1  0  0  0  0
 25 24  1  6  0  0  0
 25 26  1  0  0  0  0
 26 28  1  1  0  0  0
 27 31  1  1  0  0  0
 27 25  1  0  0  0  0
 27 26  1  0  0  0  0
 28 29  2  0  0  0  0
 28 30  1  0  0  0  0
 31 32  1  0  0  0  0
 32 34  2  0  0  0  0
 35 33  1  0  0  0  0
 35 32  1  0  0  0  0
 37 36  1  0  0  0  0
M  END
>  <MODEL>
3

>  <REMARK>
 VINA RESULT:      -1.8      2.375      7.308
  Name = 
  7 active torsions:
  status: ('A' for Active; 'I' for Inactive)
    1  A    between atoms: C_1  and  C_5
    2  A    between atoms: C_1  and  C_36
    3  A    between atoms: C_6  and  C_31
    4  A    between atoms: C_11  and  C_33
    5  A    between atoms: C_18  and  C_19
    6  A    between atoms: C_21  and  C_30
    7  A    between atoms: C_29  and  C_36
                            x       y       z     vdW  Elec       q    Type
                         _______ _______ _______ _____ _____    ______ ____

>  <TORSDO>
F 7

$$$$
=
 OpenBabel11062409233D

 37 41  0  0  1  0  0  0  0  0999 V2000
  161.9110  208.6820  147.9730 C   0  0  1  0  0  3  0  0  0  0  0  0
  160.3860  210.0950  148.9180 O   0  0  0  0  0  1  0  0  0  0  0  0
  162.0000  208.1070  150.5810 C   0  0  1  0  0  3  0  0  0  0  0  0
  163.4960  210.7000  151.2500 O   0  0  0  0  0  0  0  0  0  0  0  0
  161.5930  206.8200  151.3250 C   0  0  0  0  0  2  0  0  0  0  0  0
  161.4620  210.1330  148.0220 C   0  0  1  0  0  0  0  0  0  0  0  0
  162.2660  210.6620  150.9750 C   0  0  0  0  0  0  0  0  0  0  0  0
  161.9690  212.3130  149.1240 C   0  0  0  0  0  0  0  0  0  0  0  0
  160.8360  206.6900  149.0900 C   0  0  0  0  0  0  0  0  0  0  0  0
  163.2860  209.6450  148.3940 S   0  0  0  0  0  0  0  0  0  0  0  0
  161.8770  211.5740  147.9900 C   0  0  0  0  0  3  0  0  0  0  0  0
  161.5160  207.9240  149.1890 N   0  0  0  0  0  0  0  0  0  0  0  0
  161.4620  209.4100  151.2840 C   0  0  2  0  0  3  0  0  0  0  0  0
  160.8280  205.9190  150.3490 C   0  0  1  0  0  3  0  0  0  0  0  0
  161.6500  211.7920  150.4020 O   0  0  0  0  0  0  0  0  0  0  0  0
  160.2880  206.2940  148.0270 O   0  0  0  0  0  0  0  0  0  0  0  0
  161.7590  204.2530  148.7120 C   0  0  0  0  0  2  0  0  0  0  0  0
  161.4910  204.5440  150.1740 C   0  0  2  0  0  3  0  0  0  0  0  0
  160.6330  203.3940  150.6310 C   0  0  0  0  0  2  0  0  0  0  0  0
  160.4560  202.5680  149.3760 C   0  0  1  0  0  3  0  0  0  0  0  0
  161.4740  202.9010  148.4690 O   0  0  0  0  0  0  0  0  0  0  0  0
  161.2140  200.3820  148.7270 O   0  0  0  0  0  1  0  0  0  0  0  0
  160.4820  201.0790  149.6920 C   0  0  0  0  0  2  0  0  0  0  0  0
  159.1540  210.5200  152.4060 O   0  0  0  0  0  1  0  0  0  0  0  0
  159.9530  209.9450  153.3960 C   0  0  2  0  0  3  0  0  0  0  0  0
  161.2730  210.7020  153.4640 C   0  0  2  0  0  3  0  0  0  0  0  0
  161.2130  209.3150  152.8060 C   0  0  2  0  0  0  0  0  0  0  0  0
  161.7960  210.7170  154.8710 C   0  0  0  0  0  0  0  0  0  0  0  0
  163.0370  210.7000  155.0770 O   0  0  0  0  0  0  0  0  0  0  0  0
  160.9220  210.8070  155.9480 O   0  0  0  0  0  1  0  0  0  0  0  0
  161.8460  208.1660  153.6110 C   0  0  0  0  0  2  0  0  0  0  0  0
  160.8510  207.4270  154.4360 C   0  0  0  0  0  0  0  0  0  0  0  0
  159.9130  206.9760  156.6190 O   0  0  0  0  0  1  0  0  0  0  0  0
  160.0810  206.5910  153.8930 O   0  0  0  0  0  0  0  0  0  0  0  0
  160.7880  207.6560  155.8420 N   0  0  0  0  0  2  0  0  0  0  0  0
  162.7600  214.0180  147.7050 O   0  0  0  0  0  1  0  0  0  0  0  0
  162.3380  213.7480  149.0070 C   0  0  0  0  0  2  0  0  0  0  0  0
  1  6  1  0  0  0  0
  1 10  1  1  0  0  0
  1 12  1  0  0  0  0
  3 13  1  0  0  0  0
  3  5  1  1  0  0  0
  6 10  1  0  0  0  0
  6  2  1  1  0  0  0
  7  4  2  0  0  0  0
  8 15  1  0  0  0  0
  9 12  1  0  0  0  0
  9 14  1  0  0  0  0
 11  6  1  0  0  0  0
 11  8  2  0  0  0  0
 12  3  1  0  0  0  0
 13  7  1  1  0  0  0
 13 27  1  0  0  0  0
 14  5  1  1  0  0  0
 15  7  1  0  0  0  0
 16  9  2  0  0  0  0
 18 17  1  6  0  0  0
 18 14  1  0  0  0  0
 18 19  1  0  0  0  0
 20 23  1  1  0  0  0
 20 19  1  0  0  0  0
 21 17  1  0  0  0  0
 21 20  1  0  0  0  0
 22 23  1  0  0  0  0
 25 24  1  6  0  0  0
 25 26  1  0  0  0  0
 26 28  1  1  0  0  0
 27 25  1  0  0  0  0
 27 26  1  0  0  0  0
 27 31  1  1  0  0  0
 28 29  2  0  0  0  0
 28 30  1  0  0  0  0
 31 32  1  0  0  0  0
 32 35  1  0  0  0  0
 34 32  2  0  0  0  0
 35 33  1  0  0  0  0
 36 37  1  0  0  0  0
 37  8  1  0  0  0  0
M  END
>  <MODEL>
4

>  <REMARK>
 VINA RESULT:      -0.3      2.092      5.274
  Name = 
  7 active torsions:
  status: ('A' for Active; 'I' for Inactive)
    1  A    between atoms: C_1  and  C_5
    2  A    between atoms: C_1  and  C_36
    3  A    between atoms: C_6  and  C_31
    4  A    between atoms: C_11  and  C_33
    5  A    between atoms: C_18  and  C_19
    6  A    between atoms: C_21  and  C_30
    7  A    between atoms: C_29  and  C_36
                            x       y       z     vdW  Elec       q    Type
                         _______ _______ _______ _____ _____    ______ ____

>  <TORSDO>
F 7

$$$$
=
 OpenBabel11062409233D

 37 41  0  0  1  0  0  0  0  0999 V2000
  161.2170  208.6670  153.0640 C   0  0  1  0  0  3  0  0  0  0  0  0
  162.2620  210.6970  153.1320 O   0  0  0  0  0  1  0  0  0  0  0  0
  160.7170  209.7500  150.6730 C   0  0  1  0  0  3  0  0  0  0  0  0
  158.6980  211.7440  151.8370 O   0  0  0  0  0  0  0  0  0  0  0  0
  161.1850  209.3130  149.2720 C   0  0  0  0  0  2  0  0  0  0  0  0
  161.3920  209.9190  153.9080 C   0  0  1  0  0  0  0  0  0  0  0  0
  159.9460  211.8670  151.9690 C   0  0  0  0  0  0  0  0  0  0  0  0
  160.3130  212.1080  154.4280 C   0  0  0  0  0  0  0  0  0  0  0  0
  162.3760  208.0830  150.9000 C   0  0  0  0  0  0  0  0  0  0  0  0
  159.6420  209.3000  153.4010 S   0  0  0  0  0  0  0  0  0  0  0  0
  160.7510  210.8950  154.8490 C   0  0  0  0  0  3  0  0  0  0  0  0
  161.4900  208.9100  151.6240 N   0  0  0  0  0  0  0  0  0  0  0  0
  160.8760  211.3000  150.9090 C   0  0  2  0  0  3  0  0  0  0  0  0
  162.2690  208.2420  149.4360 C   0  0  1  0  0  3  0  0  0  0  0  0
  160.4590  212.5480  153.0900 O   0  0  0  0  0  0  0  0  0  0  0  0
  163.1830  207.2910  151.4570 O   0  0  0  0  0  0  0  0  0  0  0  0
  163.0720  206.3660  147.9680 C   0  0  0  0  0  2  0  0  0  0  0  0
  161.8990  206.9190  148.7500 C   0  0  2  0  0  3  0  0  0  0  0  0
  160.8010  207.0520  147.7270 C   0  0  0  0  0  2  0  0  0  0  0  0
  161.4600  206.5980  146.4430 C   0  0  1  0  0  3  0  0  0  0  0  0
  162.5910  205.8310  146.7630 O   0  0  0  0  0  0  0  0  0  0  0  0
  161.1490  205.2520  144.4780 O   0  0  0  0  0  1  0  0  0  0  0  0
  160.4920  205.7980  145.5840 C   0  0  0  0  0  2  0  0  0  0  0  0
  160.9880  214.0830  151.1510 O   0  0  0  0  0  1  0  0  0  0  0  0
  160.8780  213.7110  149.8100 C   0  0  2  0  0  3  0  0  0  0  0  0
  159.5380  213.0180  149.5990 C   0  0  2  0  0  3  0  0  0  0  0  0
  160.8330  212.1930  149.6480 C   0  0  2  0  0  0  0  0  0  0  0  0
  159.0140  213.2990  148.2210 C   0  0  0  0  0  0  0  0  0  0  0  0
  158.1140  212.5680  147.7330 O   0  0  0  0  0  1  0  0  0  0  0  0
  159.4760  214.3930  147.4990 O   0  0  0  0  0  0  0  0  0  0  0  0
  161.3190  211.6320  148.3010 C   0  0  0  0  0  2  0  0  0  0  0  0
  162.3800  212.4710  147.6790 C   0  0  0  0  0  0  0  0  0  0  0  0
  163.0880  213.8620  145.8320 O   0  0  0  0  0  1  0  0  0  0  0  0
  163.4980  212.5930  148.2460 O   0  0  0  0  0  0  0  0  0  0  0  0
  162.1300  213.1180  146.4330 N   0  0  0  0  0  2  0  0  0  0  0  0
  160.1940  212.7030  156.7030 O   0  0  0  0  0  1  0  0  0  0  0  0
  159.7330  213.0390  155.4310 C   0  0  0  0  0  2  0  0  0  0  0  0
  1 10  1  6  0  0  0
  1  6  1  0  0  0  0
  3  5  1  6  0  0  0
  3 13  1  0  0  0  0
  3 12  1  0  0  0  0
  4  7  2  0  0  0  0
  6  2  1  6  0  0  0
  6 11  1  0  0  0  0
  7 15  1  0  0  0  0
  8 11  2  0  0  0  0
  8 37  1  0  0  0  0
  9 16  2  0  0  0  0
  9 12  1  0  0  0  0
 10  6  1  0  0  0  0
 12  1  1  0  0  0  0
 13  7  1  1  0  0  0
 14  5  1  1  0  0  0
 14  9  1  0  0  0  0
 15  8  1  0  0  0  0
 17 18  1  0  0  0  0
 18 19  1  6  0  0  0
 18 14  1  0  0  0  0
 20 23  1  1  0  0  0
 20 21  1  0  0  0  0
 20 19  1  0  0  0  0
 21 17  1  0  0  0  0
 22 23  1  0  0  0  0
 25 24  1  1  0  0  0
 26 28  1  6  0  0  0
 26 27  1  0  0  0  0
 26 25  1  0  0  0  0
 27 31  1  6  0  0  0
 27 25  1  0  0  0  0
 27 13  1  0  0  0  0
 29 28  1  0  0  0  0
 30 28  2  0  0  0  0
 32 34  2  0  0  0  0
 32 31  1  0  0  0  0
 33 35  1  0  0  0  0
 35 32  1  0  0  0  0
 37 36  1  0  0  0  0
M  END
>  <MODEL>
5

>  <REMARK>
 VINA RESULT:      -0.2      2.687      3.737
  Name = 
  7 active torsions:
  status: ('A' for Active; 'I' for Inactive)
    1  A    between atoms: C_1  and  C_5
    2  A    between atoms: C_1  and  C_36
    3  A    between atoms: C_6  and  C_31
    4  A    between atoms: C_11  and  C_33
    5  A    between atoms: C_18  and  C_19
    6  A    between atoms: C_21  and  C_30
    7  A    between atoms: C_29  and  C_36
                            x       y       z     vdW  Elec       q    Type
                         _______ _______ _______ _____ _____    ______ ____

>  <TORSDO>
F 7

$$$$
=
 OpenBabel11062409233D

 37 41  0  0  1  0  0  0  0  0999 V2000
  161.5410  206.0700  151.0780 C   0  0  1  0  0  3  0  0  0  0  0  0
  160.0810  206.9280  149.5450 O   0  0  0  0  0  1  0  0  0  0  0  0
  162.1050  208.6820  151.0130 C   0  0  1  0  0  3  0  0  0  0  0  0
  163.4720  208.4650  148.2760 O   0  0  0  0  0  0  0  0  0  0  0  0
  161.9320  209.7590  152.1010 C   0  0  0  0  0  2  0  0  0  0  0  0
  160.9890  205.8680  149.6780 C   0  0  1  0  0  0  0  0  0  0  0  0
  162.2210  208.4310  148.4290 C   0  0  0  0  0  0  0  0  0  0  0  0
  161.4900  206.3380  147.2790 C   0  0  0  0  0  0  0  0  0  0  0  0
  160.8310  207.7850  152.7900 C   0  0  0  0  0  0  0  0  0  0  0  0
  162.8820  206.0090  149.9880 S   0  0  0  0  0  0  0  0  0  0  0  0
  161.2730  205.4370  148.2690 C   0  0  0  0  0  3  0  0  0  0  0  0
  161.4140  207.4770  151.5410 N   0  0  0  0  0  0  0  0  0  0  0  0
  161.5840  209.1560  149.6030 C   0  0  2  0  0  3  0  0  0  0  0  0
  161.0930  209.1660  153.2400 C   0  0  1  0  0  3  0  0  0  0  0  0
  161.4300  207.7360  147.4930 O   0  0  0  0  0  0  0  0  0  0  0  0
  160.1490  206.9550  153.4500 O   0  0  0  0  0  0  0  0  0  0  0  0
  160.9020  208.7980  155.7190 C   0  0  0  0  0  2  0  0  0  0  0  0
  161.8280  209.1920  154.5880 C   0  0  2  0  0  3  0  0  0  0  0  0
  162.3330  210.5560  154.9790 C   0  0  0  0  0  2  0  0  0  0  0  0
  161.6170  210.8350  156.2820 C   0  0  1  0  0  3  0  0  0  0  0  0
  161.1760  209.6180  156.8240 O   0  0  0  0  0  0  0  0  0  0  0  0
  163.8360  211.0840  157.1690 O   0  0  0  0  0  1  0  0  0  0  0  0
  162.5270  211.5640  157.2610 C   0  0  0  0  0  2  0  0  0  0  0  0
  160.4740  210.1940  147.2570 O   0  0  0  0  0  1  0  0  0  0  0  0
  161.0010  211.2180  148.0460 C   0  0  2  0  0  3  0  0  0  0  0  0
  162.5080  211.0290  148.1570 C   0  0  2  0  0  3  0  0  0  0  0  0
  161.5980  210.6790  149.3440 C   0  0  2  0  0  0  0  0  0  0  0  0
  163.1970  212.3590  148.2540 C   0  0  0  0  0  0  0  0  0  0  0  0
  164.4080  212.4130  148.5930 O   0  0  0  0  0  1  0  0  0  0  0  0
  162.5260  213.5290  147.9190 O   0  0  0  0  0  0  0  0  0  0  0  0
  161.6470  211.6530  150.5340 C   0  0  0  0  0  2  0  0  0  0  0  0
  160.3920  212.4400  150.6830 C   0  0  0  0  0  0  0  0  0  0  0  0
  158.4250  212.9550  151.9920 O   0  0  0  0  0  1  0  0  0  0  0  0
  160.0400  213.2390  149.7740 O   0  0  0  0  0  0  0  0  0  0  0  0
  159.5850  212.2730  151.8460 N   0  0  0  0  0  2  0  0  0  0  0  0
  162.1120  204.4970  145.9480 O   0  0  0  0  0  1  0  0  0  0  0  0
  161.7170  205.8340  145.8990 C   0  0  0  0  0  2  0  0  0  0  0  0
  1 10  1  6  0  0  0
  1 12  1  0  0  0  0
  3 12  1  0  0  0  0
  3  5  1  1  0  0  0
  4  7  2  0  0  0  0
  6  2  1  6  0  0  0
  6 10  1  0  0  0  0
  6  1  1  0  0  0  0
  8 15  1  0  0  0  0
  8 11  2  0  0  0  0
  9 14  1  0  0  0  0
  9 16  2  0  0  0  0
 11  6  1  0  0  0  0
 12  9  1  0  0  0  0
 13  7  1  6  0  0  0
 13  3  1  0  0  0  0
 14  5  1  6  0  0  0
 14 18  1  0  0  0  0
 15  7  1  0  0  0  0
 17 21  1  0  0  0  0
 18 19  1  1  0  0  0
 18 17  1  0  0  0  0
 19 20  1  0  0  0  0
 20 21  1  0  0  0  0
 20 23  1  1  0  0  0
 22 23  1  0  0  0  0
 25 24  1  6  0  0  0
 25 26  1  0  0  0  0
 25 27  1  0  0  0  0
 26 28  1  1  0  0  0
 26 27  1  0  0  0  0
 27 13  1  0  0  0  0
 27 31  1  1  0  0  0
 28 29  1  0  0  0  0
 30 28  2  0  0  0  0
 31 32  1  0  0  0  0
 32 35  1  0  0  0  0
 34 32  2  0  0  0  0
 35 33  1  0  0  0  0
 37 36  1  0  0  0  0
 37  8  1  0  0  0  0
M  END
>  <MODEL>
6

>  <REMARK>
 VINA RESULT:      -0.2      2.535      6.949
  Name = 
  7 active torsions:
  status: ('A' for Active; 'I' for Inactive)
    1  A    between atoms: C_1  and  C_5
    2  A    between atoms: C_1  and  C_36
    3  A    between atoms: C_6  and  C_31
    4  A    between atoms: C_11  and  C_33
    5  A    between atoms: C_18  and  C_19
    6  A    between atoms: C_21  and  C_30
    7  A    between atoms: C_29  and  C_36
                            x       y       z     vdW  Elec       q    Type
                         _______ _______ _______ _____ _____    ______ ____

>  <TORSDO>
F 7

$$$$
=
 OpenBabel11062409233D

 37 41  0  0  1  0  0  0  0  0999 V2000
  160.8100  205.8430  154.3990 C   0  0  1  0  0  3  0  0  0  0  0  0
  162.5290  207.3440  154.4950 O   0  0  0  0  0  1  0  0  0  0  0  0
  160.5620  207.2790  152.1600 C   0  0  1  0  0  3  0  0  0  0  0  0
  159.5100  209.7290  153.6760 O   0  0  0  0  0  0  0  0  0  0  0  0
  160.7290  206.8540  150.6880 C   0  0  0  0  0  2  0  0  0  0  0  0
  161.4960  206.8520  155.3050 C   0  0  1  0  0  0  0  0  0  0  0  0
  160.7220  209.3820  153.6780 C   0  0  0  0  0  0  0  0  0  0  0  0
  161.3380  209.2130  156.0930 C   0  0  0  0  0  0  0  0  0  0  0  0
  161.5060  205.1140  152.0850 C   0  0  0  0  0  0  0  0  0  0  0  0
  159.6080  206.9580  154.9500 S   0  0  0  0  0  0  0  0  0  0  0  0
  161.3310  207.8870  156.3770 C   0  0  0  0  0  3  0  0  0  0  0  0
  161.0430  206.1220  152.9580 N   0  0  0  0  0  0  0  0  0  0  0  0
  161.2950  208.6350  152.4850 C   0  0  2  0  0  3  0  0  0  0  0  0
  161.3540  205.4540  150.6560 C   0  0  1  0  0  3  0  0  0  0  0  0
  161.5330  209.7120  154.7820 O   0  0  0  0  0  0  0  0  0  0  0  0
  162.0060  204.0310  152.4930 O   0  0  0  0  0  0  0  0  0  0  0  0
  160.4790  203.0980  150.6390 C   0  0  0  0  0  2  0  0  0  0  0  0
  160.4730  204.4320  149.9230 C   0  0  2  0  0  3  0  0  0  0  0  0
  160.9490  204.1090  148.5310 C   0  0  0  0  0  2  0  0  0  0  0  0
  161.2210  202.6220  148.5890 C   0  0  1  0  0  3  0  0  0  0  0  0
  160.5200  202.0770  149.6770 O   0  0  0  0  0  0  0  0  0  0  0  0
  161.1650  202.7260  146.1890 O   0  0  0  0  0  1  0  0  0  0  0  0
  160.8160  201.9400  147.2910 C   0  0  0  0  0  2  0  0  0  0  0  0
  163.5260  210.3180  152.3990 O   0  0  0  0  0  1  0  0  0  0  0  0
  162.7050  210.5330  151.2900 C   0  0  2  0  0  3  0  0  0  0  0  0
  161.3630  211.0710  151.7670 C   0  0  2  0  0  3  0  0  0  0  0  0
  161.4870  209.6120  151.3040 C   0  0  2  0  0  0  0  0  0  0  0  0
  160.7860  212.0140  150.7520 C   0  0  0  0  0  0  0  0  0  0  0  0
  159.6370  212.4960  150.9280 O   0  0  0  0  0  1  0  0  0  0  0  0
  161.5320  212.4050  149.6460 O   0  0  0  0  0  0  0  0  0  0  0  0
  160.8560  209.2880  149.9390 C   0  0  0  0  0  2  0  0  0  0  0  0
  161.8720  208.9650  148.8980 C   0  0  0  0  0  0  0  0  0  0  0  0
  163.0080  207.2880  147.5780 O   0  0  0  0  0  1  0  0  0  0  0  0
  162.5610  209.8870  148.3860 O   0  0  0  0  0  0  0  0  0  0  0  0
  162.0710  207.6110  148.5000 N   0  0  0  0  0  2  0  0  0  0  0  0
  159.9680  210.7960  157.1730 O   0  0  0  0  0  1  0  0  0  0  0  0
  161.2180  210.1800  157.2170 C   0  0  0  0  0  2  0  0  0  0  0  0
  1 10  1  6  0  0  0
  1  6  1  0  0  0  0
  3  5  1  6  0  0  0
  3 13  1  0  0  0  0
  3 12  1  0  0  0  0
  4  7  2  0  0  0  0
  6  2  1  6  0  0  0
  6 11  1  0  0  0  0
  7 15  1  0  0  0  0
  8 11  2  0  0  0  0
  8 37  1  0  0  0  0
  9 16  2  0  0  0  0
  9 12  1  0  0  0  0
 10  6  1  0  0  0  0
 12  1  1  0  0  0  0
 13  7  1  1  0  0  0
 14  5  1  1  0  0  0
 14  9  1  0  0  0  0
 15  8  1  0  0  0  0
 18 19  1  6  0  0  0
 18 17  1  0  0  0  0
 18 14  1  0  0  0  0
 19 20  1  0  0  0  0
 20 23  1  6  0  0  0
 20 21  1  0  0  0  0
 21 17  1  0  0  0  0
 22 23  1  0  0  0  0
 25 27  1  0  0  0  0
 25 26  1  0  0  0  0
 25 24  1  1  0  0  0
 26 28  1  6  0  0  0
 27 31  1  6  0  0  0
 27 26  1  0  0  0  0
 27 13  1  0  0  0  0
 28 29  1  0  0  0  0
 30 28  2  0  0  0  0
 32 31  1  0  0  0  0
 33 35  1  0  0  0  0
 34 32  2  0  0  0  0
 35 32  1  0  0  0  0
 36 37  1  0  0  0  0
M  END
>  <MODEL>
7

>  <REMARK>
 VINA RESULT:      -0.1      1.436      1.704
  Name = 
  7 active torsions:
  status: ('A' for Active; 'I' for Inactive)
    1  A    between atoms: C_1  and  C_5
    2  A    between atoms: C_1  and  C_36
    3  A    between atoms: C_6  and  C_31
    4  A    between atoms: C_11  and  C_33
    5  A    between atoms: C_18  and  C_19
    6  A    between atoms: C_21  and  C_30
    7  A    between atoms: C_29  and  C_36
                            x       y       z     vdW  Elec       q    Type
                         _______ _______ _______ _____ _____    ______ ____

>  <TORSDO>
F 7

$$$$
=
 OpenBabel11062409233D

 37 41  0  0  1  0  0  0  0  0999 V2000
  161.1890  202.4230  151.3690 C   0  0  1  0  0  3  0  0  0  0  0  0
  159.7000  202.5030  149.6390 O   0  0  0  0  0  1  0  0  0  0  0  0
  161.7600  204.7080  150.1070 C   0  0  1  0  0  3  0  0  0  0  0  0
  163.0670  203.2470  147.7480 O   0  0  0  0  0  0  0  0  0  0  0  0
  161.6140  206.1660  150.5850 C   0  0  0  0  0  2  0  0  0  0  0  0
  160.6070  201.6090  150.2260 C   0  0  1  0  0  0  0  0  0  0  0  0
  161.8200  203.3020  147.9220 C   0  0  0  0  0  0  0  0  0  0  0  0
  161.0570  200.9240  147.8690 C   0  0  0  0  0  0  0  0  0  0  0  0
  160.5230  204.7380  152.1200 C   0  0  0  0  0  0  0  0  0  0  0  0
  162.5070  201.8520  150.4030 S   0  0  0  0  0  0  0  0  0  0  0  0
  160.8590  200.5790  149.1650 C   0  0  0  0  0  3  0  0  0  0  0  0
  161.0770  203.8870  151.1390 N   0  0  0  0  0  0  0  0  0  0  0  0
  161.2110  204.4920  148.6460 C   0  0  2  0  0  3  0  0  0  0  0  0
  160.7990  206.1690  151.8830 C   0  0  1  0  0  3  0  0  0  0  0  0
  161.0060  202.2670  147.4220 O   0  0  0  0  0  0  0  0  0  0  0  0
  159.8520  204.3110  153.0980 O   0  0  0  0  0  0  0  0  0  0  0  0
  160.8310  206.5750  154.3630 C   0  0  0  0  0  2  0  0  0  0  0  0
  161.5630  206.7990  153.0570 C   0  0  2  0  0  3  0  0  0  0  0  0
  161.7000  208.2960  152.9590 C   0  0  0  0  0  2  0  0  0  0  0  0
  160.9990  208.7950  154.2030 C   0  0  1  0  0  3  0  0  0  0  0  0
  160.9270  207.7450  155.1330 O   0  0  0  0  0  0  0  0  0  0  0  0
  162.3070  209.6590  156.0240 O   0  0  0  0  0  1  0  0  0  0  0  0
  161.7250  209.9930  154.7980 C   0  0  0  0  0  2  0  0  0  0  0  0
  158.9070  206.0450  148.3390 O   0  0  0  0  0  1  0  0  0  0  0  0
  159.9470  206.5490  147.5550 C   0  0  2  0  0  3  0  0  0  0  0  0
  160.3140  205.5140  146.5000 C   0  0  2  0  0  3  0  0  0  0  0  0
  161.2240  205.7280  147.7190 C   0  0  2  0  0  0  0  0  0  0  0  0
  160.7680  206.1890  145.2390 C   0  0  0  0  0  0  0  0  0  0  0  0
  160.4550  207.3890  145.0240 O   0  0  0  0  0  1  0  0  0  0  0  0
  161.5790  205.5180  144.3310 O   0  0  0  0  0  0  0  0  0  0  0  0
  162.5490  206.4580  147.4430 C   0  0  0  0  0  2  0  0  0  0  0  0
  162.7060  207.6920  148.2610 C   0  0  0  0  0  0  0  0  0  0  0  0
  162.1120  210.0060  148.6340 O   0  0  0  0  0  1  0  0  0  0  0  0
  163.5030  207.7020  149.2370 O   0  0  0  0  0  0  0  0  0  0  0  0
  161.9660  208.8630  147.9250 N   0  0  0  0  0  2  0  0  0  0  0  0
  160.7780  200.2630  145.6260 O   0  0  0  0  0  1  0  0  0  0  0  0
  161.2520  199.8420  146.8680 C   0  0  0  0  0  2  0  0  0  0  0  0
  1 10  1  6  0  0  0
  3  5  1  1  0  0  0
  3 12  1  0  0  0  0
  4  7  2  0  0  0  0
  6  2  1  6  0  0  0
  6 10  1  0  0  0  0
  6  1  1  0  0  0  0
  8 11  2  0  0  0  0
  9 16  2  0  0  0  0
 11  6  1  0  0  0  0
 12  1  1  0  0  0  0
 12  9  1  0  0  0  0
 13  7  1  6  0  0  0
 13  3  1  0  0  0  0
 14  5  1  6  0  0  0
 14  9  1  0  0  0  0
 14 18  1  0  0  0  0
 15  8  1  0  0  0  0
 15  7  1  0  0  0  0
 17 21  1  0  0  0  0
 18 19  1  6  0  0  0
 18 17  1  0  0  0  0
 19 20  1  0  0  0  0
 20 23  1  1  0  0  0
 20 21  1  0  0  0  0
 23 22  1  0  0  0  0
 25 27  1  0  0  0  0
 25 24  1  1  0  0  0
 26 28  1  6  0  0  0
 26 25  1  0  0  0  0
 26 27  1  0  0  0  0
 27 31  1  6  0  0  0
 27 13  1  0  0  0  0
 29 28  1  0  0  0  0
 30 28  2  0  0  0  0
 31 32  1  0  0  0  0
 32 34  2  0  0  0  0
 35 32  1  0  0  0  0
 35 33  1  0  0  0  0
 36 37  1  0  0  0  0
 37  8  1  0  0  0  0
M  END
>  <MODEL>
8

>  <REMARK>
 VINA RESULT:       0.1      2.840      7.781
  Name = 
  7 active torsions:
  status: ('A' for Active; 'I' for Inactive)
    1  A    between atoms: C_1  and  C_5
    2  A    between atoms: C_1  and  C_36
    3  A    between atoms: C_6  and  C_31
    4  A    between atoms: C_11  and  C_33
    5  A    between atoms: C_18  and  C_19
    6  A    between atoms: C_21  and  C_30
    7  A    between atoms: C_29  and  C_36
                            x       y       z     vdW  Elec       q    Type
                         _______ _______ _______ _____ _____    ______ ____

>  <TORSDO>
F 7

$$$$
