=
 OpenBabel11052421563D

 30 33  0  0  1  0  0  0  0  0999 V2000
  161.6790  210.3510  153.6880 O   0  0  0  0  0  0  0  0  0  0  0  0
  162.2260  209.4530  151.5080 C   0  0  0  0  0  0  0  0  0  0  0  0
  161.2710  206.9610  155.3300 C   0  0  0  0  0  2  0  0  0  0  0  0
  161.3320  210.2030  155.0650 C   0  0  2  0  0  0  0  0  0  0  0  0
  161.7600  211.6650  156.8970 C   0  0  0  0  0  2  0  0  0  0  0  0
  161.0140  211.5980  155.6070 C   0  0  2  0  0  3  0  0  0  0  0  0
  160.5110  206.6500  156.6080 C   0  0  0  0  0  2  0  0  0  0  0  0
  162.4500  209.6950  155.7630 O   0  0  0  0  0  0  0  0  0  0  0  0
  162.1880  208.4060  150.5840 C   0  0  0  0  0  3  0  0  0  0  0  0
  162.8340  210.6530  151.1620 O   0  0  0  0  0  1  0  0  0  0  0  0
  160.4130  207.8760  154.4670 C   0  0  1  0  0  3  0  0  0  0  0  0
  161.5760  207.1970  150.9200 C   0  0  0  0  0  3  0  0  0  0  0  0
  161.6550  209.2910  152.7770 C   0  0  0  0  0  0  0  0  0  0  0  0
  160.1490  209.2080  155.2070 C   0  0  1  0  0  3  0  0  0  0  0  0
  159.9940  207.9050  157.2610 C   0  0  0  0  0  3  0  0  0  0  0  0
  159.8060  209.0060  156.6090 N   0  0  0  0  0  0  0  0  0  0  0  0
  162.8740  210.6720  156.6860 C   0  0  1  0  0  3  0  0  0  0  0  0
  161.0000  207.0320  152.1820 C   0  0  0  0  0  3  0  0  0  0  0  0
  161.0350  208.0740  153.1150 C   0  0  0  0  0  0  0  0  0  0  0  0
  159.6460  211.8200  155.8070 O   0  0  0  0  0  0  0  0  0  0  0  0
  159.2800  212.7230  154.8040 C   0  0  0  0  0  2  0  0  0  0  0  0
  157.4570  211.1720  154.6830 O   0  0  0  0  0  1  0  0  0  0  0  0
  158.1240  212.1740  153.9770 C   0  0  2  0  0  3  0  0  0  0  0  0
  158.6210  211.6300  152.6530 C   0  0  0  0  0  1  0  0  0  0  0  0
  164.1170  211.3880  156.1630 C   0  0  0  0  0  2  0  0  0  0  0  0
  165.0140  211.7160  157.2600 N   0  0  0  0  0  2  0  0  0  0  0  0
  166.2510  212.0390  156.6870 N   0  0  0  0  0  2  0  0  0  0  0  0
  166.0700  214.3020  157.2240 O   0  0  0  0  0  0  0  0  0  0  0  0
  166.7460  213.3760  156.7020 C   0  0  0  0  0  0  0  0  0  0  0  0
  168.0730  213.6760  156.1040 C   0  0  0  0  0  1  0  0  0  0  0  0
  2 13  1  0  0  0  0
  3  7  1  0  0  0  0
  4  1  1  6  0  0  0
  4 14  1  0  0  0  0
  4  6  1  0  0  0  0
  4  8  1  0  0  0  0
  6 20  1  1  0  0  0
  6  5  1  0  0  0  0
  7 15  1  0  0  0  0
  8 17  1  0  0  0  0
  9 12  1  0  0  0  0
  9  2  2  0  0  0  0
 10  2  1  0  0  0  0
 11 14  1  0  0  0  0
 11  3  1  1  0  0  0
 12 18  2  0  0  0  0
 13 19  2  0  0  0  0
 13  1  1  0  0  0  0
 14 16  1  1  0  0  0
 16 15  2  0  0  0  0
 17 25  1  6  0  0  0
 17  5  1  0  0  0  0
 18 19  1  0  0  0  0
 19 11  1  0  0  0  0
 21 20  1  0  0  0  0
 23 24  1  6  0  0  0
 23 22  1  0  0  0  0
 23 21  1  0  0  0  0
 25 26  1  0  0  0  0
 27 29  1  0  0  0  0
 27 26  1  0  0  0  0
 29 28  2  0  0  0  0
 30 29  1  0  0  0  0
M  END
>  <MODEL>
1

>  <REMARK>
 VINA RESULT:      -5.1      0.000      0.000
  Name = 
  6 active torsions:
  status: ('A' for Active; 'I' for Inactive)
    1  A    between atoms: N_7  and  N_16
    2  A    between atoms: C_8  and  O_12
    3  A    between atoms: C_9  and  O_12
    4  A    between atoms: C_9  and  C_17
    5  A    between atoms: N_16  and  C_30
    6  A    between atoms: C_27  and  C_30
                            x       y       z     vdW  Elec       q    Type
                         _______ _______ _______ _____ _____    ______ ____

>  <TORSDO>
F 6

$$$$
=
 OpenBabel11052421563D

 30 33  0  0  1  0  0  0  0  0999 V2000
  161.0610  208.2550  153.6180 O   0  0  0  0  0  0  0  0  0  0  0  0
  160.8280  205.8460  153.6720 C   0  0  0  0  0  0  0  0  0  0  0  0
  161.3060  208.4610  149.8420 C   0  0  0  0  0  2  0  0  0  0  0  0
  161.2230  209.4940  152.9260 C   0  0  2  0  0  0  0  0  0  0  0  0
  160.5260  211.6810  153.5630 C   0  0  0  0  0  2  0  0  0  0  0  0
  161.4400  210.5790  153.9830 C   0  0  2  0  0  3  0  0  0  0  0  0
  161.8940  209.6000  149.0250 C   0  0  0  0  0  2  0  0  0  0  0  0
  160.0300  209.7810  152.2260 O   0  0  0  0  0  0  0  0  0  0  0  0
  161.0090  204.5970  153.0720 C   0  0  0  0  0  3  0  0  0  0  0  0
  160.2500  205.9260  154.9320 O   0  0  0  0  0  1  0  0  0  0  0  0
  162.2560  208.1500  150.9910 C   0  0  1  0  0  3  0  0  0  0  0  0
  161.5930  204.5050  151.8070 C   0  0  0  0  0  3  0  0  0  0  0  0
  161.2270  207.0110  153.0020 C   0  0  0  0  0  0  0  0  0  0  0  0
  162.3940  209.3840  151.9130 C   0  0  1  0  0  3  0  0  0  0  0  0
  162.2960  210.7570  149.9020 C   0  0  0  0  0  3  0  0  0  0  0  0
  162.5490  210.6240  151.1630 N   0  0  0  0  0  0  0  0  0  0  0  0
  159.4690  210.9520  152.7750 C   0  0  1  0  0  3  0  0  0  0  0  0
  161.9970  205.6620  151.1370 C   0  0  0  0  0  3  0  0  0  0  0  0
  161.8180  206.9180  151.7280 C   0  0  0  0  0  0  0  0  0  0  0  0
  162.7640  211.0280  154.0570 O   0  0  0  0  0  0  0  0  0  0  0  0
  163.2070  210.6240  155.3210 C   0  0  0  0  0  2  0  0  0  0  0  0
  161.9790  211.5010  157.1810 O   0  0  0  0  0  1  0  0  0  0  0  0
  162.0340  210.4420  156.2740 C   0  0  2  0  0  3  0  0  0  0  0  0
  162.1450  209.1280  157.0210 C   0  0  0  0  0  1  0  0  0  0  0  0
  158.2940  210.5970  153.6840 C   0  0  0  0  0  2  0  0  0  0  0  0
  158.0820  211.6430  154.6720 N   0  0  0  0  0  2  0  0  0  0  0  0
  156.7760  212.1140  154.4880 N   0  0  0  0  0  2  0  0  0  0  0  0
  157.4700  214.0090  153.3180 O   0  0  0  0  0  0  0  0  0  0  0  0
  156.5190  213.3260  153.7830 C   0  0  0  0  0  0  0  0  0  0  0  0
  155.1190  213.7830  153.5880 C   0  0  0  0  0  1  0  0  0  0  0  0
  2 10  1  0  0  0  0
  4  8  1  6  0  0  0
  4  1  1  0  0  0  0
  4  6  1  0  0  0  0
  5  6  1  0  0  0  0
  6 20  1  6  0  0  0
  7  3  1  0  0  0  0
  7 15  1  0  0  0  0
  8 17  1  0  0  0  0
  9  2  1  0  0  0  0
 11  3  1  6  0  0  0
 11 19  1  0  0  0  0
 11 14  1  0  0  0  0
 12  9  2  0  0  0  0
 13  1  1  0  0  0  0
 13  2  2  0  0  0  0
 14 16  1  6  0  0  0
 14  4  1  0  0  0  0
 15 16  2  0  0  0  0
 17  5  1  0  0  0  0
 17 25  1  1  0  0  0
 18 19  2  0  0  0  0
 18 12  1  0  0  0  0
 19 13  1  0  0  0  0
 20 21  1  0  0  0  0
 21 23  1  0  0  0  0
 23 24  1  1  0  0  0
 23 22  1  0  0  0  0
 25 26  1  0  0  0  0
 27 26  1  0  0  0  0
 28 29  2  0  0  0  0
 29 27  1  0  0  0  0
 30 29  1  0  0  0  0
M  END
>  <MODEL>
2

>  <REMARK>
 VINA RESULT:      -3.8      2.975      6.071
  Name = 
  6 active torsions:
  status: ('A' for Active; 'I' for Inactive)
    1  A    between atoms: N_7  and  N_16
    2  A    between atoms: C_8  and  O_12
    3  A    between atoms: C_9  and  O_12
    4  A    between atoms: C_9  and  C_17
    5  A    between atoms: N_16  and  C_30
    6  A    between atoms: C_27  and  C_30
                            x       y       z     vdW  Elec       q    Type
                         _______ _______ _______ _____ _____    ______ ____

>  <TORSDO>
F 6

$$$$
=
 OpenBabel11052421563D

 30 33  0  0  1  0  0  0  0  0999 V2000
  158.2570  210.1880  139.0590 O   0  0  0  0  0  0  0  0  0  0  0  0
  155.8570  209.8920  138.9410 C   0  0  0  0  0  0  0  0  0  0  0  0
  158.2090  213.7060  137.6550 C   0  0  0  0  0  2  0  0  0  0  0  0
  159.4460  210.9530  138.8690 C   0  0  2  0  0  0  0  0  0  0  0  0
  161.5150  210.8480  140.0450 C   0  0  0  0  0  2  0  0  0  0  0  0
  160.6320  210.0320  139.1620 C   0  0  2  0  0  3  0  0  0  0  0  0
  159.3680  214.4490  137.0110 C   0  0  0  0  0  2  0  0  0  0  0  0
  159.4590  212.0120  139.8040 O   0  0  0  0  0  0  0  0  0  0  0  0
  154.6180  210.2410  138.3970 C   0  0  0  0  0  3  0  0  0  0  0  0
  155.9290  208.8860  139.8960 O   0  0  0  0  0  1  0  0  0  0  0  0
  158.1650  212.2940  137.0870 C   0  0  1  0  0  3  0  0  0  0  0  0
  154.5340  211.2480  137.4330 C   0  0  0  0  0  3  0  0  0  0  0  0
  157.0180  210.5570  138.5250 C   0  0  0  0  0  0  0  0  0  0  0  0
  159.4710  211.5420  137.4330 C   0  0  1  0  0  3  0  0  0  0  0  0
  160.6430  213.6510  137.0850 C   0  0  0  0  0  3  0  0  0  0  0  0
  160.6560  212.3670  137.2300 N   0  0  0  0  0  0  0  0  0  0  0  0
  160.5480  211.8150  140.6770 C   0  0  1  0  0  3  0  0  0  0  0  0
  155.6900  211.9100  137.0110 C   0  0  0  0  0  3  0  0  0  0  0  0
  156.9350  211.5690  137.5510 C   0  0  0  0  0  0  0  0  0  0  0  0
  161.3160  209.6200  138.0120 O   0  0  0  0  0  0  0  0  0  0  0  0
  161.0070  208.2630  137.8790 C   0  0  0  0  0  2  0  0  0  0  0  0
  162.3810  206.4550  137.1160 O   0  0  0  0  0  1  0  0  0  0  0  0
  162.2360  207.4000  138.1320 C   0  0  2  0  0  3  0  0  0  0  0  0
  162.1360  206.7030  139.4750 C   0  0  0  0  0  1  0  0  0  0  0  0
  160.0600  211.2640  142.0140 C   0  0  0  0  0  2  0  0  0  0  0  0
  160.6520  212.0050  143.1170 N   0  0  0  0  0  2  0  0  0  0  0  0
  159.6470  212.1710  144.0790 N   0  0  0  0  0  2  0  0  0  0  0  0
  161.1580  212.7130  145.7710 O   0  0  0  0  0  0  0  0  0  0  0  0
  159.9610  212.5390  145.4190 C   0  0  0  0  0  0  0  0  0  0  0  0
  158.8670  212.7270  146.4070 C   0  0  0  0  0  1  0  0  0  0  0  0
  2 10  1  0  0  0  0
  4  1  1  1  0  0  0
  4  6  1  0  0  0  0
  4  8  1  0  0  0  0
  5 17  1  0  0  0  0
  6 20  1  6  0  0  0
  6  5  1  0  0  0  0
  7 15  1  0  0  0  0
  7  3  1  0  0  0  0
  8 17  1  0  0  0  0
  9  2  2  0  0  0  0
 11 14  1  0  0  0  0
 11 19  1  0  0  0  0
 11  3  1  1  0  0  0
 12  9  1  0  0  0  0
 13  2  1  0  0  0  0
 13  1  1  0  0  0  0
 14 16  1  1  0  0  0
 14  4  1  0  0  0  0
 15 16  2  0  0  0  0
 17 25  1  1  0  0  0
 18 12  2  0  0  0  0
 18 19  1  0  0  0  0
 19 13  2  0  0  0  0
 21 20  1  0  0  0  0
 21 23  1  0  0  0  0
 22 23  1  0  0  0  0
 23 24  1  1  0  0  0
 25 26  1  0  0  0  0
 26 27  1  0  0  0  0
 27 29  1  0  0  0  0
 29 28  2  0  0  0  0
 29 30  1  0  0  0  0
M  END
>  <MODEL>
3

>  <REMARK>
 VINA RESULT:      -3.7     13.043     16.457
  Name = 
  6 active torsions:
  status: ('A' for Active; 'I' for Inactive)
    1  A    between atoms: N_7  and  N_16
    2  A    between atoms: C_8  and  O_12
    3  A    between atoms: C_9  and  O_12
    4  A    between atoms: C_9  and  C_17
    5  A    between atoms: N_16  and  C_30
    6  A    between atoms: C_27  and  C_30
                            x       y       z     vdW  Elec       q    Type
                         _______ _______ _______ _____ _____    ______ ____

>  <TORSDO>
F 6

$$$$
=
 OpenBabel11052421563D

 30 33  0  0  1  0  0  0  0  0999 V2000
  159.6730  209.7330  152.6660 O   0  0  0  0  0  0  0  0  0  0  0  0
  160.8200  207.6820  152.0860 C   0  0  0  0  0  0  0  0  0  0  0  0
  161.8370  210.4590  155.6910 C   0  0  0  0  0  2  0  0  0  0  0  0
  159.4790  210.8830  153.4900 C   0  0  2  0  0  0  0  0  0  0  0  0
  158.5790  213.0150  152.9200 C   0  0  0  0  0  2  0  0  0  0  0  0
  158.2000  211.5750  153.0120 C   0  0  2  0  0  3  0  0  0  0  0  0
  161.4940  211.3610  156.8650 C   0  0  0  0  0  2  0  0  0  0  0  0
  160.5650  211.7660  153.2980 O   0  0  0  0  0  0  0  0  0  0  0  0
  161.6230  206.5980  152.4510 C   0  0  0  0  0  3  0  0  0  0  0  0
  160.3510  207.7830  150.7830 O   0  0  0  0  0  1  0  0  0  0  0  0
  160.6290  209.5820  155.3860 C   0  0  1  0  0  3  0  0  0  0  0  0
  162.0970  206.4840  153.7590 C   0  0  0  0  0  3  0  0  0  0  0  0
  160.4930  208.6620  153.0340 C   0  0  0  0  0  0  0  0  0  0  0  0
  159.4240  210.4610  154.9820 C   0  0  1  0  0  3  0  0  0  0  0  0
  160.1810  212.0680  156.6510 C   0  0  0  0  0  3  0  0  0  0  0  0
  159.2720  211.6260  155.8460 N   0  0  0  0  0  0  0  0  0  0  0  0
  160.0710  212.9510  152.7150 C   0  0  1  0  0  3  0  0  0  0  0  0
  161.7690  207.4560  154.7080 C   0  0  0  0  0  3  0  0  0  0  0  0
  160.9680  208.5470  154.3530 C   0  0  0  0  0  0  0  0  0  0  0  0
  157.1140  211.3970  153.8760 O   0  0  0  0  0  0  0  0  0  0  0  0
  156.5500  212.6710  154.0080 C   0  0  0  0  0  2  0  0  0  0  0  0
  156.5360  213.7260  156.1580 O   0  0  0  0  0  1  0  0  0  0  0  0
  155.8490  212.8170  155.3520 C   0  0  2  0  0  3  0  0  0  0  0  0
  155.7480  211.4770  156.0540 C   0  0  0  0  0  1  0  0  0  0  0  0
  160.3940  212.9800  151.2230 C   0  0  0  0  0  2  0  0  0  0  0  0
  159.6840  214.0680  150.5700 N   0  0  0  0  0  2  0  0  0  0  0  0
  159.2120  213.5690  149.3490 N   0  0  0  0  0  2  0  0  0  0  0  0
  156.9730  213.7440  149.9790 O   0  0  0  0  0  0  0  0  0  0  0  0
  157.8160  213.4290  149.0980 C   0  0  0  0  0  0  0  0  0  0  0  0
  157.3530  212.9160  147.7820 C   0  0  0  0  0  1  0  0  0  0  0  0
  1 13  1  0  0  0  0
  2  9  2  0  0  0  0
  2 13  1  0  0  0  0
  3  7  1  0  0  0  0
  4  1  1  6  0  0  0
  4 14  1  0  0  0  0
  5  6  1  0  0  0  0
  6  4  1  0  0  0  0
  6 20  1  1  0  0  0
  8  4  1  0  0  0  0
  9 12  1  0  0  0  0
 10  2  1  0  0  0  0
 11  3  1  6  0  0  0
 12 18  2  0  0  0  0
 13 19  2  0  0  0  0
 14 11  1  0  0  0  0
 14 16  1  1  0  0  0
 15  7  1  0  0  0  0
 16 15  2  0  0  0  0
 17 25  1  6  0  0  0
 17  5  1  0  0  0  0
 17  8  1  0  0  0  0
 19 18  1  0  0  0  0
 19 11  1  0  0  0  0
 20 21  1  0  0  0  0
 21 23  1  0  0  0  0
 23 24  1  1  0  0  0
 23 22  1  0  0  0  0
 26 25  1  0  0  0  0
 27 26  1  0  0  0  0
 29 27  1  0  0  0  0
 29 28  2  0  0  0  0
 30 29  1  0  0  0  0
M  END
>  <MODEL>
4

>  <REMARK>
 VINA RESULT:      -3.7      3.206      5.625
  Name = 
  6 active torsions:
  status: ('A' for Active; 'I' for Inactive)
    1  A    between atoms: N_7  and  N_16
    2  A    between atoms: C_8  and  O_12
    3  A    between atoms: C_9  and  O_12
    4  A    between atoms: C_9  and  C_17
    5  A    between atoms: N_16  and  C_30
    6  A    between atoms: C_27  and  C_30
                            x       y       z     vdW  Elec       q    Type
                         _______ _______ _______ _____ _____    ______ ____

>  <TORSDO>
F 6

$$$$
=
 OpenBabel11052421563D

 30 33  0  0  1  0  0  0  0  0999 V2000
  161.4960  209.8920  154.0550 O   0  0  0  0  0  0  0  0  0  0  0  0
  161.8030  210.4750  151.7250 C   0  0  0  0  0  0  0  0  0  0  0  0
  158.0140  211.3670  154.2910 C   0  0  0  0  0  2  0  0  0  0  0  0
  160.7310  209.8630  155.2600 C   0  0  2  0  0  0  0  0  0  0  0  0
  160.8000  208.2990  157.0560 C   0  0  0  0  0  2  0  0  0  0  0  0
  161.6410  209.3180  156.3630 C   0  0  2  0  0  3  0  0  0  0  0  0
  157.2830  211.7880  155.5550 C   0  0  0  0  0  2  0  0  0  0  0  0
  159.6490  208.9710  155.0890 O   0  0  0  0  0  0  0  0  0  0  0  0
  161.4730  211.2620  150.6190 C   0  0  0  0  0  3  0  0  0  0  0  0
  162.7840  209.4990  151.6070 O   0  0  0  0  0  1  0  0  0  0  0  0
  159.4400  211.8970  154.3580 C   0  0  1  0  0  3  0  0  0  0  0  0
  160.4910  212.2490  150.7290 C   0  0  0  0  0  3  0  0  0  0  0  0
  161.1450  210.6710  152.9470 C   0  0  0  0  0  0  0  0  0  0  0  0
  160.1780  211.2810  155.5690 C   0  0  1  0  0  3  0  0  0  0  0  0
  158.0750  211.4440  156.7890 C   0  0  0  0  0  3  0  0  0  0  0  0
  159.3550  211.2660  156.7720 N   0  0  0  0  0  0  0  0  0  0  0  0
  159.8200  207.8960  155.9840 C   0  0  1  0  0  3  0  0  0  0  0  0
  159.8360  212.4510  151.9460 C   0  0  0  0  0  3  0  0  0  0  0  0
  160.1580  211.6660  153.0590 C   0  0  0  0  0  0  0  0  0  0  0  0
  162.0780  210.3000  157.2610 O   0  0  0  0  0  0  0  0  0  0  0  0
  163.4740  210.2250  157.2190 C   0  0  0  0  0  2  0  0  0  0  0  0
  164.3350  211.1960  155.2050 O   0  0  0  0  0  1  0  0  0  0  0  0
  164.0630  211.4590  156.5480 C   0  0  2  0  0  3  0  0  0  0  0  0
  165.3280  211.9030  157.2550 C   0  0  0  0  0  1  0  0  0  0  0  0
  160.3390  206.6680  155.2400 C   0  0  0  0  0  2  0  0  0  0  0  0
  160.7030  207.0160  153.8760 N   0  0  0  0  0  2  0  0  0  0  0  0
  160.6500  205.8320  153.1280 N   0  0  0  0  0  2  0  0  0  0  0  0
  162.7270  206.1980  152.1330 O   0  0  0  0  0  0  0  0  0  0  0  0
  161.7150  205.4590  152.2580 C   0  0  0  0  0  0  0  0  0  0  0  0
  161.6330  204.1850  151.4980 C   0  0  0  0  0  1  0  0  0  0  0  0
  2 13  1  0  0  0  0
  3  7  1  0  0  0  0
  4  1  1  6  0  0  0
  4 14  1  0  0  0  0
  4  6  1  0  0  0  0
  6  5  1  0  0  0  0
  6 20  1  1  0  0  0
  7 15  1  0  0  0  0
  8  4  1  0  0  0  0
  8 17  1  0  0  0  0
  9 12  1  0  0  0  0
  9  2  2  0  0  0  0
 10  2  1  0  0  0  0
 11  3  1  6  0  0  0
 11 14  1  0  0  0  0
 12 18  2  0  0  0  0
 13 19  2  0  0  0  0
 13  1  1  0  0  0  0
 14 16  1  1  0  0  0
 16 15  2  0  0  0  0
 17 25  1  6  0  0  0
 17  5  1  0  0  0  0
 18 19  1  0  0  0  0
 19 11  1  0  0  0  0
 21 20  1  0  0  0  0
 22 23  1  0  0  0  0
 23 21  1  0  0  0  0
 23 24  1  1  0  0  0
 26 25  1  0  0  0  0
 27 26  1  0  0  0  0
 28 29  2  0  0  0  0
 29 27  1  0  0  0  0
 30 29  1  0  0  0  0
M  END
>  <MODEL>
5

>  <REMARK>
 VINA RESULT:      -3.6      2.474      5.699
  Name = 
  6 active torsions:
  status: ('A' for Active; 'I' for Inactive)
    1  A    between atoms: N_7  and  N_16
    2  A    between atoms: C_8  and  O_12
    3  A    between atoms: C_9  and  O_12
    4  A    between atoms: C_9  and  C_17
    5  A    between atoms: N_16  and  C_30
    6  A    between atoms: C_27  and  C_30
                            x       y       z     vdW  Elec       q    Type
                         _______ _______ _______ _____ _____    ______ ____

>  <TORSDO>
F 6

$$$$
=
 OpenBabel11052421563D

 30 33  0  0  1  0  0  0  0  0999 V2000
  159.7890  209.5830  152.4420 O   0  0  0  0  0  0  0  0  0  0  0  0
  160.8710  207.4890  151.8880 C   0  0  0  0  0  0  0  0  0  0  0  0
  161.9510  210.2600  155.4790 C   0  0  0  0  0  2  0  0  0  0  0  0
  159.6270  210.7460  153.2540 C   0  0  2  0  0  0  0  0  0  0  0  0
  158.8060  212.9020  152.6590 C   0  0  0  0  0  2  0  0  0  0  0  0
  158.3770  211.4760  152.7590 C   0  0  2  0  0  3  0  0  0  0  0  0
  161.6280  211.1830  156.6430 C   0  0  0  0  0  2  0  0  0  0  0  0
  160.7440  211.5900  153.0650 O   0  0  0  0  0  0  0  0  0  0  0  0
  161.6340  206.3820  152.2690 C   0  0  0  0  0  3  0  0  0  0  0  0
  160.4170  207.5950  150.5800 O   0  0  0  0  0  1  0  0  0  0  0  0
  160.7170  209.4220  155.1710 C   0  0  1  0  0  3  0  0  0  0  0  0
  162.0920  206.2630  153.5820 C   0  0  0  0  0  3  0  0  0  0  0  0
  160.5700  208.4880  152.8250 C   0  0  0  0  0  0  0  0  0  0  0  0
  159.5450  210.3380  154.7500 C   0  0  1  0  0  3  0  0  0  0  0  0
  160.3420  211.9320  156.4120 C   0  0  0  0  0  3  0  0  0  0  0  0
  159.4250  211.5150  155.6020 N   0  0  0  0  0  0  0  0  0  0  0  0
  160.2960  212.7860  152.4680 C   0  0  1  0  0  3  0  0  0  0  0  0
  161.7900  207.2530  154.5200 C   0  0  0  0  0  3  0  0  0  0  0  0
  161.0290  208.3670  154.1490 C   0  0  0  0  0  0  0  0  0  0  0  0
  157.2780  211.3430  153.6160 O   0  0  0  0  0  0  0  0  0  0  0  0
  156.8220  212.6490  153.8180 C   0  0  0  0  0  2  0  0  0  0  0  0
  156.6390  213.6170  156.0020 O   0  0  0  0  0  1  0  0  0  0  0  0
  156.0150  212.7490  155.1050 C   0  0  2  0  0  3  0  0  0  0  0  0
  155.8460  211.3830  155.7410 C   0  0  0  0  0  1  0  0  0  0  0  0
  160.6320  212.7910  150.9790 C   0  0  0  0  0  2  0  0  0  0  0  0
  160.0440  213.9520  150.3290 N   0  0  0  0  0  2  0  0  0  0  0  0
  159.8630  213.6120  148.9820 N   0  0  0  0  0  2  0  0  0  0  0  0
  161.9760  214.3750  148.3560 O   0  0  0  0  0  0  0  0  0  0  0  0
  160.8850  213.8440  148.0170 C   0  0  0  0  0  0  0  0  0  0  0  0
  160.6650  213.4500  146.6010 C   0  0  0  0  0  1  0  0  0  0  0  0
  1 13  1  0  0  0  0
  2  9  2  0  0  0  0
  2 13  1  0  0  0  0
  3  7  1  0  0  0  0
  4  1  1  6  0  0  0
  4 14  1  0  0  0  0
  5  6  1  0  0  0  0
  6  4  1  0  0  0  0
  6 20  1  1  0  0  0
  8  4  1  0  0  0  0
  9 12  1  0  0  0  0
 10  2  1  0  0  0  0
 11  3  1  6  0  0  0
 12 18  2  0  0  0  0
 13 19  2  0  0  0  0
 14 11  1  0  0  0  0
 14 16  1  1  0  0  0
 15  7  1  0  0  0  0
 16 15  2  0  0  0  0
 17 25  1  6  0  0  0
 17  5  1  0  0  0  0
 17  8  1  0  0  0  0
 19 18  1  0  0  0  0
 19 11  1  0  0  0  0
 20 21  1  0  0  0  0
 21 23  1  0  0  0  0
 23 24  1  1  0  0  0
 23 22  1  0  0  0  0
 26 25  1  0  0  0  0
 27 26  1  0  0  0  0
 29 28  2  0  0  0  0
 29 27  1  0  0  0  0
 30 29  1  0  0  0  0
M  END
>  <MODEL>
6

>  <REMARK>
 VINA RESULT:      -3.5      3.294      5.254
  Name = 
  6 active torsions:
  status: ('A' for Active; 'I' for Inactive)
    1  A    between atoms: N_7  and  N_16
    2  A    between atoms: C_8  and  O_12
    3  A    between atoms: C_9  and  O_12
    4  A    between atoms: C_9  and  C_17
    5  A    between atoms: N_16  and  C_30
    6  A    between atoms: C_27  and  C_30
                            x       y       z     vdW  Elec       q    Type
                         _______ _______ _______ _____ _____    ______ ____

>  <TORSDO>
F 6

$$$$
=
 OpenBabel11052421563D

 30 33  0  0  1  0  0  0  0  0999 V2000
  161.1490  211.2120  153.4060 O   0  0  0  0  0  0  0  0  0  0  0  0
  160.5950  212.1200  151.2310 C   0  0  0  0  0  0  0  0  0  0  0  0
  157.6560  211.6200  154.8160 C   0  0  0  0  0  2  0  0  0  0  0  0
  160.8120  210.8330  154.7400 C   0  0  2  0  0  0  0  0  0  0  0  0
  161.7820  209.1550  156.1250 C   0  0  0  0  0  2  0  0  0  0  0  0
  162.1120  210.4410  155.4450 C   0  0  2  0  0  3  0  0  0  0  0  0
  157.2630  211.6730  156.2830 C   0  0  0  0  0  2  0  0  0  0  0  0
  159.9690  209.7000  154.6910 O   0  0  0  0  0  0  0  0  0  0  0  0
  159.7720  212.9050  150.4200 C   0  0  0  0  0  3  0  0  0  0  0  0
  161.6950  211.4770  150.6780 O   0  0  0  0  0  1  0  0  0  0  0  0
  158.8700  212.5150  154.6080 C   0  0  1  0  0  3  0  0  0  0  0  0
  158.6660  213.5590  150.9660 C   0  0  0  0  0  3  0  0  0  0  0  0
  160.3090  211.9830  152.5970 C   0  0  0  0  0  0  0  0  0  0  0  0
  160.0620  211.9950  155.4460 C   0  0  1  0  0  3  0  0  0  0  0  0
  158.4470  211.4240  157.1800 C   0  0  0  0  0  3  0  0  0  0  0  0
  159.6660  211.6130  156.7960 N   0  0  0  0  0  0  0  0  0  0  0  0
  160.6480  208.6200  155.2890 C   0  0  1  0  0  3  0  0  0  0  0  0
  158.3800  213.4290  152.3280 C   0  0  0  0  0  3  0  0  0  0  0  0
  159.1970  212.6440  153.1490 C   0  0  0  0  0  0  0  0  0  0  0  0
  162.5570  211.3960  156.3670 O   0  0  0  0  0  0  0  0  0  0  0  0
  163.8340  210.9640  156.7400 C   0  0  0  0  0  2  0  0  0  0  0  0
  165.4420  211.4570  155.0330 O   0  0  0  0  0  1  0  0  0  0  0  0
  164.9010  211.9250  156.2320 C   0  0  2  0  0  3  0  0  0  0  0  0
  166.0000  212.1010  157.2610 C   0  0  0  0  0  1  0  0  0  0  0  0
  161.1920  207.6790  154.2170 C   0  0  0  0  0  2  0  0  0  0  0  0
  160.6670  208.0400  152.9100 N   0  0  0  0  0  2  0  0  0  0  0  0
  160.7470  206.8920  152.1100 N   0  0  0  0  0  2  0  0  0  0  0  0
  161.4220  208.0820  150.2210 O   0  0  0  0  0  0  0  0  0  0  0  0
  161.1450  206.9700  150.7440 C   0  0  0  0  0  0  0  0  0  0  0  0
  161.2400  205.7280  149.9330 C   0  0  0  0  0  1  0  0  0  0  0  0
  2 13  1  0  0  0  0
  3  7  1  0  0  0  0
  4  1  1  6  0  0  0
  4  6  1  0  0  0  0
  4 14  1  0  0  0  0
  6  5  1  0  0  0  0
  6 20  1  1  0  0  0
  7 15  1  0  0  0  0
  8  4  1  0  0  0  0
  8 17  1  0  0  0  0
  9 12  1  0  0  0  0
  9  2  2  0  0  0  0
 10  2  1  0  0  0  0
 11  3  1  6  0  0  0
 11 14  1  0  0  0  0
 12 18  2  0  0  0  0
 13 19  2  0  0  0  0
 13  1  1  0  0  0  0
 14 16  1  1  0  0  0
 16 15  2  0  0  0  0
 17 25  1  6  0  0  0
 17  5  1  0  0  0  0
 18 19  1  0  0  0  0
 19 11  1  0  0  0  0
 20 21  1  0  0  0  0
 22 23  1  0  0  0  0
 23 21  1  0  0  0  0
 23 24  1  1  0  0  0
 26 25  1  0  0  0  0
 27 26  1  0  0  0  0
 28 29  2  0  0  0  0
 29 27  1  0  0  0  0
 30 29  1  0  0  0  0
M  END
>  <MODEL>
7

>  <REMARK>
 VINA RESULT:      -3.4      2.362      5.973
  Name = 
  6 active torsions:
  status: ('A' for Active; 'I' for Inactive)
    1  A    between atoms: N_7  and  N_16
    2  A    between atoms: C_8  and  O_12
    3  A    between atoms: C_9  and  O_12
    4  A    between atoms: C_9  and  C_17
    5  A    between atoms: N_16  and  C_30
    6  A    between atoms: C_27  and  C_30
                            x       y       z     vdW  Elec       q    Type
                         _______ _______ _______ _____ _____    ______ ____

>  <TORSDO>
F 6

$$$$
=
 OpenBabel11052421563D

 30 33  0  0  1  0  0  0  0  0999 V2000
  159.2580  211.9270  139.8080 O   0  0  0  0  0  0  0  0  0  0  0  0
  157.1630  212.9960  139.2360 C   0  0  0  0  0  0  0  0  0  0  0  0
  161.4000  214.3790  137.8690 C   0  0  0  0  0  2  0  0  0  0  0  0
  160.6810  211.8230  139.7500 C   0  0  2  0  0  0  0  0  0  0  0  0
  162.1930  210.8920  141.3370 C   0  0  0  0  0  2  0  0  0  0  0  0
  161.0700  210.5110  140.4330 C   0  0  2  0  0  3  0  0  0  0  0  0
  162.8190  214.1590  137.3720 C   0  0  0  0  0  2  0  0  0  0  0  0
  161.2440  212.8930  140.4810 O   0  0  0  0  0  0  0  0  0  0  0  0
  156.4130  213.8200  138.3930 C   0  0  0  0  0  3  0  0  0  0  0  0
  156.5560  212.4040  140.3360 O   0  0  0  0  0  1  0  0  0  0  0  0
  160.5760  213.1410  137.5430 C   0  0  1  0  0  3  0  0  0  0  0  0
  157.0120  214.4180  137.2820 C   0  0  0  0  0  3  0  0  0  0  0  0
  158.5200  212.7700  138.9710 C   0  0  0  0  0  0  0  0  0  0  0  0
  161.1570  211.9090  138.2750 C   0  0  1  0  0  3  0  0  0  0  0  0
  163.3690  212.8370  137.8420 C   0  0  0  0  0  3  0  0  0  0  0  0
  162.6120  211.8510  138.1950 N   0  0  0  0  0  0  0  0  0  0  0  0
  161.9370  212.3560  141.5840 C   0  0  1  0  0  3  0  0  0  0  0  0
  158.3640  214.1910  137.0110 C   0  0  0  0  0  3  0  0  0  0  0  0
  159.1240  213.3690  137.8500 C   0  0  0  0  0  0  0  0  0  0  0  0
  161.4650  209.5110  139.5360 O   0  0  0  0  0  0  0  0  0  0  0  0
  162.1130  208.5570  140.3280 C   0  0  0  0  0  2  0  0  0  0  0  0
  163.1010  206.3830  140.1460 O   0  0  0  0  0  1  0  0  0  0  0  0
  162.0630  207.1840  139.6710 C   0  0  2  0  0  3  0  0  0  0  0  0
  162.1540  207.3060  138.1620 C   0  0  0  0  0  1  0  0  0  0  0  0
  161.1180  212.5330  142.8600 C   0  0  0  0  0  2  0  0  0  0  0  0
  161.7350  213.5240  143.7270 N   0  0  0  0  0  2  0  0  0  0  0  0
  162.1040  212.8590  144.9030 N   0  0  0  0  0  2  0  0  0  0  0  0
  160.5180  213.9720  146.2010 O   0  0  0  0  0  0  0  0  0  0  0  0
  161.4450  213.1220  146.1390 C   0  0  0  0  0  0  0  0  0  0  0  0
  161.8500  212.3800  147.3620 C   0  0  0  0  0  1  0  0  0  0  0  0
  2 10  1  0  0  0  0
  4  1  1  1  0  0  0
  4  6  1  0  0  0  0
  4  8  1  0  0  0  0
  5 17  1  0  0  0  0
  6 20  1  6  0  0  0
  6  5  1  0  0  0  0
  7 15  1  0  0  0  0
  7  3  1  0  0  0  0
  8 17  1  0  0  0  0
  9  2  2  0  0  0  0
 11 19  1  0  0  0  0
 11  3  1  1  0  0  0
 11 14  1  0  0  0  0
 12  9  1  0  0  0  0
 13  2  1  0  0  0  0
 13  1  1  0  0  0  0
 14 16  1  1  0  0  0
 14  4  1  0  0  0  0
 15 16  2  0  0  0  0
 17 25  1  1  0  0  0
 18 12  2  0  0  0  0
 18 19  1  0  0  0  0
 19 13  2  0  0  0  0
 20 21  1  0  0  0  0
 23 24  1  6  0  0  0
 23 22  1  0  0  0  0
 23 21  1  0  0  0  0
 25 26  1  0  0  0  0
 26 27  1  0  0  0  0
 27 29  1  0  0  0  0
 29 28  2  0  0  0  0
 29 30  1  0  0  0  0
M  END
>  <MODEL>
8

>  <REMARK>
 VINA RESULT:      -3.0     12.346     15.656
  Name = 
  6 active torsions:
  status: ('A' for Active; 'I' for Inactive)
    1  A    between atoms: N_7  and  N_16
    2  A    between atoms: C_8  and  O_12
    3  A    between atoms: C_9  and  O_12
    4  A    between atoms: C_9  and  C_17
    5  A    between atoms: N_16  and  C_30
    6  A    between atoms: C_27  and  C_30
                            x       y       z     vdW  Elec       q    Type
                         _______ _______ _______ _____ _____    ______ ____

>  <TORSDO>
F 6

$$$$
=
 OpenBabel11052421563D

 30 33  0  0  1  0  0  0  0  0999 V2000
  160.6040  207.9600  151.5150 O   0  0  0  0  0  0  0  0  0  0  0  0
  160.8980  205.7510  150.5670 C   0  0  0  0  0  0  0  0  0  0  0  0
  162.0600  207.0480  154.8920 C   0  0  0  0  0  2  0  0  0  0  0  0
  160.7120  208.9010  152.5830 C   0  0  2  0  0  0  0  0  0  0  0  0
  160.9510  211.2700  152.4900 C   0  0  0  0  0  2  0  0  0  0  0  0
  159.9970  210.1790  152.1370 C   0  0  2  0  0  3  0  0  0  0  0  0
  161.8470  207.7800  156.2070 C   0  0  0  0  0  2  0  0  0  0  0  0
  162.0770  209.1990  152.7890 O   0  0  0  0  0  0  0  0  0  0  0  0
  161.0600  204.3740  150.7330 C   0  0  0  0  0  3  0  0  0  0  0  0
  160.8480  206.2890  149.2880 O   0  0  0  0  0  1  0  0  0  0  0  0
  160.7120  206.9000  154.1980 C   0  0  1  0  0  3  0  0  0  0  0  0
  161.1070  203.8220  152.0150 C   0  0  0  0  0  3  0  0  0  0  0  0
  160.7870  206.5840  151.6890 C   0  0  0  0  0  0  0  0  0  0  0  0
  160.1220  208.2930  153.8830 C   0  0  1  0  0  3  0  0  0  0  0  0
  161.0440  209.0400  156.0120 C   0  0  0  0  0  3  0  0  0  0  0  0
  160.2620  209.2210  155.0000 N   0  0  0  0  0  0  0  0  0  0  0  0
  162.2810  210.5610  152.4850 C   0  0  1  0  0  3  0  0  0  0  0  0
  160.9920  204.6470  153.1360 C   0  0  0  0  0  3  0  0  0  0  0  0
  160.8310  206.0290  152.9810 C   0  0  0  0  0  0  0  0  0  0  0  0
  158.7600  210.3730  152.7620 O   0  0  0  0  0  0  0  0  0  0  0  0
  158.5910  211.7610  152.7980 C   0  0  0  0  0  2  0  0  0  0  0  0
  157.3240  211.0810  154.7130 O   0  0  0  0  0  1  0  0  0  0  0  0
  157.8860  212.1890  154.0770 C   0  0  2  0  0  3  0  0  0  0  0  0
  156.8110  213.2160  153.7810 C   0  0  0  0  0  1  0  0  0  0  0  0
  162.9410  210.7030  151.1160 C   0  0  0  0  0  2  0  0  0  0  0  0
  161.9560  210.5470  150.0580 N   0  0  0  0  0  2  0  0  0  0  0  0
  162.4070  211.3060  148.9700 N   0  0  0  0  0  2  0  0  0  0  0  0
  160.8280  212.9890  149.3040 O   0  0  0  0  0  0  0  0  0  0  0  0
  161.7990  212.5500  148.6330 C   0  0  0  0  0  0  0  0  0  0  0  0
  162.3200  213.3370  147.4850 C   0  0  0  0  0  1  0  0  0  0  0  0
  1 13  1  0  0  0  0
  2  9  2  0  0  0  0
  2 13  1  0  0  0  0
  3  7  1  0  0  0  0
  4  1  1  6  0  0  0
  4  8  1  0  0  0  0
  4 14  1  0  0  0  0
  6  5  1  0  0  0  0
  6  4  1  0  0  0  0
  6 20  1  1  0  0  0
  9 12  1  0  0  0  0
 10  2  1  0  0  0  0
 11  3  1  6  0  0  0
 12 18  2  0  0  0  0
 13 19  2  0  0  0  0
 14 11  1  0  0  0  0
 14 16  1  1  0  0  0
 15  7  1  0  0  0  0
 16 15  2  0  0  0  0
 17 25  1  6  0  0  0
 17  5  1  0  0  0  0
 17  8  1  0  0  0  0
 19 18  1  0  0  0  0
 19 11  1  0  0  0  0
 20 21  1  0  0  0  0
 21 23  1  0  0  0  0
 23 24  1  6  0  0  0
 23 22  1  0  0  0  0
 26 25  1  0  0  0  0
 27 26  1  0  0  0  0
 29 27  1  0  0  0  0
 29 28  2  0  0  0  0
 30 29  1  0  0  0  0
M  END
>  <MODEL>
9

>  <REMARK>
 VINA RESULT:      -3.0      3.343      4.724
  Name = 
  6 active torsions:
  status: ('A' for Active; 'I' for Inactive)
    1  A    between atoms: N_7  and  N_16
    2  A    between atoms: C_8  and  O_12
    3  A    between atoms: C_9  and  O_12
    4  A    between atoms: C_9  and  C_17
    5  A    between atoms: N_16  and  C_30
    6  A    between atoms: C_27  and  C_30
                            x       y       z     vdW  Elec       q    Type
                         _______ _______ _______ _____ _____    ______ ____

>  <TORSDO>
F 6

$$$$
