=
 OpenBabel11062410373D

 32 37  0  0  1  0  0  0  0  0999 V2000
  160.6070  213.3630  149.5100 C   0  0  0  0  0  3  0  0  0  0  0  0
  161.5870  208.2560  149.8620 C   0  0  0  0  0  0  0  0  0  0  0  0
  160.8710  207.8960  154.7820 C   0  0  0  0  0  3  0  0  0  0  0  0
  160.7330  206.5830  154.6200 C   0  0  0  0  0  3  0  0  0  0  0  0
  161.6720  206.1450  148.4750 N   0  0  0  0  0  0  0  0  0  0  0  0
  161.4260  204.7380  148.4730 C   0  0  0  0  0  0  0  0  0  0  0  0
  162.0610  210.5640  148.9360 C   0  0  2  0  0  3  0  0  0  0  0  0
  161.6720  210.3660  151.2510 C   0  0  0  0  0  2  0  0  0  0  0  0
  161.0090  202.7780  149.3880 N   0  0  0  0  0  0  0  0  0  0  0  0
  161.5570  212.4760  150.2670 C   0  0  0  0  0  2  0  0  0  0  0  0
  161.1700  208.8100  153.6290 C   0  0  0  0  0  3  0  0  0  0  0  0
  161.4660  208.8750  151.1260 C   0  0  0  0  0  0  0  0  0  0  0  0
  161.2510  208.1090  152.2840 C   0  0  0  0  0  0  0  0  0  0  0  0
  161.2160  206.0700  150.9320 C   0  0  0  0  0  0  0  0  0  0  0  0
  161.2380  202.5890  148.0680 C   0  0  0  0  0  3  0  0  0  0  0  0
  160.4990  211.9020  147.4570 C   0  0  0  0  0  2  0  0  0  0  0  0
  161.2430  211.0700  150.0480 N   0  0  1  0  0  0  0  0  0  0  0  0
  161.5150  203.8140  147.4460 C   0  0  0  0  0  3  0  0  0  0  0  0
  161.9280  211.4100  147.6600 C   0  0  0  0  0  2  0  0  0  0  0  0
  160.1910  213.1530  148.2460 C   0  0  0  0  0  0  0  0  0  0  0  0
  160.8620  205.9790  153.2880 C   0  0  0  0  0  3  0  0  0  0  0  0
  161.1070  206.7080  152.1860 C   0  0  2  0  0  3  0  0  0  0  0  0
  161.0450  204.7700  150.8600 N   0  0  0  0  0  0  0  0  0  0  0  0
  161.6540  209.1270  148.6300 C   0  0  0  0  0  2  0  0  0  0  0  0
  162.2940  206.7330  147.2960 C   0  0  0  0  0  1  0  0  0  0  0  0
  160.7160  201.7480  150.3680 C   0  0  0  0  0  1  0  0  0  0  0  0
  161.5000  206.8430  149.7510 C   0  0  0  0  0  0  0  0  0  0  0  0
  161.1300  204.0900  149.6100 C   0  0  0  0  0  0  0  0  0  0  0  0
  159.2730  214.1590  147.6310 C   0  0  0  0  0  2  0  0  0  0  0  0
  157.9970  213.5010  147.1310 C   0  0  2  0  0  3  0  0  0  0  0  0
  157.2460  214.4530  146.3330 N   0  0  0  0  0  1  0  0  0  0  0  0
  157.2170  213.0890  148.2120 O   0  0  0  0  0  1  0  0  0  0  0  0
  1 10  1  0  0  0  0
  2 12  1  0  0  0  0
  4  3  1  0  0  0  0
  5 27  1  0  0  0  0
  6  5  1  0  0  0  0
  6 28  2  0  0  0  0
  7 19  1  6  0  0  0
  7 17  1  0  0  0  0
  9 28  1  0  0  0  0
  9 26  1  0  0  0  0
 11  3  2  0  0  0  0
 12  8  1  0  0  0  0
 12 13  2  0  0  0  0
 13 11  1  0  0  0  0
 14 22  1  0  0  0  0
 15  9  1  0  0  0  0
 16 19  1  0  0  0  0
 16 20  1  0  0  0  0
 17 10  1  1  0  0  0
 17  8  1  0  0  0  0
 18 15  2  0  0  0  0
 18  6  1  0  0  0  0
 20  1  2  0  0  0  0
 21  4  2  0  0  0  0
 22 13  1  0  0  0  0
 22 21  1  6  0  0  0
 23 14  2  0  0  0  0
 24  7  1  0  0  0  0
 24  2  1  0  0  0  0
 25  5  1  0  0  0  0
 27  2  2  0  0  0  0
 27 14  1  0  0  0  0
 28 23  1  0  0  0  0
 29 20  1  0  0  0  0
 30 31  1  1  0  0  0
 30 29  1  0  0  0  0
 30 32  1  0  0  0  0
M  END
>  <MODEL>
1

>  <REMARK>
 VINA RESULT:      -8.4      0.000      0.000
  Name = 
  2 active torsions:
  status: ('A' for Active; 'I' for Inactive)
    1  A    between atoms: C_1  and  C_10
    2  A    between atoms: C_10  and  C_24
                            x       y       z     vdW  Elec       q    Type
                         _______ _______ _______ _____ _____    ______ ____

>  <TORSDO>
F 2

$$$$
=
 OpenBabel11062410373D

 32 37  0  0  1  0  0  0  0  0999 V2000
  160.2640  209.4800  154.5770 C   0  0  0  0  0  3  0  0  0  0  0  0
  161.4140  206.6740  150.3370 C   0  0  0  0  0  0  0  0  0  0  0  0
  160.7540  202.2030  152.4390 C   0  0  0  0  0  3  0  0  0  0  0  0
  160.6580  201.6930  151.2150 C   0  0  0  0  0  3  0  0  0  0  0  0
  161.5560  206.8400  147.8180 N   0  0  0  0  0  0  0  0  0  0  0  0
  161.3570  206.1410  146.5900 C   0  0  0  0  0  0  0  0  0  0  0  0
  161.8050  208.6310  151.8960 C   0  0  2  0  0  3  0  0  0  0  0  0
  161.4420  206.5120  152.8590 C   0  0  0  0  0  2  0  0  0  0  0  0
  161.0130  204.3670  145.3290 N   0  0  0  0  0  0  0  0  0  0  0  0
  161.2500  208.4070  154.2040 C   0  0  0  0  0  2  0  0  0  0  0  0
  161.0120  203.6650  152.6710 C   0  0  0  0  0  3  0  0  0  0  0  0
  161.2840  205.8790  151.4970 C   0  0  0  0  0  0  0  0  0  0  0  0
  161.1050  204.4890  151.3990 C   0  0  0  0  0  0  0  0  0  0  0  0
  161.1240  204.6560  148.9580 C   0  0  0  0  0  0  0  0  0  0  0  0
  161.2360  205.4260  144.5180 C   0  0  0  0  0  3  0  0  0  0  0  0
  160.1860  210.5400  152.2890 C   0  0  0  0  0  2  0  0  0  0  0  0
  160.9800  207.8950  152.8660 N   0  0  1  0  0  0  0  0  0  0  0  0
  161.4670  206.5790  145.2810 C   0  0  0  0  0  3  0  0  0  0  0  0
  161.6320  210.1550  151.9970 C   0  0  0  0  0  2  0  0  0  0  0  0
  159.8440  210.4640  153.7590 C   0  0  0  0  0  0  0  0  0  0  0  0
  160.7950  202.5550  150.0350 C   0  0  0  0  0  3  0  0  0  0  0  0
  161.0050  203.8790  150.1300 C   0  0  2  0  0  3  0  0  0  0  0  0
  160.9960  204.0720  147.7880 N   0  0  0  0  0  0  0  0  0  0  0  0
  161.4420  208.1770  150.4860 C   0  0  0  0  0  2  0  0  0  0  0  0
  162.1480  208.1700  147.7620 C   0  0  0  0  0  1  0  0  0  0  0  0
  160.7620  203.0000  144.9110 C   0  0  0  0  0  1  0  0  0  0  0  0
  161.3730  206.0710  149.0520 C   0  0  0  0  0  0  0  0  0  0  0  0
  161.0920  204.8250  146.5820 C   0  0  0  0  0  0  0  0  0  0  0  0
  158.8880  211.4740  154.3070 C   0  0  0  0  0  2  0  0  0  0  0  0
  158.1500  210.9260  155.5180 C   0  0  2  0  0  3  0  0  0  0  0  0
  156.7190  210.9990  155.2830 N   0  0  0  0  0  1  0  0  0  0  0  0
  158.4690  211.6760  156.6500 O   0  0  0  0  0  1  0  0  0  0  0  0
  2 24  1  0  0  0  0
  2 12  1  0  0  0  0
  3 11  2  0  0  0  0
  4  3  1  0  0  0  0
  5 27  1  0  0  0  0
  6  5  1  0  0  0  0
  7 24  1  6  0  0  0
  7 19  1  0  0  0  0
  7 17  1  0  0  0  0
  9 28  1  0  0  0  0
 10  1  1  0  0  0  0
 12  8  1  0  0  0  0
 13 12  2  0  0  0  0
 13 11  1  0  0  0  0
 14 27  1  0  0  0  0
 14 22  1  0  0  0  0
 15 18  2  0  0  0  0
 15  9  1  0  0  0  0
 16 20  1  0  0  0  0
 17  8  1  1  0  0  0
 17 10  1  0  0  0  0
 18  6  1  0  0  0  0
 19 16  1  0  0  0  0
 20 29  1  0  0  0  0
 20  1  2  0  0  0  0
 21  4  2  0  0  0  0
 22 21  1  1  0  0  0
 22 13  1  0  0  0  0
 23 14  2  0  0  0  0
 25  5  1  0  0  0  0
 26  9  1  0  0  0  0
 27  2  2  0  0  0  0
 28  6  2  0  0  0  0
 28 23  1  0  0  0  0
 29 30  1  0  0  0  0
 30 31  1  6  0  0  0
 30 32  1  0  0  0  0
M  END
>  <MODEL>
2

>  <REMARK>
 VINA RESULT:      -8.0      3.377      4.953
  Name = 
  2 active torsions:
  status: ('A' for Active; 'I' for Inactive)
    1  A    between atoms: C_1  and  C_10
    2  A    between atoms: C_10  and  C_24
                            x       y       z     vdW  Elec       q    Type
                         _______ _______ _______ _____ _____    ______ ____

>  <TORSDO>
F 2

$$$$
=
 OpenBabel11062410373D

 32 37  0  0  1  0  0  0  0  0999 V2000
  161.6670  204.6970  148.6620 C   0  0  0  0  0  3  0  0  0  0  0  0
  161.2950  208.7560  151.9110 C   0  0  0  0  0  0  0  0  0  0  0  0
  161.6000  212.2930  148.4120 C   0  0  0  0  0  3  0  0  0  0  0  0
  161.0840  213.1440  149.2930 C   0  0  0  0  0  3  0  0  0  0  0  0
  160.5070  209.3850  154.2290 N   0  0  0  0  0  0  0  0  0  0  0  0
  159.8990  210.4080  155.0180 C   0  0  0  0  0  0  0  0  0  0  0  0
  162.1570  206.4550  151.2980 C   0  0  2  0  0  3  0  0  0  0  0  0
  162.2430  208.1380  149.6510 C   0  0  0  0  0  2  0  0  0  0  0  0
  159.1830  212.4480  155.4430 N   0  0  0  0  0  0  0  0  0  0  0  0
  162.4860  205.9120  149.0000 C   0  0  0  0  0  2  0  0  0  0  0  0
  161.8740  210.8580  148.7630 C   0  0  0  0  0  2  0  0  0  0  0  0
  161.6230  209.1430  150.5920 C   0  0  0  0  0  0  0  0  0  0  0  0
  161.4690  210.4750  150.1750 C   0  0  0  0  0  0  0  0  0  0  0  0
  160.5950  211.0680  152.3820 C   0  0  0  0  0  0  0  0  0  0  0  0
  159.0590  211.7120  156.5710 C   0  0  0  0  0  3  0  0  0  0  0  0
  160.7260  204.3890  150.9820 C   0  0  0  0  0  2  0  0  0  0  0  0
  161.7670  206.7860  149.9190 N   0  0  1  0  0  0  0  0  0  0  0  0
  159.5110  210.4040  156.3470 C   0  0  0  0  0  3  0  0  0  0  0  0
  161.9800  204.9650  151.6310 C   0  0  0  0  0  2  0  0  0  0  0  0
  160.9440  203.9800  149.5440 C   0  0  0  0  0  0  0  0  0  0  0  0
  160.7530  212.7010  150.6520 C   0  0  0  0  0  3  0  0  0  0  0  0
  160.9370  211.4350  151.0630 C   0  0  0  0  0  0  0  0  0  0  0  0
  160.0710  211.9710  153.1800 N   0  0  0  0  0  0  0  0  0  0  0  0
  161.3230  207.2880  152.2660 C   0  0  0  0  0  2  0  0  0  0  0  0
  160.9910  208.1910  154.9100 C   0  0  0  0  0  1  0  0  0  0  0  0
  158.8450  213.8510  155.2880 C   0  0  0  0  0  1  0  0  0  0  0  0
  160.8110  209.7190  152.8360 C   0  0  0  0  0  0  0  0  0  0  0  0
  159.6960  211.6360  154.5140 C   0  0  0  0  0  0  0  0  0  0  0  0
  160.2180  202.7740  149.0420 C   0  0  0  0  0  2  0  0  0  0  0  0
  161.1530  201.8540  148.2730 C   0  0  2  0  0  3  0  0  0  0  0  0
  160.6660  201.7020  146.9140 N   0  0  0  0  0  1  0  0  0  0  0  0
  161.2030  200.6030  148.8870 O   0  0  0  0  0  1  0  0  0  0  0  0
  1 10  1  0  0  0  0
  1 20  2  0  0  0  0
  2 24  1  0  0  0  0
  2 27  2  0  0  0  0
  3 11  1  0  0  0  0
  3  4  2  0  0  0  0
  4 21  1  0  0  0  0
  5 25  1  0  0  0  0
  5  6  1  0  0  0  0
  6 18  1  0  0  0  0
  7 19  1  1  0  0  0
  7 24  1  0  0  0  0
  8 17  1  0  0  0  0
  8 12  1  0  0  0  0
  9 15  1  0  0  0  0
 11 13  1  0  0  0  0
 12  2  1  0  0  0  0
 13 12  2  0  0  0  0
 13 22  1  0  0  0  0
 14 27  1  0  0  0  0
 14 23  2  0  0  0  0
 16 19  1  0  0  0  0
 17 10  1  6  0  0  0
 17  7  1  0  0  0  0
 18 15  2  0  0  0  0
 20 16  1  0  0  0  0
 21 22  2  0  0  0  0
 22 14  1  0  0  0  0
 23 28  1  0  0  0  0
 26  9  1  0  0  0  0
 27  5  1  0  0  0  0
 28  6  2  0  0  0  0
 28  9  1  0  0  0  0
 29 20  1  0  0  0  0
 30 31  1  6  0  0  0
 30 32  1  0  0  0  0
 30 29  1  0  0  0  0
M  END
>  <MODEL>
3

>  <REMARK>
 VINA RESULT:      -7.8      3.333      8.374
  Name = 
  2 active torsions:
  status: ('A' for Active; 'I' for Inactive)
    1  A    between atoms: C_1  and  C_10
    2  A    between atoms: C_10  and  C_24
                            x       y       z     vdW  Elec       q    Type
                         _______ _______ _______ _____ _____    ______ ____

>  <TORSDO>
F 2

$$$$
=
 OpenBabel11062410373D

 32 37  0  0  1  0  0  0  0  0999 V2000
  161.7650  206.1140  148.7010 C   0  0  0  0  0  3  0  0  0  0  0  0
  161.0100  209.8100  152.2980 C   0  0  0  0  0  0  0  0  0  0  0  0
  160.7150  213.6300  149.1080 C   0  0  0  0  0  3  0  0  0  0  0  0
  160.1310  214.3310  150.0740 C   0  0  0  0  0  3  0  0  0  0  0  0
  160.2440  210.1390  154.6840 N   0  0  0  0  0  0  0  0  0  0  0  0
  159.5430  211.0060  155.5760 C   0  0  0  0  0  0  0  0  0  0  0  0
  162.1340  207.7000  151.4630 C   0  0  2  0  0  3  0  0  0  0  0  0
  161.9360  209.5080  149.9650 C   0  0  0  0  0  2  0  0  0  0  0  0
  158.5890  212.8930  156.1960 N   0  0  0  0  0  0  0  0  0  0  0  0
  162.4350  207.3940  149.1180 C   0  0  0  0  0  2  0  0  0  0  0  0
  161.1850  212.2190  149.3260 C   0  0  0  0  0  2  0  0  0  0  0  0
  161.2320  210.3430  151.0080 C   0  0  0  0  0  0  0  0  0  0  0  0
  160.8910  211.6730  150.7120 C   0  0  0  0  0  0  0  0  0  0  0  0
  160.0400  211.9640  152.9870 C   0  0  0  0  0  0  0  0  0  0  0  0
  158.6080  212.0570  157.2600 C   0  0  0  0  0  3  0  0  0  0  0  0
  160.9680  205.4970  151.0130 C   0  0  0  0  0  2  0  0  0  0  0  0
  161.6490  208.0880  150.1300 N   0  0  1  0  0  0  0  0  0  0  0  0
  159.2140  210.8430  156.9100 C   0  0  0  0  0  3  0  0  0  0  0  0
  162.1630  206.1780  151.6710 C   0  0  0  0  0  2  0  0  0  0  0  0
  161.1780  205.2380  149.5390 C   0  0  0  0  0  0  0  0  0  0  0  0
  159.9150  213.7400  151.4000 C   0  0  0  0  0  3  0  0  0  0  0  0
  160.2770  212.4790  151.6950 C   0  0  0  0  0  0  0  0  0  0  0  0
  159.4370  212.7220  153.8750 N   0  0  0  0  0  0  0  0  0  0  0  0
  161.2410  208.3350  152.5230 C   0  0  0  0  0  2  0  0  0  0  0  0
  160.9050  208.9680  155.2450 C   0  0  0  0  0  1  0  0  0  0  0  0
  158.0680  214.2470  156.1740 C   0  0  0  0  0  1  0  0  0  0  0  0
  160.4450  210.6230  153.3160 C   0  0  0  0  0  0  0  0  0  0  0  0
  159.1640  212.2330  155.1860 C   0  0  0  0  0  0  0  0  0  0  0  0
  160.5920  203.9920  148.9580 C   0  0  0  0  0  2  0  0  0  0  0  0
  161.6200  203.2430  148.1240 C   0  0  2  0  0  3  0  0  0  0  0  0
  161.4800  203.6260  146.7310 N   0  0  0  0  0  1  0  0  0  0  0  0
  161.4210  201.8680  148.2460 O   0  0  0  0  0  1  0  0  0  0  0  0
  1 10  1  0  0  0  0
  1 20  2  0  0  0  0
  2 24  1  0  0  0  0
  2 27  2  0  0  0  0
  3 11  1  0  0  0  0
  3  4  2  0  0  0  0
  4 21  1  0  0  0  0
  5 25  1  0  0  0  0
  5  6  1  0  0  0  0
  6 18  1  0  0  0  0
  7 19  1  6  0  0  0
  7 24  1  0  0  0  0
  8 17  1  0  0  0  0
  8 12  1  0  0  0  0
  9 15  1  0  0  0  0
 11 13  1  0  0  0  0
 12  2  1  0  0  0  0
 13 12  2  0  0  0  0
 13 22  1  0  0  0  0
 14 27  1  0  0  0  0
 14 23  2  0  0  0  0
 16 19  1  0  0  0  0
 17 10  1  6  0  0  0
 17  7  1  0  0  0  0
 18 15  2  0  0  0  0
 20 16  1  0  0  0  0
 21 22  2  0  0  0  0
 22 14  1  0  0  0  0
 23 28  1  0  0  0  0
 26  9  1  0  0  0  0
 27  5  1  0  0  0  0
 28  6  2  0  0  0  0
 28  9  1  0  0  0  0
 29 20  1  0  0  0  0
 30 31  1  6  0  0  0
 30 32  1  0  0  0  0
 30 29  1  0  0  0  0
M  END
>  <MODEL>
4

>  <REMARK>
 VINA RESULT:      -7.4      3.574      8.357
  Name = 
  2 active torsions:
  status: ('A' for Active; 'I' for Inactive)
    1  A    between atoms: C_1  and  C_10
    2  A    between atoms: C_10  and  C_24
                            x       y       z     vdW  Elec       q    Type
                         _______ _______ _______ _____ _____    ______ ____

>  <TORSDO>
F 2

$$$$
=
 OpenBabel11062410373D

 32 37  0  0  1  0  0  0  0  0999 V2000
  161.5730  204.1790  147.2370 C   0  0  0  0  0  3  0  0  0  0  0  0
  161.5250  207.6340  151.1410 C   0  0  0  0  0  0  0  0  0  0  0  0
  161.9470  211.6980  148.2850 C   0  0  0  0  0  3  0  0  0  0  0  0
  161.5050  212.4110  149.3160 C   0  0  0  0  0  3  0  0  0  0  0  0
  160.8350  207.8960  153.5590 N   0  0  0  0  0  0  0  0  0  0  0  0
  160.3090  208.7990  154.5310 C   0  0  0  0  0  0  0  0  0  0  0  0
  162.2330  205.4290  150.1150 C   0  0  2  0  0  3  0  0  0  0  0  0
  162.3760  207.3630  148.7760 C   0  0  0  0  0  2  0  0  0  0  0  0
  159.7250  210.7710  155.3220 N   0  0  0  0  0  0  0  0  0  0  0  0
  162.4710  205.2730  147.7480 C   0  0  0  0  0  2  0  0  0  0  0  0
  162.1450  210.2110  148.3770 C   0  0  0  0  0  2  0  0  0  0  0  0
  161.8410  208.2230  149.8960 C   0  0  0  0  0  0  0  0  0  0  0  0
  161.7550  209.6130  149.7170 C   0  0  0  0  0  0  0  0  0  0  0  0
  160.9740  209.8640  152.0230 C   0  0  0  0  0  0  0  0  0  0  0  0
  159.5880  209.8600  156.3120 C   0  0  0  0  0  3  0  0  0  0  0  0
  160.6750  203.5280  149.5030 C   0  0  0  0  0  2  0  0  0  0  0  0
  161.8280  206.0130  148.8270 N   0  0  1  0  0  0  0  0  0  0  0  0
  159.9560  208.5880  155.8520 C   0  0  0  0  0  3  0  0  0  0  0  0
  161.9770  203.9160  150.1950 C   0  0  0  0  0  2  0  0  0  0  0  0
  160.8320  203.3610  148.0100 C   0  0  0  0  0  0  0  0  0  0  0  0
  161.1830  211.7600  150.5920 C   0  0  0  0  0  3  0  0  0  0  0  0
  161.3030  210.4330  150.7740 C   0  0  0  0  0  0  0  0  0  0  0  0
  160.5250  210.6430  152.9810 N   0  0  0  0  0  0  0  0  0  0  0  0
  161.4750  206.1270  151.2390 C   0  0  0  0  0  2  0  0  0  0  0  0
  161.2650  206.5790  154.0090 C   0  0  0  0  0  1  0  0  0  0  0  0
  159.4670  212.1960  155.4200 C   0  0  0  0  0  1  0  0  0  0  0  0
  161.1220  208.4480  152.2330 C   0  0  0  0  0  0  0  0  0  0  0  0
  160.1660  210.1040  154.2510 C   0  0  0  0  0  0  0  0  0  0  0  0
  160.0230  202.3000  147.3360 C   0  0  0  0  0  2  0  0  0  0  0  0
  160.8610  201.5350  146.3230 C   0  0  2  0  0  3  0  0  0  0  0  0
  160.0840  201.3300  145.1140 N   0  0  0  0  0  1  0  0  0  0  0  0
  161.2300  200.2960  146.8490 O   0  0  0  0  0  1  0  0  0  0  0  0
  1 10  1  0  0  0  0
  1 20  2  0  0  0  0
  2 24  1  0  0  0  0
  2 27  2  0  0  0  0
  3 11  1  0  0  0  0
  3  4  2  0  0  0  0
  4 21  1  0  0  0  0
  5 25  1  0  0  0  0
  5  6  1  0  0  0  0
  6 18  1  0  0  0  0
  7 19  1  6  0  0  0
  7 24  1  0  0  0  0
  8 17  1  0  0  0  0
  8 12  1  0  0  0  0
  9 26  1  0  0  0  0
  9 15  1  0  0  0  0
 11 13  1  0  0  0  0
 12  2  1  0  0  0  0
 13 12  2  0  0  0  0
 13 22  1  0  0  0  0
 14 27  1  0  0  0  0
 14 23  2  0  0  0  0
 16 19  1  0  0  0  0
 17 10  1  6  0  0  0
 17  7  1  0  0  0  0
 18 15  2  0  0  0  0
 20 16  1  0  0  0  0
 21 22  2  0  0  0  0
 22 14  1  0  0  0  0
 23 28  1  0  0  0  0
 27  5  1  0  0  0  0
 28  6  2  0  0  0  0
 28  9  1  0  0  0  0
 29 20  1  0  0  0  0
 30 31  1  6  0  0  0
 30 32  1  0  0  0  0
 30 29  1  0  0  0  0
M  END
>  <MODEL>
5

>  <REMARK>
 VINA RESULT:      -6.3      3.251      8.016
  Name = 
  2 active torsions:
  status: ('A' for Active; 'I' for Inactive)
    1  A    between atoms: C_1  and  C_10
    2  A    between atoms: C_10  and  C_24
                            x       y       z     vdW  Elec       q    Type
                         _______ _______ _______ _____ _____    ______ ____

>  <TORSDO>
F 2

$$$$
=
 OpenBabel11062410373D

 32 37  0  0  1  0  0  0  0  0999 V2000
  162.3130  206.5670  150.9030 C   0  0  0  0  0  3  0  0  0  0  0  0
  159.8420  210.3740  153.4670 C   0  0  0  0  0  0  0  0  0  0  0  0
  159.8900  213.6740  149.7310 C   0  0  0  0  0  3  0  0  0  0  0  0
  158.9200  214.3310  150.3610 C   0  0  0  0  0  3  0  0  0  0  0  0
  158.3260  210.7810  155.4480 N   0  0  0  0  0  0  0  0  0  0  0  0
  157.2420  211.5650  155.9470 C   0  0  0  0  0  0  0  0  0  0  0  0
  161.5210  208.4810  153.3500 C   0  0  2  0  0  3  0  0  0  0  0  0
  161.4850  210.0320  151.5770 C   0  0  0  0  0  2  0  0  0  0  0  0
  155.8280  213.2550  155.9460 N   0  0  0  0  0  0  0  0  0  0  0  0
  162.5850  207.9990  151.2720 C   0  0  0  0  0  2  0  0  0  0  0  0
  160.5080  212.4310  150.3060 C   0  0  0  0  0  2  0  0  0  0  0  0
  160.3560  210.8010  152.2220 C   0  0  0  0  0  0  0  0  0  0  0  0
  159.8980  211.9850  151.6230 C   0  0  0  0  0  0  0  0  0  0  0  0
  158.3430  212.3260  153.4820 C   0  0  0  0  0  0  0  0  0  0  0  0
  155.6600  212.5620  157.0960 C   0  0  0  0  0  3  0  0  0  0  0  0
  160.9570  206.0420  152.9640 C   0  0  0  0  0  2  0  0  0  0  0  0
  161.4140  208.6100  151.8890 N   0  0  1  0  0  0  0  0  0  0  0  0
  156.5480  211.4780  157.1410 C   0  0  0  0  0  3  0  0  0  0  0  0
  161.7490  207.0330  153.8100 C   0  0  0  0  0  2  0  0  0  0  0  0
  161.6570  205.6790  151.6760 C   0  0  0  0  0  0  0  0  0  0  0  0
  158.4100  213.8520  151.6510 C   0  0  0  0  0  3  0  0  0  0  0  0
  158.8770  212.7390  152.2430 C   0  0  0  0  0  0  0  0  0  0  0  0
  157.3720  213.0250  154.0230 N   0  0  0  0  0  0  0  0  0  0  0  0
  160.2450  209.0160  153.9920 C   0  0  0  0  0  2  0  0  0  0  0  0
  158.9740  209.8490  156.3610 C   0  0  0  0  0  1  0  0  0  0  0  0
  155.1110  214.4530  155.5500 C   0  0  0  0  0  1  0  0  0  0  0  0
  158.8550  211.1480  154.1320 C   0  0  0  0  0  0  0  0  0  0  0  0
  156.7940  212.6320  155.2650 C   0  0  0  0  0  0  0  0  0  0  0  0
  161.5090  204.2810  151.1690 C   0  0  0  0  0  2  0  0  0  0  0  0
  160.4230  204.1960  150.1080 C   0  0  2  0  0  3  0  0  0  0  0  0
  160.3180  202.8270  149.6360 N   0  0  0  0  0  1  0  0  0  0  0  0
  160.7390  205.0300  149.0350 O   0  0  0  0  0  1  0  0  0  0  0  0
  1 10  1  0  0  0  0
  1 20  2  0  0  0  0
  2 24  1  0  0  0  0
  2 27  2  0  0  0  0
  3 11  1  0  0  0  0
  3  4  2  0  0  0  0
  4 21  1  0  0  0  0
  5  6  1  0  0  0  0
  5 25  1  0  0  0  0
  6 18  1  0  0  0  0
  7 19  1  6  0  0  0
  7 24  1  0  0  0  0
  8 17  1  0  0  0  0
  8 12  1  0  0  0  0
  9 15  1  0  0  0  0
 11 13  1  0  0  0  0
 12  2  1  0  0  0  0
 13 12  2  0  0  0  0
 13 22  1  0  0  0  0
 14 23  2  0  0  0  0
 14 27  1  0  0  0  0
 15 18  2  0  0  0  0
 16 19  1  0  0  0  0
 17 10  1  6  0  0  0
 17  7  1  0  0  0  0
 20 16  1  0  0  0  0
 21 22  2  0  0  0  0
 22 14  1  0  0  0  0
 23 28  1  0  0  0  0
 26  9  1  0  0  0  0
 27  5  1  0  0  0  0
 28  9  1  0  0  0  0
 28  6  2  0  0  0  0
 29 20  1  0  0  0  0
 30 32  1  6  0  0  0
 30 29  1  0  0  0  0
 31 30  1  0  0  0  0
M  END
>  <MODEL>
6

>  <REMARK>
 VINA RESULT:      -6.1      4.123      8.853
  Name = 
  2 active torsions:
  status: ('A' for Active; 'I' for Inactive)
    1  A    between atoms: C_1  and  C_10
    2  A    between atoms: C_10  and  C_24
                            x       y       z     vdW  Elec       q    Type
                         _______ _______ _______ _____ _____    ______ ____

>  <TORSDO>
F 2

$$$$
