=
 OpenBabel11062408563D

 55 62  0  0  1  0  0  0  0  0999 V2000
  159.8150  213.1700  151.0490 C   0  0  0  0  0  2  0  0  0  0  0  0
  161.9920  213.8330  146.7260 C   0  0  0  0  0  2  0  0  0  0  0  0
  163.8840  211.7790  147.2590 O   0  0  0  0  0  0  0  0  0  0  0  0
  162.8460  211.0040  149.2520 C   0  0  0  0  0  2  0  0  0  0  0  0
  157.5970  214.0530  150.3220 C   0  0  0  0  0  3  0  0  0  0  0  0
  158.1840  213.3730  147.6920 C   0  0  0  0  0  0  0  0  0  0  0  0
  159.9030  211.6800  151.3230 C   0  0  0  0  0  2  0  0  0  0  0  0
  159.0670  213.1060  148.6940 N   0  0  0  0  0  0  0  0  0  0  0  0
  160.6270  214.4490  146.4480 C   0  0  0  0  0  2  0  0  0  0  0  0
  161.8950  212.8680  147.8090 N   0  0  0  0  0  2  0  0  0  0  0  0
  162.9060  211.8840  148.0440 C   0  0  0  0  0  0  0  0  0  0  0  0
  156.6660  214.3130  149.3160 C   0  0  0  0  0  3  0  0  0  0  0  0
  159.7140  213.4860  145.6780 C   0  0  2  0  0  0  0  0  0  0  0  0
  158.8080  213.4410  149.9880 C   0  0  0  0  0  0  0  0  0  0  0  0
  161.4100  210.7620  149.7070 C   0  0  2  0  0  3  0  0  0  0  0  0
  161.2670  211.2240  151.0990 N   0  0  0  0  0  0  0  0  0  0  0  0
  158.4230  214.1260  145.4000 N   0  0  0  0  0  2  0  0  0  0  0  0
  158.4750  212.9470  146.2820 C   0  0  2  0  0  3  0  0  0  0  0  0
  156.9560  213.9710  147.9950 C   0  0  0  0  0  3  0  0  0  0  0  0
  160.8650  208.4690  150.7250 C   0  0  0  0  0  2  0  0  0  0  0  0
  162.2540  208.2730  151.3280 C   0  0  0  0  0  2  0  0  0  0  0  0
  161.8370  208.5910  148.4030 C   0  0  2  0  0  3  0  0  0  0  0  0
  163.0690  207.9480  148.9930 C   0  0  0  0  0  3  0  0  0  0  0  0
  163.2390  207.7660  150.3110 C   0  0  0  0  0  3  0  0  0  0  0  0
  160.9510  209.3030  149.4390 C   0  0  2  0  0  3  0  0  0  0  0  0
  161.0260  207.5470  147.6600 C   0  0  0  0  0  1  0  0  0  0  0  0
  160.1410  211.3410  144.2480 C   0  0  0  0  0  2  0  0  0  0  0  0
  160.2560  212.8130  144.4060 C   0  0  2  0  0  0  0  0  0  0  0  0
  161.3220  211.9470  144.7210 O   0  0  0  0  0  0  0  0  0  0  0  0
  160.6070  212.9450  141.8080 C   0  0  2  0  0  0  0  0  0  0  0  0
  162.3920  214.2470  142.0460 C   0  0  0  0  0  2  0  0  0  0  0  0
  161.9080  213.1320  141.3440 O   0  0  0  0  0  0  0  0  0  0  0  0
  160.5550  213.6700  143.1540 C   0  0  2  0  0  3  0  0  0  0  0  0
  161.7560  214.3690  143.2880 O   0  0  0  0  0  0  0  0  0  0  0  0
  160.3450  211.4410  141.8890 C   0  0  0  0  0  1  0  0  0  0  0  0
  159.6240  213.6080  140.8180 C   0  0  2  0  0  3  0  0  0  0  0  0
  158.5300  212.6940  140.3500 C   0  0  0  0  0  0  0  0  0  0  0  0
  157.3220  213.0410  140.4380 O   0  0  0  0  0  1  0  0  0  0  0  0
  158.8530  211.4620  139.7980 O   0  0  0  0  0  0  0  0  0  0  0  0
  160.3040  214.1570  139.7210 O   0  0  0  0  0  0  0  0  0  0  0  0
  159.2610  213.6410  137.6370 C   0  0  0  0  0  1  0  0  0  0  0  0
  160.2310  213.1860  138.7180 C   0  0  1  0  0  3  0  0  0  0  0  0
  162.2340  214.0880  137.7220 O   0  0  0  0  0  1  0  0  0  0  0  0
  161.6250  212.9090  138.1560 C   0  0  2  0  0  3  0  0  0  0  0  0
  161.5660  211.9070  137.0190 C   0  0  0  0  0  1  0  0  0  0  0  0
  161.5770  210.1750  152.0670 C   0  0  0  0  0  2  0  0  0  0  0  0
  161.0110  211.7170  153.9530 C   0  0  0  0  0  3  0  0  0  0  0  0
  159.6580  210.9670  155.8230 C   0  0  0  0  0  0  0  0  0  0  0  0
  160.1540  209.4520  153.9920 C   0  0  0  0  0  3  0  0  0  0  0  0
  159.5320  209.7080  155.2180 C   0  0  0  0  0  3  0  0  0  0  0  0
  160.3900  211.9750  155.1780 C   0  0  0  0  0  3  0  0  0  0  0  0
  160.8920  210.4570  153.3580 C   0  0  0  0  0  0  0  0  0  0  0  0
  158.9520  211.2520  157.1130 C   0  0  1  0  0  3  0  0  0  0  0  0
  158.2450  212.5300  157.0450 C   0  0  0  0  0  2  0  0  0  0  0  0
  157.4960  211.2780  156.8940 N   0  0  0  0  0  2  0  0  0  0  0  0
  1  7  1  0  0  0  0
  2 10  1  0  0  0  0
  3 11  2  0  0  0  0
  6 19  2  0  0  0  0
  6  8  1  0  0  0  0
  8 14  2  0  0  0  0
  9  2  1  0  0  0  0
 10 11  1  0  0  0  0
 11  4  1  0  0  0  0
 12  5  2  0  0  0  0
 13 18  1  0  0  0  0
 13  9  1  1  0  0  0
 14  5  1  0  0  0  0
 14  1  1  0  0  0  0
 15  4  1  1  0  0  0
 15 16  1  0  0  0  0
 16  7  1  0  0  0  0
 16 46  1  0  0  0  0
 17 13  1  0  0  0  0
 18 17  1  6  0  0  0
 18  6  1  0  0  0  0
 19 12  1  0  0  0  0
 20 21  1  0  0  0  0
 22 26  1  1  0  0  0
 22 23  1  0  0  0  0
 22 25  1  0  0  0  0
 23 24  2  0  0  0  0
 24 21  1  0  0  0  0
 25 15  1  0  0  0  0
 25 20  1  1  0  0  0
 27 29  1  0  0  0  0
 28 27  1  6  0  0  0
 28 29  1  0  0  0  0
 28 13  1  0  0  0  0
 30 35  1  1  0  0  0
 30 33  1  0  0  0  0
 31 34  1  0  0  0  0
 32 30  1  0  0  0  0
 32 31  1  0  0  0  0
 33 34  1  1  0  0  0
 33 28  1  0  0  0  0
 36 40  1  6  0  0  0
 36 30  1  0  0  0  0
 37 38  1  0  0  0  0
 37 36  1  0  0  0  0
 39 37  2  0  0  0  0
 42 41  1  6  0  0  0
 42 40  1  0  0  0  0
 43 44  1  0  0  0  0
 44 45  1  6  0  0  0
 44 42  1  0  0  0  0
 46 52  1  0  0  0  0
 47 51  1  0  0  0  0
 49 50  2  0  0  0  0
 50 48  1  0  0  0  0
 51 48  2  0  0  0  0
 52 47  2  0  0  0  0
 52 49  1  0  0  0  0
 53 48  1  6  0  0  0
 54 53  1  0  0  0  0
 55 54  1  0  0  0  0
 55 53  1  0  0  0  0
M  END
>  <MODEL>
1

>  <REMARK>
 VINA RESULT:      -0.5      0.000      0.000
  Name = 
  11 active torsions:
  status: ('A' for Active; 'I' for Inactive)
    1  A    between atoms: C_1  and  C_53
    2  A    between atoms: C_6  and  C_53
    3  A    between atoms: C_8  and  C_20
    4  A    between atoms: C_8  and  C_43
    5  A    between atoms: C_10  and  C_32
    6  A    between atoms: C_11  and  C_29
    7  A    between atoms: C_11  and  O_38
    8  A    between atoms: C_26  and  C_45
    9  A    between atoms: C_33  and  N_49
   10  A    between atoms: C_33  and  C_52
   11  A    between atoms: O_38  and  C_53
                            x       y       z     vdW  Elec       q    Type
                         _______ _______ _______ _____ _____    ______ ____

>  <TORSDO>
F 11

$$$$
=
 OpenBabel11062408563D

 55 62  0  0  1  0  0  0  0  0999 V2000
  159.0690  213.8930  150.4170 C   0  0  0  0  0  2  0  0  0  0  0  0
  161.4520  213.9020  146.1530 C   0  0  0  0  0  2  0  0  0  0  0  0
  163.4930  212.2120  147.1830 O   0  0  0  0  0  0  0  0  0  0  0  0
  162.4040  211.7460  149.2440 C   0  0  0  0  0  2  0  0  0  0  0  0
  156.8290  214.3690  149.4240 C   0  0  0  0  0  3  0  0  0  0  0  0
  157.6500  213.2410  147.0210 C   0  0  0  0  0  0  0  0  0  0  0  0
  159.2800  212.5060  150.9970 C   0  0  0  0  0  2  0  0  0  0  0  0
  158.4870  213.2770  148.0940 N   0  0  0  0  0  0  0  0  0  0  0  0
  160.0570  214.3000  145.6920 C   0  0  0  0  0  2  0  0  0  0  0  0
  161.3760  213.1700  147.4060 N   0  0  0  0  0  2  0  0  0  0  0  0
  162.4590  212.3670  147.8840 C   0  0  0  0  0  0  0  0  0  0  0  0
  155.9460  214.3210  148.3450 C   0  0  0  0  0  3  0  0  0  0  0  0
  159.2920  213.1100  145.0980 C   0  0  2  0  0  0  0  0  0  0  0  0
  158.1130  213.8360  149.2780 C   0  0  0  0  0  0  0  0  0  0  0  0
  160.9710  211.4490  149.6740 C   0  0  2  0  0  3  0  0  0  0  0  0
  160.6940  212.1630  150.9330 N   0  0  0  0  0  0  0  0  0  0  0  0
  157.9660  213.5400  144.6350 N   0  0  0  0  0  2  0  0  0  0  0  0
  158.0720  212.5750  145.7430 C   0  0  2  0  0  3  0  0  0  0  0  0
  156.3530  213.7530  147.1380 C   0  0  0  0  0  3  0  0  0  0  0  0
  160.7290  209.3330  151.1090 C   0  0  0  0  0  2  0  0  0  0  0  0
  162.1520  209.3970  151.6570 C   0  0  0  0  0  2  0  0  0  0  0  0
  161.5950  209.1350  148.7500 C   0  0  2  0  0  3  0  0  0  0  0  0
  162.9130  208.7430  149.3740 C   0  0  0  0  0  3  0  0  0  0  0  0
  163.1510  208.8220  150.6910 C   0  0  0  0  0  3  0  0  0  0  0  0
  160.6720  209.9260  149.6940 C   0  0  2  0  0  3  0  0  0  0  0  0
  160.8820  207.8940  148.2490 C   0  0  0  0  0  1  0  0  0  0  0  0
  160.6100  210.9670  144.3920 C   0  0  0  0  0  2  0  0  0  0  0  0
  159.9780  212.2570  144.0170 C   0  0  2  0  0  0  0  0  0  0  0  0
  161.3600  212.1540  144.2740 O   0  0  0  0  0  0  0  0  0  0  0  0
  160.7620  213.2560  141.7210 C   0  0  2  0  0  0  0  0  0  0  0  0
  158.7840  214.2090  141.3810 C   0  0  0  0  0  2  0  0  0  0  0  0
  160.1660  214.4430  141.2990 O   0  0  0  0  0  0  0  0  0  0  0  0
  159.6830  212.5300  142.5240 C   0  0  2  0  0  3  0  0  0  0  0  0
  158.4980  213.2500  142.3610 O   0  0  0  0  0  0  0  0  0  0  0  0
  162.0140  213.6160  142.5230 C   0  0  0  0  0  1  0  0  0  0  0  0
  161.1430  212.4200  140.4780 C   0  0  2  0  0  3  0  0  0  0  0  0
  161.7020  213.2360  139.3500 C   0  0  0  0  0  0  0  0  0  0  0  0
  160.9370  213.8630  138.5700 O   0  0  0  0  0  0  0  0  0  0  0  0
  163.0760  213.3150  139.1750 O   0  0  0  0  0  1  0  0  0  0  0  0
  160.0570  211.6510  140.0340 O   0  0  0  0  0  0  0  0  0  0  0  0
  161.0650  209.5260  140.4420 C   0  0  0  0  0  1  0  0  0  0  0  0
  160.6270  210.5440  139.3980 C   0  0  1  0  0  3  0  0  0  0  0  0
  160.1890  208.8520  137.7350 O   0  0  0  0  0  1  0  0  0  0  0  0
  159.6350  209.9480  138.4000 C   0  0  2  0  0  3  0  0  0  0  0  0
  159.1790  210.9880  137.3950 C   0  0  0  0  0  1  0  0  0  0  0  0
  161.0380  211.3690  152.1100 C   0  0  0  0  0  2  0  0  0  0  0  0
  159.6410  210.8140  154.1090 C   0  0  0  0  0  3  0  0  0  0  0  0
  158.5490  212.5560  155.3990 C   0  0  0  0  0  0  0  0  0  0  0  0
  159.9290  213.1370  153.4880 C   0  0  0  0  0  3  0  0  0  0  0  0
  159.1150  213.5240  154.5570 C   0  0  0  0  0  3  0  0  0  0  0  0
  158.8280  211.1990  155.1780 C   0  0  0  0  0  3  0  0  0  0  0  0
  160.1950  211.7820  153.2650 C   0  0  0  0  0  0  0  0  0  0  0  0
  157.7160  212.9760  156.5710 C   0  0  1  0  0  3  0  0  0  0  0  0
  157.8470  214.4120  156.8100 C   0  0  0  0  0  2  0  0  0  0  0  0
  156.6560  213.8970  156.1280 N   0  0  0  0  0  2  0  0  0  0  0  0
  1  7  1  0  0  0  0
  2 10  1  0  0  0  0
  3 11  2  0  0  0  0
  6 19  2  0  0  0  0
  6  8  1  0  0  0  0
  8 14  2  0  0  0  0
  9  2  1  0  0  0  0
 10 11  1  0  0  0  0
 11  4  1  0  0  0  0
 12  5  2  0  0  0  0
 13  9  1  1  0  0  0
 13 18  1  0  0  0  0
 14  5  1  0  0  0  0
 14  1  1  0  0  0  0
 15  4  1  1  0  0  0
 15 25  1  0  0  0  0
 15 16  1  0  0  0  0
 16  7  1  0  0  0  0
 16 46  1  0  0  0  0
 17 13  1  0  0  0  0
 18 17  1  6  0  0  0
 18  6  1  0  0  0  0
 19 12  1  0  0  0  0
 20 21  1  0  0  0  0
 22 26  1  1  0  0  0
 22 23  1  0  0  0  0
 22 25  1  0  0  0  0
 23 24  2  0  0  0  0
 24 21  1  0  0  0  0
 25 20  1  1  0  0  0
 28 29  1  0  0  0  0
 28 27  1  1  0  0  0
 28 13  1  0  0  0  0
 29 27  1  0  0  0  0
 30 35  1  1  0  0  0
 30 33  1  0  0  0  0
 31 34  1  0  0  0  0
 32 31  1  0  0  0  0
 32 30  1  0  0  0  0
 33 34  1  1  0  0  0
 33 28  1  0  0  0  0
 36 37  1  6  0  0  0
 36 30  1  0  0  0  0
 38 37  2  0  0  0  0
 39 37  1  0  0  0  0
 40 36  1  0  0  0  0
 42 40  1  0  0  0  0
 42 41  1  1  0  0  0
 43 44  1  0  0  0  0
 44 45  1  6  0  0  0
 44 42  1  0  0  0  0
 46 52  1  0  0  0  0
 47 51  1  0  0  0  0
 49 50  2  0  0  0  0
 50 48  1  0  0  0  0
 51 48  2  0  0  0  0
 52 49  1  0  0  0  0
 52 47  2  0  0  0  0
 53 48  1  6  0  0  0
 53 54  1  0  0  0  0
 55 53  1  0  0  0  0
 55 54  1  0  0  0  0
M  END
>  <MODEL>
2

>  <REMARK>
 VINA RESULT:       0.8      1.444      2.226
  Name = 
  11 active torsions:
  status: ('A' for Active; 'I' for Inactive)
    1  A    between atoms: C_1  and  C_53
    2  A    between atoms: C_6  and  C_53
    3  A    between atoms: C_8  and  C_20
    4  A    between atoms: C_8  and  C_43
    5  A    between atoms: C_10  and  C_32
    6  A    between atoms: C_11  and  C_29
    7  A    between atoms: C_11  and  O_38
    8  A    between atoms: C_26  and  C_45
    9  A    between atoms: C_33  and  N_49
   10  A    between atoms: C_33  and  C_52
   11  A    between atoms: O_38  and  C_53
                            x       y       z     vdW  Elec       q    Type
                         _______ _______ _______ _____ _____    ______ ____

>  <TORSDO>
F 11

$$$$
