=
 OpenBabel11062407463D

 34 37  0  0  1  0  0  0  0  0999 V2000
  161.4910  208.8980  151.9040 N   0  0  1  0  0  0  0  0  0  0  0  0
  162.2820  208.6060  149.6800 O   0  0  0  0  0  0  0  0  0  0  0  0
  161.2000  207.4500  151.9840 C   0  0  1  0  0  3  0  0  0  0  0  0
  162.1400  207.2260  149.7080 C   0  0  0  0  0  3  0  0  0  0  0  0
  161.5770  206.6290  150.7570 C   0  0  0  0  0  0  0  0  0  0  0  0
  161.4850  209.4240  150.5230 C   0  0  2  0  0  3  0  0  0  0  0  0
  159.7020  210.5290  152.0950 O   0  0  0  0  0  0  0  0  0  0  0  0
  161.0880  210.3300  153.9590 C   0  0  1  0  0  3  0  0  0  0  0  0
  159.8170  211.7300  152.7650 C   0  0  0  0  0  0  0  0  0  0  0  0
  160.5840  211.6860  153.7970 N   0  0  0  0  0  0  0  0  0  0  0  0
  160.4840  209.5520  152.7690 C   0  0  2  0  0  3  0  0  0  0  0  0
  159.1390  212.9760  152.3210 C   0  0  0  0  0  1  0  0  0  0  0  0
  162.6110  210.3410  154.0070 C   0  0  0  0  0  1  0  0  0  0  0  0
  160.8090  203.1740  149.3870 C   0  0  0  0  0  0  0  0  0  0  0  0
  160.7770  202.4090  150.5550 C   0  0  0  0  0  3  0  0  0  0  0  0
  161.2790  205.1730  150.6940 C   0  0  0  0  0  0  0  0  0  0  0  0
  160.9910  203.0180  151.7940 C   0  0  0  0  0  3  0  0  0  0  0  0
  161.0640  204.5460  149.4570 C   0  0  0  0  0  3  0  0  0  0  0  0
  161.2410  204.3920  151.8620 C   0  0  0  0  0  3  0  0  0  0  0  0
  160.6110  202.5830  148.1860 F   0  0  0  0  0  0  0  0  0  0  0  0
  160.5240  206.7630  154.4300 C   0  0  0  0  0  1  0  0  0  0  0  0
  162.0510  206.7730  153.4510 S   0  0  0  0  0  0  0  0  0  0  0  0
  162.0470  210.8430  150.4830 C   0  0  0  0  0  2  0  0  0  0  0  0
  163.2770  211.9570  148.7600 F   0  0  0  0  0  0  0  0  0  0  0  0
  162.0390  211.4290  149.0740 C   0  0  2  0  0  3  0  0  0  0  0  0
  161.0540  212.4120  148.9450 O   0  0  0  0  0  0  0  0  0  0  0  0
  160.6370  212.3240  147.6120 C   0  0  0  0  0  2  0  0  0  0  0  0
  160.1480  214.4530  146.4930 C   0  0  0  0  0  1  0  0  0  0  0  0
  159.5350  213.3310  147.3110 C   0  0  0  0  0  0  0  0  0  0  0  0
  158.4290  212.6550  146.4830 C   0  0  0  0  0  2  0  0  0  0  0  0
  156.6380  213.8970  147.8210 C   0  0  0  0  0  2  0  0  0  0  0  0
  157.5830  213.5030  148.9550 C   0  0  0  0  0  2  0  0  0  0  0  0
  159.0130  213.9300  148.6300 C   0  0  0  0  0  2  0  0  0  0  0  0
  157.1570  213.5040  146.4320 C   0  0  0  0  0  2  0  0  0  0  0  0
  1  3  1  0  0  0  0
  1 11  1  1  0  0  0
  2  4  1  0  0  0  0
  2  6  1  0  0  0  0
  3 22  1  1  0  0  0
  4  5  2  0  0  0  0
  5  3  1  0  0  0  0
  6 23  1  1  0  0  0
  6  1  1  0  0  0  0
  7  9  1  0  0  0  0
  8 13  1  6  0  0  0
  9 10  2  0  0  0  0
 10  8  1  0  0  0  0
 11  7  1  6  0  0  0
 11  8  1  0  0  0  0
 12  9  1  0  0  0  0
 14 18  2  0  0  0  0
 14 15  1  0  0  0  0
 15 17  2  0  0  0  0
 16  5  1  0  0  0  0
 16 19  2  0  0  0  0
 17 19  1  0  0  0  0
 18 16  1  0  0  0  0
 20 14  1  0  0  0  0
 22 21  1  0  0  0  0
 25 24  1  1  0  0  0
 25 23  1  0  0  0  0
 26 25  1  0  0  0  0
 27 26  1  0  0  0  0
 28 29  1  0  0  0  0
 29 27  1  0  0  0  0
 29 33  1  0  0  0  0
 30 29  1  0  0  0  0
 31 32  1  0  0  0  0
 33 32  1  0  0  0  0
 34 30  1  0  0  0  0
 34 31  1  0  0  0  0
M  END
>  <MODEL>
1

>  <REMARK>
 VINA RESULT:      -7.4      0.000      0.000
  Name = 
  8 active torsions:
  status: ('A' for Active; 'I' for Inactive)
    1  A    between atoms: C_3  and  C_13
    2  A    between atoms: C_3  and  O_17
    3  A    between atoms: N_4  and  C_15
    4  A    between atoms: C_10  and  C_29
    5  A    between atoms: C_10  and  C_31
    6  A    between atoms: C_12  and  C_28
    7  A    between atoms: O_17  and  C_29
    8  A    between atoms: C_21  and  S_32
                            x       y       z     vdW  Elec       q    Type
                         _______ _______ _______ _____ _____    ______ ____

>  <TORSDO>
F 8

$$$$
=
 OpenBabel11062407463D

 34 37  0  0  1  0  0  0  0  0999 V2000
  160.1050  210.3440  153.8900 N   0  0  1  0  0  0  0  0  0  0  0  0
  160.9970  210.6830  151.7110 O   0  0  0  0  0  0  0  0  0  0  0  0
  160.2570  208.8830  153.7180 C   0  0  1  0  0  3  0  0  0  0  0  0
  161.2720  209.3390  151.5100 C   0  0  0  0  0  3  0  0  0  0  0  0
  160.8890  208.4320  152.4070 C   0  0  0  0  0  0  0  0  0  0  0  0
  159.9740  211.0760  152.6120 C   0  0  2  0  0  3  0  0  0  0  0  0
  157.8740  211.2600  154.1750 O   0  0  0  0  0  0  0  0  0  0  0  0
  159.2300  211.2990  156.0710 C   0  0  1  0  0  3  0  0  0  0  0  0
  157.5770  212.3390  154.9810 C   0  0  0  0  0  0  0  0  0  0  0  0
  158.3050  212.4230  156.0390 N   0  0  0  0  0  0  0  0  0  0  0  0
  158.9310  210.5190  154.7720 C   0  0  2  0  0  3  0  0  0  0  0  0
  156.5270  213.3370  154.6490 C   0  0  0  0  0  1  0  0  0  0  0  0
  160.6620  211.8040  156.1960 C   0  0  0  0  0  1  0  0  0  0  0  0
  161.2510  205.1970  150.4550 C   0  0  0  0  0  0  0  0  0  0  0  0
  161.3890  204.2620  151.4840 C   0  0  0  0  0  3  0  0  0  0  0  0
  161.0410  206.9860  152.0930 C   0  0  0  0  0  0  0  0  0  0  0  0
  161.3490  204.6800  152.8150 C   0  0  0  0  0  3  0  0  0  0  0  0
  161.0840  206.5510  150.7590 C   0  0  0  0  0  3  0  0  0  0  0  0
  161.1770  206.0340  153.1180 C   0  0  0  0  0  3  0  0  0  0  0  0
  161.2990  204.7950  149.1640 F   0  0  0  0  0  0  0  0  0  0  0  0
  159.8020  207.4020  155.8410 C   0  0  0  0  0  1  0  0  0  0  0  0
  161.2390  208.2400  155.1170 S   0  0  0  0  0  0  0  0  0  0  0  0
  160.0880  212.5820  152.8390 C   0  0  0  0  0  2  0  0  0  0  0  0
  158.3060  212.5790  151.2430 F   0  0  0  0  0  0  0  0  0  0  0  0
  159.2640  213.3820  151.8340 C   0  0  2  0  0  3  0  0  0  0  0  0
  160.0820  213.9510  150.8540 O   0  0  0  0  0  0  0  0  0  0  0  0
  159.4320  213.6730  149.6450 C   0  0  0  0  0  2  0  0  0  0  0  0
  159.7470  214.1460  147.2570 C   0  0  0  0  0  1  0  0  0  0  0  0
  160.4250  213.5860  148.4940 C   0  0  0  0  0  0  0  0  0  0  0  0
  161.6640  214.4400  148.8150 C   0  0  0  0  0  2  0  0  0  0  0  0
  163.1870  212.6460  147.8120 C   0  0  0  0  0  2  0  0  0  0  0  0
  162.2120  211.7580  148.5840 C   0  0  0  0  0  2  0  0  0  0  0  0
  160.7700  212.1100  148.2240 C   0  0  0  0  0  2  0  0  0  0  0  0
  162.8260  214.1360  147.8660 C   0  0  0  0  0  2  0  0  0  0  0  0
  1 11  1  1  0  0  0
  2  6  1  0  0  0  0
  3  1  1  0  0  0  0
  3 22  1  1  0  0  0
  4  2  1  0  0  0  0
  4  5  2  0  0  0  0
  5  3  1  0  0  0  0
  6 23  1  1  0  0  0
  6  1  1  0  0  0  0
  7  9  1  0  0  0  0
  8 13  1  6  0  0  0
  9 10  2  0  0  0  0
 10  8  1  0  0  0  0
 11  7  1  6  0  0  0
 11  8  1  0  0  0  0
 12  9  1  0  0  0  0
 14 18  2  0  0  0  0
 14 15  1  0  0  0  0
 15 17  2  0  0  0  0
 16  5  1  0  0  0  0
 16 19  2  0  0  0  0
 17 19  1  0  0  0  0
 18 16  1  0  0  0  0
 20 14  1  0  0  0  0
 22 21  1  0  0  0  0
 25 24  1  6  0  0  0
 25 23  1  0  0  0  0
 26 25  1  0  0  0  0
 27 26  1  0  0  0  0
 28 29  1  0  0  0  0
 29 30  1  0  0  0  0
 29 27  1  0  0  0  0
 31 34  1  0  0  0  0
 31 32  1  0  0  0  0
 33 29  1  0  0  0  0
 33 32  1  0  0  0  0
 34 30  1  0  0  0  0
M  END
>  <MODEL>
2

>  <REMARK>
 VINA RESULT:      -7.3      2.128      3.301
  Name = 
  8 active torsions:
  status: ('A' for Active; 'I' for Inactive)
    1  A    between atoms: C_3  and  C_13
    2  A    between atoms: C_3  and  O_17
    3  A    between atoms: N_4  and  C_15
    4  A    between atoms: C_10  and  C_29
    5  A    between atoms: C_10  and  C_31
    6  A    between atoms: C_12  and  C_28
    7  A    between atoms: O_17  and  C_29
    8  A    between atoms: C_21  and  S_32
                            x       y       z     vdW  Elec       q    Type
                         _______ _______ _______ _____ _____    ______ ____

>  <TORSDO>
F 8

$$$$
=
 OpenBabel11062407463D

 34 37  0  0  1  0  0  0  0  0999 V2000
  161.4660  209.0100  152.1460 N   0  0  1  0  0  0  0  0  0  0  0  0
  162.3040  208.9100  149.9220 O   0  0  0  0  0  0  0  0  0  0  0  0
  161.1620  207.5630  152.0900 C   0  0  1  0  0  3  0  0  0  0  0  0
  162.1500  207.5350  149.8230 C   0  0  0  0  0  3  0  0  0  0  0  0
  161.5600  206.8520  150.8030 C   0  0  0  0  0  0  0  0  0  0  0  0
  161.4950  209.6570  150.8170 C   0  0  2  0  0  3  0  0  0  0  0  0
  159.6380  210.5850  152.4210 O   0  0  0  0  0  0  0  0  0  0  0  0
  161.0330  210.3250  154.2720 C   0  0  1  0  0  3  0  0  0  0  0  0
  159.7250  211.7520  153.1510 C   0  0  0  0  0  0  0  0  0  0  0  0
  160.4940  211.6750  154.1790 N   0  0  0  0  0  0  0  0  0  0  0  0
  160.4450  209.5940  153.0440 C   0  0  2  0  0  3  0  0  0  0  0  0
  159.0150  213.0020  152.7730 C   0  0  0  0  0  1  0  0  0  0  0  0
  162.5550  210.3710  154.3180 C   0  0  0  0  0  1  0  0  0  0  0  0
  160.9260  203.5120  149.1150 C   0  0  0  0  0  0  0  0  0  0  0  0
  160.7350  202.6730  150.2150 C   0  0  0  0  0  3  0  0  0  0  0  0
  161.2530  205.4100  150.6040 C   0  0  0  0  0  0  0  0  0  0  0  0
  160.7980  203.1940  151.5090 C   0  0  0  0  0  3  0  0  0  0  0  0
  161.1880  204.8700  149.3100 C   0  0  0  0  0  3  0  0  0  0  0  0
  161.0560  204.5550  151.7020 C   0  0  0  0  0  3  0  0  0  0  0  0
  160.8740  203.0060  147.8610 F   0  0  0  0  0  0  0  0  0  0  0  0
  160.4490  206.7540  154.4870 C   0  0  0  0  0  1  0  0  0  0  0  0
  161.9760  206.7510  153.5090 S   0  0  0  0  0  0  0  0  0  0  0  0
  162.0680  211.0680  150.9160 C   0  0  0  0  0  2  0  0  0  0  0  0
  160.2430  212.2630  149.9320 F   0  0  0  0  0  0  0  0  0  0  0  0
  161.5860  211.9690  149.7820 C   0  0  2  0  0  3  0  0  0  0  0  0
  161.8080  211.3720  148.5380 O   0  0  0  0  0  0  0  0  0  0  0  0
  162.4910  212.3430  147.7960 C   0  0  0  0  0  2  0  0  0  0  0  0
  162.3710  213.2380  145.5130 C   0  0  0  0  0  1  0  0  0  0  0  0
  161.5700  213.0100  146.7820 C   0  0  0  0  0  0  0  0  0  0  0  0
  160.3880  212.0770  146.4670 C   0  0  0  0  0  2  0  0  0  0  0  0
  158.7910  214.0750  146.4470 C   0  0  0  0  0  2  0  0  0  0  0  0
  159.6370  214.4310  147.6680 C   0  0  0  0  0  2  0  0  0  0  0  0
  161.1240  214.3820  147.3190 C   0  0  0  0  0  2  0  0  0  0  0  0
  159.2680  212.8090  145.7230 C   0  0  0  0  0  2  0  0  0  0  0  0
  1 11  1  1  0  0  0
  2  6  1  0  0  0  0
  3  1  1  0  0  0  0
  3 22  1  1  0  0  0
  4  2  1  0  0  0  0
  4  5  2  0  0  0  0
  5  3  1  0  0  0  0
  6 23  1  1  0  0  0
  6  1  1  0  0  0  0
  7  9  1  0  0  0  0
  8 13  1  6  0  0  0
  9 10  2  0  0  0  0
 10  8  1  0  0  0  0
 11  7  1  6  0  0  0
 11  8  1  0  0  0  0
 12  9  1  0  0  0  0
 14 18  2  0  0  0  0
 14 15  1  0  0  0  0
 15 17  2  0  0  0  0
 16  5  1  0  0  0  0
 16 19  2  0  0  0  0
 17 19  1  0  0  0  0
 18 16  1  0  0  0  0
 20 14  1  0  0  0  0
 22 21  1  0  0  0  0
 25 24  1  1  0  0  0
 25 23  1  0  0  0  0
 26 25  1  0  0  0  0
 27 26  1  0  0  0  0
 28 29  1  0  0  0  0
 29 33  1  0  0  0  0
 29 27  1  0  0  0  0
 30 29  1  0  0  0  0
 31 32  1  0  0  0  0
 33 32  1  0  0  0  0
 34 31  1  0  0  0  0
 34 30  1  0  0  0  0
M  END
>  <MODEL>
3

>  <REMARK>
 VINA RESULT:      -6.7      1.084      1.340
  Name = 
  8 active torsions:
  status: ('A' for Active; 'I' for Inactive)
    1  A    between atoms: C_3  and  C_13
    2  A    between atoms: C_3  and  O_17
    3  A    between atoms: N_4  and  C_15
    4  A    between atoms: C_10  and  C_29
    5  A    between atoms: C_10  and  C_31
    6  A    between atoms: C_12  and  C_28
    7  A    between atoms: O_17  and  C_29
    8  A    between atoms: C_21  and  S_32
                            x       y       z     vdW  Elec       q    Type
                         _______ _______ _______ _____ _____    ______ ____

>  <TORSDO>
F 8

$$$$
=
 OpenBabel11062407463D

 34 37  0  0  1  0  0  0  0  0999 V2000
  161.7060  207.2880  150.6950 N   0  0  1  0  0  0  0  0  0  0  0  0
  162.7250  208.2160  148.7570 O   0  0  0  0  0  0  0  0  0  0  0  0
  161.3510  206.0780  149.9220 C   0  0  1  0  0  3  0  0  0  0  0  0
  162.5260  207.0770  147.9900 C   0  0  0  0  0  3  0  0  0  0  0  0
  161.8290  206.0520  148.4760 C   0  0  0  0  0  0  0  0  0  0  0  0
  161.8730  208.4940  149.8570 C   0  0  2  0  0  3  0  0  0  0  0  0
  160.2610  208.7900  151.9430 O   0  0  0  0  0  0  0  0  0  0  0  0
  161.0210  206.9190  153.1100 C   0  0  1  0  0  3  0  0  0  0  0  0
  160.4040  209.0620  153.2880 C   0  0  0  0  0  0  0  0  0  0  0  0
  160.8360  208.0700  153.9840 N   0  0  0  0  0  0  0  0  0  0  0  0
  160.6360  207.4390  151.7070 C   0  0  2  0  0  3  0  0  0  0  0  0
  160.1120  210.3920  153.8830 C   0  0  0  0  0  1  0  0  0  0  0  0
  162.4470  206.3970  153.2290 C   0  0  0  0  0  1  0  0  0  0  0  0
  160.9630  204.0670  145.3590 C   0  0  0  0  0  0  0  0  0  0  0  0
  160.8900  202.7660  145.8650 C   0  0  0  0  0  3  0  0  0  0  0  0
  161.4840  204.9150  147.5810 C   0  0  0  0  0  0  0  0  0  0  0  0
  161.1090  202.5340  147.2250 C   0  0  0  0  0  3  0  0  0  0  0  0
  161.2630  205.1320  146.2110 C   0  0  0  0  0  3  0  0  0  0  0  0
  161.4050  203.6020  148.0770 C   0  0  0  0  0  3  0  0  0  0  0  0
  160.7600  204.2920  144.0400 F   0  0  0  0  0  0  0  0  0  0  0  0
  160.3490  203.9630  151.1190 C   0  0  0  0  0  1  0  0  0  0  0  0
  162.0100  204.6210  150.8050 S   0  0  0  0  0  0  0  0  0  0  0  0
  162.4900  209.6320  150.6650 C   0  0  0  0  0  2  0  0  0  0  0  0
  161.0400  211.5340  150.7300 F   0  0  0  0  0  0  0  0  0  0  0  0
  162.1450  211.0030  150.0900 C   0  0  2  0  0  3  0  0  0  0  0  0
  161.9090  210.9270  148.7140 O   0  0  0  0  0  0  0  0  0  0  0  0
  162.6290  211.9970  148.1710 C   0  0  0  0  0  2  0  0  0  0  0  0
  162.4080  213.5250  146.2620 C   0  0  0  0  0  1  0  0  0  0  0  0
  161.7010  213.0000  147.5000 C   0  0  0  0  0  0  0  0  0  0  0  0
  160.4020  212.2960  147.0720 C   0  0  0  0  0  2  0  0  0  0  0  0
  159.0350  214.3320  147.8000 C   0  0  0  0  0  2  0  0  0  0  0  0
  160.0190  214.2490  148.9660 C   0  0  0  0  0  2  0  0  0  0  0  0
  161.4550  214.1870  148.4490 C   0  0  0  0  0  2  0  0  0  0  0  0
  159.3070  213.2990  146.6990 C   0  0  0  0  0  2  0  0  0  0  0  0
  1 11  1  1  0  0  0
  2  6  1  0  0  0  0
  3  1  1  0  0  0  0
  3 22  1  1  0  0  0
  4  5  2  0  0  0  0
  4  2  1  0  0  0  0
  5  3  1  0  0  0  0
  6 23  1  1  0  0  0
  6  1  1  0  0  0  0
  7  9  1  0  0  0  0
  8 13  1  6  0  0  0
  8 10  1  0  0  0  0
  9 12  1  0  0  0  0
  9 10  2  0  0  0  0
 11  7  1  1  0  0  0
 11  8  1  0  0  0  0
 14 15  2  0  0  0  0
 14 18  1  0  0  0  0
 15 17  1  0  0  0  0
 16 19  1  0  0  0  0
 16  5  1  0  0  0  0
 17 19  2  0  0  0  0
 18 16  2  0  0  0  0
 20 14  1  0  0  0  0
 22 21  1  0  0  0  0
 25 23  1  0  0  0  0
 25 24  1  1  0  0  0
 26 25  1  0  0  0  0
 27 26  1  0  0  0  0
 28 29  1  0  0  0  0
 29 27  1  0  0  0  0
 29 33  1  0  0  0  0
 30 29  1  0  0  0  0
 31 32  1  0  0  0  0
 33 32  1  0  0  0  0
 34 30  1  0  0  0  0
 34 31  1  0  0  0  0
M  END
>  <MODEL>
4

>  <REMARK>
 VINA RESULT:      -6.4      2.069      2.943
  Name = 
  8 active torsions:
  status: ('A' for Active; 'I' for Inactive)
    1  A    between atoms: C_3  and  C_13
    2  A    between atoms: C_3  and  O_17
    3  A    between atoms: N_4  and  C_15
    4  A    between atoms: C_10  and  C_29
    5  A    between atoms: C_10  and  C_31
    6  A    between atoms: C_12  and  C_28
    7  A    between atoms: O_17  and  C_29
    8  A    between atoms: C_21  and  S_32
                            x       y       z     vdW  Elec       q    Type
                         _______ _______ _______ _____ _____    ______ ____

>  <TORSDO>
F 8

$$$$
=
 OpenBabel11062407463D

 34 37  0  0  1  0  0  0  0  0999 V2000
  160.8300  210.8250  151.5970 N   0  0  1  0  0  0  0  0  0  0  0  0
  161.6550  209.2470  150.0210 O   0  0  0  0  0  0  0  0  0  0  0  0
  161.0340  211.9080  150.6110 C   0  0  1  0  0  3  0  0  0  0  0  0
  161.7780  210.1820  149.0040 C   0  0  0  0  0  3  0  0  0  0  0  0
  161.5500  211.4720  149.2450 C   0  0  0  0  0  0  0  0  0  0  0  0
  161.7080  209.6560  151.3780 C   0  0  2  0  0  3  0  0  0  0  0  0
  161.9410  210.7440  153.7550 O   0  0  0  0  0  0  0  0  0  0  0  0
  159.7500  211.5400  153.7790 C   0  0  1  0  0  3  0  0  0  0  0  0
  161.3080  210.4350  154.9410 C   0  0  0  0  0  0  0  0  0  0  0  0
  160.0880  210.8360  155.0080 N   0  0  0  0  0  0  0  0  0  0  0  0
  161.0320  211.4520  152.9220 C   0  0  2  0  0  3  0  0  0  0  0  0
  161.9650  209.6800  156.0400 C   0  0  0  0  0  1  0  0  0  0  0  0
  158.5140  210.9170  153.1430 C   0  0  0  0  0  1  0  0  0  0  0  0
  161.4270  213.3940  145.9750 C   0  0  0  0  0  0  0  0  0  0  0  0
  162.3650  214.4040  146.2070 C   0  0  0  0  0  3  0  0  0  0  0  0
  161.8500  212.4760  148.1900 C   0  0  0  0  0  0  0  0  0  0  0  0
  163.0490  214.4530  147.4230 C   0  0  0  0  0  3  0  0  0  0  0  0
  161.1690  212.4400  146.9630 C   0  0  0  0  0  3  0  0  0  0  0  0
  162.7930  213.4950  148.4090 C   0  0  0  0  0  3  0  0  0  0  0  0
  160.7560  213.3510  144.8010 F   0  0  0  0  0  0  0  0  0  0  0  0
  160.2060  214.3910  150.8540 C   0  0  0  0  0  1  0  0  0  0  0  0
  159.4550  212.8020  150.4060 S   0  0  0  0  0  0  0  0  0  0  0  0
  161.2710  208.4810  152.2500 C   0  0  0  0  0  2  0  0  0  0  0  0
  163.0930  207.4470  151.0950 F   0  0  0  0  0  0  0  0  0  0  0  0
  161.9770  207.1830  151.8670 C   0  0  2  0  0  3  0  0  0  0  0  0
  161.1130  206.3250  151.1810 O   0  0  0  0  0  0  0  0  0  0  0  0
  161.9360  205.6390  150.2810 C   0  0  0  0  0  2  0  0  0  0  0  0
  160.0130  206.3740  148.9440 C   0  0  0  0  0  1  0  0  0  0  0  0
  161.3200  205.6040  148.8890 C   0  0  0  0  0  0  0  0  0  0  0  0
  162.2640  206.2930  147.8890 C   0  0  0  0  0  2  0  0  0  0  0  0
  161.7480  204.5040  146.1350 C   0  0  0  0  0  2  0  0  0  0  0  0
  161.8850  203.6210  147.3750 C   0  0  0  0  0  2  0  0  0  0  0  0
  161.0020  204.1470  148.5050 C   0  0  0  0  0  2  0  0  0  0  0  0
  161.8690  206.0040  146.4390 C   0  0  0  0  0  2  0  0  0  0  0  0
  1 11  1  1  0  0  0
  2  6  1  0  0  0  0
  3 22  1  6  0  0  0
  3  1  1  0  0  0  0
  4  5  2  0  0  0  0
  4  2  1  0  0  0  0
  5  3  1  0  0  0  0
  6  1  1  0  0  0  0
  6 23  1  1  0  0  0
  7  9  1  0  0  0  0
  8 13  1  6  0  0  0
  8 10  1  0  0  0  0
  9 10  2  0  0  0  0
  9 12  1  0  0  0  0
 11  7  1  1  0  0  0
 11  8  1  0  0  0  0
 14 15  2  0  0  0  0
 14 18  1  0  0  0  0
 15 17  1  0  0  0  0
 16 19  1  0  0  0  0
 16  5  1  0  0  0  0
 17 19  2  0  0  0  0
 18 16  2  0  0  0  0
 20 14  1  0  0  0  0
 22 21  1  0  0  0  0
 25 24  1  6  0  0  0
 25 23  1  0  0  0  0
 26 25  1  0  0  0  0
 27 26  1  0  0  0  0
 29 28  1  0  0  0  0
 29 27  1  0  0  0  0
 30 29  1  0  0  0  0
 31 34  1  0  0  0  0
 31 32  1  0  0  0  0
 32 33  1  0  0  0  0
 33 29  1  0  0  0  0
 34 30  1  0  0  0  0
M  END
>  <MODEL>
5

>  <REMARK>
 VINA RESULT:      -6.0      2.805      7.309
  Name = 
  8 active torsions:
  status: ('A' for Active; 'I' for Inactive)
    1  A    between atoms: C_3  and  C_13
    2  A    between atoms: C_3  and  O_17
    3  A    between atoms: N_4  and  C_15
    4  A    between atoms: C_10  and  C_29
    5  A    between atoms: C_10  and  C_31
    6  A    between atoms: C_12  and  C_28
    7  A    between atoms: O_17  and  C_29
    8  A    between atoms: C_21  and  S_32
                            x       y       z     vdW  Elec       q    Type
                         _______ _______ _______ _____ _____    ______ ____

>  <TORSDO>
F 8

$$$$
=
 OpenBabel11062407463D

 34 37  0  0  1  0  0  0  0  0999 V2000
  160.6640  209.9860  152.7520 N   0  0  1  0  0  0  0  0  0  0  0  0
  161.5390  210.2090  150.5520 O   0  0  0  0  0  0  0  0  0  0  0  0
  160.6480  208.5160  152.5900 C   0  0  1  0  0  3  0  0  0  0  0  0
  161.6570  208.8410  150.3570 C   0  0  0  0  0  3  0  0  0  0  0  0
  161.1950  207.9890  151.2700 C   0  0  0  0  0  0  0  0  0  0  0  0
  160.5870  210.7200  151.4710 C   0  0  2  0  0  3  0  0  0  0  0  0
  158.6050  211.2230  153.1120 O   0  0  0  0  0  0  0  0  0  0  0  0
  159.9620  210.9560  154.9890 C   0  0  1  0  0  3  0  0  0  0  0  0
  158.4840  212.2930  153.9740 C   0  0  0  0  0  0  0  0  0  0  0  0
  159.2230  212.2100  155.0240 N   0  0  0  0  0  0  0  0  0  0  0  0
  159.5360  210.2970  153.6580 C   0  0  2  0  0  3  0  0  0  0  0  0
  157.6010  213.4580  153.7050 C   0  0  0  0  0  1  0  0  0  0  0  0
  161.4560  211.2250  155.1190 C   0  0  0  0  0  1  0  0  0  0  0  0
  161.1510  204.2220  151.7310 C   0  0  0  0  0  0  0  0  0  0  0  0
  161.0810  203.7780  150.4080 C   0  0  0  0  0  3  0  0  0  0  0  0
  161.1770  206.5330  150.9660 C   0  0  0  0  0  0  0  0  0  0  0  0
  161.0640  204.7030  149.3620 C   0  0  0  0  0  3  0  0  0  0  0  0
  161.1930  205.5910  152.0070 C   0  0  0  0  0  3  0  0  0  0  0  0
  161.1110  206.0720  149.6400 C   0  0  0  0  0  3  0  0  0  0  0  0
  161.1580  203.3260  152.7450 F   0  0  0  0  0  0  0  0  0  0  0  0
  160.0660  207.2620  154.8260 C   0  0  0  0  0  1  0  0  0  0  0  0
  161.5820  207.7770  153.9740 S   0  0  0  0  0  0  0  0  0  0  0  0
  160.8730  212.2050  151.6820 C   0  0  0  0  0  2  0  0  0  0  0  0
  158.7300  212.6250  150.7050 F   0  0  0  0  0  0  0  0  0  0  0  0
  160.0300  213.0920  150.7700 C   0  0  2  0  0  3  0  0  0  0  0  0
  160.5780  213.1580  149.4860 O   0  0  0  0  0  0  0  0  0  0  0  0
  159.7140  213.9970  148.7740 C   0  0  0  0  0  2  0  0  0  0  0  0
  157.8760  212.6120  147.9190 C   0  0  0  0  0  1  0  0  0  0  0  0
  159.1710  213.3030  147.5320 C   0  0  0  0  0  0  0  0  0  0  0  0
  158.8740  214.3490  146.4440 C   0  0  0  0  0  2  0  0  0  0  0  0
  159.7940  212.7750  144.6500 C   0  0  0  0  0  2  0  0  0  0  0  0
  160.8420  212.5660  145.7410 C   0  0  0  0  0  2  0  0  0  0  0  0
  160.1690  212.2250  147.0690 C   0  0  0  0  0  2  0  0  0  0  0  0
  158.6460  213.7000  145.0770 C   0  0  0  0  0  2  0  0  0  0  0  0
  1 11  1  1  0  0  0
  2  6  1  0  0  0  0
  3  1  1  0  0  0  0
  3 22  1  1  0  0  0
  4  2  1  0  0  0  0
  4  5  2  0  0  0  0
  5  3  1  0  0  0  0
  6 23  1  1  0  0  0
  6  1  1  0  0  0  0
  7  9  1  0  0  0  0
  8 10  1  0  0  0  0
  8 13  1  6  0  0  0
  9 10  2  0  0  0  0
 11  7  1  6  0  0  0
 11  8  1  0  0  0  0
 12  9  1  0  0  0  0
 14 18  1  0  0  0  0
 14 20  1  0  0  0  0
 15 14  2  0  0  0  0
 16  5  1  0  0  0  0
 16 18  2  0  0  0  0
 17 19  2  0  0  0  0
 17 15  1  0  0  0  0
 19 16  1  0  0  0  0
 22 21  1  0  0  0  0
 25 24  1  6  0  0  0
 25 23  1  0  0  0  0
 26 25  1  0  0  0  0
 27 26  1  0  0  0  0
 29 28  1  0  0  0  0
 29 27  1  0  0  0  0
 30 29  1  0  0  0  0
 31 34  1  0  0  0  0
 31 32  1  0  0  0  0
 32 33  1  0  0  0  0
 33 29  1  0  0  0  0
 34 30  1  0  0  0  0
M  END
>  <MODEL>
6

>  <REMARK>
 VINA RESULT:      -5.3      1.805      2.494
  Name = 
  8 active torsions:
  status: ('A' for Active; 'I' for Inactive)
    1  A    between atoms: C_3  and  C_13
    2  A    between atoms: C_3  and  O_17
    3  A    between atoms: N_4  and  C_15
    4  A    between atoms: C_10  and  C_29
    5  A    between atoms: C_10  and  C_31
    6  A    between atoms: C_12  and  C_28
    7  A    between atoms: O_17  and  C_29
    8  A    between atoms: C_21  and  S_32
                            x       y       z     vdW  Elec       q    Type
                         _______ _______ _______ _____ _____    ______ ____

>  <TORSDO>
F 8

$$$$
=
 OpenBabel11062407463D

 34 37  0  0  1  0  0  0  0  0999 V2000
  161.4000  207.4360  151.7840 N   0  0  1  0  0  0  0  0  0  0  0  0
  161.5160  205.9550  153.6420 O   0  0  0  0  0  0  0  0  0  0  0  0
  160.9460  208.5190  152.6830 C   0  0  1  0  0  3  0  0  0  0  0  0
  161.1990  206.9390  154.5680 C   0  0  0  0  0  3  0  0  0  0  0  0
  160.8630  208.1620  154.1620 C   0  0  0  0  0  0  0  0  0  0  0  0
  161.0950  206.0820  152.2930 C   0  0  2  0  0  3  0  0  0  0  0  0
  160.3930  206.5390  149.7640 O   0  0  0  0  0  0  0  0  0  0  0  0
  161.6710  208.4690  149.4830 C   0  0  1  0  0  3  0  0  0  0  0  0
  160.9920  206.5670  148.5220 C   0  0  0  0  0  0  0  0  0  0  0  0
  161.7250  207.6040  148.3130 N   0  0  0  0  0  0  0  0  0  0  0  0
  160.7630  207.7120  150.4780 C   0  0  2  0  0  3  0  0  0  0  0  0
  160.8310  205.4840  147.5170 C   0  0  0  0  0  1  0  0  0  0  0  0
  163.0800  208.7490  149.9910 C   0  0  0  0  0  1  0  0  0  0  0  0
  158.6260  210.6720  155.9210 C   0  0  0  0  0  0  0  0  0  0  0  0
  159.3790  210.9710  157.0590 C   0  0  0  0  0  3  0  0  0  0  0  0
  160.3640  209.1490  155.1560 C   0  0  0  0  0  0  0  0  0  0  0  0
  160.6240  210.3680  157.2490 C   0  0  0  0  0  3  0  0  0  0  0  0
  159.1130  209.7620  154.9800 C   0  0  0  0  0  3  0  0  0  0  0  0
  161.1130  209.4620  156.3030 C   0  0  0  0  0  3  0  0  0  0  0  0
  157.4150  211.2490  155.7410 F   0  0  0  0  0  0  0  0  0  0  0  0
  160.6850  211.0590  152.0600 C   0  0  0  0  0  1  0  0  0  0  0  0
  162.0610  209.9490  152.4660 S   0  0  0  0  0  0  0  0  0  0  0  0
  161.8140  205.0190  151.4650 C   0  0  0  0  0  2  0  0  0  0  0  0
  162.1350  202.6790  151.8460 F   0  0  0  0  0  0  0  0  0  0  0  0
  161.1720  203.6420  151.6090 C   0  0  2  0  0  3  0  0  0  0  0  0
  160.4340  203.3100  150.4690 O   0  0  0  0  0  0  0  0  0  0  0  0
  161.3610  202.7060  149.6110 C   0  0  0  0  0  2  0  0  0  0  0  0
  159.2030  201.7050  149.0040 C   0  0  0  0  0  1  0  0  0  0  0  0
  160.6700  201.7770  148.6220 C   0  0  0  0  0  0  0  0  0  0  0  0
  160.7890  202.3560  147.2010 C   0  0  0  0  0  2  0  0  0  0  0  0
  161.2030  200.0150  146.2580 C   0  0  0  0  0  2  0  0  0  0  0  0
  162.0720  199.9470  147.5130 C   0  0  0  0  0  2  0  0  0  0  0  0
  161.2670  200.3630  148.7430 C   0  0  0  0  0  2  0  0  0  0  0  0
  160.4150  201.3260  146.1330 C   0  0  0  0  0  2  0  0  0  0  0  0
  1 11  1  6  0  0  0
  1  6  1  0  0  0  0
  1  3  1  0  0  0  0
  2  4  1  0  0  0  0
  3 22  1  1  0  0  0
  3  5  1  0  0  0  0
  5  4  2  0  0  0  0
  5 16  1  0  0  0  0
  6 23  1  6  0  0  0
  6  2  1  0  0  0  0
  8 13  1  1  0  0  0
  8 11  1  0  0  0  0
  9  7  1  0  0  0  0
 10  9  2  0  0  0  0
 10  8  1  0  0  0  0
 11  7  1  6  0  0  0
 12  9  1  0  0  0  0
 14 15  1  0  0  0  0
 15 17  2  0  0  0  0
 16 19  2  0  0  0  0
 18 16  1  0  0  0  0
 18 14  2  0  0  0  0
 19 17  1  0  0  0  0
 20 14  1  0  0  0  0
 21 22  1  0  0  0  0
 23 25  1  0  0  0  0
 25 24  1  6  0  0  0
 26 25  1  0  0  0  0
 27 26  1  0  0  0  0
 29 33  1  0  0  0  0
 29 28  1  0  0  0  0
 29 27  1  0  0  0  0
 30 29  1  0  0  0  0
 31 32  1  0  0  0  0
 32 33  1  0  0  0  0
 34 31  1  0  0  0  0
 34 30  1  0  0  0  0
M  END
>  <MODEL>
7

>  <REMARK>
 VINA RESULT:      -5.3      3.905      8.621
  Name = 
  8 active torsions:
  status: ('A' for Active; 'I' for Inactive)
    1  A    between atoms: C_3  and  C_13
    2  A    between atoms: C_3  and  O_17
    3  A    between atoms: N_4  and  C_15
    4  A    between atoms: C_10  and  C_29
    5  A    between atoms: C_10  and  C_31
    6  A    between atoms: C_12  and  C_28
    7  A    between atoms: O_17  and  C_29
    8  A    between atoms: C_21  and  S_32
                            x       y       z     vdW  Elec       q    Type
                         _______ _______ _______ _____ _____    ______ ____

>  <TORSDO>
F 8

$$$$
=
 OpenBabel11062407463D

 34 37  0  0  1  0  0  0  0  0999 V2000
  161.0650  208.8590  152.7700 N   0  0  1  0  0  0  0  0  0  0  0  0
  160.8370  207.4370  154.6630 O   0  0  0  0  0  0  0  0  0  0  0  0
  160.1990  209.8610  153.4270 C   0  0  1  0  0  3  0  0  0  0  0  0
  160.1070  208.3640  155.3920 C   0  0  0  0  0  3  0  0  0  0  0  0
  159.7260  209.5110  154.8320 C   0  0  0  0  0  0  0  0  0  0  0  0
  160.8310  207.4780  153.2450 C   0  0  2  0  0  3  0  0  0  0  0  0
  160.7760  207.7800  150.6130 O   0  0  0  0  0  0  0  0  0  0  0  0
  161.9130  209.8150  150.5780 C   0  0  1  0  0  3  0  0  0  0  0  0
  161.7100  207.8140  149.5980 C   0  0  0  0  0  0  0  0  0  0  0  0
  162.3820  208.9100  149.5380 N   0  0  0  0  0  0  0  0  0  0  0  0
  160.8190  209.0130  151.3190 C   0  0  2  0  0  3  0  0  0  0  0  0
  161.9440  206.6780  148.6700 C   0  0  0  0  0  1  0  0  0  0  0  0
  163.0810  210.2570  151.4510 C   0  0  0  0  0  1  0  0  0  0  0  0
  156.5440  211.1930  156.0360 C   0  0  0  0  0  0  0  0  0  0  0  0
  157.0390  212.0690  157.0060 C   0  0  0  0  0  3  0  0  0  0  0  0
  158.8030  210.4130  155.5710 C   0  0  0  0  0  0  0  0  0  0  0  0
  158.4110  212.1240  157.2600 C   0  0  0  0  0  3  0  0  0  0  0  0
  157.4210  210.3670  155.3290 C   0  0  0  0  0  3  0  0  0  0  0  0
  159.2870  211.3010  156.5480 C   0  0  0  0  0  3  0  0  0  0  0  0
  155.2140  211.1310  155.7960 F   0  0  0  0  0  0  0  0  0  0  0  0
  159.7500  212.3180  152.6060 C   0  0  0  0  0  1  0  0  0  0  0  0
  161.0930  211.4540  153.4660 S   0  0  0  0  0  0  0  0  0  0  0  0
  161.9220  206.5400  152.7340 C   0  0  0  0  0  2  0  0  0  0  0  0
  161.1620  204.4090  153.5120 F   0  0  0  0  0  0  0  0  0  0  0  0
  161.3750  205.1610  152.3720 C   0  0  2  0  0  3  0  0  0  0  0  0
  162.2440  204.4870  151.5100 O   0  0  0  0  0  0  0  0  0  0  0  0
  161.6700  203.2210  151.3480 C   0  0  0  0  0  2  0  0  0  0  0  0
  159.7200  204.0890  150.1360 C   0  0  0  0  0  1  0  0  0  0  0  0
  160.8940  203.1310  150.0410 C   0  0  0  0  0  0  0  0  0  0  0  0
  161.7970  203.5620  148.8720 C   0  0  0  0  0  2  0  0  0  0  0  0
  160.8350  201.6950  147.4130 C   0  0  0  0  0  2  0  0  0  0  0  0
  160.9970  200.9370  148.7300 C   0  0  0  0  0  2  0  0  0  0  0  0
  160.3360  201.7060  149.8720 C   0  0  0  0  0  2  0  0  0  0  0  0
  161.1950  203.1830  147.5170 C   0  0  0  0  0  2  0  0  0  0  0  0
  1 11  1  6  0  0  0
  1  6  1  0  0  0  0
  1  3  1  0  0  0  0
  2  4  1  0  0  0  0
  3 22  1  1  0  0  0
  3  5  1  0  0  0  0
  5  4  2  0  0  0  0
  5 16  1  0  0  0  0
  6 23  1  6  0  0  0
  6  2  1  0  0  0  0
  8 11  1  0  0  0  0
  8 13  1  1  0  0  0
  9  7  1  0  0  0  0
 10  9  2  0  0  0  0
 10  8  1  0  0  0  0
 11  7  1  6  0  0  0
 12  9  1  0  0  0  0
 14 15  1  0  0  0  0
 15 17  2  0  0  0  0
 16 19  2  0  0  0  0
 18 16  1  0  0  0  0
 18 14  2  0  0  0  0
 19 17  1  0  0  0  0
 20 14  1  0  0  0  0
 21 22  1  0  0  0  0
 25 23  1  0  0  0  0
 25 24  1  1  0  0  0
 26 25  1  0  0  0  0
 27 26  1  0  0  0  0
 29 28  1  0  0  0  0
 29 27  1  0  0  0  0
 30 29  1  0  0  0  0
 31 34  1  0  0  0  0
 31 32  1  0  0  0  0
 32 33  1  0  0  0  0
 33 29  1  0  0  0  0
 34 30  1  0  0  0  0
M  END
>  <MODEL>
8

>  <REMARK>
 VINA RESULT:      -5.2      3.686      8.343
  Name = 
  8 active torsions:
  status: ('A' for Active; 'I' for Inactive)
    1  A    between atoms: C_3  and  C_13
    2  A    between atoms: C_3  and  O_17
    3  A    between atoms: N_4  and  C_15
    4  A    between atoms: C_10  and  C_29
    5  A    between atoms: C_10  and  C_31
    6  A    between atoms: C_12  and  C_28
    7  A    between atoms: O_17  and  C_29
    8  A    between atoms: C_21  and  S_32
                            x       y       z     vdW  Elec       q    Type
                         _______ _______ _______ _____ _____    ______ ____

>  <TORSDO>
F 8

$$$$
=
 OpenBabel11062407463D

 34 37  0  0  1  0  0  0  0  0999 V2000
  161.5300  207.3300  150.5820 N   0  0  1  0  0  0  0  0  0  0  0  0
  160.9590  206.0350  152.4940 O   0  0  0  0  0  0  0  0  0  0  0  0
  161.2380  208.5660  151.3400 C   0  0  1  0  0  3  0  0  0  0  0  0
  160.7670  207.1430  153.3060 C   0  0  0  0  0  3  0  0  0  0  0  0
  160.8320  208.3710  152.7950 C   0  0  0  0  0  0  0  0  0  0  0  0
  160.8050  206.1450  151.0870 C   0  0  2  0  0  3  0  0  0  0  0  0
  160.3450  206.6880  148.5620 O   0  0  0  0  0  0  0  0  0  0  0  0
  162.4300  207.6780  148.2360 C   0  0  1  0  0  3  0  0  0  0  0  0
  160.9570  206.2030  147.4250 C   0  0  0  0  0  0  0  0  0  0  0  0
  162.1210  206.7020  147.2000 N   0  0  0  0  0  0  0  0  0  0  0  0
  161.2030  207.6420  149.1730 C   0  0  2  0  0  3  0  0  0  0  0  0
  160.3440  205.1720  146.5480 C   0  0  0  0  0  1  0  0  0  0  0  0
  163.7540  207.3290  148.9040 C   0  0  0  0  0  1  0  0  0  0  0  0
  160.6230  210.7480  155.7460 C   0  0  0  0  0  0  0  0  0  0  0  0
  159.8050  211.7590  155.2360 C   0  0  0  0  0  3  0  0  0  0  0  0
  160.4560  209.5350  153.6420 C   0  0  0  0  0  0  0  0  0  0  0  0
  159.3080  211.6630  153.9340 C   0  0  0  0  0  3  0  0  0  0  0  0
  160.9500  209.6470  154.9520 C   0  0  0  0  0  3  0  0  0  0  0  0
  159.6320  210.5580  153.1420 C   0  0  0  0  0  3  0  0  0  0  0  0
  161.1130  210.8450  157.0040 F   0  0  0  0  0  0  0  0  0  0  0  0
  161.8760  210.8290  150.1650 C   0  0  0  0  0  1  0  0  0  0  0  0
  162.7080  209.6470  151.2600 S   0  0  0  0  0  0  0  0  0  0  0  0
  161.3430  204.8680  150.4460 C   0  0  0  0  0  2  0  0  0  0  0  0
  162.4700  203.4430  152.0020 F   0  0  0  0  0  0  0  0  0  0  0  0
  161.2540  203.6680  151.3840 C   0  0  2  0  0  3  0  0  0  0  0  0
  160.8490  202.5210  150.6950 O   0  0  0  0  0  0  0  0  0  0  0  0
  161.2840  202.7240  149.3810 C   0  0  0  0  0  2  0  0  0  0  0  0
  159.1390  201.7000  148.7660 C   0  0  0  0  0  1  0  0  0  0  0  0
  160.6170  201.7470  148.4230 C   0  0  0  0  0  0  0  0  0  0  0  0
  160.7780  202.2480  146.9770 C   0  0  0  0  0  2  0  0  0  0  0  0
  161.2060  199.8580  146.1730 C   0  0  0  0  0  2  0  0  0  0  0  0
  162.0390  199.8540  147.4540 C   0  0  0  0  0  2  0  0  0  0  0  0
  161.2020  200.3390  148.6360 C   0  0  0  0  0  2  0  0  0  0  0  0
  160.4290  201.1640  145.9550 C   0  0  0  0  0  2  0  0  0  0  0  0
  1 11  1  6  0  0  0
  1  6  1  0  0  0  0
  1  3  1  0  0  0  0
  2  4  1  0  0  0  0
  3 22  1  1  0  0  0
  3  5  1  0  0  0  0
  5  4  2  0  0  0  0
  5 16  1  0  0  0  0
  6 23  1  6  0  0  0
  6  2  1  0  0  0  0
  8 13  1  1  0  0  0
  8 11  1  0  0  0  0
  9  7  1  0  0  0  0
 10  9  2  0  0  0  0
 10  8  1  0  0  0  0
 11  7  1  6  0  0  0
 12  9  1  0  0  0  0
 14 20  1  0  0  0  0
 15 14  1  0  0  0  0
 16 18  1  0  0  0  0
 17 15  2  0  0  0  0
 18 14  2  0  0  0  0
 19 16  2  0  0  0  0
 19 17  1  0  0  0  0
 21 22  1  0  0  0  0
 23 25  1  0  0  0  0
 25 24  1  6  0  0  0
 26 25  1  0  0  0  0
 27 26  1  0  0  0  0
 29 33  1  0  0  0  0
 29 28  1  0  0  0  0
 29 27  1  0  0  0  0
 30 29  1  0  0  0  0
 31 32  1  0  0  0  0
 32 33  1  0  0  0  0
 34 31  1  0  0  0  0
 34 30  1  0  0  0  0
M  END
>  <MODEL>
9

>  <REMARK>
 VINA RESULT:      -5.1      3.644      8.750
  Name = 
  8 active torsions:
  status: ('A' for Active; 'I' for Inactive)
    1  A    between atoms: C_3  and  C_13
    2  A    between atoms: C_3  and  O_17
    3  A    between atoms: N_4  and  C_15
    4  A    between atoms: C_10  and  C_29
    5  A    between atoms: C_10  and  C_31
    6  A    between atoms: C_12  and  C_28
    7  A    between atoms: O_17  and  C_29
    8  A    between atoms: C_21  and  S_32
                            x       y       z     vdW  Elec       q    Type
                         _______ _______ _______ _____ _____    ______ ____

>  <TORSDO>
F 8

$$$$
