=
 OpenBabel11062410463D

 32 37  0  0  1  0  0  0  0  0999 V2000
  161.3600  200.8290  147.0390 C   0  0  0  0  0  0  0  0  0  0  0  0
  160.4260  202.1240  149.9970 C   0  0  0  0  0  3  0  0  0  0  0  0
  161.5240  207.1720  150.4310 C   0  0  0  0  0  0  0  0  0  0  0  0
  160.8530  207.7140  155.1880 C   0  0  0  0  0  3  0  0  0  0  0  0
  161.2840  208.9990  155.0780 N   0  0  0  0  0  0  0  0  0  0  0  0
  161.0630  205.1150  149.3330 C   0  0  0  0  0  0  0  0  0  0  0  0
  160.7010  205.3260  151.6900 N   0  0  0  0  0  0  0  0  0  0  0  0
  161.5600  200.8620  148.3050 N   0  0  0  0  0  0  0  0  0  0  0  0
  160.1080  203.1880  150.7310 C   0  0  0  0  0  3  0  0  0  0  0  0
  160.7920  206.8960  154.0600 C   0  0  0  0  0  3  0  0  0  0  0  0
  161.1300  206.6160  151.6560 C   0  0  0  0  0  0  0  0  0  0  0  0
  161.1790  207.4070  152.8150 C   0  0  0  0  0  0  0  0  0  0  0  0
  162.0140  209.2560  151.4680 C   0  0  0  0  0  0  0  0  0  0  0  0
  160.9780  202.3780  146.2310 S   0  0  0  0  0  0  0  0  0  0  0  0
  161.0930  203.1060  147.8530 C   0  0  0  0  0  0  0  0  0  0  0  0
  161.4190  199.5470  146.2850 C   0  0  0  0  0  1  0  0  0  0  0  0
  160.6640  204.5480  150.5740 C   0  0  0  0  0  0  0  0  0  0  0  0
  160.9800  204.4190  148.0330 C   0  0  0  0  0  3  0  0  0  0  0  0
  161.4680  202.1530  148.9310 C   0  0  1  0  0  3  0  0  0  0  0  0
  161.6670  209.5240  153.8840 C   0  0  0  0  0  3  0  0  0  0  0  0
  161.6270  208.7430  152.7220 C   0  0  0  0  0  0  0  0  0  0  0  0
  161.4680  206.4140  149.3070 N   0  0  0  0  0  0  0  0  0  0  0  0
  161.9490  208.4600  150.3650 N   0  0  0  0  0  0  0  0  0  0  0  0
  162.5140  210.6600  151.3180 C   0  0  0  0  0  2  0  0  0  0  0  0
  161.3930  211.8780  149.4130 N   0  0  0  0  0  0  0  0  0  0  0  0
  160.4280  212.1610  151.3690 C   0  0  0  0  0  0  0  0  0  0  0  0
  159.7430  212.8800  150.4050 C   0  0  0  0  0  3  0  0  0  0  0  0
  160.3580  212.6810  149.2190 N   0  0  0  0  0  0  0  0  0  0  0  0
  160.0980  212.0910  152.8180 C   0  0  0  0  0  1  0  0  0  0  0  0
  161.4590  211.5300  150.7100 C   0  0  0  0  0  0  0  0  0  0  0  0
  162.2720  211.4220  148.3460 C   0  0  0  0  0  2  0  0  0  0  0  0
  163.2110  212.5420  147.9390 C   0  0  0  0  0  1  0  0  0  0  0  0
  1  8  2  0  0  0  0
  2  9  2  0  0  0  0
  3 11  1  0  0  0  0
  5  4  1  0  0  0  0
  6 17  2  0  0  0  0
  8 19  1  0  0  0  0
 10  4  2  0  0  0  0
 11  7  2  0  0  0  0
 11 12  1  0  0  0  0
 12 10  1  0  0  0  0
 13 21  1  0  0  0  0
 14  1  1  0  0  0  0
 14 15  1  0  0  0  0
 15 18  2  0  0  0  0
 15 19  1  0  0  0  0
 16  1  1  0  0  0  0
 17  9  1  0  0  0  0
 17  7  1  0  0  0  0
 18  6  1  0  0  0  0
 19  2  1  1  0  0  0
 20  5  2  0  0  0  0
 21 12  2  0  0  0  0
 21 20  1  0  0  0  0
 22  6  1  0  0  0  0
 22  3  2  0  0  0  0
 23  3  1  0  0  0  0
 23 13  2  0  0  0  0
 24 13  1  0  0  0  0
 25 30  1  0  0  0  0
 26 29  1  0  0  0  0
 27 26  1  0  0  0  0
 28 25  1  0  0  0  0
 28 27  2  0  0  0  0
 30 24  1  0  0  0  0
 30 26  2  0  0  0  0
 31 25  1  0  0  0  0
 32 31  1  0  0  0  0
M  END
>  <MODEL>
1

>  <REMARK>
 VINA RESULT:      -7.5      0.000      0.000
  Name = 
  3 active torsions:
  status: ('A' for Active; 'I' for Inactive)
    1  A    between atoms: C_6  and  N_7
    2  A    between atoms: C_16  and  C_27
    3  A    between atoms: C_27  and  C_32
                            x       y       z     vdW  Elec       q    Type
                         _______ _______ _______ _____ _____    ______ ____

>  <TORSDO>
F 3

$$$$
=
 OpenBabel11062410463D

 32 37  0  0  1  0  0  0  0  0999 V2000
  161.9480  204.6070  146.3660 C   0  0  0  0  0  0  0  0  0  0  0  0
  161.1290  204.1570  149.5950 C   0  0  0  0  0  3  0  0  0  0  0  0
  160.9090  208.5960  152.2620 C   0  0  0  0  0  0  0  0  0  0  0  0
  160.7920  206.8080  156.7520 C   0  0  0  0  0  3  0  0  0  0  0  0
  160.8490  208.0780  157.2350 N   0  0  0  0  0  0  0  0  0  0  0  0
  160.8570  207.1800  150.3550 C   0  0  0  0  0  0  0  0  0  0  0  0
  160.7860  206.2360  152.5530 N   0  0  0  0  0  0  0  0  0  0  0  0
  162.3070  204.1490  147.5080 N   0  0  0  0  0  0  0  0  0  0  0  0
  160.6490  204.6520  150.7330 C   0  0  0  0  0  3  0  0  0  0  0  0
  160.7910  206.5790  155.3760 C   0  0  0  0  0  3  0  0  0  0  0  0
  160.8510  207.4770  153.1050 C   0  0  0  0  0  0  0  0  0  0  0  0
  160.8520  207.6660  154.4960 C   0  0  0  0  0  0  0  0  0  0  0  0
  160.9740  210.0700  154.1290 C   0  0  0  0  0  0  0  0  0  0  0  0
  161.0620  206.1610  146.3490 S   0  0  0  0  0  0  0  0  0  0  0  0
  161.2070  206.1160  148.1240 C   0  0  0  0  0  0  0  0  0  0  0  0
  162.2360  203.8570  145.1120 C   0  0  0  0  0  1  0  0  0  0  0  0
  160.7990  206.0430  151.2060 C   0  0  0  0  0  0  0  0  0  0  0  0
  160.7790  207.1230  148.8810 C   0  0  0  0  0  3  0  0  0  0  0  0
  161.9670  204.9510  148.6520 C   0  0  1  0  0  3  0  0  0  0  0  0
  160.9090  209.1540  156.4060 C   0  0  0  0  0  3  0  0  0  0  0  0
  160.9140  208.9780  155.0160 C   0  0  0  0  0  0  0  0  0  0  0  0
  160.8980  208.4180  150.9170 N   0  0  0  0  0  0  0  0  0  0  0  0
  160.9670  209.8490  152.7850 N   0  0  0  0  0  0  0  0  0  0  0  0
  161.0600  211.4790  154.6280 C   0  0  0  0  0  2  0  0  0  0  0  0
  159.2280  212.7640  153.4600 N   0  0  0  0  0  0  0  0  0  0  0  0
  158.8110  212.2960  155.5680 C   0  0  0  0  0  0  0  0  0  0  0  0
  157.7530  213.0090  155.0340 C   0  0  0  0  0  3  0  0  0  0  0  0
  158.0400  213.2760  153.7410 N   0  0  0  0  0  0  0  0  0  0  0  0
  158.9210  211.7940  156.9650 C   0  0  0  0  0  1  0  0  0  0  0  0
  159.7230  212.1470  154.5480 C   0  0  0  0  0  0  0  0  0  0  0  0
  159.8470  212.8350  152.1460 C   0  0  0  0  0  2  0  0  0  0  0  0
  158.7990  213.1580  151.0980 C   0  0  0  0  0  1  0  0  0  0  0  0
  1  8  2  0  0  0  0
  2  9  2  0  0  0  0
  3 23  1  0  0  0  0
  3 11  1  0  0  0  0
  4  5  1  0  0  0  0
  6 22  1  0  0  0  0
  6 17  2  0  0  0  0
  7 11  2  0  0  0  0
  8 19  1  0  0  0  0
  9 17  1  0  0  0  0
 10  4  2  0  0  0  0
 11 12  1  0  0  0  0
 12 21  2  0  0  0  0
 12 10  1  0  0  0  0
 13 24  1  0  0  0  0
 13 21  1  0  0  0  0
 14  1  1  0  0  0  0
 14 15  1  0  0  0  0
 15 19  1  0  0  0  0
 15 18  2  0  0  0  0
 16  1  1  0  0  0  0
 17  7  1  0  0  0  0
 18  6  1  0  0  0  0
 19  2  1  1  0  0  0
 20  5  2  0  0  0  0
 21 20  1  0  0  0  0
 22  3  2  0  0  0  0
 23 13  2  0  0  0  0
 25 28  1  0  0  0  0
 25 30  1  0  0  0  0
 26 29  1  0  0  0  0
 27 26  1  0  0  0  0
 28 27  2  0  0  0  0
 30 24  1  0  0  0  0
 30 26  2  0  0  0  0
 31 25  1  0  0  0  0
 32 31  1  0  0  0  0
M  END
>  <MODEL>
2

>  <REMARK>
 VINA RESULT:      -7.5      2.519      3.356
  Name = 
  3 active torsions:
  status: ('A' for Active; 'I' for Inactive)
    1  A    between atoms: C_6  and  N_7
    2  A    between atoms: C_16  and  C_27
    3  A    between atoms: C_27  and  C_32
                            x       y       z     vdW  Elec       q    Type
                         _______ _______ _______ _____ _____    ______ ____

>  <TORSDO>
F 3

$$$$
=
 OpenBabel11062410463D

 32 37  0  0  1  0  0  0  0  0999 V2000
  161.3720  200.8680  147.0900 C   0  0  0  0  0  0  0  0  0  0  0  0
  160.4100  202.1950  150.0240 C   0  0  0  0  0  3  0  0  0  0  0  0
  161.5540  207.2350  150.4340 C   0  0  0  0  0  0  0  0  0  0  0  0
  160.8230  207.8210  155.1770 C   0  0  0  0  0  3  0  0  0  0  0  0
  161.2680  209.1010  155.0640 N   0  0  0  0  0  0  0  0  0  0  0  0
  161.0870  205.1750  149.3460 C   0  0  0  0  0  0  0  0  0  0  0  0
  160.6950  205.4080  151.6960 N   0  0  0  0  0  0  0  0  0  0  0  0
  161.5540  200.9090  148.3580 N   0  0  0  0  0  0  0  0  0  0  0  0
  160.0940  203.2680  150.7460 C   0  0  0  0  0  3  0  0  0  0  0  0
  160.7690  206.9950  154.0550 C   0  0  0  0  0  3  0  0  0  0  0  0
  161.1380  206.6920  151.6590 C   0  0  0  0  0  0  0  0  0  0  0  0
  161.1790  207.4920  152.8110 C   0  0  0  0  0  0  0  0  0  0  0  0
  162.0520  209.3220  151.4630 C   0  0  0  0  0  0  0  0  0  0  0  0
  161.0170  202.4140  146.2640 S   0  0  0  0  0  0  0  0  0  0  0  0
  161.1170  203.1540  147.8820 C   0  0  0  0  0  0  0  0  0  0  0  0
  161.4280  199.5790  146.3460 C   0  0  0  0  0  1  0  0  0  0  0  0
  160.6650  204.6210  150.5860 C   0  0  0  0  0  0  0  0  0  0  0  0
  161.0150  204.4690  148.0510 C   0  0  0  0  0  3  0  0  0  0  0  0
  161.4670  202.2050  148.9730 C   0  0  1  0  0  3  0  0  0  0  0  0
  161.6730  209.6130  153.8710 C   0  0  0  0  0  3  0  0  0  0  0  0
  161.6410  208.8230  152.7150 C   0  0  0  0  0  0  0  0  0  0  0  0
  161.5060  206.4690  149.3160 N   0  0  0  0  0  0  0  0  0  0  0  0
  161.9930  208.5190  150.3650 N   0  0  0  0  0  0  0  0  0  0  0  0
  162.5680  210.7190  151.3090 C   0  0  0  0  0  2  0  0  0  0  0  0
  160.4840  212.1360  151.1570 N   0  0  0  0  0  0  0  0  0  0  0  0
  161.5490  211.8730  149.2500 C   0  0  0  0  0  0  0  0  0  0  0  0
  160.4210  212.6500  149.0480 C   0  0  0  0  0  3  0  0  0  0  0  0
  159.7960  212.7940  150.2370 N   0  0  0  0  0  0  0  0  0  0  0  0
  162.5330  211.4620  148.2140 C   0  0  0  0  0  1  0  0  0  0  0  0
  161.5670  211.5720  150.5940 C   0  0  0  0  0  0  0  0  0  0  0  0
  160.1180  212.0960  152.5640 C   0  0  0  0  0  2  0  0  0  0  0  0
  158.7350  211.4910  152.7200 C   0  0  0  0  0  1  0  0  0  0  0  0
  1  8  2  0  0  0  0
  2  9  2  0  0  0  0
  3 11  1  0  0  0  0
  5  4  1  0  0  0  0
  6 17  2  0  0  0  0
  8 19  1  0  0  0  0
 10  4  2  0  0  0  0
 11  7  2  0  0  0  0
 11 12  1  0  0  0  0
 12 10  1  0  0  0  0
 13 21  1  0  0  0  0
 14  1  1  0  0  0  0
 14 15  1  0  0  0  0
 15 18  2  0  0  0  0
 15 19  1  0  0  0  0
 16  1  1  0  0  0  0
 17  9  1  0  0  0  0
 17  7  1  0  0  0  0
 18  6  1  0  0  0  0
 19  2  1  1  0  0  0
 20  5  2  0  0  0  0
 21 12  2  0  0  0  0
 21 20  1  0  0  0  0
 22  6  1  0  0  0  0
 22  3  2  0  0  0  0
 23  3  1  0  0  0  0
 23 13  2  0  0  0  0
 24 13  1  0  0  0  0
 25 31  1  0  0  0  0
 26 30  2  0  0  0  0
 27 26  1  0  0  0  0
 27 28  2  0  0  0  0
 28 25  1  0  0  0  0
 29 26  1  0  0  0  0
 30 25  1  0  0  0  0
 30 24  1  0  0  0  0
 31 32  1  0  0  0  0
M  END
>  <MODEL>
3

>  <REMARK>
 VINA RESULT:      -7.2      0.606      1.838
  Name = 
  3 active torsions:
  status: ('A' for Active; 'I' for Inactive)
    1  A    between atoms: C_6  and  N_7
    2  A    between atoms: C_16  and  C_27
    3  A    between atoms: C_27  and  C_32
                            x       y       z     vdW  Elec       q    Type
                         _______ _______ _______ _____ _____    ______ ____

>  <TORSDO>
F 3

$$$$
=
 OpenBabel11062410463D

 32 37  0  0  1  0  0  0  0  0999 V2000
  159.8990  211.3520  156.1820 C   0  0  0  0  0  0  0  0  0  0  0  0
  160.9300  208.1900  155.6910 C   0  0  0  0  0  3  0  0  0  0  0  0
  160.6820  206.7320  150.7230 C   0  0  0  0  0  0  0  0  0  0  0  0
  161.2610  201.9640  151.2740 C   0  0  0  0  0  3  0  0  0  0  0  0
  161.0570  201.8080  149.9390 N   0  0  0  0  0  0  0  0  0  0  0  0
  160.8300  208.2270  152.5630 C   0  0  0  0  0  0  0  0  0  0  0  0
  161.1360  205.8770  152.8970 N   0  0  0  0  0  0  0  0  0  0  0  0
  159.6620  210.1050  156.3710 N   0  0  0  0  0  0  0  0  0  0  0  0
  161.3950  207.2530  154.8680 C   0  0  0  0  0  3  0  0  0  0  0  0
  161.2240  203.2360  151.8470 C   0  0  0  0  0  3  0  0  0  0  0  0
  160.9320  205.6460  151.5740 C   0  0  0  0  0  0  0  0  0  0  0  0
  160.9740  204.3500  151.0360 C   0  0  0  0  0  0  0  0  0  0  0  0
  160.5110  205.2900  148.8380 C   0  0  0  0  0  0  0  0  0  0  0  0
  160.5660  211.8250  154.5910 S   0  0  0  0  0  0  0  0  0  0  0  0
  160.5160  210.0880  154.1970 C   0  0  0  0  0  0  0  0  0  0  0  0
  159.6530  212.3520  157.2560 C   0  0  0  0  0  1  0  0  0  0  0  0
  161.0830  207.1280  153.4290 C   0  0  0  0  0  0  0  0  0  0  0  0
  160.8420  209.6420  152.9870 C   0  0  0  0  0  3  0  0  0  0  0  0
  159.9470  209.2280  155.2690 C   0  0  1  0  0  3  0  0  0  0  0  0
  160.8110  202.8700  149.1260 C   0  0  0  0  0  3  0  0  0  0  0  0
  160.7610  204.1680  149.6510 C   0  0  0  0  0  0  0  0  0  0  0  0
  160.6500  207.9870  151.2360 N   0  0  0  0  0  0  0  0  0  0  0  0
  160.4820  206.5320  149.3940 N   0  0  0  0  0  0  0  0  0  0  0  0
  160.2610  205.1500  147.3680 C   0  0  0  0  0  2  0  0  0  0  0  0
  161.7150  203.8610  145.7560 N   0  0  0  0  0  0  0  0  0  0  0  0
  162.7440  205.5000  146.8010 C   0  0  0  0  0  0  0  0  0  0  0  0
  163.6330  204.8570  145.9590 C   0  0  0  0  0  3  0  0  0  0  0  0
  162.9690  203.8610  145.3320 N   0  0  0  0  0  0  0  0  0  0  0  0
  163.0470  206.6570  147.6870 C   0  0  0  0  0  1  0  0  0  0  0  0
  161.5380  204.8550  146.6440 C   0  0  0  0  0  0  0  0  0  0  0  0
  160.6990  202.9390  145.2720 C   0  0  0  0  0  2  0  0  0  0  0  0
  160.8080  201.6180  146.0090 C   0  0  0  0  0  1  0  0  0  0  0  0
  1  8  2  0  0  0  0
  1 16  1  0  0  0  0
  3 22  2  0  0  0  0
  3 11  1  0  0  0  0
  4 10  1  0  0  0  0
  5  4  2  0  0  0  0
  6 18  1  0  0  0  0
  6 17  2  0  0  0  0
  7 17  1  0  0  0  0
  9  2  2  0  0  0  0
 11  7  2  0  0  0  0
 12 11  1  0  0  0  0
 12 10  2  0  0  0  0
 13 23  2  0  0  0  0
 13 21  1  0  0  0  0
 14  1  1  0  0  0  0
 15 14  1  0  0  0  0
 15 19  1  0  0  0  0
 17  9  1  0  0  0  0
 18 15  2  0  0  0  0
 19  2  1  1  0  0  0
 19  8  1  0  0  0  0
 20 21  2  0  0  0  0
 20  5  1  0  0  0  0
 21 12  1  0  0  0  0
 22  6  1  0  0  0  0
 23  3  1  0  0  0  0
 24 13  1  0  0  0  0
 25 30  1  0  0  0  0
 26 29  1  0  0  0  0
 27 26  1  0  0  0  0
 28 25  1  0  0  0  0
 28 27  2  0  0  0  0
 30 26  2  0  0  0  0
 30 24  1  0  0  0  0
 31 25  1  0  0  0  0
 31 32  1  0  0  0  0
M  END
>  <MODEL>
4

>  <REMARK>
 VINA RESULT:      -7.1      3.318      8.304
  Name = 
  3 active torsions:
  status: ('A' for Active; 'I' for Inactive)
    1  A    between atoms: C_6  and  N_7
    2  A    between atoms: C_16  and  C_27
    3  A    between atoms: C_27  and  C_32
                            x       y       z     vdW  Elec       q    Type
                         _______ _______ _______ _____ _____    ______ ____

>  <TORSDO>
F 3

$$$$
=
 OpenBabel11062410463D

 32 37  0  0  1  0  0  0  0  0999 V2000
  160.9490  203.2700  150.1630 C   0  0  0  0  0  0  0  0  0  0  0  0
  162.1240  205.8930  148.4190 C   0  0  0  0  0  3  0  0  0  0  0  0
  161.0970  210.4450  150.6770 C   0  0  0  0  0  0  0  0  0  0  0  0
  162.1470  213.3990  146.9970 C   0  0  0  0  0  3  0  0  0  0  0  0
  161.7170  214.4490  147.7470 N   0  0  0  0  0  0  0  0  0  0  0  0
  161.4560  208.1000  150.5340 C   0  0  0  0  0  0  0  0  0  0  0  0
  162.0050  209.5140  148.6820 N   0  0  0  0  0  0  0  0  0  0  0  0
  160.8520  203.9810  149.1000 N   0  0  0  0  0  0  0  0  0  0  0  0
  162.5060  207.1670  148.3880 C   0  0  0  0  0  3  0  0  0  0  0  0
  162.1130  212.1050  147.5150 C   0  0  0  0  0  3  0  0  0  0  0  0
  161.5830  210.6070  149.3710 C   0  0  0  0  0  0  0  0  0  0  0  0
  161.6320  211.8940  148.8130 C   0  0  0  0  0  0  0  0  0  0  0  0
  160.7040  212.7820  150.8820 C   0  0  0  0  0  0  0  0  0  0  0  0
  161.2770  204.1320  151.6960 S   0  0  0  0  0  0  0  0  0  0  0  0
  161.2960  205.6160  150.7090 C   0  0  0  0  0  0  0  0  0  0  0  0
  160.8230  201.7880  150.1110 C   0  0  0  0  0  1  0  0  0  0  0  0
  161.9490  208.2610  149.2100 C   0  0  0  0  0  0  0  0  0  0  0  0
  161.4310  206.8160  151.2640 C   0  0  0  0  0  3  0  0  0  0  0  0
  161.0010  205.4000  149.2670 C   0  0  1  0  0  3  0  0  0  0  0  0
  161.2440  214.2760  149.0110 C   0  0  0  0  0  3  0  0  0  0  0  0
  161.1870  212.9960  149.5760 C   0  0  0  0  0  0  0  0  0  0  0  0
  161.0590  209.2040  151.2230 N   0  0  0  0  0  0  0  0  0  0  0  0
  160.6760  211.5200  151.3920 N   0  0  0  0  0  0  0  0  0  0  0  0
  160.2030  213.9140  151.7260 C   0  0  0  0  0  2  0  0  0  0  0  0
  157.6880  213.8930  151.5160 N   0  0  0  0  0  0  0  0  0  0  0  0
  158.4490  213.1310  153.4340 C   0  0  0  0  0  0  0  0  0  0  0  0
  157.0650  213.0870  153.4340 C   0  0  0  0  0  3  0  0  0  0  0  0
  156.6330  213.5570  152.2430 N   0  0  0  0  0  0  0  0  0  0  0  0
  159.3440  212.7100  154.5450 C   0  0  0  0  0  1  0  0  0  0  0  0
  158.8130  213.6350  152.2060 C   0  0  0  0  0  0  0  0  0  0  0  0
  157.6010  214.4110  150.1600 C   0  0  0  0  0  2  0  0  0  0  0  0
  157.1660  213.3090  149.2130 C   0  0  0  0  0  1  0  0  0  0  0  0
  1 14  1  0  0  0  0
  3 22  2  0  0  0  0
  3 23  1  0  0  0  0
  4 10  2  0  0  0  0
  4  5  1  0  0  0  0
  5 20  2  0  0  0  0
  6 22  1  0  0  0  0
  6 18  1  0  0  0  0
  7 17  1  0  0  0  0
  7 11  2  0  0  0  0
  8 19  1  0  0  0  0
  8  1  2  0  0  0  0
  9  2  2  0  0  0  0
  9 17  1  0  0  0  0
 10 12  1  0  0  0  0
 11  3  1  0  0  0  0
 12 11  1  0  0  0  0
 12 21  2  0  0  0  0
 13 23  2  0  0  0  0
 13 24  1  0  0  0  0
 15 18  2  0  0  0  0
 15 14  1  0  0  0  0
 16  1  1  0  0  0  0
 17  6  2  0  0  0  0
 19  2  1  6  0  0  0
 19 15  1  0  0  0  0
 20 21  1  0  0  0  0
 21 13  1  0  0  0  0
 24 30  1  0  0  0  0
 25 30  1  0  0  0  0
 25 28  1  0  0  0  0
 26 27  1  0  0  0  0
 26 29  1  0  0  0  0
 28 27  2  0  0  0  0
 30 26  2  0  0  0  0
 31 25  1  0  0  0  0
 32 31  1  0  0  0  0
M  END
>  <MODEL>
5

>  <REMARK>
 VINA RESULT:      -6.1      2.436      5.124
  Name = 
  3 active torsions:
  status: ('A' for Active; 'I' for Inactive)
    1  A    between atoms: C_6  and  N_7
    2  A    between atoms: C_16  and  C_27
    3  A    between atoms: C_27  and  C_32
                            x       y       z     vdW  Elec       q    Type
                         _______ _______ _______ _____ _____    ______ ____

>  <TORSDO>
F 3

$$$$
=
 OpenBabel11062410463D

 32 37  0  0  1  0  0  0  0  0999 V2000
  160.0550  211.2110  156.2010 C   0  0  0  0  0  0  0  0  0  0  0  0
  161.1350  208.0610  155.7400 C   0  0  0  0  0  3  0  0  0  0  0  0
  160.6840  206.4700  150.8270 C   0  0  0  0  0  0  0  0  0  0  0  0
  161.3990  201.7310  151.4700 C   0  0  0  0  0  3  0  0  0  0  0  0
  161.1360  201.5360  150.1500 N   0  0  0  0  0  0  0  0  0  0  0  0
  160.8850  208.0150  152.6210 C   0  0  0  0  0  0  0  0  0  0  0  0
  161.2610  205.6820  152.9980 N   0  0  0  0  0  0  0  0  0  0  0  0
  159.8570  209.9660  156.4330 N   0  0  0  0  0  0  0  0  0  0  0  0
  161.5820  207.1140  154.9190 C   0  0  0  0  0  3  0  0  0  0  0  0
  161.3610  203.0170  152.0110 C   0  0  0  0  0  3  0  0  0  0  0  0
  160.9990  205.4120  151.6920 C   0  0  0  0  0  0  0  0  0  0  0  0
  161.0470  204.1040  151.1860 C   0  0  0  0  0  0  0  0  0  0  0  0
  160.4580  204.9760  148.9900 C   0  0  0  0  0  0  0  0  0  0  0  0
  160.6340  211.6580  154.5690 S   0  0  0  0  0  0  0  0  0  0  0  0
  160.6070  209.9100  154.2200 C   0  0  0  0  0  0  0  0  0  0  0  0
  159.8380  212.2340  157.2610 C   0  0  0  0  0  1  0  0  0  0  0  0
  161.2040  206.9450  153.5010 C   0  0  0  0  0  0  0  0  0  0  0  0
  160.8850  209.4400  153.0080 C   0  0  0  0  0  3  0  0  0  0  0  0
  160.1090  209.0670  155.3400 C   0  0  1  0  0  3  0  0  0  0  0  0
  160.8270  202.5710  149.3230 C   0  0  0  0  0  3  0  0  0  0  0  0
  160.7720  203.8800  149.8180 C   0  0  0  0  0  0  0  0  0  0  0  0
  160.6480  207.7370  151.3110 N   0  0  0  0  0  0  0  0  0  0  0  0
  160.4260  206.2310  149.5150 N   0  0  0  0  0  0  0  0  0  0  0  0
  160.1410  204.7910  147.5380 C   0  0  0  0  0  2  0  0  0  0  0  0
  162.1410  205.9630  146.5400 N   0  0  0  0  0  0  0  0  0  0  0  0
  161.9420  203.8500  145.9630 C   0  0  0  0  0  0  0  0  0  0  0  0
  163.0580  204.3940  145.3510 C   0  0  0  0  0  3  0  0  0  0  0  0
  163.1510  205.6880  145.7290 N   0  0  0  0  0  0  0  0  0  0  0  0
  161.4560  202.4500  145.8280 C   0  0  0  0  0  1  0  0  0  0  0  0
  161.3900  204.8620  146.7150 C   0  0  0  0  0  0  0  0  0  0  0  0
  161.9390  207.2610  147.1650 C   0  0  0  0  0  2  0  0  0  0  0  0
  163.0060  207.4980  148.2170 C   0  0  0  0  0  1  0  0  0  0  0  0
  1  8  2  0  0  0  0
  1 16  1  0  0  0  0
  3 22  2  0  0  0  0
  3 11  1  0  0  0  0
  4 10  1  0  0  0  0
  5  4  2  0  0  0  0
  6 18  1  0  0  0  0
  6 17  2  0  0  0  0
  7 17  1  0  0  0  0
  9  2  2  0  0  0  0
 11  7  2  0  0  0  0
 12 11  1  0  0  0  0
 12 10  2  0  0  0  0
 13 23  2  0  0  0  0
 13 21  1  0  0  0  0
 14  1  1  0  0  0  0
 15 14  1  0  0  0  0
 15 19  1  0  0  0  0
 17  9  1  0  0  0  0
 18 15  2  0  0  0  0
 19  2  1  1  0  0  0
 19  8  1  0  0  0  0
 20 21  2  0  0  0  0
 20  5  1  0  0  0  0
 21 12  1  0  0  0  0
 22  6  1  0  0  0  0
 23  3  1  0  0  0  0
 24 13  1  0  0  0  0
 25 30  1  0  0  0  0
 25 31  1  0  0  0  0
 26 30  2  0  0  0  0
 27 28  2  0  0  0  0
 27 26  1  0  0  0  0
 28 25  1  0  0  0  0
 29 26  1  0  0  0  0
 30 24  1  0  0  0  0
 31 32  1  0  0  0  0
M  END
>  <MODEL>
6

>  <REMARK>
 VINA RESULT:      -5.9      3.296      8.076
  Name = 
  3 active torsions:
  status: ('A' for Active; 'I' for Inactive)
    1  A    between atoms: C_6  and  N_7
    2  A    between atoms: C_16  and  C_27
    3  A    between atoms: C_27  and  C_32
                            x       y       z     vdW  Elec       q    Type
                         _______ _______ _______ _____ _____    ______ ____

>  <TORSDO>
F 3

$$$$
=
 OpenBabel11062410463D

 32 37  0  0  1  0  0  0  0  0999 V2000
  161.4460  201.5490  148.3440 C   0  0  0  0  0  0  0  0  0  0  0  0
  160.7780  202.4060  151.5250 C   0  0  0  0  0  3  0  0  0  0  0  0
  161.0410  207.5180  152.3390 C   0  0  0  0  0  0  0  0  0  0  0  0
  161.0420  207.5430  157.1740 C   0  0  0  0  0  3  0  0  0  0  0  0
  161.2210  208.8910  157.1440 N   0  0  0  0  0  0  0  0  0  0  0  0
  160.7760  205.5070  151.1030 C   0  0  0  0  0  0  0  0  0  0  0  0
  160.7580  205.4570  153.4960 N   0  0  0  0  0  0  0  0  0  0  0  0
  161.8330  201.5180  149.5660 N   0  0  0  0  0  0  0  0  0  0  0  0
  160.4010  203.3290  152.4060 C   0  0  0  0  0  3  0  0  0  0  0  0
  160.9470  206.8210  155.9840 C   0  0  0  0  0  3  0  0  0  0  0  0
  160.9470  206.8020  153.5410 C   0  0  0  0  0  0  0  0  0  0  0  0
  161.0390  207.4930  154.7590 C   0  0  0  0  0  0  0  0  0  0  0  0
  161.3200  209.5680  153.5150 C   0  0  0  0  0  0  0  0  0  0  0  0
  160.6800  203.0590  147.7670 S   0  0  0  0  0  0  0  0  0  0  0  0
  160.9200  203.6640  149.4260 C   0  0  0  0  0  0  0  0  0  0  0  0
  161.6060  200.3650  147.4560 C   0  0  0  0  0  1  0  0  0  0  0  0
  160.6810  204.7770  152.3200 C   0  0  0  0  0  0  0  0  0  0  0  0
  160.6110  204.9130  149.7610 C   0  0  0  0  0  3  0  0  0  0  0  0
  161.6190  202.7140  150.3330 C   0  0  1  0  0  3  0  0  0  0  0  0
  161.3150  209.5720  155.9710 C   0  0  0  0  0  3  0  0  0  0  0  0
  161.2290  208.8930  154.7490 C   0  0  0  0  0  0  0  0  0  0  0  0
  160.9410  206.8560  151.1600 N   0  0  0  0  0  0  0  0  0  0  0  0
  161.2210  208.8650  152.3540 N   0  0  0  0  0  0  0  0  0  0  0  0
  161.5400  211.0480  153.4480 C   0  0  0  0  0  2  0  0  0  0  0  0
  159.2380  212.0450  153.7290 N   0  0  0  0  0  0  0  0  0  0  0  0
  160.0210  212.1240  151.6750 C   0  0  0  0  0  0  0  0  0  0  0  0
  158.7560  212.6820  151.7110 C   0  0  0  0  0  3  0  0  0  0  0  0
  158.3080  212.6210  152.9840 N   0  0  0  0  0  0  0  0  0  0  0  0
  160.8890  211.9810  150.4760 C   0  0  0  0  0  1  0  0  0  0  0  0
  160.3030  211.7400  152.9670 C   0  0  0  0  0  0  0  0  0  0  0  0
  159.1100  211.8380  155.1640 C   0  0  0  0  0  2  0  0  0  0  0  0
  157.9550  210.8970  155.4480 C   0  0  0  0  0  1  0  0  0  0  0  0
  1  8  2  0  0  0  0
  2  9  2  0  0  0  0
  3 23  1  0  0  0  0
  3 11  1  0  0  0  0
  5  4  1  0  0  0  0
  6 22  1  0  0  0  0
  6 17  2  0  0  0  0
  7 11  2  0  0  0  0
  8 19  1  0  0  0  0
 10  4  2  0  0  0  0
 11 12  1  0  0  0  0
 12 10  1  0  0  0  0
 13 21  1  0  0  0  0
 14  1  1  0  0  0  0
 14 15  1  0  0  0  0
 15 18  2  0  0  0  0
 15 19  1  0  0  0  0
 16  1  1  0  0  0  0
 17  9  1  0  0  0  0
 17  7  1  0  0  0  0
 18  6  1  0  0  0  0
 19  2  1  1  0  0  0
 20  5  2  0  0  0  0
 21 12  2  0  0  0  0
 21 20  1  0  0  0  0
 22  3  2  0  0  0  0
 23 13  2  0  0  0  0
 24 13  1  0  0  0  0
 25 31  1  0  0  0  0
 26 27  1  0  0  0  0
 26 30  2  0  0  0  0
 27 28  2  0  0  0  0
 28 25  1  0  0  0  0
 29 26  1  0  0  0  0
 30 24  1  0  0  0  0
 30 25  1  0  0  0  0
 31 32  1  0  0  0  0
M  END
>  <MODEL>
7

>  <REMARK>
 VINA RESULT:      -5.8      1.846      2.983
  Name = 
  3 active torsions:
  status: ('A' for Active; 'I' for Inactive)
    1  A    between atoms: C_6  and  N_7
    2  A    between atoms: C_16  and  C_27
    3  A    between atoms: C_27  and  C_32
                            x       y       z     vdW  Elec       q    Type
                         _______ _______ _______ _____ _____    ______ ____

>  <TORSDO>
F 3

$$$$
=
 OpenBabel11062410463D

 32 37  0  0  1  0  0  0  0  0999 V2000
  161.0240  202.7550  149.9350 C   0  0  0  0  0  0  0  0  0  0  0  0
  161.8430  205.7840  148.7290 C   0  0  0  0  0  3  0  0  0  0  0  0
  160.7320  209.6360  152.0160 C   0  0  0  0  0  0  0  0  0  0  0  0
  161.2170  213.3940  149.0130 C   0  0  0  0  0  3  0  0  0  0  0  0
  160.7910  214.2150  150.0090 N   0  0  0  0  0  0  0  0  0  0  0  0
  161.2350  207.4180  151.3280 C   0  0  0  0  0  0  0  0  0  0  0  0
  161.5040  209.2390  149.7990 N   0  0  0  0  0  0  0  0  0  0  0  0
  160.7760  203.6670  149.0670 N   0  0  0  0  0  0  0  0  0  0  0  0
  162.1320  207.0640  148.9510 C   0  0  0  0  0  3  0  0  0  0  0  0
  161.3210  212.0200  149.2320 C   0  0  0  0  0  3  0  0  0  0  0  0
  161.0770  210.1170  150.7450 C   0  0  0  0  0  0  0  0  0  0  0  0
  160.9840  211.4930  150.4850 C   0  0  0  0  0  0  0  0  0  0  0  0
  160.2030  211.8310  152.7660 C   0  0  0  0  0  0  0  0  0  0  0  0
  161.4390  203.2930  151.5890 S   0  0  0  0  0  0  0  0  0  0  0  0
  161.2620  204.9500  150.9580 C   0  0  0  0  0  0  0  0  0  0  0  0
  160.9950  201.3140  149.5650 C   0  0  0  0  0  1  0  0  0  0  0  0
  161.5850  207.9020  150.0380 C   0  0  0  0  0  0  0  0  0  0  0  0
  161.3690  206.0100  151.7540 C   0  0  0  0  0  3  0  0  0  0  0  0
  160.8440  205.0250  149.5330 C   0  0  1  0  0  3  0  0  0  0  0  0
  160.4560  213.7340  151.2360 C   0  0  0  0  0  3  0  0  0  0  0  0
  160.5410  212.3620  151.5070 C   0  0  0  0  0  0  0  0  0  0  0  0
  160.8320  208.3080  152.2740 N   0  0  0  0  0  0  0  0  0  0  0  0
  160.3110  210.4910  152.9840 N   0  0  0  0  0  0  0  0  0  0  0  0
  159.7110  212.7060  153.8780 C   0  0  0  0  0  2  0  0  0  0  0  0
  158.2450  211.3500  155.4220 N   0  0  0  0  0  0  0  0  0  0  0  0
  157.1500  212.4830  153.8870 C   0  0  0  0  0  0  0  0  0  0  0  0
  156.2540  211.7700  154.6640 C   0  0  0  0  0  3  0  0  0  0  0  0
  156.9580  211.0910  155.5960 N   0  0  0  0  0  0  0  0  0  0  0  0
  156.8120  213.3700  152.7410 C   0  0  0  0  0  1  0  0  0  0  0  0
  158.3980  212.2060  154.3960 C   0  0  0  0  0  0  0  0  0  0  0  0
  159.2980  210.8100  156.2670 C   0  0  0  0  0  2  0  0  0  0  0  0
  159.4210  209.3150  156.0460 C   0  0  0  0  0  1  0  0  0  0  0  0
  1 14  1  0  0  0  0
  2  9  2  0  0  0  0
  3 22  2  0  0  0  0
  3 23  1  0  0  0  0
  4 10  2  0  0  0  0
  4  5  1  0  0  0  0
  5 20  2  0  0  0  0
  6 18  1  0  0  0  0
  6 22  1  0  0  0  0
  7 17  1  0  0  0  0
  7 11  2  0  0  0  0
  8 19  1  0  0  0  0
  8  1  2  0  0  0  0
  9 17  1  0  0  0  0
 10 12  1  0  0  0  0
 11  3  1  0  0  0  0
 12 11  1  0  0  0  0
 12 21  2  0  0  0  0
 13 23  2  0  0  0  0
 13 24  1  0  0  0  0
 15 14  1  0  0  0  0
 15 18  2  0  0  0  0
 16  1  1  0  0  0  0
 17  6  2  0  0  0  0
 19  2  1  6  0  0  0
 19 15  1  0  0  0  0
 20 21  1  0  0  0  0
 21 13  1  0  0  0  0
 24 30  1  0  0  0  0
 25 28  1  0  0  0  0
 25 31  1  0  0  0  0
 26 30  2  0  0  0  0
 26 27  1  0  0  0  0
 27 28  2  0  0  0  0
 29 26  1  0  0  0  0
 30 25  1  0  0  0  0
 32 31  1  0  0  0  0
M  END
>  <MODEL>
8

>  <REMARK>
 VINA RESULT:      -5.8      2.375      5.150
  Name = 
  3 active torsions:
  status: ('A' for Active; 'I' for Inactive)
    1  A    between atoms: C_6  and  N_7
    2  A    between atoms: C_16  and  C_27
    3  A    between atoms: C_27  and  C_32
                            x       y       z     vdW  Elec       q    Type
                         _______ _______ _______ _____ _____    ______ ____

>  <TORSDO>
F 3

$$$$
=
 OpenBabel11062410463D

 32 37  0  0  1  0  0  0  0  0999 V2000
  160.9650  202.0350  149.2290 C   0  0  0  0  0  0  0  0  0  0  0  0
  161.9700  205.0020  148.0110 C   0  0  0  0  0  3  0  0  0  0  0  0
  161.0890  208.9310  151.2760 C   0  0  0  0  0  0  0  0  0  0  0  0
  161.8090  212.6370  148.2560 C   0  0  0  0  0  3  0  0  0  0  0  0
  161.4320  213.4880  149.2480 N   0  0  0  0  0  0  0  0  0  0  0  0
  161.4560  206.6830  150.6000 C   0  0  0  0  0  0  0  0  0  0  0  0
  161.8400  208.4770  149.0630 N   0  0  0  0  0  0  0  0  0  0  0  0
  160.7750  202.9550  148.3570 N   0  0  0  0  0  0  0  0  0  0  0  0
  162.3370  206.2630  148.2280 C   0  0  0  0  0  3  0  0  0  0  0  0
  161.8290  211.2610  148.4820 C   0  0  0  0  0  3  0  0  0  0  0  0
  161.4660  209.3840  150.0040 C   0  0  0  0  0  0  0  0  0  0  0  0
  161.4570  210.7610  149.7370 C   0  0  0  0  0  0  0  0  0  0  0  0
  160.6920  211.1570  152.0150 C   0  0  0  0  0  0  0  0  0  0  0  0
  161.4080  202.5540  150.8830 S   0  0  0  0  0  0  0  0  0  0  0  0
  161.3340  204.2160  150.2430 C   0  0  0  0  0  0  0  0  0  0  0  0
  160.8490  200.5960  148.8660 C   0  0  0  0  0  1  0  0  0  0  0  0
  161.8380  207.1380  149.3090 C   0  0  0  0  0  0  0  0  0  0  0  0
  161.5030  205.2710  151.0340 C   0  0  0  0  0  3  0  0  0  0  0  0
  160.9250  204.3090  148.8160 C   0  0  1  0  0  3  0  0  0  0  0  0
  161.0650  213.0340  150.4760 C   0  0  0  0  0  3  0  0  0  0  0  0
  161.0650  211.6610  150.7530 C   0  0  0  0  0  0  0  0  0  0  0  0
  161.1060  207.6000  151.5420 N   0  0  0  0  0  0  0  0  0  0  0  0
  160.7180  209.8150  152.2390 N   0  0  0  0  0  0  0  0  0  0  0  0
  160.2520  212.0670  153.1200 C   0  0  0  0  0  2  0  0  0  0  0  0
  158.5870  211.0480  154.7210 N   0  0  0  0  0  0  0  0  0  0  0  0
  160.6930  210.6960  155.2500 C   0  0  0  0  0  0  0  0  0  0  0  0
  159.8730  210.1080  156.1970 C   0  0  0  0  0  3  0  0  0  0  0  0
  158.5910  210.3410  155.8410 N   0  0  0  0  0  0  0  0  0  0  0  0
  162.1810  210.6890  155.2450 C   0  0  0  0  0  1  0  0  0  0  0  0
  159.8520  211.2720  154.3250 C   0  0  0  0  0  0  0  0  0  0  0  0
  157.3750  211.4570  154.0290 C   0  0  0  0  0  2  0  0  0  0  0  0
  156.3110  211.8450  155.0380 C   0  0  0  0  0  1  0  0  0  0  0  0
  1 14  1  0  0  0  0
  2  9  2  0  0  0  0
  3 22  2  0  0  0  0
  3 23  1  0  0  0  0
  4 10  2  0  0  0  0
  4  5  1  0  0  0  0
  5 20  2  0  0  0  0
  6 18  1  0  0  0  0
  6 22  1  0  0  0  0
  7 17  1  0  0  0  0
  7 11  2  0  0  0  0
  8 19  1  0  0  0  0
  8  1  2  0  0  0  0
  9 17  1  0  0  0  0
 10 12  1  0  0  0  0
 11  3  1  0  0  0  0
 12 11  1  0  0  0  0
 12 21  2  0  0  0  0
 13 23  2  0  0  0  0
 13 24  1  0  0  0  0
 15 14  1  0  0  0  0
 15 18  2  0  0  0  0
 16  1  1  0  0  0  0
 17  6  2  0  0  0  0
 19  2  1  6  0  0  0
 19 15  1  0  0  0  0
 20 21  1  0  0  0  0
 21 13  1  0  0  0  0
 24 30  1  0  0  0  0
 25 28  1  0  0  0  0
 26 27  1  0  0  0  0
 28 27  2  0  0  0  0
 29 26  1  0  0  0  0
 30 25  1  0  0  0  0
 30 26  2  0  0  0  0
 31 25  1  0  0  0  0
 31 32  1  0  0  0  0
M  END
>  <MODEL>
9

>  <REMARK>
 VINA RESULT:      -5.8      2.029      4.813
  Name = 
  3 active torsions:
  status: ('A' for Active; 'I' for Inactive)
    1  A    between atoms: C_6  and  N_7
    2  A    between atoms: C_16  and  C_27
    3  A    between atoms: C_27  and  C_32
                            x       y       z     vdW  Elec       q    Type
                         _______ _______ _______ _____ _____    ______ ____

>  <TORSDO>
F 3

$$$$
