=
 OpenBabel11052422453D

 31 34  0  0  1  0  0  0  0  0999 V2000
  161.0650  207.0020  147.0880 C   0  0  0  0  0  0  0  0  0  0  0  0
  160.9250  204.8550  150.2550 C   0  0  2  0  0  3  0  0  0  0  0  0
  160.9640  203.4170  149.7450 C   0  0  0  0  0  0  0  0  0  0  0  0
  160.8310  201.7660  147.9770 C   0  0  0  0  0  3  0  0  0  0  0  0
  161.3220  205.9580  149.2770 C   0  0  0  0  0  0  0  0  0  0  0  0
  161.8490  208.0790  147.4980 C   0  0  0  0  0  3  0  0  0  0  0  0
  160.8520  203.1000  148.3850 C   0  0  0  0  0  3  0  0  0  0  0  0
  161.8210  206.3720  152.1180 C   0  0  2  0  0  3  0  0  0  0  0  0
  160.5550  206.9650  145.7980 O   0  0  0  0  0  1  0  0  0  0  0  0
  161.1290  202.6300  152.0830 N   0  0  0  0  0  2  0  0  0  0  0  0
  160.9070  200.7700  148.8970 N   0  0  0  0  0  0  0  0  0  0  0  0
  162.5680  207.2430  151.1110 C   0  0  0  0  0  2  0  0  0  0  0  0
  161.6820  204.9470  151.5890 C   0  0  1  0  0  3  0  0  0  0  0  0
  160.7930  205.9600  147.9750 C   0  0  0  0  0  3  0  0  0  0  0  0
  161.0720  200.0070  151.1090 F   0  0  0  0  0  0  0  0  0  0  0  0
  162.0550  207.0950  149.7060 C   0  0  0  0  0  0  0  0  0  0  0  0
  162.3360  208.1250  148.8040 C   0  0  0  0  0  3  0  0  0  0  0  0
  161.0750  203.9900  152.6070 C   0  0  0  0  0  2  0  0  0  0  0  0
  161.0130  202.3580  150.6790 C   0  0  0  0  0  0  0  0  0  0  0  0
  160.9980  201.0340  150.2260 C   0  0  0  0  0  0  0  0  0  0  0  0
  160.5480  207.0020  152.7110 C   0  0  0  0  0  2  0  0  0  0  0  0
  160.7690  210.0050  154.7990 O   0  0  0  0  0  0  0  0  0  0  0  0
  160.6860  209.2900  153.7630 C   0  0  0  0  0  0  0  0  0  0  0  0
  160.8030  207.8600  153.8650 N   0  0  0  0  0  0  0  0  0  0  0  0
  160.2760  207.0350  156.1050 C   0  0  0  0  0  1  0  0  0  0  0  0
  161.3610  207.2510  155.0670 C   0  0  0  0  0  2  0  0  0  0  0  0
  160.5180  209.9540  152.4300 C   0  0  0  0  0  2  0  0  0  0  0  0
  160.2670  211.4500  152.5740 C   0  0  0  0  0  2  0  0  0  0  0  0
  158.7940  211.7860  152.4050 C   0  0  2  0  0  3  0  0  0  0  0  0
  158.6610  212.9380  151.5330 N   0  0  0  0  0  1  0  0  0  0  0  0
  158.1720  212.1020  153.7530 C   0  0  0  0  0  1  0  0  0  0  0  0
  1  6  2  0  0  0  0
  1 14  1  0  0  0  0
  2  5  1  6  0  0  0
  2 13  1  0  0  0  0
  3  2  1  0  0  0  0
  3 19  1  0  0  0  0
  4  7  1  0  0  0  0
  4 11  2  0  0  0  0
  5 16  1  0  0  0  0
  6 17  1  0  0  0  0
  7  3  2  0  0  0  0
  8 21  1  6  0  0  0
  9  1  1  0  0  0  0
 10 18  1  0  0  0  0
 11 20  1  0  0  0  0
 12  8  1  0  0  0  0
 13  8  1  0  0  0  0
 13 18  1  1  0  0  0
 14  5  2  0  0  0  0
 16 12  1  0  0  0  0
 17 16  2  0  0  0  0
 19 10  1  0  0  0  0
 20 19  2  0  0  0  0
 20 15  1  0  0  0  0
 21 24  1  0  0  0  0
 23 24  1  0  0  0  0
 23 22  2  0  0  0  0
 24 26  1  0  0  0  0
 26 25  1  0  0  0  0
 27 28  1  0  0  0  0
 27 23  1  0  0  0  0
 29 28  1  0  0  0  0
 29 31  1  1  0  0  0
 30 29  1  0  0  0  0
M  END
>  <MODEL>
1

>  <REMARK>
 VINA RESULT:      -7.5      0.000      0.000
  Name = 
  6 active torsions:
  status: ('A' for Active; 'I' for Inactive)
    1  A    between atoms: C_1  and  C_24
    2  A    between atoms: C_6  and  C_19
    3  A    between atoms: C_6  and  C_24
    4  A    between atoms: C_9  and  N_22
    5  A    between atoms: C_15  and  C_23
    6  A    between atoms: N_22  and  C_23
                            x       y       z     vdW  Elec       q    Type
                         _______ _______ _______ _____ _____    ______ ____

>  <TORSDO>
F 6

$$$$
=
 OpenBabel11052422453D

 31 34  0  0  1  0  0  0  0  0999 V2000
  161.5520  202.7970  151.6240 C   0  0  0  0  0  0  0  0  0  0  0  0
  161.5040  205.1680  148.6180 C   0  0  2  0  0  3  0  0  0  0  0  0
  161.2580  204.2580  147.4160 C   0  0  0  0  0  0  0  0  0  0  0  0
  161.1140  202.0750  146.3750 C   0  0  0  0  0  3  0  0  0  0  0  0
  161.2270  204.5910  150.0040 C   0  0  0  0  0  0  0  0  0  0  0  0
  160.9320  203.5620  152.6100 C   0  0  0  0  0  3  0  0  0  0  0  0
  161.2840  202.8610  147.5160 C   0  0  0  0  0  3  0  0  0  0  0  0
  160.8770  207.4540  149.5930 C   0  0  2  0  0  3  0  0  0  0  0  0
  162.0120  201.5220  151.9200 O   0  0  0  0  0  1  0  0  0  0  0  0
  161.0630  206.2630  145.9840 N   0  0  0  0  0  2  0  0  0  0  0  0
  160.9340  202.6610  145.1640 N   0  0  0  0  0  0  0  0  0  0  0  0
  160.2210  206.8060  150.8100 C   0  0  0  0  0  2  0  0  0  0  0  0
  160.8080  206.5180  148.3900 C   0  0  1  0  0  3  0  0  0  0  0  0
  161.7100  203.3150  150.3380 C   0  0  0  0  0  3  0  0  0  0  0  0
  160.7400  204.5540  143.7920 F   0  0  0  0  0  0  0  0  0  0  0  0
  160.6670  205.3870  151.0350 C   0  0  0  0  0  0  0  0  0  0  0  0
  160.4970  204.8530  152.3160 C   0  0  0  0  0  3  0  0  0  0  0  0
  161.3140  207.1620  147.1050 C   0  0  0  0  0  2  0  0  0  0  0  0
  161.0970  204.8370  146.1380 C   0  0  0  0  0  0  0  0  0  0  0  0
  160.9210  204.0120  145.0210 C   0  0  0  0  0  0  0  0  0  0  0  0
  162.2410  208.1160  149.8590 C   0  0  0  0  0  2  0  0  0  0  0  0
  161.7410  211.6820  150.5410 O   0  0  0  0  0  0  0  0  0  0  0  0
  161.9640  210.6230  149.8920 C   0  0  0  0  0  0  0  0  0  0  0  0
  162.1460  209.3780  150.5890 N   0  0  0  0  0  0  0  0  0  0  0  0
  161.1390  209.3900  152.8170 C   0  0  0  0  0  1  0  0  0  0  0  0
  162.4300  209.3710  152.0190 C   0  0  0  0  0  2  0  0  0  0  0  0
  162.0850  210.6940  148.4000 C   0  0  0  0  0  2  0  0  0  0  0  0
  162.7460  211.9910  147.9510 C   0  0  0  0  0  2  0  0  0  0  0  0
  161.7760  212.8710  147.1780 C   0  0  2  0  0  3  0  0  0  0  0  0
  160.5550  212.1310  146.9210 N   0  0  0  0  0  1  0  0  0  0  0  0
  162.3930  213.2940  145.8580 C   0  0  0  0  0  1  0  0  0  0  0  0
  1  9  1  0  0  0  0
  1  6  1  0  0  0  0
  2  3  1  6  0  0  0
  2  5  1  0  0  0  0
  3  7  1  0  0  0  0
  4  7  2  0  0  0  0
  5 14  1  0  0  0  0
  5 16  2  0  0  0  0
  8 21  1  1  0  0  0
  8 12  1  0  0  0  0
 10 19  1  0  0  0  0
 10 18  1  0  0  0  0
 11  4  1  0  0  0  0
 12 16  1  0  0  0  0
 13 18  1  6  0  0  0
 13  2  1  0  0  0  0
 13  8  1  0  0  0  0
 14  1  2  0  0  0  0
 15 20  1  0  0  0  0
 16 17  1  0  0  0  0
 17  6  2  0  0  0  0
 19  3  2  0  0  0  0
 20 11  2  0  0  0  0
 20 19  1  0  0  0  0
 21 24  1  0  0  0  0
 23 22  2  0  0  0  0
 23 24  1  0  0  0  0
 24 26  1  0  0  0  0
 26 25  1  0  0  0  0
 27 23  1  0  0  0  0
 28 27  1  0  0  0  0
 29 31  1  6  0  0  0
 29 28  1  0  0  0  0
 30 29  1  0  0  0  0
M  END
>  <MODEL>
2

>  <REMARK>
 VINA RESULT:      -6.8      3.531      5.019
  Name = 
  6 active torsions:
  status: ('A' for Active; 'I' for Inactive)
    1  A    between atoms: C_1  and  C_24
    2  A    between atoms: C_6  and  C_19
    3  A    between atoms: C_6  and  C_24
    4  A    between atoms: C_9  and  N_22
    5  A    between atoms: C_15  and  C_23
    6  A    between atoms: N_22  and  C_23
                            x       y       z     vdW  Elec       q    Type
                         _______ _______ _______ _____ _____    ______ ____

>  <TORSDO>
F 6

$$$$
=
 OpenBabel11052422453D

 31 34  0  0  1  0  0  0  0  0999 V2000
  160.2750  208.5020  154.7080 C   0  0  0  0  0  0  0  0  0  0  0  0
  161.0930  208.3180  150.9720 C   0  0  2  0  0  3  0  0  0  0  0  0
  161.3600  209.7650  150.5660 C   0  0  0  0  0  0  0  0  0  0  0  0
  161.3110  212.1510  150.9830 C   0  0  0  0  0  3  0  0  0  0  0  0
  161.0870  207.9960  152.4640 C   0  0  0  0  0  0  0  0  0  0  0  0
  160.8630  207.3360  155.1950 C   0  0  0  0  0  3  0  0  0  0  0  0
  161.1080  210.8430  151.4240 C   0  0  0  0  0  3  0  0  0  0  0  0
  161.9220  205.9200  150.5980 C   0  0  2  0  0  3  0  0  0  0  0  0
  159.5900  209.3470  155.5700 O   0  0  0  0  0  1  0  0  0  0  0  0
  162.0510  208.9730  148.3290 N   0  0  0  0  0  2  0  0  0  0  0  0
  161.7410  212.3840  149.7170 N   0  0  0  0  0  0  0  0  0  0  0  0
  162.2980  205.7730  152.0700 C   0  0  0  0  0  2  0  0  0  0  0  0
  162.0110  207.3830  150.1690 C   0  0  1  0  0  3  0  0  0  0  0  0
  160.3740  208.8190  153.3530 C   0  0  0  0  0  3  0  0  0  0  0  0
  162.4070  211.6490  147.5910 F   0  0  0  0  0  0  0  0  0  0  0  0
  161.6160  206.7760  152.9580 C   0  0  0  0  0  0  0  0  0  0  0  0
  161.5260  206.4760  154.3200 C   0  0  0  0  0  3  0  0  0  0  0  0
  161.7890  207.5800  148.6760 C   0  0  0  0  0  2  0  0  0  0  0  0
  161.7800  210.0420  149.2460 C   0  0  0  0  0  0  0  0  0  0  0  0
  161.9790  211.3690  148.8470 C   0  0  0  0  0  0  0  0  0  0  0  0
  160.6500  205.1650  150.1680 C   0  0  0  0  0  2  0  0  0  0  0  0
  161.6620  202.4470  147.9270 O   0  0  0  0  0  0  0  0  0  0  0  0
  161.3030  203.5970  148.3030 C   0  0  0  0  0  0  0  0  0  0  0  0
  160.9120  203.8180  149.6690 N   0  0  0  0  0  0  0  0  0  0  0  0
  161.5390  202.6230  151.7080 C   0  0  0  0  0  1  0  0  0  0  0  0
  160.5830  202.6880  150.5310 C   0  0  0  0  0  2  0  0  0  0  0  0
  161.2420  204.7080  147.2970 C   0  0  0  0  0  2  0  0  0  0  0  0
  161.5530  204.2110  145.8920 C   0  0  0  0  0  2  0  0  0  0  0  0
  160.7700  204.9850  144.8420 C   0  0  2  0  0  3  0  0  0  0  0  0
  161.6620  205.3670  143.7640 N   0  0  0  0  0  1  0  0  0  0  0  0
  160.1640  206.2320  145.4570 C   0  0  0  0  0  1  0  0  0  0  0  0
  1  6  1  0  0  0  0
  1  9  1  0  0  0  0
  2  3  1  1  0  0  0
  2  5  1  0  0  0  0
  3  7  1  0  0  0  0
  4  7  2  0  0  0  0
  5 16  2  0  0  0  0
  5 14  1  0  0  0  0
  8 21  1  1  0  0  0
  8 12  1  0  0  0  0
 10 18  1  0  0  0  0
 10 19  1  0  0  0  0
 11  4  1  0  0  0  0
 12 16  1  0  0  0  0
 13 18  1  6  0  0  0
 13  8  1  0  0  0  0
 13  2  1  0  0  0  0
 14  1  2  0  0  0  0
 15 20  1  0  0  0  0
 16 17  1  0  0  0  0
 17  6  2  0  0  0  0
 19  3  2  0  0  0  0
 20 19  1  0  0  0  0
 20 11  2  0  0  0  0
 22 23  2  0  0  0  0
 23 24  1  0  0  0  0
 24 21  1  0  0  0  0
 24 26  1  0  0  0  0
 26 25  1  0  0  0  0
 27 23  1  0  0  0  0
 28 27  1  0  0  0  0
 29 31  1  1  0  0  0
 29 28  1  0  0  0  0
 30 29  1  0  0  0  0
M  END
>  <MODEL>
3

>  <REMARK>
 VINA RESULT:      -6.8      3.331      7.836
  Name = 
  6 active torsions:
  status: ('A' for Active; 'I' for Inactive)
    1  A    between atoms: C_1  and  C_24
    2  A    between atoms: C_6  and  C_19
    3  A    between atoms: C_6  and  C_24
    4  A    between atoms: C_9  and  N_22
    5  A    between atoms: C_15  and  C_23
    6  A    between atoms: N_22  and  C_23
                            x       y       z     vdW  Elec       q    Type
                         _______ _______ _______ _____ _____    ______ ____

>  <TORSDO>
F 6

$$$$
=
 OpenBabel11052422453D

 31 34  0  0  1  0  0  0  0  0999 V2000
  161.4460  202.5340  151.4330 C   0  0  0  0  0  0  0  0  0  0  0  0
  161.4930  205.1010  148.5920 C   0  0  2  0  0  3  0  0  0  0  0  0
  161.2510  204.2800  147.3290 C   0  0  0  0  0  0  0  0  0  0  0  0
  161.0840  202.1740  146.1410 C   0  0  0  0  0  3  0  0  0  0  0  0
  161.1820  204.4380  149.9320 C   0  0  0  0  0  0  0  0  0  0  0  0
  160.8250  203.2430  152.4580 C   0  0  0  0  0  3  0  0  0  0  0  0
  161.2490  202.8790  147.3340 C   0  0  0  0  0  3  0  0  0  0  0  0
  160.8920  207.3290  149.7090 C   0  0  2  0  0  3  0  0  0  0  0  0
  161.8780  201.2330  151.6490 O   0  0  0  0  0  1  0  0  0  0  0  0
  161.1170  206.3790  146.0310 N   0  0  0  0  0  2  0  0  0  0  0  0
  160.9360  202.8440  144.9690 N   0  0  0  0  0  0  0  0  0  0  0  0
  160.2050  206.6140  150.8690 C   0  0  0  0  0  2  0  0  0  0  0  0
  160.8270  206.4780  148.4440 C   0  0  1  0  0  3  0  0  0  0  0  0
  161.6360  203.1340  150.1870 C   0  0  0  0  0  3  0  0  0  0  0  0
  160.7990  204.8270  143.7240 F   0  0  0  0  0  0  0  0  0  0  0  0
  160.6190  205.1750  151.0050 C   0  0  0  0  0  0  0  0  0  0  0  0
  160.4180  204.5600  152.2450 C   0  0  0  0  0  3  0  0  0  0  0  0
  161.3660  207.1960  147.2140 C   0  0  0  0  0  2  0  0  0  0  0  0
  161.1220  204.9460  146.0890 C   0  0  0  0  0  0  0  0  0  0  0  0
  160.9500  204.2010  144.9170 C   0  0  0  0  0  0  0  0  0  0  0  0
  162.2640  207.9450  150.0400 C   0  0  0  0  0  2  0  0  0  0  0  0
  162.1940  210.3270  152.8250 O   0  0  0  0  0  0  0  0  0  0  0  0
  162.1250  209.2280  152.2080 C   0  0  0  0  0  0  0  0  0  0  0  0
  162.1770  209.2070  150.7700 N   0  0  0  0  0  0  0  0  0  0  0  0
  162.3290  210.2250  148.5530 C   0  0  0  0  0  1  0  0  0  0  0  0
  161.9530  210.4300  150.0080 C   0  0  0  0  0  2  0  0  0  0  0  0
  161.9360  207.9630  152.9880 C   0  0  0  0  0  2  0  0  0  0  0  0
  160.7980  208.0860  153.9930 C   0  0  0  0  0  2  0  0  0  0  0  0
  161.2700  207.7870  155.4080 C   0  0  2  0  0  3  0  0  0  0  0  0
  160.2000  207.1400  156.1440 N   0  0  0  0  0  1  0  0  0  0  0  0
  161.6560  209.0750  156.1130 C   0  0  0  0  0  1  0  0  0  0  0  0
  1  9  1  0  0  0  0
  1  6  1  0  0  0  0
  2  3  1  6  0  0  0
  2  5  1  0  0  0  0
  3  7  1  0  0  0  0
  4  7  2  0  0  0  0
  5 14  1  0  0  0  0
  5 16  2  0  0  0  0
  8 21  1  1  0  0  0
  8 12  1  0  0  0  0
 10 19  1  0  0  0  0
 10 18  1  0  0  0  0
 11  4  1  0  0  0  0
 12 16  1  0  0  0  0
 13 18  1  6  0  0  0
 13  2  1  0  0  0  0
 13  8  1  0  0  0  0
 14  1  2  0  0  0  0
 15 20  1  0  0  0  0
 16 17  1  0  0  0  0
 17  6  2  0  0  0  0
 19  3  2  0  0  0  0
 20 11  2  0  0  0  0
 20 19  1  0  0  0  0
 21 24  1  0  0  0  0
 23 22  2  0  0  0  0
 23 27  1  0  0  0  0
 24 23  1  0  0  0  0
 25 26  1  0  0  0  0
 26 24  1  0  0  0  0
 27 28  1  0  0  0  0
 28 29  1  0  0  0  0
 29 31  1  1  0  0  0
 29 30  1  0  0  0  0
M  END
>  <MODEL>
4

>  <REMARK>
 VINA RESULT:      -6.7      3.204      5.020
  Name = 
  6 active torsions:
  status: ('A' for Active; 'I' for Inactive)
    1  A    between atoms: C_1  and  C_24
    2  A    between atoms: C_6  and  C_19
    3  A    between atoms: C_6  and  C_24
    4  A    between atoms: C_9  and  N_22
    5  A    between atoms: C_15  and  C_23
    6  A    between atoms: N_22  and  C_23
                            x       y       z     vdW  Elec       q    Type
                         _______ _______ _______ _____ _____    ______ ____

>  <TORSDO>
F 6

$$$$
=
 OpenBabel11052422453D

 31 34  0  0  1  0  0  0  0  0999 V2000
  160.9550  206.6990  146.6090 C   0  0  0  0  0  0  0  0  0  0  0  0
  160.9810  204.8720  149.9740 C   0  0  2  0  0  3  0  0  0  0  0  0
  161.0040  203.3910  149.6050 C   0  0  0  0  0  0  0  0  0  0  0  0
  160.8000  201.5750  148.0150 C   0  0  0  0  0  3  0  0  0  0  0  0
  161.3230  205.8750  148.8740 C   0  0  0  0  0  0  0  0  0  0  0  0
  161.7500  207.8130  146.8740 C   0  0  0  0  0  3  0  0  0  0  0  0
  160.8300  202.9430  148.2900 C   0  0  0  0  0  3  0  0  0  0  0  0
  161.9530  206.5660  151.6340 C   0  0  2  0  0  3  0  0  0  0  0  0
  160.3850  206.5360  145.3540 O   0  0  0  0  0  1  0  0  0  0  0  0
  161.2860  202.8370  151.9980 N   0  0  0  0  0  2  0  0  0  0  0  0
  160.9260  200.6740  149.0220 N   0  0  0  0  0  0  0  0  0  0  0  0
  162.6460  207.3360  150.5130 C   0  0  0  0  0  2  0  0  0  0  0  0
  161.7990  205.0960  151.2540 C   0  0  1  0  0  3  0  0  0  0  0  0
  160.7330  205.7490  147.6060 C   0  0  0  0  0  3  0  0  0  0  0  0
  161.2000  200.1320  151.2880 F   0  0  0  0  0  0  0  0  0  0  0  0
  162.0670  207.0500  149.1550 C   0  0  0  0  0  0  0  0  0  0  0  0
  162.2980  207.9880  148.1440 C   0  0  0  0  0  3  0  0  0  0  0  0
  161.2470  204.2420  152.3880 C   0  0  0  0  0  2  0  0  0  0  0  0
  161.1050  202.4290  150.6340 C   0  0  0  0  0  0  0  0  0  0  0  0
  161.0780  201.0670  150.3140 C   0  0  0  0  0  0  0  0  0  0  0  0
  160.7050  207.2480  152.2230 C   0  0  0  0  0  2  0  0  0  0  0  0
  161.8360  209.9140  154.4690 O   0  0  0  0  0  0  0  0  0  0  0  0
  161.4850  208.7660  154.0810 C   0  0  0  0  0  0  0  0  0  0  0  0
  160.9640  208.5840  152.7520 N   0  0  0  0  0  0  0  0  0  0  0  0
  161.6750  210.4080  151.2880 C   0  0  0  0  0  1  0  0  0  0  0  0
  160.5050  209.7330  151.9790 C   0  0  0  0  0  2  0  0  0  0  0  0
  161.5700  207.6140  155.0370 C   0  0  0  0  0  2  0  0  0  0  0  0
  161.7990  208.0860  156.4660 C   0  0  0  0  0  2  0  0  0  0  0  0
  160.4990  208.1250  157.2550 C   0  0  2  0  0  3  0  0  0  0  0  0
  159.5590  207.1830  156.6780 N   0  0  0  0  0  1  0  0  0  0  0  0
  159.9030  209.5200  157.2100 C   0  0  0  0  0  1  0  0  0  0  0  0
  1  6  2  0  0  0  0
  1 14  1  0  0  0  0
  2  5  1  6  0  0  0
  2 13  1  0  0  0  0
  3  2  1  0  0  0  0
  3 19  1  0  0  0  0
  4  7  1  0  0  0  0
  4 11  2  0  0  0  0
  5 16  1  0  0  0  0
  6 17  1  0  0  0  0
  7  3  2  0  0  0  0
  8 21  1  6  0  0  0
  9  1  1  0  0  0  0
 10 18  1  0  0  0  0
 11 20  1  0  0  0  0
 12  8  1  0  0  0  0
 13  8  1  0  0  0  0
 13 18  1  1  0  0  0
 14  5  2  0  0  0  0
 16 12  1  0  0  0  0
 17 16  2  0  0  0  0
 19 10  1  0  0  0  0
 20 19  2  0  0  0  0
 20 15  1  0  0  0  0
 21 24  1  0  0  0  0
 23 22  2  0  0  0  0
 23 27  1  0  0  0  0
 24 23  1  0  0  0  0
 25 26  1  0  0  0  0
 26 24  1  0  0  0  0
 27 28  1  0  0  0  0
 28 29  1  0  0  0  0
 29 31  1  6  0  0  0
 30 29  1  0  0  0  0
M  END
>  <MODEL>
5

>  <REMARK>
 VINA RESULT:      -6.2      1.410      2.694
  Name = 
  6 active torsions:
  status: ('A' for Active; 'I' for Inactive)
    1  A    between atoms: C_1  and  C_24
    2  A    between atoms: C_6  and  C_19
    3  A    between atoms: C_6  and  C_24
    4  A    between atoms: C_9  and  N_22
    5  A    between atoms: C_15  and  C_23
    6  A    between atoms: N_22  and  C_23
                            x       y       z     vdW  Elec       q    Type
                         _______ _______ _______ _____ _____    ______ ____

>  <TORSDO>
F 6

$$$$
=
 OpenBabel11052422453D

 31 34  0  0  1  0  0  0  0  0999 V2000
  162.1200  209.2520  148.8020 C   0  0  0  0  0  0  0  0  0  0  0  0
  161.5400  206.7520  151.6440 C   0  0  2  0  0  3  0  0  0  0  0  0
  161.4240  207.6160  152.8970 C   0  0  0  0  0  0  0  0  0  0  0  0
  161.6440  209.7220  154.0760 C   0  0  0  0  0  3  0  0  0  0  0  0
  161.4200  207.4530  150.2930 C   0  0  0  0  0  0  0  0  0  0  0  0
  161.4050  208.6750  147.7540 C   0  0  0  0  0  3  0  0  0  0  0  0
  161.7070  208.9880  152.8910 C   0  0  0  0  0  3  0  0  0  0  0  0
  160.5420  204.6830  150.5070 C   0  0  2  0  0  3  0  0  0  0  0  0
  162.8140  210.4370  148.6010 O   0  0  0  0  0  1  0  0  0  0  0  0
  160.8200  205.5980  154.1900 N   0  0  0  0  0  2  0  0  0  0  0  0
  161.3200  209.1060  155.2420 N   0  0  0  0  0  0  0  0  0  0  0  0
  160.0570  205.5130  149.3210 C   0  0  0  0  0  2  0  0  0  0  0  0
  160.6040  205.5410  151.7680 C   0  0  1  0  0  3  0  0  0  0  0  0
  162.1380  208.6370  150.0540 C   0  0  0  0  0  3  0  0  0  0  0  0
  160.7390  207.2020  156.4820 F   0  0  0  0  0  0  0  0  0  0  0  0
  160.7590  206.8370  149.2000 C   0  0  0  0  0  0  0  0  0  0  0  0
  160.7330  207.4700  147.9530 C   0  0  0  0  0  3  0  0  0  0  0  0
  160.9410  204.7390  153.0180 C   0  0  0  0  0  2  0  0  0  0  0  0
  161.1180  207.0000  154.1310 C   0  0  0  0  0  0  0  0  0  0  0  0
  161.0570  207.7740  155.2950 C   0  0  0  0  0  0  0  0  0  0  0  0
  161.7710  203.7990  150.2280 C   0  0  0  0  0  2  0  0  0  0  0  0
  161.4380  201.4100  147.4690 O   0  0  0  0  0  0  0  0  0  0  0  0
  161.5750  202.5130  148.0670 C   0  0  0  0  0  0  0  0  0  0  0  0
  161.4560  202.5730  149.4990 N   0  0  0  0  0  0  0  0  0  0  0  0
  159.3920  201.3010  149.8100 C   0  0  0  0  0  1  0  0  0  0  0  0
  160.8390  201.4740  150.2330 C   0  0  0  0  0  2  0  0  0  0  0  0
  161.8090  203.7550  147.2620 C   0  0  0  0  0  2  0  0  0  0  0  0
  161.3570  203.5830  145.8180 C   0  0  0  0  0  2  0  0  0  0  0  0
  161.6760  204.8140  144.9840 C   0  0  2  0  0  3  0  0  0  0  0  0
  162.7530  205.5550  145.6130 N   0  0  0  0  0  1  0  0  0  0  0  0
  160.4500  205.7030  144.8770 C   0  0  0  0  0  1  0  0  0  0  0  0
  1 14  1  0  0  0  0
  2  5  1  6  0  0  0
  2 13  1  0  0  0  0
  2  3  1  0  0  0  0
  3 19  1  0  0  0  0
  4 11  2  0  0  0  0
  6 17  1  0  0  0  0
  6  1  2  0  0  0  0
  7  3  2  0  0  0  0
  7  4  1  0  0  0  0
  8 21  1  6  0  0  0
  8 13  1  0  0  0  0
  9  1  1  0  0  0  0
 11 20  1  0  0  0  0
 12  8  1  0  0  0  0
 13 18  1  1  0  0  0
 14  5  2  0  0  0  0
 16 12  1  0  0  0  0
 16  5  1  0  0  0  0
 17 16  2  0  0  0  0
 18 10  1  0  0  0  0
 19 10  1  0  0  0  0
 19 20  2  0  0  0  0
 20 15  1  0  0  0  0
 22 23  2  0  0  0  0
 23 24  1  0  0  0  0
 24 21  1  0  0  0  0
 24 26  1  0  0  0  0
 25 26  1  0  0  0  0
 27 23  1  0  0  0  0
 28 27  1  0  0  0  0
 29 31  1  1  0  0  0
 29 30  1  0  0  0  0
 29 28  1  0  0  0  0
M  END
>  <MODEL>
6

>  <REMARK>
 VINA RESULT:      -6.2      2.907      6.955
  Name = 
  6 active torsions:
  status: ('A' for Active; 'I' for Inactive)
    1  A    between atoms: C_1  and  C_24
    2  A    between atoms: C_6  and  C_19
    3  A    between atoms: C_6  and  C_24
    4  A    between atoms: C_9  and  N_22
    5  A    between atoms: C_15  and  C_23
    6  A    between atoms: N_22  and  C_23
                            x       y       z     vdW  Elec       q    Type
                         _______ _______ _______ _____ _____    ______ ____

>  <TORSDO>
F 6

$$$$
=
 OpenBabel11052422453D

 31 34  0  0  1  0  0  0  0  0999 V2000
  161.6360  209.2720  149.1490 C   0  0  0  0  0  0  0  0  0  0  0  0
  160.9210  206.0580  151.1030 C   0  0  2  0  0  3  0  0  0  0  0  0
  161.0740  204.9410  150.0740 C   0  0  0  0  0  0  0  0  0  0  0  0
  161.3040  204.1410  147.7980 C   0  0  0  0  0  3  0  0  0  0  0  0
  161.4830  207.4300  150.7400 C   0  0  0  0  0  0  0  0  0  0  0  0
  162.3130  210.0440  150.0920 C   0  0  0  0  0  3  0  0  0  0  0  0
  161.2290  205.1990  148.7050 C   0  0  0  0  0  3  0  0  0  0  0  0
  161.4240  206.6480  153.5470 C   0  0  2  0  0  3  0  0  0  0  0  0
  161.3830  209.7840  147.8850 O   0  0  0  0  0  1  0  0  0  0  0  0
  160.7990  203.2820  151.8850 N   0  0  0  0  0  2  0  0  0  0  0  0
  161.2160  202.8600  148.2360 N   0  0  0  0  0  0  0  0  0  0  0  0
  162.3380  207.7960  153.1280 C   0  0  0  0  0  2  0  0  0  0  0  0
  161.4070  205.5630  152.4730 C   0  0  1  0  0  3  0  0  0  0  0  0
  161.2130  207.9840  149.4780 C   0  0  0  0  0  3  0  0  0  0  0  0
  160.9630  201.2720  149.9440 F   0  0  0  0  0  0  0  0  0  0  0  0
  162.1050  208.2530  151.7150 C   0  0  0  0  0  0  0  0  0  0  0  0
  162.5400  209.5360  151.3710 C   0  0  0  0  0  3  0  0  0  0  0  0
  160.6280  204.3220  152.8930 C   0  0  0  0  0  2  0  0  0  0  0  0
  160.9580  203.5980  150.4940 C   0  0  0  0  0  0  0  0  0  0  0  0
  161.0470  202.5670  149.5520 C   0  0  0  0  0  0  0  0  0  0  0  0
  160.0520  207.0720  154.1020 C   0  0  0  0  0  2  0  0  0  0  0  0
  159.8220  210.0480  156.2290 O   0  0  0  0  0  0  0  0  0  0  0  0
  159.8820  209.3450  155.1830 C   0  0  0  0  0  0  0  0  0  0  0  0
  160.1390  207.9330  155.2790 N   0  0  0  0  0  0  0  0  0  0  0  0
  161.9550  208.0780  156.9090 C   0  0  0  0  0  1  0  0  0  0  0  0
  160.6760  207.3660  156.5110 C   0  0  0  0  0  2  0  0  0  0  0  0
  159.7360  210.0100  153.8480 C   0  0  0  0  0  2  0  0  0  0  0  0
  160.5480  211.2960  153.7680 C   0  0  0  0  0  2  0  0  0  0  0  0
  159.6640  212.4950  153.4630 C   0  0  2  0  0  3  0  0  0  0  0  0
  159.2350  213.1050  154.7070 N   0  0  0  0  0  1  0  0  0  0  0  0
  158.4460  212.0580  152.6710 C   0  0  0  0  0  1  0  0  0  0  0  0
  1 14  2  0  0  0  0
  1  6  1  0  0  0  0
  2  3  1  6  0  0  0
  2 13  1  0  0  0  0
  3 19  1  0  0  0  0
  4 11  2  0  0  0  0
  4  7  1  0  0  0  0
  5  2  1  0  0  0  0
  5 16  2  0  0  0  0
  6 17  2  0  0  0  0
  7  3  2  0  0  0  0
  8 21  1  6  0  0  0
  9  1  1  0  0  0  0
 10 18  1  0  0  0  0
 11 20  1  0  0  0  0
 12  8  1  0  0  0  0
 13 18  1  1  0  0  0
 13  8  1  0  0  0  0
 14  5  1  0  0  0  0
 16 12  1  0  0  0  0
 17 16  1  0  0  0  0
 19 10  1  0  0  0  0
 20 15  1  0  0  0  0
 20 19  2  0  0  0  0
 21 24  1  0  0  0  0
 23 24  1  0  0  0  0
 23 22  2  0  0  0  0
 24 26  1  0  0  0  0
 26 25  1  0  0  0  0
 27 23  1  0  0  0  0
 28 27  1  0  0  0  0
 29 31  1  1  0  0  0
 29 28  1  0  0  0  0
 29 30  1  0  0  0  0
M  END
>  <MODEL>
7

>  <REMARK>
 VINA RESULT:      -6.1      1.623      2.050
  Name = 
  6 active torsions:
  status: ('A' for Active; 'I' for Inactive)
    1  A    between atoms: C_1  and  C_24
    2  A    between atoms: C_6  and  C_19
    3  A    between atoms: C_6  and  C_24
    4  A    between atoms: C_9  and  N_22
    5  A    between atoms: C_15  and  C_23
    6  A    between atoms: N_22  and  C_23
                            x       y       z     vdW  Elec       q    Type
                         _______ _______ _______ _____ _____    ______ ____

>  <TORSDO>
F 6

$$$$
=
 OpenBabel11052422453D

 31 34  0  0  1  0  0  0  0  0999 V2000
  160.7050  204.2740  144.9700 C   0  0  0  0  0  0  0  0  0  0  0  0
  161.1110  205.0150  148.7050 C   0  0  2  0  0  3  0  0  0  0  0  0
  160.9450  203.6580  149.3850 C   0  0  0  0  0  0  0  0  0  0  0  0
  160.3280  201.3150  149.3710 C   0  0  0  0  0  3  0  0  0  0  0  0
  161.3580  205.0200  147.1990 C   0  0  0  0  0  0  0  0  0  0  0  0
  161.6270  205.1480  144.3970 C   0  0  0  0  0  3  0  0  0  0  0  0
  160.5220  202.5170  148.6900 C   0  0  0  0  0  3  0  0  0  0  0  0
  162.4830  207.1780  148.8010 C   0  0  2  0  0  3  0  0  0  0  0  0
  159.9280  203.4550  144.1630 O   0  0  0  0  0  1  0  0  0  0  0  0
  161.5570  204.7030  151.5400 N   0  0  0  0  0  2  0  0  0  0  0  0
  160.5350  201.2490  150.7110 N   0  0  0  0  0  0  0  0  0  0  0  0
  163.0510  206.9330  147.4060 C   0  0  0  0  0  2  0  0  0  0  0  0
  162.1410  205.8530  149.4770 C   0  0  1  0  0  3  0  0  0  0  0  0
  160.5630  204.2240  146.3570 C   0  0  0  0  0  3  0  0  0  0  0  0
  161.1210  202.2230  152.7620 F   0  0  0  0  0  0  0  0  0  0  0  0
  162.2380  205.9580  146.6000 C   0  0  0  0  0  0  0  0  0  0  0  0
  162.3860  205.9890  145.2100 C   0  0  0  0  0  3  0  0  0  0  0  0
  161.7060  206.0180  150.9270 C   0  0  0  0  0  2  0  0  0  0  0  0
  161.1250  203.5630  150.7830 C   0  0  0  0  0  0  0  0  0  0  0  0
  160.9270  202.3360  151.4250 C   0  0  0  0  0  0  0  0  0  0  0  0
  161.4100  208.2790  148.8880 C   0  0  0  0  0  2  0  0  0  0  0  0
  162.3320  210.8440  151.3380 O   0  0  0  0  0  0  0  0  0  0  0  0
  161.7740  209.8230  150.8500 C   0  0  0  0  0  0  0  0  0  0  0  0
  161.9050  209.5350  149.4460 N   0  0  0  0  0  0  0  0  0  0  0  0
  161.2320  211.5290  148.2040 C   0  0  0  0  0  1  0  0  0  0  0  0
  162.3610  210.5670  148.5230 C   0  0  0  0  0  2  0  0  0  0  0  0
  160.9380  208.9530  151.7380 C   0  0  0  0  0  2  0  0  0  0  0  0
  160.2250  209.7650  152.8110 C   0  0  0  0  0  2  0  0  0  0  0  0
  160.6190  209.3110  154.2080 C   0  0  2  0  0  3  0  0  0  0  0  0
  161.7610  210.0830  154.6600 N   0  0  0  0  0  1  0  0  0  0  0  0
  160.9820  207.8370  154.1940 C   0  0  0  0  0  1  0  0  0  0  0  0
  1 14  1  0  0  0  0
  2  5  1  6  0  0  0
  2  3  1  0  0  0  0
  2 13  1  0  0  0  0
  3 19  1  0  0  0  0
  4 11  2  0  0  0  0
  6  1  2  0  0  0  0
  6 17  1  0  0  0  0
  7  4  1  0  0  0  0
  7  3  2  0  0  0  0
  8 21  1  6  0  0  0
  8 13  1  0  0  0  0
  9  1  1  0  0  0  0
 11 20  1  0  0  0  0
 12  8  1  0  0  0  0
 13 18  1  1  0  0  0
 14  5  2  0  0  0  0
 16  5  1  0  0  0  0
 16 12  1  0  0  0  0
 17 16  2  0  0  0  0
 18 10  1  0  0  0  0
 19 20  2  0  0  0  0
 19 10  1  0  0  0  0
 20 15  1  0  0  0  0
 21 24  1  0  0  0  0
 23 22  2  0  0  0  0
 23 27  1  0  0  0  0
 24 23  1  0  0  0  0
 25 26  1  0  0  0  0
 26 24  1  0  0  0  0
 27 28  1  0  0  0  0
 28 29  1  0  0  0  0
 29 31  1  6  0  0  0
 29 30  1  0  0  0  0
M  END
>  <MODEL>
8

>  <REMARK>
 VINA RESULT:      -5.9      2.228      3.704
  Name = 
  6 active torsions:
  status: ('A' for Active; 'I' for Inactive)
    1  A    between atoms: C_1  and  C_24
    2  A    between atoms: C_6  and  C_19
    3  A    between atoms: C_6  and  C_24
    4  A    between atoms: C_9  and  N_22
    5  A    between atoms: C_15  and  C_23
    6  A    between atoms: N_22  and  C_23
                            x       y       z     vdW  Elec       q    Type
                         _______ _______ _______ _____ _____    ______ ____

>  <TORSDO>
F 6

$$$$
=
 OpenBabel11052422453D

 31 34  0  0  1  0  0  0  0  0999 V2000
  161.4660  200.9930  149.0450 C   0  0  0  0  0  0  0  0  0  0  0  0
  161.3520  204.7330  148.2310 C   0  0  2  0  0  3  0  0  0  0  0  0
  161.1250  204.7900  146.7230 C   0  0  0  0  0  0  0  0  0  0  0  0
  161.0290  203.7650  144.5300 C   0  0  0  0  0  3  0  0  0  0  0  0
  161.0940  203.4010  148.9310 C   0  0  0  0  0  0  0  0  0  0  0  0
  160.8310  200.9430  150.2840 C   0  0  0  0  0  3  0  0  0  0  0  0
  161.1840  203.6500  145.9120 C   0  0  0  0  0  3  0  0  0  0  0  0
  160.6740  205.8640  150.4300 C   0  0  2  0  0  3  0  0  0  0  0  0
  161.9570  199.8300  148.4690 O   0  0  0  0  0  1  0  0  0  0  0  0
  160.8780  207.2440  146.8890 N   0  0  0  0  0  2  0  0  0  0  0  0
  160.8320  204.9840  143.9650 N   0  0  0  0  0  0  0  0  0  0  0  0
  160.0380  204.5770  150.9480 C   0  0  0  0  0  2  0  0  0  0  0  0
  160.6240  205.9060  148.9050 C   0  0  1  0  0  3  0  0  0  0  0  0
  161.6080  202.2130  148.3840 C   0  0  0  0  0  3  0  0  0  0  0  0
  160.5890  207.3120  144.1060 F   0  0  0  0  0  0  0  0  0  0  0  0
  160.5170  203.3480  150.2260 C   0  0  0  0  0  0  0  0  0  0  0  0
  160.3640  202.1180  150.8730 C   0  0  0  0  0  3  0  0  0  0  0  0
  161.1110  207.2290  148.3290 C   0  0  0  0  0  2  0  0  0  0  0  0
  160.9460  206.0470  146.1020 C   0  0  0  0  0  0  0  0  0  0  0  0
  160.7870  206.1160  144.7130 C   0  0  0  0  0  0  0  0  0  0  0  0
  162.0230  206.2330  151.0730 C   0  0  0  0  0  2  0  0  0  0  0  0
  161.6090  209.1900  153.1990 O   0  0  0  0  0  0  0  0  0  0  0  0
  161.8650  208.4960  152.1760 C   0  0  0  0  0  0  0  0  0  0  0  0
  161.8930  207.0610  152.2700 N   0  0  0  0  0  0  0  0  0  0  0  0
  160.7760  206.7570  154.4230 C   0  0  0  0  0  1  0  0  0  0  0  0
  161.9840  206.4110  153.5720 C   0  0  0  0  0  2  0  0  0  0  0  0
  162.1870  209.1890  150.8870 C   0  0  0  0  0  2  0  0  0  0  0  0
  161.6730  210.6230  150.8750 C   0  0  0  0  0  2  0  0  0  0  0  0
  162.0780  211.3490  149.6020 C   0  0  2  0  0  3  0  0  0  0  0  0
  161.2090  212.4940  149.4050 N   0  0  0  0  0  1  0  0  0  0  0  0
  161.9590  210.4180  148.4090 C   0  0  0  0  0  1  0  0  0  0  0  0
  1  6  1  0  0  0  0
  2  3  1  6  0  0  0
  2 13  1  0  0  0  0
  2  5  1  0  0  0  0
  4  7  1  0  0  0  0
  5 16  2  0  0  0  0
  6 17  2  0  0  0  0
  7  3  2  0  0  0  0
  8 12  1  0  0  0  0
  8 21  1  6  0  0  0
  9  1  1  0  0  0  0
 10 18  1  0  0  0  0
 11  4  2  0  0  0  0
 11 20  1  0  0  0  0
 13 18  1  6  0  0  0
 13  8  1  0  0  0  0
 14  5  1  0  0  0  0
 14  1  2  0  0  0  0
 15 20  1  0  0  0  0
 16 17  1  0  0  0  0
 16 12  1  0  0  0  0
 19  3  1  0  0  0  0
 19 10  1  0  0  0  0
 20 19  2  0  0  0  0
 21 24  1  0  0  0  0
 23 24  1  0  0  0  0
 23 22  2  0  0  0  0
 24 26  1  0  0  0  0
 26 25  1  0  0  0  0
 27 23  1  0  0  0  0
 28 27  1  0  0  0  0
 29 31  1  6  0  0  0
 29 28  1  0  0  0  0
 30 29  1  0  0  0  0
M  END
>  <MODEL>
9

>  <REMARK>
 VINA RESULT:      -5.7      3.343      4.859
  Name = 
  6 active torsions:
  status: ('A' for Active; 'I' for Inactive)
    1  A    between atoms: C_1  and  C_24
    2  A    between atoms: C_6  and  C_19
    3  A    between atoms: C_6  and  C_24
    4  A    between atoms: C_9  and  N_22
    5  A    between atoms: C_15  and  C_23
    6  A    between atoms: N_22  and  C_23
                            x       y       z     vdW  Elec       q    Type
                         _______ _______ _______ _____ _____    ______ ____

>  <TORSDO>
F 6

$$$$
