=
 OpenBabel11052422483D

 28 31  0  0  1  0  0  0  0  0999 V2000
  162.3640  207.3310  151.1440 C   0  0  2  0  0  3  0  0  0  0  0  0
  160.1520  207.0290  154.8310 C   0  0  0  0  0  1  0  0  0  0  0  0
  161.0400  210.8750  151.7450 C   0  0  0  0  0  0  0  0  0  0  0  0
  161.2940  208.4650  153.1940 N   0  0  0  0  0  0  0  0  0  0  0  0
  161.6660  209.6760  151.1460 C   0  0  0  0  0  3  0  0  0  0  0  0
  161.5910  205.9900  153.1150 C   0  0  0  0  0  2  0  0  0  0  0  0
  161.1010  209.7130  153.9430 C   0  0  0  0  0  2  0  0  0  0  0  0
  161.3960  207.2280  153.9830 C   0  0  2  0  0  3  0  0  0  0  0  0
  160.7360  210.8630  153.0480 C   0  0  0  0  0  3  0  0  0  0  0  0
  162.7240  206.2180  152.1300 C   0  0  0  0  0  2  0  0  0  0  0  0
  161.7830  208.5370  151.8340 C   0  0  0  0  0  0  0  0  0  0  0  0
  159.9060  212.9930  151.3990 C   0  0  0  0  0  3  0  0  0  0  0  0
  160.7720  212.7190  148.4800 C   0  0  0  0  0  3  0  0  0  0  0  0
  158.8310  213.9630  149.4190 C   0  0  0  0  0  0  0  0  0  0  0  0
  160.7390  212.0650  150.9040 C   0  0  0  0  0  0  0  0  0  0  0  0
  162.6310  211.7210  149.3880 F   0  0  0  0  0  0  0  0  0  0  0  0
  159.4240  213.3170  148.4160 C   0  0  0  0  0  3  0  0  0  0  0  0
  161.3820  212.2170  149.5640 C   0  0  0  0  0  0  0  0  0  0  0  0
  157.5820  214.4530  149.2410 F   0  0  0  0  0  0  0  0  0  0  0  0
  159.5470  214.2570  150.6940 C   0  0  0  0  0  2  0  0  0  0  0  0
  161.4990  206.8520  149.9630 C   0  0  2  0  0  3  0  0  0  0  0  0
  161.0750  205.4160  150.0870 C   0  0  0  0  0  3  0  0  0  0  0  0
  161.6320  206.3710  147.4580 N   0  0  0  0  0  0  0  0  0  0  0  0
  160.5490  204.8100  149.0260 C   0  0  0  0  0  3  0  0  0  0  0  0
  162.1250  208.6170  148.2900 C   0  0  0  0  0  1  0  0  0  0  0  0
  162.1760  207.1320  148.6030 C   0  0  1  0  0  3  0  0  0  0  0  0
  162.8940  205.2640  146.8960 S   0  0  0  0  0  1  0  0  0  0  0  0
  160.4170  205.5910  147.7500 C   0  0  0  0  0  2  0  0  0  0  0  0
  1 11  1  0  0  0  0
  1 10  1  1  0  0  0
  3  9  2  0  0  0  0
  4  7  1  0  0  0  0
  4  8  1  0  0  0  0
  5  3  1  0  0  0  0
  5 11  2  0  0  0  0
  6  8  1  0  0  0  0
  8  2  1  6  0  0  0
  9  7  1  0  0  0  0
 10  6  1  0  0  0  0
 11  4  1  0  0  0  0
 13 18  2  0  0  0  0
 14 20  1  0  0  0  0
 15 12  2  0  0  0  0
 15  3  1  0  0  0  0
 16 18  1  0  0  0  0
 17 13  1  0  0  0  0
 17 14  2  0  0  0  0
 18 15  1  0  0  0  0
 19 14  1  0  0  0  0
 20 12  1  0  0  0  0
 21 22  1  1  0  0  0
 21  1  1  0  0  0  0
 23 28  1  0  0  0  0
 23 26  1  0  0  0  0
 24 22  2  0  0  0  0
 26 25  1  6  0  0  0
 26 21  1  0  0  0  0
 27 23  1  0  0  0  0
 28 24  1  0  0  0  0
M  END
>  <MODEL>
1

>  <REMARK>
 VINA RESULT:      -7.1      0.000      0.000
  Name = 
  2 active torsions:
  status: ('A' for Active; 'I' for Inactive)
    1  A    between atoms: C_1  and  C_2
    2  A    between atoms: C_10  and  C_13
                            x       y       z     vdW  Elec       q    Type
                         _______ _______ _______ _____ _____    ______ ____

>  <TORSDO>
F 2

$$$$
=
 OpenBabel11052422483D

 28 31  0  0  1  0  0  0  0  0999 V2000
  162.0710  207.7990  151.4590 C   0  0  2  0  0  3  0  0  0  0  0  0
  160.1390  206.5910  155.1180 C   0  0  0  0  0  1  0  0  0  0  0  0
  160.2600  210.9540  152.6570 C   0  0  0  0  0  0  0  0  0  0  0  0
  160.9570  208.4230  153.6960 N   0  0  0  0  0  0  0  0  0  0  0  0
  161.0260  209.9750  151.8550 C   0  0  0  0  0  3  0  0  0  0  0  0
  161.6220  206.0680  153.2140 C   0  0  0  0  0  2  0  0  0  0  0  0
  160.6190  209.4960  154.6390 C   0  0  0  0  0  2  0  0  0  0  0  0
  161.2900  207.1120  154.2740 C   0  0  2  0  0  3  0  0  0  0  0  0
  160.0340  210.6960  153.9500 C   0  0  0  0  0  3  0  0  0  0  0  0
  162.6500  206.6200  152.2430 C   0  0  0  0  0  2  0  0  0  0  0  0
  161.3540  208.7780  152.3500 C   0  0  0  0  0  0  0  0  0  0  0  0
  158.9140  212.9710  152.7480 C   0  0  0  0  0  3  0  0  0  0  0  0
  159.3420  213.1200  149.7250 C   0  0  0  0  0  3  0  0  0  0  0  0
  157.4710  214.0470  151.0810 C   0  0  0  0  0  0  0  0  0  0  0  0
  159.7350  212.1950  152.0260 C   0  0  0  0  0  0  0  0  0  0  0  0
  161.3950  212.2190  150.2250 F   0  0  0  0  0  0  0  0  0  0  0  0
  157.9550  213.5820  149.9300 C   0  0  0  0  0  3  0  0  0  0  0  0
  160.1500  212.5630  150.6380 C   0  0  0  0  0  0  0  0  0  0  0  0
  156.1730  214.4240  151.1460 F   0  0  0  0  0  0  0  0  0  0  0  0
  158.3470  214.2650  152.2680 C   0  0  0  0  0  2  0  0  0  0  0  0
  161.2240  207.3740  150.2440 C   0  0  2  0  0  3  0  0  0  0  0  0
  160.7750  205.9410  150.3100 C   0  0  0  0  0  3  0  0  0  0  0  0
  161.4040  206.9750  147.7280 N   0  0  0  0  0  0  0  0  0  0  0  0
  160.2630  205.3800  149.2180 C   0  0  0  0  0  3  0  0  0  0  0  0
  161.9140  209.1830  148.6450 C   0  0  0  0  0  1  0  0  0  0  0  0
  161.9360  207.6880  148.9090 C   0  0  1  0  0  3  0  0  0  0  0  0
  162.6600  205.8670  147.1560 S   0  0  0  0  0  1  0  0  0  0  0  0
  160.1710  206.2060  147.9670 C   0  0  0  0  0  2  0  0  0  0  0  0
  1 10  1  1  0  0  0
  1 11  1  0  0  0  0
  3  9  2  0  0  0  0
  4  8  1  0  0  0  0
  4  7  1  0  0  0  0
  5 11  2  0  0  0  0
  5  3  1  0  0  0  0
  6  8  1  0  0  0  0
  8  2  1  6  0  0  0
  9  7  1  0  0  0  0
 10  6  1  0  0  0  0
 11  4  1  0  0  0  0
 13 17  1  0  0  0  0
 13 18  2  0  0  0  0
 14 19  1  0  0  0  0
 14 20  1  0  0  0  0
 15  3  1  0  0  0  0
 15 12  2  0  0  0  0
 16 18  1  0  0  0  0
 17 14  2  0  0  0  0
 18 15  1  0  0  0  0
 20 12  1  0  0  0  0
 21 22  1  1  0  0  0
 21  1  1  0  0  0  0
 23 28  1  0  0  0  0
 23 26  1  0  0  0  0
 24 22  2  0  0  0  0
 26 25  1  6  0  0  0
 26 21  1  0  0  0  0
 27 23  1  0  0  0  0
 28 24  1  0  0  0  0
M  END
>  <MODEL>
2

>  <REMARK>
 VINA RESULT:      -7.0      1.072      1.238
  Name = 
  2 active torsions:
  status: ('A' for Active; 'I' for Inactive)
    1  A    between atoms: C_1  and  C_2
    2  A    between atoms: C_10  and  C_13
                            x       y       z     vdW  Elec       q    Type
                         _______ _______ _______ _____ _____    ______ ____

>  <TORSDO>
F 2

$$$$
=
 OpenBabel11052422483D

 28 31  0  0  1  0  0  0  0  0999 V2000
  162.2790  208.5620  151.9290 C   0  0  2  0  0  3  0  0  0  0  0  0
  161.2640  211.0340  148.5480 C   0  0  0  0  0  1  0  0  0  0  0  0
  161.4260  206.0630  149.1540 C   0  0  0  0  0  0  0  0  0  0  0  0
  161.9500  208.8270  149.3890 N   0  0  0  0  0  0  0  0  0  0  0  0
  161.7650  206.6770  150.4570 C   0  0  0  0  0  3  0  0  0  0  0  0
  162.0510  210.8250  150.8790 C   0  0  0  0  0  2  0  0  0  0  0  0
  162.0720  208.2040  148.0650 C   0  0  0  0  0  2  0  0  0  0  0  0
  162.2060  210.2740  149.4660 C   0  0  2  0  0  3  0  0  0  0  0  0
  161.5280  206.8030  148.0440 C   0  0  0  0  0  3  0  0  0  0  0  0
  162.8460  209.9800  151.8580 C   0  0  0  0  0  2  0  0  0  0  0  0
  162.0110  207.9850  150.5640 C   0  0  0  0  0  0  0  0  0  0  0  0
  160.5380  204.0720  150.2200 C   0  0  0  0  0  3  0  0  0  0  0  0
  161.2610  202.6360  147.6200 C   0  0  0  0  0  3  0  0  0  0  0  0
  161.0480  201.6920  149.9130 C   0  0  0  0  0  0  0  0  0  0  0  0
  160.9620  204.6510  149.0870 C   0  0  0  0  0  0  0  0  0  0  0  0
  160.7050  204.6430  146.6510 F   0  0  0  0  0  0  0  0  0  0  0  0
  161.5590  201.6570  148.6830 C   0  0  0  0  0  3  0  0  0  0  0  0
  160.9470  203.9290  147.7780 C   0  0  0  0  0  0  0  0  0  0  0  0
  161.4150  200.7430  150.8070 F   0  0  0  0  0  0  0  0  0  0  0  0
  160.0020  202.6820  150.2990 C   0  0  0  0  0  2  0  0  0  0  0  0
  161.0690  208.4290  152.8750 C   0  0  2  0  0  3  0  0  0  0  0  0
  160.5770  209.7520  153.3910 C   0  0  0  0  0  3  0  0  0  0  0  0
  160.4260  207.5370  155.1800 N   0  0  0  0  0  0  0  0  0  0  0  0
  159.7150  209.7630  154.4040 C   0  0  0  0  0  3  0  0  0  0  0  0
  161.3330  206.0110  153.4980 C   0  0  0  0  0  1  0  0  0  0  0  0
  161.3440  207.4350  154.0250 C   0  0  1  0  0  3  0  0  0  0  0  0
  161.3700  208.0900  156.5710 S   0  0  0  0  0  1  0  0  0  0  0  0
  159.2860  208.4490  154.9910 C   0  0  0  0  0  2  0  0  0  0  0  0
  1 10  1  6  0  0  0
  1 21  1  0  0  0  0
  3  5  1  0  0  0  0
  4  8  1  0  0  0  0
  4 11  1  0  0  0  0
  5 11  2  0  0  0  0
  6 10  1  0  0  0  0
  7  4  1  0  0  0  0
  8  2  1  6  0  0  0
  8  6  1  0  0  0  0
  9  7  1  0  0  0  0
  9  3  2  0  0  0  0
 11  1  1  0  0  0  0
 12 20  1  0  0  0  0
 13 18  2  0  0  0  0
 13 17  1  0  0  0  0
 14 20  1  0  0  0  0
 14 19  1  0  0  0  0
 15  3  1  0  0  0  0
 15 12  2  0  0  0  0
 16 18  1  0  0  0  0
 17 14  2  0  0  0  0
 18 15  1  0  0  0  0
 21 22  1  1  0  0  0
 21 26  1  0  0  0  0
 22 24  2  0  0  0  0
 23 27  1  0  0  0  0
 24 28  1  0  0  0  0
 26 25  1  6  0  0  0
 26 23  1  0  0  0  0
 28 23  1  0  0  0  0
M  END
>  <MODEL>
3

>  <REMARK>
 VINA RESULT:      -6.9      3.645      7.719
  Name = 
  2 active torsions:
  status: ('A' for Active; 'I' for Inactive)
    1  A    between atoms: C_1  and  C_2
    2  A    between atoms: C_10  and  C_13
                            x       y       z     vdW  Elec       q    Type
                         _______ _______ _______ _____ _____    ______ ____

>  <TORSDO>
F 2

$$$$
=
 OpenBabel11052422483D

 28 31  0  0  1  0  0  0  0  0999 V2000
  162.4770  206.8220  150.9880 C   0  0  2  0  0  3  0  0  0  0  0  0
  160.1510  207.2340  154.5920 C   0  0  0  0  0  1  0  0  0  0  0  0
  161.3980  210.4980  151.0020 C   0  0  0  0  0  0  0  0  0  0  0  0
  161.4370  208.3250  152.8030 N   0  0  0  0  0  0  0  0  0  0  0  0
  161.9510  209.1820  150.6120 C   0  0  0  0  0  3  0  0  0  0  0  0
  161.5560  205.8520  153.1060 C   0  0  0  0  0  2  0  0  0  0  0  0
  161.3160  209.6820  153.3490 C   0  0  0  0  0  2  0  0  0  0  0  0
  161.4280  207.2170  153.7720 C   0  0  2  0  0  3  0  0  0  0  0  0
  161.0590  210.7050  152.2790 C   0  0  0  0  0  3  0  0  0  0  0  0
  162.7280  205.8500  152.1410 C   0  0  0  0  0  2  0  0  0  0  0  0
  161.9670  208.1560  151.4670 C   0  0  0  0  0  0  0  0  0  0  0  0
  161.8280  211.4260  148.8010 C   0  0  0  0  0  3  0  0  0  0  0  0
  160.5620  213.9890  149.8860 C   0  0  0  0  0  3  0  0  0  0  0  0
  162.2230  213.7280  148.0500 C   0  0  0  0  0  0  0  0  0  0  0  0
  161.2070  211.5640  149.9810 C   0  0  0  0  0  0  0  0  0  0  0  0
  159.2400  212.5330  151.0740 F   0  0  0  0  0  0  0  0  0  0  0  0
  161.6600  214.4530  149.0160 C   0  0  0  0  0  3  0  0  0  0  0  0
  160.3170  212.7290  150.2730 C   0  0  0  0  0  0  0  0  0  0  0  0
  163.2370  214.2630  147.3310 F   0  0  0  0  0  0  0  0  0  0  0  0
  161.6940  212.3870  147.6670 C   0  0  0  0  0  2  0  0  0  0  0  0
  161.6110  206.2290  149.8590 C   0  0  2  0  0  3  0  0  0  0  0  0
  161.3410  204.7610  150.0340 C   0  0  0  0  0  3  0  0  0  0  0  0
  161.6770  205.7000  147.3620 N   0  0  0  0  0  0  0  0  0  0  0  0
  160.8310  204.0790  149.0120 C   0  0  0  0  0  3  0  0  0  0  0  0
  161.9790  208.0040  148.1210 C   0  0  0  0  0  1  0  0  0  0  0  0
  162.1940  206.5400  148.4630 C   0  0  1  0  0  3  0  0  0  0  0  0
  163.0180  204.7110  146.7630 S   0  0  0  0  0  1  0  0  0  0  0  0
  160.5620  204.8100  147.7280 C   0  0  0  0  0  2  0  0  0  0  0  0
  1 11  1  0  0  0  0
  1 10  1  1  0  0  0
  3  9  2  0  0  0  0
  4  7  1  0  0  0  0
  4  8  1  0  0  0  0
  5  3  1  0  0  0  0
  5 11  2  0  0  0  0
  6  8  1  0  0  0  0
  8  2  1  6  0  0  0
  9  7  1  0  0  0  0
 10  6  1  0  0  0  0
 11  4  1  0  0  0  0
 12 15  2  0  0  0  0
 13 18  2  0  0  0  0
 14 17  2  0  0  0  0
 15 18  1  0  0  0  0
 15  3  1  0  0  0  0
 17 13  1  0  0  0  0
 18 16  1  0  0  0  0
 19 14  1  0  0  0  0
 20 14  1  0  0  0  0
 20 12  1  0  0  0  0
 21 22  1  1  0  0  0
 21  1  1  0  0  0  0
 23 28  1  0  0  0  0
 23 26  1  0  0  0  0
 24 22  2  0  0  0  0
 26 25  1  6  0  0  0
 26 21  1  0  0  0  0
 27 23  1  0  0  0  0
 28 24  1  0  0  0  0
M  END
>  <MODEL>
4

>  <REMARK>
 VINA RESULT:      -6.3      1.219      2.028
  Name = 
  2 active torsions:
  status: ('A' for Active; 'I' for Inactive)
    1  A    between atoms: C_1  and  C_2
    2  A    between atoms: C_10  and  C_13
                            x       y       z     vdW  Elec       q    Type
                         _______ _______ _______ _____ _____    ______ ____

>  <TORSDO>
F 2

$$$$
=
 OpenBabel11052422483D

 28 31  0  0  1  0  0  0  0  0999 V2000
  159.2470  212.5650  154.3420 C   0  0  2  0  0  3  0  0  0  0  0  0
  158.5530  213.6910  150.2400 C   0  0  0  0  0  1  0  0  0  0  0  0
  161.0700  209.8820  152.3050 C   0  0  0  0  0  0  0  0  0  0  0  0
  159.8940  212.4090  151.8540 N   0  0  0  0  0  0  0  0  0  0  0  0
  160.4660  210.6600  153.4080 C   0  0  0  0  0  3  0  0  0  0  0  0
  158.3020  214.1550  152.6520 C   0  0  0  0  0  2  0  0  0  0  0  0
  160.8540  211.9000  150.8670 C   0  0  0  0  0  2  0  0  0  0  0  0
  159.2840  213.7170  151.5710 C   0  0  2  0  0  3  0  0  0  0  0  0
  161.2030  210.4580  151.1040 C   0  0  0  0  0  3  0  0  0  0  0  0
  158.9440  214.0300  154.0220 C   0  0  0  0  0  2  0  0  0  0  0  0
  159.9100  211.8550  153.1910 C   0  0  0  0  0  0  0  0  0  0  0  0
  162.1450  207.8490  151.5290 C   0  0  0  0  0  3  0  0  0  0  0  0
  160.9030  206.5260  153.9890 C   0  0  0  0  0  3  0  0  0  0  0  0
  161.5710  205.4830  151.8290 C   0  0  0  0  0  0  0  0  0  0  0  0
  161.5030  208.4760  152.5260 C   0  0  0  0  0  0  0  0  0  0  0  0
  161.2620  208.5760  154.9620 F   0  0  0  0  0  0  0  0  0  0  0  0
  160.8210  205.5000  152.9310 C   0  0  0  0  0  3  0  0  0  0  0  0
  161.2500  207.8120  153.8410 C   0  0  0  0  0  0  0  0  0  0  0  0
  161.3880  204.4950  150.9220 F   0  0  0  0  0  0  0  0  0  0  0  0
  162.6790  206.4590  151.6200 C   0  0  0  0  0  2  0  0  0  0  0  0
  158.0350  211.7920  154.8950 C   0  0  2  0  0  3  0  0  0  0  0  0
  156.8000  211.9540  154.0550 C   0  0  0  0  0  3  0  0  0  0  0  0
  156.4220  211.7610  156.8750 N   0  0  0  0  0  0  0  0  0  0  0  0
  155.6310  211.5550  154.5520 C   0  0  0  0  0  3  0  0  0  0  0  0
  158.8210  211.4890  157.2610 C   0  0  0  0  0  1  0  0  0  0  0  0
  157.7650  212.1300  156.3790 C   0  0  1  0  0  3  0  0  0  0  0  0
  155.5590  213.2580  157.2590 S   0  0  0  0  0  1  0  0  0  0  0  0
  155.6040  210.9740  155.9360 C   0  0  0  0  0  2  0  0  0  0  0  0
  1 10  1  6  0  0  0
  1 21  1  0  0  0  0
  3 15  1  0  0  0  0
  3  5  1  0  0  0  0
  4 11  1  0  0  0  0
  6 10  1  0  0  0  0
  7  9  1  0  0  0  0
  7  4  1  0  0  0  0
  8  2  1  6  0  0  0
  8  4  1  0  0  0  0
  8  6  1  0  0  0  0
  9  3  2  0  0  0  0
 11  5  2  0  0  0  0
 11  1  1  0  0  0  0
 12 20  1  0  0  0  0
 12 15  2  0  0  0  0
 14 17  2  0  0  0  0
 15 18  1  0  0  0  0
 17 13  1  0  0  0  0
 18 13  2  0  0  0  0
 18 16  1  0  0  0  0
 19 14  1  0  0  0  0
 20 14  1  0  0  0  0
 21 22  1  6  0  0  0
 21 26  1  0  0  0  0
 22 24  2  0  0  0  0
 23 27  1  0  0  0  0
 24 28  1  0  0  0  0
 26 23  1  0  0  0  0
 26 25  1  1  0  0  0
 28 23  1  0  0  0  0
M  END
>  <MODEL>
5

>  <REMARK>
 VINA RESULT:      -6.1      4.460      8.177
  Name = 
  2 active torsions:
  status: ('A' for Active; 'I' for Inactive)
    1  A    between atoms: C_1  and  C_2
    2  A    between atoms: C_10  and  C_13
                            x       y       z     vdW  Elec       q    Type
                         _______ _______ _______ _____ _____    ______ ____

>  <TORSDO>
F 2

$$$$
=
 OpenBabel11052422483D

 28 31  0  0  1  0  0  0  0  0999 V2000
  162.2870  208.8690  151.9950 C   0  0  2  0  0  3  0  0  0  0  0  0
  161.1180  210.7090  148.2770 C   0  0  0  0  0  1  0  0  0  0  0  0
  161.8640  205.9280  149.5780 C   0  0  0  0  0  0  0  0  0  0  0  0
  162.0340  208.7430  149.4350 N   0  0  0  0  0  0  0  0  0  0  0  0
  162.0700  206.7510  150.7900 C   0  0  0  0  0  3  0  0  0  0  0  0
  161.8270  210.9210  150.6330 C   0  0  0  0  0  2  0  0  0  0  0  0
  162.2860  207.9660  148.2160 C   0  0  0  0  0  2  0  0  0  0  0  0
  162.1070  210.2070  149.3150 C   0  0  2  0  0  3  0  0  0  0  0  0
  161.9200  206.5170  148.3780 C   0  0  0  0  0  3  0  0  0  0  0  0
  162.6790  210.3250  151.7390 C   0  0  0  0  0  2  0  0  0  0  0  0
  162.1490  208.0830  150.7190 C   0  0  0  0  0  0  0  0  0  0  0  0
  161.2210  203.8060  148.5910 C   0  0  0  0  0  3  0  0  0  0  0  0
  160.9170  202.8200  151.4680 C   0  0  0  0  0  3  0  0  0  0  0  0
  159.7860  201.9940  149.4110 C   0  0  0  0  0  0  0  0  0  0  0  0
  161.5800  204.4720  149.6980 C   0  0  0  0  0  0  0  0  0  0  0  0
  162.6820  204.2340  151.8730 F   0  0  0  0  0  0  0  0  0  0  0  0
  159.8170  202.1680  150.7320 C   0  0  0  0  0  3  0  0  0  0  0  0
  161.7300  203.7860  151.0170 C   0  0  0  0  0  0  0  0  0  0  0  0
  158.7080  201.3950  148.8510 F   0  0  0  0  0  0  0  0  0  0  0  0
  160.9510  202.3400  148.5460 C   0  0  0  0  0  2  0  0  0  0  0  0
  161.0650  208.7140  152.9200 C   0  0  2  0  0  3  0  0  0  0  0  0
  160.4600  210.0290  153.3240 C   0  0  0  0  0  3  0  0  0  0  0  0
  160.4260  207.9450  155.2710 N   0  0  0  0  0  0  0  0  0  0  0  0
  159.5710  210.0470  154.3140 C   0  0  0  0  0  3  0  0  0  0  0  0
  161.4920  206.3750  153.7290 C   0  0  0  0  0  1  0  0  0  0  0  0
  161.3810  207.8300  154.1480 C   0  0  1  0  0  3  0  0  0  0  0  0
  161.2850  208.6700  156.6380 S   0  0  0  0  0  1  0  0  0  0  0  0
  159.2260  208.7510  154.9880 C   0  0  0  0  0  2  0  0  0  0  0  0
  1 10  1  6  0  0  0
  1 21  1  0  0  0  0
  3 15  1  0  0  0  0
  3  5  1  0  0  0  0
  4 11  1  0  0  0  0
  6 10  1  0  0  0  0
  7  9  1  0  0  0  0
  7  4  1  0  0  0  0
  8  2  1  6  0  0  0
  8  4  1  0  0  0  0
  8  6  1  0  0  0  0
  9  3  2  0  0  0  0
 11  5  2  0  0  0  0
 11  1  1  0  0  0  0
 12 15  2  0  0  0  0
 14 17  2  0  0  0  0
 15 18  1  0  0  0  0
 17 13  1  0  0  0  0
 18 13  2  0  0  0  0
 18 16  1  0  0  0  0
 19 14  1  0  0  0  0
 20 12  1  0  0  0  0
 20 14  1  0  0  0  0
 21 22  1  1  0  0  0
 21 26  1  0  0  0  0
 22 24  2  0  0  0  0
 23 27  1  0  0  0  0
 24 28  1  0  0  0  0
 26 25  1  6  0  0  0
 26 23  1  0  0  0  0
 28 23  1  0  0  0  0
M  END
>  <MODEL>
6

>  <REMARK>
 VINA RESULT:      -5.9      3.807      7.723
  Name = 
  2 active torsions:
  status: ('A' for Active; 'I' for Inactive)
    1  A    between atoms: C_1  and  C_2
    2  A    between atoms: C_10  and  C_13
                            x       y       z     vdW  Elec       q    Type
                         _______ _______ _______ _____ _____    ______ ____

>  <TORSDO>
F 2

$$$$
=
 OpenBabel11052422483D

 28 31  0  0  1  0  0  0  0  0999 V2000
  162.1930  203.6610  148.3210 C   0  0  2  0  0  3  0  0  0  0  0  0
  158.6980  201.4360  149.5080 C   0  0  0  0  0  1  0  0  0  0  0  0
  161.2590  205.1200  151.7380 C   0  0  0  0  0  0  0  0  0  0  0  0
  160.5810  202.8730  150.1690 N   0  0  0  0  0  0  0  0  0  0  0  0
  161.8920  204.8780  150.4230 C   0  0  0  0  0  3  0  0  0  0  0  0
  160.5290  201.8360  147.9020 C   0  0  0  0  0  2  0  0  0  0  0  0
  160.2910  202.8330  151.6070 C   0  0  0  0  0  2  0  0  0  0  0  0
  160.1890  201.6940  149.3810 C   0  0  2  0  0  3  0  0  0  0  0  0
  160.4720  204.1740  152.2620 C   0  0  0  0  0  3  0  0  0  0  0  0
  161.9760  202.2640  147.7380 C   0  0  0  0  0  2  0  0  0  0  0  0
  161.5680  203.8140  149.6830 C   0  0  0  0  0  0  0  0  0  0  0  0
  161.1940  206.4570  153.7620 C   0  0  0  0  0  3  0  0  0  0  0  0
  161.6680  208.8520  151.9230 C   0  0  0  0  0  3  0  0  0  0  0  0
  160.5650  208.7960  154.1540 C   0  0  0  0  0  0  0  0  0  0  0  0
  161.4830  206.4050  152.4540 C   0  0  0  0  0  0  0  0  0  0  0  0
  162.9200  207.3540  150.7120 F   0  0  0  0  0  0  0  0  0  0  0  0
  160.7390  209.3510  152.9550 C   0  0  0  0  0  3  0  0  0  0  0  0
  162.0460  207.5810  151.7230 C   0  0  0  0  0  0  0  0  0  0  0  0
  159.6670  209.3390  155.0080 F   0  0  0  0  0  0  0  0  0  0  0  0
  161.4090  207.6580  154.6200 C   0  0  0  0  0  2  0  0  0  0  0  0
  161.7990  204.7980  147.3590 C   0  0  2  0  0  3  0  0  0  0  0  0
  160.4420  205.3740  147.6500 C   0  0  0  0  0  3  0  0  0  0  0  0
  161.2170  205.2280  144.9100 N   0  0  0  0  0  0  0  0  0  0  0  0
  159.8800  206.1740  146.7490 C   0  0  0  0  0  3  0  0  0  0  0  0
  163.3980  204.2890  145.4910 C   0  0  0  0  0  1  0  0  0  0  0  0
  161.9330  204.3720  145.8800 C   0  0  1  0  0  3  0  0  0  0  0  0
  159.9240  204.2580  144.1870 S   0  0  0  0  0  1  0  0  0  0  0  0
  160.6260  206.4530  145.4760 C   0  0  0  0  0  2  0  0  0  0  0  0
  1 10  1  6  0  0  0
  1 11  1  0  0  0  0
  3  9  2  0  0  0  0
  3 15  1  0  0  0  0
  4  7  1  0  0  0  0
  5  3  1  0  0  0  0
  6  8  1  0  0  0  0
  7  9  1  0  0  0  0
  8  2  1  6  0  0  0
  8  4  1  0  0  0  0
 10  6  1  0  0  0  0
 11  4  1  0  0  0  0
 11  5  2  0  0  0  0
 12 20  1  0  0  0  0
 13 17  1  0  0  0  0
 14 20  1  0  0  0  0
 14 19  1  0  0  0  0
 15 12  2  0  0  0  0
 16 18  1  0  0  0  0
 17 14  2  0  0  0  0
 18 13  2  0  0  0  0
 18 15  1  0  0  0  0
 21 22  1  1  0  0  0
 21  1  1  0  0  0  0
 23 28  1  0  0  0  0
 23 26  1  0  0  0  0
 24 22  2  0  0  0  0
 26 25  1  6  0  0  0
 26 21  1  0  0  0  0
 27 23  1  0  0  0  0
 28 24  1  0  0  0  0
M  END
>  <MODEL>
7

>  <REMARK>
 VINA RESULT:      -5.9      3.634      5.722
  Name = 
  2 active torsions:
  status: ('A' for Active; 'I' for Inactive)
    1  A    between atoms: C_1  and  C_2
    2  A    between atoms: C_10  and  C_13
                            x       y       z     vdW  Elec       q    Type
                         _______ _______ _______ _____ _____    ______ ____

>  <TORSDO>
F 2

$$$$
=
 OpenBabel11052422483D

 28 31  0  0  1  0  0  0  0  0999 V2000
  161.4990  210.2100  153.3100 C   0  0  2  0  0  3  0  0  0  0  0  0
  158.6320  211.2490  156.3560 C   0  0  0  0  0  1  0  0  0  0  0  0
  159.3280  212.9130  151.6820 C   0  0  0  0  0  0  0  0  0  0  0  0
  159.7700  211.8640  154.2650 N   0  0  0  0  0  0  0  0  0  0  0  0
  160.3210  211.8430  151.9200 C   0  0  0  0  0  3  0  0  0  0  0  0
  160.6150  209.9630  155.6410 C   0  0  0  0  0  2  0  0  0  0  0  0
  159.1440  213.1860  154.1470 C   0  0  0  0  0  2  0  0  0  0  0  0
  159.9610  211.3400  155.6260 C   0  0  2  0  0  3  0  0  0  0  0  0
  158.7460  213.5030  152.7330 C   0  0  0  0  0  3  0  0  0  0  0  0
  161.8620  209.9680  154.7760 C   0  0  0  0  0  2  0  0  0  0  0  0
  160.5270  211.3480  153.1430 C   0  0  0  0  0  0  0  0  0  0  0  0
  157.6790  213.2600  149.9350 C   0  0  0  0  0  3  0  0  0  0  0  0
  160.0680  213.4940  148.0420 C   0  0  0  0  0  3  0  0  0  0  0  0
  157.7330  212.8020  147.5260 C   0  0  0  0  0  0  0  0  0  0  0  0
  158.9710  213.3110  150.2930 C   0  0  0  0  0  0  0  0  0  0  0  0
  161.0940  214.4530  149.8610 F   0  0  0  0  0  0  0  0  0  0  0  0
  159.0390  212.7830  147.2590 C   0  0  0  0  0  3  0  0  0  0  0  0
  160.0320  213.7810  149.3520 C   0  0  0  0  0  0  0  0  0  0  0  0
  156.8900  212.0910  146.7400 F   0  0  0  0  0  0  0  0  0  0  0  0
  157.1640  213.6700  148.5960 C   0  0  0  0  0  2  0  0  0  0  0  0
  161.0510  208.9360  152.5680 C   0  0  2  0  0  3  0  0  0  0  0  0
  160.7630  207.7870  153.4920 C   0  0  0  0  0  3  0  0  0  0  0  0
  161.9230  207.1490  150.9660 N   0  0  0  0  0  0  0  0  0  0  0  0
  160.6190  206.5700  152.9740 C   0  0  0  0  0  3  0  0  0  0  0  0
  161.9270  209.4960  150.2820 C   0  0  0  0  0  1  0  0  0  0  0  0
  162.0450  208.5390  151.4550 C   0  0  1  0  0  3  0  0  0  0  0  0
  163.4000  206.2850  151.4180 S   0  0  0  0  0  1  0  0  0  0  0  0
  160.7640  206.4040  151.4880 C   0  0  0  0  0  2  0  0  0  0  0  0
  1 10  1  1  0  0  0
  3  5  1  0  0  0  0
  3  9  2  0  0  0  0
  4  8  1  0  0  0  0
  5 11  2  0  0  0  0
  7  4  1  0  0  0  0
  8  6  1  0  0  0  0
  8  2  1  6  0  0  0
  9  7  1  0  0  0  0
 10  6  1  0  0  0  0
 11  1  1  0  0  0  0
 11  4  1  0  0  0  0
 12 15  2  0  0  0  0
 13 18  2  0  0  0  0
 14 20  1  0  0  0  0
 15  3  1  0  0  0  0
 17 14  2  0  0  0  0
 17 13  1  0  0  0  0
 18 16  1  0  0  0  0
 18 15  1  0  0  0  0
 19 14  1  0  0  0  0
 20 12  1  0  0  0  0
 21  1  1  0  0  0  0
 21 22  1  1  0  0  0
 23 27  1  0  0  0  0
 23 26  1  0  0  0  0
 23 28  1  0  0  0  0
 24 22  2  0  0  0  0
 26 25  1  6  0  0  0
 26 21  1  0  0  0  0
 28 24  1  0  0  0  0
M  END
>  <MODEL>
8

>  <REMARK>
 VINA RESULT:      -5.4      2.171      3.487
  Name = 
  2 active torsions:
  status: ('A' for Active; 'I' for Inactive)
    1  A    between atoms: C_1  and  C_2
    2  A    between atoms: C_10  and  C_13
                            x       y       z     vdW  Elec       q    Type
                         _______ _______ _______ _____ _____    ______ ____

>  <TORSDO>
F 2

$$$$
=
 OpenBabel11052422483D

 28 31  0  0  1  0  0  0  0  0999 V2000
  158.1860  211.0750  155.7610 C   0  0  2  0  0  3  0  0  0  0  0  0
  161.3220  213.6610  157.1940 C   0  0  0  0  0  1  0  0  0  0  0  0
  161.3710  209.6720  154.1640 C   0  0  0  0  0  0  0  0  0  0  0  0
  160.6870  211.5040  156.2000 N   0  0  0  0  0  0  0  0  0  0  0  0
  159.9610  209.9320  154.5260 C   0  0  0  0  0  3  0  0  0  0  0  0
  158.9460  212.9930  157.1840 C   0  0  0  0  0  2  0  0  0  0  0  0
  162.0460  210.9490  156.1880 C   0  0  0  0  0  2  0  0  0  0  0  0
  160.3770  212.4740  157.2610 C   0  0  2  0  0  3  0  0  0  0  0  0
  162.3420  210.1930  154.9230 C   0  0  0  0  0  3  0  0  0  0  0  0
  157.9750  211.8300  157.0750 C   0  0  0  0  0  2  0  0  0  0  0  0
  159.6410  210.8000  155.4890 C   0  0  0  0  0  0  0  0  0  0  0  0
  162.2250  209.4860  151.8990 C   0  0  0  0  0  3  0  0  0  0  0  0
  161.0340  206.6700  151.9250 C   0  0  0  0  0  3  0  0  0  0  0  0
  161.4780  208.1560  149.9780 C   0  0  0  0  0  0  0  0  0  0  0  0
  161.7000  208.8580  152.9620 C   0  0  0  0  0  0  0  0  0  0  0  0
  161.6200  206.7150  154.1460 F   0  0  0  0  0  0  0  0  0  0  0  0
  160.8020  207.1620  150.5530 C   0  0  0  0  0  3  0  0  0  0  0  0
  161.4750  207.3800  152.9730 C   0  0  0  0  0  0  0  0  0  0  0  0
  161.1580  208.5270  148.7160 F   0  0  0  0  0  0  0  0  0  0  0  0
  162.6470  208.7980  150.6450 C   0  0  0  0  0  2  0  0  0  0  0  0
  157.4710  211.7210  154.5590 C   0  0  2  0  0  3  0  0  0  0  0  0
  158.1910  212.9240  154.0210 C   0  0  0  0  0  3  0  0  0  0  0  0
  155.3410  212.9930  153.9510 N   0  0  0  0  0  0  0  0  0  0  0  0
  157.5580  213.7180  153.1610 C   0  0  0  0  0  3  0  0  0  0  0  0
  155.1820  210.7490  154.9090 C   0  0  0  0  0  1  0  0  0  0  0  0
  155.9900  212.0340  154.8700 C   0  0  1  0  0  3  0  0  0  0  0  0
  154.9600  214.4530  154.8760 S   0  0  0  0  0  1  0  0  0  0  0  0
  156.1470  213.3750  152.7790 C   0  0  0  0  0  2  0  0  0  0  0  0
  1 10  1  1  0  0  0
  3  5  1  0  0  0  0
  3  9  2  0  0  0  0
  4  8  1  0  0  0  0
  5 11  2  0  0  0  0
  6  8  1  0  0  0  0
  7  4  1  0  0  0  0
  8  2  1  6  0  0  0
  9  7  1  0  0  0  0
 10  6  1  0  0  0  0
 11  1  1  0  0  0  0
 11  4  1  0  0  0  0
 12 15  2  0  0  0  0
 13 18  2  0  0  0  0
 14 17  2  0  0  0  0
 14 20  1  0  0  0  0
 15 18  1  0  0  0  0
 15  3  1  0  0  0  0
 17 13  1  0  0  0  0
 18 16  1  0  0  0  0
 19 14  1  0  0  0  0
 20 12  1  0  0  0  0
 21 22  1  1  0  0  0
 21 26  1  0  0  0  0
 21  1  1  0  0  0  0
 23 26  1  0  0  0  0
 23 27  1  0  0  0  0
 24 22  2  0  0  0  0
 26 25  1  6  0  0  0
 28 24  1  0  0  0  0
 28 23  1  0  0  0  0
M  END
>  <MODEL>
9

>  <REMARK>
 VINA RESULT:      -5.4      4.602      7.549
  Name = 
  2 active torsions:
  status: ('A' for Active; 'I' for Inactive)
    1  A    between atoms: C_1  and  C_2
    2  A    between atoms: C_10  and  C_13
                            x       y       z     vdW  Elec       q    Type
                         _______ _______ _______ _____ _____    ______ ____

>  <TORSDO>
F 2

$$$$
