=
 OpenBabel11062409163D

 37 41  0  0  1  0  0  0  0  0999 V2000
  161.7970  209.7440  151.3880 C   0  0  0  0  0  0  0  0  0  0  0  0
  159.5050  212.5590  152.5250 C   0  0  0  0  0  2  0  0  0  0  0  0
  161.4700  208.7170  152.2170 C   0  0  0  0  0  0  0  0  0  0  0  0
  159.9920  211.1360  152.2800 C   0  0  1  0  0  3  0  0  0  0  0  0
  161.3990  211.1480  151.7230 C   0  0  0  0  0  2  0  0  0  0  0  0
  160.0170  210.3650  153.5990 C   0  0  1  0  0  3  0  0  0  0  0  0
  158.0840  211.7050  154.4400 C   0  0  0  0  0  2  0  0  0  0  0  0
  158.6130  210.2930  154.1900 C   0  0  0  0  0  2  0  0  0  0  0  0
  160.6380  208.9600  153.4730 C   0  0  2  0  0  3  0  0  0  0  0  0
  158.1040  212.5270  153.1460 C   0  0  1  0  0  3  0  0  0  0  0  0
  161.7000  207.2780  155.0050 O   0  0  0  0  0  0  0  0  0  0  0  0
  160.7210  207.8800  155.8260 C   0  0  0  0  0  0  0  0  0  0  0  0
  161.2080  207.9750  157.2600 C   0  0  0  0  0  1  0  0  0  0  0  0
  159.3580  207.2620  155.5660 C   0  0  0  0  0  1  0  0  0  0  0  0
  161.4230  208.6400  154.7590 C   0  0  2  0  0  0  0  0  0  0  0  0
  162.4190  209.5260  155.2150 O   0  0  0  0  0  0  0  0  0  0  0  0
  161.8340  210.7940  155.3160 C   0  0  0  0  0  2  0  0  0  0  0  0
  161.9260  211.2800  156.7500 C   0  0  0  0  0  2  0  0  0  0  0  0
  160.2810  213.1420  156.9440 C   0  0  0  0  0  1  0  0  0  0  0  0
  160.5550  211.6840  157.2600 C   0  0  0  0  0  2  0  0  0  0  0  0
  162.8960  206.8030  152.2820 O   0  0  0  0  0  0  0  0  0  0  0  0
  160.8860  206.5190  151.1410 N   0  0  0  0  0  2  0  0  0  0  0  0
  161.8090  207.3100  151.8930 C   0  0  0  0  0  0  0  0  0  0  0  0
  161.5010  203.7850  148.5820 C   0  0  0  0  0  2  0  0  0  0  0  0
  160.7470  204.8850  149.3080 C   0  0  1  0  0  0  0  0  0  0  0  0
  160.1130  206.0110  148.4880 C   0  0  0  0  0  2  0  0  0  0  0  0
  160.5270  207.2270  146.4790 O   0  0  0  0  0  0  0  0  0  0  0  0
  161.9400  205.4090  146.8000 N   0  0  0  0  0  2  0  0  0  0  0  0
  160.8730  206.2700  147.2180 C   0  0  0  0  0  0  0  0  0  0  0  0
  159.8950  204.4020  150.4570 C   0  0  0  0  0  2  0  0  0  0  0  0
  162.5550  204.4340  147.6970 C   0  0  0  0  0  2  0  0  0  0  0  0
  161.1900  205.1530  150.7390 C   0  0  2  0  0  3  0  0  0  0  0  0
  157.5650  213.9370  153.3730 C   0  0  0  0  0  2  0  0  0  0  0  0
  156.3930  213.9620  154.3440 C   0  0  0  0  0  1  0  0  0  0  0  0
  162.4810  209.5450  150.0720 C   0  0  0  0  0  2  0  0  0  0  0  0
  162.3580  211.5270  148.5970 C   0  0  0  0  0  1  0  0  0  0  0  0
  161.6970  210.2150  148.9590 C   0  0  0  0  0  2  0  0  0  0  0  0
  1  5  1  0  0  0  0
  1  3  2  0  0  0  0
  2 10  1  0  0  0  0
  4  5  1  1  0  0  0
  4  2  1  0  0  0  0
  4  6  1  0  0  0  0
  6  8  1  6  0  0  0
  8  7  1  0  0  0  0
  9  3  1  6  0  0  0
  9  6  1  0  0  0  0
  9 15  1  0  0  0  0
 10 33  1  1  0  0  0
 10  7  1  0  0  0  0
 11 12  1  0  0  0  0
 12 13  1  0  0  0  0
 14 12  1  0  0  0  0
 15 11  1  0  0  0  0
 15 16  1  1  0  0  0
 15 12  1  0  0  0  0
 16 17  1  0  0  0  0
 17 18  1  0  0  0  0
 18 20  1  0  0  0  0
 19 20  1  0  0  0  0
 22 23  1  0  0  0  0
 23  3  1  0  0  0  0
 23 21  2  0  0  0  0
 24 25  1  0  0  0  0
 25 26  1  6  0  0  0
 25 30  1  0  0  0  0
 25 32  1  0  0  0  0
 27 29  2  0  0  0  0
 28 29  1  0  0  0  0
 28 31  1  0  0  0  0
 29 26  1  0  0  0  0
 30 32  1  0  0  0  0
 31 24  1  0  0  0  0
 32 22  1  6  0  0  0
 33 34  1  0  0  0  0
 35  1  1  0  0  0  0
 36 37  1  0  0  0  0
 37 35  1  0  0  0  0
M  END
>  <MODEL>
1

>  <REMARK>
 VINA RESULT:      -4.5      0.000      0.000
  Name = 
  10 active torsions:
  status: ('A' for Active; 'I' for Inactive)
    1  A    between atoms: C_3  and  C_32
    2  A    between atoms: C_4  and  C_24
    3  A    between atoms: C_10  and  C_27
    4  A    between atoms: N_14  and  C_37
    5  A    between atoms: C_17  and  C_26
    6  A    between atoms: C_17  and  O_33
    7  A    between atoms: C_24  and  C_28
    8  A    between atoms: C_26  and  C_34
    9  A    between atoms: C_29  and  C_36
   10  A    between atoms: O_33  and  C_36
                            x       y       z     vdW  Elec       q    Type
                         _______ _______ _______ _____ _____    ______ ____

>  <TORSDO>
F 10

$$$$
=
 OpenBabel11062409163D

 37 41  0  0  1  0  0  0  0  0999 V2000
  161.5730  207.8870  154.3500 C   0  0  0  0  0  0  0  0  0  0  0  0
  161.1520  204.6330  152.4240 C   0  0  0  0  0  2  0  0  0  0  0  0
  161.2030  208.8360  153.4500 C   0  0  0  0  0  0  0  0  0  0  0  0
  160.9190  206.0840  152.8280 C   0  0  1  0  0  3  0  0  0  0  0  0
  161.9070  206.5000  153.8980 C   0  0  0  0  0  2  0  0  0  0  0  0
  161.1260  206.9960  151.6210 C   0  0  1  0  0  3  0  0  0  0  0  0
  160.3250  205.1880  150.0960 C   0  0  0  0  0  2  0  0  0  0  0  0
  160.1300  206.6420  150.5210 C   0  0  0  0  0  2  0  0  0  0  0  0
  161.0580  208.4960  151.9690 C   0  0  2  0  0  3  0  0  0  0  0  0
  160.1850  204.2490  151.2990 C   0  0  1  0  0  3  0  0  0  0  0  0
  162.6260  210.4320  151.6580 O   0  0  0  0  0  0  0  0  0  0  0  0
  161.6850  210.6180  150.6220 C   0  0  0  0  0  0  0  0  0  0  0  0
  162.3530  211.1980  149.3890 C   0  0  0  0  0  1  0  0  0  0  0  0
  160.4360  211.2990  151.1550 C   0  0  0  0  0  1  0  0  0  0  0  0
  162.0690  209.2620  151.0970 C   0  0  2  0  0  0  0  0  0  0  0  0
  162.9400  208.5560  150.2440 O   0  0  0  0  0  0  0  0  0  0  0  0
  162.2910  208.4120  149.0120 C   0  0  0  0  0  2  0  0  0  0  0  0
  162.8290  207.1870  148.2980 C   0  0  0  0  0  2  0  0  0  0  0  0
  162.1300  205.2750  146.8610 C   0  0  0  0  0  1  0  0  0  0  0  0
  161.8430  206.7130  147.2460 C   0  0  0  0  0  2  0  0  0  0  0  0
  161.7030  211.0870  154.0720 O   0  0  0  0  0  0  0  0  0  0  0  0
  159.4400  210.5350  154.0320 N   0  0  0  0  0  2  0  0  0  0  0  0
  160.8220  210.2070  153.8690 C   0  0  0  0  0  0  0  0  0  0  0  0
  156.9190  212.9560  155.5090 C   0  0  0  0  0  2  0  0  0  0  0  0
  157.4910  211.9510  154.5250 C   0  0  1  0  0  0  0  0  0  0  0  0
  156.6400  210.7450  154.1220 C   0  0  0  0  0  2  0  0  0  0  0  0
  154.9950  209.3050  155.0730 O   0  0  0  0  0  0  0  0  0  0  0  0
  155.5390  211.1360  156.3980 N   0  0  0  0  0  2  0  0  0  0  0  0
  155.6990  210.3360  155.2190 C   0  0  0  0  0  0  0  0  0  0  0  0
  158.2660  212.5690  153.3850 C   0  0  0  0  0  2  0  0  0  0  0  0
  156.4720  212.2020  156.7530 C   0  0  0  0  0  2  0  0  0  0  0  0
  159.0080  211.8440  154.5010 C   0  0  2  0  0  3  0  0  0  0  0  0
  160.3620  202.7890  150.8900 C   0  0  0  0  0  2  0  0  0  0  0  0
  160.7410  202.6370  149.4230 C   0  0  0  0  0  1  0  0  0  0  0  0
  161.5880  208.1250  155.8280 C   0  0  0  0  0  2  0  0  0  0  0  0
  159.2600  207.3420  156.1300 C   0  0  0  0  0  1  0  0  0  0  0  0
  160.7010  207.1180  156.5360 C   0  0  0  0  0  2  0  0  0  0  0  0
  1 35  1  0  0  0  0
  3 23  1  0  0  0  0
  3  1  2  0  0  0  0
  4  2  1  6  0  0  0
  4  5  1  0  0  0  0
  5  1  1  0  0  0  0
  6  8  1  6  0  0  0
  6  9  1  0  0  0  0
  6  4  1  0  0  0  0
  7  8  1  0  0  0  0
  7 10  1  0  0  0  0
  9  3  1  1  0  0  0
 10 33  1  6  0  0  0
 10  2  1  0  0  0  0
 12 15  1  0  0  0  0
 12 14  1  0  0  0  0
 12 11  1  0  0  0  0
 13 12  1  0  0  0  0
 15 16  1  6  0  0  0
 15 11  1  0  0  0  0
 15  9  1  0  0  0  0
 17 16  1  0  0  0  0
 18 17  1  0  0  0  0
 19 20  1  0  0  0  0
 20 18  1  0  0  0  0
 23 22  1  0  0  0  0
 23 21  2  0  0  0  0
 24 31  1  0  0  0  0
 25 30  1  6  0  0  0
 25 24  1  0  0  0  0
 26 25  1  0  0  0  0
 26 29  1  0  0  0  0
 27 29  2  0  0  0  0
 28 31  1  0  0  0  0
 29 28  1  0  0  0  0
 30 32  1  0  0  0  0
 32 22  1  6  0  0  0
 32 25  1  0  0  0  0
 34 33  1  0  0  0  0
 35 37  1  0  0  0  0
 36 37  1  0  0  0  0
M  END
>  <MODEL>
2

>  <REMARK>
 VINA RESULT:      -3.8      2.563      8.270
  Name = 
  10 active torsions:
  status: ('A' for Active; 'I' for Inactive)
    1  A    between atoms: C_3  and  C_32
    2  A    between atoms: C_4  and  C_24
    3  A    between atoms: C_10  and  C_27
    4  A    between atoms: N_14  and  C_37
    5  A    between atoms: C_17  and  C_26
    6  A    between atoms: C_17  and  O_33
    7  A    between atoms: C_24  and  C_28
    8  A    between atoms: C_26  and  C_34
    9  A    between atoms: C_29  and  C_36
   10  A    between atoms: O_33  and  C_36
                            x       y       z     vdW  Elec       q    Type
                         _______ _______ _______ _____ _____    ______ ____

>  <TORSDO>
F 10

$$$$
=
 OpenBabel11062409163D

 37 41  0  0  1  0  0  0  0  0999 V2000
  161.0990  207.5940  149.2640 C   0  0  0  0  0  0  0  0  0  0  0  0
  160.6540  203.9760  150.3580 C   0  0  0  0  0  2  0  0  0  0  0  0
  161.6540  208.1860  150.3550 C   0  0  0  0  0  0  0  0  0  0  0  0
  161.2440  205.3810  150.3020 C   0  0  1  0  0  3  0  0  0  0  0  0
  160.4250  206.2620  149.3830 C   0  0  0  0  0  2  0  0  0  0  0  0
  161.2180  206.0070  151.6950 C   0  0  1  0  0  3  0  0  0  0  0  0
  161.5040  203.7530  152.7320 C   0  0  0  0  0  2  0  0  0  0  0  0
  162.0590  205.1740  152.6580 C   0  0  0  0  0  2  0  0  0  0  0  0
  161.6590  207.4840  151.7100 C   0  0  2  0  0  3  0  0  0  0  0  0
  161.4570  203.1160  151.3380 C   0  0  1  0  0  3  0  0  0  0  0  0
  161.5440  208.7980  153.8460 O   0  0  0  0  0  0  0  0  0  0  0  0
  160.7470  207.6670  154.1270 C   0  0  0  0  0  0  0  0  0  0  0  0
  159.5860  208.0400  155.0310 C   0  0  0  0  0  1  0  0  0  0  0  0
  161.6190  206.4880  154.5220 C   0  0  0  0  0  1  0  0  0  0  0  0
  160.8300  208.2460  152.7600 C   0  0  2  0  0  0  0  0  0  0  0  0
  159.7070  208.9970  152.3620 O   0  0  0  0  0  0  0  0  0  0  0  0
  159.9960  210.3430  152.6110 C   0  0  0  0  0  2  0  0  0  0  0  0
  158.7110  211.0870  152.9170 C   0  0  0  0  0  2  0  0  0  0  0  0
  160.1770  211.8820  154.7700 C   0  0  0  0  0  1  0  0  0  0  0  0
  158.7460  211.6430  154.3290 C   0  0  0  0  0  2  0  0  0  0  0  0
  163.0900  209.8890  151.2150 O   0  0  0  0  0  0  0  0  0  0  0  0
  162.2480  210.2710  149.0770 N   0  0  0  0  0  2  0  0  0  0  0  0
  162.3690  209.4820  150.2630 C   0  0  0  0  0  0  0  0  0  0  0  0
  162.2810  213.9510  148.1520 C   0  0  0  0  0  2  0  0  0  0  0  0
  162.1390  212.4530  147.9480 C   0  0  1  0  0  0  0  0  0  0  0  0
  160.8850  211.9180  147.2540 C   0  0  0  0  0  2  0  0  0  0  0  0
  158.5690  212.4510  147.0590 O   0  0  0  0  0  0  0  0  0  0  0  0
  159.8330  214.0760  148.1400 N   0  0  0  0  0  2  0  0  0  0  0  0
  159.6960  212.8050  147.4910 C   0  0  0  0  0  0  0  0  0  0  0  0
  163.4160  211.7570  147.5410 C   0  0  0  0  0  2  0  0  0  0  0  0
  161.0390  214.4530  148.8730 C   0  0  0  0  0  2  0  0  0  0  0  0
  162.8740  211.5790  148.9540 C   0  0  2  0  0  3  0  0  0  0  0  0
  160.9190  201.6890  151.3950 C   0  0  0  0  0  2  0  0  0  0  0  0
  160.5370  201.1560  150.0210 C   0  0  0  0  0  1  0  0  0  0  0  0
  161.1960  208.1670  147.8850 C   0  0  0  0  0  2  0  0  0  0  0  0
  162.2810  206.2460  146.7650 C   0  0  0  0  0  1  0  0  0  0  0  0
  161.0190  207.0780  146.8430 C   0  0  0  0  0  2  0  0  0  0  0  0
  1  5  1  0  0  0  0
  1  3  2  0  0  0  0
  2 10  1  0  0  0  0
  4  5  1  6  0  0  0
  4  2  1  0  0  0  0
  4  6  1  0  0  0  0
  6  9  1  0  0  0  0
  6  8  1  1  0  0  0
  8  7  1  0  0  0  0
  9  3  1  6  0  0  0
  9 15  1  0  0  0  0
 10 33  1  1  0  0  0
 10  7  1  0  0  0  0
 11 12  1  0  0  0  0
 12 14  1  0  0  0  0
 12 13  1  0  0  0  0
 15 16  1  6  0  0  0
 15 11  1  0  0  0  0
 15 12  1  0  0  0  0
 16 17  1  0  0  0  0
 17 18  1  0  0  0  0
 18 20  1  0  0  0  0
 20 19  1  0  0  0  0
 22 23  1  0  0  0  0
 23  3  1  0  0  0  0
 23 21  2  0  0  0  0
 24 31  1  0  0  0  0
 25 26  1  6  0  0  0
 25 24  1  0  0  0  0
 25 32  1  0  0  0  0
 26 29  1  0  0  0  0
 27 29  2  0  0  0  0
 28 31  1  0  0  0  0
 29 28  1  0  0  0  0
 30 25  1  0  0  0  0
 30 32  1  0  0  0  0
 32 22  1  6  0  0  0
 34 33  1  0  0  0  0
 35  1  1  0  0  0  0
 36 37  1  0  0  0  0
 37 35  1  0  0  0  0
M  END
>  <MODEL>
3

>  <REMARK>
 VINA RESULT:      -3.1      2.589      6.478
  Name = 
  10 active torsions:
  status: ('A' for Active; 'I' for Inactive)
    1  A    between atoms: C_3  and  C_32
    2  A    between atoms: C_4  and  C_24
    3  A    between atoms: C_10  and  C_27
    4  A    between atoms: N_14  and  C_37
    5  A    between atoms: C_17  and  C_26
    6  A    between atoms: C_17  and  O_33
    7  A    between atoms: C_24  and  C_28
    8  A    between atoms: C_26  and  C_34
    9  A    between atoms: C_29  and  C_36
   10  A    between atoms: O_33  and  C_36
                            x       y       z     vdW  Elec       q    Type
                         _______ _______ _______ _____ _____    ______ ____

>  <TORSDO>
F 10

$$$$
=
 OpenBabel11062409163D

 37 41  0  0  1  0  0  0  0  0999 V2000
  161.4550  212.3890  142.1620 C   0  0  0  0  0  0  0  0  0  0  0  0
  162.0820  209.8960  139.3570 C   0  0  0  0  0  2  0  0  0  0  0  0
  160.1390  212.6980  142.0210 C   0  0  0  0  0  0  0  0  0  0  0  0
  161.3160  210.6750  140.4200 C   0  0  1  0  0  3  0  0  0  0  0  0
  162.2050  211.7270  141.0480 C   0  0  0  0  0  2  0  0  0  0  0  0
  160.1270  211.3890  139.7790 C   0  0  1  0  0  3  0  0  0  0  0  0
  159.9140  209.5590  138.0930 C   0  0  0  0  0  2  0  0  0  0  0  0
  159.1770  210.3690  139.1580 C   0  0  0  0  0  2  0  0  0  0  0  0
  159.3790  212.3220  140.7520 C   0  0  2  0  0  3  0  0  0  0  0  0
  161.1510  208.8780  138.6900 C   0  0  1  0  0  3  0  0  0  0  0  0
  157.7770  214.2420  140.5260 O   0  0  0  0  0  0  0  0  0  0  0  0
  157.5450  213.4960  139.3490 C   0  0  0  0  0  0  0  0  0  0  0  0
  157.2150  214.4150  138.1870 C   0  0  0  0  0  1  0  0  0  0  0  0
  156.6120  212.3310  139.6350 C   0  0  0  0  0  1  0  0  0  0  0  0
  158.8880  213.5620  139.9820 C   0  0  2  0  0  0  0  0  0  0  0  0
  159.8150  214.3960  139.3260 O   0  0  0  0  0  0  0  0  0  0  0  0
  160.6190  213.5770  138.5250 C   0  0  0  0  0  2  0  0  0  0  0  0
  162.0100  214.1740  138.4300 C   0  0  0  0  0  2  0  0  0  0  0  0
  164.4310  213.6270  138.2070 C   0  0  0  0  0  1  0  0  0  0  0  0
  163.0170  213.1070  138.0400 C   0  0  0  0  0  2  0  0  0  0  0  0
  158.1170  213.5110  142.9960 O   0  0  0  0  0  0  0  0  0  0  0  0
  160.0150  213.6720  144.3380 N   0  0  0  0  0  2  0  0  0  0  0  0
  159.3570  213.3120  143.1210 C   0  0  0  0  0  0  0  0  0  0  0  0
  159.1780  214.2410  147.9950 C   0  0  0  0  0  2  0  0  0  0  0  0
  159.3130  213.4810  146.6870 C   0  0  1  0  0  0  0  0  0  0  0  0
  160.0350  212.1320  146.6880 C   0  0  0  0  0  2  0  0  0  0  0  0
  161.8250  211.0500  147.8310 O   0  0  0  0  0  0  0  0  0  0  0  0
  161.2120  213.0980  148.7450 N   0  0  0  0  0  2  0  0  0  0  0  0
  161.0850  212.0630  147.7610 C   0  0  0  0  0  0  0  0  0  0  0  0
  158.0820  213.5240  145.8130 C   0  0  0  0  0  2  0  0  0  0  0  0
  160.5650  214.3990  148.5990 C   0  0  0  0  0  2  0  0  0  0  0  0
  159.3130  214.3350  145.4270 C   0  0  2  0  0  3  0  0  0  0  0  0
  161.8920  208.0510  137.6420 C   0  0  0  0  0  2  0  0  0  0  0  0
  162.2570  206.6630  138.1480 C   0  0  0  0  0  1  0  0  0  0  0  0
  162.2120  212.5990  143.4370 C   0  0  0  0  0  2  0  0  0  0  0  0
  163.5590  214.2330  144.7170 C   0  0  0  0  0  1  0  0  0  0  0  0
  163.0940  213.8290  143.3340 C   0  0  0  0  0  2  0  0  0  0  0  0
  1 35  1  0  0  0  0
  3  1  2  0  0  0  0
  3 23  1  0  0  0  0
  4  2  1  6  0  0  0
  4  5  1  0  0  0  0
  5  1  1  0  0  0  0
  6  8  1  1  0  0  0
  6  4  1  0  0  0  0
  6  9  1  0  0  0  0
  7 10  1  0  0  0  0
  7  8  1  0  0  0  0
  9  3  1  1  0  0  0
 10 33  1  6  0  0  0
 10  2  1  0  0  0  0
 12 14  1  0  0  0  0
 12 15  1  0  0  0  0
 12 11  1  0  0  0  0
 13 12  1  0  0  0  0
 15 16  1  6  0  0  0
 15 11  1  0  0  0  0
 15  9  1  0  0  0  0
 17 16  1  0  0  0  0
 18 17  1  0  0  0  0
 20 19  1  0  0  0  0
 20 18  1  0  0  0  0
 21 23  2  0  0  0  0
 23 22  1  0  0  0  0
 24 31  1  0  0  0  0
 25 30  1  6  0  0  0
 25 26  1  0  0  0  0
 25 24  1  0  0  0  0
 26 29  1  0  0  0  0
 29 27  2  0  0  0  0
 29 28  1  0  0  0  0
 31 28  1  0  0  0  0
 32 22  1  6  0  0  0
 32 30  1  0  0  0  0
 32 25  1  0  0  0  0
 33 34  1  0  0  0  0
 37 35  1  0  0  0  0
 37 36  1  0  0  0  0
M  END
>  <MODEL>
4

>  <REMARK>
 VINA RESULT:      -2.6      8.110     13.551
  Name = 
  10 active torsions:
  status: ('A' for Active; 'I' for Inactive)
    1  A    between atoms: C_3  and  C_32
    2  A    between atoms: C_4  and  C_24
    3  A    between atoms: C_10  and  C_27
    4  A    between atoms: N_14  and  C_37
    5  A    between atoms: C_17  and  C_26
    6  A    between atoms: C_17  and  O_33
    7  A    between atoms: C_24  and  C_28
    8  A    between atoms: C_26  and  C_34
    9  A    between atoms: C_29  and  C_36
   10  A    between atoms: O_33  and  C_36
                            x       y       z     vdW  Elec       q    Type
                         _______ _______ _______ _____ _____    ______ ____

>  <TORSDO>
F 10

$$$$
=
 OpenBabel11062409163D

 37 41  0  0  1  0  0  0  0  0999 V2000
  160.0400  212.2690  152.4520 C   0  0  0  0  0  0  0  0  0  0  0  0
  157.3830  213.1200  155.0390 C   0  0  0  0  0  2  0  0  0  0  0  0
  160.3840  210.9920  152.7630 C   0  0  0  0  0  0  0  0  0  0  0  0
  158.2420  212.2670  154.1140 C   0  0  1  0  0  3  0  0  0  0  0  0
  159.2950  213.1170  153.4360 C   0  0  0  0  0  2  0  0  0  0  0  0
  158.9610  211.1900  154.9250 C   0  0  1  0  0  3  0  0  0  0  0  0
  157.0530  211.1040  156.5340 C   0  0  0  0  0  2  0  0  0  0  0  0
  157.9420  210.2800  155.6040 C   0  0  0  0  0  2  0  0  0  0  0  0
  159.9680  210.3710  154.0940 C   0  0  2  0  0  3  0  0  0  0  0  0
  156.3630  212.2340  155.7620 C   0  0  1  0  0  3  0  0  0  0  0  0
  161.9620  208.9200  154.5670 O   0  0  0  0  0  0  0  0  0  0  0  0
  161.1550  208.7310  155.7100 C   0  0  0  0  0  0  0  0  0  0  0  0
  162.0130  208.5530  156.9490 C   0  0  0  0  0  1  0  0  0  0  0  0
  160.0700  207.7050  155.4300 C   0  0  0  0  0  1  0  0  0  0  0  0
  161.1820  210.0230  154.9760 C   0  0  2  0  0  0  0  0  0  0  0  0
  161.9130  211.0500  155.6040 O   0  0  0  0  0  0  0  0  0  0  0  0
  163.2690  210.7160  155.5060 C   0  0  0  0  0  2  0  0  0  0  0  0
  164.0500  211.4570  156.5740 C   0  0  0  0  0  2  0  0  0  0  0  0
  166.1380  212.7330  157.0470 C   0  0  0  0  0  1  0  0  0  0  0  0
  165.4300  211.8250  156.0600 C   0  0  0  0  0  2  0  0  0  0  0  0
  162.1180  210.5060  151.1950 O   0  0  0  0  0  0  0  0  0  0  0  0
  160.5790  208.7950  151.5520 N   0  0  0  0  0  2  0  0  0  0  0  0
  161.0820  210.1100  151.7950 C   0  0  0  0  0  0  0  0  0  0  0  0
  161.9680  205.4650  150.3760 C   0  0  0  0  0  2  0  0  0  0  0  0
  161.8470  206.7120  151.2350 C   0  0  1  0  0  0  0  0  0  0  0  0
  161.7780  206.5570  152.7550 C   0  0  0  0  0  2  0  0  0  0  0  0
  160.9410  205.0160  154.3710 O   0  0  0  0  0  0  0  0  0  0  0  0
  160.8480  204.2430  152.1810 N   0  0  0  0  0  2  0  0  0  0  0  0
  161.1500  205.2510  153.1540 C   0  0  0  0  0  0  0  0  0  0  0  0
  162.6930  207.8730  150.7690 C   0  0  0  0  0  2  0  0  0  0  0  0
  160.8360  204.5190  150.7470 C   0  0  0  0  0  2  0  0  0  0  0  0
  161.1830  207.9080  150.5680 C   0  0  2  0  0  3  0  0  0  0  0  0
  155.4580  213.0590  156.6730 C   0  0  0  0  0  2  0  0  0  0  0  0
  154.3160  212.2390  157.2570 C   0  0  0  0  0  1  0  0  0  0  0  0
  160.2910  212.8790  151.1080 C   0  0  0  0  0  2  0  0  0  0  0  0
  158.3370  213.9830  150.0670 C   0  0  0  0  0  1  0  0  0  0  0  0
  159.5350  214.1870  150.9690 C   0  0  0  0  0  2  0  0  0  0  0  0
  1  3  2  0  0  0  0
  1  5  1  0  0  0  0
  2 10  1  0  0  0  0
  4  5  1  1  0  0  0
  4  6  1  0  0  0  0
  4  2  1  0  0  0  0
  6  8  1  6  0  0  0
  8  7  1  0  0  0  0
  9  3  1  6  0  0  0
  9  6  1  0  0  0  0
  9 15  1  0  0  0  0
 10  7  1  0  0  0  0
 10 33  1  1  0  0  0
 11 15  1  0  0  0  0
 11 12  1  0  0  0  0
 12 13  1  0  0  0  0
 14 12  1  0  0  0  0
 15 16  1  1  0  0  0
 15 12  1  0  0  0  0
 17 16  1  0  0  0  0
 17 18  1  0  0  0  0
 20 18  1  0  0  0  0
 20 19  1  0  0  0  0
 21 23  2  0  0  0  0
 22 23  1  0  0  0  0
 23  3  1  0  0  0  0
 24 31  1  0  0  0  0
 25 24  1  6  0  0  0
 25 26  1  0  0  0  0
 26 29  1  0  0  0  0
 28 29  1  0  0  0  0
 29 27  2  0  0  0  0
 30 25  1  0  0  0  0
 31 28  1  0  0  0  0
 32 30  1  0  0  0  0
 32 25  1  0  0  0  0
 32 22  1  1  0  0  0
 33 34  1  0  0  0  0
 35  1  1  0  0  0  0
 36 37  1  0  0  0  0
 37 35  1  0  0  0  0
M  END
>  <MODEL>
5

>  <REMARK>
 VINA RESULT:      -2.4      2.275      3.627
  Name = 
  10 active torsions:
  status: ('A' for Active; 'I' for Inactive)
    1  A    between atoms: C_3  and  C_32
    2  A    between atoms: C_4  and  C_24
    3  A    between atoms: C_10  and  C_27
    4  A    between atoms: N_14  and  C_37
    5  A    between atoms: C_17  and  C_26
    6  A    between atoms: C_17  and  O_33
    7  A    between atoms: C_24  and  C_28
    8  A    between atoms: C_26  and  C_34
    9  A    between atoms: C_29  and  C_36
   10  A    between atoms: O_33  and  C_36
                            x       y       z     vdW  Elec       q    Type
                         _______ _______ _______ _____ _____    ______ ____

>  <TORSDO>
F 10

$$$$
=
 OpenBabel11062409163D

 37 41  0  0  1  0  0  0  0  0999 V2000
  162.1440  207.9460  151.2940 C   0  0  0  0  0  0  0  0  0  0  0  0
  160.9950  211.5690  151.1280 C   0  0  0  0  0  2  0  0  0  0  0  0
  161.4340  207.4380  152.3360 C   0  0  0  0  0  0  0  0  0  0  0  0
  160.9390  210.0730  151.4140 C   0  0  1  0  0  3  0  0  0  0  0  0
  162.2730  209.4260  151.1110 C   0  0  0  0  0  2  0  0  0  0  0  0
  160.6320  209.8430  152.8930 C   0  0  1  0  0  3  0  0  0  0  0  0
  159.2910  211.9480  152.9610 C   0  0  0  0  0  2  0  0  0  0  0  0
  159.2770  210.4470  153.2460 C   0  0  0  0  0  2  0  0  0  0  0  0
  160.7020  208.3590  153.3070 C   0  0  2  0  0  3  0  0  0  0  0  0
  159.6580  212.2180  151.4970 C   0  0  1  0  0  3  0  0  0  0  0  0
  161.2990  206.9750  155.3140 O   0  0  0  0  0  0  0  0  0  0  0  0
  160.3330  207.8700  155.8240 C   0  0  0  0  0  0  0  0  0  0  0  0
  160.6520  208.2440  157.2600 C   0  0  0  0  0  1  0  0  0  0  0  0
  158.9320  207.3790  155.5000 C   0  0  0  0  0  1  0  0  0  0  0  0
  161.2670  208.2620  154.7360 C   0  0  2  0  0  0  0  0  0  0  0  0
  162.3250  209.1040  155.1340 O   0  0  0  0  0  0  0  0  0  0  0  0
  161.8770  210.4240  155.0070 C   0  0  0  0  0  2  0  0  0  0  0  0
  161.7170  211.0370  156.3850 C   0  0  0  0  0  2  0  0  0  0  0  0
  159.3250  211.5640  156.8480 C   0  0  0  0  0  1  0  0  0  0  0  0
  160.6500  212.1170  156.3620 C   0  0  0  0  0  2  0  0  0  0  0  0
  160.7320  205.5220  153.5760 O   0  0  0  0  0  0  0  0  0  0  0  0
  161.6500  205.0810  151.4810 N   0  0  0  0  0  2  0  0  0  0  0  0
  161.2490  205.9780  152.5190 C   0  0  0  0  0  0  0  0  0  0  0  0
  161.2120  201.5500  150.1610 C   0  0  0  0  0  2  0  0  0  0  0  0
  160.8600  203.0030  150.4300 C   0  0  1  0  0  0  0  0  0  0  0  0
  160.4120  203.8830  149.2610 C   0  0  0  0  0  2  0  0  0  0  0  0
  160.8260  204.1190  146.9250 O   0  0  0  0  0  0  0  0  0  0  0  0
  161.7810  202.2240  147.8740 N   0  0  0  0  0  2  0  0  0  0  0  0
  161.0280  203.4400  147.9640 C   0  0  0  0  0  0  0  0  0  0  0  0
  160.0840  203.2290  151.7060 C   0  0  0  0  0  2  0  0  0  0  0  0
  162.2580  201.5110  149.0560 C   0  0  0  0  0  2  0  0  0  0  0  0
  161.5500  203.6360  151.6290 C   0  0  2  0  0  3  0  0  0  0  0  0
  159.6610  213.7130  151.1900 C   0  0  0  0  0  2  0  0  0  0  0  0
  159.6940  214.0000  149.6950 C   0  0  0  0  0  1  0  0  0  0  0  0
  162.7570  207.0910  150.2290 C   0  0  0  0  0  2  0  0  0  0  0  0
  160.8530  207.1880  148.6520 C   0  0  0  0  0  1  0  0  0  0  0  0
  162.3080  207.5510  148.8550 C   0  0  0  0  0  2  0  0  0  0  0  0
  1  3  2  0  0  0  0
  2  4  1  0  0  0  0
  2 10  1  0  0  0  0
  3 23  1  0  0  0  0
  4  5  1  1  0  0  0
  4  6  1  0  0  0  0
  5  1  1  0  0  0  0
  6  8  1  6  0  0  0
  6  9  1  0  0  0  0
  7  8  1  0  0  0  0
  9  3  1  6  0  0  0
  9 15  1  0  0  0  0
 10 33  1  1  0  0  0
 10  7  1  0  0  0  0
 11 12  1  0  0  0  0
 12 13  1  0  0  0  0
 14 12  1  0  0  0  0
 15 16  1  1  0  0  0
 15 11  1  0  0  0  0
 15 12  1  0  0  0  0
 17 16  1  0  0  0  0
 17 18  1  0  0  0  0
 20 18  1  0  0  0  0
 20 19  1  0  0  0  0
 22 23  1  0  0  0  0
 23 21  2  0  0  0  0
 24 25  1  0  0  0  0
 25 26  1  6  0  0  0
 25 32  1  0  0  0  0
 25 30  1  0  0  0  0
 27 29  2  0  0  0  0
 28 29  1  0  0  0  0
 28 31  1  0  0  0  0
 29 26  1  0  0  0  0
 31 24  1  0  0  0  0
 32 22  1  6  0  0  0
 32 30  1  0  0  0  0
 34 33  1  0  0  0  0
 35  1  1  0  0  0  0
 36 37  1  0  0  0  0
 37 35  1  0  0  0  0
M  END
>  <MODEL>
6

>  <REMARK>
 VINA RESULT:      -2.4      1.656      2.260
  Name = 
  10 active torsions:
  status: ('A' for Active; 'I' for Inactive)
    1  A    between atoms: C_3  and  C_32
    2  A    between atoms: C_4  and  C_24
    3  A    between atoms: C_10  and  C_27
    4  A    between atoms: N_14  and  C_37
    5  A    between atoms: C_17  and  C_26
    6  A    between atoms: C_17  and  O_33
    7  A    between atoms: C_24  and  C_28
    8  A    between atoms: C_26  and  C_34
    9  A    between atoms: C_29  and  C_36
   10  A    between atoms: O_33  and  C_36
                            x       y       z     vdW  Elec       q    Type
                         _______ _______ _______ _____ _____    ______ ____

>  <TORSDO>
F 10

$$$$
=
 OpenBabel11062409163D

 37 41  0  0  1  0  0  0  0  0999 V2000
  160.8330  207.9280  154.1480 C   0  0  0  0  0  0  0  0  0  0  0  0
  161.4030  204.4460  152.7260 C   0  0  0  0  0  2  0  0  0  0  0  0
  160.4800  208.6600  153.0590 C   0  0  0  0  0  0  0  0  0  0  0  0
  160.8340  205.8540  152.8470 C   0  0  1  0  0  3  0  0  0  0  0  0
  161.4970  206.5960  153.9880 C   0  0  0  0  0  2  0  0  0  0  0  0
  161.1050  206.6330  151.5620 C   0  0  1  0  0  3  0  0  0  0  0  0
  160.9660  204.5230  150.2330 C   0  0  0  0  0  2  0  0  0  0  0  0
  160.4280  205.9450  150.3810 C   0  0  0  0  0  2  0  0  0  0  0  0
  160.6960  208.1170  151.6490 C   0  0  2  0  0  3  0  0  0  0  0  0
  160.7650  203.7310  151.5300 C   0  0  1  0  0  3  0  0  0  0  0  0
  163.0690  208.6740  151.0490 O   0  0  0  0  0  0  0  0  0  0  0  0
  162.5930  209.8800  151.6090 C   0  0  0  0  0  0  0  0  0  0  0  0
  163.2120  211.0770  150.9110 C   0  0  0  0  0  1  0  0  0  0  0  0
  162.6500  209.8190  153.1260 C   0  0  0  0  0  1  0  0  0  0  0  0
  161.7030  208.9640  150.8490 C   0  0  2  0  0  0  0  0  0  0  0  0
  161.3850  209.3900  149.5440 O   0  0  0  0  0  0  0  0  0  0  0  0
  162.2260  208.6980  148.6640 C   0  0  0  0  0  2  0  0  0  0  0  0
  161.4230  207.6520  147.9150 C   0  0  0  0  0  2  0  0  0  0  0  0
  161.7180  205.8250  146.2460 C   0  0  0  0  0  1  0  0  0  0  0  0
  162.3280  206.5300  147.4420 C   0  0  0  0  0  2  0  0  0  0  0  0
  159.4040  210.3870  154.3080 O   0  0  0  0  0  0  0  0  0  0  0  0
  159.5410  210.7460  152.0100 N   0  0  0  0  0  2  0  0  0  0  0  0
  159.7800  209.9620  153.1820 C   0  0  0  0  0  0  0  0  0  0  0  0
  158.4510  214.1050  150.6230 C   0  0  0  0  0  2  0  0  0  0  0  0
  159.4060  213.0330  151.1190 C   0  0  1  0  0  0  0  0  0  0  0  0
  160.6100  212.6580  150.2520 C   0  0  0  0  0  2  0  0  0  0  0  0
  161.1880  212.5080  147.9440 O   0  0  0  0  0  0  0  0  0  0  0  0
  159.1240  213.4980  148.3460 N   0  0  0  0  0  2  0  0  0  0  0  0
  160.3260  212.8570  148.7900 C   0  0  0  0  0  0  0  0  0  0  0  0
  159.7070  213.1040  152.5970 C   0  0  0  0  0  2  0  0  0  0  0  0
  157.9810  213.7160  149.2290 C   0  0  0  0  0  2  0  0  0  0  0  0
  158.8040  212.0000  152.0600 C   0  0  2  0  0  3  0  0  0  0  0  0
  161.2830  202.3020  151.3960 C   0  0  0  0  0  2  0  0  0  0  0  0
  160.8330  201.6380  150.1020 C   0  0  0  0  0  1  0  0  0  0  0  0
  160.5110  208.3440  155.5500 C   0  0  0  0  0  2  0  0  0  0  0  0
  162.2890  209.5210  156.8050 C   0  0  0  0  0  1  0  0  0  0  0  0
  161.7210  208.1650  156.4480 C   0  0  0  0  0  2  0  0  0  0  0  0
  1 35  1  0  0  0  0
  3 23  1  0  0  0  0
  3  1  2  0  0  0  0
  4  2  1  6  0  0  0
  4  5  1  0  0  0  0
  5  1  1  0  0  0  0
  6  8  1  6  0  0  0
  6  9  1  0  0  0  0
  6  4  1  0  0  0  0
  7  8  1  0  0  0  0
  7 10  1  0  0  0  0
  9  3  1  1  0  0  0
 10 33  1  6  0  0  0
 10  2  1  0  0  0  0
 11 12  1  0  0  0  0
 12 14  1  0  0  0  0
 13 12  1  0  0  0  0
 15 16  1  6  0  0  0
 15 11  1  0  0  0  0
 15 12  1  0  0  0  0
 15  9  1  0  0  0  0
 17 16  1  0  0  0  0
 18 17  1  0  0  0  0
 19 20  1  0  0  0  0
 20 18  1  0  0  0  0
 22 23  1  0  0  0  0
 23 21  2  0  0  0  0
 24 25  1  0  0  0  0
 25 26  1  6  0  0  0
 25 32  1  0  0  0  0
 25 30  1  0  0  0  0
 27 29  2  0  0  0  0
 28 29  1  0  0  0  0
 28 31  1  0  0  0  0
 29 26  1  0  0  0  0
 31 24  1  0  0  0  0
 32 22  1  6  0  0  0
 32 30  1  0  0  0  0
 34 33  1  0  0  0  0
 35 37  1  0  0  0  0
 37 36  1  0  0  0  0
M  END
>  <MODEL>
7

>  <REMARK>
 VINA RESULT:      -2.1      2.527      7.671
  Name = 
  10 active torsions:
  status: ('A' for Active; 'I' for Inactive)
    1  A    between atoms: C_3  and  C_32
    2  A    between atoms: C_4  and  C_24
    3  A    between atoms: C_10  and  C_27
    4  A    between atoms: N_14  and  C_37
    5  A    between atoms: C_17  and  C_26
    6  A    between atoms: C_17  and  O_33
    7  A    between atoms: C_24  and  C_28
    8  A    between atoms: C_26  and  C_34
    9  A    between atoms: C_29  and  C_36
   10  A    between atoms: O_33  and  C_36
                            x       y       z     vdW  Elec       q    Type
                         _______ _______ _______ _____ _____    ______ ____

>  <TORSDO>
F 10

$$$$
=
 OpenBabel11062409163D

 37 41  0  0  1  0  0  0  0  0999 V2000
  161.9770  208.9210  151.6140 C   0  0  0  0  0  0  0  0  0  0  0  0
  160.8480  212.3850  150.5190 C   0  0  0  0  0  2  0  0  0  0  0  0
  161.1560  208.6380  152.6590 C   0  0  0  0  0  0  0  0  0  0  0  0
  160.7620  210.9890  151.1240 C   0  0  1  0  0  3  0  0  0  0  0  0
  162.1230  210.3270  151.1200 C   0  0  0  0  0  2  0  0  0  0  0  0
  160.2920  211.0840  152.5750 C   0  0  1  0  0  3  0  0  0  0  0  0
  158.9480  213.1160  152.0250 C   0  0  0  0  0  2  0  0  0  0  0  0
  158.9040  211.7160  152.6340 C   0  0  0  0  0  2  0  0  0  0  0  0
  160.3180  209.7320  153.3140 C   0  0  2  0  0  3  0  0  0  0  0  0
  159.4760  213.0640  150.5860 C   0  0  1  0  0  3  0  0  0  0  0  0
  161.1890  211.2610  155.1050 O   0  0  0  0  0  0  0  0  0  0  0  0
  162.1540  210.2310  155.0720 C   0  0  0  0  0  0  0  0  0  0  0  0
  162.7000  209.9620  156.4620 C   0  0  0  0  0  1  0  0  0  0  0  0
  163.1420  210.4640  153.9410 C   0  0  0  0  0  1  0  0  0  0  0  0
  160.7200  209.9690  154.7820 C   0  0  2  0  0  0  0  0  0  0  0  0
  160.0080  209.3340  155.8190 O   0  0  0  0  0  0  0  0  0  0  0  0
  158.6970  209.8200  155.7830 C   0  0  0  0  0  2  0  0  0  0  0  0
  158.6210  211.1260  156.5510 C   0  0  0  0  0  2  0  0  0  0  0  0
  156.4330  211.0780  155.3590 C   0  0  0  0  0  1  0  0  0  0  0  0
  157.4460  211.9560  156.0680 C   0  0  0  0  0  2  0  0  0  0  0  0
  160.4610  207.0310  154.2830 O   0  0  0  0  0  0  0  0  0  0  0  0
  161.3100  206.1520  152.3000 N   0  0  0  0  0  2  0  0  0  0  0  0
  160.9530  207.2500  153.1430 C   0  0  0  0  0  0  0  0  0  0  0  0
  161.0610  202.4080  151.7320 C   0  0  0  0  0  2  0  0  0  0  0  0
  160.6740  203.8730  151.6300 C   0  0  1  0  0  0  0  0  0  0  0  0
  160.3890  204.4670  150.2490 C   0  0  0  0  0  2  0  0  0  0  0  0
  161.1190  204.2090  147.9940 O   0  0  0  0  0  0  0  0  0  0  0  0
  161.9370  202.5920  149.4510 N   0  0  0  0  0  2  0  0  0  0  0  0
  161.1770  203.7750  149.1730 C   0  0  0  0  0  0  0  0  0  0  0  0
  159.7310  204.3440  152.7120 C   0  0  0  0  0  2  0  0  0  0  0  0
  162.2480  202.1650  150.8120 C   0  0  0  0  0  2  0  0  0  0  0  0
  161.1930  204.7700  152.7440 C   0  0  2  0  0  3  0  0  0  0  0  0
  159.5110  214.4530  149.9550 C   0  0  0  0  0  2  0  0  0  0  0  0
  159.5010  214.4010  148.4340 C   0  0  0  0  0  1  0  0  0  0  0  0
  162.7070  207.8680  150.8400 C   0  0  0  0  0  2  0  0  0  0  0  0
  161.1730  207.5580  148.9230 C   0  0  0  0  0  1  0  0  0  0  0  0
  162.5270  208.0840  149.3490 C   0  0  0  0  0  2  0  0  0  0  0  0
  1  3  2  0  0  0  0
  2 10  1  0  0  0  0
  3 23  1  0  0  0  0
  4  2  1  1  0  0  0
  4  6  1  0  0  0  0
  5  4  1  0  0  0  0
  5  1  1  0  0  0  0
  6  8  1  6  0  0  0
  6  9  1  0  0  0  0
  7  8  1  0  0  0  0
  9  3  1  6  0  0  0
  9 15  1  0  0  0  0
 10 33  1  1  0  0  0
 10  7  1  0  0  0  0
 12 11  1  0  0  0  0
 12 13  1  0  0  0  0
 14 12  1  0  0  0  0
 15 12  1  0  0  0  0
 15 11  1  0  0  0  0
 15 16  1  1  0  0  0
 17 16  1  0  0  0  0
 17 18  1  0  0  0  0
 19 20  1  0  0  0  0
 20 18  1  0  0  0  0
 22 23  1  0  0  0  0
 23 21  2  0  0  0  0
 25 26  1  6  0  0  0
 25 24  1  0  0  0  0
 25 30  1  0  0  0  0
 25 32  1  0  0  0  0
 27 29  2  0  0  0  0
 28 31  1  0  0  0  0
 29 28  1  0  0  0  0
 29 26  1  0  0  0  0
 30 32  1  0  0  0  0
 31 24  1  0  0  0  0
 32 22  1  6  0  0  0
 34 33  1  0  0  0  0
 35  1  1  0  0  0  0
 36 37  1  0  0  0  0
 37 35  1  0  0  0  0
M  END
>  <MODEL>
8

>  <REMARK>
 VINA RESULT:      -2.1      1.956      3.039
  Name = 
  10 active torsions:
  status: ('A' for Active; 'I' for Inactive)
    1  A    between atoms: C_3  and  C_32
    2  A    between atoms: C_4  and  C_24
    3  A    between atoms: C_10  and  C_27
    4  A    between atoms: N_14  and  C_37
    5  A    between atoms: C_17  and  C_26
    6  A    between atoms: C_17  and  O_33
    7  A    between atoms: C_24  and  C_28
    8  A    between atoms: C_26  and  C_34
    9  A    between atoms: C_29  and  C_36
   10  A    between atoms: O_33  and  C_36
                            x       y       z     vdW  Elec       q    Type
                         _______ _______ _______ _____ _____    ______ ____

>  <TORSDO>
F 10

$$$$
=
 OpenBabel11062409163D

 37 41  0  0  1  0  0  0  0  0999 V2000
  161.6520  207.9780  153.3640 C   0  0  0  0  0  0  0  0  0  0  0  0
  161.5100  204.4280  152.0020 C   0  0  0  0  0  2  0  0  0  0  0  0
  161.0880  208.7180  152.3740 C   0  0  0  0  0  0  0  0  0  0  0  0
  161.1210  205.8880  152.2050 C   0  0  1  0  0  3  0  0  0  0  0  0
  162.1280  206.5840  153.0960 C   0  0  0  0  0  2  0  0  0  0  0  0
  161.1090  206.6100  150.8590 C   0  0  1  0  0  3  0  0  0  0  0  0
  160.4330  204.4980  149.7110 C   0  0  0  0  0  2  0  0  0  0  0  0
  160.0830  205.9680  149.9300 C   0  0  0  0  0  2  0  0  0  0  0  0
  160.8710  208.1280  150.9830 C   0  0  2  0  0  3  0  0  0  0  0  0
  160.5160  203.7560  151.0500 C   0  0  1  0  0  3  0  0  0  0  0  0
  161.2590  208.7210  148.5740 O   0  0  0  0  0  0  0  0  0  0  0  0
  162.4370  208.0240  148.9220 C   0  0  0  0  0  0  0  0  0  0  0  0
  163.6370  208.6040  148.1970 C   0  0  0  0  0  1  0  0  0  0  0  0
  162.2060  206.5240  148.8510 C   0  0  0  0  0  1  0  0  0  0  0  0
  161.7000  208.8570  149.9080 C   0  0  2  0  0  0  0  0  0  0  0  0
  162.2930  210.1010  150.2000 O   0  0  0  0  0  0  0  0  0  0  0  0
  161.5820  211.0770  149.4940 C   0  0  0  0  0  2  0  0  0  0  0  0
  162.5550  211.9610  148.7370 C   0  0  0  0  0  2  0  0  0  0  0  0
  160.4170  212.8870  147.8520 C   0  0  0  0  0  1  0  0  0  0  0  0
  161.8720  212.5940  147.5390 C   0  0  0  0  0  2  0  0  0  0  0  0
  161.3520  211.0580  152.7700 O   0  0  0  0  0  0  0  0  0  0  0  0
  159.1520  210.2990  152.6680 N   0  0  0  0  0  2  0  0  0  0  0  0
  160.5650  210.0850  152.6180 C   0  0  0  0  0  0  0  0  0  0  0  0
  158.4270  213.2560  154.9320 C   0  0  0  0  0  2  0  0  0  0  0  0
  158.4250  211.8110  154.4650 C   0  0  1  0  0  0  0  0  0  0  0  0
  158.8900  210.7220  155.4330 C   0  0  0  0  0  2  0  0  0  0  0  0
  160.4530  210.4430  157.2120 O   0  0  0  0  0  0  0  0  0  0  0  0
  160.2190  212.6380  156.4850 N   0  0  0  0  0  2  0  0  0  0  0  0
  159.9080  211.2410  156.4080 C   0  0  0  0  0  0  0  0  0  0  0  0
  157.2230  211.4280  153.6340 C   0  0  0  0  0  2  0  0  0  0  0  0
  159.8190  213.5870  155.4490 C   0  0  0  0  0  2  0  0  0  0  0  0
  158.5810  211.6040  152.9660 C   0  0  2  0  0  3  0  0  0  0  0  0
  160.8500  202.2800  150.8490 C   0  0  0  0  0  2  0  0  0  0  0  0
  160.4470  201.7740  149.4710 C   0  0  0  0  0  1  0  0  0  0  0  0
  161.7540  208.4510  154.7810 C   0  0  0  0  0  2  0  0  0  0  0  0
  159.7860  207.1110  155.4550 C   0  0  0  0  0  1  0  0  0  0  0  0
  161.2480  207.3850  155.7350 C   0  0  0  0  0  2  0  0  0  0  0  0
  1 35  1  0  0  0  0
  3 23  1  0  0  0  0
  3  1  2  0  0  0  0
  4  2  1  6  0  0  0
  4  5  1  0  0  0  0
  5  1  1  0  0  0  0
  6  8  1  6  0  0  0
  6  9  1  0  0  0  0
  6  4  1  0  0  0  0
  7  8  1  0  0  0  0
  7 10  1  0  0  0  0
  9  3  1  1  0  0  0
 10 33  1  6  0  0  0
 10  2  1  0  0  0  0
 11 12  1  0  0  0  0
 11 15  1  0  0  0  0
 12 15  1  0  0  0  0
 13 12  1  0  0  0  0
 14 12  1  0  0  0  0
 15 16  1  1  0  0  0
 15  9  1  0  0  0  0
 17 16  1  0  0  0  0
 18 17  1  0  0  0  0
 20 19  1  0  0  0  0
 20 18  1  0  0  0  0
 23 22  1  0  0  0  0
 23 21  2  0  0  0  0
 24 31  1  0  0  0  0
 25 30  1  1  0  0  0
 25 24  1  0  0  0  0
 25 26  1  0  0  0  0
 26 29  1  0  0  0  0
 29 28  1  0  0  0  0
 29 27  2  0  0  0  0
 31 28  1  0  0  0  0
 32 22  1  1  0  0  0
 32 30  1  0  0  0  0
 32 25  1  0  0  0  0
 34 33  1  0  0  0  0
 35 37  1  0  0  0  0
 36 37  1  0  0  0  0
M  END
>  <MODEL>
9

>  <REMARK>
 VINA RESULT:      -1.7      2.307      8.088
  Name = 
  10 active torsions:
  status: ('A' for Active; 'I' for Inactive)
    1  A    between atoms: C_3  and  C_32
    2  A    between atoms: C_4  and  C_24
    3  A    between atoms: C_10  and  C_27
    4  A    between atoms: N_14  and  C_37
    5  A    between atoms: C_17  and  C_26
    6  A    between atoms: C_17  and  O_33
    7  A    between atoms: C_24  and  C_28
    8  A    between atoms: C_26  and  C_34
    9  A    between atoms: C_29  and  C_36
   10  A    between atoms: O_33  and  C_36
                            x       y       z     vdW  Elec       q    Type
                         _______ _______ _______ _____ _____    ______ ____

>  <TORSDO>
F 10

$$$$
