=
 OpenBabel11062408173D

 32 36  0  0  1  0  0  0  0  0999 V2000
  161.0370  211.2130  152.8190 C   0  0  2  0  0  3  0  0  0  0  0  0
  161.7850  210.0220  152.1920 C   0  0  0  0  0  2  0  0  0  0  0  0
  161.3120  208.3280  155.6380 C   0  0  0  0  0  3  0  0  0  0  0  0
  160.7430  211.0700  154.3360 C   0  0  1  0  0  3  0  0  0  0  0  0
  160.7450  206.8840  153.6260 C   0  0  0  0  0  2  0  0  0  0  0  0
  161.5500  208.1190  153.2720 C   0  0  1  0  0  3  0  0  0  0  0  0
  161.0250  208.8410  152.2030 O   0  0  0  0  0  0  0  0  0  0  0  0
  161.9210  210.6390  155.0900 N   0  0  0  0  0  2  0  0  0  0  0  0
  160.5210  208.1760  154.3850 C   0  0  2  0  0  3  0  0  0  0  0  0
  161.9660  209.4630  155.9200 C   0  0  0  0  0  3  0  0  0  0  0  0
  160.5230  212.4890  156.3540 O   0  0  0  0  0  0  0  0  0  0  0  0
  156.2880  211.7110  154.8000 C   0  0  1  0  0  3  0  0  0  0  0  0
  159.6220  213.4330  156.8910 C   0  0  0  0  0  2  0  0  0  0  0  0
  155.4460  210.6750  155.2070 O   0  0  0  0  0  1  0  0  0  0  0  0
  155.8320  213.0410  155.4240 C   0  0  1  0  0  3  0  0  0  0  0  0
  158.4530  213.6340  155.9400 C   0  0  2  0  0  3  0  0  0  0  0  0
  156.8580  213.5600  156.8510 S   0  0  0  0  0  0  0  0  0  0  0  0
  157.7560  211.3460  155.0530 C   0  0  2  0  0  3  0  0  0  0  0  0
  157.9150  210.7740  156.3210 O   0  0  0  0  0  1  0  0  0  0  0  0
  160.1430  212.3170  155.0150 C   0  0  2  0  0  3  0  0  0  0  0  0
  158.6550  212.5810  154.8710 C   0  0  2  0  0  3  0  0  0  0  0  0
  155.7690  214.1480  154.3830 C   0  0  0  0  0  2  0  0  0  0  0  0
  155.3650  214.2660  151.9460 C   0  0  0  0  0  1  0  0  0  0  0  0
  154.8140  213.7750  153.2660 C   0  0  0  0  0  2  0  0  0  0  0  0
  159.8170  211.6090  151.9800 C   0  0  0  0  0  2  0  0  0  0  0  0
  159.8880  213.0420  151.4680 C   0  0  0  0  0  2  0  0  0  0  0  0
  160.2330  213.6060  148.7800 C   0  0  0  0  0  0  0  0  0  0  0  0
  161.1860  212.6010  149.0730 N   0  0  0  0  0  0  0  0  0  0  0  0
  159.7190  214.4190  147.9700 O   0  0  0  0  0  0  0  0  0  0  0  0
  160.3080  213.0480  150.0790 N   0  0  0  0  0  0  0  0  0  0  0  0
  162.3250  211.7980  148.6710 C   0  0  0  0  0  2  0  0  0  0  0  0
  161.9730  210.4500  148.6820 O   0  0  0  0  0  1  0  0  0  0  0  0
  1 25  1  6  0  0  0
  1  4  1  0  0  0  0
  2  7  1  0  0  0  0
  2  1  1  0  0  0  0
  3 10  2  0  0  0  0
  4 20  1  0  0  0  0
  4  8  1  1  0  0  0
  6  5  1  6  0  0  0
  6  9  1  0  0  0  0
  7  6  1  0  0  0  0
  8 10  1  0  0  0  0
  9  5  1  1  0  0  0
  9  3  1  0  0  0  0
 11 13  1  0  0  0  0
 12 18  1  0  0  0  0
 12 14  1  1  0  0  0
 12 15  1  0  0  0  0
 15 22  1  6  0  0  0
 15 17  1  0  0  0  0
 16 17  1  0  0  0  0
 16 13  1  1  0  0  0
 18 19  1  1  0  0  0
 20 11  1  1  0  0  0
 21 20  1  0  0  0  0
 21 18  1  0  0  0  0
 21 16  1  0  0  0  0
 23 24  1  0  0  0  0
 24 22  1  0  0  0  0
 26 25  1  0  0  0  0
 27 28  1  0  0  0  0
 27 30  1  0  0  0  0
 28 30  1  0  0  0  0
 29 27  2  0  0  0  0
 30 26  1  0  0  0  0
 31 32  1  0  0  0  0
 31 28  1  0  0  0  0
M  END
>  <MODEL>
1

>  <REMARK>
 VINA RESULT:      -5.3      0.000      0.000
  Name = 
  7 active torsions:
  status: ('A' for Active; 'I' for Inactive)
    1  A    between atoms: C_2  and  C_5
    2  A    between atoms: C_5  and  C_18
    3  A    between atoms: C_10  and  C_24
    4  A    between atoms: N_14  and  C_21
    5  A    between atoms: C_15  and  C_19
    6  A    between atoms: C_18  and  N_29
    7  A    between atoms: C_19  and  C_26
                            x       y       z     vdW  Elec       q    Type
                         _______ _______ _______ _____ _____    ______ ____

>  <TORSDO>
F 7

$$$$
=
 OpenBabel11062408173D

 32 36  0  0  1  0  0  0  0  0999 V2000
  161.8940  208.5760  151.0050 C   0  0  2  0  0  3  0  0  0  0  0  0
  162.7890  207.3500  151.2580 C   0  0  0  0  0  2  0  0  0  0  0  0
  160.7780  206.9660  154.5420 C   0  0  0  0  0  3  0  0  0  0  0  0
  160.9570  208.9520  152.1830 C   0  0  1  0  0  3  0  0  0  0  0  0
  161.0910  204.8320  153.1990 C   0  0  0  0  0  2  0  0  0  0  0  0
  162.0220  205.9510  152.7750 C   0  0  1  0  0  3  0  0  0  0  0  0
  162.0520  206.1630  151.3990 O   0  0  0  0  0  0  0  0  0  0  0  0
  161.6640  208.9830  153.4650 N   0  0  0  0  0  2  0  0  0  0  0  0
  160.6120  206.2690  153.2350 C   0  0  2  0  0  3  0  0  0  0  0  0
  161.2890  208.2030  154.6160 C   0  0  0  0  0  3  0  0  0  0  0  0
  160.9490  211.3520  151.5700 O   0  0  0  0  0  0  0  0  0  0  0  0
  158.8160  210.9970  155.6050 C   0  0  1  0  0  3  0  0  0  0  0  0
  160.1760  212.5050  151.8200 C   0  0  0  0  0  2  0  0  0  0  0  0
  159.4140  211.1260  156.8600 O   0  0  0  0  0  1  0  0  0  0  0  0
  158.0080  212.2610  155.2710 C   0  0  1  0  0  3  0  0  0  0  0  0
  159.0040  212.1590  152.7250 C   0  0  2  0  0  3  0  0  0  0  0  0
  158.8620  213.3770  154.0940 S   0  0  0  0  0  0  0  0  0  0  0  0
  159.8540  210.5930  154.5500 C   0  0  2  0  0  3  0  0  0  0  0  0
  161.0250  211.3470  154.6910 O   0  0  0  0  0  1  0  0  0  0  0  0
  160.1750  210.2690  152.0130 C   0  0  2  0  0  3  0  0  0  0  0  0
  159.2610  210.7250  153.1370 C   0  0  2  0  0  3  0  0  0  0  0  0
  156.6180  211.9110  154.7590 C   0  0  0  0  0  2  0  0  0  0  0  0
  155.1160  209.9820  155.1320 C   0  0  0  0  0  1  0  0  0  0  0  0
  155.8500  211.1240  155.8020 C   0  0  0  0  0  2  0  0  0  0  0  0
  161.1850  208.4780  149.6490 C   0  0  0  0  0  2  0  0  0  0  0  0
  162.0950  207.9710  148.5390 C   0  0  0  0  0  2  0  0  0  0  0  0
  160.8800  206.2400  146.7530 C   0  0  0  0  0  0  0  0  0  0  0  0
  161.2020  205.4440  147.8780 N   0  0  0  0  0  0  0  0  0  0  0  0
  160.4200  206.3450  145.5860 O   0  0  0  0  0  0  0  0  0  0  0  0
  161.4880  206.8240  147.8900 N   0  0  0  0  0  0  0  0  0  0  0  0
  161.2960  204.1410  148.5060 C   0  0  0  0  0  2  0  0  0  0  0  0
  161.3230  203.1510  147.5250 O   0  0  0  0  0  1  0  0  0  0  0  0
  1 25  1  6  0  0  0
  1  2  1  0  0  0  0
  1  4  1  0  0  0  0
  2  7  1  0  0  0  0
  3 10  2  0  0  0  0
  4  8  1  1  0  0  0
  6  5  1  6  0  0  0
  6  9  1  0  0  0  0
  7  6  1  0  0  0  0
  8 10  1  0  0  0  0
  9  5  1  1  0  0  0
  9  3  1  0  0  0  0
 11 13  1  0  0  0  0
 12 14  1  1  0  0  0
 15 22  1  6  0  0  0
 15 12  1  0  0  0  0
 16 13  1  6  0  0  0
 16 21  1  0  0  0  0
 16 17  1  0  0  0  0
 17 15  1  0  0  0  0
 18 19  1  6  0  0  0
 18 12  1  0  0  0  0
 20 11  1  1  0  0  0
 20  4  1  0  0  0  0
 20 21  1  0  0  0  0
 21 18  1  0  0  0  0
 22 24  1  0  0  0  0
 23 24  1  0  0  0  0
 26 25  1  0  0  0  0
 27 28  1  0  0  0  0
 27 30  1  0  0  0  0
 28 30  1  0  0  0  0
 28 31  1  0  0  0  0
 29 27  2  0  0  0  0
 30 26  1  0  0  0  0
 32 31  1  0  0  0  0
M  END
>  <MODEL>
2

>  <REMARK>
 VINA RESULT:      -5.1      3.270      4.535
  Name = 
  7 active torsions:
  status: ('A' for Active; 'I' for Inactive)
    1  A    between atoms: C_2  and  C_5
    2  A    between atoms: C_5  and  C_18
    3  A    between atoms: C_10  and  C_24
    4  A    between atoms: N_14  and  C_21
    5  A    between atoms: C_15  and  C_19
    6  A    between atoms: C_18  and  N_29
    7  A    between atoms: C_19  and  C_26
                            x       y       z     vdW  Elec       q    Type
                         _______ _______ _______ _____ _____    ______ ____

>  <TORSDO>
F 7

$$$$
=
 OpenBabel11062408173D

 32 36  0  0  1  0  0  0  0  0999 V2000
  161.5960  206.2160  149.5120 C   0  0  2  0  0  3  0  0  0  0  0  0
  161.9260  204.7120  149.5050 C   0  0  0  0  0  2  0  0  0  0  0  0
  161.3970  204.9120  153.3330 C   0  0  0  0  0  3  0  0  0  0  0  0
  161.4420  206.8420  150.9230 C   0  0  1  0  0  3  0  0  0  0  0  0
  160.2500  202.9650  152.1740 C   0  0  0  0  0  2  0  0  0  0  0  0
  161.3110  203.6300  151.3210 C   0  0  1  0  0  3  0  0  0  0  0  0
  160.8850  203.9300  150.0290 O   0  0  0  0  0  0  0  0  0  0  0  0
  162.5380  206.4660  151.8180 N   0  0  0  0  0  2  0  0  0  0  0  0
  160.4630  204.4620  152.2640 C   0  0  2  0  0  3  0  0  0  0  0  0
  162.3570  205.8150  153.0890 C   0  0  0  0  0  3  0  0  0  0  0  0
  162.4720  209.0920  150.8050 O   0  0  0  0  0  0  0  0  0  0  0  0
  159.7510  209.0590  154.4860 C   0  0  1  0  0  3  0  0  0  0  0  0
  162.1820  210.4110  151.2120 C   0  0  0  0  0  2  0  0  0  0  0  0
  160.1420  208.7420  155.7880 O   0  0  0  0  0  1  0  0  0  0  0  0
  159.5670  210.5790  154.3430 C   0  0  1  0  0  3  0  0  0  0  0  0
  160.8390  210.4510  151.9250 C   0  0  2  0  0  3  0  0  0  0  0  0
  160.9660  211.4010  153.4930 S   0  0  0  0  0  0  0  0  0  0  0  0
  160.7030  208.4230  153.4650 C   0  0  2  0  0  3  0  0  0  0  0  0
  162.0370  208.5950  153.8550 O   0  0  0  0  0  1  0  0  0  0  0  0
  161.2760  208.3750  150.9530 C   0  0  2  0  0  3  0  0  0  0  0  0
  160.4450  208.9960  152.0620 C   0  0  2  0  0  3  0  0  0  0  0  0
  158.2530  210.9150  153.6530 C   0  0  0  0  0  2  0  0  0  0  0  0
  157.9940  211.8670  155.9210 C   0  0  0  0  0  1  0  0  0  0  0  0
  157.2680  211.5060  154.6430 C   0  0  0  0  0  2  0  0  0  0  0  0
  160.4430  206.5380  148.5550 C   0  0  0  0  0  2  0  0  0  0  0  0
  160.9180  207.0750  147.2110 C   0  0  0  0  0  2  0  0  0  0  0  0
  161.1960  205.5400  144.9240 C   0  0  0  0  0  0  0  0  0  0  0  0
  161.1710  204.6120  145.9920 N   0  0  0  0  0  0  0  0  0  0  0  0
  161.3160  205.7880  143.6970 O   0  0  0  0  0  0  0  0  0  0  0  0
  161.0240  205.9870  146.2560 N   0  0  0  0  0  0  0  0  0  0  0  0
  161.3240  203.2530  146.4760 C   0  0  0  0  0  2  0  0  0  0  0  0
  160.8920  202.3580  145.4990 O   0  0  0  0  0  1  0  0  0  0  0  0
  1 25  1  6  0  0  0
  1  4  1  0  0  0  0
  2  1  1  0  0  0  0
  2  7  1  0  0  0  0
  4 20  1  0  0  0  0
  4  8  1  1  0  0  0
  6  5  1  1  0  0  0
  6  9  1  0  0  0  0
  7  6  1  0  0  0  0
  8 10  1  0  0  0  0
  9  5  1  1  0  0  0
  9  3  1  0  0  0  0
 10  3  2  0  0  0  0
 11 13  1  0  0  0  0
 12 14  1  1  0  0  0
 15 22  1  6  0  0  0
 15 12  1  0  0  0  0
 16 13  1  1  0  0  0
 16 21  1  0  0  0  0
 16 17  1  0  0  0  0
 17 15  1  0  0  0  0
 18 19  1  1  0  0  0
 18 12  1  0  0  0  0
 20 11  1  1  0  0  0
 20 21  1  0  0  0  0
 21 18  1  0  0  0  0
 22 24  1  0  0  0  0
 24 23  1  0  0  0  0
 26 25  1  0  0  0  0
 27 28  1  0  0  0  0
 27 30  1  0  0  0  0
 28 30  1  0  0  0  0
 28 31  1  0  0  0  0
 29 27  2  0  0  0  0
 30 26  1  0  0  0  0
 32 31  1  0  0  0  0
M  END
>  <MODEL>
3

>  <REMARK>
 VINA RESULT:      -4.5      4.484      6.147
  Name = 
  7 active torsions:
  status: ('A' for Active; 'I' for Inactive)
    1  A    between atoms: C_2  and  C_5
    2  A    between atoms: C_5  and  C_18
    3  A    between atoms: C_10  and  C_24
    4  A    between atoms: N_14  and  C_21
    5  A    between atoms: C_15  and  C_19
    6  A    between atoms: C_18  and  N_29
    7  A    between atoms: C_19  and  C_26
                            x       y       z     vdW  Elec       q    Type
                         _______ _______ _______ _____ _____    ______ ____

>  <TORSDO>
F 7

$$$$
=
 OpenBabel11062408173D

 32 36  0  0  1  0  0  0  0  0999 V2000
  161.8830  208.7980  151.0540 C   0  0  2  0  0  3  0  0  0  0  0  0
  162.8000  207.5770  151.2480 C   0  0  0  0  0  2  0  0  0  0  0  0
  160.7260  206.9360  154.4520 C   0  0  0  0  0  3  0  0  0  0  0  0
  160.9120  209.0760  152.2320 C   0  0  1  0  0  3  0  0  0  0  0  0
  161.1170  204.9020  152.9810 C   0  0  0  0  0  2  0  0  0  0  0  0
  162.0310  206.0660  152.6520 C   0  0  1  0  0  3  0  0  0  0  0  0
  162.0870  206.3680  151.2940 O   0  0  0  0  0  0  0  0  0  0  0  0
  161.5900  209.0380  153.5290 N   0  0  0  0  0  2  0  0  0  0  0  0
  160.6040  206.3240  153.1000 C   0  0  2  0  0  3  0  0  0  0  0  0
  161.2070  208.1760  154.6180 C   0  0  0  0  0  3  0  0  0  0  0  0
  160.8310  211.4790  151.6390 O   0  0  0  0  0  0  0  0  0  0  0  0
  159.0040  211.0720  155.8160 C   0  0  1  0  0  3  0  0  0  0  0  0
  160.0650  212.6220  151.9530 C   0  0  0  0  0  2  0  0  0  0  0  0
  159.6910  211.2000  157.0250 O   0  0  0  0  0  1  0  0  0  0  0  0
  158.1590  212.3290  155.5520 C   0  0  1  0  0  3  0  0  0  0  0  0
  158.9670  212.2550  152.9390 C   0  0  2  0  0  3  0  0  0  0  0  0
  158.9110  213.4620  154.3240 S   0  0  0  0  0  0  0  0  0  0  0  0
  159.9660  210.6880  154.6850 C   0  0  2  0  0  3  0  0  0  0  0  0
  161.1360  211.4550  154.7450 O   0  0  0  0  0  1  0  0  0  0  0  0
  160.1040  210.3850  152.1290 C   0  0  2  0  0  3  0  0  0  0  0  0
  159.2700  210.8220  153.3200 C   0  0  2  0  0  3  0  0  0  0  0  0
  156.7390  211.9650  155.1400 C   0  0  0  0  0  2  0  0  0  0  0  0
  155.2060  210.0290  155.0110 C   0  0  0  0  0  1  0  0  0  0  0  0
  156.2980  210.6880  155.8270 C   0  0  0  0  0  2  0  0  0  0  0  0
  161.2060  208.7730  149.6790 C   0  0  0  0  0  2  0  0  0  0  0  0
  162.1430  209.1810  148.5490 C   0  0  0  0  0  2  0  0  0  0  0  0
  162.7030  211.8710  148.2130 C   0  0  0  0  0  0  0  0  0  0  0  0
  161.3160  211.7470  147.9620 N   0  0  0  0  0  0  0  0  0  0  0  0
  163.7450  212.5740  148.2600 O   0  0  0  0  0  0  0  0  0  0  0  0
  162.0640  210.6140  148.3360 N   0  0  0  0  0  0  0  0  0  0  0  0
  160.0660  212.3310  147.5140 C   0  0  0  0  0  2  0  0  0  0  0  0
  159.6650  213.3210  148.4080 O   0  0  0  0  0  1  0  0  0  0  0  0
  1 25  1  6  0  0  0
  1  2  1  0  0  0  0
  1  4  1  0  0  0  0
  2  7  1  0  0  0  0
  3 10  2  0  0  0  0
  4  8  1  1  0  0  0
  6  5  1  6  0  0  0
  6  9  1  0  0  0  0
  7  6  1  0  0  0  0
  8 10  1  0  0  0  0
  9  5  1  1  0  0  0
  9  3  1  0  0  0  0
 11 13  1  0  0  0  0
 12 14  1  1  0  0  0
 15 22  1  6  0  0  0
 15 12  1  0  0  0  0
 16 13  1  6  0  0  0
 16 21  1  0  0  0  0
 16 17  1  0  0  0  0
 17 15  1  0  0  0  0
 18 19  1  6  0  0  0
 18 12  1  0  0  0  0
 20 11  1  1  0  0  0
 20  4  1  0  0  0  0
 20 21  1  0  0  0  0
 21 18  1  0  0  0  0
 22 24  1  0  0  0  0
 23 24  1  0  0  0  0
 26 25  1  0  0  0  0
 27 29  2  0  0  0  0
 27 30  1  0  0  0  0
 28 27  1  0  0  0  0
 28 30  1  0  0  0  0
 30 26  1  0  0  0  0
 31 28  1  0  0  0  0
 31 32  1  0  0  0  0
M  END
>  <MODEL>
4

>  <REMARK>
 VINA RESULT:      -3.9      2.062      3.372
  Name = 
  7 active torsions:
  status: ('A' for Active; 'I' for Inactive)
    1  A    between atoms: C_2  and  C_5
    2  A    between atoms: C_5  and  C_18
    3  A    between atoms: C_10  and  C_24
    4  A    between atoms: N_14  and  C_21
    5  A    between atoms: C_15  and  C_19
    6  A    between atoms: C_18  and  N_29
    7  A    between atoms: C_19  and  C_26
                            x       y       z     vdW  Elec       q    Type
                         _______ _______ _______ _____ _____    ______ ____

>  <TORSDO>
F 7

$$$$
=
 OpenBabel11062408173D

 32 36  0  0  1  0  0  0  0  0999 V2000
  161.2500  208.8580  153.2800 C   0  0  2  0  0  3  0  0  0  0  0  0
  162.0490  207.9460  154.2290 C   0  0  0  0  0  2  0  0  0  0  0  0
  159.8670  209.4910  157.0260 C   0  0  0  0  0  3  0  0  0  0  0  0
  160.2870  209.8480  153.9870 C   0  0  1  0  0  3  0  0  0  0  0  0
  160.1000  206.9630  157.0960 C   0  0  0  0  0  2  0  0  0  0  0  0
  161.1210  207.6350  156.2010 C   0  0  1  0  0  3  0  0  0  0  0  0
  161.2290  207.0550  154.9390 O   0  0  0  0  0  0  0  0  0  0  0  0
  160.9350  210.5570  155.0930 N   0  0  0  0  0  2  0  0  0  0  0  0
  159.7160  208.1970  156.3050 C   0  0  2  0  0  3  0  0  0  0  0  0
  160.4560  210.5490  156.4510 C   0  0  0  0  0  3  0  0  0  0  0  0
  160.4890  211.7180  152.3760 O   0  0  0  0  0  0  0  0  0  0  0  0
  157.4190  212.9920  155.5240 C   0  0  1  0  0  3  0  0  0  0  0  0
  159.7060  212.7880  151.8930 C   0  0  0  0  0  2  0  0  0  0  0  0
  157.6920  213.7150  156.6860 O   0  0  0  0  0  1  0  0  0  0  0  0
  156.7490  213.9000  154.4790 C   0  0  1  0  0  3  0  0  0  0  0  0
  158.3390  212.7730  152.5600 C   0  0  2  0  0  3  0  0  0  0  0  0
  157.8930  214.4520  153.1590 S   0  0  0  0  0  0  0  0  0  0  0  0
  158.6750  212.2590  155.0350 C   0  0  2  0  0  3  0  0  0  0  0  0
  159.7930  213.0990  155.0870 O   0  0  0  0  0  1  0  0  0  0  0  0
  159.6030  210.8780  153.0670 C   0  0  2  0  0  3  0  0  0  0  0  0
  158.4520  211.6990  153.6200 C   0  0  2  0  0  3  0  0  0  0  0  0
  155.5200  213.2360  153.8750 C   0  0  0  0  0  2  0  0  0  0  0  0
  154.6960  214.3200  151.8110 C   0  0  0  0  0  1  0  0  0  0  0  0
  154.5710  214.2790  153.3180 C   0  0  0  0  0  2  0  0  0  0  0  0
  160.6000  208.0530  152.1500 C   0  0  0  0  0  2  0  0  0  0  0  0
  161.5790  207.1260  151.4420 C   0  0  0  0  0  2  0  0  0  0  0  0
  161.8670  208.2770  148.9410 C   0  0  0  0  0  0  0  0  0  0  0  0
  161.4270  206.9550  148.6920 N   0  0  0  0  0  0  0  0  0  0  0  0
  162.2580  209.3950  148.5170 O   0  0  0  0  0  0  0  0  0  0  0  0
  161.5800  207.4040  150.0180 N   0  0  0  0  0  0  0  0  0  0  0  0
  161.1530  205.8810  147.7580 C   0  0  0  0  0  2  0  0  0  0  0  0
  162.0190  205.9740  146.6700 O   0  0  0  0  0  1  0  0  0  0  0  0
  1 25  1  6  0  0  0
  1  4  1  0  0  0  0
  1  2  1  0  0  0  0
  2  7  1  0  0  0  0
  4  8  1  1  0  0  0
  6  9  1  0  0  0  0
  6  5  1  1  0  0  0
  7  6  1  0  0  0  0
  8 10  1  0  0  0  0
  9  3  1  1  0  0  0
  9  5  1  0  0  0  0
 10  3  2  0  0  0  0
 12 14  1  1  0  0  0
 13 11  1  0  0  0  0
 15 22  1  6  0  0  0
 15 12  1  0  0  0  0
 16 13  1  1  0  0  0
 16 17  1  0  0  0  0
 16 21  1  0  0  0  0
 17 15  1  0  0  0  0
 18 19  1  6  0  0  0
 18 12  1  0  0  0  0
 20 11  1  1  0  0  0
 20 21  1  0  0  0  0
 20  4  1  0  0  0  0
 21 18  1  0  0  0  0
 23 24  1  0  0  0  0
 24 22  1  0  0  0  0
 26 25  1  0  0  0  0
 27 30  1  0  0  0  0
 28 27  1  0  0  0  0
 28 30  1  0  0  0  0
 29 27  2  0  0  0  0
 30 26  1  0  0  0  0
 31 28  1  0  0  0  0
 32 31  1  0  0  0  0
M  END
>  <MODEL>
5

>  <REMARK>
 VINA RESULT:      -3.7      2.635      3.616
  Name = 
  7 active torsions:
  status: ('A' for Active; 'I' for Inactive)
    1  A    between atoms: C_2  and  C_5
    2  A    between atoms: C_5  and  C_18
    3  A    between atoms: C_10  and  C_24
    4  A    between atoms: N_14  and  C_21
    5  A    between atoms: C_15  and  C_19
    6  A    between atoms: C_18  and  N_29
    7  A    between atoms: C_19  and  C_26
                            x       y       z     vdW  Elec       q    Type
                         _______ _______ _______ _____ _____    ______ ____

>  <TORSDO>
F 7

$$$$
=
 OpenBabel11062408173D

 32 36  0  0  1  0  0  0  0  0999 V2000
  162.2270  208.3090  149.6210 C   0  0  2  0  0  3  0  0  0  0  0  0
  162.3420  207.3590  150.8270 C   0  0  0  0  0  2  0  0  0  0  0  0
  161.3600  210.4480  152.9410 C   0  0  0  0  0  3  0  0  0  0  0  0
  161.9820  209.7970  149.9870 C   0  0  1  0  0  3  0  0  0  0  0  0
  160.1100  208.3060  153.4930 C   0  0  0  0  0  2  0  0  0  0  0  0
  161.3540  208.0770  152.6580 C   0  0  1  0  0  3  0  0  0  0  0  0
  161.1430  207.2590  151.5510 O   0  0  0  0  0  0  0  0  0  0  0  0
  162.8900  210.2670  151.0340 N   0  0  0  0  0  2  0  0  0  0  0  0
  160.5160  209.3240  152.4470 C   0  0  2  0  0  3  0  0  0  0  0  0
  162.4600  210.8400  152.2830 C   0  0  0  0  0  3  0  0  0  0  0  0
  163.2020  211.5500  148.7320 O   0  0  0  0  0  0  0  0  0  0  0  0
  158.9630  213.1240  149.4480 C   0  0  1  0  0  3  0  0  0  0  0  0
  162.9160  212.6100  147.8460 C   0  0  0  0  0  2  0  0  0  0  0  0
  158.5550  213.9130  150.5250 O   0  0  0  0  0  1  0  0  0  0  0  0
  159.0850  213.9820  148.1780 C   0  0  1  0  0  3  0  0  0  0  0  0
  161.4190  212.6820  147.5890 C   0  0  2  0  0  3  0  0  0  0  0  0
  160.8160  214.4100  147.7570 S   0  0  0  0  0  0  0  0  0  0  0  0
  160.2190  212.3210  149.8110 C   0  0  2  0  0  3  0  0  0  0  0  0
  161.1500  213.1270  150.4770 O   0  0  0  0  0  1  0  0  0  0  0  0
  162.0280  210.7850  148.8040 C   0  0  2  0  0  3  0  0  0  0  0  0
  160.8250  211.6770  148.5520 C   0  0  2  0  0  3  0  0  0  0  0  0
  158.3980  213.3190  146.9930 C   0  0  0  0  0  2  0  0  0  0  0  0
  158.7930  213.1790  144.5560 C   0  0  0  0  0  1  0  0  0  0  0  0
  158.6270  214.1220  145.7280 C   0  0  0  0  0  2  0  0  0  0  0  0
  161.2610  207.7570  148.5670 C   0  0  0  0  0  2  0  0  0  0  0  0
  161.9490  206.8650  147.5410 C   0  0  0  0  0  2  0  0  0  0  0  0
  161.2240  204.4670  148.7170 C   0  0  0  0  0  0  0  0  0  0  0  0
  161.4150  204.1650  147.3480 N   0  0  0  0  0  0  0  0  0  0  0  0
  160.8930  204.1100  149.8770 O   0  0  0  0  0  0  0  0  0  0  0  0
  161.6440  205.4740  147.8150 N   0  0  0  0  0  0  0  0  0  0  0  0
  161.3140  203.2290  146.2450 C   0  0  0  0  0  2  0  0  0  0  0  0
  161.5680  203.8920  145.0450 O   0  0  0  0  0  1  0  0  0  0  0  0
  1 25  1  6  0  0  0
  1  4  1  0  0  0  0
  1  2  1  0  0  0  0
  2  7  1  0  0  0  0
  4  8  1  1  0  0  0
  6  5  1  1  0  0  0
  7  6  1  0  0  0  0
  8 10  1  0  0  0  0
  9  6  1  0  0  0  0
  9  3  1  1  0  0  0
  9  5  1  0  0  0  0
 10  3  2  0  0  0  0
 12 18  1  0  0  0  0
 12 14  1  1  0  0  0
 13 11  1  0  0  0  0
 15 22  1  6  0  0  0
 15 12  1  0  0  0  0
 16 17  1  0  0  0  0
 16 13  1  1  0  0  0
 16 21  1  0  0  0  0
 17 15  1  0  0  0  0
 18 19  1  6  0  0  0
 20 11  1  1  0  0  0
 20  4  1  0  0  0  0
 21 20  1  0  0  0  0
 21 18  1  0  0  0  0
 23 24  1  0  0  0  0
 24 22  1  0  0  0  0
 26 30  1  0  0  0  0
 26 25  1  0  0  0  0
 27 29  2  0  0  0  0
 28 30  1  0  0  0  0
 28 27  1  0  0  0  0
 30 27  1  0  0  0  0
 31 28  1  0  0  0  0
 32 31  1  0  0  0  0
M  END
>  <MODEL>
6

>  <REMARK>
 VINA RESULT:      -3.6      4.226      6.897
  Name = 
  7 active torsions:
  status: ('A' for Active; 'I' for Inactive)
    1  A    between atoms: C_2  and  C_5
    2  A    between atoms: C_5  and  C_18
    3  A    between atoms: C_10  and  C_24
    4  A    between atoms: N_14  and  C_21
    5  A    between atoms: C_15  and  C_19
    6  A    between atoms: C_18  and  N_29
    7  A    between atoms: C_19  and  C_26
                            x       y       z     vdW  Elec       q    Type
                         _______ _______ _______ _____ _____    ______ ____

>  <TORSDO>
F 7

$$$$
=
 OpenBabel11062408173D

 32 36  0  0  1  0  0  0  0  0999 V2000
  159.7190  211.4180  154.7220 C   0  0  2  0  0  3  0  0  0  0  0  0
  159.4840  212.9370  154.8130 C   0  0  0  0  0  2  0  0  0  0  0  0
  159.0790  212.7760  150.9680 C   0  0  0  0  0  3  0  0  0  0  0  0
  159.8070  210.8590  153.2770 C   0  0  1  0  0  3  0  0  0  0  0  0
  157.3020  214.1110  152.1970 C   0  0  0  0  0  2  0  0  0  0  0  0
  158.5280  213.8250  153.0410 C   0  0  1  0  0  3  0  0  0  0  0  0
  158.2330  213.3200  154.3040 O   0  0  0  0  0  0  0  0  0  0  0  0
  160.6970  211.6530  152.4290 N   0  0  0  0  0  2  0  0  0  0  0  0
  158.0410  212.7980  152.0350 C   0  0  2  0  0  3  0  0  0  0  0  0
  160.3000  212.2670  151.1890 C   0  0  0  0  0  3  0  0  0  0  0  0
  161.1550  208.9540  154.1070 O   0  0  0  0  0  0  0  0  0  0  0  0
  161.6990  209.0960  149.5650 C   0  0  1  0  0  3  0  0  0  0  0  0
  161.6480  207.7200  153.6340 C   0  0  0  0  0  2  0  0  0  0  0  0
  162.7170  209.7640  148.8840 O   0  0  0  0  0  1  0  0  0  0  0  0
  161.9670  207.5820  149.5650 C   0  0  1  0  0  3  0  0  0  0  0  0
  161.2090  207.5050  152.1930 C   0  0  2  0  0  3  0  0  0  0  0  0
  162.6290  206.9650  151.1580 S   0  0  0  0  0  0  0  0  0  0  0  0
  161.4760  209.7160  150.9500 C   0  0  2  0  0  3  0  0  0  0  0  0
  162.6990  209.9600  151.5870 O   0  0  0  0  0  1  0  0  0  0  0  0
  160.2050  209.3730  153.1660 C   0  0  2  0  0  3  0  0  0  0  0  0
  160.5630  208.8150  151.8000 C   0  0  2  0  0  3  0  0  0  0  0  0
  160.7240  206.7990  149.1670 C   0  0  0  0  0  2  0  0  0  0  0  0
  160.8940  204.4100  148.5510 C   0  0  0  0  0  1  0  0  0  0  0  0
  161.0430  205.8290  148.0470 C   0  0  0  0  0  2  0  0  0  0  0  0
  158.7550  210.6500  155.6330 C   0  0  0  0  0  2  0  0  0  0  0  0
  159.2200  210.5990  157.0820 C   0  0  0  0  0  2  0  0  0  0  0  0
  160.8050  208.3350  157.2430 C   0  0  0  0  0  0  0  0  0  0  0  0
  161.7100  209.4230  157.2610 N   0  0  0  0  0  0  0  0  0  0  0  0
  160.5880  207.0970  157.2310 O   0  0  0  0  0  0  0  0  0  0  0  0
  160.3240  209.6670  157.2130 N   0  0  0  0  0  0  0  0  0  0  0  0
  163.0710  209.9220  157.2180 C   0  0  0  0  0  2  0  0  0  0  0  0
  163.2490  210.6970  156.0730 O   0  0  0  0  0  1  0  0  0  0  0  0
  1  2  1  0  0  0  0
  1 25  1  6  0  0  0
  3 10  2  0  0  0  0
  4  8  1  6  0  0  0
  4  1  1  0  0  0  0
  6  5  1  6  0  0  0
  6  7  1  0  0  0  0
  7  2  1  0  0  0  0
  9  3  1  6  0  0  0
  9  5  1  0  0  0  0
  9  6  1  0  0  0  0
 10  8  1  0  0  0  0
 12 14  1  1  0  0  0
 12 15  1  0  0  0  0
 12 18  1  0  0  0  0
 13 11  1  0  0  0  0
 15 22  1  1  0  0  0
 15 17  1  0  0  0  0
 16 13  1  1  0  0  0
 17 16  1  0  0  0  0
 18 19  1  1  0  0  0
 18 21  1  0  0  0  0
 20  4  1  0  0  0  0
 20 11  1  1  0  0  0
 21 16  1  0  0  0  0
 21 20  1  0  0  0  0
 24 23  1  0  0  0  0
 24 22  1  0  0  0  0
 25 26  1  0  0  0  0
 26 30  1  0  0  0  0
 27 28  1  0  0  0  0
 29 27  2  0  0  0  0
 30 27  1  0  0  0  0
 30 28  1  0  0  0  0
 31 28  1  0  0  0  0
 32 31  1  0  0  0  0
M  END
>  <MODEL>
7

>  <REMARK>
 VINA RESULT:      -3.6      3.208      7.588
  Name = 
  7 active torsions:
  status: ('A' for Active; 'I' for Inactive)
    1  A    between atoms: C_2  and  C_5
    2  A    between atoms: C_5  and  C_18
    3  A    between atoms: C_10  and  C_24
    4  A    between atoms: N_14  and  C_21
    5  A    between atoms: C_15  and  C_19
    6  A    between atoms: C_18  and  N_29
    7  A    between atoms: C_19  and  C_26
                            x       y       z     vdW  Elec       q    Type
                         _______ _______ _______ _____ _____    ______ ____

>  <TORSDO>
F 7

$$$$
=
 OpenBabel11062408173D

 32 36  0  0  1  0  0  0  0  0999 V2000
  162.1010  208.7250  150.6240 C   0  0  2  0  0  3  0  0  0  0  0  0
  162.9830  207.5350  150.2030 C   0  0  0  0  0  2  0  0  0  0  0  0
  160.8310  205.4830  152.6800 C   0  0  0  0  0  3  0  0  0  0  0  0
  161.1150  208.4250  151.7840 C   0  0  1  0  0  3  0  0  0  0  0  0
  161.1990  204.4100  150.4070 C   0  0  0  0  0  2  0  0  0  0  0  0
  162.1490  205.5570  150.6900 C   0  0  1  0  0  3  0  0  0  0  0  0
  162.2380  206.4800  149.6510 O   0  0  0  0  0  0  0  0  0  0  0  0
  161.7660  207.7390  152.9010 N   0  0  0  0  0  2  0  0  0  0  0  0
  160.7210  205.6100  151.2000 C   0  0  2  0  0  3  0  0  0  0  0  0
  161.3410  206.4700  153.4310 C   0  0  0  0  0  3  0  0  0  0  0  0
  160.7150  210.8690  151.7570 O   0  0  0  0  0  0  0  0  0  0  0  0
  161.2050  209.6450  156.1400 C   0  0  1  0  0  3  0  0  0  0  0  0
  160.1870  211.8650  152.6060 C   0  0  0  0  0  2  0  0  0  0  0  0
  162.3980  209.6580  156.8640 O   0  0  0  0  0  1  0  0  0  0  0  0
  160.3200  210.8330  156.5540 C   0  0  1  0  0  3  0  0  0  0  0  0
  159.7280  211.2410  153.9140 C   0  0  2  0  0  3  0  0  0  0  0  0
  160.3480  212.2110  155.3470 S   0  0  0  0  0  0  0  0  0  0  0  0
  161.4850  209.5380  154.6360 C   0  0  2  0  0  3  0  0  0  0  0  0
  162.5190  210.4040  154.2610 O   0  0  0  0  0  1  0  0  0  0  0  0
  160.3420  209.6430  152.3280 C   0  0  2  0  0  3  0  0  0  0  0  0
  160.2020  209.8060  153.8310 C   0  0  2  0  0  3  0  0  0  0  0  0
  158.8890  210.3900  156.8240 C   0  0  0  0  0  2  0  0  0  0  0  0
  156.7620  211.5780  156.4000 C   0  0  0  0  0  1  0  0  0  0  0  0
  158.0330  211.5760  157.2220 C   0  0  0  0  0  2  0  0  0  0  0  0
  161.4510  209.3940  149.4080 C   0  0  0  0  0  2  0  0  0  0  0  0
  162.3560  210.4200  148.7400 C   0  0  0  0  0  2  0  0  0  0  0  0
  160.8320  212.1630  147.2230 C   0  0  0  0  0  0  0  0  0  0  0  0
  160.8470  212.7210  148.5240 N   0  0  0  0  0  0  0  0  0  0  0  0
  160.4340  212.1880  146.0300 O   0  0  0  0  0  0  0  0  0  0  0  0
  161.5650  211.5380  148.2610 N   0  0  0  0  0  0  0  0  0  0  0  0
  160.3650  213.7070  149.4710 C   0  0  0  0  0  2  0  0  0  0  0  0
  159.3350  214.4470  148.8910 O   0  0  0  0  0  1  0  0  0  0  0  0
  1 25  1  6  0  0  0
  1  4  1  0  0  0  0
  2  1  1  0  0  0  0
  3 10  2  0  0  0  0
  4 20  1  0  0  0  0
  4  8  1  1  0  0  0
  6  5  1  6  0  0  0
  6  9  1  0  0  0  0
  7  2  1  0  0  0  0
  7  6  1  0  0  0  0
  8 10  1  0  0  0  0
  9  5  1  6  0  0  0
  9  3  1  0  0  0  0
 11 13  1  0  0  0  0
 12 15  1  0  0  0  0
 12 14  1  1  0  0  0
 15 22  1  6  0  0  0
 16 13  1  6  0  0  0
 16 17  1  0  0  0  0
 17 15  1  0  0  0  0
 18 19  1  6  0  0  0
 18 12  1  0  0  0  0
 20 11  1  1  0  0  0
 20 21  1  0  0  0  0
 21 16  1  0  0  0  0
 21 18  1  0  0  0  0
 22 24  1  0  0  0  0
 23 24  1  0  0  0  0
 26 25  1  0  0  0  0
 27 30  1  0  0  0  0
 27 28  1  0  0  0  0
 28 31  1  0  0  0  0
 29 27  2  0  0  0  0
 30 28  1  0  0  0  0
 30 26  1  0  0  0  0
 32 31  1  0  0  0  0
M  END
>  <MODEL>
8

>  <REMARK>
 VINA RESULT:      -3.5      2.674      4.223
  Name = 
  7 active torsions:
  status: ('A' for Active; 'I' for Inactive)
    1  A    between atoms: C_2  and  C_5
    2  A    between atoms: C_5  and  C_18
    3  A    between atoms: C_10  and  C_24
    4  A    between atoms: N_14  and  C_21
    5  A    between atoms: C_15  and  C_19
    6  A    between atoms: C_18  and  N_29
    7  A    between atoms: C_19  and  C_26
                            x       y       z     vdW  Elec       q    Type
                         _______ _______ _______ _____ _____    ______ ____

>  <TORSDO>
F 7

$$$$
=
 OpenBabel11062408173D

 32 36  0  0  1  0  0  0  0  0999 V2000
  159.5930  211.3880  155.0000 C   0  0  2  0  0  3  0  0  0  0  0  0
  159.4090  212.9170  154.9760 C   0  0  0  0  0  2  0  0  0  0  0  0
  159.4350  212.5340  151.1250 C   0  0  0  0  0  3  0  0  0  0  0  0
  159.8220  210.7390  153.6090 C   0  0  1  0  0  3  0  0  0  0  0  0
  157.5840  213.9980  152.0630 C   0  0  0  0  0  2  0  0  0  0  0  0
  158.6940  213.7250  153.0570 C   0  0  1  0  0  3  0  0  0  0  0  0
  158.2390  213.3090  154.3050 O   0  0  0  0  0  0  0  0  0  0  0  0
  160.8320  211.4510  152.8250 N   0  0  0  0  0  2  0  0  0  0  0  0
  158.2840  212.6550  152.0630 C   0  0  2  0  0  3  0  0  0  0  0  0
  160.6020  212.0000  151.5140 C   0  0  0  0  0  3  0  0  0  0  0  0
  161.1460  208.8810  154.5710 O   0  0  0  0  0  0  0  0  0  0  0  0
  161.5080  208.5630  150.0190 C   0  0  1  0  0  3  0  0  0  0  0  0
  161.5830  207.5910  154.2020 C   0  0  0  0  0  2  0  0  0  0  0  0
  162.5180  209.1280  149.2380 O   0  0  0  0  0  1  0  0  0  0  0  0
  161.7320  207.0480  150.1580 C   0  0  1  0  0  3  0  0  0  0  0  0
  161.0800  207.2520  152.8080 C   0  0  2  0  0  3  0  0  0  0  0  0
  162.4410  206.5670  151.7780 S   0  0  0  0  0  0  0  0  0  0  0  0
  161.3600  209.3210  151.3440 C   0  0  2  0  0  3  0  0  0  0  0  0
  162.6140  209.5850  151.9080 O   0  0  0  0  0  1  0  0  0  0  0  0
  160.1710  209.2380  153.6290 C   0  0  2  0  0  3  0  0  0  0  0  0
  160.4570  208.5380  152.3120 C   0  0  2  0  0  3  0  0  0  0  0  0
  160.4520  206.2720  149.8860 C   0  0  0  0  0  2  0  0  0  0  0  0
  161.2020  204.2620  148.6560 C   0  0  0  0  0  1  0  0  0  0  0  0
  160.7030  204.7800  149.9870 C   0  0  0  0  0  2  0  0  0  0  0  0
  158.5020  210.7090  155.8360 C   0  0  0  0  0  2  0  0  0  0  0  0
  158.1380  211.4950  157.0880 C   0  0  0  0  0  2  0  0  0  0  0  0
  155.3710  211.5390  157.1250 C   0  0  0  0  0  0  0  0  0  0  0  0
  155.7610  212.8940  157.0050 N   0  0  0  0  0  0  0  0  0  0  0  0
  154.4700  210.6710  157.2500 O   0  0  0  0  0  0  0  0  0  0  0  0
  156.7410  211.8830  157.0370 N   0  0  0  0  0  0  0  0  0  0  0  0
  155.4150  214.3020  156.9950 C   0  0  0  0  0  2  0  0  0  0  0  0
  154.0790  214.4530  156.6250 O   0  0  0  0  0  1  0  0  0  0  0  0
  1 25  1  6  0  0  0
  2  1  1  0  0  0  0
  3 10  2  0  0  0  0
  4  8  1  1  0  0  0
  4 20  1  0  0  0  0
  4  1  1  0  0  0  0
  6  5  1  6  0  0  0
  6  7  1  0  0  0  0
  7  2  1  0  0  0  0
  9  3  1  6  0  0  0
  9  5  1  0  0  0  0
  9  6  1  0  0  0  0
 10  8  1  0  0  0  0
 12 14  1  1  0  0  0
 12 15  1  0  0  0  0
 12 18  1  0  0  0  0
 13 11  1  0  0  0  0
 15 22  1  1  0  0  0
 15 17  1  0  0  0  0
 16 13  1  1  0  0  0
 17 16  1  0  0  0  0
 18 19  1  1  0  0  0
 18 21  1  0  0  0  0
 20 11  1  1  0  0  0
 21 16  1  0  0  0  0
 21 20  1  0  0  0  0
 22 24  1  0  0  0  0
 23 24  1  0  0  0  0
 25 26  1  0  0  0  0
 27 29  2  0  0  0  0
 28 30  1  0  0  0  0
 28 27  1  0  0  0  0
 30 26  1  0  0  0  0
 30 27  1  0  0  0  0
 31 28  1  0  0  0  0
 32 31  1  0  0  0  0
M  END
>  <MODEL>
9

>  <REMARK>
 VINA RESULT:      -3.4      3.346      7.765
  Name = 
  7 active torsions:
  status: ('A' for Active; 'I' for Inactive)
    1  A    between atoms: C_2  and  C_5
    2  A    between atoms: C_5  and  C_18
    3  A    between atoms: C_10  and  C_24
    4  A    between atoms: N_14  and  C_21
    5  A    between atoms: C_15  and  C_19
    6  A    between atoms: C_18  and  N_29
    7  A    between atoms: C_19  and  C_26
                            x       y       z     vdW  Elec       q    Type
                         _______ _______ _______ _____ _____    ______ ____

>  <TORSDO>
F 7

$$$$
