=
 OpenBabel11052423073D

 27 31  0  0  1  0  0  0  0  0999 V2000
  162.3400  209.9530  153.3580 C   0  0  0  0  0  2  0  0  0  0  0  0
  161.6860  210.0420  150.9630 C   0  0  0  0  0  0  0  0  0  0  0  0
  160.4050  211.8350  152.1330 N   0  0  0  0  0  2  0  0  0  0  0  0
  161.6060  212.2700  147.2980 C   0  0  0  0  0  2  0  0  0  0  0  0
  162.4260  214.4520  147.8700 O   0  0  0  0  0  1  0  0  0  0  0  0
  162.2330  209.5660  149.8100 N   0  0  0  0  0  0  0  0  0  0  0  0
  160.4840  213.4660  149.7950 C   0  0  0  0  0  2  0  0  0  0  0  0
  157.5940  211.3970  153.8240 C   0  0  0  0  0  1  0  0  0  0  0  0
  160.1310  213.9710  148.3970 C   0  0  0  0  0  2  0  0  0  0  0  0
  159.2900  211.6190  155.5450 O   0  0  0  0  0  0  0  0  0  0  0  0
  161.0660  211.3150  150.9680 C   0  0  0  0  0  0  0  0  0  0  0  0
  161.8240  209.2720  152.1700 N   0  0  0  0  0  0  0  0  0  0  0  0
  161.2950  213.7590  147.4340 C   0  0  2  0  0  3  0  0  0  0  0  0
  161.6570  211.5490  148.6170 C   0  0  0  0  0  0  0  0  0  0  0  0
  161.2300  210.6530  154.1400 C   0  0  2  0  0  3  0  0  0  0  0  0
  161.0580  212.0730  149.7820 C   0  0  0  0  0  0  0  0  0  0  0  0
  159.0270  211.7770  154.1610 C   0  0  1  0  0  3  0  0  0  0  0  0
  162.2210  210.2760  148.6550 C   0  0  0  0  0  3  0  0  0  0  0  0
  159.6060  210.2630  155.7960 C   0  0  0  0  0  2  0  0  0  0  0  0
  160.8770  209.8880  155.2790 O   0  0  0  0  0  0  0  0  0  0  0  0
  160.0170  211.0200  153.2770 C   0  0  1  0  0  3  0  0  0  0  0  0
  160.9240  205.1150  152.3000 C   0  0  0  0  0  3  0  0  0  0  0  0
  161.5050  207.8650  152.2180 C   0  0  0  0  0  0  0  0  0  0  0  0
  161.5390  207.1620  153.4350 C   0  0  0  0  0  3  0  0  0  0  0  0
  161.2480  205.7950  153.4760 C   0  0  0  0  0  3  0  0  0  0  0  0
  160.8920  205.8000  151.0840 C   0  0  0  0  0  3  0  0  0  0  0  0
  161.1830  207.1660  151.0430 C   0  0  0  0  0  3  0  0  0  0  0  0
  2 11  1  0  0  0  0
  2 12  1  0  0  0  0
  4 13  1  0  0  0  0
  4 14  1  0  0  0  0
  6  2  2  0  0  0  0
  9  7  1  0  0  0  0
 10 19  1  0  0  0  0
 11  3  1  0  0  0  0
 12 23  1  0  0  0  0
 12  1  1  0  0  0  0
 13  5  1  1  0  0  0
 13  9  1  0  0  0  0
 14 18  2  0  0  0  0
 14 16  1  0  0  0  0
 15  1  1  6  0  0  0
 15 20  1  0  0  0  0
 16  7  1  0  0  0  0
 16 11  2  0  0  0  0
 17  8  1  1  0  0  0
 17 10  1  0  0  0  0
 18  6  1  0  0  0  0
 20 19  1  0  0  0  0
 21  3  1  6  0  0  0
 21 15  1  0  0  0  0
 21 17  1  0  0  0  0
 22 25  1  0  0  0  0
 23 24  1  0  0  0  0
 24 25  2  0  0  0  0
 26 22  2  0  0  0  0
 27 26  1  0  0  0  0
 27 23  2  0  0  0  0
M  END
>  <MODEL>
1

>  <REMARK>
 VINA RESULT:      -6.4      0.000      0.000
  Name = 
  1 active torsions:
  status: ('A' for Active; 'I' for Inactive)
    1  A    between atoms: C_9  and  N_15
                            x       y       z     vdW  Elec       q    Type
                         _______ _______ _______ _____ _____    ______ ____

>  <TORSDO>
F 1

$$$$
=
 OpenBabel11052423073D

 27 31  0  0  1  0  0  0  0  0999 V2000
  160.8480  211.6890  155.0840 C   0  0  0  0  0  2  0  0  0  0  0  0
  160.8450  211.0010  152.6960 C   0  0  0  0  0  0  0  0  0  0  0  0
  159.1260  212.7940  152.9390 N   0  0  0  0  0  2  0  0  0  0  0  0
  161.5130  212.0890  148.6000 C   0  0  0  0  0  2  0  0  0  0  0  0
  161.9280  214.4530  148.6370 O   0  0  0  0  0  1  0  0  0  0  0  0
  161.7220  210.3310  151.8990 N   0  0  0  0  0  0  0  0  0  0  0  0
  159.6560  213.7090  150.2890 C   0  0  0  0  0  2  0  0  0  0  0  0
  156.0270  212.3510  154.0130 C   0  0  0  0  0  1  0  0  0  0  0  0
  159.6360  213.7400  148.7620 C   0  0  0  0  0  2  0  0  0  0  0  0
  157.1760  213.3300  155.9120 O   0  0  0  0  0  0  0  0  0  0  0  0
  160.1200  212.0980  152.1690 C   0  0  0  0  0  0  0  0  0  0  0  0
  160.7350  210.6290  154.0810 N   0  0  0  0  0  0  0  0  0  0  0  0
  161.0280  213.4800  148.1970 C   0  0  2  0  0  3  0  0  0  0  0  0
  161.2850  211.7780  150.0540 C   0  0  0  0  0  0  0  0  0  0  0  0
  159.5060  212.3710  155.3430 C   0  0  2  0  0  3  0  0  0  0  0  0
  160.3500  212.4880  150.8360 C   0  0  0  0  0  0  0  0  0  0  0  0
  157.2740  213.0540  154.5250 C   0  0  1  0  0  3  0  0  0  0  0  0
  161.9450  210.6840  150.6090 C   0  0  0  0  0  3  0  0  0  0  0  0
  157.5500  212.1720  156.6340 C   0  0  0  0  0  2  0  0  0  0  0  0
  158.9430  211.8980  156.5540 O   0  0  0  0  0  0  0  0  0  0  0  0
  158.5340  212.2690  154.1620 C   0  0  1  0  0  3  0  0  0  0  0  0
  160.2550  206.5790  155.2990 C   0  0  0  0  0  3  0  0  0  0  0  0
  160.5590  209.2560  154.4900 C   0  0  0  0  0  0  0  0  0  0  0  0
  159.9860  208.9450  155.7360 C   0  0  0  0  0  3  0  0  0  0  0  0
  159.8330  207.6150  156.1370 C   0  0  0  0  0  3  0  0  0  0  0  0
  160.8300  206.8740  154.0610 C   0  0  0  0  0  3  0  0  0  0  0  0
  160.9840  208.2040  153.6600 C   0  0  0  0  0  3  0  0  0  0  0  0
  2 12  1  0  0  0  0
  4 14  1  0  0  0  0
  6  2  2  0  0  0  0
  7 16  1  0  0  0  0
  9  7  1  0  0  0  0
 10 19  1  0  0  0  0
 11  2  1  0  0  0  0
 11  3  1  0  0  0  0
 12 23  1  0  0  0  0
 12  1  1  0  0  0  0
 13  4  1  0  0  0  0
 13  5  1  1  0  0  0
 13  9  1  0  0  0  0
 14 18  2  0  0  0  0
 14 16  1  0  0  0  0
 15  1  1  6  0  0  0
 15 20  1  0  0  0  0
 16 11  2  0  0  0  0
 17  8  1  1  0  0  0
 17 10  1  0  0  0  0
 18  6  1  0  0  0  0
 20 19  1  0  0  0  0
 21  3  1  6  0  0  0
 21 17  1  0  0  0  0
 21 15  1  0  0  0  0
 22 25  1  0  0  0  0
 23 24  1  0  0  0  0
 24 25  2  0  0  0  0
 26 22  2  0  0  0  0
 27 26  1  0  0  0  0
 27 23  2  0  0  0  0
M  END
>  <MODEL>
2

>  <REMARK>
 VINA RESULT:      -5.2      1.625      2.359
  Name = 
  1 active torsions:
  status: ('A' for Active; 'I' for Inactive)
    1  A    between atoms: C_9  and  N_15
                            x       y       z     vdW  Elec       q    Type
                         _______ _______ _______ _____ _____    ______ ____

>  <TORSDO>
F 1

$$$$
=
 OpenBabel11052423073D

 27 31  0  0  1  0  0  0  0  0999 V2000
  160.4510  214.2750  150.1710 C   0  0  0  0  0  2  0  0  0  0  0  0
  159.0990  212.7870  151.6320 C   0  0  0  0  0  0  0  0  0  0  0  0
  161.2060  211.5620  151.0960 N   0  0  0  0  0  2  0  0  0  0  0  0
  158.7440  210.7040  155.3650 C   0  0  0  0  0  2  0  0  0  0  0  0
  160.8660  210.9930  156.4510 O   0  0  0  0  0  1  0  0  0  0  0  0
  158.0500  212.9840  152.4770 N   0  0  0  0  0  0  0  0  0  0  0  0
  161.1520  210.2850  153.6460 C   0  0  0  0  0  2  0  0  0  0  0  0
  161.7760  209.8400  148.3280 C   0  0  0  0  0  1  0  0  0  0  0  0
  160.7290  209.3080  154.7420 C   0  0  0  0  0  2  0  0  0  0  0  0
  163.0090  211.9030  148.0030 O   0  0  0  0  0  0  0  0  0  0  0  0
  160.1160  211.8660  151.9830 C   0  0  0  0  0  0  0  0  0  0  0  0
  159.1890  213.5820  150.4360 N   0  0  0  0  0  0  0  0  0  0  0  0
  160.0210  210.0410  155.8770 C   0  0  2  0  0  3  0  0  0  0  0  0
  158.9380  211.4490  154.0730 C   0  0  0  0  0  0  0  0  0  0  0  0
  161.4490  213.3790  149.4400 C   0  0  2  0  0  3  0  0  0  0  0  0
  160.0310  211.1980  153.2180 C   0  0  0  0  0  0  0  0  0  0  0  0
  162.3170  211.1130  148.9560 C   0  0  1  0  0  3  0  0  0  0  0  0
  157.9450  212.3360  153.6650 C   0  0  0  0  0  3  0  0  0  0  0  0
  162.0670  212.6750  147.2830 C   0  0  0  0  0  2  0  0  0  0  0  0
  161.4910  213.7140  148.0650 O   0  0  0  0  0  0  0  0  0  0  0  0
  161.2090  211.8830  149.6750 C   0  0  1  0  0  3  0  0  0  0  0  0
  155.9040  214.0720  147.7750 C   0  0  0  0  0  3  0  0  0  0  0  0
  158.0720  213.7350  149.5350 C   0  0  0  0  0  0  0  0  0  0  0  0
  158.1810  213.3590  148.1850 C   0  0  0  0  0  3  0  0  0  0  0  0
  157.1030  213.5250  147.3100 C   0  0  0  0  0  3  0  0  0  0  0  0
  155.7840  214.4530  149.1130 C   0  0  0  0  0  3  0  0  0  0  0  0
  156.8620  214.2880  149.9870 C   0  0  0  0  0  3  0  0  0  0  0  0
  1 12  1  0  0  0  0
  2 11  2  0  0  0  0
  2  6  1  0  0  0  0
  3 11  1  0  0  0  0
  4 13  1  0  0  0  0
  6 18  2  0  0  0  0
  7  9  1  0  0  0  0
  9 13  1  0  0  0  0
 10 17  1  0  0  0  0
 11 16  1  0  0  0  0
 12  2  1  0  0  0  0
 13  5  1  6  0  0  0
 14  4  1  0  0  0  0
 15 21  1  0  0  0  0
 15  1  1  1  0  0  0
 16  7  1  0  0  0  0
 16 14  2  0  0  0  0
 17  8  1  6  0  0  0
 17 21  1  0  0  0  0
 18 14  1  0  0  0  0
 19 10  1  0  0  0  0
 19 20  1  0  0  0  0
 20 15  1  0  0  0  0
 21  3  1  1  0  0  0
 22 26  1  0  0  0  0
 23 27  1  0  0  0  0
 23 12  1  0  0  0  0
 24 23  2  0  0  0  0
 25 22  2  0  0  0  0
 25 24  1  0  0  0  0
 26 27  2  0  0  0  0
M  END
>  <MODEL>
3

>  <REMARK>
 VINA RESULT:      -4.5      2.224      7.341
  Name = 
  1 active torsions:
  status: ('A' for Active; 'I' for Inactive)
    1  A    between atoms: C_9  and  N_15
                            x       y       z     vdW  Elec       q    Type
                         _______ _______ _______ _____ _____    ______ ____

>  <TORSDO>
F 1

$$$$
=
 OpenBabel11052423073D

 27 31  0  0  1  0  0  0  0  0999 V2000
  163.0180  210.8880  150.1310 C   0  0  0  0  0  2  0  0  0  0  0  0
  161.7000  208.7840  150.2310 C   0  0  0  0  0  0  0  0  0  0  0  0
  161.5520  209.6260  147.8860 N   0  0  0  0  0  2  0  0  0  0  0  0
  161.2060  204.7390  148.8920 C   0  0  0  0  0  2  0  0  0  0  0  0
  162.8540  204.4390  147.1720 O   0  0  0  0  0  1  0  0  0  0  0  0
  161.6520  207.7330  151.0940 N   0  0  0  0  0  0  0  0  0  0  0  0
  161.4220  206.9530  146.8980 C   0  0  0  0  0  2  0  0  0  0  0  0
  159.4610  211.9550  146.8100 C   0  0  0  0  0  1  0  0  0  0  0  0
  160.8310  205.5850  146.5630 C   0  0  0  0  0  2  0  0  0  0  0  0
  161.5890  213.1070  146.9860 O   0  0  0  0  0  0  0  0  0  0  0  0
  161.5850  208.5500  148.8380 C   0  0  0  0  0  0  0  0  0  0  0  0
  161.9490  210.1030  150.7490 N   0  0  0  0  0  0  0  0  0  0  0  0
  161.4790  204.4930  147.4090 C   0  0  2  0  0  3  0  0  0  0  0  0
  161.4300  206.1660  149.3100 C   0  0  0  0  0  0  0  0  0  0  0  0
  162.5250  211.6550  148.9060 C   0  0  2  0  0  3  0  0  0  0  0  0
  161.4530  207.2260  148.3800 C   0  0  0  0  0  0  0  0  0  0  0  0
  160.9650  211.8340  146.9940 C   0  0  1  0  0  3  0  0  0  0  0  0
  161.5100  206.4520  150.6700 C   0  0  0  0  0  3  0  0  0  0  0  0
  161.4900  213.6710  148.2800 C   0  0  0  0  0  2  0  0  0  0  0  0
  162.3200  213.0180  149.2320 O   0  0  0  0  0  0  0  0  0  0  0  0
  161.3000  211.0160  148.2410 C   0  0  1  0  0  3  0  0  0  0  0  0
  159.7870  211.7030  154.0460 C   0  0  0  0  0  3  0  0  0  0  0  0
  161.2060  210.6360  151.8660 C   0  0  0  0  0  0  0  0  0  0  0  0
  160.1120  211.4930  151.6570 C   0  0  0  0  0  3  0  0  0  0  0  0
  159.4050  212.0220  152.7410 C   0  0  0  0  0  3  0  0  0  0  0  0
  160.8750  210.8570  154.2680 C   0  0  0  0  0  3  0  0  0  0  0  0
  161.5810  210.3280  153.1840 C   0  0  0  0  0  3  0  0  0  0  0  0
  1 12  1  0  0  0  0
  2 12  1  0  0  0  0
  2  6  1  0  0  0  0
  3 11  1  0  0  0  0
  4 14  1  0  0  0  0
  7 16  1  0  0  0  0
  9  7  1  0  0  0  0
  9 13  1  0  0  0  0
 10 17  1  0  0  0  0
 10 19  1  0  0  0  0
 11  2  2  0  0  0  0
 12 23  1  0  0  0  0
 13  5  1  1  0  0  0
 13  4  1  0  0  0  0
 14 18  1  0  0  0  0
 15 20  1  0  0  0  0
 15  1  1  1  0  0  0
 16 11  1  0  0  0  0
 16 14  2  0  0  0  0
 17  8  1  1  0  0  0
 17 21  1  0  0  0  0
 18  6  2  0  0  0  0
 19 20  1  0  0  0  0
 21  3  1  6  0  0  0
 21 15  1  0  0  0  0
 22 26  1  0  0  0  0
 23 27  1  0  0  0  0
 24 23  2  0  0  0  0
 24 25  1  0  0  0  0
 25 22  2  0  0  0  0
 27 26  2  0  0  0  0
M  END
>  <MODEL>
4

>  <REMARK>
 VINA RESULT:      -4.4      2.764      6.218
  Name = 
  1 active torsions:
  status: ('A' for Active; 'I' for Inactive)
    1  A    between atoms: C_9  and  N_15
                            x       y       z     vdW  Elec       q    Type
                         _______ _______ _______ _____ _____    ______ ____

>  <TORSDO>
F 1

$$$$
=
 OpenBabel11052423073D

 27 31  0  0  1  0  0  0  0  0999 V2000
  161.6480  210.6920  154.6480 C   0  0  0  0  0  2  0  0  0  0  0  0
  159.4450  211.2390  153.6390 C   0  0  0  0  0  0  0  0  0  0  0  0
  158.9870  210.1060  155.8150 N   0  0  0  0  0  2  0  0  0  0  0  0
  155.7630  213.4240  153.9150 C   0  0  0  0  0  2  0  0  0  0  0  0
  155.8030  214.4530  156.0840 O   0  0  0  0  0  1  0  0  0  0  0  0
  159.0320  212.0960  152.6640 N   0  0  0  0  0  0  0  0  0  0  0  0
  156.6270  211.6670  156.1720 C   0  0  0  0  0  2  0  0  0  0  0  0
  158.9700  206.8330  156.3090 C   0  0  0  0  0  1  0  0  0  0  0  0
  155.1840  212.1320  155.9830 C   0  0  0  0  0  2  0  0  0  0  0  0
  161.0870  207.5600  157.2440 O   0  0  0  0  0  0  0  0  0  0  0  0
  158.6410  211.0530  154.7910 C   0  0  0  0  0  0  0  0  0  0  0  0
  160.7290  210.6040  153.5130 N   0  0  0  0  0  0  0  0  0  0  0  0
  155.1400  213.5000  155.3080 C   0  0  2  0  0  3  0  0  0  0  0  0
  157.0690  212.6780  153.8870 C   0  0  0  0  0  0  0  0  0  0  0  0
  161.3980  209.5840  155.6690 C   0  0  2  0  0  3  0  0  0  0  0  0
  157.4460  211.7850  154.9120 C   0  0  0  0  0  0  0  0  0  0  0  0
  159.8340  208.0030  156.7520 C   0  0  1  0  0  3  0  0  0  0  0  0
  157.8760  212.7980  152.7580 C   0  0  0  0  0  3  0  0  0  0  0  0
  161.9580  207.3510  156.1480 C   0  0  0  0  0  2  0  0  0  0  0  0
  162.3710  208.5640  155.5320 O   0  0  0  0  0  0  0  0  0  0  0  0
  159.9650  209.0400  155.6370 C   0  0  1  0  0  3  0  0  0  0  0  0
  161.9530  208.6170  149.9540 C   0  0  0  0  0  3  0  0  0  0  0  0
  161.1320  209.9320  152.3000 C   0  0  0  0  0  0  0  0  0  0  0  0
  160.8310  208.5740  152.0980 C   0  0  0  0  0  3  0  0  0  0  0  0
  161.2370  207.9210  150.9310 C   0  0  0  0  0  3  0  0  0  0  0  0
  162.2630  209.9650  150.1440 C   0  0  0  0  0  3  0  0  0  0  0  0
  161.8570  210.6180  151.3110 C   0  0  0  0  0  3  0  0  0  0  0  0
  2 11  1  0  0  0  0
  4 13  1  0  0  0  0
  6 18  1  0  0  0  0
  6  2  2  0  0  0  0
  9  7  1  0  0  0  0
 11 16  2  0  0  0  0
 11  3  1  0  0  0  0
 12  2  1  0  0  0  0
 12  1  1  0  0  0  0
 13  9  1  0  0  0  0
 13  5  1  1  0  0  0
 14  4  1  0  0  0  0
 14 16  1  0  0  0  0
 15  1  1  6  0  0  0
 16  7  1  0  0  0  0
 17  8  1  6  0  0  0
 17 10  1  0  0  0  0
 18 14  2  0  0  0  0
 19 10  1  0  0  0  0
 20 15  1  0  0  0  0
 20 19  1  0  0  0  0
 21 15  1  0  0  0  0
 21  3  1  1  0  0  0
 21 17  1  0  0  0  0
 22 26  2  0  0  0  0
 22 25  1  0  0  0  0
 23 12  1  0  0  0  0
 24 23  1  0  0  0  0
 25 24  2  0  0  0  0
 26 27  1  0  0  0  0
 27 23  2  0  0  0  0
M  END
>  <MODEL>
5

>  <REMARK>
 VINA RESULT:      -4.3      3.124      5.533
  Name = 
  1 active torsions:
  status: ('A' for Active; 'I' for Inactive)
    1  A    between atoms: C_9  and  N_15
                            x       y       z     vdW  Elec       q    Type
                         _______ _______ _______ _____ _____    ______ ____

>  <TORSDO>
F 1

$$$$
=
 OpenBabel11052423073D

 27 31  0  0  1  0  0  0  0  0999 V2000
  163.0200  209.7190  150.5910 C   0  0  0  0  0  2  0  0  0  0  0  0
  161.3180  210.1100  152.3590 C   0  0  0  0  0  0  0  0  0  0  0  0
  161.3130  207.6620  151.8730 N   0  0  0  0  0  2  0  0  0  0  0  0
  160.0320  209.3910  156.3880 C   0  0  0  0  0  2  0  0  0  0  0  0
  161.5740  207.7710  157.2610 O   0  0  0  0  0  1  0  0  0  0  0  0
  161.0740  211.1220  153.2360 N   0  0  0  0  0  0  0  0  0  0  0  0
  160.6560  207.0890  154.5880 C   0  0  0  0  0  2  0  0  0  0  0  0
  159.7060  206.2030  149.3740 C   0  0  0  0  0  1  0  0  0  0  0  0
  159.8070  206.9540  155.8510 C   0  0  0  0  0  2  0  0  0  0  0  0
  162.0190  206.2450  148.6440 O   0  0  0  0  0  0  0  0  0  0  0  0
  161.1460  208.7670  152.7760 C   0  0  0  0  0  0  0  0  0  0  0  0
  161.8240  210.4270  151.0500 N   0  0  0  0  0  0  0  0  0  0  0  0
  160.2380  207.9680  156.9050 C   0  0  2  0  0  3  0  0  0  0  0  0
  160.5350  209.5920  154.9850 C   0  0  0  0  0  0  0  0  0  0  0  0
  162.6730  208.3820  149.9400 C   0  0  2  0  0  3  0  0  0  0  0  0
  160.7540  208.5130  154.1040 C   0  0  0  0  0  0  0  0  0  0  0  0
  161.1590  206.4340  149.7550 C   0  0  1  0  0  3  0  0  0  0  0  0
  160.6820  210.8950  154.5150 C   0  0  0  0  0  3  0  0  0  0  0  0
  162.0440  207.4360  147.8800 C   0  0  0  0  0  2  0  0  0  0  0  0
  162.7400  208.4930  148.5290 O   0  0  0  0  0  0  0  0  0  0  0  0
  161.3400  207.7970  150.4230 C   0  0  1  0  0  3  0  0  0  0  0  0
  160.0400  213.4270  148.6140 C   0  0  0  0  0  3  0  0  0  0  0  0
  161.2100  211.4350  150.2190 C   0  0  0  0  0  0  0  0  0  0  0  0
  161.5800  211.5770  148.8700 C   0  0  0  0  0  3  0  0  0  0  0  0
  160.9970  212.5650  148.0720 C   0  0  0  0  0  3  0  0  0  0  0  0
  159.6670  213.3000  149.9540 C   0  0  0  0  0  3  0  0  0  0  0  0
  160.2500  212.3120  150.7520 C   0  0  0  0  0  3  0  0  0  0  0  0
  1 12  1  0  0  0  0
  2 11  2  0  0  0  0
  2  6  1  0  0  0  0
  3 11  1  0  0  0  0
  4 13  1  0  0  0  0
  6 18  2  0  0  0  0
  7  9  1  0  0  0  0
  9 13  1  0  0  0  0
 10 17  1  0  0  0  0
 11 16  1  0  0  0  0
 12  2  1  0  0  0  0
 13  5  1  6  0  0  0
 14  4  1  0  0  0  0
 15 21  1  0  0  0  0
 15  1  1  1  0  0  0
 16  7  1  0  0  0  0
 16 14  2  0  0  0  0
 17  8  1  6  0  0  0
 17 21  1  0  0  0  0
 18 14  1  0  0  0  0
 19 20  1  0  0  0  0
 19 10  1  0  0  0  0
 20 15  1  0  0  0  0
 21  3  1  1  0  0  0
 22 26  1  0  0  0  0
 23 27  1  0  0  0  0
 23 12  1  0  0  0  0
 24 23  2  0  0  0  0
 25 22  2  0  0  0  0
 25 24  1  0  0  0  0
 26 27  2  0  0  0  0
M  END
>  <MODEL>
6

>  <REMARK>
 VINA RESULT:      -4.0      2.482      7.079
  Name = 
  1 active torsions:
  status: ('A' for Active; 'I' for Inactive)
    1  A    between atoms: C_9  and  N_15
                            x       y       z     vdW  Elec       q    Type
                         _______ _______ _______ _____ _____    ______ ____

>  <TORSDO>
F 1

$$$$
=
 OpenBabel11052423073D

 27 31  0  0  1  0  0  0  0  0999 V2000
  162.7230  208.2960  152.7730 C   0  0  0  0  0  2  0  0  0  0  0  0
  161.9150  209.0020  150.5320 C   0  0  0  0  0  0  0  0  0  0  0  0
  161.0410  210.6630  152.1770 N   0  0  0  0  0  2  0  0  0  0  0  0
  161.9290  211.9660  147.4310 C   0  0  0  0  0  2  0  0  0  0  0  0
  163.1410  213.8260  148.3450 O   0  0  0  0  0  1  0  0  0  0  0  0
  162.2860  208.7150  149.2540 N   0  0  0  0  0  0  0  0  0  0  0  0
  161.2130  212.7370  150.2270 C   0  0  0  0  0  2  0  0  0  0  0  0
  158.3310  210.2790  154.0390 C   0  0  0  0  0  1  0  0  0  0  0  0
  160.8440  213.5820  149.0090 C   0  0  0  0  0  2  0  0  0  0  0  0
  160.1650  209.8690  155.5740 O   0  0  0  0  0  0  0  0  0  0  0  0
  161.5160  210.3200  150.8650 C   0  0  0  0  0  0  0  0  0  0  0  0
  162.0130  207.9750  151.5350 N   0  0  0  0  0  0  0  0  0  0  0  0
  161.8810  213.4180  147.9020 C   0  0  2  0  0  3  0  0  0  0  0  0
  161.9590  210.9740  148.5610 C   0  0  0  0  0  0  0  0  0  0  0  0
  161.8060  208.9620  153.7980 C   0  0  2  0  0  3  0  0  0  0  0  0
  161.5450  211.3110  149.8670 C   0  0  0  0  0  0  0  0  0  0  0  0
  159.8280  210.3640  154.2880 C   0  0  1  0  0  3  0  0  0  0  0  0
  162.3050  209.6560  148.2770 C   0  0  0  0  0  3  0  0  0  0  0  0
  160.2700  208.4600  155.5050 C   0  0  0  0  0  2  0  0  0  0  0  0
  161.4180  208.0260  154.7870 O   0  0  0  0  0  0  0  0  0  0  0  0
  160.6100  209.6820  153.1650 C   0  0  1  0  0  3  0  0  0  0  0  0
  160.4440  204.0690  150.9020 C   0  0  0  0  0  3  0  0  0  0  0  0
  161.4700  206.6530  151.3280 C   0  0  0  0  0  0  0  0  0  0  0  0
  161.6680  205.6380  152.2800 C   0  0  0  0  0  3  0  0  0  0  0  0
  161.1570  204.3540  152.0700 C   0  0  0  0  0  3  0  0  0  0  0  0
  160.2450  205.0670  149.9460 C   0  0  0  0  0  3  0  0  0  0  0  0
  160.7560  206.3500  150.1560 C   0  0  0  0  0  3  0  0  0  0  0  0
  2 11  1  0  0  0  0
  2 12  1  0  0  0  0
  4 13  1  0  0  0  0
  4 14  1  0  0  0  0
  6  2  2  0  0  0  0
  9  7  1  0  0  0  0
 11  3  1  0  0  0  0
 12  1  1  0  0  0  0
 13  5  1  1  0  0  0
 13  9  1  0  0  0  0
 14 16  1  0  0  0  0
 15  1  1  6  0  0  0
 15 20  1  0  0  0  0
 16  7  1  0  0  0  0
 16 11  2  0  0  0  0
 17  8  1  6  0  0  0
 17 10  1  0  0  0  0
 18 14  2  0  0  0  0
 18  6  1  0  0  0  0
 19 10  1  0  0  0  0
 20 19  1  0  0  0  0
 21  3  1  6  0  0  0
 21 15  1  0  0  0  0
 21 17  1  0  0  0  0
 22 25  1  0  0  0  0
 23 12  1  0  0  0  0
 23 24  1  0  0  0  0
 25 24  2  0  0  0  0
 26 27  1  0  0  0  0
 26 22  2  0  0  0  0
 27 23  2  0  0  0  0
M  END
>  <MODEL>
7

>  <REMARK>
 VINA RESULT:      -3.5      1.179      1.434
  Name = 
  1 active torsions:
  status: ('A' for Active; 'I' for Inactive)
    1  A    between atoms: C_9  and  N_15
                            x       y       z     vdW  Elec       q    Type
                         _______ _______ _______ _____ _____    ______ ____

>  <TORSDO>
F 1

$$$$
