=
 OpenBabel11062409043D

 37 43  0  0  1  0  0  0  0  0999 V2000
  161.3420  209.6490  154.7600 O   0  0  0  0  0  0  0  0  0  0  0  0
  157.3710  211.4090  157.2610 C   0  0  0  0  0  2  0  0  0  0  0  0
  162.1530  213.0070  149.0090 O   0  0  0  0  0  0  0  0  0  0  0  0
  158.4520  212.6120  151.2450 C   0  0  1  0  0  3  0  0  0  0  0  0
  160.7760  208.2850  156.6760 C   0  0  0  0  0  1  0  0  0  0  0  0
  157.9410  212.6950  156.6430 C   0  0  2  0  0  0  0  0  0  0  0  0
  159.3480  212.9050  157.2210 C   0  0  0  0  0  2  0  0  0  0  0  0
  157.0560  213.8980  157.0200 C   0  0  0  0  0  2  0  0  0  0  0  0
  159.8780  212.8790  150.7300 C   0  0  1  0  0  3  0  0  0  0  0  0
  159.5490  212.0570  155.0000 C   0  0  1  0  0  3  0  0  0  0  0  0
  161.5400  207.9310  152.1490 S   0  0  0  0  0  0  0  0  0  0  0  0
  160.6830  211.5750  150.5050 C   0  0  2  0  0  3  0  0  0  0  0  0
  160.2230  212.0450  153.6330 C   0  0  0  0  0  2  0  0  0  0  0  0
  154.8910  214.4520  156.2530 O   0  0  0  0  0  0  0  0  0  0  0  0
  159.8890  213.7170  149.4500 C   0  0  0  0  0  2  0  0  0  0  0  0
  160.8320  209.6820  156.0720 C   0  0  1  0  0  3  0  0  0  0  0  0
  155.0260  212.3070  157.2290 C   0  0  0  0  0  2  0  0  0  0  0  0
  155.6060  213.6080  156.7670 C   0  0  0  0  0  0  0  0  0  0  0  0
  160.9280  210.5810  151.6760 C   0  0  2  0  0  3  0  0  0  0  0  0
  160.8370  209.1890  151.0550 C   0  0  0  0  0  2  0  0  0  0  0  0
  157.2410  213.3760  153.2540 C   0  0  0  0  0  2  0  0  0  0  0  0
  160.1540  208.1350  153.2960 C   0  0  0  0  0  2  0  0  0  0  0  0
  158.0690  213.8290  152.0720 C   0  0  2  0  0  3  0  0  0  0  0  0
  161.9770  211.8360  149.7520 C   0  0  0  0  0  0  0  0  0  0  0  0
  161.5770  210.6870  156.9750 C   0  0  2  0  0  3  0  0  0  0  0  0
  160.3160  212.7900  156.0560 C   0  0  2  0  0  3  0  0  0  0  0  0
  157.3630  213.5630  150.7670 C   0  0  0  0  0  2  0  0  0  0  0  0
  160.0290  210.6910  152.9350 C   0  0  1  0  0  3  0  0  0  0  0  0
  161.3140  214.1460  149.1670 C   0  0  0  0  0  2  0  0  0  0  0  0
  158.1070  212.5090  155.1170 C   0  0  2  0  0  3  0  0  0  0  0  0
  162.8830  210.9610  149.7230 O   0  0  0  0  0  0  0  0  0  0  0  0
  161.6480  212.1080  156.3980 C   0  0  0  0  0  2  0  0  0  0  0  0
  155.9340  211.1570  156.8040 C   0  0  0  0  0  2  0  0  0  0  0  0
  160.2080  209.5150  153.9380 C   0  0  2  0  0  3  0  0  0  0  0  0
  157.9140  213.7170  154.4300 O   0  0  0  0  0  0  0  0  0  0  0  0
  163.0050  210.2330  157.2610 C   0  0  0  0  0  2  0  0  0  0  0  0
  163.9460  211.4230  157.2540 C   0  0  0  0  0  1  0  0  0  0  0  0
  1 16  1  0  0  0  0
  3 29  1  0  0  0  0
  3 24  1  0  0  0  0
  4 27  1  6  0  0  0
  4 23  1  0  0  0  0
  6  8  1  1  0  0  0
  6  7  1  0  0  0  0
  6  2  1  0  0  0  0
  9 15  1  6  0  0  0
  9  4  1  0  0  0  0
 10 13  1  6  0  0  0
 10 30  1  0  0  0  0
 10 26  1  0  0  0  0
 11 22  1  0  0  0  0
 12 24  1  1  0  0  0
 12  9  1  0  0  0  0
 12 19  1  0  0  0  0
 14 18  2  0  0  0  0
 16  5  1  1  0  0  0
 16 25  1  0  0  0  0
 18  8  1  0  0  0  0
 18 17  1  0  0  0  0
 19 20  1  6  0  0  0
 19 28  1  0  0  0  0
 20 11  1  0  0  0  0
 21 35  1  0  0  0  0
 23 27  1  6  0  0  0
 23 21  1  0  0  0  0
 25 36  1  6  0  0  0
 26 32  1  1  0  0  0
 26  7  1  0  0  0  0
 28 13  1  1  0  0  0
 28 34  1  0  0  0  0
 29 15  1  0  0  0  0
 30 35  1  6  0  0  0
 30  6  1  0  0  0  0
 31 24  2  0  0  0  0
 32 25  1  0  0  0  0
 33 17  1  0  0  0  0
 33  2  1  0  0  0  0
 34 22  1  6  0  0  0
 34  1  1  0  0  0  0
 37 36  1  0  0  0  0
M  END
>  <MODEL>
1

>  <REMARK>
 VINA RESULT:      -1.7      0.000      0.000
  Name = 
  1 active torsions:
  status: ('A' for Active; 'I' for Inactive)
    1  A    between atoms: C_11  and  C_26
                            x       y       z     vdW  Elec       q    Type
                         _______ _______ _______ _____ _____    ______ ____

>  <TORSDO>
F 1

$$$$
