=
 OpenBabel11062407573D

 34 38  0  0  1  0  0  0  0  0999 V2000
  161.2040  206.5620  152.4250 C   0  0  0  0  0  0  0  0  0  0  0  0
  161.1220  208.9760  153.2080 C   0  0  0  0  0  2  0  0  0  0  0  0
  161.6550  208.3270  150.7970 C   0  0  0  0  0  0  0  0  0  0  0  0
  162.2430  209.9880  148.9310 C   0  0  2  0  0  3  0  0  0  0  0  0
  160.6730  206.9660  154.7780 C   0  0  0  0  0  3  0  0  0  0  0  0
  160.5820  209.1970  155.5190 O   0  0  0  0  0  0  0  0  0  0  0  0
  161.7960  210.6960  151.1920 O   0  0  0  0  0  0  0  0  0  0  0  0
  161.3290  207.9380  152.1230 C   0  0  0  0  0  0  0  0  0  0  0  0
  160.8720  206.1060  153.7830 C   0  0  0  0  0  3  0  0  0  0  0  0
  161.8120  207.3400  149.8000 C   0  0  0  0  0  0  0  0  0  0  0  0
  161.4020  205.6010  151.4360 C   0  0  0  0  0  3  0  0  0  0  0  0
  160.7800  208.4120  154.5560 C   0  0  0  0  0  0  0  0  0  0  0  0
  161.6240  209.0340  148.1010 O   0  0  0  0  0  0  0  0  0  0  0  0
  162.1960  207.7800  148.3970 C   0  0  2  0  0  3  0  0  0  0  0  0
  161.8590  209.7400  150.3720 C   0  0  0  0  0  0  0  0  0  0  0  0
  161.7110  205.9840  150.1350 C   0  0  0  0  0  3  0  0  0  0  0  0
  162.3420  204.9280  145.9190 C   0  0  0  0  0  0  0  0  0  0  0  0
  161.0420  204.9500  145.4120 C   0  0  0  0  0  3  0  0  0  0  0  0
  161.7970  206.7930  147.3440 C   0  0  0  0  0  0  0  0  0  0  0  0
  160.1410  205.9040  145.8890 C   0  0  0  0  0  3  0  0  0  0  0  0
  162.7260  205.8520  146.8920 C   0  0  0  0  0  3  0  0  0  0  0  0
  160.5330  206.7970  146.8380 N   0  0  0  0  0  0  0  0  0  0  0  0
  163.2520  203.9860  145.4570 O   0  0  0  0  0  1  0  0  0  0  0  0
  161.8450  211.3800  148.4610 C   0  0  0  0  0  2  0  0  0  0  0  0
  163.0310  212.1610  148.1570 N   0  0  0  0  0  2  0  0  0  0  0  0
  162.5720  213.3910  147.5400 C   0  0  0  0  0  2  0  0  0  0  0  0
  162.6190  213.2460  146.0250 C   0  0  0  0  0  2  0  0  0  0  0  0
  161.5150  212.4330  143.3520 O   0  0  0  0  0  0  0  0  0  0  0  0
  161.3400  213.7430  145.3510 C   0  0  1  0  0  3  0  0  0  0  0  0
  160.8120  212.7560  144.3450 C   0  0  0  0  0  0  0  0  0  0  0  0
  158.7270  212.5530  145.4720 C   0  0  0  0  0  3  0  0  0  0  0  0
  159.1290  213.5630  146.4070 N   0  0  0  0  0  0  0  0  0  0  0  0
  160.3010  214.1240  146.3700 C   0  0  0  0  0  3  0  0  0  0  0  0
  159.5120  212.1820  144.5090 N   0  0  0  0  0  0  0  0  0  0  0  0
  1  9  1  0  0  0  0
  2 12  1  0  0  0  0
  3  8  2  0  0  0  0
  4 24  1  6  0  0  0
  4 15  1  0  0  0  0
  8  1  1  0  0  0  0
  8  2  1  0  0  0  0
  9  5  2  0  0  0  0
 10 16  2  0  0  0  0
 10  3  1  0  0  0  0
 11  1  2  0  0  0  0
 12  5  1  0  0  0  0
 12  6  2  0  0  0  0
 13 14  1  0  0  0  0
 13  4  1  0  0  0  0
 14 19  1  6  0  0  0
 14 10  1  0  0  0  0
 15  3  1  0  0  0  0
 15  7  2  0  0  0  0
 16 11  1  0  0  0  0
 17 21  1  0  0  0  0
 18 20  1  0  0  0  0
 18 17  2  0  0  0  0
 20 22  2  0  0  0  0
 21 19  2  0  0  0  0
 22 19  1  0  0  0  0
 23 17  1  0  0  0  0
 25 24  1  0  0  0  0
 26 25  1  0  0  0  0
 27 26  1  0  0  0  0
 28 30  2  0  0  0  0
 29 27  1  1  0  0  0
 29 33  1  0  0  0  0
 30 34  1  0  0  0  0
 30 29  1  0  0  0  0
 31 32  1  0  0  0  0
 33 32  2  0  0  0  0
 34 31  2  0  0  0  0
M  END
>  <MODEL>
1

>  <REMARK>
 VINA RESULT:      -8.8      0.000      0.000
  Name = 
  6 active torsions:
  status: ('A' for Active; 'I' for Inactive)
    1  A    between atoms: C_3  and  C_13
    2  A    between atoms: C_3  and  C_17
    3  A    between atoms: C_5  and  C_18
    4  A    between atoms: C_12  and  C_28
    5  A    between atoms: C_17  and  N_29
    6  A    between atoms: C_18  and  N_29
                            x       y       z     vdW  Elec       q    Type
                         _______ _______ _______ _____ _____    ______ ____

>  <TORSDO>
F 6

$$$$
=
 OpenBabel11062407573D

 34 38  0  0  1  0  0  0  0  0999 V2000
  161.1310  206.8420  153.1440 C   0  0  0  0  0  0  0  0  0  0  0  0
  160.8090  209.3370  153.4810 C   0  0  0  0  0  2  0  0  0  0  0  0
  161.5440  208.3330  151.2520 C   0  0  0  0  0  0  0  0  0  0  0  0
  162.1170  209.6930  149.1520 C   0  0  2  0  0  3  0  0  0  0  0  0
  160.4220  207.5960  155.3590 C   0  0  0  0  0  3  0  0  0  0  0  0
  160.1080  209.9050  155.6880 O   0  0  0  0  0  0  0  0  0  0  0  0
  161.4720  210.7370  151.2280 O   0  0  0  0  0  0  0  0  0  0  0  0
  161.1660  208.1510  152.6090 C   0  0  0  0  0  0  0  0  0  0  0  0
  160.7510  206.5990  154.5430 C   0  0  0  0  0  3  0  0  0  0  0  0
  161.8420  207.2070  150.4550 C   0  0  0  0  0  0  0  0  0  0  0  0
  161.4670  205.7460  152.3520 C   0  0  0  0  0  3  0  0  0  0  0  0
  160.4280  208.9860  154.8900 C   0  0  0  0  0  0  0  0  0  0  0  0
  161.6290  208.5590  148.4760 O   0  0  0  0  0  0  0  0  0  0  0  0
  162.2780  207.4310  149.0170 C   0  0  2  0  0  3  0  0  0  0  0  0
  161.6620  209.6630  150.5950 C   0  0  0  0  0  0  0  0  0  0  0  0
  161.8270  205.9250  151.0200 C   0  0  0  0  0  3  0  0  0  0  0  0
  161.3080  203.9600  147.8710 C   0  0  0  0  0  0  0  0  0  0  0  0
  161.5350  204.0610  146.4970 C   0  0  0  0  0  3  0  0  0  0  0  0
  162.0260  206.2450  148.1370 C   0  0  0  0  0  0  0  0  0  0  0  0
  162.0060  205.2660  145.9710 C   0  0  0  0  0  3  0  0  0  0  0  0
  161.5520  205.0560  148.7000 C   0  0  0  0  0  3  0  0  0  0  0  0
  162.2390  206.3240  146.7940 N   0  0  0  0  0  0  0  0  0  0  0  0
  160.8390  202.7710  148.4110 O   0  0  0  0  0  1  0  0  0  0  0  0
  161.6400  210.9420  148.4250 C   0  0  0  0  0  2  0  0  0  0  0  0
  162.6880  211.9480  148.4250 N   0  0  0  0  0  2  0  0  0  0  0  0
  162.1830  213.0730  147.6620 C   0  0  0  0  0  2  0  0  0  0  0  0
  162.7510  213.0250  146.2510 C   0  0  0  0  0  2  0  0  0  0  0  0
  163.2730  213.6480  143.3580 O   0  0  0  0  0  0  0  0  0  0  0  0
  161.7470  213.5000  145.2000 C   0  0  1  0  0  3  0  0  0  0  0  0
  162.1950  213.1720  143.8010 C   0  0  0  0  0  0  0  0  0  0  0  0
  160.2480  211.8790  143.3600 C   0  0  0  0  0  3  0  0  0  0  0  0
  159.7160  212.2360  144.6420 N   0  0  0  0  0  0  0  0  0  0  0  0
  160.3670  212.9750  145.4900 C   0  0  0  0  0  3  0  0  0  0  0  0
  161.4030  212.3210  142.9690 N   0  0  0  0  0  0  0  0  0  0  0  0
  1  9  1  0  0  0  0
  2 12  1  0  0  0  0
  3  8  2  0  0  0  0
  4 24  1  6  0  0  0
  4 15  1  0  0  0  0
  8  1  1  0  0  0  0
  8  2  1  0  0  0  0
  9  5  2  0  0  0  0
 10 16  2  0  0  0  0
 10  3  1  0  0  0  0
 11  1  2  0  0  0  0
 12  5  1  0  0  0  0
 12  6  2  0  0  0  0
 13 14  1  0  0  0  0
 13  4  1  0  0  0  0
 14 19  1  6  0  0  0
 14 10  1  0  0  0  0
 15  7  2  0  0  0  0
 15  3  1  0  0  0  0
 16 11  1  0  0  0  0
 17 23  1  0  0  0  0
 17 21  1  0  0  0  0
 18 17  2  0  0  0  0
 19 21  2  0  0  0  0
 20 18  1  0  0  0  0
 20 22  2  0  0  0  0
 22 19  1  0  0  0  0
 25 24  1  0  0  0  0
 26 25  1  0  0  0  0
 27 26  1  0  0  0  0
 28 30  2  0  0  0  0
 29 33  1  0  0  0  0
 29 27  1  1  0  0  0
 30 29  1  0  0  0  0
 31 32  1  0  0  0  0
 32 33  2  0  0  0  0
 34 31  2  0  0  0  0
 34 30  1  0  0  0  0
M  END
>  <MODEL>
2

>  <REMARK>
 VINA RESULT:      -8.6      1.274      1.472
  Name = 
  6 active torsions:
  status: ('A' for Active; 'I' for Inactive)
    1  A    between atoms: C_3  and  C_13
    2  A    between atoms: C_3  and  C_17
    3  A    between atoms: C_5  and  C_18
    4  A    between atoms: C_12  and  C_28
    5  A    between atoms: C_17  and  N_29
    6  A    between atoms: C_18  and  N_29
                            x       y       z     vdW  Elec       q    Type
                         _______ _______ _______ _____ _____    ______ ____

>  <TORSDO>
F 6

$$$$
=
 OpenBabel11062407573D

 34 38  0  0  1  0  0  0  0  0999 V2000
  161.1140  206.8100  153.1410 C   0  0  0  0  0  0  0  0  0  0  0  0
  160.8610  209.3160  153.4570 C   0  0  0  0  0  2  0  0  0  0  0  0
  161.5330  208.2700  151.2270 C   0  0  0  0  0  0  0  0  0  0  0  0
  162.1040  209.5940  149.1030 C   0  0  2  0  0  3  0  0  0  0  0  0
  160.4610  207.6050  155.3590 C   0  0  0  0  0  3  0  0  0  0  0  0
  160.2110  209.9240  155.6680 O   0  0  0  0  0  0  0  0  0  0  0  0
  161.5210  210.6760  151.1770 O   0  0  0  0  0  0  0  0  0  0  0  0
  161.1740  208.1120  152.5920 C   0  0  0  0  0  0  0  0  0  0  0  0
  160.7520  206.5910  154.5490 C   0  0  0  0  0  3  0  0  0  0  0  0
  161.7890  207.1290  150.4370 C   0  0  0  0  0  0  0  0  0  0  0  0
  161.4100  205.6980  152.3550 C   0  0  0  0  0  3  0  0  0  0  0  0
  160.4940  208.9900  154.8750 C   0  0  0  0  0  0  0  0  0  0  0  0
  161.5770  208.4650  148.4470 O   0  0  0  0  0  0  0  0  0  0  0  0
  162.2070  207.3270  148.9900 C   0  0  2  0  0  3  0  0  0  0  0  0
  161.6730  209.5910  150.5530 C   0  0  0  0  0  0  0  0  0  0  0  0
  161.7520  205.8540  151.0160 C   0  0  0  0  0  3  0  0  0  0  0  0
  161.6820  205.1550  145.9390 C   0  0  0  0  0  0  0  0  0  0  0  0
  161.3860  203.9280  146.5350 C   0  0  0  0  0  3  0  0  0  0  0  0
  161.9100  206.1390  148.1270 C   0  0  0  0  0  0  0  0  0  0  0  0
  161.3600  203.8350  147.9280 C   0  0  0  0  0  3  0  0  0  0  0  0
  161.9480  206.2700  146.7360 C   0  0  0  0  0  3  0  0  0  0  0  0
  161.6210  204.9320  148.6890 N   0  0  0  0  0  0  0  0  0  0  0  0
  161.7140  205.2660  144.5560 O   0  0  0  0  0  1  0  0  0  0  0  0
  161.6470  210.8470  148.3700 C   0  0  0  0  0  2  0  0  0  0  0  0
  162.7290  211.8150  148.3180 N   0  0  0  0  0  2  0  0  0  0  0  0
  162.1680  213.0340  147.7690 C   0  0  0  0  0  2  0  0  0  0  0  0
  161.2790  212.6930  146.5800 C   0  0  0  0  0  2  0  0  0  0  0  0
  158.9590  212.4330  144.6890 O   0  0  0  0  0  0  0  0  0  0  0  0
  160.0050  213.5370  146.5410 C   0  0  1  0  0  3  0  0  0  0  0  0
  158.8630  212.8070  145.8880 C   0  0  0  0  0  0  0  0  0  0  0  0
  157.4990  212.9730  147.8290 C   0  0  0  0  0  3  0  0  0  0  0  0
  158.5060  213.7620  148.4750 N   0  0  0  0  0  0  0  0  0  0  0  0
  159.6440  214.0400  147.9130 C   0  0  0  0  0  3  0  0  0  0  0  0
  157.6660  212.5330  146.6210 N   0  0  0  0  0  0  0  0  0  0  0  0
  1  9  1  0  0  0  0
  2 12  1  0  0  0  0
  3  8  2  0  0  0  0
  4 24  1  6  0  0  0
  4 15  1  0  0  0  0
  8  1  1  0  0  0  0
  8  2  1  0  0  0  0
  9  5  2  0  0  0  0
 10 16  2  0  0  0  0
 10  3  1  0  0  0  0
 11  1  2  0  0  0  0
 12  5  1  0  0  0  0
 12  6  2  0  0  0  0
 13 14  1  0  0  0  0
 13  4  1  0  0  0  0
 14 19  1  6  0  0  0
 14 10  1  0  0  0  0
 15  7  2  0  0  0  0
 15  3  1  0  0  0  0
 16 11  1  0  0  0  0
 17 18  2  0  0  0  0
 17 21  1  0  0  0  0
 18 20  1  0  0  0  0
 19 22  1  0  0  0  0
 20 22  2  0  0  0  0
 21 19  2  0  0  0  0
 23 17  1  0  0  0  0
 25 24  1  0  0  0  0
 26 25  1  0  0  0  0
 27 26  1  0  0  0  0
 28 30  2  0  0  0  0
 29 27  1  1  0  0  0
 29 33  1  0  0  0  0
 30 29  1  0  0  0  0
 30 34  1  0  0  0  0
 31 32  1  0  0  0  0
 33 32  2  0  0  0  0
 34 31  2  0  0  0  0
M  END
>  <MODEL>
3

>  <REMARK>
 VINA RESULT:      -8.5      1.333      1.525
  Name = 
  6 active torsions:
  status: ('A' for Active; 'I' for Inactive)
    1  A    between atoms: C_3  and  C_13
    2  A    between atoms: C_3  and  C_17
    3  A    between atoms: C_5  and  C_18
    4  A    between atoms: C_12  and  C_28
    5  A    between atoms: C_17  and  N_29
    6  A    between atoms: C_18  and  N_29
                            x       y       z     vdW  Elec       q    Type
                         _______ _______ _______ _____ _____    ______ ____

>  <TORSDO>
F 6

$$$$
=
 OpenBabel11062407573D

 34 38  0  0  1  0  0  0  0  0999 V2000
  160.7740  203.0440  150.4630 C   0  0  0  0  0  0  0  0  0  0  0  0
  161.3500  203.4960  148.0320 C   0  0  0  0  0  2  0  0  0  0  0  0
  161.0530  205.3640  149.7470 C   0  0  0  0  0  0  0  0  0  0  0  0
  161.2120  207.8710  149.2220 C   0  0  2  0  0  3  0  0  0  0  0  0
  161.0140  201.1120  148.9840 C   0  0  0  0  0  3  0  0  0  0  0  0
  161.5590  201.5100  146.7300 O   0  0  0  0  0  0  0  0  0  0  0  0
  161.4660  206.1800  147.5220 O   0  0  0  0  0  0  0  0  0  0  0  0
  161.0560  203.9780  149.4380 C   0  0  0  0  0  0  0  0  0  0  0  0
  160.7600  201.5980  150.1950 C   0  0  0  0  0  3  0  0  0  0  0  0
  160.8060  205.7820  151.0730 C   0  0  0  0  0  0  0  0  0  0  0  0
  160.4930  203.4780  151.7570 C   0  0  0  0  0  3  0  0  0  0  0  0
  161.3190  202.0050  147.8620 C   0  0  0  0  0  0  0  0  0  0  0  0
  161.6880  207.9580  150.5440 O   0  0  0  0  0  0  0  0  0  0  0  0
  160.7730  207.2710  151.3700 C   0  0  2  0  0  3  0  0  0  0  0  0
  161.2890  206.4380  148.7440 C   0  0  0  0  0  0  0  0  0  0  0  0
  160.5010  204.8360  152.0590 C   0  0  0  0  0  3  0  0  0  0  0  0
  161.4750  209.2100  154.5390 C   0  0  0  0  0  0  0  0  0  0  0  0
  161.5810  208.1730  155.4670 C   0  0  0  0  0  3  0  0  0  0  0  0
  161.0660  207.5890  152.8040 C   0  0  0  0  0  0  0  0  0  0  0  0
  161.4240  206.8540  155.0350 C   0  0  0  0  0  3  0  0  0  0  0  0
  161.2150  208.9220  153.1990 C   0  0  0  0  0  3  0  0  0  0  0  0
  161.1710  206.5910  153.7240 N   0  0  0  0  0  0  0  0  0  0  0  0
  161.6280  210.5270  154.9500 O   0  0  0  0  0  1  0  0  0  0  0  0
  162.0240  208.8140  148.3450 C   0  0  0  0  0  2  0  0  0  0  0  0
  162.3310  210.0310  149.0760 N   0  0  0  0  0  2  0  0  0  0  0  0
  161.8610  211.1340  148.2610 C   0  0  0  0  0  2  0  0  0  0  0  0
  162.9200  212.2280  148.2280 C   0  0  0  0  0  2  0  0  0  0  0  0
  162.7050  213.3270  145.4400 O   0  0  0  0  0  0  0  0  0  0  0  0
  162.3510  213.5800  147.7970 C   0  0  1  0  0  3  0  0  0  0  0  0
  161.8850  213.5660  146.3650 C   0  0  0  0  0  0  0  0  0  0  0  0
  159.6600  214.1550  146.9650 C   0  0  0  0  0  3  0  0  0  0  0  0
  160.0590  214.2850  148.3360 N   0  0  0  0  0  0  0  0  0  0  0  0
  161.2710  214.0400  148.7390 C   0  0  0  0  0  3  0  0  0  0  0  0
  160.5150  213.8240  146.0480 N   0  0  0  0  0  0  0  0  0  0  0  0
  1 11  1  0  0  0  0
  2  8  1  0  0  0  0
  3 10  2  0  0  0  0
  4 24  1  6  0  0  0
  4 13  1  0  0  0  0
  5  9  2  0  0  0  0
  6 12  2  0  0  0  0
  7 15  2  0  0  0  0
  8  3  1  0  0  0  0
  8  1  2  0  0  0  0
  9  1  1  0  0  0  0
 10 14  1  0  0  0  0
 10 16  1  0  0  0  0
 11 16  2  0  0  0  0
 12  2  1  0  0  0  0
 12  5  1  0  0  0  0
 13 14  1  0  0  0  0
 14 19  1  1  0  0  0
 15  4  1  0  0  0  0
 15  3  1  0  0  0  0
 17 23  1  0  0  0  0
 17 18  1  0  0  0  0
 19 21  1  0  0  0  0
 19 22  2  0  0  0  0
 20 18  2  0  0  0  0
 21 17  2  0  0  0  0
 22 20  1  0  0  0  0
 24 25  1  0  0  0  0
 26 25  1  0  0  0  0
 27 26  1  0  0  0  0
 28 30  2  0  0  0  0
 29 27  1  1  0  0  0
 29 33  1  0  0  0  0
 30 29  1  0  0  0  0
 31 32  1  0  0  0  0
 32 33  2  0  0  0  0
 34 30  1  0  0  0  0
 34 31  2  0  0  0  0
M  END
>  <MODEL>
4

>  <REMARK>
 VINA RESULT:      -8.5      2.424      5.802
  Name = 
  6 active torsions:
  status: ('A' for Active; 'I' for Inactive)
    1  A    between atoms: C_3  and  C_13
    2  A    between atoms: C_3  and  C_17
    3  A    between atoms: C_5  and  C_18
    4  A    between atoms: C_12  and  C_28
    5  A    between atoms: C_17  and  N_29
    6  A    between atoms: C_18  and  N_29
                            x       y       z     vdW  Elec       q    Type
                         _______ _______ _______ _____ _____    ______ ____

>  <TORSDO>
F 6

$$$$
=
 OpenBabel11062407573D

 34 38  0  0  1  0  0  0  0  0999 V2000
  161.6020  205.3420  148.3050 C   0  0  0  0  0  0  0  0  0  0  0  0
  160.9080  203.8350  150.2260 C   0  0  0  0  0  2  0  0  0  0  0  0
  161.4290  206.3140  150.5410 C   0  0  0  0  0  0  0  0  0  0  0  0
  161.4010  207.5400  152.7950 C   0  0  2  0  0  3  0  0  0  0  0  0
  161.1470  202.9970  147.7880 C   0  0  0  0  0  3  0  0  0  0  0  0
  160.4920  201.5860  149.5530 O   0  0  0  0  0  0  0  0  0  0  0  0
  160.9340  205.1820  152.6060 O   0  0  0  0  0  0  0  0  0  0  0  0
  161.3180  205.1870  149.6830 C   0  0  0  0  0  0  0  0  0  0  0  0
  161.5060  204.2080  147.3750 C   0  0  0  0  0  3  0  0  0  0  0  0
  161.7840  207.5690  150.0010 C   0  0  0  0  0  0  0  0  0  0  0  0
  161.9890  206.5810  147.7980 C   0  0  0  0  0  3  0  0  0  0  0  0
  160.8310  202.7440  149.1980 C   0  0  0  0  0  0  0  0  0  0  0  0
  161.0140  208.6440  152.0120 O   0  0  0  0  0  0  0  0  0  0  0  0
  161.9310  208.7500  150.9460 C   0  0  2  0  0  3  0  0  0  0  0  0
  161.2030  206.2620  152.0110 C   0  0  0  0  0  0  0  0  0  0  0  0
  162.0880  207.6850  148.6390 C   0  0  0  0  0  3  0  0  0  0  0  0
  160.8330  212.3000  150.2490 C   0  0  0  0  0  0  0  0  0  0  0  0
  161.4370  212.5260  149.0110 C   0  0  0  0  0  3  0  0  0  0  0  0
  161.7490  210.0710  150.2650 C   0  0  0  0  0  0  0  0  0  0  0  0
  162.1910  211.5070  148.4240 C   0  0  0  0  0  3  0  0  0  0  0  0
  160.9880  211.0670  150.8850 C   0  0  0  0  0  3  0  0  0  0  0  0
  162.3310  210.3120  149.0580 N   0  0  0  0  0  0  0  0  0  0  0  0
  160.0810  213.3010  150.8480 O   0  0  0  0  0  1  0  0  0  0  0  0
  160.5990  207.5510  154.0890 C   0  0  0  0  0  2  0  0  0  0  0  0
  161.4800  207.3200  155.2210 N   0  0  0  0  0  2  0  0  0  0  0  0
  160.7390  207.7040  156.4080 C   0  0  0  0  0  2  0  0  0  0  0  0
  161.5570  208.7050  157.2130 C   0  0  0  0  0  2  0  0  0  0  0  0
  163.1960  210.7040  155.6830 O   0  0  0  0  0  0  0  0  0  0  0  0
  161.1960  210.1540  156.8840 C   0  0  1  0  0  3  0  0  0  0  0  0
  161.9380  210.6590  155.6750 C   0  0  0  0  0  0  0  0  0  0  0  0
  159.9250  211.1360  154.5010 C   0  0  0  0  0  3  0  0  0  0  0  0
  159.1590  210.7650  155.6540 N   0  0  0  0  0  0  0  0  0  0  0  0
  159.7070  210.3260  156.7470 C   0  0  0  0  0  3  0  0  0  0  0  0
  161.2210  211.0900  154.5150 N   0  0  0  0  0  0  0  0  0  0  0  0
  1  8  1  0  0  0  0
  3 15  1  0  0  0  0
  4 24  1  1  0  0  0
  5 12  1  0  0  0  0
  8  2  1  0  0  0  0
  8  3  2  0  0  0  0
  9  5  2  0  0  0  0
  9  1  1  0  0  0  0
 10  3  1  0  0  0  0
 10 14  1  0  0  0  0
 11  1  2  0  0  0  0
 11 16  1  0  0  0  0
 12  6  2  0  0  0  0
 12  2  1  0  0  0  0
 13  4  1  0  0  0  0
 14 19  1  6  0  0  0
 14 13  1  0  0  0  0
 15  7  2  0  0  0  0
 15  4  1  0  0  0  0
 16 10  2  0  0  0  0
 17 23  1  0  0  0  0
 17 21  1  0  0  0  0
 18 17  2  0  0  0  0
 19 21  2  0  0  0  0
 20 18  1  0  0  0  0
 20 22  2  0  0  0  0
 22 19  1  0  0  0  0
 24 25  1  0  0  0  0
 25 26  1  0  0  0  0
 26 27  1  0  0  0  0
 29 27  1  6  0  0  0
 30 28  2  0  0  0  0
 30 29  1  0  0  0  0
 31 34  2  0  0  0  0
 31 32  1  0  0  0  0
 32 33  2  0  0  0  0
 33 29  1  0  0  0  0
 34 30  1  0  0  0  0
M  END
>  <MODEL>
5

>  <REMARK>
 VINA RESULT:      -8.3      3.271      7.815
  Name = 
  6 active torsions:
  status: ('A' for Active; 'I' for Inactive)
    1  A    between atoms: C_3  and  C_13
    2  A    between atoms: C_3  and  C_17
    3  A    between atoms: C_5  and  C_18
    4  A    between atoms: C_12  and  C_28
    5  A    between atoms: C_17  and  N_29
    6  A    between atoms: C_18  and  N_29
                            x       y       z     vdW  Elec       q    Type
                         _______ _______ _______ _____ _____    ______ ____

>  <TORSDO>
F 6

$$$$
=
 OpenBabel11062407573D

 34 38  0  0  1  0  0  0  0  0999 V2000
  161.0480  205.0550  150.6420 C   0  0  0  0  0  0  0  0  0  0  0  0
  161.6250  205.7700  148.2760 C   0  0  0  0  0  2  0  0  0  0  0  0
  161.3740  207.4350  150.1940 C   0  0  0  0  0  0  0  0  0  0  0  0
  161.5830  209.9830  149.9570 C   0  0  2  0  0  3  0  0  0  0  0  0
  161.2430  203.3000  148.9520 C   0  0  0  0  0  3  0  0  0  0  0  0
  161.7880  203.9420  146.7550 O   0  0  0  0  0  0  0  0  0  0  0  0
  161.7950  208.4920  148.0740 O   0  0  0  0  0  0  0  0  0  0  0  0
  161.3460  206.0940  149.7290 C   0  0  0  0  0  0  0  0  0  0  0  0
  161.0030  203.6510  150.2120 C   0  0  0  0  0  3  0  0  0  0  0  0
  161.1400  207.7050  151.5600 C   0  0  0  0  0  0  0  0  0  0  0  0
  160.7810  205.3450  151.9790 C   0  0  0  0  0  3  0  0  0  0  0  0
  161.5630  204.3090  147.9370 C   0  0  0  0  0  0  0  0  0  0  0  0
  162.0650  209.9080  151.2780 O   0  0  0  0  0  0  0  0  0  0  0  0
  161.1390  209.1510  152.0250 C   0  0  2  0  0  3  0  0  0  0  0  0
  161.6280  208.6120  149.3180 C   0  0  0  0  0  0  0  0  0  0  0  0
  160.8180  206.6590  152.4340 C   0  0  0  0  0  3  0  0  0  0  0  0
  161.2780  208.4720  155.7420 C   0  0  0  0  0  0  0  0  0  0  0  0
  162.0330  209.5600  156.1830 C   0  0  0  0  0  3  0  0  0  0  0  0
  161.4430  209.2970  153.4840 C   0  0  0  0  0  0  0  0  0  0  0  0
  162.4800  210.5010  155.2520 C   0  0  0  0  0  3  0  0  0  0  0  0
  160.9800  208.3340  154.3860 C   0  0  0  0  0  3  0  0  0  0  0  0
  162.1790  210.3510  153.9340 N   0  0  0  0  0  0  0  0  0  0  0  0
  160.8260  207.5270  156.6520 O   0  0  0  0  0  1  0  0  0  0  0  0
  162.4120  211.0030  149.1890 C   0  0  0  0  0  2  0  0  0  0  0  0
  161.6120  212.1820  148.9080 N   0  0  0  0  0  2  0  0  0  0  0  0
  161.1960  212.0800  147.5220 C   0  0  0  0  0  2  0  0  0  0  0  0
  162.1560  212.8750  146.6460 C   0  0  0  0  0  2  0  0  0  0  0  0
  163.4500  213.4770  144.0030 O   0  0  0  0  0  0  0  0  0  0  0  0
  161.4870  213.4010  145.3750 C   0  0  1  0  0  3  0  0  0  0  0  0
  162.2720  213.0530  144.1390 C   0  0  0  0  0  0  0  0  0  0  0  0
  160.4520  211.8590  143.1830 C   0  0  0  0  0  3  0  0  0  0  0  0
  159.6170  212.2390  144.2850 N   0  0  0  0  0  0  0  0  0  0  0  0
  160.0560  212.9430  145.2840 C   0  0  0  0  0  3  0  0  0  0  0  0
  161.6880  212.2430  143.1150 N   0  0  0  0  0  0  0  0  0  0  0  0
  1 11  1  0  0  0  0
  2  8  1  0  0  0  0
  3 10  2  0  0  0  0
  4 24  1  6  0  0  0
  4 13  1  0  0  0  0
  5  9  2  0  0  0  0
  6 12  2  0  0  0  0
  7 15  2  0  0  0  0
  8  3  1  0  0  0  0
  8  1  2  0  0  0  0
  9  1  1  0  0  0  0
 10 14  1  0  0  0  0
 10 16  1  0  0  0  0
 11 16  2  0  0  0  0
 12  2  1  0  0  0  0
 12  5  1  0  0  0  0
 13 14  1  0  0  0  0
 14 19  1  1  0  0  0
 15  4  1  0  0  0  0
 15  3  1  0  0  0  0
 17 18  1  0  0  0  0
 17 23  1  0  0  0  0
 19 22  2  0  0  0  0
 19 21  1  0  0  0  0
 20 18  2  0  0  0  0
 21 17  2  0  0  0  0
 22 20  1  0  0  0  0
 25 24  1  0  0  0  0
 26 25  1  0  0  0  0
 27 26  1  0  0  0  0
 28 30  2  0  0  0  0
 29 27  1  1  0  0  0
 30 29  1  0  0  0  0
 31 32  1  0  0  0  0
 32 33  2  0  0  0  0
 33 29  1  0  0  0  0
 34 31  2  0  0  0  0
 34 30  1  0  0  0  0
M  END
>  <MODEL>
6

>  <REMARK>
 VINA RESULT:      -8.3      1.828      5.591
  Name = 
  6 active torsions:
  status: ('A' for Active; 'I' for Inactive)
    1  A    between atoms: C_3  and  C_13
    2  A    between atoms: C_3  and  C_17
    3  A    between atoms: C_5  and  C_18
    4  A    between atoms: C_12  and  C_28
    5  A    between atoms: C_17  and  N_29
    6  A    between atoms: C_18  and  N_29
                            x       y       z     vdW  Elec       q    Type
                         _______ _______ _______ _____ _____    ______ ____

>  <TORSDO>
F 6

$$$$
=
 OpenBabel11062407573D

 34 38  0  0  1  0  0  0  0  0999 V2000
  161.4470  206.3140  148.7690 C   0  0  0  0  0  0  0  0  0  0  0  0
  161.0970  205.5560  151.1660 C   0  0  0  0  0  2  0  0  0  0  0  0
  161.6930  207.9620  150.5570 C   0  0  0  0  0  0  0  0  0  0  0  0
  162.0870  209.8460  152.2550 C   0  0  2  0  0  3  0  0  0  0  0  0
  160.8800  203.9650  149.1350 C   0  0  0  0  0  3  0  0  0  0  0  0
  160.5410  203.2450  151.3500 O   0  0  0  0  0  0  0  0  0  0  0  0
  161.5690  207.5910  152.9310 O   0  0  0  0  0  0  0  0  0  0  0  0
  161.4160  206.6300  150.1480 C   0  0  0  0  0  0  0  0  0  0  0  0
  161.1720  204.9510  148.2930 C   0  0  0  0  0  3  0  0  0  0  0  0
  161.9580  208.9500  149.5840 C   0  0  0  0  0  0  0  0  0  0  0  0
  161.7500  207.2950  147.8260 C   0  0  0  0  0  3  0  0  0  0  0  0
  160.8230  204.2000  150.5820 C   0  0  0  0  0  0  0  0  0  0  0  0
  161.5770  210.6640  151.2290 O   0  0  0  0  0  0  0  0  0  0  0  0
  162.2870  210.3580  150.0500 C   0  0  2  0  0  3  0  0  0  0  0  0
  161.7360  208.4010  151.9790 C   0  0  0  0  0  0  0  0  0  0  0  0
  162.0110  208.6010  148.2290 C   0  0  0  0  0  3  0  0  0  0  0  0
  160.4540  212.9170  147.9550 C   0  0  0  0  0  0  0  0  0  0  0  0
  161.4770  213.3500  147.1090 C   0  0  0  0  0  3  0  0  0  0  0  0
  161.9980  211.4000  149.0140 C   0  0  0  0  0  0  0  0  0  0  0  0
  162.7500  212.7900  147.2390 C   0  0  0  0  0  3  0  0  0  0  0  0
  160.7120  211.9380  148.9160 C   0  0  0  0  0  3  0  0  0  0  0  0
  162.9830  211.8360  148.1810 N   0  0  0  0  0  0  0  0  0  0  0  0
  159.1830  213.4620  147.8420 O   0  0  0  0  0  1  0  0  0  0  0  0
  161.5340  210.3280  153.5890 C   0  0  0  0  0  2  0  0  0  0  0  0
  160.1190  210.6320  153.4590 N   0  0  0  0  0  2  0  0  0  0  0  0
  159.7440  211.3760  154.6460 C   0  0  0  0  0  2  0  0  0  0  0  0
  159.0230  210.4500  155.6170 C   0  0  0  0  0  2  0  0  0  0  0  0
  159.9450  207.7770  156.6330 O   0  0  0  0  0  0  0  0  0  0  0  0
  159.8500  210.1600  156.8710 C   0  0  1  0  0  3  0  0  0  0  0  0
  160.5870  208.8520  156.7710 C   0  0  0  0  0  0  0  0  0  0  0  0
  162.7050  209.8940  157.0540 C   0  0  0  0  0  3  0  0  0  0  0  0
  162.0610  211.1580  157.2590 N   0  0  0  0  0  0  0  0  0  0  0  0
  160.7720  211.3060  157.1910 C   0  0  0  0  0  3  0  0  0  0  0  0
  162.0150  208.8190  156.8310 N   0  0  0  0  0  0  0  0  0  0  0  0
  1  8  1  0  0  0  0
  3 15  1  0  0  0  0
  4 24  1  1  0  0  0
  5 12  1  0  0  0  0
  8  3  2  0  0  0  0
  8  2  1  0  0  0  0
  9  1  1  0  0  0  0
  9  5  2  0  0  0  0
 10 14  1  0  0  0  0
 10  3  1  0  0  0  0
 11 16  1  0  0  0  0
 11  1  2  0  0  0  0
 12  2  1  0  0  0  0
 12  6  2  0  0  0  0
 13  4  1  0  0  0  0
 14 19  1  6  0  0  0
 14 13  1  0  0  0  0
 15  4  1  0  0  0  0
 15  7  2  0  0  0  0
 16 10  2  0  0  0  0
 17 21  1  0  0  0  0
 18 20  1  0  0  0  0
 18 17  2  0  0  0  0
 20 22  2  0  0  0  0
 21 19  2  0  0  0  0
 22 19  1  0  0  0  0
 23 17  1  0  0  0  0
 25 24  1  0  0  0  0
 25 26  1  0  0  0  0
 26 27  1  0  0  0  0
 28 30  2  0  0  0  0
 29 27  1  6  0  0  0
 29 33  1  0  0  0  0
 30 34  1  0  0  0  0
 30 29  1  0  0  0  0
 31 32  1  0  0  0  0
 33 32  2  0  0  0  0
 34 31  2  0  0  0  0
M  END
>  <MODEL>
7

>  <REMARK>
 VINA RESULT:      -8.2      3.370      7.732
  Name = 
  6 active torsions:
  status: ('A' for Active; 'I' for Inactive)
    1  A    between atoms: C_3  and  C_13
    2  A    between atoms: C_3  and  C_17
    3  A    between atoms: C_5  and  C_18
    4  A    between atoms: C_12  and  C_28
    5  A    between atoms: C_17  and  N_29
    6  A    between atoms: C_18  and  N_29
                            x       y       z     vdW  Elec       q    Type
                         _______ _______ _______ _____ _____    ______ ____

>  <TORSDO>
F 6

$$$$
=
 OpenBabel11062407573D

 34 38  0  0  1  0  0  0  0  0999 V2000
  161.5800  206.0740  148.5280 C   0  0  0  0  0  0  0  0  0  0  0  0
  161.0600  204.6740  150.5800 C   0  0  0  0  0  2  0  0  0  0  0  0
  161.5010  207.1850  150.7030 C   0  0  0  0  0  0  0  0  0  0  0  0
  161.5570  208.5560  152.8720 C   0  0  2  0  0  3  0  0  0  0  0  0
  161.1870  203.6850  148.1910 C   0  0  0  0  0  3  0  0  0  0  0  0
  160.6930  202.3720  150.0800 O   0  0  0  0  0  0  0  0  0  0  0  0
  161.1730  206.1760  152.8620 O   0  0  0  0  0  0  0  0  0  0  0  0
  161.3840  206.0010  149.9270 C   0  0  0  0  0  0  0  0  0  0  0  0
  161.4740  204.8780  147.6790 C   0  0  0  0  0  3  0  0  0  0  0  0
  161.7740  208.4130  150.0630 C   0  0  0  0  0  0  0  0  0  0  0  0
  161.8880  207.2890  147.9200 C   0  0  0  0  0  3  0  0  0  0  0  0
  160.9650  203.5150  149.6300 C   0  0  0  0  0  0  0  0  0  0  0  0
  161.0820  209.5910  152.0440 O   0  0  0  0  0  0  0  0  0  0  0  0
  161.9300  209.6580  150.9200 C   0  0  2  0  0  3  0  0  0  0  0  0
  161.3630  207.2220  152.1850 C   0  0  0  0  0  0  0  0  0  0  0  0
  161.9920  208.4490  148.6810 C   0  0  0  0  0  3  0  0  0  0  0  0
  162.0610  212.3520  148.2690 C   0  0  0  0  0  0  0  0  0  0  0  0
  161.1250  213.2600  148.7670 C   0  0  0  0  0  3  0  0  0  0  0  0
  161.6570  210.9250  150.1680 C   0  0  0  0  0  0  0  0  0  0  0  0
  160.4690  212.9730  149.9670 C   0  0  0  0  0  3  0  0  0  0  0  0
  162.3310  211.1750  148.9700 C   0  0  0  0  0  3  0  0  0  0  0  0
  160.7450  211.8220  150.6360 N   0  0  0  0  0  0  0  0  0  0  0  0
  162.7220  212.6190  147.0780 O   0  0  0  0  0  1  0  0  0  0  0  0
  160.8330  208.6250  154.2090 C   0  0  0  0  0  2  0  0  0  0  0  0
  160.7650  210.0020  154.6670 N   0  0  0  0  0  2  0  0  0  0  0  0
  159.7160  210.0540  155.6680 C   0  0  0  0  0  2  0  0  0  0  0  0
  158.9850  211.3860  155.5650 C   0  0  0  0  0  2  0  0  0  0  0  0
  156.0660  210.7110  155.3460 O   0  0  0  0  0  0  0  0  0  0  0  0
  158.0960  211.4700  154.3240 C   0  0  1  0  0  3  0  0  0  0  0  0
  156.6410  211.6120  154.6800 C   0  0  0  0  0  0  0  0  0  0  0  0
  156.4390  213.6730  153.5110 C   0  0  0  0  0  3  0  0  0  0  0  0
  157.7910  213.5500  153.0520 N   0  0  0  0  0  0  0  0  0  0  0  0
  158.5600  212.5610  153.3960 C   0  0  0  0  0  3  0  0  0  0  0  0
  155.9030  212.7650  154.2670 N   0  0  0  0  0  0  0  0  0  0  0  0
  1  8  1  0  0  0  0
  3 15  1  0  0  0  0
  4 24  1  1  0  0  0
  5 12  1  0  0  0  0
  8  2  1  0  0  0  0
  8  3  2  0  0  0  0
  9  5  2  0  0  0  0
  9  1  1  0  0  0  0
 10  3  1  0  0  0  0
 10 14  1  0  0  0  0
 11  1  2  0  0  0  0
 11 16  1  0  0  0  0
 12  6  2  0  0  0  0
 12  2  1  0  0  0  0
 13  4  1  0  0  0  0
 14 19  1  6  0  0  0
 14 13  1  0  0  0  0
 15  7  2  0  0  0  0
 15  4  1  0  0  0  0
 16 10  2  0  0  0  0
 17 18  2  0  0  0  0
 17 21  1  0  0  0  0
 18 20  1  0  0  0  0
 19 22  1  0  0  0  0
 20 22  2  0  0  0  0
 21 19  2  0  0  0  0
 23 17  1  0  0  0  0
 24 25  1  0  0  0  0
 25 26  1  0  0  0  0
 27 26  1  0  0  0  0
 29 30  1  0  0  0  0
 29 27  1  1  0  0  0
 30 28  2  0  0  0  0
 31 34  2  0  0  0  0
 32 33  2  0  0  0  0
 32 31  1  0  0  0  0
 33 29  1  0  0  0  0
 34 30  1  0  0  0  0
M  END
>  <MODEL>
8

>  <REMARK>
 VINA RESULT:      -8.1      3.576      7.112
  Name = 
  6 active torsions:
  status: ('A' for Active; 'I' for Inactive)
    1  A    between atoms: C_3  and  C_13
    2  A    between atoms: C_3  and  C_17
    3  A    between atoms: C_5  and  C_18
    4  A    between atoms: C_12  and  C_28
    5  A    between atoms: C_17  and  N_29
    6  A    between atoms: C_18  and  N_29
                            x       y       z     vdW  Elec       q    Type
                         _______ _______ _______ _____ _____    ______ ____

>  <TORSDO>
F 6

$$$$
=
 OpenBabel11062407573D

 34 38  0  0  1  0  0  0  0  0999 V2000
  160.4300  208.0120  155.3670 C   0  0  0  0  0  0  0  0  0  0  0  0
  160.5650  210.3990  154.5160 C   0  0  0  0  0  2  0  0  0  0  0  0
  161.2180  208.3890  153.0850 C   0  0  0  0  0  0  0  0  0  0  0  0
  162.1490  208.5320  150.6970 C   0  0  2  0  0  3  0  0  0  0  0  0
  159.7560  209.7930  156.9000 C   0  0  0  0  0  3  0  0  0  0  0  0
  159.8640  212.0130  156.1250 O   0  0  0  0  0  0  0  0  0  0  0  0
  161.6010  210.4940  151.9860 O   0  0  0  0  0  0  0  0  0  0  0  0
  160.7400  208.9080  154.3170 C   0  0  0  0  0  0  0  0  0  0  0  0
  159.9360  208.4970  156.6630 C   0  0  0  0  0  3  0  0  0  0  0  0
  161.3420  206.9920  152.9180 C   0  0  0  0  0  0  0  0  0  0  0  0
  160.5970  206.6390  155.1970 C   0  0  0  0  0  3  0  0  0  0  0  0
  160.0480  210.7950  155.8680 C   0  0  0  0  0  0  0  0  0  0  0  0
  161.4950  207.2970  150.5360 O   0  0  0  0  0  0  0  0  0  0  0  0
  161.8900  206.4640  151.6030 C   0  0  2  0  0  3  0  0  0  0  0  0
  161.6200  209.2350  151.9280 C   0  0  0  0  0  0  0  0  0  0  0  0
  161.0560  206.1320  153.9850 C   0  0  0  0  0  3  0  0  0  0  0  0
  160.8320  203.3510  149.7360 C   0  0  0  0  0  0  0  0  0  0  0  0
  160.7110  202.4400  150.7870 C   0  0  0  0  0  3  0  0  0  0  0  0
  161.4670  205.0560  151.3150 C   0  0  0  0  0  0  0  0  0  0  0  0
  160.9750  202.8650  152.0910 C   0  0  0  0  0  3  0  0  0  0  0  0
  161.2130  204.6680  149.9970 C   0  0  0  0  0  3  0  0  0  0  0  0
  161.3460  204.1520  152.3260 N   0  0  0  0  0  0  0  0  0  0  0  0
  160.5740  202.9470  148.4340 O   0  0  0  0  0  1  0  0  0  0  0  0
  161.9560  209.3600  149.4340 C   0  0  0  0  0  2  0  0  0  0  0  0
  162.4690  208.6370  148.2830 N   0  0  0  0  0  2  0  0  0  0  0  0
  161.3460  207.9230  147.7070 C   0  0  0  0  0  2  0  0  0  0  0  0
  161.7000  206.4490  147.5700 C   0  0  0  0  0  2  0  0  0  0  0  0
  163.8180  204.6770  146.3860 O   0  0  0  0  0  0  0  0  0  0  0  0
  161.8500  206.0170  146.1110 C   0  0  1  0  0  3  0  0  0  0  0  0
  162.6280  204.7360  145.9780 C   0  0  0  0  0  0  0  0  0  0  0  0
  160.8310  203.6260  144.8850 C   0  0  0  0  0  3  0  0  0  0  0  0
  160.0730  204.8430  144.8870 N   0  0  0  0  0  0  0  0  0  0  0  0
  160.5130  205.9410  145.4260 C   0  0  0  0  0  3  0  0  0  0  0  0
  162.0240  203.5800  145.3900 N   0  0  0  0  0  0  0  0  0  0  0  0
  1  9  1  0  0  0  0
  2 12  1  0  0  0  0
  3  8  1  0  0  0  0
  4 24  1  6  0  0  0
  4 15  1  0  0  0  0
  8  2  1  0  0  0  0
  8  1  2  0  0  0  0
  9  5  2  0  0  0  0
 10  3  2  0  0  0  0
 10 16  1  0  0  0  0
 11  1  1  0  0  0  0
 12  6  2  0  0  0  0
 12  5  1  0  0  0  0
 13  4  1  0  0  0  0
 13 14  1  0  0  0  0
 14 19  1  6  0  0  0
 14 10  1  0  0  0  0
 15  7  2  0  0  0  0
 15  3  1  0  0  0  0
 16 11  2  0  0  0  0
 17 21  2  0  0  0  0
 17 18  1  0  0  0  0
 18 20  2  0  0  0  0
 19 22  2  0  0  0  0
 20 22  1  0  0  0  0
 21 19  1  0  0  0  0
 23 17  1  0  0  0  0
 25 24  1  0  0  0  0
 26 25  1  0  0  0  0
 27 26  1  0  0  0  0
 29 27  1  1  0  0  0
 30 29  1  0  0  0  0
 30 28  2  0  0  0  0
 31 32  1  0  0  0  0
 31 34  2  0  0  0  0
 32 33  2  0  0  0  0
 33 29  1  0  0  0  0
 34 30  1  0  0  0  0
M  END
>  <MODEL>
9

>  <REMARK>
 VINA RESULT:      -8.0      3.411      5.285
  Name = 
  6 active torsions:
  status: ('A' for Active; 'I' for Inactive)
    1  A    between atoms: C_3  and  C_13
    2  A    between atoms: C_3  and  C_17
    3  A    between atoms: C_5  and  C_18
    4  A    between atoms: C_12  and  C_28
    5  A    between atoms: C_17  and  N_29
    6  A    between atoms: C_18  and  N_29
                            x       y       z     vdW  Elec       q    Type
                         _______ _______ _______ _____ _____    ______ ____

>  <TORSDO>
F 6

$$$$
