=
 OpenBabel11062409583D

 43 50  0  0  1  0  0  0  0  0999 V2000
  160.7850  202.5230  148.8750 C   0  0  2  0  0  3  0  0  0  0  0  0
  162.2450  207.4060  148.6640 C   0  0  0  0  0  0  0  0  0  0  0  0
  162.2360  209.4350  151.7200 N   0  0  0  0  0  2  0  0  0  0  0  0
  161.1030  204.8910  147.9850 C   0  0  2  0  0  3  0  0  0  0  0  0
  161.1210  202.9190  150.3060 C   0  0  0  0  0  2  0  0  0  0  0  0
  161.2040  201.0860  148.6440 C   0  0  0  0  0  1  0  0  0  0  0  0
  161.1830  205.3740  149.4240 C   0  0  0  0  0  0  0  0  0  0  0  0
  161.5290  203.4240  147.8940 C   0  0  0  0  0  2  0  0  0  0  0  0
  160.2850  204.4830  150.6980 S   0  0  0  0  0  0  0  0  0  0  0  0
  161.7340  207.2350  150.9280 N   0  0  0  0  0  0  0  0  0  0  0  0
  161.7670  206.5390  149.6940 C   0  0  0  0  0  0  0  0  0  0  0  0
  162.2580  207.0750  147.4120 N   0  0  0  0  0  0  0  0  0  0  0  0
  162.4920  208.7460  149.2510 C   0  0  2  0  0  3  0  0  0  0  0  0
  162.1450  208.4470  150.6920 C   0  0  0  0  0  0  0  0  0  0  0  0
  162.0010  205.6890  147.0020 C   0  0  0  0  0  2  0  0  0  0  0  0
  161.8610  209.1690  153.1030 C   0  0  2  0  0  3  0  0  0  0  0  0
  160.6180  208.2950  153.1630 C   0  0  0  0  0  1  0  0  0  0  0  0
  161.6580  210.4750  153.8660 C   0  0  0  0  0  2  0  0  0  0  0  0
  160.4150  210.4510  154.7590 C   0  0  2  0  0  3  0  0  0  0  0  0
  159.4580  211.6260  154.5450 C   0  0  1  0  0  0  0  0  0  0  0  0
  160.4600  211.6460  155.7000 C   0  0  1  0  0  3  0  0  0  0  0  0
  159.8540  211.3040  156.9120 O   0  0  0  0  0  1  0  0  0  0  0  0
  159.6630  211.8320  152.0240 N   0  0  0  0  0  2  0  0  0  0  0  0
  159.0020  213.7860  153.2910 N   0  0  0  0  0  2  0  0  0  0  0  0
  159.7500  212.5230  153.3160 C   0  0  2  0  0  0  0  0  0  0  0  0
  158.5370  212.6060  152.5590 C   0  0  2  0  0  3  0  0  0  0  0  0
  158.0140  211.2270  154.8580 C   0  0  0  0  0  2  0  0  0  0  0  0
  157.5630  211.9190  155.9860 O   0  0  0  0  0  0  0  0  0  0  0  0
  156.1720  211.9270  155.8730 C   0  0  1  0  0  3  0  0  0  0  0  0
  154.4660  214.4520  154.0310 N   0  0  0  0  0  1  0  0  0  0  0  0
  155.4530  214.2070  156.1840 N   0  0  0  0  0  2  0  0  0  0  0  0
  155.6270  213.9670  154.7550 C   0  0  1  0  0  3  0  0  0  0  0  0
  155.5940  212.9200  156.8550 C   0  0  0  0  0  2  0  0  0  0  0  0
  155.7850  212.4810  154.5300 C   0  0  0  0  0  2  0  0  0  0  0  0
  161.5420  209.7050  148.7130 N   0  0  0  0  0  2  0  0  0  0  0  0
  162.0450  211.0260  149.0470 C   0  0  0  0  0  2  0  0  0  0  0  0
  160.4970  211.8200  147.2630 C   0  0  0  0  0  2  0  0  0  0  0  0
  159.9420  213.1920  147.3370 C   0  0  0  0  0  0  0  0  0  0  0  0
  162.0320  213.3990  148.3150 C   0  0  0  0  0  2  0  0  0  0  0  0
  161.8960  211.9510  147.8560 C   0  0  1  0  0  3  0  0  0  0  0  0
  160.7660  214.0540  147.9040 C   0  0  0  0  0  3  0  0  0  0  0  0
  157.5350  212.7860  147.0770 C   0  0  0  0  0  2  0  0  0  0  0  0
  158.6070  213.5300  146.8240 C   0  0  0  0  0  3  0  0  0  0  0  0
  1  6  1  6  0  0  0
  1  5  1  0  0  0  0
  2 13  1  0  0  0  0
  2 11  1  0  0  0  0
  3 16  1  0  0  0  0
  4 15  1  6  0  0  0
  4  7  1  0  0  0  0
  5  9  1  0  0  0  0
  7 11  2  0  0  0  0
  7  9  1  0  0  0  0
  8  4  1  0  0  0  0
  8  1  1  0  0  0  0
 11 10  1  0  0  0  0
 12  2  2  0  0  0  0
 13 35  1  6  0  0  0
 13 14  1  0  0  0  0
 14 10  2  0  0  0  0
 14  3  1  0  0  0  0
 15 12  1  0  0  0  0
 16 17  1  6  0  0  0
 16 18  1  0  0  0  0
 19 18  1  6  0  0  0
 19 21  1  0  0  0  0
 20 19  1  0  0  0  0
 20 27  1  1  0  0  0
 20 21  1  0  0  0  0
 21 22  1  1  0  0  0
 24 25  1  0  0  0  0
 25 23  1  6  0  0  0
 25 20  1  0  0  0  0
 26 23  1  6  0  0  0
 26 24  1  0  0  0  0
 26 25  1  0  0  0  0
 27 28  1  0  0  0  0
 29 28  1  6  0  0  0
 29 33  1  0  0  0  0
 31 33  1  0  0  0  0
 32 30  1  6  0  0  0
 32 31  1  0  0  0  0
 34 32  1  0  0  0  0
 34 29  1  0  0  0  0
 35 36  1  0  0  0  0
 37 38  1  0  0  0  0
 37 40  1  0  0  0  0
 38 41  2  0  0  0  0
 40 39  1  0  0  0  0
 40 36  1  1  0  0  0
 41 39  1  0  0  0  0
 43 42  2  0  0  0  0
 43 38  1  0  0  0  0
M  END
>  <MODEL>
1

>  <REMARK>
 VINA RESULT:      -7.6      0.000      0.000
  Name = 
  11 active torsions:
  status: ('A' for Active; 'I' for Inactive)
    1  A    between atoms: N_1  and  C_32
    2  A    between atoms: N_1  and  C_34
    3  A    between atoms: C_2  and  C_6
    4  A    between atoms: C_2  and  N_13
    5  A    between atoms: C_3  and  C_6
    6  A    between atoms: C_4  and  C_22
    7  A    between atoms: C_4  and  C_41
    8  A    between atoms: C_11  and  O_14
    9  A    between atoms: O_14  and  C_41
   10  A    between atoms: C_19  and  C_37
   11  A    between atoms: C_32  and  C_35
                            x       y       z     vdW  Elec       q    Type
                         _______ _______ _______ _____ _____    ______ ____

>  <TORSDO>
F 11

$$$$
=
 OpenBabel11062409583D

 43 50  0  0  1  0  0  0  0  0999 V2000
  161.2220  202.6360  145.9470 C   0  0  2  0  0  3  0  0  0  0  0  0
  161.0400  205.8690  149.8890 C   0  0  0  0  0  0  0  0  0  0  0  0
  161.7120  209.4330  149.3420 N   0  0  0  0  0  2  0  0  0  0  0  0
  161.4720  203.5360  148.3200 C   0  0  2  0  0  3  0  0  0  0  0  0
  161.0680  204.0230  145.3400 C   0  0  0  0  0  2  0  0  0  0  0  0
  160.4420  201.6390  145.1160 C   0  0  0  0  0  1  0  0  0  0  0  0
  161.5880  204.9320  147.7300 C   0  0  0  0  0  0  0  0  0  0  0  0
  160.6840  202.6260  147.3750 C   0  0  0  0  0  2  0  0  0  0  0  0
  162.2910  205.1360  146.0910 S   0  0  0  0  0  0  0  0  0  0  0  0
  161.6000  207.3460  148.1800 N   0  0  0  0  0  0  0  0  0  0  0  0
  161.3320  205.9920  148.4950 C   0  0  0  0  0  0  0  0  0  0  0  0
  160.8820  204.7280  150.4790 N   0  0  0  0  0  0  0  0  0  0  0  0
  161.1690  207.2060  150.5170 C   0  0  2  0  0  3  0  0  0  0  0  0
  161.4990  208.0220  149.2880 C   0  0  0  0  0  0  0  0  0  0  0  0
  160.7580  203.4910  149.6980 C   0  0  0  0  0  2  0  0  0  0  0  0
  162.0740  210.2210  148.1710 C   0  0  2  0  0  3  0  0  0  0  0  0
  163.3510  211.0060  148.4270 C   0  0  0  0  0  1  0  0  0  0  0  0
  160.9280  211.1420  147.7660 C   0  0  0  0  0  2  0  0  0  0  0  0
  160.7950  212.3610  148.6830 C   0  0  2  0  0  3  0  0  0  0  0  0
  159.8390  213.4400  148.1700 C   0  0  1  0  0  0  0  0  0  0  0  0
  161.3480  213.5830  147.9640 C   0  0  1  0  0  3  0  0  0  0  0  0
  161.9140  214.4530  148.9000 O   0  0  0  0  0  1  0  0  0  0  0  0
  157.6210  212.5930  147.2750 N   0  0  0  0  0  2  0  0  0  0  0  0
  158.9440  214.0600  145.8770 N   0  0  0  0  0  2  0  0  0  0  0  0
  158.9740  213.0520  146.9440 C   0  0  2  0  0  0  0  0  0  0  0  0
  157.8860  213.9820  146.8870 C   0  0  2  0  0  3  0  0  0  0  0  0
  159.1990  214.2090  149.3280 C   0  0  0  0  0  2  0  0  0  0  0  0
  158.7200  213.3120  150.2870 O   0  0  0  0  0  0  0  0  0  0  0  0
  159.2760  213.7410  151.4930 C   0  0  1  0  0  3  0  0  0  0  0  0
  158.7940  211.9250  154.5180 N   0  0  0  0  0  1  0  0  0  0  0  0
  157.5780  213.4780  153.1840 N   0  0  0  0  0  2  0  0  0  0  0  0
  158.4020  212.2750  153.1650 C   0  0  1  0  0  3  0  0  0  0  0  0
  158.2200  214.4520  152.3080 C   0  0  0  0  0  2  0  0  0  0  0  0
  159.6330  212.5440  152.3300 C   0  0  0  0  0  2  0  0  0  0  0  0
  162.3040  207.2180  151.4250 N   0  0  0  0  0  2  0  0  0  0  0  0
  161.7830  206.9380  152.7520 C   0  0  0  0  0  2  0  0  0  0  0  0
  160.8690  208.0970  154.7610 C   0  0  0  0  0  2  0  0  0  0  0  0
  161.4350  209.4050  155.1680 C   0  0  0  0  0  0  0  0  0  0  0  0
  161.6490  209.4150  152.8600 C   0  0  0  0  0  2  0  0  0  0  0  0
  160.9550  208.1110  153.2380 C   0  0  1  0  0  3  0  0  0  0  0  0
  161.8580  210.1260  154.1460 C   0  0  0  0  0  3  0  0  0  0  0  0
  162.6580  210.0390  157.1990 C   0  0  0  0  0  2  0  0  0  0  0  0
  161.5050  209.8290  156.5730 C   0  0  0  0  0  3  0  0  0  0  0  0
  1  6  1  6  0  0  0
  1  8  1  0  0  0  0
  2 12  2  0  0  0  0
  2 13  1  0  0  0  0
  4  8  1  6  0  0  0
  4 15  1  0  0  0  0
  5  1  1  0  0  0  0
  5  9  1  0  0  0  0
  7  4  1  0  0  0  0
  7 11  2  0  0  0  0
  9  7  1  0  0  0  0
 10 11  1  0  0  0  0
 10 14  2  0  0  0  0
 11  2  1  0  0  0  0
 13 35  1  1  0  0  0
 14  3  1  0  0  0  0
 14 13  1  0  0  0  0
 15 12  1  0  0  0  0
 16 17  1  1  0  0  0
 16  3  1  0  0  0  0
 18 16  1  0  0  0  0
 19 18  1  6  0  0  0
 20 19  1  0  0  0  0
 20 27  1  1  0  0  0
 21 20  1  0  0  0  0
 21 19  1  0  0  0  0
 21 22  1  1  0  0  0
 25 24  1  6  0  0  0
 25 23  1  0  0  0  0
 25 20  1  0  0  0  0
 26 24  1  6  0  0  0
 26 25  1  0  0  0  0
 26 23  1  0  0  0  0
 27 28  1  0  0  0  0
 29 28  1  6  0  0  0
 29 33  1  0  0  0  0
 29 34  1  0  0  0  0
 32 31  1  0  0  0  0
 32 30  1  1  0  0  0
 33 31  1  0  0  0  0
 34 32  1  0  0  0  0
 35 36  1  0  0  0  0
 37 38  1  0  0  0  0
 38 43  1  0  0  0  0
 39 40  1  0  0  0  0
 39 41  1  0  0  0  0
 40 36  1  1  0  0  0
 40 37  1  0  0  0  0
 41 38  2  0  0  0  0
 43 42  2  0  0  0  0
M  END
>  <MODEL>
2

>  <REMARK>
 VINA RESULT:      -7.5      2.590      5.748
  Name = 
  11 active torsions:
  status: ('A' for Active; 'I' for Inactive)
    1  A    between atoms: N_1  and  C_32
    2  A    between atoms: N_1  and  C_34
    3  A    between atoms: C_2  and  C_6
    4  A    between atoms: C_2  and  N_13
    5  A    between atoms: C_3  and  C_6
    6  A    between atoms: C_4  and  C_22
    7  A    between atoms: C_4  and  C_41
    8  A    between atoms: C_11  and  O_14
    9  A    between atoms: O_14  and  C_41
   10  A    between atoms: C_19  and  C_37
   11  A    between atoms: C_32  and  C_35
                            x       y       z     vdW  Elec       q    Type
                         _______ _______ _______ _____ _____    ______ ____

>  <TORSDO>
F 11

$$$$
=
 OpenBabel11062409583D

 43 50  0  0  1  0  0  0  0  0999 V2000
  161.5460  203.9700  148.1350 C   0  0  2  0  0  3  0  0  0  0  0  0
  161.2950  208.1180  151.0940 C   0  0  0  0  0  0  0  0  0  0  0  0
  161.6050  211.4450  149.5810 N   0  0  0  0  0  2  0  0  0  0  0  0
  161.8480  205.4880  150.1610 C   0  0  2  0  0  3  0  0  0  0  0  0
  161.2310  205.1290  147.2000 C   0  0  0  0  0  2  0  0  0  0  0  0
  160.8130  202.7320  147.6580 C   0  0  0  0  0  1  0  0  0  0  0  0
  161.8010  206.6800  149.2190 C   0  0  0  0  0  0  0  0  0  0  0  0
  161.0930  204.3030  149.5540 C   0  0  0  0  0  2  0  0  0  0  0  0
  162.3880  206.4890  147.5330 S   0  0  0  0  0  0  0  0  0  0  0  0
  161.6190  209.1200  149.0190 N   0  0  0  0  0  0  0  0  0  0  0  0
  161.4940  207.8840  149.6980 C   0  0  0  0  0  0  0  0  0  0  0  0
  161.2770  207.1680  151.9730 N   0  0  0  0  0  0  0  0  0  0  0  0
  161.3370  209.5800  151.3380 C   0  0  2  0  0  3  0  0  0  0  0  0
  161.5200  210.0580  149.9160 C   0  0  0  0  0  0  0  0  0  0  0  0
  161.2220  205.7610  151.5550 C   0  0  0  0  0  2  0  0  0  0  0  0
  161.8260  211.9140  148.2200 C   0  0  2  0  0  3  0  0  0  0  0  0
  163.2920  212.2540  148.0010 C   0  0  0  0  0  1  0  0  0  0  0  0
  160.9280  213.1080  147.9100 C   0  0  0  0  0  2  0  0  0  0  0  0
  160.8320  213.4040  146.4110 C   0  0  2  0  0  3  0  0  0  0  0  0
  159.4170  213.3130  145.8350 C   0  0  1  0  0  0  0  0  0  0  0  0
  160.3890  212.1420  145.6850 C   0  0  1  0  0  3  0  0  0  0  0  0
  160.9660  212.1140  144.4130 O   0  0  0  0  0  1  0  0  0  0  0  0
  157.7600  214.4510  147.3830 N   0  0  0  0  0  2  0  0  0  0  0  0
  157.1740  212.2960  146.4510 N   0  0  0  0  0  2  0  0  0  0  0  0
  158.2720  213.1760  146.8700 C   0  0  2  0  0  0  0  0  0  0  0  0
  157.1000  213.7480  146.2780 C   0  0  2  0  0  3  0  0  0  0  0  0
  159.2430  214.2550  144.6420 C   0  0  0  0  0  2  0  0  0  0  0  0
  158.6500  213.5710  143.5770 O   0  0  0  0  0  0  0  0  0  0  0  0
  158.8360  214.3970  142.4680 C   0  0  1  0  0  3  0  0  0  0  0  0
  159.2650  213.0550  139.1970 N   0  0  0  0  0  1  0  0  0  0  0  0
  160.5910  213.4090  141.1430 N   0  0  0  0  0  2  0  0  0  0  0  0
  159.3080  212.9280  140.6430 C   0  0  1  0  0  3  0  0  0  0  0  0
  160.3070  214.4500  142.1240 C   0  0  0  0  0  2  0  0  0  0  0  0
  158.2060  213.7580  141.2610 C   0  0  0  0  0  2  0  0  0  0  0  0
  162.5170  209.9170  152.1170 N   0  0  0  0  0  2  0  0  0  0  0  0
  162.0450  210.3940  153.4060 C   0  0  0  0  0  2  0  0  0  0  0  0
  159.9270  210.0910  154.6850 C   0  0  0  0  0  2  0  0  0  0  0  0
  159.2120  211.2810  155.2030 C   0  0  0  0  0  0  0  0  0  0  0  0
  160.1990  212.0480  153.2520 C   0  0  0  0  0  2  0  0  0  0  0  0
  160.5390  210.5670  153.3710 C   0  0  1  0  0  3  0  0  0  0  0  0
  159.3520  212.3450  154.4340 C   0  0  0  0  0  3  0  0  0  0  0  0
  157.9020  212.3440  156.9860 C   0  0  0  0  0  2  0  0  0  0  0  0
  158.4340  211.2510  156.4490 C   0  0  0  0  0  3  0  0  0  0  0  0
  1  6  1  6  0  0  0
  1  8  1  0  0  0  0
  2 13  1  0  0  0  0
  2 12  2  0  0  0  0
  3 14  1  0  0  0  0
  4  8  1  6  0  0  0
  4 15  1  0  0  0  0
  5  9  1  0  0  0  0
  5  1  1  0  0  0  0
  7 11  2  0  0  0  0
  7  4  1  0  0  0  0
  9  7  1  0  0  0  0
 10 11  1  0  0  0  0
 10 14  2  0  0  0  0
 11  2  1  0  0  0  0
 13 35  1  1  0  0  0
 14 13  1  0  0  0  0
 15 12  1  0  0  0  0
 16 17  1  1  0  0  0
 16  3  1  0  0  0  0
 18 16  1  0  0  0  0
 19 18  1  1  0  0  0
 20 27  1  6  0  0  0
 20 19  1  0  0  0  0
 20 25  1  0  0  0  0
 21 22  1  6  0  0  0
 21 20  1  0  0  0  0
 21 19  1  0  0  0  0
 25 24  1  1  0  0  0
 25 23  1  0  0  0  0
 26 24  1  1  0  0  0
 26 25  1  0  0  0  0
 26 23  1  0  0  0  0
 28 27  1  0  0  0  0
 29 28  1  1  0  0  0
 31 33  1  0  0  0  0
 32 30  1  6  0  0  0
 32 31  1  0  0  0  0
 32 34  1  0  0  0  0
 33 29  1  0  0  0  0
 34 29  1  0  0  0  0
 35 36  1  0  0  0  0
 37 38  1  0  0  0  0
 38 43  1  0  0  0  0
 39 40  1  0  0  0  0
 39 41  1  0  0  0  0
 40 36  1  1  0  0  0
 40 37  1  0  0  0  0
 41 38  2  0  0  0  0
 43 42  2  0  0  0  0
M  END
>  <MODEL>
3

>  <REMARK>
 VINA RESULT:      -7.2      4.118      8.224
  Name = 
  11 active torsions:
  status: ('A' for Active; 'I' for Inactive)
    1  A    between atoms: N_1  and  C_32
    2  A    between atoms: N_1  and  C_34
    3  A    between atoms: C_2  and  C_6
    4  A    between atoms: C_2  and  N_13
    5  A    between atoms: C_3  and  C_6
    6  A    between atoms: C_4  and  C_22
    7  A    between atoms: C_4  and  C_41
    8  A    between atoms: C_11  and  O_14
    9  A    between atoms: O_14  and  C_41
   10  A    between atoms: C_19  and  C_37
   11  A    between atoms: C_32  and  C_35
                            x       y       z     vdW  Elec       q    Type
                         _______ _______ _______ _____ _____    ______ ____

>  <TORSDO>
F 11

$$$$
=
 OpenBabel11062409583D

 43 50  0  0  1  0  0  0  0  0999 V2000
  160.5720  209.3970  155.7910 C   0  0  2  0  0  3  0  0  0  0  0  0
  162.1290  208.2270  151.0760 C   0  0  0  0  0  0  0  0  0  0  0  0
  162.3800  210.8670  148.5430 N   0  0  0  0  0  2  0  0  0  0  0  0
  160.8840  208.0810  153.6290 C   0  0  2  0  0  3  0  0  0  0  0  0
  161.0160  210.7100  155.1620 C   0  0  0  0  0  2  0  0  0  0  0  0
  160.9400  209.3990  157.2610 C   0  0  0  0  0  1  0  0  0  0  0  0
  161.0740  209.4030  152.9040 C   0  0  0  0  0  0  0  0  0  0  0  0
  161.2680  208.2250  155.1040 C   0  0  0  0  0  2  0  0  0  0  0  0
  160.2460  210.8700  153.5240 S   0  0  0  0  0  0  0  0  0  0  0  0
  161.7720  210.5130  150.8280 N   0  0  0  0  0  0  0  0  0  0  0  0
  161.7040  209.4240  151.7310 C   0  0  0  0  0  0  0  0  0  0  0  0
  162.0480  207.0560  151.6230 N   0  0  0  0  0  0  0  0  0  0  0  0
  162.4480  208.5490  149.6640 C   0  0  2  0  0  3  0  0  0  0  0  0
  162.1950  210.0390  149.6920 C   0  0  0  0  0  0  0  0  0  0  0  0
  161.7300  206.9160  153.0500 C   0  0  0  0  0  2  0  0  0  0  0  0
  162.0960  212.2960  148.5480 C   0  0  2  0  0  3  0  0  0  0  0  0
  160.7100  212.5660  149.1140 C   0  0  0  0  0  1  0  0  0  0  0  0
  162.2450  212.8800  147.1450 C   0  0  0  0  0  2  0  0  0  0  0  0
  161.0260  212.6120  146.2600 C   0  0  2  0  0  3  0  0  0  0  0  0
  161.0670  213.3060  144.8960 C   0  0  1  0  0  0  0  0  0  0  0  0
  160.2700  213.9150  146.0510 C   0  0  1  0  0  3  0  0  0  0  0  0
  158.9040  213.6440  145.9310 O   0  0  0  0  0  1  0  0  0  0  0  0
  163.6020  213.1940  144.8850 N   0  0  0  0  0  2  0  0  0  0  0  0
  162.4940  214.4290  143.1220 N   0  0  0  0  0  2  0  0  0  0  0  0
  162.4140  213.9710  144.5150 C   0  0  2  0  0  0  0  0  0  0  0  0
  163.0340  213.1310  143.5350 C   0  0  2  0  0  3  0  0  0  0  0  0
  160.3000  212.5040  143.8430 C   0  0  0  0  0  2  0  0  0  0  0  0
  159.9200  213.3420  142.7900 O   0  0  0  0  0  0  0  0  0  0  0  0
  159.6030  212.4800  141.7390 C   0  0  1  0  0  3  0  0  0  0  0  0
  162.1280  211.0480  139.6770 N   0  0  0  0  0  1  0  0  0  0  0  0
  160.9750  213.1230  139.8640 N   0  0  0  0  0  2  0  0  0  0  0  0
  161.6620  212.0670  140.6000 C   0  0  1  0  0  3  0  0  0  0  0  0
  159.6380  213.2450  140.4350 C   0  0  0  0  0  2  0  0  0  0  0  0
  160.6940  211.4570  141.5880 C   0  0  0  0  0  2  0  0  0  0  0  0
  161.4860  207.9110  148.7810 N   0  0  0  0  0  2  0  0  0  0  0  0
  160.8060  206.8960  149.5670 C   0  0  0  0  0  2  0  0  0  0  0  0
  160.6320  206.1170  147.2050 C   0  0  0  0  0  2  0  0  0  0  0  0
  161.4740  204.9890  146.7460 C   0  0  0  0  0  0  0  0  0  0  0  0
  161.0810  204.4990  148.9760 C   0  0  0  0  0  2  0  0  0  0  0  0
  160.3200  205.7820  148.6600 C   0  0  1  0  0  3  0  0  0  0  0  0
  161.7220  204.1060  147.6970 C   0  0  0  0  0  3  0  0  0  0  0  0
  161.1840  205.0640  144.3090 C   0  0  0  0  0  2  0  0  0  0  0  0
  161.9700  204.8870  145.3660 C   0  0  0  0  0  3  0  0  0  0  0  0
  1  6  1  1  0  0  0
  2 12  2  0  0  0  0
  2 11  1  0  0  0  0
  3 16  1  0  0  0  0
  3 14  1  0  0  0  0
  4 15  1  6  0  0  0
  4  8  1  0  0  0  0
  5  1  1  0  0  0  0
  7  9  1  0  0  0  0
  7  4  1  0  0  0  0
  8  1  1  0  0  0  0
  9  5  1  0  0  0  0
 10 11  1  0  0  0  0
 11  7  2  0  0  0  0
 12 15  1  0  0  0  0
 13 35  1  6  0  0  0
 13 14  1  0  0  0  0
 13  2  1  0  0  0  0
 14 10  2  0  0  0  0
 16 17  1  6  0  0  0
 18 16  1  0  0  0  0
 19 18  1  1  0  0  0
 20 27  1  6  0  0  0
 20 21  1  0  0  0  0
 20 19  1  0  0  0  0
 21 22  1  6  0  0  0
 21 19  1  0  0  0  0
 25 24  1  6  0  0  0
 25 23  1  0  0  0  0
 25 20  1  0  0  0  0
 26 24  1  6  0  0  0
 26 25  1  0  0  0  0
 26 23  1  0  0  0  0
 28 27  1  0  0  0  0
 29 28  1  1  0  0  0
 31 33  1  0  0  0  0
 31 32  1  0  0  0  0
 32 30  1  6  0  0  0
 32 34  1  0  0  0  0
 33 29  1  0  0  0  0
 34 29  1  0  0  0  0
 35 36  1  0  0  0  0
 37 40  1  0  0  0  0
 38 37  1  0  0  0  0
 38 41  2  0  0  0  0
 40 39  1  0  0  0  0
 40 36  1  1  0  0  0
 41 39  1  0  0  0  0
 42 43  2  0  0  0  0
 43 38  1  0  0  0  0
M  END
>  <MODEL>
4

>  <REMARK>
 VINA RESULT:      -6.9      4.445      9.449
  Name = 
  11 active torsions:
  status: ('A' for Active; 'I' for Inactive)
    1  A    between atoms: N_1  and  C_32
    2  A    between atoms: N_1  and  C_34
    3  A    between atoms: C_2  and  C_6
    4  A    between atoms: C_2  and  N_13
    5  A    between atoms: C_3  and  C_6
    6  A    between atoms: C_4  and  C_22
    7  A    between atoms: C_4  and  C_41
    8  A    between atoms: C_11  and  O_14
    9  A    between atoms: O_14  and  C_41
   10  A    between atoms: C_19  and  C_37
   11  A    between atoms: C_32  and  C_35
                            x       y       z     vdW  Elec       q    Type
                         _______ _______ _______ _____ _____    ______ ____

>  <TORSDO>
F 11

$$$$
=
 OpenBabel11062409583D

 43 50  0  0  1  0  0  0  0  0999 V2000
  154.5930  214.2430  156.5280 C   0  0  2  0  0  3  0  0  0  0  0  0
  157.3040  212.9310  152.4110 C   0  0  0  0  0  0  0  0  0  0  0  0
  160.0760  210.5520  152.7490 N   0  0  0  0  0  2  0  0  0  0  0  0
  155.7870  214.4410  154.2840 C   0  0  2  0  0  3  0  0  0  0  0  0
  155.3020  212.9470  156.8940 C   0  0  0  0  0  2  0  0  0  0  0  0
  153.2180  214.2540  157.1640 C   0  0  0  0  0  1  0  0  0  0  0  0
  156.7000  213.3080  154.7200 C   0  0  0  0  0  0  0  0  0  0  0  0
  154.4440  214.3500  155.0140 C   0  0  0  0  0  2  0  0  0  0  0  0
  157.0620  213.0950  156.4660 S   0  0  0  0  0  0  0  0  0  0  0  0
  158.4000  211.6730  154.0340 N   0  0  0  0  0  0  0  0  0  0  0  0
  157.3560  212.6010  153.8010 C   0  0  0  0  0  0  0  0  0  0  0  0
  156.5310  213.8510  151.9320 N   0  0  0  0  0  0  0  0  0  0  0  0
  158.4000  212.2130  151.7150 C   0  0  2  0  0  3  0  0  0  0  0  0
  158.9700  211.4460  152.8860 C   0  0  0  0  0  0  0  0  0  0  0  0
  155.4790  214.4530  152.7630 C   0  0  0  0  0  2  0  0  0  0  0  0
  160.6610  209.8420  153.8790 C   0  0  2  0  0  3  0  0  0  0  0  0
  161.7500  210.6790  154.5320 C   0  0  0  0  0  1  0  0  0  0  0  0
  161.1940  208.4810  153.4420 C   0  0  0  0  0  2  0  0  0  0  0  0
  160.9630  208.2040  151.9550 C   0  0  2  0  0  3  0  0  0  0  0  0
  161.5190  206.8640  151.4650 C   0  0  1  0  0  0  0  0  0  0  0  0
  162.3090  208.1550  151.2460 C   0  0  1  0  0  3  0  0  0  0  0  0
  162.1630  208.6330  149.9410 O   0  0  0  0  0  1  0  0  0  0  0  0
  161.0220  205.6100  153.6140 N   0  0  0  0  0  2  0  0  0  0  0  0
  162.6110  204.6510  152.0590 N   0  0  0  0  0  2  0  0  0  0  0  0
  162.0100  205.8910  152.5660 C   0  0  2  0  0  0  0  0  0  0  0  0
  161.2070  204.7090  152.4710 C   0  0  2  0  0  3  0  0  0  0  0  0
  160.6990  206.3210  150.2920 C   0  0  0  0  0  2  0  0  0  0  0  0
  161.4410  206.4120  149.1110 O   0  0  0  0  0  0  0  0  0  0  0  0
  160.8500  205.4930  148.2420 C   0  0  1  0  0  3  0  0  0  0  0  0
  162.6800  204.0130  145.5690 N   0  0  0  0  0  1  0  0  0  0  0  0
  161.5660  206.0700  146.0140 N   0  0  0  0  0  2  0  0  0  0  0  0
  162.4800  205.0670  146.5480 C   0  0  1  0  0  3  0  0  0  0  0  0
  160.4620  206.1920  146.9590 C   0  0  0  0  0  2  0  0  0  0  0  0
  161.8800  204.4860  147.8080 C   0  0  0  0  0  2  0  0  0  0  0  0
  159.3870  213.1650  151.2340 N   0  0  0  0  0  2  0  0  0  0  0  0
  158.7150  214.0110  150.2630 C   0  0  0  0  0  2  0  0  0  0  0  0
  160.9970  213.6540  149.3250 C   0  0  0  0  0  2  0  0  0  0  0  0
  161.1510  212.9510  148.0310 C   0  0  0  0  0  0  0  0  0  0  0  0
  159.1210  214.0490  147.8140 C   0  0  0  0  0  2  0  0  0  0  0  0
  159.6890  214.4250  149.1780 C   0  0  1  0  0  3  0  0  0  0  0  0
  160.1410  213.1590  147.2050 C   0  0  0  0  0  3  0  0  0  0  0  0
  163.4110  212.5960  147.1410 C   0  0  0  0  0  2  0  0  0  0  0  0
  162.3180  212.1130  147.7240 C   0  0  0  0  0  3  0  0  0  0  0  0
  1  5  1  0  0  0  0
  1  6  1  1  0  0  0
  2 11  1  0  0  0  0
  3 14  1  0  0  0  0
  3 16  1  0  0  0  0
  4 15  1  6  0  0  0
  4  7  1  0  0  0  0
  4  8  1  0  0  0  0
  7  9  1  0  0  0  0
  8  1  1  0  0  0  0
  9  5  1  0  0  0  0
 11 10  1  0  0  0  0
 11  7  2  0  0  0  0
 12  2  2  0  0  0  0
 12 15  1  0  0  0  0
 13 35  1  1  0  0  0
 13  2  1  0  0  0  0
 13 14  1  0  0  0  0
 14 10  2  0  0  0  0
 16 17  1  6  0  0  0
 18 16  1  0  0  0  0
 19 18  1  1  0  0  0
 20 27  1  6  0  0  0
 20 19  1  0  0  0  0
 20 25  1  0  0  0  0
 21 22  1  6  0  0  0
 21 20  1  0  0  0  0
 21 19  1  0  0  0  0
 25 24  1  1  0  0  0
 25 23  1  0  0  0  0
 26 24  1  1  0  0  0
 26 25  1  0  0  0  0
 26 23  1  0  0  0  0
 28 27  1  0  0  0  0
 29 28  1  1  0  0  0
 31 32  1  0  0  0  0
 31 33  1  0  0  0  0
 32 30  1  6  0  0  0
 32 34  1  0  0  0  0
 33 29  1  0  0  0  0
 34 29  1  0  0  0  0
 36 35  1  0  0  0  0
 38 37  1  0  0  0  0
 39 40  1  0  0  0  0
 40 37  1  0  0  0  0
 40 36  1  1  0  0  0
 41 39  1  0  0  0  0
 41 38  2  0  0  0  0
 42 43  2  0  0  0  0
 43 38  1  0  0  0  0
M  END
>  <MODEL>
5

>  <REMARK>
 VINA RESULT:      -6.7      3.048      9.162
  Name = 
  11 active torsions:
  status: ('A' for Active; 'I' for Inactive)
    1  A    between atoms: N_1  and  C_32
    2  A    between atoms: N_1  and  C_34
    3  A    between atoms: C_2  and  C_6
    4  A    between atoms: C_2  and  N_13
    5  A    between atoms: C_3  and  C_6
    6  A    between atoms: C_4  and  C_22
    7  A    between atoms: C_4  and  C_41
    8  A    between atoms: C_11  and  O_14
    9  A    between atoms: O_14  and  C_41
   10  A    between atoms: C_19  and  C_37
   11  A    between atoms: C_32  and  C_35
                            x       y       z     vdW  Elec       q    Type
                         _______ _______ _______ _____ _____    ______ ____

>  <TORSDO>
F 11

$$$$
=
 OpenBabel11062409583D

 43 50  0  0  1  0  0  0  0  0999 V2000
  161.6120  203.5480  146.8710 C   0  0  2  0  0  3  0  0  0  0  0  0
  161.2970  207.2860  150.3280 C   0  0  0  0  0  0  0  0  0  0  0  0
  161.8850  210.7580  149.3020 N   0  0  0  0  0  2  0  0  0  0  0  0
  161.8080  204.7720  149.0990 C   0  0  2  0  0  3  0  0  0  0  0  0
  161.4300  204.8340  146.0770 C   0  0  0  0  0  2  0  0  0  0  0  0
  160.8680  202.4250  146.1780 C   0  0  0  0  0  1  0  0  0  0  0  0
  161.8960  206.0760  148.3240 C   0  0  0  0  0  0  0  0  0  0  0  0
  161.0560  203.7200  148.2820 C   0  0  0  0  0  2  0  0  0  0  0  0
  162.6150  206.0720  146.6800 S   0  0  0  0  0  0  0  0  0  0  0  0
  161.8410  208.5290  148.4380 N   0  0  0  0  0  0  0  0  0  0  0  0
  161.6030  207.2240  148.9340 C   0  0  0  0  0  0  0  0  0  0  0  0
  161.1610  206.2330  151.0690 N   0  0  0  0  0  0  0  0  0  0  0  0
  161.3840  208.7000  150.7680 C   0  0  2  0  0  3  0  0  0  0  0  0
  161.7090  209.3470  149.4410 C   0  0  0  0  0  0  0  0  0  0  0  0
  161.0790  204.8970  150.4640 C   0  0  0  0  0  2  0  0  0  0  0  0
  162.2420  211.3870  148.0370 C   0  0  2  0  0  3  0  0  0  0  0  0
  163.6930  211.8430  148.0550 C   0  0  0  0  0  1  0  0  0  0  0  0
  161.3000  212.5460  147.7280 C   0  0  0  0  0  2  0  0  0  0  0  0
  161.1660  212.8160  146.2270 C   0  0  2  0  0  3  0  0  0  0  0  0
  159.8540  213.4890  145.8170 C   0  0  1  0  0  0  0  0  0  0  0  0
  160.0240  211.9770  145.6730 C   0  0  1  0  0  3  0  0  0  0  0  0
  160.3130  211.6160  144.3540 O   0  0  0  0  0  1  0  0  0  0  0  0
  157.6290  214.4470  146.5720 N   0  0  0  0  0  2  0  0  0  0  0  0
  158.9050  213.1200  148.1430 N   0  0  0  0  0  2  0  0  0  0  0  0
  158.9690  214.0120  146.9780 C   0  0  2  0  0  0  0  0  0  0  0  0
  157.8690  213.1040  147.1080 C   0  0  2  0  0  3  0  0  0  0  0  0
  160.0410  214.3530  144.5680 C   0  0  0  0  0  2  0  0  0  0  0  0
  159.2770  213.8390  143.5160 O   0  0  0  0  0  0  0  0  0  0  0  0
  159.7930  214.4400  142.3670 C   0  0  1  0  0  3  0  0  0  0  0  0
  160.5330  212.5440  139.4450 N   0  0  0  0  0  1  0  0  0  0  0  0
  161.5470  213.0030  141.5490 N   0  0  0  0  0  2  0  0  0  0  0  0
  160.3050  212.6450  140.8750 C   0  0  1  0  0  3  0  0  0  0  0  0
  161.2870  214.2180  142.3130 C   0  0  0  0  0  2  0  0  0  0  0  0
  159.2760  213.7180  141.1530 C   0  0  0  0  0  2  0  0  0  0  0  0
  162.5070  208.8670  151.6760 N   0  0  0  0  0  2  0  0  0  0  0  0
  162.1540  209.9450  152.5840 C   0  0  0  0  0  2  0  0  0  0  0  0
  160.9460  208.5480  154.2580 C   0  0  0  0  0  2  0  0  0  0  0  0
  160.4760  209.1660  155.5200 C   0  0  0  0  0  0  0  0  0  0  0  0
  160.3350  210.8950  153.9820 C   0  0  0  0  0  2  0  0  0  0  0  0
  160.8100  209.6600  153.2240 C   0  0  1  0  0  3  0  0  0  0  0  0
  160.1410  210.4360  155.3810 C   0  0  0  0  0  3  0  0  0  0  0  0
  160.3640  207.0910  156.8260 C   0  0  0  0  0  2  0  0  0  0  0  0
  160.4000  208.4190  156.7830 C   0  0  0  0  0  3  0  0  0  0  0  0
  1  6  1  6  0  0  0
  1  8  1  0  0  0  0
  2 13  1  0  0  0  0
  2 12  2  0  0  0  0
  3 14  1  0  0  0  0
  4  8  1  6  0  0  0
  4 15  1  0  0  0  0
  5  9  1  0  0  0  0
  5  1  1  0  0  0  0
  7 11  2  0  0  0  0
  7  4  1  0  0  0  0
  9  7  1  0  0  0  0
 10 11  1  0  0  0  0
 10 14  2  0  0  0  0
 11  2  1  0  0  0  0
 13 35  1  1  0  0  0
 14 13  1  0  0  0  0
 15 12  1  0  0  0  0
 16 17  1  1  0  0  0
 16  3  1  0  0  0  0
 18 16  1  0  0  0  0
 19 18  1  1  0  0  0
 20 27  1  6  0  0  0
 20 19  1  0  0  0  0
 20 25  1  0  0  0  0
 21 22  1  6  0  0  0
 21 20  1  0  0  0  0
 21 19  1  0  0  0  0
 25 23  1  1  0  0  0
 25 26  1  0  0  0  0
 25 24  1  0  0  0  0
 26 23  1  1  0  0  0
 26 24  1  0  0  0  0
 28 27  1  0  0  0  0
 29 28  1  1  0  0  0
 31 33  1  0  0  0  0
 32 30  1  6  0  0  0
 32 34  1  0  0  0  0
 32 31  1  0  0  0  0
 33 29  1  0  0  0  0
 34 29  1  0  0  0  0
 35 36  1  0  0  0  0
 37 38  1  0  0  0  0
 38 43  1  0  0  0  0
 39 41  1  0  0  0  0
 40 36  1  1  0  0  0
 40 39  1  0  0  0  0
 40 37  1  0  0  0  0
 41 38  2  0  0  0  0
 43 42  2  0  0  0  0
M  END
>  <MODEL>
6

>  <REMARK>
 VINA RESULT:      -6.2      4.141      8.381
  Name = 
  11 active torsions:
  status: ('A' for Active; 'I' for Inactive)
    1  A    between atoms: N_1  and  C_32
    2  A    between atoms: N_1  and  C_34
    3  A    between atoms: C_2  and  C_6
    4  A    between atoms: C_2  and  N_13
    5  A    between atoms: C_3  and  C_6
    6  A    between atoms: C_4  and  C_22
    7  A    between atoms: C_4  and  C_41
    8  A    between atoms: C_11  and  O_14
    9  A    between atoms: O_14  and  C_41
   10  A    between atoms: C_19  and  C_37
   11  A    between atoms: C_32  and  C_35
                            x       y       z     vdW  Elec       q    Type
                         _______ _______ _______ _____ _____    ______ ____

>  <TORSDO>
F 11

$$$$
=
 OpenBabel11062409583D

 43 50  0  0  1  0  0  0  0  0999 V2000
  162.0230  211.5900  148.6810 C   0  0  2  0  0  3  0  0  0  0  0  0
  161.2890  207.0440  150.8770 C   0  0  0  0  0  0  0  0  0  0  0  0
  160.7090  206.8510  154.4940 N   0  0  0  0  0  2  0  0  0  0  0  0
  162.2550  209.0960  149.1600 C   0  0  2  0  0  3  0  0  0  0  0  0
  161.3600  211.8770  150.0200 C   0  0  0  0  0  2  0  0  0  0  0  0
  161.5100  212.5730  147.6500 C   0  0  0  0  0  1  0  0  0  0  0  0
  161.8440  209.3790  150.5960 C   0  0  0  0  0  0  0  0  0  0  0  0
  161.6930  210.1710  148.2270 C   0  0  0  0  0  2  0  0  0  0  0  0
  162.2410  210.9700  151.3240 S   0  0  0  0  0  0  0  0  0  0  0  0
  161.1350  208.4240  152.7440 N   0  0  0  0  0  0  0  0  0  0  0  0
  161.3550  208.3920  151.3460 C   0  0  0  0  0  0  0  0  0  0  0  0
  161.5790  206.7030  149.6620 N   0  0  0  0  0  0  0  0  0  0  0  0
  161.0570  206.1520  152.0390 C   0  0  2  0  0  3  0  0  0  0  0  0
  160.9560  207.1940  153.1290 C   0  0  0  0  0  0  0  0  0  0  0  0
  161.7660  207.7240  148.6230 C   0  0  0  0  0  2  0  0  0  0  0  0
  160.6550  207.8440  155.5590 C   0  0  2  0  0  3  0  0  0  0  0  0
  160.4730  207.1710  156.9110 C   0  0  0  0  0  1  0  0  0  0  0  0
  159.5490  208.8600  155.2910 C   0  0  0  0  0  2  0  0  0  0  0  0
  159.5590  210.0220  156.2870 C   0  0  2  0  0  3  0  0  0  0  0  0
  159.4220  211.4070  155.6490 C   0  0  1  0  0  0  0  0  0  0  0  0
  160.7980  210.8710  156.0450 C   0  0  1  0  0  3  0  0  0  0  0  0
  161.2310  211.4140  157.2570 O   0  0  0  0  0  1  0  0  0  0  0  0
  157.7060  211.9150  153.8500 N   0  0  0  0  0  2  0  0  0  0  0  0
  160.0530  212.0760  153.2830 N   0  0  0  0  0  2  0  0  0  0  0  0
  159.0570  211.4250  154.1420 C   0  0  2  0  0  0  0  0  0  0  0  0
  158.8750  212.7970  153.7710 C   0  0  2  0  0  3  0  0  0  0  0  0
  158.7360  212.3900  156.6000 C   0  0  0  0  0  2  0  0  0  0  0  0
  157.4100  212.0010  156.8120 O   0  0  0  0  0  0  0  0  0  0  0  0
  156.7620  213.1530  157.2600 C   0  0  1  0  0  3  0  0  0  0  0  0
  153.8500  214.4040  155.6370 N   0  0  0  0  0  1  0  0  0  0  0  0
  156.2070  214.4530  155.3080 N   0  0  0  0  0  2  0  0  0  0  0  0
  155.0650  213.6090  155.6410 C   0  0  1  0  0  3  0  0  0  0  0  0
  157.1690  214.3250  156.3970 C   0  0  0  0  0  2  0  0  0  0  0  0
  155.2840  213.0190  157.0160 C   0  0  0  0  0  2  0  0  0  0  0  0
  162.2280  205.3230  152.2680 N   0  0  0  0  0  2  0  0  0  0  0  0
  162.3640  204.4600  151.1080 C   0  0  0  0  0  2  0  0  0  0  0  0
  160.8670  203.4750  149.3750 C   0  0  0  0  0  2  0  0  0  0  0  0
  160.7650  202.0020  149.2520 C   0  0  0  0  0  0  0  0  0  0  0  0
  161.1500  202.3310  151.5130 C   0  0  0  0  0  2  0  0  0  0  0  0
  161.0680  203.7110  150.8690 C   0  0  1  0  0  3  0  0  0  0  0  0
  160.9160  201.3740  150.4040 C   0  0  0  0  0  3  0  0  0  0  0  0
  161.2450  200.3020  147.5480 C   0  0  0  0  0  2  0  0  0  0  0  0
  160.5210  201.3350  147.9650 C   0  0  0  0  0  3  0  0  0  0  0  0
  1  6  1  6  0  0  0
  1  5  1  0  0  0  0
  2 11  1  0  0  0  0
  2 13  1  0  0  0  0
  3 16  1  0  0  0  0
  4  8  1  6  0  0  0
  4  7  1  0  0  0  0
  5  9  1  0  0  0  0
  7  9  1  0  0  0  0
  7 11  2  0  0  0  0
  8  1  1  0  0  0  0
 10 14  2  0  0  0  0
 11 10  1  0  0  0  0
 12  2  2  0  0  0  0
 13 35  1  1  0  0  0
 13 14  1  0  0  0  0
 14  3  1  0  0  0  0
 15  4  1  0  0  0  0
 15 12  1  0  0  0  0
 16 17  1  1  0  0  0
 18 16  1  0  0  0  0
 19 18  1  6  0  0  0
 20 21  1  0  0  0  0
 20 19  1  0  0  0  0
 20 27  1  1  0  0  0
 21 19  1  0  0  0  0
 21 22  1  1  0  0  0
 23 25  1  0  0  0  0
 25 24  1  6  0  0  0
 25 20  1  0  0  0  0
 26 24  1  6  0  0  0
 26 23  1  0  0  0  0
 26 25  1  0  0  0  0
 27 28  1  0  0  0  0
 29 28  1  6  0  0  0
 31 32  1  0  0  0  0
 31 33  1  0  0  0  0
 32 30  1  1  0  0  0
 32 34  1  0  0  0  0
 33 29  1  0  0  0  0
 34 29  1  0  0  0  0
 36 35  1  0  0  0  0
 37 40  1  0  0  0  0
 38 37  1  0  0  0  0
 38 41  2  0  0  0  0
 40 36  1  6  0  0  0
 40 39  1  0  0  0  0
 41 39  1  0  0  0  0
 42 43  2  0  0  0  0
 43 38  1  0  0  0  0
M  END
>  <MODEL>
7

>  <REMARK>
 VINA RESULT:      -6.2      1.959      6.037
  Name = 
  11 active torsions:
  status: ('A' for Active; 'I' for Inactive)
    1  A    between atoms: N_1  and  C_32
    2  A    between atoms: N_1  and  C_34
    3  A    between atoms: C_2  and  C_6
    4  A    between atoms: C_2  and  N_13
    5  A    between atoms: C_3  and  C_6
    6  A    between atoms: C_4  and  C_22
    7  A    between atoms: C_4  and  C_41
    8  A    between atoms: C_11  and  O_14
    9  A    between atoms: O_14  and  C_41
   10  A    between atoms: C_19  and  C_37
   11  A    between atoms: C_32  and  C_35
                            x       y       z     vdW  Elec       q    Type
                         _______ _______ _______ _____ _____    ______ ____

>  <TORSDO>
F 11

$$$$
=
 OpenBabel11062409583D

 43 50  0  0  1  0  0  0  0  0999 V2000
  156.1200  214.0830  156.6300 C   0  0  2  0  0  3  0  0  0  0  0  0
  158.5500  212.5670  152.4090 C   0  0  0  0  0  0  0  0  0  0  0  0
  160.6330  209.5490  152.5010 N   0  0  0  0  0  2  0  0  0  0  0  0
  157.3960  214.2070  154.4260 C   0  0  2  0  0  3  0  0  0  0  0  0
  156.4740  212.6210  156.8570 C   0  0  0  0  0  2  0  0  0  0  0  0
  154.7720  214.3730  157.2570 C   0  0  0  0  0  1  0  0  0  0  0  0
  157.9860  212.8430  154.7420 C   0  0  0  0  0  0  0  0  0  0  0  0
  156.0510  214.3800  155.1350 C   0  0  0  0  0  2  0  0  0  0  0  0
  158.2270  212.3680  156.4560 S   0  0  0  0  0  0  0  0  0  0  0  0
  159.2470  210.9150  153.8920 N   0  0  0  0  0  0  0  0  0  0  0  0
  158.4740  212.0940  153.7550 C   0  0  0  0  0  0  0  0  0  0  0  0
  158.0440  213.6960  152.0280 N   0  0  0  0  0  0  0  0  0  0  0  0
  159.4540  211.6740  151.6450 C   0  0  2  0  0  3  0  0  0  0  0  0
  159.7790  210.6720  152.7290 C   0  0  0  0  0  0  0  0  0  0  0  0
  157.1490  214.4530  152.9140 C   0  0  0  0  0  2  0  0  0  0  0  0
  160.9870  208.6030  153.5510 C   0  0  2  0  0  3  0  0  0  0  0  0
  162.2070  209.0880  154.3200 C   0  0  0  0  0  1  0  0  0  0  0  0
  161.2160  207.2120  152.9670 C   0  0  0  0  0  2  0  0  0  0  0  0
  161.1590  207.1950  151.4380 C   0  0  2  0  0  3  0  0  0  0  0  0
  161.3310  205.8090  150.8120 C   0  0  1  0  0  0  0  0  0  0  0  0
  162.5160  206.7700  150.8970 C   0  0  1  0  0  3  0  0  0  0  0  0
  162.7490  207.4090  149.6770 O   0  0  0  0  0  1  0  0  0  0  0  0
  159.9650  204.0270  151.9940 N   0  0  0  0  0  2  0  0  0  0  0  0
  162.2960  203.5720  151.5250 N   0  0  0  0  0  2  0  0  0  0  0  0
  161.2960  204.6120  151.7960 C   0  0  2  0  0  0  0  0  0  0  0  0
  160.9190  203.4560  151.0380 C   0  0  2  0  0  3  0  0  0  0  0  0
  160.5870  205.7080  149.4780 C   0  0  0  0  0  2  0  0  0  0  0  0
  161.3210  204.9260  148.5820 O   0  0  0  0  0  0  0  0  0  0  0  0
  161.6880  205.7990  147.5570 C   0  0  1  0  0  3  0  0  0  0  0  0
  160.7700  205.1890  144.1710 N   0  0  0  0  0  1  0  0  0  0  0  0
  162.4290  204.4430  145.7070 N   0  0  0  0  0  2  0  0  0  0  0  0
  161.0110  204.7340  145.5280 C   0  0  1  0  0  3  0  0  0  0  0  0
  162.8940  205.2460  146.8330 C   0  0  0  0  0  2  0  0  0  0  0  0
  160.6110  205.8140  146.5070 C   0  0  0  0  0  2  0  0  0  0  0  0
  160.6620  212.3930  151.2730 N   0  0  0  0  0  2  0  0  0  0  0  0
  161.0880  211.8610  149.9910 C   0  0  0  0  0  2  0  0  0  0  0  0
  161.6720  212.4460  147.6400 C   0  0  0  0  0  2  0  0  0  0  0  0
  160.6500  213.0730  146.7690 C   0  0  0  0  0  0  0  0  0  0  0  0
  160.1210  213.8620  148.8830 C   0  0  0  0  0  2  0  0  0  0  0  0
  161.3690  212.9980  149.0290 C   0  0  1  0  0  3  0  0  0  0  0  0
  159.8060  213.8430  147.4330 C   0  0  0  0  0  3  0  0  0  0  0  0
  159.7780  213.5090  144.5170 C   0  0  0  0  0  2  0  0  0  0  0  0
  160.6040  212.8450  145.3180 C   0  0  0  0  0  3  0  0  0  0  0  0
  1  5  1  0  0  0  0
  1  6  1  6  0  0  0
  2 11  1  0  0  0  0
  3 14  1  0  0  0  0
  3 16  1  0  0  0  0
  4 15  1  6  0  0  0
  4  7  1  0  0  0  0
  4  8  1  0  0  0  0
  7  9  1  0  0  0  0
  8  1  1  0  0  0  0
  9  5  1  0  0  0  0
 11 10  1  0  0  0  0
 11  7  2  0  0  0  0
 12  2  2  0  0  0  0
 12 15  1  0  0  0  0
 13 35  1  1  0  0  0
 13  2  1  0  0  0  0
 13 14  1  0  0  0  0
 14 10  2  0  0  0  0
 16 17  1  6  0  0  0
 18 16  1  0  0  0  0
 19 18  1  1  0  0  0
 20 27  1  6  0  0  0
 20 21  1  0  0  0  0
 20 19  1  0  0  0  0
 20 25  1  0  0  0  0
 21 22  1  6  0  0  0
 21 19  1  0  0  0  0
 25 24  1  1  0  0  0
 25 23  1  0  0  0  0
 26 24  1  1  0  0  0
 26 25  1  0  0  0  0
 26 23  1  0  0  0  0
 28 27  1  0  0  0  0
 29 28  1  1  0  0  0
 31 33  1  0  0  0  0
 32 30  1  6  0  0  0
 32 31  1  0  0  0  0
 32 34  1  0  0  0  0
 33 29  1  0  0  0  0
 34 29  1  0  0  0  0
 36 35  1  0  0  0  0
 37 40  1  0  0  0  0
 38 41  2  0  0  0  0
 38 37  1  0  0  0  0
 39 40  1  0  0  0  0
 40 36  1  1  0  0  0
 41 39  1  0  0  0  0
 42 43  2  0  0  0  0
 43 38  1  0  0  0  0
M  END
>  <MODEL>
8

>  <REMARK>
 VINA RESULT:      -6.1      3.170      9.086
  Name = 
  11 active torsions:
  status: ('A' for Active; 'I' for Inactive)
    1  A    between atoms: N_1  and  C_32
    2  A    between atoms: N_1  and  C_34
    3  A    between atoms: C_2  and  C_6
    4  A    between atoms: C_2  and  N_13
    5  A    between atoms: C_3  and  C_6
    6  A    between atoms: C_4  and  C_22
    7  A    between atoms: C_4  and  C_41
    8  A    between atoms: C_11  and  O_14
    9  A    between atoms: O_14  and  C_41
   10  A    between atoms: C_19  and  C_37
   11  A    between atoms: C_32  and  C_35
                            x       y       z     vdW  Elec       q    Type
                         _______ _______ _______ _____ _____    ______ ____

>  <TORSDO>
F 11

$$$$
=
 OpenBabel11062409583D

 43 50  0  0  1  0  0  0  0  0999 V2000
  158.9010  212.3210  154.5630 C   0  0  2  0  0  3  0  0  0  0  0  0
  161.5380  210.2950  150.6940 C   0  0  0  0  0  0  0  0  0  0  0  0
  161.8590  212.1560  147.5490 N   0  0  0  0  0  2  0  0  0  0  0  0
  159.8480  210.5740  152.9650 C   0  0  2  0  0  3  0  0  0  0  0  0
  159.2430  213.4820  153.6400 C   0  0  0  0  0  2  0  0  0  0  0  0
  158.9630  212.7930  156.0010 C   0  0  0  0  0  1  0  0  0  0  0  0
  159.9630  211.6640  151.9120 C   0  0  0  0  0  0  0  0  0  0  0  0
  159.9010  211.1840  154.3680 C   0  0  0  0  0  2  0  0  0  0  0  0
  158.8010  213.0320  151.9360 S   0  0  0  0  0  0  0  0  0  0  0  0
  160.8730  212.3020  149.7230 N   0  0  0  0  0  0  0  0  0  0  0  0
  160.8020  211.5040  150.8910 C   0  0  0  0  0  0  0  0  0  0  0  0
  161.5400  209.3230  151.5490 N   0  0  0  0  0  0  0  0  0  0  0  0
  162.0770  210.2900  149.3120 C   0  0  2  0  0  3  0  0  0  0  0  0
  161.5850  211.6440  148.8540 C   0  0  0  0  0  0  0  0  0  0  0  0
  160.9710  209.5040  152.8900 C   0  0  0  0  0  2  0  0  0  0  0  0
  161.3520  213.4400  147.0840 C   0  0  2  0  0  3  0  0  0  0  0  0
  159.8380  213.5000  147.2190 C   0  0  0  0  0  1  0  0  0  0  0  0
  161.7910  213.7030  145.6460 C   0  0  0  0  0  2  0  0  0  0  0  0
  161.1680  212.7230  144.6480 C   0  0  2  0  0  3  0  0  0  0  0  0
  161.3470  213.1140  143.1790 C   0  0  1  0  0  0  0  0  0  0  0  0
  160.0390  213.4230  143.9070 C   0  0  1  0  0  3  0  0  0  0  0  0
  159.0450  212.4920  143.5940 O   0  0  0  0  0  1  0  0  0  0  0  0
  163.5020  214.3160  143.7710 N   0  0  0  0  0  2  0  0  0  0  0  0
  162.6930  214.4530  141.4940 N   0  0  0  0  0  2  0  0  0  0  0  0
  162.3190  214.2900  142.9040 C   0  0  2  0  0  0  0  0  0  0  0  0
  163.5450  213.7190  142.4320 C   0  0  2  0  0  3  0  0  0  0  0  0
  161.3900  211.8770  142.2790 C   0  0  0  0  0  2  0  0  0  0  0  0
  160.4620  212.0110  141.2420 O   0  0  0  0  0  0  0  0  0  0  0  0
  160.6190  210.8620  140.4650 C   0  0  1  0  0  3  0  0  0  0  0  0
  163.0390  210.6910  137.8580 N   0  0  0  0  0  1  0  0  0  0  0  0
  160.8550  211.5850  138.1780 N   0  0  0  0  0  2  0  0  0  0  0  0
  162.1860  211.4460  138.7590 C   0  0  1  0  0  3  0  0  0  0  0  0
  159.9060  211.0470  139.1460 C   0  0  0  0  0  2  0  0  0  0  0  0
  162.0650  210.7180  140.0780 C   0  0  0  0  0  2  0  0  0  0  0  0
  161.4270  209.2500  148.5320 N   0  0  0  0  0  2  0  0  0  0  0  0
  162.0040  207.9860  148.9560 C   0  0  0  0  0  2  0  0  0  0  0  0
  161.0890  206.0840  147.6290 C   0  0  0  0  0  2  0  0  0  0  0  0
  161.3040  204.6970  148.1010 C   0  0  0  0  0  0  0  0  0  0  0  0
  161.1760  205.9230  150.0630 C   0  0  0  0  0  2  0  0  0  0  0  0
  160.9500  206.8980  148.9110 C   0  0  1  0  0  3  0  0  0  0  0  0
  161.3510  204.5990  149.4170 C   0  0  0  0  0  3  0  0  0  0  0  0
  161.7910  203.7210  145.9020 C   0  0  0  0  0  2  0  0  0  0  0  0
  161.4460  203.5640  147.1750 C   0  0  0  0  0  3  0  0  0  0  0  0
  1  6  1  1  0  0  0
  2 11  1  0  0  0  0
  2 12  2  0  0  0  0
  3 14  1  0  0  0  0
  4 15  1  1  0  0  0
  4  8  1  0  0  0  0
  5  1  1  0  0  0  0
  7  9  1  0  0  0  0
  7  4  1  0  0  0  0
  8  1  1  0  0  0  0
  9  5  1  0  0  0  0
 10 11  1  0  0  0  0
 11  7  2  0  0  0  0
 12 15  1  0  0  0  0
 13 35  1  6  0  0  0
 13  2  1  0  0  0  0
 14 13  1  0  0  0  0
 14 10  2  0  0  0  0
 16 17  1  6  0  0  0
 16  3  1  0  0  0  0
 18 16  1  0  0  0  0
 19 18  1  1  0  0  0
 20 27  1  6  0  0  0
 20 21  1  0  0  0  0
 20 19  1  0  0  0  0
 21 22  1  6  0  0  0
 21 19  1  0  0  0  0
 25 24  1  6  0  0  0
 25 20  1  0  0  0  0
 25 23  1  0  0  0  0
 26 24  1  6  0  0  0
 26 25  1  0  0  0  0
 26 23  1  0  0  0  0
 28 27  1  0  0  0  0
 29 28  1  1  0  0  0
 31 32  1  0  0  0  0
 31 33  1  0  0  0  0
 32 30  1  6  0  0  0
 32 34  1  0  0  0  0
 33 29  1  0  0  0  0
 34 29  1  0  0  0  0
 35 36  1  0  0  0  0
 37 38  1  0  0  0  0
 37 40  1  0  0  0  0
 38 41  2  0  0  0  0
 40 36  1  6  0  0  0
 40 39  1  0  0  0  0
 41 39  1  0  0  0  0
 42 43  2  0  0  0  0
 43 38  1  0  0  0  0
M  END
>  <MODEL>
9

>  <REMARK>
 VINA RESULT:      -5.5      5.331     10.714
  Name = 
  11 active torsions:
  status: ('A' for Active; 'I' for Inactive)
    1  A    between atoms: N_1  and  C_32
    2  A    between atoms: N_1  and  C_34
    3  A    between atoms: C_2  and  C_6
    4  A    between atoms: C_2  and  N_13
    5  A    between atoms: C_3  and  C_6
    6  A    between atoms: C_4  and  C_22
    7  A    between atoms: C_4  and  C_41
    8  A    between atoms: C_11  and  O_14
    9  A    between atoms: O_14  and  C_41
   10  A    between atoms: C_19  and  C_37
   11  A    between atoms: C_32  and  C_35
                            x       y       z     vdW  Elec       q    Type
                         _______ _______ _______ _____ _____    ______ ____

>  <TORSDO>
F 11

$$$$
