=
 OpenBabel11052423143D

 27 30  0  0  1  0  0  0  0  0999 V2000
  162.2720  210.0200  152.5520 C   0  0  0  0  0  2  0  0  0  0  0  0
  161.0530  207.8060  152.4130 C   0  0  0  0  0  0  0  0  0  0  0  0
  160.7790  208.2470  150.0640 O   0  0  0  0  0  0  0  0  0  0  0  0
  161.6090  203.6000  151.8780 C   0  0  0  0  0  2  0  0  0  0  0  0
  160.6470  202.8800  150.9670 C   0  0  0  0  0  2  0  0  0  0  0  0
  161.3220  206.9530  153.4350 N   0  0  0  0  0  0  0  0  0  0  0  0
  160.8250  205.4700  149.4620 C   0  0  0  0  0  3  0  0  0  0  0  0
  162.6510  210.5610  148.8660 C   0  0  2  0  0  3  0  0  0  0  0  0
  160.8470  204.2510  148.9130 C   0  0  0  0  0  3  0  0  0  0  0  0
  162.7580  211.7130  148.0890 O   0  0  0  0  0  1  0  0  0  0  0  0
  161.0910  205.9270  150.8530 C   0  0  0  0  0  0  0  0  0  0  0  0
  160.9330  209.2870  152.6750 C   0  0  1  0  0  3  0  0  0  0  0  0
  161.2170  202.9690  149.5750 C   0  0  0  0  0  2  0  0  0  0  0  0
  161.3480  205.0700  151.9600 C   0  0  0  0  0  0  0  0  0  0  0  0
  162.8090  209.8580  151.2040 N   0  0  0  0  0  2  0  0  0  0  0  0
  160.9730  207.3190  151.0970 C   0  0  0  0  0  0  0  0  0  0  0  0
  161.5630  209.6560  148.2750 C   0  0  0  0  0  2  0  0  0  0  0  0
  161.4730  205.6230  153.2330 C   0  0  0  0  0  3  0  0  0  0  0  0
  161.0570  211.3080  150.5080 O   0  0  0  0  0  1  0  0  0  0  0  0
  162.4010  210.9560  150.3240 C   0  0  2  0  0  3  0  0  0  0  0  0
  161.5740  208.2620  148.8840 C   0  0  0  0  0  2  0  0  0  0  0  0
  158.9590  210.1940  156.3870 C   0  0  0  0  0  3  0  0  0  0  0  0
  160.2240  209.6070  153.9560 C   0  0  0  0  0  0  0  0  0  0  0  0
  160.5710  208.9080  155.1180 C   0  0  0  0  0  3  0  0  0  0  0  0
  159.9380  209.1990  156.3300 C   0  0  0  0  0  3  0  0  0  0  0  0
  158.6110  210.9000  155.2310 C   0  0  0  0  0  3  0  0  0  0  0  0
  159.2430  210.6100  154.0190 C   0  0  0  0  0  3  0  0  0  0  0  0
  1 12  1  0  0  0  0
  2 12  1  0  0  0  0
  2  6  1  0  0  0  0
  3 16  1  0  0  0  0
  4 14  1  0  0  0  0
  5  4  1  0  0  0  0
  7 11  1  0  0  0  0
  8 10  1  6  0  0  0
  8 20  1  0  0  0  0
  9  7  2  0  0  0  0
  9 13  1  0  0  0  0
 11 16  1  0  0  0  0
 11 14  2  0  0  0  0
 12 23  1  1  0  0  0
 13  5  1  0  0  0  0
 14 18  1  0  0  0  0
 15  1  1  0  0  0  0
 16  2  2  0  0  0  0
 17  8  1  0  0  0  0
 17 21  1  0  0  0  0
 18  6  2  0  0  0  0
 20 19  1  6  0  0  0
 20 15  1  0  0  0  0
 21  3  1  0  0  0  0
 23 27  2  0  0  0  0
 23 24  1  0  0  0  0
 24 25  2  0  0  0  0
 25 22  1  0  0  0  0
 26 22  2  0  0  0  0
 27 26  1  0  0  0  0
M  END
>  <MODEL>
1

>  <REMARK>
 VINA RESULT:      -7.3      0.000      0.000
  Name = 
  1 active torsions:
  status: ('A' for Active; 'I' for Inactive)
    1  A    between atoms: C_9  and  C_15
                            x       y       z     vdW  Elec       q    Type
                         _______ _______ _______ _____ _____    ______ ____

>  <TORSDO>
F 1

$$$$
=
 OpenBabel11052423143D

 27 30  0  0  1  0  0  0  0  0999 V2000
  161.7160  209.7210  154.2210 C   0  0  0  0  0  2  0  0  0  0  0  0
  161.1140  210.1650  151.8030 C   0  0  0  0  0  0  0  0  0  0  0  0
  159.4040  211.6410  152.6300 O   0  0  0  0  0  0  0  0  0  0  0  0
  162.0330  212.6180  148.4220 C   0  0  0  0  0  2  0  0  0  0  0  0
  160.8780  213.1470  147.6120 C   0  0  0  0  0  2  0  0  0  0  0  0
  162.1010  209.8740  150.9170 N   0  0  0  0  0  0  0  0  0  0  0  0
  159.6130  213.2940  150.3280 C   0  0  0  0  0  3  0  0  0  0  0  0
  159.6900  212.4950  155.7100 C   0  0  2  0  0  3  0  0  0  0  0  0
  159.5340  214.2380  149.3840 C   0  0  0  0  0  3  0  0  0  0  0  0
  159.0840  212.6550  156.9550 O   0  0  0  0  0  1  0  0  0  0  0  0
  160.5670  212.1670  150.5160 C   0  0  0  0  0  0  0  0  0  0  0  0
  160.8940  209.2820  153.0060 C   0  0  1  0  0  3  0  0  0  0  0  0
  160.4660  214.4520  148.2430 C   0  0  0  0  0  2  0  0  0  0  0  0
  161.5970  211.8080  149.6020 C   0  0  0  0  0  0  0  0  0  0  0  0
  161.3530  211.0810  154.6060 N   0  0  0  0  0  2  0  0  0  0  0  0
  160.3540  211.3370  151.6460 C   0  0  0  0  0  0  0  0  0  0  0  0
  158.6650  212.7970  154.6100 C   0  0  0  0  0  2  0  0  0  0  0  0
  162.3540  210.6630  149.8450 C   0  0  0  0  0  3  0  0  0  0  0  0
  159.2970  210.1470  155.3510 O   0  0  0  0  0  1  0  0  0  0  0  0
  160.2960  211.0920  155.6210 C   0  0  2  0  0  3  0  0  0  0  0  0
  159.3080  212.9240  153.2370 C   0  0  0  0  0  2  0  0  0  0  0  0
  161.3110  205.0760  152.2080 C   0  0  0  0  0  3  0  0  0  0  0  0
  161.0530  207.8210  152.7080 C   0  0  0  0  0  0  0  0  0  0  0  0
  161.1460  206.9180  153.7720 C   0  0  0  0  0  3  0  0  0  0  0  0
  161.2770  205.5480  153.5230 C   0  0  0  0  0  3  0  0  0  0  0  0
  161.2130  205.9740  151.1400 C   0  0  0  0  0  3  0  0  0  0  0  0
  161.0820  207.3430  151.3880 C   0  0  0  0  0  3  0  0  0  0  0  0
  1 15  1  0  0  0  0
  2 12  1  0  0  0  0
  3 21  1  0  0  0  0
  4 14  1  0  0  0  0
  5 13  1  0  0  0  0
  5  4  1  0  0  0  0
  6  2  2  0  0  0  0
  7 11  1  0  0  0  0
  8 10  1  1  0  0  0
  9  7  2  0  0  0  0
 11 16  2  0  0  0  0
 12 23  1  6  0  0  0
 12  1  1  0  0  0  0
 13  9  1  0  0  0  0
 14 18  2  0  0  0  0
 14 11  1  0  0  0  0
 15 20  1  0  0  0  0
 16  2  1  0  0  0  0
 16  3  1  0  0  0  0
 17  8  1  0  0  0  0
 18  6  1  0  0  0  0
 20 19  1  6  0  0  0
 20  8  1  0  0  0  0
 21 17  1  0  0  0  0
 22 25  1  0  0  0  0
 23 24  1  0  0  0  0
 25 24  2  0  0  0  0
 26 27  1  0  0  0  0
 26 22  2  0  0  0  0
 27 23  2  0  0  0  0
M  END
>  <MODEL>
2

>  <REMARK>
 VINA RESULT:      -7.0      2.749      6.621
  Name = 
  1 active torsions:
  status: ('A' for Active; 'I' for Inactive)
    1  A    between atoms: C_9  and  C_15
                            x       y       z     vdW  Elec       q    Type
                         _______ _______ _______ _____ _____    ______ ____

>  <TORSDO>
F 1

$$$$
=
 OpenBabel11052423143D

 27 30  0  0  1  0  0  0  0  0999 V2000
  162.1970  206.8880  153.1110 C   0  0  0  0  0  2  0  0  0  0  0  0
  161.3260  208.3750  151.2570 C   0  0  0  0  0  0  0  0  0  0  0  0
  159.9830  209.4630  152.9300 O   0  0  0  0  0  0  0  0  0  0  0  0
  162.0970  211.9770  149.0850 C   0  0  0  0  0  2  0  0  0  0  0  0
  160.9260  212.8850  148.8030 C   0  0  0  0  0  2  0  0  0  0  0  0
  162.1230  208.4280  150.1590 N   0  0  0  0  0  0  0  0  0  0  0  0
  160.0970  211.9300  151.5230 C   0  0  0  0  0  3  0  0  0  0  0  0
  160.8270  208.8800  155.9700 C   0  0  2  0  0  3  0  0  0  0  0  0
  160.0220  213.1920  151.0880 C   0  0  0  0  0  3  0  0  0  0  0  0
  160.4350  208.5280  157.2600 O   0  0  0  0  0  1  0  0  0  0  0  0
  160.8950  210.7700  151.0420 C   0  0  0  0  0  0  0  0  0  0  0  0
  161.1540  207.0760  152.0050 C   0  0  1  0  0  3  0  0  0  0  0  0
  160.8020  213.8140  149.9820 C   0  0  0  0  0  2  0  0  0  0  0  0
  161.7220  210.7700  149.8840 C   0  0  0  0  0  0  0  0  0  0  0  0
  162.0930  207.9700  154.0850 N   0  0  0  0  0  2  0  0  0  0  0  0
  160.7280  209.5490  151.7460 C   0  0  0  0  0  0  0  0  0  0  0  0
  159.7100  209.6980  155.3110 C   0  0  0  0  0  2  0  0  0  0  0  0
  162.3310  209.5820  149.4820 C   0  0  0  0  0  3  0  0  0  0  0  0
  160.0510  206.9510  154.7550 O   0  0  0  0  0  1  0  0  0  0  0  0
  161.2050  207.6150  155.1950 C   0  0  2  0  0  3  0  0  0  0  0  0
  160.1610  210.3620  154.0190 C   0  0  0  0  0  2  0  0  0  0  0  0
  160.8340  203.6140  149.4740 C   0  0  0  0  0  3  0  0  0  0  0  0
  161.0560  205.8810  151.1050 C   0  0  0  0  0  0  0  0  0  0  0  0
  161.0550  204.6020  151.6730 C   0  0  0  0  0  3  0  0  0  0  0  0
  160.9470  203.4700  150.8590 C   0  0  0  0  0  3  0  0  0  0  0  0
  160.8290  204.8890  148.9010 C   0  0  0  0  0  3  0  0  0  0  0  0
  160.9370  206.0200  149.7130 C   0  0  0  0  0  3  0  0  0  0  0  0
  1 15  1  0  0  0  0
  2 16  1  0  0  0  0
  2 12  1  0  0  0  0
  3 21  1  0  0  0  0
  4 14  1  0  0  0  0
  5  4  1  0  0  0  0
  5 13  1  0  0  0  0
  6  2  2  0  0  0  0
  8 10  1  1  0  0  0
  9  7  2  0  0  0  0
 11  7  1  0  0  0  0
 11 16  2  0  0  0  0
 12 23  1  6  0  0  0
 12  1  1  0  0  0  0
 13  9  1  0  0  0  0
 14 11  1  0  0  0  0
 15 20  1  0  0  0  0
 16  3  1  0  0  0  0
 17  8  1  0  0  0  0
 18 14  2  0  0  0  0
 18  6  1  0  0  0  0
 20 19  1  6  0  0  0
 20  8  1  0  0  0  0
 21 17  1  0  0  0  0
 22 25  1  0  0  0  0
 23 24  1  0  0  0  0
 25 24  2  0  0  0  0
 26 22  2  0  0  0  0
 26 27  1  0  0  0  0
 27 23  2  0  0  0  0
M  END
>  <MODEL>
3

>  <REMARK>
 VINA RESULT:      -6.9      2.354      6.762
  Name = 
  1 active torsions:
  status: ('A' for Active; 'I' for Inactive)
    1  A    between atoms: C_9  and  C_15
                            x       y       z     vdW  Elec       q    Type
                         _______ _______ _______ _____ _____    ______ ____

>  <TORSDO>
F 1

$$$$
=
 OpenBabel11052423143D

 27 30  0  0  1  0  0  0  0  0999 V2000
  160.5060  207.9620  152.9070 C   0  0  0  0  0  2  0  0  0  0  0  0
  161.1990  210.3040  152.2440 C   0  0  0  0  0  0  0  0  0  0  0  0
  162.3290  209.3050  150.3700 O   0  0  0  0  0  0  0  0  0  0  0  0
  159.9700  213.7660  150.0550 C   0  0  0  0  0  2  0  0  0  0  0  0
  161.0040  214.4520  149.1990 C   0  0  0  0  0  2  0  0  0  0  0  0
  160.4290  211.2880  152.7750 N   0  0  0  0  0  0  0  0  0  0  0  0
  161.8950  211.6190  148.7790 C   0  0  0  0  0  3  0  0  0  0  0  0
  161.5050  206.2730  149.7180 C   0  0  2  0  0  3  0  0  0  0  0  0
  161.7980  212.5510  147.8250 C   0  0  0  0  0  3  0  0  0  0  0  0
  161.9120  204.9720  149.4290 O   0  0  0  0  0  1  0  0  0  0  0  0
  161.2840  211.5300  150.1330 C   0  0  0  0  0  0  0  0  0  0  0  0
  161.5370  209.0830  153.0630 C   0  0  1  0  0  3  0  0  0  0  0  0
  160.9640  213.7840  147.8490 C   0  0  0  0  0  2  0  0  0  0  0  0
  160.4950  212.5460  150.7420 C   0  0  0  0  0  0  0  0  0  0  0  0
  160.4290  207.5430  151.5110 N   0  0  0  0  0  2  0  0  0  0  0  0
  161.6090  210.3830  150.9020 C   0  0  0  0  0  0  0  0  0  0  0  0
  162.5080  207.2600  149.1090 C   0  0  0  0  0  2  0  0  0  0  0  0
  160.0730  212.3820  152.0600 C   0  0  0  0  0  3  0  0  0  0  0  0
  162.5790  206.5850  151.8500 O   0  0  0  0  0  1  0  0  0  0  0  0
  161.3320  206.4230  151.2320 C   0  0  2  0  0  3  0  0  0  0  0  0
  161.9970  208.6930  149.1290 C   0  0  0  0  0  2  0  0  0  0  0  0
  162.3700  209.9060  157.2010 C   0  0  0  0  0  3  0  0  0  0  0  0
  161.8290  209.3940  154.5000 C   0  0  0  0  0  0  0  0  0  0  0  0
  161.2460  208.6040  155.4970 C   0  0  0  0  0  3  0  0  0  0  0  0
  161.5150  208.8600  156.8450 C   0  0  0  0  0  3  0  0  0  0  0  0
  162.9590  210.6960  156.2090 C   0  0  0  0  0  3  0  0  0  0  0  0
  162.6920  210.4400  154.8620 C   0  0  0  0  0  3  0  0  0  0  0  0
  1 12  1  0  0  0  0
  2  6  1  0  0  0  0
  2 12  1  0  0  0  0
  3 16  1  0  0  0  0
  4 14  1  0  0  0  0
  5  4  1  0  0  0  0
  7 11  1  0  0  0  0
  8 10  1  1  0  0  0
  8 20  1  0  0  0  0
  9 13  1  0  0  0  0
  9  7  2  0  0  0  0
 11 14  2  0  0  0  0
 11 16  1  0  0  0  0
 12 23  1  1  0  0  0
 13  5  1  0  0  0  0
 14 18  1  0  0  0  0
 15  1  1  0  0  0  0
 16  2  2  0  0  0  0
 17 21  1  0  0  0  0
 17  8  1  0  0  0  0
 18  6  2  0  0  0  0
 20 15  1  0  0  0  0
 20 19  1  1  0  0  0
 21  3  1  0  0  0  0
 23 27  2  0  0  0  0
 23 24  1  0  0  0  0
 24 25  2  0  0  0  0
 25 22  1  0  0  0  0
 26 22  2  0  0  0  0
 27 26  1  0  0  0  0
M  END
>  <MODEL>
4

>  <REMARK>
 VINA RESULT:      -6.2      2.304      5.615
  Name = 
  1 active torsions:
  status: ('A' for Active; 'I' for Inactive)
    1  A    between atoms: C_9  and  C_15
                            x       y       z     vdW  Elec       q    Type
                         _______ _______ _______ _____ _____    ______ ____

>  <TORSDO>
F 1

$$$$
=
 OpenBabel11052423143D

 27 30  0  0  1  0  0  0  0  0999 V2000
  162.7030  209.0460  149.9810 C   0  0  0  0  0  2  0  0  0  0  0  0
  161.5190  209.5990  152.1490 C   0  0  0  0  0  0  0  0  0  0  0  0
  160.4210  207.4690  151.9480 O   0  0  0  0  0  0  0  0  0  0  0  0
  161.8530  209.3770  156.4060 C   0  0  0  0  0  2  0  0  0  0  0  0
  160.6300  208.9550  157.1800 C   0  0  0  0  0  2  0  0  0  0  0  0
  162.1380  210.5470  152.8990 N   0  0  0  0  0  0  0  0  0  0  0  0
  160.2530  207.2050  154.7720 C   0  0  0  0  0  3  0  0  0  0  0  0
  161.7360  205.4310  149.8460 C   0  0  2  0  0  3  0  0  0  0  0  0
  160.0790  206.8250  156.0420 C   0  0  0  0  0  3  0  0  0  0  0  0
  161.5560  204.5430  148.7870 O   0  0  0  0  0  1  0  0  0  0  0  0
  160.9980  208.3500  154.1820 C   0  0  0  0  0  0  0  0  0  0  0  0
  161.4990  209.7190  150.6450 C   0  0  1  0  0  3  0  0  0  0  0  0
  160.6640  207.4510  157.2600 C   0  0  0  0  0  2  0  0  0  0  0  0
  161.6370  209.3810  154.9260 C   0  0  0  0  0  0  0  0  0  0  0  0
  162.7220  207.6220  150.3050 N   0  0  0  0  0  2  0  0  0  0  0  0
  160.9730  208.4620  152.7680 C   0  0  0  0  0  0  0  0  0  0  0  0
  160.5100  205.3720  150.7660 C   0  0  0  0  0  2  0  0  0  0  0  0
  162.2090  210.4560  154.2480 C   0  0  0  0  0  3  0  0  0  0  0  0
  160.8340  207.4390  148.8700 O   0  0  0  0  0  1  0  0  0  0  0  0
  162.0240  206.8280  149.2900 C   0  0  2  0  0  3  0  0  0  0  0  0
  160.7400  206.0890  152.0870 C   0  0  0  0  0  2  0  0  0  0  0  0
  160.9220  213.7290  149.1990 C   0  0  0  0  0  3  0  0  0  0  0  0
  161.2960  211.1250  150.1640 C   0  0  0  0  0  0  0  0  0  0  0  0
  161.9820  211.5590  149.0250 C   0  0  0  0  0  3  0  0  0  0  0  0
  161.7980  212.8590  148.5440 C   0  0  0  0  0  3  0  0  0  0  0  0
  160.2290  213.3000  150.3350 C   0  0  0  0  0  3  0  0  0  0  0  0
  160.4130  212.0010  150.8160 C   0  0  0  0  0  3  0  0  0  0  0  0
  1 15  1  0  0  0  0
  1 12  1  0  0  0  0
  2 16  2  0  0  0  0
  2  6  1  0  0  0  0
  3 21  1  0  0  0  0
  3 16  1  0  0  0  0
  4  5  1  0  0  0  0
  5 13  1  0  0  0  0
  6 18  2  0  0  0  0
  7  9  2  0  0  0  0
  8 10  1  6  0  0  0
  8 17  1  0  0  0  0
  9 13  1  0  0  0  0
 11  7  1  0  0  0  0
 11 14  2  0  0  0  0
 12 23  1  1  0  0  0
 12  2  1  0  0  0  0
 14  4  1  0  0  0  0
 16 11  1  0  0  0  0
 17 21  1  0  0  0  0
 18 14  1  0  0  0  0
 20 19  1  1  0  0  0
 20  8  1  0  0  0  0
 20 15  1  0  0  0  0
 22 26  1  0  0  0  0
 23 27  1  0  0  0  0
 24 23  2  0  0  0  0
 25 24  1  0  0  0  0
 25 22  2  0  0  0  0
 26 27  2  0  0  0  0
M  END
>  <MODEL>
5

>  <REMARK>
 VINA RESULT:      -5.7      2.177      5.531
  Name = 
  1 active torsions:
  status: ('A' for Active; 'I' for Inactive)
    1  A    between atoms: C_9  and  C_15
                            x       y       z     vdW  Elec       q    Type
                         _______ _______ _______ _____ _____    ______ ____

>  <TORSDO>
F 1

$$$$
=
 OpenBabel11052423143D

 27 30  0  0  1  0  0  0  0  0999 V2000
  159.8510  213.8060  138.4540 C   0  0  0  0  0  2  0  0  0  0  0  0
  159.9130  212.8110  140.7810 C   0  0  0  0  0  0  0  0  0  0  0  0
  162.3000  212.6670  140.5200 O   0  0  0  0  0  0  0  0  0  0  0  0
  160.1120  213.7900  144.9390 C   0  0  0  0  0  2  0  0  0  0  0  0
  161.0310  212.9670  145.8050 C   0  0  0  0  0  2  0  0  0  0  0  0
  158.8180  213.0830  141.5360 N   0  0  0  0  0  0  0  0  0  0  0  0
  162.7000  213.0120  143.3120 C   0  0  0  0  0  3  0  0  0  0  0  0
  163.5330  214.3970  138.1160 C   0  0  2  0  0  3  0  0  0  0  0  0
  163.1590  213.1870  144.5560 C   0  0  0  0  0  3  0  0  0  0  0  0
  164.3800  214.4530  137.0110 O   0  0  0  0  0  1  0  0  0  0  0  0
  161.3300  213.1340  142.7430 C   0  0  0  0  0  0  0  0  0  0  0  0
  159.7640  212.5360  139.3050 C   0  0  1  0  0  3  0  0  0  0  0  0
  162.3850  213.6250  145.7510 C   0  0  0  0  0  2  0  0  0  0  0  0
  160.1520  213.3890  143.4980 C   0  0  0  0  0  0  0  0  0  0  0  0
  161.1460  214.4510  138.6500 N   0  0  0  0  0  2  0  0  0  0  0  0
  161.1940  212.8700  141.3560 C   0  0  0  0  0  0  0  0  0  0  0  0
  164.1280  213.4430  139.1580 C   0  0  0  0  0  2  0  0  0  0  0  0
  158.9150  213.3710  142.8560 C   0  0  0  0  0  3  0  0  0  0  0  0
  162.0560  212.6270  137.4240 O   0  0  0  0  0  1  0  0  0  0  0  0
  162.1260  214.0080  137.6550 C   0  0  2  0  0  3  0  0  0  0  0  0
  163.4230  213.5390  140.5030 C   0  0  0  0  0  2  0  0  0  0  0  0
  156.2920  210.2060  138.2970 C   0  0  0  0  0  3  0  0  0  0  0  0
  158.5580  211.7100  138.9730 C   0  0  0  0  0  0  0  0  0  0  0  0
  157.4510  212.3310  138.3850 C   0  0  0  0  0  3  0  0  0  0  0  0
  156.3190  211.5810  138.0490 C   0  0  0  0  0  3  0  0  0  0  0  0
  157.3970  209.5790  138.8800 C   0  0  0  0  0  3  0  0  0  0  0  0
  158.5280  210.3270  139.2160 C   0  0  0  0  0  3  0  0  0  0  0  0
  1 15  1  0  0  0  0
  1 12  1  0  0  0  0
  2 16  2  0  0  0  0
  2  6  1  0  0  0  0
  3 16  1  0  0  0  0
  4  5  1  0  0  0  0
  6 18  2  0  0  0  0
  7  9  2  0  0  0  0
  8 10  1  6  0  0  0
  8 17  1  0  0  0  0
  9 13  1  0  0  0  0
 11  7  1  0  0  0  0
 11 14  2  0  0  0  0
 12 23  1  1  0  0  0
 12  2  1  0  0  0  0
 13  5  1  0  0  0  0
 14  4  1  0  0  0  0
 16 11  1  0  0  0  0
 17 21  1  0  0  0  0
 18 14  1  0  0  0  0
 20 19  1  1  0  0  0
 20  8  1  0  0  0  0
 20 15  1  0  0  0  0
 21  3  1  0  0  0  0
 22 26  1  0  0  0  0
 23 27  1  0  0  0  0
 24 23  2  0  0  0  0
 25 22  2  0  0  0  0
 25 24  1  0  0  0  0
 26 27  2  0  0  0  0
M  END
>  <MODEL>
6

>  <REMARK>
 VINA RESULT:      -5.4      9.299     13.263
  Name = 
  1 active torsions:
  status: ('A' for Active; 'I' for Inactive)
    1  A    between atoms: C_9  and  C_15
                            x       y       z     vdW  Elec       q    Type
                         _______ _______ _______ _____ _____    ______ ____

>  <TORSDO>
F 1

$$$$
=
 OpenBabel11052423143D

 27 30  0  0  1  0  0  0  0  0999 V2000
  159.0010  214.3710  140.7900 C   0  0  0  0  0  2  0  0  0  0  0  0
  159.9080  212.0100  140.7080 C   0  0  0  0  0  0  0  0  0  0  0  0
  157.8610  211.3950  139.6040 O   0  0  0  0  0  0  0  0  0  0  0  0
  162.3180  209.3270  138.4100 C   0  0  0  0  0  2  0  0  0  0  0  0
  161.8160  207.9160  138.2350 C   0  0  0  0  0  2  0  0  0  0  0  0
  161.2570  211.9220  140.8370 N   0  0  0  0  0  0  0  0  0  0  0  0
  159.1750  209.3350  138.1530 C   0  0  0  0  0  3  0  0  0  0  0  0
  156.1320  213.8370  138.4450 C   0  0  2  0  0  3  0  0  0  0  0  0
  159.5470  208.3430  137.3380 C   0  0  0  0  0  3  0  0  0  0  0  0
  154.8870  214.4530  138.3230 O   0  0  0  0  0  1  0  0  0  0  0  0
  159.9710  210.2590  139.0060 C   0  0  0  0  0  0  0  0  0  0  0  0
  159.1360  213.0270  141.5110 C   0  0  1  0  0  3  0  0  0  0  0  0
  160.9360  207.9160  137.0120 C   0  0  0  0  0  2  0  0  0  0  0  0
  161.3790  210.1880  139.1930 C   0  0  0  0  0  0  0  0  0  0  0  0
  158.2990  214.1910  139.5230 N   0  0  0  0  0  2  0  0  0  0  0  0
  159.2410  211.2110  139.7630 C   0  0  0  0  0  0  0  0  0  0  0  0
  155.9370  212.3160  138.4850 C   0  0  0  0  0  2  0  0  0  0  0  0
  161.9890  211.0470  140.1070 C   0  0  0  0  0  3  0  0  0  0  0  0
  156.3560  213.8130  140.8420 O   0  0  0  0  0  1  0  0  0  0  0  0
  156.8560  214.3990  139.6710 C   0  0  2  0  0  3  0  0  0  0  0  0
  157.2480  211.5590  138.3310 C   0  0  0  0  0  2  0  0  0  0  0  0
  160.5840  213.3990  145.5440 C   0  0  0  0  0  3  0  0  0  0  0  0
  159.6390  213.1810  142.9150 C   0  0  0  0  0  0  0  0  0  0  0  0
  159.3000  212.2140  143.8680 C   0  0  0  0  0  3  0  0  0  0  0  0
  159.7700  212.3240  145.1800 C   0  0  0  0  0  3  0  0  0  0  0  0
  160.9310  214.3660  144.5950 C   0  0  0  0  0  3  0  0  0  0  0  0
  160.4620  214.2570  143.2830 C   0  0  0  0  0  3  0  0  0  0  0  0
  1 12  1  0  0  0  0
  2  6  1  0  0  0  0
  2 12  1  0  0  0  0
  3 16  1  0  0  0  0
  4 14  1  0  0  0  0
  5  4  1  0  0  0  0
  7 11  1  0  0  0  0
  8 10  1  1  0  0  0
  8 17  1  0  0  0  0
  8 20  1  0  0  0  0
  9  7  2  0  0  0  0
 11 14  2  0  0  0  0
 11 16  1  0  0  0  0
 12 23  1  1  0  0  0
 13  9  1  0  0  0  0
 13  5  1  0  0  0  0
 14 18  1  0  0  0  0
 15 20  1  0  0  0  0
 15  1  1  0  0  0  0
 16  2  2  0  0  0  0
 18  6  2  0  0  0  0
 20 19  1  1  0  0  0
 21 17  1  0  0  0  0
 21  3  1  0  0  0  0
 23 27  2  0  0  0  0
 23 24  1  0  0  0  0
 24 25  2  0  0  0  0
 25 22  1  0  0  0  0
 26 22  2  0  0  0  0
 27 26  1  0  0  0  0
M  END
>  <MODEL>
7

>  <REMARK>
 VINA RESULT:      -4.8      9.560     12.493
  Name = 
  1 active torsions:
  status: ('A' for Active; 'I' for Inactive)
    1  A    between atoms: C_9  and  C_15
                            x       y       z     vdW  Elec       q    Type
                         _______ _______ _______ _____ _____    ______ ____

>  <TORSDO>
F 1

$$$$
=
 OpenBabel11052423143D

 27 30  0  0  1  0  0  0  0  0999 V2000
  163.0100  208.7040  148.3200 C   0  0  0  0  0  2  0  0  0  0  0  0
  161.8830  209.4860  150.4480 C   0  0  0  0  0  0  0  0  0  0  0  0
  160.6350  207.4300  150.3940 O   0  0  0  0  0  0  0  0  0  0  0  0
  162.2280  209.5280  154.7100 C   0  0  0  0  0  2  0  0  0  0  0  0
  160.9830  209.2470  155.5120 C   0  0  0  0  0  2  0  0  0  0  0  0
  162.5720  210.4360  151.1310 N   0  0  0  0  0  0  0  0  0  0  0  0
  160.4670  207.3700  153.2300 C   0  0  0  0  0  3  0  0  0  0  0  0
  161.7870  205.1670  148.4330 C   0  0  2  0  0  3  0  0  0  0  0  0
  160.2750  207.0900  154.5230 C   0  0  0  0  0  3  0  0  0  0  0  0
  161.5380  204.2250  147.4370 O   0  0  0  0  0  1  0  0  0  0  0  0
  161.2880  208.4160  152.5620 C   0  0  0  0  0  0  0  0  0  0  0  0
  161.8610  209.5050  148.9400 C   0  0  1  0  0  3  0  0  0  0  0  0
  160.9110  207.7530  155.6950 C   0  0  0  0  0  2  0  0  0  0  0  0
  162.0030  209.4470  153.2330 C   0  0  0  0  0  0  0  0  0  0  0  0
  162.9300  207.3080  148.7400 N   0  0  0  0  0  2  0  0  0  0  0  0
  161.2620  208.4340  151.1440 C   0  0  0  0  0  0  0  0  0  0  0  0
  160.5670  205.2570  149.3560 C   0  0  0  0  0  2  0  0  0  0  0  0
  162.6450  210.4300  152.4830 C   0  0  0  0  0  3  0  0  0  0  0  0
  161.0240  207.1630  147.3240 O   0  0  0  0  0  1  0  0  0  0  0  0
  162.1700  206.4990  147.7830 C   0  0  2  0  0  3  0  0  0  0  0  0
  160.8560  206.0440  150.6260 C   0  0  0  0  0  2  0  0  0  0  0  0
  161.6210  213.4590  147.2640 C   0  0  0  0  0  3  0  0  0  0  0  0
  161.7550  210.8860  148.3650 C   0  0  0  0  0  0  0  0  0  0  0  0
  162.9020  211.6840  148.3000 C   0  0  0  0  0  3  0  0  0  0  0  0
  162.8350  212.9690  147.7520 C   0  0  0  0  0  3  0  0  0  0  0  0
  160.4720  212.6640  147.3220 C   0  0  0  0  0  3  0  0  0  0  0  0
  160.5380  211.3800  147.8680 C   0  0  0  0  0  3  0  0  0  0  0  0
  1 15  1  0  0  0  0
  1 12  1  0  0  0  0
  2  6  2  0  0  0  0
  2 16  1  0  0  0  0
  3 21  1  0  0  0  0
  3 16  1  0  0  0  0
  4  5  1  0  0  0  0
  5 13  1  0  0  0  0
  6 18  1  0  0  0  0
  7  9  2  0  0  0  0
  8 10  1  6  0  0  0
  8 17  1  0  0  0  0
  9 13  1  0  0  0  0
 11  7  1  0  0  0  0
 11 14  1  0  0  0  0
 12 23  1  1  0  0  0
 12  2  1  0  0  0  0
 14  4  1  0  0  0  0
 16 11  2  0  0  0  0
 17 21  1  0  0  0  0
 18 14  2  0  0  0  0
 20 19  1  1  0  0  0
 20  8  1  0  0  0  0
 20 15  1  0  0  0  0
 22 26  2  0  0  0  0
 22 25  1  0  0  0  0
 24 23  1  0  0  0  0
 25 24  2  0  0  0  0
 26 27  1  0  0  0  0
 27 23  2  0  0  0  0
M  END
>  <MODEL>
8

>  <REMARK>
 VINA RESULT:      -4.7      2.158      5.861
  Name = 
  1 active torsions:
  status: ('A' for Active; 'I' for Inactive)
    1  A    between atoms: C_9  and  C_15
                            x       y       z     vdW  Elec       q    Type
                         _______ _______ _______ _____ _____    ______ ____

>  <TORSDO>
F 1

$$$$
=
 OpenBabel11052423143D

 27 30  0  0  1  0  0  0  0  0999 V2000
  160.0820  210.0600  152.0090 C   0  0  0  0  0  2  0  0  0  0  0  0
  161.1280  208.0870  150.8200 C   0  0  0  0  0  0  0  0  0  0  0  0
  161.8790  207.3420  152.9800 O   0  0  0  0  0  0  0  0  0  0  0  0
  160.3580  204.1350  149.3780 C   0  0  0  0  0  2  0  0  0  0  0  0
  161.4170  203.0880  149.6150 C   0  0  0  0  0  2  0  0  0  0  0  0
  160.6040  207.8290  149.5940 N   0  0  0  0  0  0  0  0  0  0  0  0
  161.7320  204.6200  152.1750 C   0  0  0  0  0  3  0  0  0  0  0  0
  160.4560  208.7400  155.4930 C   0  0  2  0  0  3  0  0  0  0  0  0
  161.7200  203.2880  152.0650 C   0  0  0  0  0  3  0  0  0  0  0  0
  160.5890  209.3690  156.7300 O   0  0  0  0  0  1  0  0  0  0  0  0
  161.2420  205.6870  151.2600 C   0  0  0  0  0  0  0  0  0  0  0  0
  161.3110  209.5120  151.2790 C   0  0  1  0  0  3  0  0  0  0  0  0
  161.1310  202.4780  150.9620 C   0  0  0  0  0  2  0  0  0  0  0  0
  160.7120  205.4670  149.9580 C   0  0  0  0  0  0  0  0  0  0  0  0
  159.8010  209.2530  153.1930 N   0  0  0  0  0  2  0  0  0  0  0  0
  161.4200  207.0260  151.6940 C   0  0  0  0  0  0  0  0  0  0  0  0
  161.5620  207.6890  155.3420 C   0  0  0  0  0  2  0  0  0  0  0  0
  160.3900  206.5640  149.1600 C   0  0  0  0  0  3  0  0  0  0  0  0
  161.7610  210.2270  154.1220 O   0  0  0  0  0  1  0  0  0  0  0  0
  160.4530  209.7980  154.3860 C   0  0  2  0  0  3  0  0  0  0  0  0
  161.3270  206.7640  154.1580 C   0  0  0  0  0  2  0  0  0  0  0  0
  162.6730  212.1990  148.2100 C   0  0  0  0  0  3  0  0  0  0  0  0
  161.7850  210.4300  150.1930 C   0  0  0  0  0  0  0  0  0  0  0  0
  161.3560  211.7620  150.1950 C   0  0  0  0  0  3  0  0  0  0  0  0
  161.7980  212.6450  149.2040 C   0  0  0  0  0  3  0  0  0  0  0  0
  163.1090  210.8710  148.2060 C   0  0  0  0  0  3  0  0  0  0  0  0
  162.6690  209.9880  149.1960 C   0  0  0  0  0  3  0  0  0  0  0  0
  1 15  1  0  0  0  0
  2 12  1  0  0  0  0
  2 16  1  0  0  0  0
  3 21  1  0  0  0  0
  4  5  1  0  0  0  0
  4 14  1  0  0  0  0
  5 13  1  0  0  0  0
  6  2  2  0  0  0  0
  8 10  1  1  0  0  0
  9  7  2  0  0  0  0
 11 16  2  0  0  0  0
 11  7  1  0  0  0  0
 12 23  1  6  0  0  0
 12  1  1  0  0  0  0
 13  9  1  0  0  0  0
 14 11  1  0  0  0  0
 15 20  1  0  0  0  0
 16  3  1  0  0  0  0
 17  8  1  0  0  0  0
 18  6  1  0  0  0  0
 18 14  2  0  0  0  0
 20 19  1  6  0  0  0
 20  8  1  0  0  0  0
 21 17  1  0  0  0  0
 22 25  1  0  0  0  0
 23 24  1  0  0  0  0
 25 24  2  0  0  0  0
 26 22  2  0  0  0  0
 26 27  1  0  0  0  0
 27 23  2  0  0  0  0
M  END
>  <MODEL>
9

>  <REMARK>
 VINA RESULT:      -4.6      2.076      4.983
  Name = 
  1 active torsions:
  status: ('A' for Active; 'I' for Inactive)
    1  A    between atoms: C_9  and  C_15
                            x       y       z     vdW  Elec       q    Type
                         _______ _______ _______ _____ _____    ______ ____

>  <TORSDO>
F 1

$$$$
