=
 OpenBabel11062410013D

 43 48  0  0  1  0  0  0  0  0999 V2000
  161.0890  209.3510  155.4780 C   0  0  0  0  0  0  0  0  0  0  0  0
  161.3230  207.9780  150.5750 C   0  0  2  0  0  3  0  0  0  0  0  0
  161.8790  210.3440  149.1890 C   0  0  0  0  0  0  0  0  0  0  0  0
  161.1650  208.0660  153.4230 C   0  0  0  0  0  0  0  0  0  0  0  0
  161.6210  210.4570  154.8140 C   0  0  0  0  0  3  0  0  0  0  0  0
  160.7940  209.4320  156.7980 F   0  0  0  0  0  0  0  0  0  0  0  0
  161.6710  209.1980  152.7390 C   0  0  0  0  0  0  0  0  0  0  0  0
  160.8590  208.1590  154.7850 C   0  0  0  0  0  3  0  0  0  0  0  0
  161.9200  210.3780  153.4510 C   0  0  0  0  0  3  0  0  0  0  0  0
  161.8980  210.3190  150.5890 O   0  0  0  0  0  0  0  0  0  0  0  0
  162.0790  209.0900  151.2920 C   0  0  2  0  0  3  0  0  0  0  0  0
  161.5350  206.6780  151.3420 C   0  0  0  0  0  2  0  0  0  0  0  0
  161.8480  207.9030  149.1400 C   0  0  2  0  0  3  0  0  0  0  0  0
  161.8420  209.2290  148.5140 N   0  0  0  0  0  0  0  0  0  0  0  0
  160.8420  206.7820  152.6990 C   0  0  0  0  0  2  0  0  0  0  0  0
  161.8930  211.6640  148.4870 C   0  0  1  0  0  3  0  0  0  0  0  0
  163.3190  212.0180  148.1060 C   0  0  0  0  0  1  0  0  0  0  0  0
  161.0510  211.6280  147.2970 N   0  0  0  0  0  2  0  0  0  0  0  0
  160.2470  212.7310  146.8760 C   0  0  0  0  0  0  0  0  0  0  0  0
  159.9900  213.9530  147.9370 S   0  0  0  0  0  0  0  0  0  0  0  0
  159.6980  212.7520  145.5470 N   0  0  0  0  0  2  0  0  0  0  0  0
  160.3160  213.2930  144.3390 C   0  0  1  0  0  3  0  0  0  0  0  0
  163.7640  214.0070  143.9260 C   0  0  0  0  0  2  0  0  0  0  0  0
  161.4930  214.0260  144.6510 O   0  0  0  0  0  0  0  0  0  0  0  0
  160.7700  212.1800  143.3710 C   0  0  2  0  0  3  0  0  0  0  0  0
  162.1420  212.4590  143.1210 O   0  0  0  0  0  0  0  0  0  0  0  0
  162.5320  213.5290  143.8960 C   0  0  0  0  0  0  0  0  0  0  0  0
  158.9990  213.1870  141.8790 C   0  0  0  0  0  3  0  0  0  0  0  0
  159.9850  212.2130  142.0990 C   0  0  0  0  0  0  0  0  0  0  0  0
  159.8490  210.4000  138.9220 F   0  0  0  0  0  0  0  0  0  0  0  0
  158.5810  212.2730  139.6760 C   0  0  0  0  0  3  0  0  0  0  0  0
  159.5600  211.3010  139.8940 C   0  0  0  0  0  0  0  0  0  0  0  0
  158.2980  213.2150  140.6700 C   0  0  0  0  0  3  0  0  0  0  0  0
  160.2640  211.2740  141.1010 C   0  0  0  0  0  3  0  0  0  0  0  0
  160.9910  206.9500  148.3170 C   0  0  0  0  0  2  0  0  0  0  0  0
  161.0760  205.2940  144.9290 C   0  0  0  0  0  2  0  0  0  0  0  0
  161.7630  204.1220  145.6350 C   0  0  0  0  0  0  0  0  0  0  0  0
  160.8500  203.1000  145.8180 F   0  0  0  0  0  0  0  0  0  0  0  0
  162.7280  205.8940  146.9750 O   0  0  0  0  0  0  0  0  0  0  0  0
  160.4950  206.2720  145.9430 C   0  0  0  0  0  2  0  0  0  0  0  0
  161.5840  206.7340  146.9300 C   0  0  1  0  0  3  0  0  0  0  0  0
  162.7980  203.6670  144.8400 F   0  0  0  0  0  0  0  0  0  0  0  0
  162.3180  204.5450  147.0010 C   0  0  0  0  0  2  0  0  0  0  0  0
  1  6  1  0  0  0  0
  2 11  1  0  0  0  0
  2 12  1  1  0  0  0
  3 10  1  0  0  0  0
  4  8  1  0  0  0  0
  5  1  1  0  0  0  0
  7  4  2  0  0  0  0
  7  9  1  0  0  0  0
  8  1  2  0  0  0  0
  9  5  2  0  0  0  0
 11 10  1  6  0  0  0
 11  7  1  0  0  0  0
 12 15  1  0  0  0  0
 13 35  1  6  0  0  0
 13  2  1  0  0  0  0
 14 13  1  0  0  0  0
 14  3  2  0  0  0  0
 15  4  1  0  0  0  0
 16 17  1  6  0  0  0
 16  3  1  0  0  0  0
 18 16  1  0  0  0  0
 19 18  1  0  0  0  0
 19 20  2  0  0  0  0
 21 19  1  0  0  0  0
 22 24  1  0  0  0  0
 22 21  1  1  0  0  0
 25 29  1  6  0  0  0
 25 22  1  0  0  0  0
 26 25  1  0  0  0  0
 26 27  1  0  0  0  0
 27 23  2  0  0  0  0
 27 24  1  0  0  0  0
 28 29  1  0  0  0  0
 30 32  1  0  0  0  0
 31 32  2  0  0  0  0
 31 33  1  0  0  0  0
 32 34  1  0  0  0  0
 33 28  2  0  0  0  0
 34 29  2  0  0  0  0
 36 37  1  0  0  0  0
 36 40  1  0  0  0  0
 37 38  1  0  0  0  0
 37 43  1  0  0  0  0
 39 43  1  0  0  0  0
 40 41  1  0  0  0  0
 41 39  1  0  0  0  0
 41 35  1  1  0  0  0
 42 37  1  0  0  0  0
M  END
>  <MODEL>
1

>  <REMARK>
 VINA RESULT:      -9.7      0.000      0.000
  Name = 
  8 active torsions:
  status: ('A' for Active; 'I' for Inactive)
    1  A    between atoms: C_1  and  C_34
    2  A    between atoms: C_1  and  C_35
    3  A    between atoms: C_2  and  N_6
    4  A    between atoms: C_2  and  C_13
    5  A    between atoms: N_3  and  C_4
    6  A    between atoms: N_3  and  C_12
    7  A    between atoms: N_6  and  C_12
    8  A    between atoms: C_14  and  C_22
                            x       y       z     vdW  Elec       q    Type
                         _______ _______ _______ _____ _____    ______ ____

>  <TORSDO>
F 8

$$$$
=
 OpenBabel11062410013D

 43 48  0  0  1  0  0  0  0  0999 V2000
  161.2260  200.9190  148.3580 C   0  0  0  0  0  0  0  0  0  0  0  0
  161.2370  204.9780  151.4420 C   0  0  2  0  0  3  0  0  0  0  0  0
  161.8020  207.1500  149.7730 C   0  0  0  0  0  0  0  0  0  0  0  0
  160.9900  202.3840  150.2760 C   0  0  0  0  0  0  0  0  0  0  0  0
  161.2420  202.0260  147.5060 C   0  0  0  0  0  3  0  0  0  0  0  0
  161.3300  199.6690  147.8450 F   0  0  0  0  0  0  0  0  0  0  0  0
  161.0430  203.5100  149.4170 C   0  0  0  0  0  0  0  0  0  0  0  0
  161.1030  201.0980  149.7390 C   0  0  0  0  0  3  0  0  0  0  0  0
  161.1420  203.3160  148.0330 C   0  0  0  0  0  3  0  0  0  0  0  0
  161.5660  205.8800  149.2320 O   0  0  0  0  0  0  0  0  0  0  0  0
  160.8440  204.8970  149.9710 C   0  0  2  0  0  3  0  0  0  0  0  0
  160.4510  203.9220  152.2100 C   0  0  0  0  0  2  0  0  0  0  0  0
  160.9410  206.3970  151.9300 C   0  0  2  0  0  3  0  0  0  0  0  0
  161.5260  207.3910  151.0250 N   0  0  0  0  0  0  0  0  0  0  0  0
  160.9230  202.5350  151.7760 C   0  0  0  0  0  2  0  0  0  0  0  0
  162.3780  208.2170  148.8970 C   0  0  1  0  0  3  0  0  0  0  0  0
  162.5480  207.6770  147.4890 C   0  0  0  0  0  1  0  0  0  0  0  0
  161.5180  209.3960  148.8810 N   0  0  0  0  0  2  0  0  0  0  0  0
  161.9670  210.6950  149.2670 C   0  0  0  0  0  0  0  0  0  0  0  0
  161.8380  211.1230  150.8440 S   0  0  0  0  0  0  0  0  0  0  0  0
  162.5250  211.5830  148.2830 N   0  0  0  0  0  2  0  0  0  0  0  0
  161.8880  212.7490  147.6770 C   0  0  1  0  0  3  0  0  0  0  0  0
  162.7040  214.1380  144.5190 C   0  0  0  0  0  2  0  0  0  0  0  0
  162.7780  213.4130  146.7880 O   0  0  0  0  0  0  0  0  0  0  0  0
  160.6640  212.3630  146.8210 C   0  0  2  0  0  3  0  0  0  0  0  0
  160.9130  212.9540  145.5510 O   0  0  0  0  0  0  0  0  0  0  0  0
  162.1590  213.5410  145.5650 C   0  0  0  0  0  0  0  0  0  0  0  0
  158.2400  213.0410  146.6310 C   0  0  0  0  0  3  0  0  0  0  0  0
  159.3980  212.8960  147.4100 C   0  0  0  0  0  0  0  0  0  0  0  0
  158.1490  213.9990  150.6700 F   0  0  0  0  0  0  0  0  0  0  0  0
  157.0300  213.8420  148.5700 C   0  0  0  0  0  3  0  0  0  0  0  0
  158.1830  213.7000  149.3460 C   0  0  0  0  0  0  0  0  0  0  0  0
  157.0590  213.5150  147.2110 C   0  0  0  0  0  3  0  0  0  0  0  0
  159.3630  213.2240  148.7690 C   0  0  0  0  0  3  0  0  0  0  0  0
  161.5010  206.5960  153.3320 C   0  0  0  0  0  2  0  0  0  0  0  0
  160.3860  209.8180  154.9460 C   0  0  0  0  0  2  0  0  0  0  0  0
  161.4360  209.5220  156.0200 C   0  0  0  0  0  0  0  0  0  0  0  0
  162.5440  210.3210  155.8080 F   0  0  0  0  0  0  0  0  0  0  0  0
  160.7970  207.2280  155.5770 O   0  0  0  0  0  0  0  0  0  0  0  0
  160.5640  208.8970  153.7460 C   0  0  0  0  0  2  0  0  0  0  0  0
  160.5510  207.4230  154.1920 C   0  0  1  0  0  3  0  0  0  0  0  0
  160.9000  209.8130  157.2610 F   0  0  0  0  0  0  0  0  0  0  0  0
  161.8680  208.0510  155.9840 C   0  0  0  0  0  2  0  0  0  0  0  0
  1  8  1  0  0  0  0
  2 13  1  0  0  0  0
  2 12  1  1  0  0  0
  3 14  2  0  0  0  0
  4 15  1  0  0  0  0
  5  9  1  0  0  0  0
  5  1  2  0  0  0  0
  6  1  1  0  0  0  0
  7 11  1  0  0  0  0
  7  4  1  0  0  0  0
  8  4  2  0  0  0  0
  9  7  2  0  0  0  0
 10  3  1  0  0  0  0
 11 10  1  6  0  0  0
 11  2  1  0  0  0  0
 13 35  1  1  0  0  0
 14 13  1  0  0  0  0
 15 12  1  0  0  0  0
 16 17  1  6  0  0  0
 16  3  1  0  0  0  0
 18 16  1  0  0  0  0
 18 19  1  0  0  0  0
 19 20  2  0  0  0  0
 21 19  1  0  0  0  0
 22 21  1  6  0  0  0
 23 27  2  0  0  0  0
 24 22  1  0  0  0  0
 25 29  1  1  0  0  0
 25 22  1  0  0  0  0
 26 27  1  0  0  0  0
 26 25  1  0  0  0  0
 27 24  1  0  0  0  0
 28 33  2  0  0  0  0
 28 29  1  0  0  0  0
 29 34  2  0  0  0  0
 31 32  2  0  0  0  0
 32 30  1  0  0  0  0
 33 31  1  0  0  0  0
 34 32  1  0  0  0  0
 36 37  1  0  0  0  0
 37 42  1  0  0  0  0
 38 37  1  0  0  0  0
 39 43  1  0  0  0  0
 40 41  1  0  0  0  0
 40 36  1  0  0  0  0
 41 35  1  6  0  0  0
 41 39  1  0  0  0  0
 43 37  1  0  0  0  0
M  END
>  <MODEL>
2

>  <REMARK>
 VINA RESULT:      -9.3      3.536      7.366
  Name = 
  8 active torsions:
  status: ('A' for Active; 'I' for Inactive)
    1  A    between atoms: C_1  and  C_34
    2  A    between atoms: C_1  and  C_35
    3  A    between atoms: C_2  and  N_6
    4  A    between atoms: C_2  and  C_13
    5  A    between atoms: N_3  and  C_4
    6  A    between atoms: N_3  and  C_12
    7  A    between atoms: N_6  and  C_12
    8  A    between atoms: C_14  and  C_22
                            x       y       z     vdW  Elec       q    Type
                         _______ _______ _______ _____ _____    ______ ____

>  <TORSDO>
F 8

$$$$
=
 OpenBabel11062410013D

 43 48  0  0  1  0  0  0  0  0999 V2000
  161.3960  213.5580  146.5310 C   0  0  0  0  0  0  0  0  0  0  0  0
  159.4990  212.7640  151.1950 C   0  0  2  0  0  3  0  0  0  0  0  0
  160.7970  210.4660  152.1200 C   0  0  0  0  0  0  0  0  0  0  0  0
  160.2120  213.8010  148.6330 C   0  0  0  0  0  0  0  0  0  0  0  0
  162.2180  212.5820  147.0990 C   0  0  0  0  0  3  0  0  0  0  0  0
  161.5690  213.9180  145.2360 F   0  0  0  0  0  0  0  0  0  0  0  0
  161.0210  212.7860  149.2020 C   0  0  0  0  0  0  0  0  0  0  0  0
  160.3940  214.1630  147.2950 C   0  0  0  0  0  3  0  0  0  0  0  0
  162.0370  212.2040  148.4320 C   0  0  0  0  0  3  0  0  0  0  0  0
  161.1900  211.0690  150.9190 O   0  0  0  0  0  0  0  0  0  0  0  0
  160.8900  212.4400  150.6620 C   0  0  2  0  0  3  0  0  0  0  0  0
  159.2040  214.2320  150.9120 C   0  0  0  0  0  2  0  0  0  0  0  0
  159.4810  212.4420  152.6900 C   0  0  2  0  0  3  0  0  0  0  0  0
  159.9960  211.0910  152.9380 N   0  0  0  0  0  0  0  0  0  0  0  0
  159.0780  214.4330  149.4030 C   0  0  0  0  0  2  0  0  0  0  0  0
  161.3030  209.0960  152.4440 C   0  0  1  0  0  3  0  0  0  0  0  0
  160.9510  208.7530  153.8800 C   0  0  0  0  0  1  0  0  0  0  0  0
  160.7330  208.1050  151.5380 N   0  0  0  0  0  2  0  0  0  0  0  0
  161.5280  207.2380  150.7290 C   0  0  0  0  0  0  0  0  0  0  0  0
  162.6350  206.2820  151.4700 S   0  0  0  0  0  0  0  0  0  0  0  0
  161.3370  207.2120  149.3040 N   0  0  0  0  0  2  0  0  0  0  0  0
  160.7090  206.1590  148.5110 C   0  0  1  0  0  3  0  0  0  0  0  0
  160.4620  206.1050  144.9740 C   0  0  0  0  0  2  0  0  0  0  0  0
  160.2200  206.6700  147.2770 O   0  0  0  0  0  0  0  0  0  0  0  0
  161.7070  205.0470  148.1270 C   0  0  2  0  0  3  0  0  0  0  0  0
  161.6000  204.9390  146.7130 O   0  0  0  0  0  0  0  0  0  0  0  0
  160.7390  205.9120  146.2530 C   0  0  0  0  0  0  0  0  0  0  0  0
  160.8610  203.7090  150.0950 C   0  0  0  0  0  3  0  0  0  0  0  0
  161.3540  203.7500  148.7810 C   0  0  0  0  0  0  0  0  0  0  0  0
  161.2560  200.1910  147.9270 F   0  0  0  0  0  0  0  0  0  0  0  0
  160.6490  201.3020  149.9480 C   0  0  0  0  0  3  0  0  0  0  0  0
  161.1420  201.3400  148.6410 C   0  0  0  0  0  0  0  0  0  0  0  0
  160.5110  202.4870  150.6760 C   0  0  0  0  0  3  0  0  0  0  0  0
  161.4890  202.5610  148.0570 C   0  0  0  0  0  3  0  0  0  0  0  0
  158.0640  212.5520  153.2350 C   0  0  0  0  0  2  0  0  0  0  0  0
  157.4370  213.3490  156.8680 C   0  0  0  0  0  2  0  0  0  0  0  0
  155.9520  213.3780  156.4970 C   0  0  0  0  0  0  0  0  0  0  0  0
  155.3510  212.2090  156.9240 F   0  0  0  0  0  0  0  0  0  0  0  0
  156.8040  214.2720  154.4140 O   0  0  0  0  0  0  0  0  0  0  0  0
  158.2660  212.7530  155.7360 C   0  0  0  0  0  2  0  0  0  0  0  0
  158.0010  213.5080  154.4210 C   0  0  1  0  0  3  0  0  0  0  0  0
  155.3540  214.4510  157.1320 F   0  0  0  0  0  0  0  0  0  0  0  0
  155.7600  213.5130  154.9820 C   0  0  0  0  0  2  0  0  0  0  0  0
  1  5  2  0  0  0  0
  1  8  1  0  0  0  0
  2 12  1  1  0  0  0
  2 13  1  0  0  0  0
  3 16  1  0  0  0  0
  3 14  2  0  0  0  0
  4  7  1  0  0  0  0
  4 15  1  0  0  0  0
  5  9  1  0  0  0  0
  6  1  1  0  0  0  0
  8  4  2  0  0  0  0
  9  7  2  0  0  0  0
 10  3  1  0  0  0  0
 11  7  1  6  0  0  0
 11 10  1  0  0  0  0
 11  2  1  0  0  0  0
 13 14  1  0  0  0  0
 13 35  1  6  0  0  0
 15 12  1  0  0  0  0
 16 17  1  1  0  0  0
 18 16  1  0  0  0  0
 19 20  2  0  0  0  0
 19 18  1  0  0  0  0
 21 19  1  0  0  0  0
 22 21  1  6  0  0  0
 23 27  2  0  0  0  0
 24 22  1  0  0  0  0
 25 22  1  0  0  0  0
 25 29  1  1  0  0  0
 26 25  1  0  0  0  0
 27 26  1  0  0  0  0
 27 24  1  0  0  0  0
 28 33  1  0  0  0  0
 29 28  2  0  0  0  0
 30 32  1  0  0  0  0
 31 33  2  0  0  0  0
 32 31  1  0  0  0  0
 34 32  2  0  0  0  0
 34 29  1  0  0  0  0
 37 36  1  0  0  0  0
 37 38  1  0  0  0  0
 37 42  1  0  0  0  0
 39 41  1  0  0  0  0
 39 43  1  0  0  0  0
 40 36  1  0  0  0  0
 41 35  1  6  0  0  0
 41 40  1  0  0  0  0
 43 37  1  0  0  0  0
M  END
>  <MODEL>
3

>  <REMARK>
 VINA RESULT:      -8.7      4.067     10.081
  Name = 
  8 active torsions:
  status: ('A' for Active; 'I' for Inactive)
    1  A    between atoms: C_1  and  C_34
    2  A    between atoms: C_1  and  C_35
    3  A    between atoms: C_2  and  N_6
    4  A    between atoms: C_2  and  C_13
    5  A    between atoms: N_3  and  C_4
    6  A    between atoms: N_3  and  C_12
    7  A    between atoms: N_6  and  C_12
    8  A    between atoms: C_14  and  C_22
                            x       y       z     vdW  Elec       q    Type
                         _______ _______ _______ _____ _____    ______ ____

>  <TORSDO>
F 8

$$$$
=
 OpenBabel11062410013D

 43 48  0  0  1  0  0  0  0  0999 V2000
  161.4550  203.8820  146.7800 C   0  0  0  0  0  0  0  0  0  0  0  0
  161.2730  206.0510  151.3900 C   0  0  2  0  0  3  0  0  0  0  0  0
  161.4100  208.8010  150.8990 C   0  0  0  0  0  0  0  0  0  0  0  0
  161.2290  204.2640  149.1640 C   0  0  0  0  0  0  0  0  0  0  0  0
  161.2570  205.2430  146.5370 C   0  0  0  0  0  3  0  0  0  0  0  0
  161.6590  203.0320  145.7450 F   0  0  0  0  0  0  0  0  0  0  0  0
  161.0640  205.6500  148.9230 C   0  0  0  0  0  0  0  0  0  0  0  0
  161.4440  203.3950  148.0900 C   0  0  0  0  0  3  0  0  0  0  0  0
  161.0530  206.1220  147.6030 C   0  0  0  0  0  3  0  0  0  0  0  0
  161.2780  207.8950  149.8390 O   0  0  0  0  0  0  0  0  0  0  0  0
  160.7540  206.5870  150.0610 C   0  0  2  0  0  3  0  0  0  0  0  0
  160.6960  204.6560  151.6050 C   0  0  0  0  0  2  0  0  0  0  0  0
  160.8570  207.0310  152.4870 C   0  0  2  0  0  3  0  0  0  0  0  0
  161.2290  208.4030  152.1280 N   0  0  0  0  0  0  0  0  0  0  0  0
  161.2880  203.7060  150.5650 C   0  0  0  0  0  2  0  0  0  0  0  0
  161.7670  210.2220  150.5990 C   0  0  1  0  0  3  0  0  0  0  0  0
  162.9530  210.6350  151.4510 C   0  0  0  0  0  1  0  0  0  0  0  0
  162.0830  210.3900  149.1850 N   0  0  0  0  0  2  0  0  0  0  0  0
  162.0700  211.6580  148.5270 C   0  0  0  0  0  0  0  0  0  0  0  0
  163.4950  212.2750  148.0040 S   0  0  0  0  0  0  0  0  0  0  0  0
  160.8250  212.3500  148.3300 N   0  0  0  0  0  2  0  0  0  0  0  0
  160.0430  212.4390  147.1000 C   0  0  1  0  0  3  0  0  0  0  0  0
  156.9560  214.1430  146.7330 C   0  0  0  0  0  2  0  0  0  0  0  0
  158.6600  212.6090  147.3830 O   0  0  0  0  0  0  0  0  0  0  0  0
  160.4400  213.6600  146.2460 C   0  0  2  0  0  3  0  0  0  0  0  0
  159.2180  214.3500  146.0140 O   0  0  0  0  0  0  0  0  0  0  0  0
  158.2080  213.7190  146.7060 C   0  0  0  0  0  0  0  0  0  0  0  0
  162.3840  213.5880  144.6350 C   0  0  0  0  0  3  0  0  0  0  0  0
  161.0610  213.2410  144.9520 C   0  0  0  0  0  0  0  0  0  0  0  0
  160.1670  211.2700  142.0000 F   0  0  0  0  0  0  0  0  0  0  0  0
  162.2040  212.3840  142.5420 C   0  0  0  0  0  3  0  0  0  0  0  0
  160.8860  212.0400  142.8540 C   0  0  0  0  0  0  0  0  0  0  0  0
  162.9530  213.1610  143.4320 C   0  0  0  0  0  3  0  0  0  0  0  0
  160.3180  212.4640  144.0580 C   0  0  0  0  0  3  0  0  0  0  0  0
  161.5200  206.6550  153.8050 C   0  0  0  0  0  2  0  0  0  0  0  0
  159.5610  209.3430  155.5850 C   0  0  0  0  0  2  0  0  0  0  0  0
  160.9200  209.9500  155.9440 C   0  0  0  0  0  0  0  0  0  0  0  0
  161.1640  211.0390  155.1280 F   0  0  0  0  0  0  0  0  0  0  0  0
  161.5890  207.6240  156.0400 O   0  0  0  0  0  0  0  0  0  0  0  0
  159.7150  208.2560  154.5290 C   0  0  0  0  0  2  0  0  0  0  0  0
  160.7300  207.1950  154.9930 C   0  0  1  0  0  3  0  0  0  0  0  0
  160.8880  210.3700  157.2600 F   0  0  0  0  0  0  0  0  0  0  0  0
  162.0490  208.9280  155.7640 C   0  0  0  0  0  2  0  0  0  0  0  0
  1  8  1  0  0  0  0
  2 12  1  1  0  0  0
  2 13  1  0  0  0  0
  3 14  2  0  0  0  0
  4 15  1  0  0  0  0
  5  1  2  0  0  0  0
  5  9  1  0  0  0  0
  6  1  1  0  0  0  0
  7  4  1  0  0  0  0
  8  4  2  0  0  0  0
  9  7  2  0  0  0  0
 10 11  1  0  0  0  0
 10  3  1  0  0  0  0
 11  7  1  6  0  0  0
 11  2  1  0  0  0  0
 13 35  1  1  0  0  0
 14 13  1  0  0  0  0
 15 12  1  0  0  0  0
 16  3  1  0  0  0  0
 16 17  1  1  0  0  0
 18 16  1  0  0  0  0
 19 18  1  0  0  0  0
 20 19  2  0  0  0  0
 21 19  1  0  0  0  0
 22 24  1  0  0  0  0
 22 21  1  1  0  0  0
 25 29  1  6  0  0  0
 25 22  1  0  0  0  0
 26 25  1  0  0  0  0
 26 27  1  0  0  0  0
 27 23  2  0  0  0  0
 27 24  1  0  0  0  0
 28 29  1  0  0  0  0
 30 32  1  0  0  0  0
 31 32  2  0  0  0  0
 31 33  1  0  0  0  0
 32 34  1  0  0  0  0
 33 28  2  0  0  0  0
 34 29  2  0  0  0  0
 36 37  1  0  0  0  0
 37 42  1  0  0  0  0
 38 37  1  0  0  0  0
 40 41  1  0  0  0  0
 40 36  1  0  0  0  0
 41 35  1  6  0  0  0
 41 39  1  0  0  0  0
 43 37  1  0  0  0  0
 43 39  1  0  0  0  0
M  END
>  <MODEL>
4

>  <REMARK>
 VINA RESULT:      -8.7      2.107      6.663
  Name = 
  8 active torsions:
  status: ('A' for Active; 'I' for Inactive)
    1  A    between atoms: C_1  and  C_34
    2  A    between atoms: C_1  and  C_35
    3  A    between atoms: C_2  and  N_6
    4  A    between atoms: C_2  and  C_13
    5  A    between atoms: N_3  and  C_4
    6  A    between atoms: N_3  and  C_12
    7  A    between atoms: N_6  and  C_12
    8  A    between atoms: C_14  and  C_22
                            x       y       z     vdW  Elec       q    Type
                         _______ _______ _______ _____ _____    ______ ____

>  <TORSDO>
F 8

$$$$
=
 OpenBabel11062410013D

 43 48  0  0  1  0  0  0  0  0999 V2000
  161.1910  203.5190  150.6600 C   0  0  0  0  0  0  0  0  0  0  0  0
  161.3690  208.0250  153.0370 C   0  0  2  0  0  3  0  0  0  0  0  0
  161.6070  209.9130  150.9870 C   0  0  0  0  0  0  0  0  0  0  0  0
  161.1170  205.2690  152.3370 C   0  0  0  0  0  0  0  0  0  0  0  0
  161.0430  204.4710  149.6500 C   0  0  0  0  0  3  0  0  0  0  0  0
  161.2970  202.2060  150.3420 F   0  0  0  0  0  0  0  0  0  0  0  0
  161.0040  206.2410  151.3120 C   0  0  0  0  0  0  0  0  0  0  0  0
  161.2310  203.9160  151.9990 C   0  0  0  0  0  3  0  0  0  0  0  0
  160.9400  205.8260  149.9750 C   0  0  0  0  0  3  0  0  0  0  0  0
  161.3740  208.5650  150.6880 O   0  0  0  0  0  0  0  0  0  0  0  0
  160.8020  207.6920  151.6610 C   0  0  2  0  0  3  0  0  0  0  0  0
  160.7420  207.0830  154.0580 C   0  0  0  0  0  2  0  0  0  0  0  0
  161.0620  209.4940  153.3300 C   0  0  2  0  0  3  0  0  0  0  0  0
  161.4770  210.3460  152.2100 N   0  0  0  0  0  0  0  0  0  0  0  0
  161.2290  205.6610  153.7900 C   0  0  0  0  0  2  0  0  0  0  0  0
  162.0120  210.8400  149.8860 C   0  0  1  0  0  3  0  0  0  0  0  0
  162.2860  210.0390  148.6260 C   0  0  0  0  0  1  0  0  0  0  0  0
  160.9720  211.8310  149.6320 N   0  0  0  0  0  2  0  0  0  0  0  0
  161.1510  212.9450  148.7580 C   0  0  0  0  0  0  0  0  0  0  0  0
  161.0700  214.4530  149.3950 S   0  0  0  0  0  0  0  0  0  0  0  0
  161.4080  212.7260  147.3600 N   0  0  0  0  0  2  0  0  0  0  0  0
  160.4390  212.3800  146.3230 C   0  0  1  0  0  3  0  0  0  0  0  0
  157.0050  213.2580  146.3290 C   0  0  0  0  0  2  0  0  0  0  0  0
  159.1240  212.3030  146.8570 O   0  0  0  0  0  0  0  0  0  0  0  0
  160.3700  213.4490  145.2130 C   0  0  2  0  0  3  0  0  0  0  0  0
  158.9930  213.7930  145.1300 O   0  0  0  0  0  0  0  0  0  0  0  0
  158.3010  213.1190  146.1130 C   0  0  0  0  0  0  0  0  0  0  0  0
  162.2230  212.9220  143.5800 C   0  0  0  0  0  3  0  0  0  0  0  0
  160.8570  212.9100  143.9070 C   0  0  0  0  0  0  0  0  0  0  0  0
  159.4790  211.2720  140.9370 F   0  0  0  0  0  0  0  0  0  0  0  0
  161.7340  211.8350  141.4720 C   0  0  0  0  0  3  0  0  0  0  0  0
  160.3740  211.8250  141.7950 C   0  0  0  0  0  0  0  0  0  0  0  0
  162.6580  212.3870  142.3650 C   0  0  0  0  0  3  0  0  0  0  0  0
  159.9370  212.3570  143.0110 C   0  0  0  0  0  3  0  0  0  0  0  0
  161.7800  209.9380  154.5970 C   0  0  0  0  0  2  0  0  0  0  0  0
  158.3240  210.8820  155.7780 C   0  0  0  0  0  2  0  0  0  0  0  0
  158.6080  212.2600  155.1750 C   0  0  0  0  0  0  0  0  0  0  0  0
  157.9400  212.3780  153.9700 F   0  0  0  0  0  0  0  0  0  0  0  0
  160.8650  211.7770  155.9070 O   0  0  0  0  0  0  0  0  0  0  0  0
  159.3730  209.8700  155.3340 C   0  0  0  0  0  2  0  0  0  0  0  0
  160.7870  210.3790  155.6660 C   0  0  1  0  0  3  0  0  0  0  0  0
  158.1470  213.2310  156.0430 F   0  0  0  0  0  0  0  0  0  0  0  0
  160.1090  212.4630  154.9340 C   0  0  0  0  0  2  0  0  0  0  0  0
  1  8  1  0  0  0  0
  2 13  1  0  0  0  0
  2 12  1  1  0  0  0
  3 14  2  0  0  0  0
  4 15  1  0  0  0  0
  5  9  1  0  0  0  0
  5  1  2  0  0  0  0
  6  1  1  0  0  0  0
  7 11  1  0  0  0  0
  7  4  1  0  0  0  0
  8  4  2  0  0  0  0
  9  7  2  0  0  0  0
 10  3  1  0  0  0  0
 11 10  1  6  0  0  0
 11  2  1  0  0  0  0
 13 35  1  1  0  0  0
 14 13  1  0  0  0  0
 15 12  1  0  0  0  0
 16 17  1  6  0  0  0
 16  3  1  0  0  0  0
 18 16  1  0  0  0  0
 19 20  2  0  0  0  0
 19 18  1  0  0  0  0
 21 19  1  0  0  0  0
 22 24  1  0  0  0  0
 22 21  1  1  0  0  0
 25 29  1  6  0  0  0
 25 22  1  0  0  0  0
 26 25  1  0  0  0  0
 26 27  1  0  0  0  0
 27 23  2  0  0  0  0
 27 24  1  0  0  0  0
 28 29  1  0  0  0  0
 30 32  1  0  0  0  0
 31 32  2  0  0  0  0
 31 33  1  0  0  0  0
 32 34  1  0  0  0  0
 33 28  2  0  0  0  0
 34 29  2  0  0  0  0
 37 36  1  0  0  0  0
 37 42  1  0  0  0  0
 38 37  1  0  0  0  0
 40 41  1  0  0  0  0
 40 36  1  0  0  0  0
 41 35  1  6  0  0  0
 41 39  1  0  0  0  0
 43 37  1  0  0  0  0
 43 39  1  0  0  0  0
M  END
>  <MODEL>
5

>  <REMARK>
 VINA RESULT:      -8.6      2.574      6.435
  Name = 
  8 active torsions:
  status: ('A' for Active; 'I' for Inactive)
    1  A    between atoms: C_1  and  C_34
    2  A    between atoms: C_1  and  C_35
    3  A    between atoms: C_2  and  N_6
    4  A    between atoms: C_2  and  C_13
    5  A    between atoms: N_3  and  C_4
    6  A    between atoms: N_3  and  C_12
    7  A    between atoms: N_6  and  C_12
    8  A    between atoms: C_14  and  C_22
                            x       y       z     vdW  Elec       q    Type
                         _______ _______ _______ _____ _____    ______ ____

>  <TORSDO>
F 8

$$$$
=
 OpenBabel11062410013D

 43 48  0  0  1  0  0  0  0  0999 V2000
  161.2240  201.4420  148.2730 C   0  0  0  0  0  0  0  0  0  0  0  0
  161.2450  205.1180  151.8050 C   0  0  2  0  0  3  0  0  0  0  0  0
  161.7250  207.4790  150.3860 C   0  0  0  0  0  0  0  0  0  0  0  0
  161.0130  202.6720  150.3530 C   0  0  0  0  0  0  0  0  0  0  0  0
  161.1970  202.6400  147.5550 C   0  0  0  0  0  3  0  0  0  0  0  0
  161.3360  200.2620  147.6170 F   0  0  0  0  0  0  0  0  0  0  0  0
  161.0230  203.8900  149.6300 C   0  0  0  0  0  0  0  0  0  0  0  0
  161.1350  201.4580  149.6680 C   0  0  0  0  0  3  0  0  0  0  0  0
  161.0880  203.8580  148.2300 C   0  0  0  0  0  3  0  0  0  0  0  0
  161.4980  206.2760  149.7070 O   0  0  0  0  0  0  0  0  0  0  0  0
  160.8140  205.1990  150.3450 C   0  0  2  0  0  3  0  0  0  0  0  0
  160.4980  203.9640  152.4650 C   0  0  0  0  0  2  0  0  0  0  0  0
  160.9370  206.4650  152.4620 C   0  0  2  0  0  3  0  0  0  0  0  0
  161.4790  207.5690  151.6630 N   0  0  0  0  0  0  0  0  0  0  0  0
  160.9840  202.6470  151.8620 C   0  0  0  0  0  2  0  0  0  0  0  0
  162.2580  208.6520  149.6250 C   0  0  1  0  0  3  0  0  0  0  0  0
  162.6690  208.2070  148.2340 C   0  0  0  0  0  1  0  0  0  0  0  0
  161.2590  209.7110  149.5370 N   0  0  0  0  0  2  0  0  0  0  0  0
  161.5160  211.0610  149.9250 C   0  0  0  0  0  0  0  0  0  0  0  0
  162.2100  212.0640  148.8290 S   0  0  0  0  0  0  0  0  0  0  0  0
  161.1560  211.5100  151.2420 N   0  0  0  0  0  2  0  0  0  0  0  0
  160.2380  212.5910  151.5930 C   0  0  1  0  0  3  0  0  0  0  0  0
  158.0760  214.2750  149.3430 C   0  0  0  0  0  2  0  0  0  0  0  0
  159.9990  213.4410  150.4780 O   0  0  0  0  0  0  0  0  0  0  0  0
  158.8500  212.0610  152.0100 C   0  0  2  0  0  3  0  0  0  0  0  0
  157.9340  212.7580  151.1740 O   0  0  0  0  0  0  0  0  0  0  0  0
  158.6400  213.5370  150.2840 C   0  0  0  0  0  0  0  0  0  0  0  0
  159.5130  213.0010  154.2580 C   0  0  0  0  0  3  0  0  0  0  0  0
  158.5700  212.3460  153.4500 C   0  0  0  0  0  0  0  0  0  0  0  0
  155.8310  211.9190  155.8420 F   0  0  0  0  0  0  0  0  0  0  0  0
  157.9790  212.9130  156.1300 C   0  0  0  0  0  3  0  0  0  0  0  0
  157.0410  212.2590  155.3280 C   0  0  0  0  0  0  0  0  0  0  0  0
  159.2180  213.2820  155.5950 C   0  0  0  0  0  3  0  0  0  0  0  0
  157.3330  211.9800  153.9900 C   0  0  0  0  0  3  0  0  0  0  0  0
  161.5300  206.5130  153.8630 C   0  0  0  0  0  2  0  0  0  0  0  0
  159.9220  209.6440  155.2200 C   0  0  0  0  0  2  0  0  0  0  0  0
  161.2370  209.8680  155.9720 C   0  0  0  0  0  0  0  0  0  0  0  0
  161.9730  210.8440  155.3260 F   0  0  0  0  0  0  0  0  0  0  0  0
  161.2240  207.4490  156.0920 O   0  0  0  0  0  0  0  0  0  0  0  0
  160.0760  208.5450  154.1750 C   0  0  0  0  0  2  0  0  0  0  0  0
  160.6100  207.2560  154.8250 C   0  0  1  0  0  3  0  0  0  0  0  0
  160.9500  210.2940  157.2550 F   0  0  0  0  0  0  0  0  0  0  0  0
  162.0660  208.5790  156.0370 C   0  0  0  0  0  2  0  0  0  0  0  0
  1  8  1  0  0  0  0
  2 13  1  0  0  0  0
  2 12  1  1  0  0  0
  3 14  2  0  0  0  0
  4 15  1  0  0  0  0
  5  9  1  0  0  0  0
  5  1  2  0  0  0  0
  6  1  1  0  0  0  0
  7  4  1  0  0  0  0
  8  4  2  0  0  0  0
  9  7  2  0  0  0  0
 10 11  1  0  0  0  0
 10  3  1  0  0  0  0
 11  7  1  6  0  0  0
 11  2  1  0  0  0  0
 13 35  1  1  0  0  0
 14 13  1  0  0  0  0
 15 12  1  0  0  0  0
 16 17  1  6  0  0  0
 16  3  1  0  0  0  0
 18 16  1  0  0  0  0
 18 19  1  0  0  0  0
 19 21  1  0  0  0  0
 20 19  2  0  0  0  0
 22 21  1  6  0  0  0
 22 25  1  0  0  0  0
 23 27  2  0  0  0  0
 24 22  1  0  0  0  0
 25 29  1  1  0  0  0
 26 25  1  0  0  0  0
 27 24  1  0  0  0  0
 27 26  1  0  0  0  0
 28 33  1  0  0  0  0
 29 34  1  0  0  0  0
 29 28  2  0  0  0  0
 32 30  1  0  0  0  0
 32 31  1  0  0  0  0
 33 31  2  0  0  0  0
 34 32  2  0  0  0  0
 36 37  1  0  0  0  0
 37 43  1  0  0  0  0
 37 42  1  0  0  0  0
 38 37  1  0  0  0  0
 40 41  1  0  0  0  0
 40 36  1  0  0  0  0
 41 35  1  6  0  0  0
 41 39  1  0  0  0  0
 43 39  1  0  0  0  0
M  END
>  <MODEL>
6

>  <REMARK>
 VINA RESULT:      -8.3      5.026      9.231
  Name = 
  8 active torsions:
  status: ('A' for Active; 'I' for Inactive)
    1  A    between atoms: C_1  and  C_34
    2  A    between atoms: C_1  and  C_35
    3  A    between atoms: C_2  and  N_6
    4  A    between atoms: C_2  and  C_13
    5  A    between atoms: N_3  and  C_4
    6  A    between atoms: N_3  and  C_12
    7  A    between atoms: N_6  and  C_12
    8  A    between atoms: C_14  and  C_22
                            x       y       z     vdW  Elec       q    Type
                         _______ _______ _______ _____ _____    ______ ____

>  <TORSDO>
F 8

$$$$
=
 OpenBabel11062410013D

 43 48  0  0  1  0  0  0  0  0999 V2000
  161.5200  204.5250  147.5620 C   0  0  0  0  0  0  0  0  0  0  0  0
  161.8750  208.4130  150.8400 C   0  0  2  0  0  3  0  0  0  0  0  0
  161.9550  210.7030  149.2370 C   0  0  0  0  0  0  0  0  0  0  0  0
  161.5720  205.8700  149.5790 C   0  0  0  0  0  0  0  0  0  0  0  0
  161.2950  205.6710  146.7960 C   0  0  0  0  0  3  0  0  0  0  0  0
  161.6020  203.3150  146.9590 F   0  0  0  0  0  0  0  0  0  0  0  0
  161.3810  207.0380  148.8010 C   0  0  0  0  0  0  0  0  0  0  0  0
  161.6610  204.6240  148.9490 C   0  0  0  0  0  3  0  0  0  0  0  0
  161.2160  206.9220  147.4140 C   0  0  0  0  0  3  0  0  0  0  0  0
  161.7010  209.4480  148.6710 O   0  0  0  0  0  0  0  0  0  0  0  0
  161.2050  208.3760  149.4710 C   0  0  2  0  0  3  0  0  0  0  0  0
  161.3270  207.2620  151.6760 C   0  0  0  0  0  2  0  0  0  0  0  0
  161.5890  209.7780  151.4670 C   0  0  2  0  0  3  0  0  0  0  0  0
  161.9170  210.8590  150.5310 N   0  0  0  0  0  0  0  0  0  0  0  0
  161.7930  205.9390  151.0710 C   0  0  0  0  0  2  0  0  0  0  0  0
  162.2750  211.8540  148.3370 C   0  0  1  0  0  3  0  0  0  0  0  0
  163.7170  211.7480  147.8760 C   0  0  0  0  0  1  0  0  0  0  0  0
  161.3810  211.8750  147.1840 N   0  0  0  0  0  2  0  0  0  0  0  0
  160.3660  212.8620  147.0010 C   0  0  0  0  0  0  0  0  0  0  0  0
  159.9440  213.7880  148.2860 S   0  0  0  0  0  0  0  0  0  0  0  0
  159.7540  213.0310  145.7110 N   0  0  0  0  0  2  0  0  0  0  0  0
  160.3880  213.5010  144.4810 C   0  0  1  0  0  3  0  0  0  0  0  0
  163.8480  214.1450  144.0570 C   0  0  0  0  0  2  0  0  0  0  0  0
  161.5730  214.2320  144.7640 O   0  0  0  0  0  0  0  0  0  0  0  0
  160.8310  212.3340  143.5750 C   0  0  2  0  0  3  0  0  0  0  0  0
  162.2090  212.5800  143.3200 O   0  0  0  0  0  0  0  0  0  0  0  0
  162.6090  213.6830  144.0430 C   0  0  0  0  0  0  0  0  0  0  0  0
  158.9530  213.1580  142.1030 C   0  0  0  0  0  3  0  0  0  0  0  0
  160.0560  212.3120  142.2970 C   0  0  0  0  0  0  0  0  0  0  0  0
  160.1700  210.6160  139.0550 F   0  0  0  0  0  0  0  0  0  0  0  0
  158.6670  212.2810  139.8640 C   0  0  0  0  0  3  0  0  0  0  0  0
  159.7630  211.4360  140.0570 C   0  0  0  0  0  0  0  0  0  0  0  0
  158.2600  213.1410  140.8890 C   0  0  0  0  0  3  0  0  0  0  0  0
  160.4580  211.4550  141.2680 C   0  0  0  0  0  3  0  0  0  0  0  0
  162.4010  209.9490  152.7440 C   0  0  0  0  0  2  0  0  0  0  0  0
  161.5980  210.3490  156.4080 C   0  0  0  0  0  2  0  0  0  0  0  0
  161.0870  208.9070  156.3460 C   0  0  0  0  0  0  0  0  0  0  0  0
  162.0250  208.0660  156.9150 F   0  0  0  0  0  0  0  0  0  0  0  0
  160.4220  209.5620  154.1110 O   0  0  0  0  0  0  0  0  0  0  0  0
  162.3770  210.7020  155.1460 C   0  0  0  0  0  2  0  0  0  0  0  0
  161.5240  210.4320  153.8930 C   0  0  1  0  0  3  0  0  0  0  0  0
  159.9080  208.8200  157.0630 F   0  0  0  0  0  0  0  0  0  0  0  0
  160.8370  208.4680  154.8980 C   0  0  0  0  0  2  0  0  0  0  0  0
  1  8  1  0  0  0  0
  2 13  1  0  0  0  0
  2 12  1  1  0  0  0
  3 14  2  0  0  0  0
  4 15  1  0  0  0  0
  5  9  1  0  0  0  0
  5  1  2  0  0  0  0
  6  1  1  0  0  0  0
  7 11  1  0  0  0  0
  7  4  1  0  0  0  0
  8  4  2  0  0  0  0
  9  7  2  0  0  0  0
 10  3  1  0  0  0  0
 11 10  1  6  0  0  0
 11  2  1  0  0  0  0
 13 35  1  1  0  0  0
 14 13  1  0  0  0  0
 15 12  1  0  0  0  0
 16 17  1  6  0  0  0
 16  3  1  0  0  0  0
 18 16  1  0  0  0  0
 19 18  1  0  0  0  0
 19 20  2  0  0  0  0
 21 19  1  0  0  0  0
 22 24  1  0  0  0  0
 22 21  1  1  0  0  0
 25 29  1  6  0  0  0
 25 22  1  0  0  0  0
 26 25  1  0  0  0  0
 26 27  1  0  0  0  0
 27 23  2  0  0  0  0
 27 24  1  0  0  0  0
 28 29  1  0  0  0  0
 30 32  1  0  0  0  0
 31 32  2  0  0  0  0
 31 33  1  0  0  0  0
 32 34  1  0  0  0  0
 33 28  2  0  0  0  0
 34 29  2  0  0  0  0
 37 36  1  0  0  0  0
 37 38  1  0  0  0  0
 37 42  1  0  0  0  0
 39 43  1  0  0  0  0
 40 36  1  0  0  0  0
 41 35  1  6  0  0  0
 41 39  1  0  0  0  0
 41 40  1  0  0  0  0
 43 37  1  0  0  0  0
M  END
>  <MODEL>
7

>  <REMARK>
 VINA RESULT:      -8.3      1.179      5.819
  Name = 
  8 active torsions:
  status: ('A' for Active; 'I' for Inactive)
    1  A    between atoms: C_1  and  C_34
    2  A    between atoms: C_1  and  C_35
    3  A    between atoms: C_2  and  N_6
    4  A    between atoms: C_2  and  C_13
    5  A    between atoms: N_3  and  C_4
    6  A    between atoms: N_3  and  C_12
    7  A    between atoms: N_6  and  C_12
    8  A    between atoms: C_14  and  C_22
                            x       y       z     vdW  Elec       q    Type
                         _______ _______ _______ _____ _____    ______ ____

>  <TORSDO>
F 8

$$$$
=
 OpenBabel11062410013D

 43 48  0  0  1  0  0  0  0  0999 V2000
  160.5280  213.2470  146.9860 C   0  0  0  0  0  0  0  0  0  0  0  0
  159.9160  212.6290  152.0090 C   0  0  2  0  0  3  0  0  0  0  0  0
  161.0260  210.1240  152.5680 C   0  0  0  0  0  0  0  0  0  0  0  0
  160.0400  213.6150  149.3330 C   0  0  0  0  0  0  0  0  0  0  0  0
  161.3050  212.1350  147.3160 C   0  0  0  0  0  3  0  0  0  0  0  0
  160.3870  213.6140  145.6900 F   0  0  0  0  0  0  0  0  0  0  0  0
  160.7980  212.4650  149.6670 C   0  0  0  0  0  0  0  0  0  0  0  0
  159.8950  213.9830  147.9920 C   0  0  0  0  0  3  0  0  0  0  0  0
  161.4470  211.7510  148.6510 C   0  0  0  0  0  3  0  0  0  0  0  0
  161.1590  210.6920  151.2950 O   0  0  0  0  0  0  0  0  0  0  0  0
  161.0280  212.1010  151.1100 C   0  0  2  0  0  3  0  0  0  0  0  0
  159.7980  214.1340  151.7960 C   0  0  0  0  0  2  0  0  0  0  0  0
  160.2670  212.2690  153.4530 C   0  0  2  0  0  3  0  0  0  0  0  0
  160.6010  210.8460  153.5680 N   0  0  0  0  0  0  0  0  0  0  0  0
  159.2880  214.3990  150.3810 C   0  0  0  0  0  2  0  0  0  0  0  0
  161.3710  208.6810  152.7580 C   0  0  1  0  0  3  0  0  0  0  0  0
  160.8340  208.2050  154.0950 C   0  0  0  0  0  1  0  0  0  0  0  0
  160.8190  207.8690  151.6790 N   0  0  0  0  0  2  0  0  0  0  0  0
  161.5930  206.9270  150.9360 C   0  0  0  0  0  0  0  0  0  0  0  0
  162.5300  205.8670  151.7660 S   0  0  0  0  0  0  0  0  0  0  0  0
  161.5270  206.9180  149.5000 N   0  0  0  0  0  2  0  0  0  0  0  0
  160.8330  205.9550  148.6480 C   0  0  1  0  0  3  0  0  0  0  0  0
  160.4580  206.2030  145.1320 C   0  0  0  0  0  2  0  0  0  0  0  0
  160.3190  206.5830  147.4810 O   0  0  0  0  0  0  0  0  0  0  0  0
  161.7760  204.8470  148.1380 C   0  0  2  0  0  3  0  0  0  0  0  0
  161.6150  204.8610  146.7240 O   0  0  0  0  0  0  0  0  0  0  0  0
  160.7740  205.8960  146.3780 C   0  0  0  0  0  0  0  0  0  0  0  0
  160.8550  203.3920  149.9840 C   0  0  0  0  0  3  0  0  0  0  0  0
  161.4000  203.5120  148.6960 C   0  0  0  0  0  0  0  0  0  0  0  0
  161.3440  200.0130  147.6230 F   0  0  0  0  0  0  0  0  0  0  0  0
  160.6540  200.9980  149.6820 C   0  0  0  0  0  3  0  0  0  0  0  0
  161.1980  201.1160  148.4010 C   0  0  0  0  0  0  0  0  0  0  0  0
  160.4850  202.1370  150.4760 C   0  0  0  0  0  3  0  0  0  0  0  0
  161.5660  202.3700  147.9070 C   0  0  0  0  0  3  0  0  0  0  0  0
  159.0980  212.5910  154.3740 C   0  0  0  0  0  2  0  0  0  0  0  0
  155.5840  211.2340  154.5790 C   0  0  0  0  0  2  0  0  0  0  0  0
  155.7070  211.4360  156.0920 C   0  0  0  0  0  0  0  0  0  0  0  0
  155.0070  212.5700  156.4600 F   0  0  0  0  0  0  0  0  0  0  0  0
  158.0160  210.8390  155.6760 O   0  0  0  0  0  0  0  0  0  0  0  0
  156.7270  211.9270  153.8460 C   0  0  0  0  0  2  0  0  0  0  0  0
  158.0850  211.4520  154.3970 C   0  0  1  0  0  3  0  0  0  0  0  0
  155.1600  210.3400  156.7340 F   0  0  0  0  0  0  0  0  0  0  0  0
  157.1720  211.5950  156.5140 C   0  0  0  0  0  2  0  0  0  0  0  0
  1  5  2  0  0  0  0
  1  8  1  0  0  0  0
  2 12  1  1  0  0  0
  2 13  1  0  0  0  0
  3 16  1  0  0  0  0
  3 14  2  0  0  0  0
  4  7  1  0  0  0  0
  4 15  1  0  0  0  0
  5  9  1  0  0  0  0
  6  1  1  0  0  0  0
  8  4  2  0  0  0  0
  9  7  2  0  0  0  0
 10  3  1  0  0  0  0
 11  7  1  6  0  0  0
 11 10  1  0  0  0  0
 11  2  1  0  0  0  0
 13 14  1  0  0  0  0
 13 35  1  1  0  0  0
 15 12  1  0  0  0  0
 16 17  1  1  0  0  0
 18 16  1  0  0  0  0
 19 18  1  0  0  0  0
 19 20  2  0  0  0  0
 21 19  1  0  0  0  0
 22 21  1  1  0  0  0
 23 27  2  0  0  0  0
 24 22  1  0  0  0  0
 25 22  1  0  0  0  0
 25 29  1  1  0  0  0
 26 25  1  0  0  0  0
 27 26  1  0  0  0  0
 27 24  1  0  0  0  0
 28 33  1  0  0  0  0
 29 28  2  0  0  0  0
 30 32  1  0  0  0  0
 31 33  2  0  0  0  0
 32 31  1  0  0  0  0
 34 32  2  0  0  0  0
 34 29  1  0  0  0  0
 36 37  1  0  0  0  0
 37 38  1  0  0  0  0
 37 43  1  0  0  0  0
 37 42  1  0  0  0  0
 39 43  1  0  0  0  0
 40 41  1  0  0  0  0
 40 36  1  0  0  0  0
 41 35  1  1  0  0  0
 41 39  1  0  0  0  0
M  END
>  <MODEL>
8

>  <REMARK>
 VINA RESULT:      -8.2      4.207      9.736
  Name = 
  8 active torsions:
  status: ('A' for Active; 'I' for Inactive)
    1  A    between atoms: C_1  and  C_34
    2  A    between atoms: C_1  and  C_35
    3  A    between atoms: C_2  and  N_6
    4  A    between atoms: C_2  and  C_13
    5  A    between atoms: N_3  and  C_4
    6  A    between atoms: N_3  and  C_12
    7  A    between atoms: N_6  and  C_12
    8  A    between atoms: C_14  and  C_22
                            x       y       z     vdW  Elec       q    Type
                         _______ _______ _______ _____ _____    ______ ____

>  <TORSDO>
F 8

$$$$
=
 OpenBabel11062410013D

 43 48  0  0  1  0  0  0  0  0999 V2000
  161.0010  202.8920  150.0360 C   0  0  0  0  0  0  0  0  0  0  0  0
  161.4020  207.2370  152.6720 C   0  0  2  0  0  3  0  0  0  0  0  0
  161.7030  209.2310  150.7350 C   0  0  0  0  0  0  0  0  0  0  0  0
  161.0210  204.5410  151.8140 C   0  0  0  0  0  0  0  0  0  0  0  0
  160.8850  203.9090  149.0860 C   0  0  0  0  0  3  0  0  0  0  0  0
  161.0450  201.5980  149.6400 F   0  0  0  0  0  0  0  0  0  0  0  0
  160.9410  205.5760  150.8500 C   0  0  0  0  0  0  0  0  0  0  0  0
  161.0710  203.2080  151.3960 C   0  0  0  0  0  3  0  0  0  0  0  0
  160.8460  205.2450  149.4910 C   0  0  0  0  0  3  0  0  0  0  0  0
  161.4080  207.9150  150.3600 O   0  0  0  0  0  0  0  0  0  0  0  0
  160.8070  207.0120  151.2870 C   0  0  2  0  0  3  0  0  0  0  0  0
  160.7420  206.2650  153.6440 C   0  0  0  0  0  2  0  0  0  0  0  0
  161.1620  208.6980  153.0550 C   0  0  2  0  0  3  0  0  0  0  0  0
  161.6040  209.5960  151.9830 N   0  0  0  0  0  0  0  0  0  0  0  0
  161.1640  204.8410  153.2860 C   0  0  0  0  0  2  0  0  0  0  0  0
  162.1390  210.2040  149.6850 C   0  0  1  0  0  3  0  0  0  0  0  0
  161.7330  209.6870  148.3170 C   0  0  0  0  0  1  0  0  0  0  0  0
  161.5500  211.5180  149.9190 N   0  0  0  0  0  2  0  0  0  0  0  0
  161.6450  212.5940  148.9850 C   0  0  0  0  0  0  0  0  0  0  0  0
  162.5730  212.3820  147.6510 S   0  0  0  0  0  0  0  0  0  0  0  0
  160.9260  213.8160  149.2230 N   0  0  0  0  0  2  0  0  0  0  0  0
  159.6480  214.2230  148.6440 C   0  0  1  0  0  3  0  0  0  0  0  0
  158.6440  213.6990  145.2850 C   0  0  0  0  0  2  0  0  0  0  0  0
  159.7700  214.4510  147.2460 O   0  0  0  0  0  0  0  0  0  0  0  0
  158.5710  213.1290  148.7890 C   0  0  2  0  0  3  0  0  0  0  0  0
  158.0860  212.9240  147.4670 O   0  0  0  0  0  0  0  0  0  0  0  0
  158.8200  213.6980  146.5950 C   0  0  0  0  0  0  0  0  0  0  0  0
  157.7040  213.8600  151.0450 C   0  0  0  0  0  3  0  0  0  0  0  0
  157.4650  213.5710  149.6920 C   0  0  0  0  0  0  0  0  0  0  0  0
  153.8910  214.3320  149.4720 F   0  0  0  0  0  0  0  0  0  0  0  0
  155.3740  214.4530  151.3350 C   0  0  0  0  0  3  0  0  0  0  0  0
  155.1340  214.1630  149.9900 C   0  0  0  0  0  0  0  0  0  0  0  0
  156.6600  214.2990  151.8640 C   0  0  0  0  0  3  0  0  0  0  0  0
  156.1770  213.7270  149.1690 C   0  0  0  0  0  3  0  0  0  0  0  0
  161.9110  209.0340  154.3380 C   0  0  0  0  0  2  0  0  0  0  0  0
  158.6590  210.6480  155.3610 C   0  0  0  0  0  2  0  0  0  0  0  0
  158.9950  211.7330  154.3340 C   0  0  0  0  0  0  0  0  0  0  0  0
  158.2330  211.5370  153.1970 F   0  0  0  0  0  0  0  0  0  0  0  0
  161.2640  211.2730  155.0460 O   0  0  0  0  0  0  0  0  0  0  0  0
  159.5810  209.4460  155.2000 C   0  0  0  0  0  2  0  0  0  0  0  0
  161.0560  209.8860  155.2680 C   0  0  1  0  0  3  0  0  0  0  0  0
  158.6900  212.9680  154.8740 F   0  0  0  0  0  0  0  0  0  0  0  0
  160.4790  211.6960  153.9530 C   0  0  0  0  0  2  0  0  0  0  0  0
  1  8  1  0  0  0  0
  2 13  1  0  0  0  0
  2 12  1  1  0  0  0
  3 14  2  0  0  0  0
  4 15  1  0  0  0  0
  5  9  1  0  0  0  0
  5  1  2  0  0  0  0
  6  1  1  0  0  0  0
  7 11  1  0  0  0  0
  7  4  1  0  0  0  0
  8  4  2  0  0  0  0
  9  7  2  0  0  0  0
 10  3  1  0  0  0  0
 11 10  1  6  0  0  0
 11  2  1  0  0  0  0
 13 35  1  1  0  0  0
 14 13  1  0  0  0  0
 15 12  1  0  0  0  0
 16 17  1  6  0  0  0
 16 18  1  0  0  0  0
 16  3  1  0  0  0  0
 19 21  1  0  0  0  0
 19 18  1  0  0  0  0
 20 19  2  0  0  0  0
 22 25  1  0  0  0  0
 22 21  1  6  0  0  0
 23 27  2  0  0  0  0
 24 22  1  0  0  0  0
 25 29  1  1  0  0  0
 26 25  1  0  0  0  0
 27 24  1  0  0  0  0
 27 26  1  0  0  0  0
 28 33  1  0  0  0  0
 29 28  2  0  0  0  0
 30 32  1  0  0  0  0
 31 33  2  0  0  0  0
 32 31  1  0  0  0  0
 34 29  1  0  0  0  0
 34 32  2  0  0  0  0
 37 42  1  0  0  0  0
 37 36  1  0  0  0  0
 38 37  1  0  0  0  0
 39 41  1  0  0  0  0
 40 41  1  0  0  0  0
 40 36  1  0  0  0  0
 41 35  1  6  0  0  0
 43 37  1  0  0  0  0
 43 39  1  0  0  0  0
M  END
>  <MODEL>
9

>  <REMARK>
 VINA RESULT:      -8.2      3.801      7.596
  Name = 
  8 active torsions:
  status: ('A' for Active; 'I' for Inactive)
    1  A    between atoms: C_1  and  C_34
    2  A    between atoms: C_1  and  C_35
    3  A    between atoms: C_2  and  N_6
    4  A    between atoms: C_2  and  C_13
    5  A    between atoms: N_3  and  C_4
    6  A    between atoms: N_3  and  C_12
    7  A    between atoms: N_6  and  C_12
    8  A    between atoms: C_14  and  C_22
                            x       y       z     vdW  Elec       q    Type
                         _______ _______ _______ _____ _____    ______ ____

>  <TORSDO>
F 8

$$$$
