=
 OpenBabel11062408453D

 55 62  0  0  1  0  0  0  0  0999 V2000
  162.3310  207.3060  148.3340 C   0  0  2  0  0  3  0  0  0  0  0  0
  160.6110  206.5150  154.8250 O   0  0  0  0  0  0  0  0  0  0  0  0
  162.3590  205.3840  153.1370 O   0  0  0  0  0  0  0  0  0  0  0  0
  161.5290  209.3020  154.5870 C   0  0  1  0  0  3  0  0  0  0  0  0
  161.2910  201.4400  150.7630 C   0  0  0  0  0  3  0  0  0  0  0  0
  161.3730  200.3070  150.0670 C   0  0  0  0  0  3  0  0  0  0  0  0
  161.4910  202.7870  148.6370 C   0  0  2  0  0  3  0  0  0  0  0  0
  161.2560  201.4790  147.9340 C   0  0  0  0  0  3  0  0  0  0  0  0
  160.7320  204.2080  151.9900 O   0  0  0  0  0  0  0  0  0  0  0  0
  160.2340  208.8150  155.0510 N   0  0  0  0  0  2  0  0  0  0  0  0
  161.2360  200.3250  148.6030 C   0  0  0  0  0  3  0  0  0  0  0  0
  161.2580  209.4260  147.5830 C   0  0  0  0  0  2  0  0  0  0  0  0
  160.9800  202.7520  150.0900 C   0  0  2  0  0  3  0  0  0  0  0  0
  161.8320  210.3470  150.2040 C   0  0  1  0  0  3  0  0  0  0  0  0
  162.4060  206.3920  149.4000 O   0  0  0  0  0  0  0  0  0  0  0  0
  162.5900  209.3150  149.6200 O   0  0  0  0  0  0  0  0  0  0  0  0
  161.6840  205.0440  147.5550 C   0  0  2  0  0  3  0  0  0  0  0  0
  159.8940  207.5990  154.3170 C   0  0  0  0  0  2  0  0  0  0  0  0
  160.7640  203.8680  147.8530 C   0  0  0  0  0  2  0  0  0  0  0  0
  160.1650  205.4070  154.0980 C   0  0  0  0  0  2  0  0  0  0  0  0
  161.1520  205.0240  153.0410 C   0  0  0  0  0  0  0  0  0  0  0  0
  161.6440  210.9000  147.7290 C   0  0  0  0  0  2  0  0  0  0  0  0
  161.3740  209.9500  153.2180 C   0  0  0  0  0  2  0  0  0  0  0  0
  161.6950  208.5970  148.8030 C   0  0  2  0  0  3  0  0  0  0  0  0
  161.5890  203.8770  150.9070 C   0  0  0  0  0  2  0  0  0  0  0  0
  161.3500  206.2050  148.4850 C   0  0  2  0  0  3  0  0  0  0  0  0
  162.7250  210.0930  152.5370 C   0  0  0  0  0  2  0  0  0  0  0  0
  162.6170  211.0050  151.3270 C   0  0  0  0  0  2  0  0  0  0  0  0
  161.4320  211.4050  149.1620 C   0  0  0  0  0  2  0  0  0  0  0  0
  162.7050  205.1720  145.2140 C   0  0  0  0  0  3  0  0  0  0  0  0
  161.4280  206.0250  143.3650 N   0  0  0  0  0  0  0  0  0  0  0  0
  160.4860  206.0840  145.6520 C   0  0  0  0  0  3  0  0  0  0  0  0
  160.3950  206.5960  144.2400 C   0  0  0  0  0  2  0  0  0  0  0  0
  162.6230  205.4500  143.9130 C   0  0  0  0  0  3  0  0  0  0  0  0
  161.5690  205.4470  146.1110 C   0  0  0  0  0  0  0  0  0  0  0  0
  161.3960  206.3320  141.9380 C   0  0  0  0  0  3  0  0  0  0  0  0
  162.5260  205.6120  141.2150 C   0  0  0  0  0  2  0  0  0  0  0  0
  162.6550  207.0820  141.5390 C   0  0  0  0  0  2  0  0  0  0  0  0
  162.0340  210.3640  155.5540 C   0  0  0  0  0  2  0  0  0  0  0  0
  161.1670  211.6180  155.5640 C   0  0  2  0  0  3  0  0  0  0  0  0
  161.7210  212.5170  156.4750 O   0  0  0  0  0  1  0  0  0  0  0  0
  158.9630  213.6550  155.2730 N   0  0  0  0  0  0  0  0  0  0  0  0
  157.0290  211.0590  157.2600 O   0  0  0  0  0  1  0  0  0  0  0  0
  159.7210  211.2910  155.9810 C   0  0  1  0  0  0  0  0  0  0  0  0
  159.1490  211.5650  153.4920 C   0  0  0  0  0  1  0  0  0  0  0  0
  158.6600  211.1630  154.8820 C   0  0  2  0  0  3  0  0  0  0  0  0
  159.6260  214.4530  156.2940 C   0  0  0  0  0  1  0  0  0  0  0  0
  156.1160  212.9300  155.9950 C   0  0  1  0  0  3  0  0  0  0  0  0
  157.7840  214.4440  154.8780 C   0  0  0  0  0  2  0  0  0  0  0  0
  157.3260  212.3240  156.7420 C   0  0  2  0  0  3  0  0  0  0  0  0
  159.5610  210.3550  157.0080 O   0  0  0  0  0  1  0  0  0  0  0  0
  156.5150  213.6110  154.6850 C   0  0  0  0  0  2  0  0  0  0  0  0
  158.6070  212.3470  155.8730 C   0  0  2  0  0  0  0  0  0  0  0  0
  155.1390  211.9670  155.7240 O   0  0  0  0  0  0  0  0  0  0  0  0
  155.4100  211.5520  154.5040 O   0  0  0  0  0  1  0  0  0  0  0  0
  1 26  1  0  0  0  0
  1 24  1  0  0  0  0
  1 15  1  1  0  0  0
  4 10  1  0  0  0  0
  4 39  1  1  0  0  0
  6  5  2  0  0  0  0
  7 19  1  6  0  0  0
  7 13  1  0  0  0  0
  8 11  2  0  0  0  0
  8  7  1  0  0  0  0
  9 21  1  0  0  0  0
 11  6  1  0  0  0  0
 12 22  1  0  0  0  0
 13  5  1  1  0  0  0
 13 25  1  0  0  0  0
 14 29  1  6  0  0  0
 14 28  1  0  0  0  0
 16 14  1  0  0  0  0
 17 35  1  6  0  0  0
 17 19  1  0  0  0  0
 17 26  1  0  0  0  0
 18  2  1  0  0  0  0
 18 10  1  0  0  0  0
 20  2  1  0  0  0  0
 21  3  2  0  0  0  0
 21 20  1  0  0  0  0
 22 29  1  0  0  0  0
 23  4  1  0  0  0  0
 24 12  1  6  0  0  0
 24 16  1  0  0  0  0
 25  9  1  0  0  0  0
 26 15  1  1  0  0  0
 27 23  1  0  0  0  0
 28 27  1  0  0  0  0
 30 35  1  0  0  0  0
 31 34  1  0  0  0  0
 31 33  1  0  0  0  0
 32 35  2  0  0  0  0
 33 32  1  0  0  0  0
 34 30  2  0  0  0  0
 36 31  1  0  0  0  0
 37 38  1  0  0  0  0
 37 36  1  0  0  0  0
 38 36  1  0  0  0  0
 39 40  1  0  0  0  0
 40 44  1  0  0  0  0
 40 41  1  1  0  0  0
 42 47  1  0  0  0  0
 44 51  1  1  0  0  0
 46 45  1  6  0  0  0
 46 53  1  0  0  0  0
 46 44  1  0  0  0  0
 48 54  1  6  0  0  0
 48 50  1  0  0  0  0
 49 42  1  0  0  0  0
 50 43  1  6  0  0  0
 52 49  1  0  0  0  0
 52 48  1  0  0  0  0
 53 42  1  6  0  0  0
 53 44  1  0  0  0  0
 53 50  1  0  0  0  0
 55 54  1  0  0  0  0
M  END
>  <MODEL>
1

>  <REMARK>
 VINA RESULT:       3.2      0.000      0.000
  Name = 
  6 active torsions:
  status: ('A' for Active; 'I' for Inactive)
    1  A    between atoms: C_6  and  C_20
    2  A    between atoms: C_7  and  C_8
    3  A    between atoms: C_7  and  C_20
    4  A    between atoms: C_10  and  N_32
    5  A    between atoms: O_11  and  C_29
    6  A    between atoms: C_33  and  C_52
                            x       y       z     vdW  Elec       q    Type
                         _______ _______ _______ _____ _____    ______ ____

>  <TORSDO>
F 6

$$$$
