=
 OpenBabel11062409193D

 37 43  0  0  1  0  0  0  0  0999 V2000
  162.6160  206.3310  151.6360 C   0  0  0  0  0  2  0  0  0  0  0  0
  160.3240  210.8360  151.7530 C   0  0  0  0  0  0  0  0  0  0  0  0
  161.4660  205.3690  151.3770 C   0  0  1  0  0  3  0  0  0  0  0  0
  161.3570  208.6450  148.7110 C   0  0  1  0  0  3  0  0  0  0  0  0
  160.4670  209.5580  150.9720 C   0  0  1  0  0  3  0  0  0  0  0  0
  160.2360  206.0660  148.3320 O   0  0  0  0  0  0  0  0  0  0  0  0
  161.0140  204.8810  153.8350 C   0  0  0  0  0  2  0  0  0  0  0  0
  161.1300  209.8690  149.6140 C   0  0  1  0  0  3  0  0  0  0  0  0
  161.5540  204.8490  149.9560 C   0  0  0  0  0  2  0  0  0  0  0  0
  161.3080  208.5850  153.2750 C   0  0  2  0  0  3  0  0  0  0  0  0
  161.3460  207.3210  154.1640 C   0  0  2  0  0  3  0  0  0  0  0  0
  161.2630  211.9670  151.4460 C   0  0  0  0  0  2  0  0  0  0  0  0
  161.3120  204.2970  152.4430 C   0  0  0  0  0  2  0  0  0  0  0  0
  160.3190  206.2470  153.8040 C   0  0  0  0  0  2  0  0  0  0  0  0
  161.4710  206.0430  149.0050 C   0  0  2  0  0  0  0  0  0  0  0  0
  162.8230  208.2230  148.5750 C   0  0  0  0  0  2  0  0  0  0  0  0
  159.2350  211.0590  152.4820 C   0  0  0  0  0  2  0  0  0  0  0  0
  161.0950  208.3590  151.7460 C   0  0  2  0  0  3  0  0  0  0  0  0
  162.3020  210.8860  149.6850 C   0  0  2  0  0  3  0  0  0  0  0  0
  161.9060  207.4530  149.4950 C   0  0  1  0  0  0  0  0  0  0  0  0
  161.3730  205.7470  147.5600 C   0  0  0  0  0  2  0  0  0  0  0  0
  162.2540  207.6680  150.9900 C   0  0  2  0  0  3  0  0  0  0  0  0
  162.4900  211.4650  150.9650 O   0  0  0  0  0  0  0  0  0  0  0  0
  163.5170  212.0320  147.8190 O   0  0  0  0  0  1  0  0  0  0  0  0
  162.3340  211.9400  148.5670 C   0  0  1  0  0  0  0  0  0  0  0  0
  162.2740  214.4530  148.1620 C   0  0  0  0  0  1  0  0  0  0  0  0
  161.0360  212.2070  147.8110 C   0  0  1  0  0  3  0  0  0  0  0  0
  161.5900  213.2500  148.8100 C   0  0  1  0  0  3  0  0  0  0  0  0
  159.9700  212.3370  145.5650 C   0  0  0  0  0  1  0  0  0  0  0  0
  161.2620  212.5280  146.3330 C   0  0  0  0  0  2  0  0  0  0  0  0
  162.4480  209.5670  153.6010 C   0  0  0  0  0  2  0  0  0  0  0  0
  162.0840  210.6200  154.6420 C   0  0  0  0  0  2  0  0  0  0  0  0
  163.1460  210.6980  155.7210 C   0  0  0  0  0  2  0  0  0  0  0  0
  162.4980  211.0190  157.0490 C   0  0  0  0  0  1  0  0  0  0  0  0
  161.2690  207.6560  155.6550 C   0  0  0  0  0  2  0  0  0  0  0  0
  159.8350  207.7290  156.1520 C   0  0  0  0  0  2  0  0  0  0  0  0
  159.3900  209.1760  156.2070 C   0  0  0  0  0  1  0  0  0  0  0  0
  2 17  2  0  0  0  0
  3  9  1  6  0  0  0
  3  1  1  0  0  0  0
  3 13  1  0  0  0  0
  4 16  1  6  0  0  0
  4 20  1  0  0  0  0
  4  8  1  0  0  0  0
  5 18  1  0  0  0  0
  5  2  1  1  0  0  0
  6 15  1  0  0  0  0
  8 19  1  0  0  0  0
  8  5  1  0  0  0  0
 10 31  1  0  0  0  0
 10 11  1  0  0  0  0
 11 35  1  0  0  0  0
 12  2  1  0  0  0  0
 13  7  1  0  0  0  0
 14  7  1  0  0  0  0
 14 11  1  0  0  0  0
 15 20  1  0  0  0  0
 15  9  1  0  0  0  0
 16 20  1  0  0  0  0
 18 10  1  0  0  0  0
 19 23  1  0  0  0  0
 20 22  1  0  0  0  0
 21  6  1  0  0  0  0
 21 15  1  0  0  0  0
 22  1  1  0  0  0  0
 22 18  1  0  0  0  0
 23 12  1  0  0  0  0
 24 25  1  0  0  0  0
 25 28  1  0  0  0  0
 25 19  1  0  0  0  0
 26 28  1  0  0  0  0
 27 25  1  0  0  0  0
 27 28  1  0  0  0  0
 29 30  1  0  0  0  0
 30 27  1  0  0  0  0
 31 32  1  0  0  0  0
 32 33  1  0  0  0  0
 33 34  1  0  0  0  0
 35 36  1  0  0  0  0
 36 37  1  0  0  0  0
M  END
>  <MODEL>
1

>  <REMARK>
 VINA RESULT:      -2.4      0.000      0.000
  Name = 
  7 active torsions:
  status: ('A' for Active; 'I' for Inactive)
    1  A    between atoms: C_3  and  C_32
    2  A    between atoms: C_8  and  C_31
    3  A    between atoms: C_9  and  C_13
    4  A    between atoms: C_9  and  C_16
    5  A    between atoms: C_13  and  C_20
    6  A    between atoms: C_18  and  C_35
    7  A    between atoms: C_21  and  C_32
                            x       y       z     vdW  Elec       q    Type
                         _______ _______ _______ _____ _____    ______ ____

>  <TORSDO>
F 7

$$$$
=
 OpenBabel11062409193D

 37 43  0  0  1  0  0  0  0  0999 V2000
  159.9660  207.7330  152.9980 C   0  0  0  0  0  2  0  0  0  0  0  0
  162.9500  208.0970  148.9330 C   0  0  0  0  0  0  0  0  0  0  0  0
  160.9540  207.4760  154.1260 C   0  0  1  0  0  3  0  0  0  0  0  0
  162.1930  210.7130  151.7100 C   0  0  1  0  0  3  0  0  0  0  0  0
  162.7450  208.5750  150.3460 C   0  0  1  0  0  3  0  0  0  0  0  0
  162.8890  210.2030  154.4130 O   0  0  0  0  0  0  0  0  0  0  0  0
  160.7950  204.9370  153.9980 C   0  0  0  0  0  2  0  0  0  0  0  0
  162.4430  210.0870  150.3270 C   0  0  1  0  0  3  0  0  0  0  0  0
  161.0700  208.7160  154.9890 C   0  0  0  0  0  2  0  0  0  0  0  0
  161.2880  206.3870  150.5660 C   0  0  2  0  0  3  0  0  0  0  0  0
  160.8430  205.2690  151.5350 C   0  0  2  0  0  3  0  0  0  0  0  0
  162.3120  208.8750  147.8190 C   0  0  0  0  0  2  0  0  0  0  0  0
  160.6910  206.1880  154.8890 C   0  0  0  0  0  2  0  0  0  0  0  0
  161.7130  205.1110  152.7820 C   0  0  0  0  0  2  0  0  0  0  0  0
  161.5580  209.8660  154.1080 C   0  0  2  0  0  0  0  0  0  0  0  0
  160.7350  211.1030  151.9730 C   0  0  0  0  0  2  0  0  0  0  0  0
  163.8880  207.1950  148.6580 C   0  0  0  0  0  2  0  0  0  0  0  0
  161.7680  207.7240  151.2120 C   0  0  2  0  0  3  0  0  0  0  0  0
  161.4820  210.5400  149.1940 C   0  0  2  0  0  3  0  0  0  0  0  0
  161.2900  209.8340  152.5760 C   0  0  1  0  0  0  0  0  0  0  0  0
  161.8980  211.1360  154.7860 C   0  0  0  0  0  2  0  0  0  0  0  0
  160.6860  208.5610  151.9340 C   0  0  2  0  0  3  0  0  0  0  0  0
  161.1410  209.5140  148.2790 O   0  0  0  0  0  0  0  0  0  0  0  0
  163.2410  212.0980  148.3270 O   0  0  0  0  0  1  0  0  0  0  0  0
  161.8700  211.8440  148.4770 C   0  0  1  0  0  0  0  0  0  0  0  0
  161.7610  214.3780  148.6980 C   0  0  0  0  0  1  0  0  0  0  0  0
  160.9680  212.3200  147.3420 C   0  0  1  0  0  3  0  0  0  0  0  0
  160.9810  213.0640  148.6990 C   0  0  1  0  0  3  0  0  0  0  0  0
  160.9090  212.9930  144.9460 C   0  0  0  0  0  1  0  0  0  0  0  0
  161.7410  213.0010  146.2120 C   0  0  0  0  0  2  0  0  0  0  0  0
  160.2990  206.5840  149.4020 C   0  0  0  0  0  2  0  0  0  0  0  0
  160.4820  205.5970  148.2550 C   0  0  0  0  0  2  0  0  0  0  0  0
  160.4730  206.3160  146.9210 C   0  0  0  0  0  2  0  0  0  0  0  0
  161.5500  205.7400  146.0280 C   0  0  0  0  0  1  0  0  0  0  0  0
  160.6690  203.9230  150.8290 C   0  0  0  0  0  2  0  0  0  0  0  0
  161.5220  202.8330  151.4560 C   0  0  0  0  0  2  0  0  0  0  0  0
  161.2470  201.5130  150.7670 C   0  0  0  0  0  1  0  0  0  0  0  0
  3  1  1  6  0  0  0
  3 13  1  0  0  0  0
  3  9  1  0  0  0  0
  4 16  1  6  0  0  0
  4 20  1  0  0  0  0
  5  2  1  6  0  0  0
  5 18  1  0  0  0  0
  6 21  1  0  0  0  0
  7 13  1  0  0  0  0
  8  5  1  0  0  0  0
  8  4  1  0  0  0  0
 10 18  1  0  0  0  0
 10 11  1  0  0  0  0
 11 14  1  0  0  0  0
 12 23  1  0  0  0  0
 12  2  1  0  0  0  0
 14  7  1  0  0  0  0
 15  6  1  0  0  0  0
 15 21  1  0  0  0  0
 15  9  1  0  0  0  0
 16 20  1  0  0  0  0
 17  2  2  0  0  0  0
 18 22  1  0  0  0  0
 19  8  1  0  0  0  0
 20 15  1  0  0  0  0
 22 20  1  0  0  0  0
 22  1  1  0  0  0  0
 23 19  1  0  0  0  0
 24 25  1  0  0  0  0
 25 28  1  0  0  0  0
 25 19  1  0  0  0  0
 26 28  1  0  0  0  0
 27 25  1  0  0  0  0
 27 28  1  0  0  0  0
 29 30  1  0  0  0  0
 30 27  1  0  0  0  0
 31 10  1  0  0  0  0
 32 31  1  0  0  0  0
 33 32  1  0  0  0  0
 34 33  1  0  0  0  0
 35 36  1  0  0  0  0
 35 11  1  0  0  0  0
 37 36  1  0  0  0  0
M  END
>  <MODEL>
2

>  <REMARK>
 VINA RESULT:      -1.7      1.429      5.198
  Name = 
  7 active torsions:
  status: ('A' for Active; 'I' for Inactive)
    1  A    between atoms: C_3  and  C_32
    2  A    between atoms: C_8  and  C_31
    3  A    between atoms: C_9  and  C_13
    4  A    between atoms: C_9  and  C_16
    5  A    between atoms: C_13  and  C_20
    6  A    between atoms: C_18  and  C_35
    7  A    between atoms: C_21  and  C_32
                            x       y       z     vdW  Elec       q    Type
                         _______ _______ _______ _____ _____    ______ ____

>  <TORSDO>
F 7

$$$$
=
 OpenBabel11062409193D

 37 43  0  0  1  0  0  0  0  0999 V2000
  161.8900  207.6480  154.5310 C   0  0  0  0  0  2  0  0  0  0  0  0
  159.4050  211.3710  152.1810 C   0  0  0  0  0  0  0  0  0  0  0  0
  160.8590  206.5300  154.5860 C   0  0  1  0  0  3  0  0  0  0  0  0
  161.1080  208.1980  150.7120 C   0  0  1  0  0  3  0  0  0  0  0  0
  159.7570  209.9090  152.1220 C   0  0  1  0  0  3  0  0  0  0  0  0
  160.2060  205.6040  151.4270 O   0  0  0  0  0  0  0  0  0  0  0  0
  159.9670  207.1520  156.8890 C   0  0  0  0  0  2  0  0  0  0  0  0
  160.6530  209.6570  150.8910 C   0  0  1  0  0  3  0  0  0  0  0  0
  161.2430  205.4400  153.6060 C   0  0  0  0  0  2  0  0  0  0  0  0
  160.1850  210.2050  154.7080 C   0  0  2  0  0  3  0  0  0  0  0  0
  160.1120  209.4970  156.0800 C   0  0  2  0  0  3  0  0  0  0  0  0
  160.3300  212.3540  151.5220 C   0  0  0  0  0  2  0  0  0  0  0  0
  160.5550  206.0460  155.9940 C   0  0  0  0  0  2  0  0  0  0  0  0
  159.2270  208.2520  156.1180 C   0  0  0  0  0  2  0  0  0  0  0  0
  161.2880  206.0520  152.2060 C   0  0  2  0  0  0  0  0  0  0  0  0
  162.5910  207.9580  151.0080 C   0  0  0  0  0  2  0  0  0  0  0  0
  158.1870  211.7540  152.5500 C   0  0  0  0  0  2  0  0  0  0  0  0
  160.2810  209.2850  153.4510 C   0  0  2  0  0  3  0  0  0  0  0  0
  161.7390  210.7400  150.6500 C   0  0  2  0  0  3  0  0  0  0  0  0
  161.5520  207.5750  152.0350 C   0  0  1  0  0  0  0  0  0  0  0  0
  161.4830  205.1230  151.0720 C   0  0  0  0  0  2  0  0  0  0  0  0
  161.5950  208.4860  153.2870 C   0  0  2  0  0  3  0  0  0  0  0  0
  161.6500  211.8550  151.5200 O   0  0  0  0  0  0  0  0  0  0  0  0
  162.0090  210.1430  148.2320 O   0  0  0  0  0  1  0  0  0  0  0  0
  161.9350  211.1680  149.1860 C   0  0  1  0  0  0  0  0  0  0  0  0
  163.5950  212.2950  147.6190 C   0  0  0  0  0  1  0  0  0  0  0  0
  161.2650  212.4630  148.7330 C   0  0  1  0  0  3  0  0  0  0  0  0
  162.8000  212.3970  148.9190 C   0  0  1  0  0  3  0  0  0  0  0  0
  159.5490  213.2810  147.1270 C   0  0  0  0  0  1  0  0  0  0  0  0
  160.7750  212.4060  147.2860 C   0  0  0  0  0  2  0  0  0  0  0  0
  161.1930  211.3690  154.6990 C   0  0  0  0  0  2  0  0  0  0  0  0
  162.5950  210.9810  155.1550 C   0  0  0  0  0  2  0  0  0  0  0  0
  162.7780  211.2690  156.6320 C   0  0  0  0  0  2  0  0  0  0  0  0
  163.6170  210.1780  157.2600 C   0  0  0  0  0  1  0  0  0  0  0  0
  159.7340  210.4580  157.2090 C   0  0  0  0  0  2  0  0  0  0  0  0
  158.4420  211.2030  156.9190 C   0  0  0  0  0  2  0  0  0  0  0  0
  158.6980  212.6950  156.9560 C   0  0  0  0  0  1  0  0  0  0  0  0
  1  3  1  0  0  0  0
  2 17  2  0  0  0  0
  3  9  1  6  0  0  0
  3 13  1  0  0  0  0
  4  8  1  0  0  0  0
  4 16  1  6  0  0  0
  4 20  1  0  0  0  0
  5  2  1  1  0  0  0
  5 18  1  0  0  0  0
  6 15  1  0  0  0  0
  8  5  1  0  0  0  0
 10 11  1  0  0  0  0
 11 14  1  0  0  0  0
 11 35  1  0  0  0  0
 12  2  1  0  0  0  0
 13  7  1  0  0  0  0
 14  7  1  0  0  0  0
 15  9  1  0  0  0  0
 16 20  1  0  0  0  0
 18 10  1  0  0  0  0
 19  8  1  0  0  0  0
 19 23  1  0  0  0  0
 20 15  1  0  0  0  0
 20 22  1  0  0  0  0
 21  6  1  0  0  0  0
 21 15  1  0  0  0  0
 22 18  1  0  0  0  0
 22  1  1  0  0  0  0
 23 12  1  0  0  0  0
 24 25  1  0  0  0  0
 25 19  1  0  0  0  0
 26 28  1  0  0  0  0
 27 28  1  0  0  0  0
 27 25  1  0  0  0  0
 28 25  1  0  0  0  0
 29 30  1  0  0  0  0
 30 27  1  0  0  0  0
 31 10  1  0  0  0  0
 31 32  1  0  0  0  0
 32 33  1  0  0  0  0
 33 34  1  0  0  0  0
 36 37  1  0  0  0  0
 36 35  1  0  0  0  0
M  END
>  <MODEL>
3

>  <REMARK>
 VINA RESULT:      -0.3      1.472      2.535
  Name = 
  7 active torsions:
  status: ('A' for Active; 'I' for Inactive)
    1  A    between atoms: C_3  and  C_32
    2  A    between atoms: C_8  and  C_31
    3  A    between atoms: C_9  and  C_13
    4  A    between atoms: C_9  and  C_16
    5  A    between atoms: C_13  and  C_20
    6  A    between atoms: C_18  and  C_35
    7  A    between atoms: C_21  and  C_32
                            x       y       z     vdW  Elec       q    Type
                         _______ _______ _______ _____ _____    ______ ____

>  <TORSDO>
F 7

$$$$
=
 OpenBabel11062409193D

 37 43  0  0  1  0  0  0  0  0999 V2000
  158.5680  210.1560  153.3960 C   0  0  0  0  0  2  0  0  0  0  0  0
  162.6100  211.0860  150.5080 C   0  0  0  0  0  0  0  0  0  0  0  0
  158.9000  210.8780  154.6930 C   0  0  1  0  0  3  0  0  0  0  0  0
  159.5670  213.3600  151.3390 C   0  0  1  0  0  3  0  0  0  0  0  0
  161.5750  211.7160  151.4000 C   0  0  1  0  0  3  0  0  0  0  0  0
  159.0410  214.1620  154.0100 O   0  0  0  0  0  0  0  0  0  0  0  0
  159.9560  208.8550  155.8230 C   0  0  0  0  0  2  0  0  0  0  0  0
  160.6890  212.6550  150.5560 C   0  0  1  0  0  3  0  0  0  0  0  0
  158.0340  212.1160  154.8190 C   0  0  0  0  0  2  0  0  0  0  0  0
  161.3210  209.2670  152.3460 C   0  0  2  0  0  3  0  0  0  0  0  0
  161.0130  208.4380  153.6130 C   0  0  2  0  0  3  0  0  0  0  0  0
  162.3100  210.9670  149.0410 C   0  0  0  0  0  2  0  0  0  0  0  0
  158.9040  209.9750  155.9150 C   0  0  0  0  0  2  0  0  0  0  0  0
  161.1560  209.1970  154.9320 C   0  0  0  0  0  2  0  0  0  0  0  0
  158.3180  213.0200  153.6190 C   0  0  2  0  0  0  0  0  0  0  0  0
  158.1590  212.8430  151.0290 C   0  0  0  0  0  2  0  0  0  0  0  0
  163.8530  210.9040  150.9450 C   0  0  0  0  0  2  0  0  0  0  0  0
  160.7930  210.7350  152.3250 C   0  0  2  0  0  3  0  0  0  0  0  0
  160.2930  212.0930  149.1640 C   0  0  2  0  0  3  0  0  0  0  0  0
  158.8540  212.4030  152.2950 C   0  0  1  0  0  0  0  0  0  0  0  0
  157.6980  214.3630  153.6260 C   0  0  0  0  0  2  0  0  0  0  0  0
  159.2570  210.9080  152.2590 C   0  0  2  0  0  3  0  0  0  0  0  0
  160.9180  210.8640  148.8360 O   0  0  0  0  0  0  0  0  0  0  0  0
  160.4890  214.4510  148.3420 O   0  0  0  0  0  1  0  0  0  0  0  0
  160.3560  213.0970  148.0010 C   0  0  1  0  0  0  0  0  0  0  0  0
  158.9770  214.0560  146.0880 C   0  0  0  0  0  1  0  0  0  0  0  0
  161.0570  212.6520  146.7210 C   0  0  1  0  0  3  0  0  0  0  0  0
  159.5170  212.7960  146.7620 C   0  0  1  0  0  3  0  0  0  0  0  0
  162.3290  213.3120  144.6850 C   0  0  0  0  0  1  0  0  0  0  0  0
  161.8060  213.7890  146.0250 C   0  0  0  0  0  2  0  0  0  0  0  0
  161.0310  208.4880  151.0490 C   0  0  0  0  0  2  0  0  0  0  0  0
  162.2410  207.7580  150.4780 C   0  0  0  0  0  2  0  0  0  0  0  0
  162.0320  207.4390  149.0100 C   0  0  0  0  0  2  0  0  0  0  0  0
  160.8340  206.5290  148.8550 C   0  0  0  0  0  1  0  0  0  0  0  0
  161.8070  207.1300  153.6590 C   0  0  0  0  0  2  0  0  0  0  0  0
  160.9040  205.9100  153.5970 C   0  0  0  0  0  2  0  0  0  0  0  0
  161.2360  205.0960  152.3640 C   0  0  0  0  0  1  0  0  0  0  0  0
  2 17  2  0  0  0  0
  3  1  1  6  0  0  0
  3  9  1  0  0  0  0
  3 13  1  0  0  0  0
  4 16  1  6  0  0  0
  4 20  1  0  0  0  0
  5  2  1  6  0  0  0
  5 18  1  0  0  0  0
  7 13  1  0  0  0  0
  8  4  1  0  0  0  0
  8  5  1  0  0  0  0
 10 11  1  0  0  0  0
 11 35  1  0  0  0  0
 11 14  1  0  0  0  0
 12  2  1  0  0  0  0
 14  7  1  0  0  0  0
 15 21  1  0  0  0  0
 15  6  1  0  0  0  0
 15  9  1  0  0  0  0
 16 20  1  0  0  0  0
 18 10  1  0  0  0  0
 19  8  1  0  0  0  0
 20 15  1  0  0  0  0
 21  6  1  0  0  0  0
 22 20  1  0  0  0  0
 22 18  1  0  0  0  0
 22  1  1  0  0  0  0
 23 12  1  0  0  0  0
 23 19  1  0  0  0  0
 25 24  1  0  0  0  0
 25 19  1  0  0  0  0
 26 28  1  0  0  0  0
 27 28  1  0  0  0  0
 27 25  1  0  0  0  0
 28 25  1  0  0  0  0
 29 30  1  0  0  0  0
 30 27  1  0  0  0  0
 31 10  1  0  0  0  0
 32 31  1  0  0  0  0
 33 32  1  0  0  0  0
 34 33  1  0  0  0  0
 36 35  1  0  0  0  0
 37 36  1  0  0  0  0
M  END
>  <MODEL>
4

>  <REMARK>
 VINA RESULT:       0.2      1.898      5.363
  Name = 
  7 active torsions:
  status: ('A' for Active; 'I' for Inactive)
    1  A    between atoms: C_3  and  C_32
    2  A    between atoms: C_8  and  C_31
    3  A    between atoms: C_9  and  C_13
    4  A    between atoms: C_9  and  C_16
    5  A    between atoms: C_13  and  C_20
    6  A    between atoms: C_18  and  C_35
    7  A    between atoms: C_21  and  C_32
                            x       y       z     vdW  Elec       q    Type
                         _______ _______ _______ _____ _____    ______ ____

>  <TORSDO>
F 7

$$$$
=
 OpenBabel11062409193D

 37 43  0  0  1  0  0  0  0  0999 V2000
  158.7120  211.7740  152.5160 C   0  0  0  0  0  2  0  0  0  0  0  0
  161.4620  208.9460  155.6770 C   0  0  0  0  0  0  0  0  0  0  0  0
  159.6430  212.9340  152.1960 C   0  0  1  0  0  3  0  0  0  0  0  0
  161.6230  209.2230  151.8010 C   0  0  1  0  0  3  0  0  0  0  0  0
  161.4750  209.6650  154.3550 C   0  0  1  0  0  3  0  0  0  0  0  0
  162.2850  211.6820  150.5480 O   0  0  0  0  0  0  0  0  0  0  0  0
  158.7640  214.4530  154.0420 C   0  0  0  0  0  2  0  0  0  0  0  0
  161.6140  208.6290  153.2210 C   0  0  1  0  0  3  0  0  0  0  0  0
  160.1510  212.7980  150.7750 C   0  0  0  0  0  2  0  0  0  0  0  0
  159.4700  211.0220  155.4030 C   0  0  2  0  0  3  0  0  0  0  0  0
  158.7770  212.4020  155.4450 C   0  0  2  0  0  3  0  0  0  0  0  0
  161.0150  207.5130  155.7050 C   0  0  0  0  0  2  0  0  0  0  0  0
  159.0660  214.2970  152.5410 C   0  0  0  0  0  2  0  0  0  0  0  0
  159.6290  213.5690  154.9480 C   0  0  0  0  0  2  0  0  0  0  0  0
  160.8990  211.4700  150.6620 C   0  0  2  0  0  0  0  0  0  0  0  0
  160.3520  208.9480  150.9930 C   0  0  0  0  0  2  0  0  0  0  0  0
  162.0900  209.4640  156.7290 C   0  0  0  0  0  2  0  0  0  0  0  0
  160.3430  210.7160  154.1460 C   0  0  2  0  0  3  0  0  0  0  0  0
  160.7640  207.3430  153.4110 C   0  0  2  0  0  3  0  0  0  0  0  0
  160.5550  210.3030  151.6300 C   0  0  1  0  0  0  0  0  0  0  0  0
  161.6210  211.2090  149.3970 C   0  0  0  0  0  2  0  0  0  0  0  0
  159.5810  210.5520  152.8090 C   0  0  2  0  0  3  0  0  0  0  0  0
  160.0980  207.2690  154.6600 O   0  0  0  0  0  0  0  0  0  0  0  0
  161.5910  205.0770  154.0840 O   0  0  0  0  0  1  0  0  0  0  0  0
  161.4680  206.0240  153.0560 C   0  0  1  0  0  0  0  0  0  0  0  0
  163.7190  205.0640  152.3540 C   0  0  0  0  0  1  0  0  0  0  0  0
  161.2610  205.4690  151.6500 C   0  0  1  0  0  3  0  0  0  0  0  0
  162.6210  206.0840  152.0580 C   0  0  1  0  0  3  0  0  0  0  0  0
  160.8340  203.4750  150.2220 C   0  0  0  0  0  1  0  0  0  0  0  0
  161.2160  203.9410  151.6120 C   0  0  0  0  0  2  0  0  0  0  0  0
  158.5190  209.8730  155.7880 C   0  0  0  0  0  2  0  0  0  0  0  0
  157.1070  210.3270  156.1410 C   0  0  0  0  0  2  0  0  0  0  0  0
  156.2270  210.3520  154.9070 C   0  0  0  0  0  2  0  0  0  0  0  0
  154.8080  209.9930  155.2880 C   0  0  0  0  0  1  0  0  0  0  0  0
  158.1910  212.7160  156.8240 C   0  0  0  0  0  2  0  0  0  0  0  0
  157.3920  214.0080  156.8250 C   0  0  0  0  0  2  0  0  0  0  0  0
  155.9710  213.7260  156.3850 C   0  0  0  0  0  1  0  0  0  0  0  0
  1 22  1  0  0  0  0
  2 12  1  0  0  0  0
  2 17  2  0  0  0  0
  3  9  1  6  0  0  0
  3  1  1  0  0  0  0
  3 13  1  0  0  0  0
  4 16  1  6  0  0  0
  4  8  1  0  0  0  0
  5  2  1  1  0  0  0
  6 15  1  0  0  0  0
  7 14  1  0  0  0  0
  8 19  1  0  0  0  0
  8  5  1  0  0  0  0
 10 11  1  0  0  0  0
 10 31  1  0  0  0  0
 11 35  1  0  0  0  0
 13  7  1  0  0  0  0
 14 11  1  0  0  0  0
 15  9  1  0  0  0  0
 15 20  1  0  0  0  0
 16 20  1  0  0  0  0
 18  5  1  0  0  0  0
 18 10  1  0  0  0  0
 19 23  1  0  0  0  0
 20  4  1  0  0  0  0
 20 22  1  0  0  0  0
 21  6  1  0  0  0  0
 21 15  1  0  0  0  0
 22 18  1  0  0  0  0
 23 12  1  0  0  0  0
 25 19  1  0  0  0  0
 25 24  1  0  0  0  0
 27 28  1  0  0  0  0
 27 25  1  0  0  0  0
 28 26  1  0  0  0  0
 28 25  1  0  0  0  0
 29 30  1  0  0  0  0
 30 27  1  0  0  0  0
 31 32  1  0  0  0  0
 33 34  1  0  0  0  0
 33 32  1  0  0  0  0
 35 36  1  0  0  0  0
 37 36  1  0  0  0  0
M  END
>  <MODEL>
5

>  <REMARK>
 VINA RESULT:       0.5      2.717      6.752
  Name = 
  7 active torsions:
  status: ('A' for Active; 'I' for Inactive)
    1  A    between atoms: C_3  and  C_32
    2  A    between atoms: C_8  and  C_31
    3  A    between atoms: C_9  and  C_13
    4  A    between atoms: C_9  and  C_16
    5  A    between atoms: C_13  and  C_20
    6  A    between atoms: C_18  and  C_35
    7  A    between atoms: C_21  and  C_32
                            x       y       z     vdW  Elec       q    Type
                         _______ _______ _______ _____ _____    ______ ____

>  <TORSDO>
F 7

$$$$
=
 OpenBabel11062409193D

 37 43  0  0  1  0  0  0  0  0999 V2000
  159.8630  205.0490  151.3890 C   0  0  0  0  0  2  0  0  0  0  0  0
  163.2270  207.3790  148.4210 C   0  0  0  0  0  0  0  0  0  0  0  0
  160.7400  204.3190  152.3950 C   0  0  1  0  0  3  0  0  0  0  0  0
  161.9300  208.3500  151.9570 C   0  0  1  0  0  3  0  0  0  0  0  0
  162.8250  207.1260  149.8500 C   0  0  1  0  0  3  0  0  0  0  0  0
  162.3710  206.6460  154.1830 O   0  0  0  0  0  0  0  0  0  0  0  0
  160.8340  202.1380  151.0840 C   0  0  0  0  0  2  0  0  0  0  0  0
  162.3880  208.4590  150.4920 C   0  0  1  0  0  3  0  0  0  0  0  0
  160.6460  205.0080  153.7420 C   0  0  0  0  0  2  0  0  0  0  0  0
  161.5630  205.0500  148.8230 C   0  0  2  0  0  3  0  0  0  0  0  0
  161.1200  203.5940  149.0900 C   0  0  2  0  0  3  0  0  0  0  0  0
  162.6450  208.5710  147.7180 C   0  0  0  0  0  2  0  0  0  0  0  0
  160.5170  202.8160  152.4280 C   0  0  0  0  0  2  0  0  0  0  0  0
  161.8590  202.8930  150.2300 C   0  0  0  0  0  2  0  0  0  0  0  0
  161.1180  206.4520  153.5730 C   0  0  2  0  0  0  0  0  0  0  0  0
  160.4230  208.5250  152.1630 C   0  0  0  0  0  2  0  0  0  0  0  0
  164.2690  206.7420  147.8940 C   0  0  0  0  0  2  0  0  0  0  0  0
  161.8430  205.9380  150.0760 C   0  0  2  0  0  3  0  0  0  0  0  0
  161.5180  209.3630  149.5760 C   0  0  2  0  0  3  0  0  0  0  0  0
  161.0240  207.1390  152.1810 C   0  0  1  0  0  0  0  0  0  0  0  0
  161.2620  207.2620  154.8020 C   0  0  0  0  0  2  0  0  0  0  0  0
  160.6150  206.3020  150.9430 C   0  0  2  0  0  3  0  0  0  0  0  0
  161.3770  208.8800  148.2510 O   0  0  0  0  0  0  0  0  0  0  0  0
  162.7460  211.2870  150.6080 O   0  0  0  0  0  1  0  0  0  0  0  0
  161.8600  210.8620  149.6070 C   0  0  1  0  0  0  0  0  0  0  0  0
  160.8310  213.1570  150.0050 C   0  0  0  0  0  1  0  0  0  0  0  0
  161.9500  211.5940  148.2710 C   0  0  1  0  0  3  0  0  0  0  0  0
  160.7570  211.8460  149.2250 C   0  0  1  0  0  3  0  0  0  0  0  0
  162.7230  213.6850  147.1630 C   0  0  0  0  0  1  0  0  0  0  0  0
  163.0230  212.6830  148.2590 C   0  0  0  0  0  2  0  0  0  0  0  0
  160.6930  205.7430  147.7570 C   0  0  0  0  0  2  0  0  0  0  0  0
  161.3090  205.7560  146.3630 C   0  0  0  0  0  2  0  0  0  0  0  0
  160.2360  205.6250  145.3010 C   0  0  0  0  0  2  0  0  0  0  0  0
  160.4570  204.3550  144.5100 C   0  0  0  0  0  1  0  0  0  0  0  0
  161.1510  202.7360  147.8240 C   0  0  0  0  0  2  0  0  0  0  0  0
  160.5230  201.3690  148.0430 C   0  0  0  0  0  2  0  0  0  0  0  0
  161.5260  200.2890  147.6940 C   0  0  0  0  0  1  0  0  0  0  0  0
  3  1  1  6  0  0  0
  3 13  1  0  0  0  0
  3  9  1  0  0  0  0
  4 16  1  6  0  0  0
  4 20  1  0  0  0  0
  5  2  1  6  0  0  0
  5 18  1  0  0  0  0
  5  8  1  0  0  0  0
  6 21  1  0  0  0  0
  7 13  1  0  0  0  0
  8  4  1  0  0  0  0
 10 11  1  0  0  0  0
 10 18  1  0  0  0  0
 11 14  1  0  0  0  0
 12 23  1  0  0  0  0
 12  2  1  0  0  0  0
 14  7  1  0  0  0  0
 15  9  1  0  0  0  0
 15  6  1  0  0  0  0
 15 21  1  0  0  0  0
 16 20  1  0  0  0  0
 17  2  2  0  0  0  0
 18 22  1  0  0  0  0
 19 25  1  0  0  0  0
 19  8  1  0  0  0  0
 20 15  1  0  0  0  0
 22  1  1  0  0  0  0
 22 20  1  0  0  0  0
 23 19  1  0  0  0  0
 25 24  1  0  0  0  0
 27 28  1  0  0  0  0
 27 25  1  0  0  0  0
 28 25  1  0  0  0  0
 28 26  1  0  0  0  0
 29 30  1  0  0  0  0
 30 27  1  0  0  0  0
 31 10  1  0  0  0  0
 32 31  1  0  0  0  0
 33 32  1  0  0  0  0
 34 33  1  0  0  0  0
 35 36  1  0  0  0  0
 35 11  1  0  0  0  0
 37 36  1  0  0  0  0
M  END
>  <MODEL>
6

>  <REMARK>
 VINA RESULT:       0.5      2.076      6.046
  Name = 
  7 active torsions:
  status: ('A' for Active; 'I' for Inactive)
    1  A    between atoms: C_3  and  C_32
    2  A    between atoms: C_8  and  C_31
    3  A    between atoms: C_9  and  C_13
    4  A    between atoms: C_9  and  C_16
    5  A    between atoms: C_13  and  C_20
    6  A    between atoms: C_18  and  C_35
    7  A    between atoms: C_21  and  C_32
                            x       y       z     vdW  Elec       q    Type
                         _______ _______ _______ _____ _____    ______ ____

>  <TORSDO>
F 7

$$$$
