=
 OpenBabel11062409253D

 37 38  0  0  1  0  0  0  0  0999 V2000
  161.3350  206.7320  153.8430 C   0  0  0  0  0  2  0  0  0  0  0  0
  162.2640  208.9080  151.9310 C   0  0  0  0  0  2  0  0  0  0  0  0
  161.8840  209.4920  154.8510 C   0  0  2  0  0  3  0  0  0  0  0  0
  161.0440  206.6980  152.3430 C   0  0  1  0  0  3  0  0  0  0  0  0
  160.2910  207.5430  154.5960 C   0  0  0  0  0  2  0  0  0  0  0  0
  160.9820  208.1030  151.7090 C   0  0  2  0  0  3  0  0  0  0  0  0
  161.9700  210.3120  152.4620 C   0  0  0  0  0  2  0  0  0  0  0  0
  160.9590  208.5130  155.5690 C   0  0  0  0  0  2  0  0  0  0  0  0
  162.6650  210.3400  155.8440 C   0  0  0  0  0  1  0  0  0  0  0  0
  161.1520  210.2900  153.7540 C   0  0  2  0  0  3  0  0  0  0  0  0
  159.5000  212.2900  153.4710 C   0  0  2  0  0  3  0  0  0  0  0  0
  159.4410  211.8120  154.9140 C   0  0  1  0  0  0  0  0  0  0  0  0
  158.7730  210.6050  155.1570 O   0  0  0  0  0  1  0  0  0  0  0  0
  158.7950  211.3280  152.5150 C   0  0  0  0  0  1  0  0  0  0  0  0
  160.7610  211.7210  154.1650 C   0  0  1  0  0  3  0  0  0  0  0  0
  158.2850  214.2380  155.4550 S   0  0  0  0  0  1  0  0  0  0  0  0
  159.3770  212.8850  155.9840 C   0  0  0  0  0  2  0  0  0  0  0  0
  162.0230  205.7910  151.6630 C   0  0  0  0  0  0  0  0  0  0  0  0
  163.2490  205.8850  151.9430 O   0  0  0  0  0  0  0  0  0  0  0  0
  161.5760  204.8670  150.7150 O   0  0  0  0  0  0  0  0  0  0  0  0
  160.7640  203.2610  152.3310 C   0  0  0  0  0  1  0  0  0  0  0  0
  161.4560  203.4750  150.9930 C   0  0  1  0  0  3  0  0  0  0  0  0
  160.6840  202.7620  149.8800 C   0  0  1  0  0  3  0  0  0  0  0  0
  160.9340  203.3640  148.5020 C   0  0  0  0  0  1  0  0  0  0  0  0
  161.3300  200.7000  148.5400 C   0  0  0  0  0  1  0  0  0  0  0  0
  160.9040  201.2490  149.8940 C   0  0  0  0  0  2  0  0  0  0  0  0
  160.6260  208.0310  150.2270 C   0  0  0  0  0  2  0  0  0  0  0  0
  161.7810  208.4970  149.3580 C   0  0  1  0  0  3  0  0  0  0  0  0
  162.1550  207.4450  148.4040 C   0  0  0  0  0  0  0  0  0  0  0  0
  162.4750  206.5800  147.6280 C   0  0  0  0  0  0  0  0  0  0  0  0
  162.8700  205.5270  146.6930 C   0  0  0  0  0  2  0  0  0  0  0  0
  161.1810  205.4850  144.6250 C   0  0  0  0  0  3  0  0  0  0  0  0
  161.9430  205.5050  145.5580 C   0  0  0  0  0  0  0  0  0  0  0  0
  161.3910  209.6710  148.6570 O   0  0  0  0  0  0  0  0  0  0  0  0
  163.2150  211.0340  148.2450 O   0  0  0  0  0  0  0  0  0  0  0  0
  162.0800  210.8810  148.7720 C   0  0  0  0  0  0  0  0  0  0  0  0
  161.4660  212.0030  149.5270 C   0  0  0  0  0  1  0  0  0  0  0  0
  1  5  1  0  0  0  0
  2  7  1  0  0  0  0
  3  8  1  0  0  0  0
  3  9  1  1  0  0  0
  4 18  1  6  0  0  0
  4  1  1  0  0  0  0
  5  8  1  0  0  0  0
  6 27  1  6  0  0  0
  6  2  1  0  0  0  0
  6  4  1  0  0  0  0
 10  7  1  6  0  0  0
 10  3  1  0  0  0  0
 11 14  1  6  0  0  0
 11 15  1  0  0  0  0
 11 12  1  0  0  0  0
 12 13  1  1  0  0  0
 12 17  1  0  0  0  0
 15 10  1  6  0  0  0
 15 12  1  0  0  0  0
 16 17  1  0  0  0  0
 18 19  2  0  0  0  0
 20 22  1  0  0  0  0
 20 18  1  0  0  0  0
 22 21  1  1  0  0  0
 23 24  1  6  0  0  0
 23 26  1  0  0  0  0
 23 22  1  0  0  0  0
 25 26  1  0  0  0  0
 28 29  1  6  0  0  0
 28 27  1  0  0  0  0
 30 29  3  0  0  0  0
 31 30  1  0  0  0  0
 32 33  3  0  0  0  0
 33 31  1  0  0  0  0
 34 36  1  0  0  0  0
 34 28  1  0  0  0  0
 35 36  2  0  0  0  0
 36 37  1  0  0  0  0
M  END
>  <MODEL>
1

>  <REMARK>
 VINA RESULT:      -6.5      0.000      0.000
  Name = 
  14 active torsions:
  status: ('A' for Active; 'I' for Inactive)
    1  A    between atoms: C_2  and  C_19
    2  A    between atoms: C_2  and  C_35
    3  A    between atoms: C_4  and  O_13
    4  A    between atoms: C_4  and  C_20
    5  A    between atoms: C_4  and  C_22
    6  A    between atoms: C_5  and  C_23
    7  A    between atoms: O_6  and  C_31
    8  A    between atoms: O_6  and  C_35
    9  A    between atoms: O_13  and  C_16
   10  A    between atoms: C_14  and  C_31
   11  A    between atoms: C_22  and  C_28
   12  A    between atoms: C_25  and  C_32
   13  A    between atoms: C_26  and  C_36
   14  A    between atoms: C_30  and  C_32
                            x       y       z     vdW  Elec       q    Type
                         _______ _______ _______ _____ _____    ______ ____

>  <TORSDO>
F 14

$$$$
