=
 OpenBabel11062410433D

 32 38  0  0  1  0  0  0  0  0999 V2000
  161.4680  208.3230  149.4650 C   0  0  1  0  0  3  0  0  0  0  0  0
  162.1850  212.6370  148.4250 C   0  0  0  0  0  2  0  0  0  0  0  0
  160.8400  213.0980  148.9840 C   0  0  0  0  0  2  0  0  0  0  0  0
  161.3840  208.0110  151.9660 C   0  0  0  0  0  0  0  0  0  0  0  0
  161.2470  206.6380  151.8550 C   0  0  0  0  0  0  0  0  0  0  0  0
  161.1770  207.9100  154.3750 C   0  0  0  0  0  0  0  0  0  0  0  0
  161.8230  210.3200  148.2660 O   0  0  0  0  0  0  0  0  0  0  0  0
  162.4230  209.1010  148.5790 C   0  0  0  0  0  2  0  0  0  0  0  0
  162.4660  211.2870  149.0510 C   0  0  2  0  0  3  0  0  0  0  0  0
  161.6350  210.2070  151.2690 C   0  0  0  0  0  0  0  0  0  0  0  0
  161.0240  206.5140  154.2780 C   0  0  0  0  0  3  0  0  0  0  0  0
  161.0560  205.8770  153.0190 C   0  0  0  0  0  3  0  0  0  0  0  0
  160.5280  212.2100  150.1790 C   0  0  0  0  0  2  0  0  0  0  0  0
  161.8010  211.4330  150.4130 C   0  0  2  0  0  3  0  0  0  0  0  0
  161.5270  210.2880  152.9620 S   0  0  0  0  0  0  0  0  0  0  0  0
  161.7250  206.7850  149.3650 C   0  0  1  0  0  3  0  0  0  0  0  0
  161.2890  206.0420  150.5600 N   0  0  0  0  0  2  0  0  0  0  0  0
  161.1440  208.5430  155.6110 O   0  0  0  0  0  1  0  0  0  0  0  0
  161.5360  208.8590  150.8750 C   0  0  0  0  0  0  0  0  0  0  0  0
  161.3550  208.6340  153.1950 C   0  0  0  0  0  0  0  0  0  0  0  0
  162.5220  204.3020  147.3830 C   0  0  0  0  0  2  0  0  0  0  0  0
  161.1800  206.1000  148.0690 C   0  0  1  0  0  0  0  0  0  0  0  0
  159.7450  206.5140  147.7820 C   0  0  0  0  0  1  0  0  0  0  0  0
  162.7910  205.4050  146.3890 C   0  0  0  0  0  2  0  0  0  0  0  0
  162.0160  206.5980  146.8990 C   0  0  0  0  0  2  0  0  0  0  0  0
  161.2660  204.6230  148.0390 N   0  0  0  0  0  0  0  0  0  0  0  0
  161.2560  203.9710  149.3480 C   0  0  0  0  0  2  0  0  0  0  0  0
  160.8920  201.9250  147.9830 C   0  0  0  0  0  2  0  0  0  0  0  0
  160.9930  201.7710  150.3510 N   0  0  0  0  0  2  0  0  0  0  0  0
  161.2660  200.5400  148.4330 C   0  0  0  0  0  2  0  0  0  0  0  0
  160.5460  202.6310  149.2670 C   0  0  1  0  0  3  0  0  0  0  0  0
  160.9680  200.4570  149.8550 N   0  0  0  0  0  2  0  0  0  0  0  0
  1  8  1  6  0  0  0
  1 19  1  0  0  0  0
  2  3  1  0  0  0  0
  3 13  1  0  0  0  0
  4 20  1  0  0  0  0
  5  4  2  0  0  0  0
  5 12  1  0  0  0  0
  6 18  1  0  0  0  0
  7  8  1  0  0  0  0
  7  9  1  0  0  0  0
  9  2  1  6  0  0  0
  9 14  1  0  0  0  0
 10 15  1  0  0  0  0
 11  6  1  0  0  0  0
 12 11  2  0  0  0  0
 14 13  1  6  0  0  0
 14 10  1  0  0  0  0
 15 20  1  0  0  0  0
 16  1  1  0  0  0  0
 16 17  1  1  0  0  0
 17  5  1  0  0  0  0
 19 10  2  0  0  0  0
 19  4  1  0  0  0  0
 20  6  2  0  0  0  0
 21 26  1  0  0  0  0
 22 23  1  6  0  0  0
 22 16  1  0  0  0  0
 24 25  1  0  0  0  0
 24 21  1  0  0  0  0
 25 22  1  0  0  0  0
 26 22  1  0  0  0  0
 26 27  1  0  0  0  0
 28 30  1  0  0  0  0
 28 31  1  0  0  0  0
 30 32  1  0  0  0  0
 31 27  1  6  0  0  0
 31 29  1  0  0  0  0
 32 29  1  0  0  0  0
M  END
>  <MODEL>
1

>  <REMARK>
 VINA RESULT:      -7.8      0.000      0.000
  Name = 
  3 active torsions:
  status: ('A' for Active; 'I' for Inactive)
    1  A    between atoms: C_8  and  C_28
    2  A    between atoms: C_19  and  C_24
    3  A    between atoms: N_23  and  C_24
                            x       y       z     vdW  Elec       q    Type
                         _______ _______ _______ _____ _____    ______ ____

>  <TORSDO>
F 3

$$$$
=
 OpenBabel11062410433D

 32 38  0  0  1  0  0  0  0  0999 V2000
  160.8900  207.5710  153.0270 C   0  0  1  0  0  3  0  0  0  0  0  0
  161.6000  203.3360  151.7000 C   0  0  0  0  0  2  0  0  0  0  0  0
  160.4830  203.3710  150.6580 C   0  0  0  0  0  2  0  0  0  0  0  0
  161.4430  209.1910  151.1760 C   0  0  0  0  0  0  0  0  0  0  0  0
  161.1890  210.2920  151.9750 C   0  0  0  0  0  0  0  0  0  0  0  0
  161.8690  210.5950  149.2520 C   0  0  0  0  0  0  0  0  0  0  0  0
  161.0520  205.2210  152.9920 O   0  0  0  0  0  0  0  0  0  0  0  0
  161.6290  206.3570  153.5580 C   0  0  0  0  0  2  0  0  0  0  0  0
  161.9430  204.7790  152.0040 C   0  0  2  0  0  3  0  0  0  0  0  0
  161.6510  206.9550  150.6040 C   0  0  0  0  0  0  0  0  0  0  0  0
  161.6020  211.7250  150.0470 C   0  0  0  0  0  3  0  0  0  0  0  0
  161.2590  211.5740  151.4090 C   0  0  0  0  0  3  0  0  0  0  0  0
  160.4360  204.7870  150.1050 C   0  0  0  0  0  2  0  0  0  0  0  0
  161.6700  205.4510  150.6650 C   0  0  2  0  0  3  0  0  0  0  0  0
  161.9960  207.8110  149.1790 S   0  0  0  0  0  0  0  0  0  0  0  0
  161.0070  208.7820  154.0080 C   0  0  1  0  0  3  0  0  0  0  0  0
  160.8490  210.0880  153.3450 N   0  0  0  0  0  2  0  0  0  0  0  0
  162.2040  210.7360  147.9110 O   0  0  0  0  0  1  0  0  0  0  0  0
  161.3610  207.8790  151.6260 C   0  0  0  0  0  0  0  0  0  0  0  0
  161.7800  209.3360  149.8470 C   0  0  0  0  0  0  0  0  0  0  0  0
  161.3440  208.5940  157.2610 C   0  0  0  0  0  2  0  0  0  0  0  0
  160.0960  208.7030  155.2770 C   0  0  1  0  0  0  0  0  0  0  0  0
  158.6590  209.0820  154.9560 C   0  0  0  0  0  1  0  0  0  0  0  0
  160.7730  207.2100  157.0700 C   0  0  0  0  0  2  0  0  0  0  0  0
  160.0680  207.2520  155.7340 C   0  0  0  0  0  2  0  0  0  0  0  0
  160.5490  209.4950  156.4430 N   0  0  0  0  0  0  0  0  0  0  0  0
  161.3680  210.6630  156.1230 C   0  0  0  0  0  2  0  0  0  0  0  0
  160.0880  212.5690  155.1690 C   0  0  0  0  0  2  0  0  0  0  0  0
  159.4540  211.6400  157.2610 N   0  0  0  0  0  2  0  0  0  0  0  0
  158.6470  212.8530  155.4880 C   0  0  0  0  0  2  0  0  0  0  0  0
  160.6110  211.9420  156.4340 C   0  0  1  0  0  3  0  0  0  0  0  0
  158.4530  212.5570  156.8990 N   0  0  0  0  0  2  0  0  0  0  0  0
  1  8  1  1  0  0  0
  1 16  1  0  0  0  0
  3  2  1  0  0  0  0
  4 19  1  0  0  0  0
  4  5  1  0  0  0  0
  5 17  1  0  0  0  0
  6 20  1  0  0  0  0
  6 11  2  0  0  0  0
  7  8  1  0  0  0  0
  9  2  1  6  0  0  0
  9  7  1  0  0  0  0
 10 14  1  0  0  0  0
 10 19  2  0  0  0  0
 11 12  1  0  0  0  0
 12  5  2  0  0  0  0
 13  3  1  0  0  0  0
 14 13  1  1  0  0  0
 14  9  1  0  0  0  0
 15 20  1  0  0  0  0
 15 10  1  0  0  0  0
 16 17  1  6  0  0  0
 16 22  1  0  0  0  0
 18  6  1  0  0  0  0
 19  1  1  0  0  0  0
 20  4  2  0  0  0  0
 22 23  1  6  0  0  0
 22 25  1  0  0  0  0
 22 26  1  0  0  0  0
 24 21  1  0  0  0  0
 25 24  1  0  0  0  0
 26 21  1  0  0  0  0
 27 26  1  0  0  0  0
 28 30  1  0  0  0  0
 28 31  1  0  0  0  0
 30 32  1  0  0  0  0
 31 27  1  6  0  0  0
 31 29  1  0  0  0  0
 32 29  1  0  0  0  0
M  END
>  <MODEL>
2

>  <REMARK>
 VINA RESULT:      -7.4      3.624      8.312
  Name = 
  3 active torsions:
  status: ('A' for Active; 'I' for Inactive)
    1  A    between atoms: C_8  and  C_28
    2  A    between atoms: C_19  and  C_24
    3  A    between atoms: N_23  and  C_24
                            x       y       z     vdW  Elec       q    Type
                         _______ _______ _______ _____ _____    ______ ____

>  <TORSDO>
F 3

$$$$
=
 OpenBabel11062410433D

 32 38  0  0  1  0  0  0  0  0999 V2000
  161.3450  207.5070  152.6230 C   0  0  1  0  0  3  0  0  0  0  0  0
  160.2830  208.8470  156.7810 C   0  0  0  0  0  2  0  0  0  0  0  0
  161.5700  209.6510  156.9570 C   0  0  0  0  0  2  0  0  0  0  0  0
  161.3990  209.4690  151.0400 C   0  0  0  0  0  0  0  0  0  0  0  0
  161.6560  208.6620  149.9460 C   0  0  0  0  0  0  0  0  0  0  0  0
  161.5570  211.4720  149.6920 C   0  0  0  0  0  0  0  0  0  0  0  0
  160.8480  207.5180  154.9260 O   0  0  0  0  0  0  0  0  0  0  0  0
  160.3480  207.1020  153.6930 C   0  0  0  0  0  2  0  0  0  0  0  0
  160.1050  208.6500  155.2890 C   0  0  2  0  0  3  0  0  0  0  0  0
  160.9750  210.0170  153.2520 C   0  0  0  0  0  0  0  0  0  0  0  0
  161.8330  210.6660  148.5710 C   0  0  0  0  0  3  0  0  0  0  0  0
  161.8850  209.2610  148.6970 C   0  0  0  0  0  3  0  0  0  0  0  0
  161.9290  210.2180  155.5910 C   0  0  0  0  0  2  0  0  0  0  0  0
  160.7240  209.9260  154.7320 C   0  0  2  0  0  3  0  0  0  0  0  0
  161.0370  211.5020  152.4310 S   0  0  0  0  0  0  0  0  0  0  0  0
  161.2240  206.5970  151.3590 C   0  0  1  0  0  3  0  0  0  0  0  0
  161.6960  207.2480  150.1240 N   0  0  0  0  0  2  0  0  0  0  0  0
  161.5070  212.8560  149.5750 O   0  0  0  0  0  1  0  0  0  0  0  0
  161.1990  208.9800  152.3260 C   0  0  0  0  0  0  0  0  0  0  0  0
  161.3450  210.8420  150.9190 C   0  0  0  0  0  0  0  0  0  0  0  0
  160.3740  203.4760  150.8480 C   0  0  0  0  0  2  0  0  0  0  0  0
  161.8560  205.1730  151.4990 C   0  0  1  0  0  0  0  0  0  0  0  0
  163.3670  205.2480  151.6640 C   0  0  0  0  0  1  0  0  0  0  0  0
  160.4500  203.3850  152.3520 C   0  0  0  0  0  2  0  0  0  0  0  0
  161.3130  204.5520  152.7770 C   0  0  0  0  0  2  0  0  0  0  0  0
  161.5420  204.2210  150.4100 N   0  0  0  0  0  0  0  0  0  0  0  0
  161.2340  204.8320  149.1180 C   0  0  0  0  0  2  0  0  0  0  0  0
  161.2690  202.9820  147.4560 C   0  0  0  0  0  2  0  0  0  0  0  0
  162.2250  205.0870  146.9120 N   0  0  0  0  0  2  0  0  0  0  0  0
  161.3340  203.1930  145.9690 C   0  0  0  0  0  2  0  0  0  0  0  0
  162.0280  204.1580  148.0120 C   0  0  1  0  0  3  0  0  0  0  0  0
  162.2260  204.3190  145.7350 N   0  0  0  0  0  2  0  0  0  0  0  0
  1  8  1  1  0  0  0
  2  3  1  0  0  0  0
  4 19  1  0  0  0  0
  5 17  1  0  0  0  0
  5  4  2  0  0  0  0
  6 20  2  0  0  0  0
  7  9  1  0  0  0  0
  8  7  1  0  0  0  0
  9  2  1  1  0  0  0
 10 14  1  0  0  0  0
 11 12  2  0  0  0  0
 11  6  1  0  0  0  0
 12  5  1  0  0  0  0
 13  3  1  0  0  0  0
 14  9  1  0  0  0  0
 14 13  1  1  0  0  0
 15 10  1  0  0  0  0
 16 17  1  6  0  0  0
 16 22  1  0  0  0  0
 16  1  1  0  0  0  0
 18  6  1  0  0  0  0
 19  1  1  0  0  0  0
 19 10  2  0  0  0  0
 20  4  1  0  0  0  0
 20 15  1  0  0  0  0
 21 24  1  0  0  0  0
 22 23  1  1  0  0  0
 22 25  1  0  0  0  0
 24 25  1  0  0  0  0
 26 21  1  0  0  0  0
 26 22  1  0  0  0  0
 27 26  1  0  0  0  0
 28 31  1  0  0  0  0
 29 31  1  0  0  0  0
 30 28  1  0  0  0  0
 31 27  1  1  0  0  0
 32 30  1  0  0  0  0
 32 29  1  0  0  0  0
M  END
>  <MODEL>
3

>  <REMARK>
 VINA RESULT:      -6.8      1.720      5.023
  Name = 
  3 active torsions:
  status: ('A' for Active; 'I' for Inactive)
    1  A    between atoms: C_8  and  C_28
    2  A    between atoms: C_19  and  C_24
    3  A    between atoms: N_23  and  C_24
                            x       y       z     vdW  Elec       q    Type
                         _______ _______ _______ _____ _____    ______ ____

>  <TORSDO>
F 3

$$$$
=
 OpenBabel11062410433D

 32 38  0  0  1  0  0  0  0  0999 V2000
  161.6450  207.6490  149.4900 C   0  0  1  0  0  3  0  0  0  0  0  0
  161.4840  206.2030  145.2370 C   0  0  0  0  0  2  0  0  0  0  0  0
  162.6990  205.2900  145.3970 C   0  0  0  0  0  2  0  0  0  0  0  0
  161.1460  205.7670  151.0920 C   0  0  0  0  0  0  0  0  0  0  0  0
  161.2070  206.6020  152.1930 C   0  0  0  0  0  0  0  0  0  0  0  0
  160.8000  203.8240  152.4920 C   0  0  0  0  0  0  0  0  0  0  0  0
  161.7090  207.5690  147.1360 O   0  0  0  0  0  0  0  0  0  0  0  0
  160.9700  208.0810  148.2010 C   0  0  0  0  0  2  0  0  0  0  0  0
  160.9760  206.4840  146.6350 C   0  0  2  0  0  3  0  0  0  0  0  0
  161.2120  205.1500  148.8580 C   0  0  0  0  0  0  0  0  0  0  0  0
  160.8720  204.6570  153.6240 C   0  0  0  0  0  3  0  0  0  0  0  0
  161.0780  206.0460  153.4760 C   0  0  0  0  0  3  0  0  0  0  0  0
  162.6720  204.7620  146.8240 C   0  0  0  0  0  2  0  0  0  0  0  0
  161.3280  205.1910  147.3590 C   0  0  2  0  0  3  0  0  0  0  0  0
  160.9440  203.7060  149.7100 S   0  0  0  0  0  0  0  0  0  0  0  0
  161.3090  208.6250  150.6630 C   0  0  1  0  0  3  0  0  0  0  0  0
  161.4140  207.9980  151.9920 N   0  0  0  0  0  2  0  0  0  0  0  0
  160.6000  202.4560  152.6310 O   0  0  0  0  0  1  0  0  0  0  0  0
  161.3010  206.2090  149.7830 C   0  0  0  0  0  0  0  0  0  0  0  0
  160.9420  204.4100  151.2330 C   0  0  0  0  0  0  0  0  0  0  0  0
  160.8310  211.6990  149.6370 C   0  0  0  0  0  2  0  0  0  0  0  0
  162.0810  209.9850  150.6400 C   0  0  1  0  0  0  0  0  0  0  0  0
  163.2740  209.9650  151.5840 C   0  0  0  0  0  1  0  0  0  0  0  0
  161.9110  211.3550  148.6410 C   0  0  0  0  0  2  0  0  0  0  0  0
  162.6420  210.1740  149.2390 C   0  0  0  0  0  2  0  0  0  0  0  0
  161.2680  211.1900  150.9260 N   0  0  0  0  0  0  0  0  0  0  0  0
  160.0830  210.9600  151.7510 C   0  0  0  0  0  2  0  0  0  0  0  0
  158.7900  211.9570  153.6260 C   0  0  0  0  0  2  0  0  0  0  0  0
  160.9620  211.0790  154.0150 N   0  0  0  0  0  2  0  0  0  0  0  0
  158.9880  211.5880  155.0700 C   0  0  0  0  0  2  0  0  0  0  0  0
  160.1590  211.7800  153.0270 C   0  0  1  0  0  3  0  0  0  0  0  0
  160.4160  211.3950  155.2710 N   0  0  0  0  0  2  0  0  0  0  0  0
  1  8  1  6  0  0  0
  1 19  1  0  0  0  0
  1 16  1  0  0  0  0
  2  3  1  0  0  0  0
  3 13  1  0  0  0  0
  4 20  2  0  0  0  0
  4  5  1  0  0  0  0
  5 12  2  0  0  0  0
  6 18  1  0  0  0  0
  6 11  2  0  0  0  0
  7  8  1  0  0  0  0
  9  2  1  6  0  0  0
  9  7  1  0  0  0  0
  9 14  1  0  0  0  0
 10 15  1  0  0  0  0
 10 19  2  0  0  0  0
 12 11  1  0  0  0  0
 14 13  1  1  0  0  0
 14 10  1  0  0  0  0
 15 20  1  0  0  0  0
 16 17  1  1  0  0  0
 17  5  1  0  0  0  0
 19  4  1  0  0  0  0
 20  6  1  0  0  0  0
 21 26  1  0  0  0  0
 22 16  1  0  0  0  0
 22 26  1  0  0  0  0
 22 23  1  1  0  0  0
 24 25  1  0  0  0  0
 24 21  1  0  0  0  0
 25 22  1  0  0  0  0
 26 27  1  0  0  0  0
 28 30  1  0  0  0  0
 29 32  1  0  0  0  0
 30 32  1  0  0  0  0
 31 27  1  6  0  0  0
 31 28  1  0  0  0  0
 31 29  1  0  0  0  0
M  END
>  <MODEL>
4

>  <REMARK>
 VINA RESULT:      -5.8      3.145      6.717
  Name = 
  3 active torsions:
  status: ('A' for Active; 'I' for Inactive)
    1  A    between atoms: C_8  and  C_28
    2  A    between atoms: C_19  and  C_24
    3  A    between atoms: N_23  and  C_24
                            x       y       z     vdW  Elec       q    Type
                         _______ _______ _______ _____ _____    ______ ____

>  <TORSDO>
F 3

$$$$
=
 OpenBabel11062410433D

 32 38  0  0  1  0  0  0  0  0999 V2000
  161.2380  209.1220  152.7390 C   0  0  1  0  0  3  0  0  0  0  0  0
  161.2860  212.3460  149.6070 C   0  0  0  0  0  2  0  0  0  0  0  0
  162.6630  211.9500  149.0790 C   0  0  0  0  0  2  0  0  0  0  0  0
  161.1630  206.8400  151.6680 C   0  0  0  0  0  0  0  0  0  0  0  0
  161.0770  206.1980  152.8910 C   0  0  0  0  0  0  0  0  0  0  0  0
  161.2470  204.7310  150.4850 C   0  0  0  0  0  0  0  0  0  0  0  0
  161.2690  211.2220  151.6710 O   0  0  0  0  0  0  0  0  0  0  0  0
  160.4630  210.3940  152.4530 C   0  0  0  0  0  2  0  0  0  0  0  0
  160.7600  211.1460  150.3670 C   0  0  2  0  0  3  0  0  0  0  0  0
  161.3070  208.6080  150.1770 C   0  0  0  0  0  0  0  0  0  0  0  0
  161.1730  204.0620  151.7210 C   0  0  0  0  0  3  0  0  0  0  0  0
  161.0900  204.7940  152.9250 C   0  0  0  0  0  3  0  0  0  0  0  0
  162.7730  210.4380  149.2160 C   0  0  0  0  0  2  0  0  0  0  0  0
  161.3820  209.9920  149.5920 C   0  0  2  0  0  3  0  0  0  0  0  0
  161.3540  207.2100  149.2140 S   0  0  0  0  0  0  0  0  0  0  0  0
  160.7360  208.4320  154.0480 C   0  0  1  0  0  3  0  0  0  0  0  0
  160.9930  206.9820  154.0790 N   0  0  0  0  0  2  0  0  0  0  0  0
  161.3310  204.0160  149.2960 O   0  0  0  0  0  1  0  0  0  0  0  0
  161.1990  208.2220  151.5270 C   0  0  0  0  0  0  0  0  0  0  0  0
  161.2420  206.1260  150.4910 C   0  0  0  0  0  0  0  0  0  0  0  0
  160.7730  211.4020  155.4290 C   0  0  0  0  0  2  0  0  0  0  0  0
  161.2160  209.0990  155.3790 C   0  0  1  0  0  0  0  0  0  0  0  0
  161.5070  208.0580  156.4490 C   0  0  0  0  0  1  0  0  0  0  0  0
  162.2660  211.2850  155.2410 C   0  0  0  0  0  2  0  0  0  0  0  0
  162.5330  209.8040  155.0920 C   0  0  0  0  0  2  0  0  0  0  0  0
  160.3120  210.1250  155.9460 N   0  0  0  0  0  0  0  0  0  0  0  0
  158.9000  209.9740  155.5940 C   0  0  0  0  0  2  0  0  0  0  0  0
  157.2930  211.4240  154.3700 C   0  0  0  0  0  2  0  0  0  0  0  0
  157.3980  211.5040  156.7410 N   0  0  0  0  0  2  0  0  0  0  0  0
  156.0130  211.9430  154.9640 C   0  0  0  0  0  2  0  0  0  0  0  0
  158.2180  211.3310  155.5540 C   0  0  1  0  0  3  0  0  0  0  0  0
  156.2900  212.2770  156.3530 N   0  0  0  0  0  2  0  0  0  0  0  0
  1  8  1  6  0  0  0
  1 16  1  0  0  0  0
  3 13  1  0  0  0  0
  3  2  1  0  0  0  0
  4  5  1  0  0  0  0
  5 12  2  0  0  0  0
  5 17  1  0  0  0  0
  6 20  1  0  0  0  0
  6 11  2  0  0  0  0
  7  8  1  0  0  0  0
  9  2  1  6  0  0  0
  9  7  1  0  0  0  0
 10 19  2  0  0  0  0
 11 12  1  0  0  0  0
 14 13  1  1  0  0  0
 14 10  1  0  0  0  0
 14  9  1  0  0  0  0
 15 10  1  0  0  0  0
 15 20  1  0  0  0  0
 16 17  1  1  0  0  0
 16 22  1  0  0  0  0
 18  6  1  0  0  0  0
 19  4  1  0  0  0  0
 19  1  1  0  0  0  0
 20  4  2  0  0  0  0
 21 26  1  0  0  0  0
 22 26  1  0  0  0  0
 22 23  1  1  0  0  0
 24 21  1  0  0  0  0
 25 24  1  0  0  0  0
 25 22  1  0  0  0  0
 27 26  1  0  0  0  0
 28 30  1  0  0  0  0
 28 31  1  0  0  0  0
 30 32  1  0  0  0  0
 31 27  1  1  0  0  0
 31 29  1  0  0  0  0
 32 29  1  0  0  0  0
M  END
>  <MODEL>
5

>  <REMARK>
 VINA RESULT:      -5.6      3.865      7.278
  Name = 
  3 active torsions:
  status: ('A' for Active; 'I' for Inactive)
    1  A    between atoms: C_8  and  C_28
    2  A    between atoms: C_19  and  C_24
    3  A    between atoms: N_23  and  C_24
                            x       y       z     vdW  Elec       q    Type
                         _______ _______ _______ _____ _____    ______ ____

>  <TORSDO>
F 3

$$$$
=
 OpenBabel11062410433D

 32 38  0  0  1  0  0  0  0  0999 V2000
  161.0330  208.7090  153.0920 C   0  0  1  0  0  3  0  0  0  0  0  0
  162.0440  204.4740  151.9730 C   0  0  0  0  0  2  0  0  0  0  0  0
  160.8680  204.3450  151.0060 C   0  0  0  0  0  2  0  0  0  0  0  0
  161.3240  210.2480  151.1160 C   0  0  0  0  0  0  0  0  0  0  0  0
  161.0200  211.3710  151.8640 C   0  0  0  0  0  0  0  0  0  0  0  0
  161.5040  211.5570  149.0890 C   0  0  0  0  0  0  0  0  0  0  0  0
  161.4060  206.3840  153.1850 O   0  0  0  0  0  0  0  0  0  0  0  0
  161.9100  207.6010  153.6440 C   0  0  0  0  0  2  0  0  0  0  0  0
  162.2720  205.9590  152.1680 C   0  0  2  0  0  3  0  0  0  0  0  0
  161.6990  208.0060  150.6640 C   0  0  0  0  0  0  0  0  0  0  0  0
  161.1830  212.7080  149.8320 C   0  0  0  0  0  3  0  0  0  0  0  0
  160.9390  212.6160  151.2200 C   0  0  0  0  0  3  0  0  0  0  0  0
  160.6590  205.7130  150.3750 C   0  0  0  0  0  2  0  0  0  0  0  0
  161.8580  206.5170  150.8130 C   0  0  2  0  0  3  0  0  0  0  0  0
  161.8790  208.7950  149.1720 S   0  0  0  0  0  0  0  0  0  0  0  0
  161.0980  209.9860  153.9900 C   0  0  1  0  0  3  0  0  0  0  0  0
  160.7830  211.2280  153.2630 N   0  0  0  0  0  2  0  0  0  0  0  0
  161.7440  211.6390  147.7230 O   0  0  0  0  0  1  0  0  0  0  0  0
  161.3890  208.9650  151.6480 C   0  0  0  0  0  0  0  0  0  0  0  0
  161.5660  210.3350  149.7610 C   0  0  0  0  0  0  0  0  0  0  0  0
  160.2100  211.9690  156.4410 C   0  0  0  0  0  2  0  0  0  0  0  0
  160.2760  209.9100  155.3190 C   0  0  1  0  0  0  0  0  0  0  0  0
  159.4250  208.6510  155.3760 C   0  0  0  0  0  1  0  0  0  0  0  0
  161.1350  211.0980  157.2550 C   0  0  0  0  0  2  0  0  0  0  0  0
  161.2670  209.8140  156.4690 C   0  0  0  0  0  2  0  0  0  0  0  0
  159.4170  211.0800  155.6100 N   0  0  0  0  0  0  0  0  0  0  0  0
  158.9680  211.8310  154.4380 C   0  0  0  0  0  2  0  0  0  0  0  0
  156.8200  211.5680  155.6610 C   0  0  0  0  0  2  0  0  0  0  0  0
  156.9490  213.0160  153.7840 N   0  0  0  0  0  2  0  0  0  0  0  0
  155.7400  212.6140  155.6940 C   0  0  0  0  0  2  0  0  0  0  0  0
  157.4560  211.7610  154.3110 C   0  0  1  0  0  3  0  0  0  0  0  0
  155.6860  213.2150  154.3690 N   0  0  0  0  0  2  0  0  0  0  0  0
  1  8  1  1  0  0  0
  1 16  1  0  0  0  0
  3  2  1  0  0  0  0
  4 19  1  0  0  0  0
  4  5  1  0  0  0  0
  5 17  1  0  0  0  0
  6 20  1  0  0  0  0
  6 11  2  0  0  0  0
  7  8  1  0  0  0  0
  9  2  1  6  0  0  0
  9  7  1  0  0  0  0
 10 14  1  0  0  0  0
 10 19  2  0  0  0  0
 11 12  1  0  0  0  0
 12  5  2  0  0  0  0
 13  3  1  0  0  0  0
 14 13  1  1  0  0  0
 14  9  1  0  0  0  0
 15 20  1  0  0  0  0
 15 10  1  0  0  0  0
 16 17  1  6  0  0  0
 16 22  1  0  0  0  0
 18  6  1  0  0  0  0
 19  1  1  0  0  0  0
 20  4  2  0  0  0  0
 21 24  1  0  0  0  0
 22 23  1  6  0  0  0
 22 26  1  0  0  0  0
 22 25  1  0  0  0  0
 25 24  1  0  0  0  0
 26 21  1  0  0  0  0
 27 26  1  0  0  0  0
 28 30  1  0  0  0  0
 29 31  1  0  0  0  0
 29 32  1  0  0  0  0
 31 27  1  1  0  0  0
 31 28  1  0  0  0  0
 32 30  1  0  0  0  0
M  END
>  <MODEL>
6

>  <REMARK>
 VINA RESULT:      -5.6      3.988      8.492
  Name = 
  3 active torsions:
  status: ('A' for Active; 'I' for Inactive)
    1  A    between atoms: C_8  and  C_28
    2  A    between atoms: C_19  and  C_24
    3  A    between atoms: N_23  and  C_24
                            x       y       z     vdW  Elec       q    Type
                         _______ _______ _______ _____ _____    ______ ____

>  <TORSDO>
F 3

$$$$
=
 OpenBabel11062410433D

 32 38  0  0  1  0  0  0  0  0999 V2000
  161.5110  205.9360  148.9460 C   0  0  1  0  0  3  0  0  0  0  0  0
  160.8310  206.3050  144.5180 C   0  0  0  0  0  2  0  0  0  0  0  0
  162.0080  205.3990  144.1620 C   0  0  0  0  0  2  0  0  0  0  0  0
  161.0880  203.5730  149.7200 C   0  0  0  0  0  0  0  0  0  0  0  0
  161.3070  203.8990  151.0460 C   0  0  0  0  0  0  0  0  0  0  0  0
  160.7930  201.2350  150.2680 C   0  0  0  0  0  0  0  0  0  0  0  0
  161.3230  206.8000  146.7630 O   0  0  0  0  0  0  0  0  0  0  0  0
  160.7270  206.8490  148.0220 C   0  0  0  0  0  2  0  0  0  0  0  0
  160.4880  206.0080  145.9640 C   0  0  2  0  0  3  0  0  0  0  0  0
  160.8880  203.8970  147.4340 C   0  0  0  0  0  0  0  0  0  0  0  0
  161.0260  201.5470  151.6200 C   0  0  0  0  0  3  0  0  0  0  0  0
  161.2860  202.8790  152.0100 C   0  0  0  0  0  3  0  0  0  0  0  0
  162.1050  204.3460  145.2560 C   0  0  0  0  0  2  0  0  0  0  0  0
  160.8480  204.5320  146.0700 C   0  0  2  0  0  3  0  0  0  0  0  0
  160.6380  202.2350  147.6690 S   0  0  0  0  0  0  0  0  0  0  0  0
  161.3500  206.3650  150.4400 C   0  0  1  0  0  3  0  0  0  0  0  0
  161.5620  205.2590  151.3910 N   0  0  0  0  0  2  0  0  0  0  0  0
  160.5400  199.9260  149.8760 O   0  0  0  0  0  1  0  0  0  0  0  0
  161.1280  204.4990  148.6840 C   0  0  0  0  0  0  0  0  0  0  0  0
  160.8320  202.2740  149.3360 C   0  0  0  0  0  0  0  0  0  0  0  0
  160.8320  209.4980  151.2400 C   0  0  0  0  0  2  0  0  0  0  0  0
  162.1830  207.6170  150.8680 C   0  0  1  0  0  0  0  0  0  0  0  0
  163.5920  207.2310  151.2930 C   0  0  0  0  0  1  0  0  0  0  0  0
  161.5510  209.7720  149.9420 C   0  0  0  0  0  2  0  0  0  0  0  0
  162.3310  208.5120  149.6460 C   0  0  0  0  0  2  0  0  0  0  0  0
  161.5800  208.4590  151.9260 N   0  0  0  0  0  0  0  0  0  0  0  0
  160.6680  207.7630  152.8320 C   0  0  0  0  0  2  0  0  0  0  0  0
  160.7330  209.2870  154.7950 C   0  0  0  0  0  2  0  0  0  0  0  0
  160.4560  206.9500  155.1140 N   0  0  0  0  0  2  0  0  0  0  0  0
  160.0820  208.9810  156.1150 C   0  0  0  0  0  2  0  0  0  0  0  0
  161.1210  207.9310  154.2720 C   0  0  1  0  0  3  0  0  0  0  0  0
  160.2690  207.5600  156.3660 N   0  0  0  0  0  2  0  0  0  0  0  0
  1  8  1  6  0  0  0
  1 16  1  0  0  0  0
  3  2  1  0  0  0  0
  3 13  1  0  0  0  0
  4  5  1  0  0  0  0
  5 17  1  0  0  0  0
  5 12  2  0  0  0  0
  6 11  2  0  0  0  0
  7  8  1  0  0  0  0
  9  2  1  6  0  0  0
  9 14  1  0  0  0  0
  9  7  1  0  0  0  0
 10 15  1  0  0  0  0
 10 19  2  0  0  0  0
 11 12  1  0  0  0  0
 14 13  1  1  0  0  0
 14 10  1  0  0  0  0
 15 20  1  0  0  0  0
 16 22  1  0  0  0  0
 16 17  1  1  0  0  0
 18  6  1  0  0  0  0
 19  1  1  0  0  0  0
 19  4  1  0  0  0  0
 20  4  2  0  0  0  0
 20  6  1  0  0  0  0
 21 26  1  0  0  0  0
 22 23  1  1  0  0  0
 22 26  1  0  0  0  0
 24 21  1  0  0  0  0
 25 24  1  0  0  0  0
 25 22  1  0  0  0  0
 26 27  1  0  0  0  0
 28 30  1  0  0  0  0
 29 32  1  0  0  0  0
 30 32  1  0  0  0  0
 31 27  1  6  0  0  0
 31 28  1  0  0  0  0
 31 29  1  0  0  0  0
M  END
>  <MODEL>
7

>  <REMARK>
 VINA RESULT:      -5.4      3.340      6.746
  Name = 
  3 active torsions:
  status: ('A' for Active; 'I' for Inactive)
    1  A    between atoms: C_8  and  C_28
    2  A    between atoms: C_19  and  C_24
    3  A    between atoms: N_23  and  C_24
                            x       y       z     vdW  Elec       q    Type
                         _______ _______ _______ _____ _____    ______ ____

>  <TORSDO>
F 3

$$$$
