=
 OpenBabel11062407593D

 34 40  0  0  1  0  0  0  0  0999 V2000
  162.0320  203.8530  151.2060 C   0  0  2  0  0  3  0  0  0  0  0  0
  160.7100  204.2470  149.0620 C   0  0  0  0  0  2  0  0  0  0  0  0
  160.9090  206.1270  150.6980 C   0  0  1  0  0  3  0  0  0  0  0  0
  160.9770  208.7080  150.2530 C   0  0  2  0  0  3  0  0  0  0  0  0
  161.0950  201.9270  150.0770 N   0  0  2  0  0  0  0  0  0  0  0  0
  159.7930  202.0170  149.4040 C   0  0  0  0  0  2  0  0  0  0  0  0
  160.6990  207.1140  148.5390 O   0  0  0  0  0  0  0  0  0  0  0  0
  161.6270  204.8850  150.1230 C   0  0  1  0  0  3  0  0  0  0  0  0
  161.0190  202.7260  151.3000 C   0  0  0  0  0  2  0  0  0  0  0  0
  161.5280  206.5480  152.0370 C   0  0  1  0  0  3  0  0  0  0  0  0
  162.3740  204.4460  152.5750 C   0  0  0  0  0  2  0  0  0  0  0  0
  160.9290  202.7420  148.8380 C   0  0  1  0  0  3  0  0  0  0  0  0
  160.6800  208.7950  151.6870 N   0  0  0  0  0  0  0  0  0  0  0  0
  160.9120  207.8390  152.5390 C   0  0  0  0  0  0  0  0  0  0  0  0
  160.8700  207.2960  149.7350 C   0  0  0  0  0  0  0  0  0  0  0  0
  161.3920  205.4450  152.9750 N   0  0  0  0  0  2  0  0  0  0  0  0
  160.0270  207.9460  156.0990 C   0  0  1  0  0  3  0  0  0  0  0  0
  162.2110  209.1490  156.7930 C   0  0  0  0  0  1  0  0  0  0  0  0
  160.6960  208.1280  153.9710 C   0  0  0  0  0  0  0  0  0  0  0  0
  160.9260  209.2000  155.9770 C   0  0  1  0  0  3  0  0  0  0  0  0
  160.0160  207.3730  154.7620 N   0  0  0  0  0  0  0  0  0  0  0  0
  161.2490  209.2270  154.5990 O   0  0  0  0  0  0  0  0  0  0  0  0
  160.4930  206.9040  157.1080 C   0  0  0  0  0  1  0  0  0  0  0  0
  162.3330  209.3350  149.9350 C   0  0  0  0  0  2  0  0  0  0  0  0
  162.2370  210.7840  149.8610 N   0  0  0  0  0  2  0  0  0  0  0  0
  162.8450  212.2630  148.0220 C   0  0  0  0  0  2  0  0  0  0  0  0
  160.7090  211.9690  146.0900 O   0  0  0  0  0  1  0  0  0  0  0  0
  161.3960  212.5320  148.3510 C   0  0  1  0  0  0  0  0  0  0  0  0
  160.5150  212.8670  147.1430 C   0  0  2  0  0  3  0  0  0  0  0  0
  161.9460  211.1150  148.4750 C   0  0  2  0  0  3  0  0  0  0  0  0
  159.0070  214.0040  149.0250 C   0  0  0  0  0  2  0  0  0  0  0  0
  159.8330  213.3680  150.0440 N   0  0  0  0  0  2  0  0  0  0  0  0
  161.2230  213.3980  149.5990 C   0  0  0  0  0  2  0  0  0  0  0  0
  158.7550  212.8580  147.6280 S   0  0  0  0  0  0  0  0  0  0  0  0
  1  9  1  1  0  0  0
  1 11  1  0  0  0  0
  3 15  1  6  0  0  0
  3 10  1  0  0  0  0
  4 24  1  1  0  0  0
  4 13  1  0  0  0  0
  5  6  1  1  0  0  0
  5  9  1  0  0  0  0
  7 15  2  0  0  0  0
  8  2  1  6  0  0  0
  8  3  1  0  0  0  0
  8  1  1  0  0  0  0
 10 14  1  1  0  0  0
 10 16  1  0  0  0  0
 11 16  1  0  0  0  0
 12  2  1  1  0  0  0
 12  6  1  0  0  0  0
 12  5  1  0  0  0  0
 13 14  2  0  0  0  0
 14 19  1  0  0  0  0
 15  4  1  0  0  0  0
 17 23  1  1  0  0  0
 19 22  1  0  0  0  0
 19 21  2  0  0  0  0
 20 17  1  0  0  0  0
 20 18  1  1  0  0  0
 21 17  1  0  0  0  0
 22 20  1  0  0  0  0
 25 24  1  0  0  0  0
 26 30  1  0  0  0  0
 28 26  1  6  0  0  0
 28 30  1  0  0  0  0
 28 33  1  0  0  0  0
 29 27  1  6  0  0  0
 29 34  1  0  0  0  0
 29 28  1  0  0  0  0
 30 25  1  1  0  0  0
 31 32  1  0  0  0  0
 33 32  1  0  0  0  0
 34 31  1  0  0  0  0
M  END
>  <MODEL>
1

>  <REMARK>
 VINA RESULT:      -6.8      0.000      0.000
  Name = 
  4 active torsions:
  status: ('A' for Active; 'I' for Inactive)
    1  A    between atoms: C_5  and  C_18
    2  A    between atoms: C_12  and  C_28
    3  A    between atoms: C_17  and  N_29
    4  A    between atoms: C_18  and  N_29
                            x       y       z     vdW  Elec       q    Type
                         _______ _______ _______ _____ _____    ______ ____

>  <TORSDO>
F 4

$$$$
=
 OpenBabel11062407593D

 34 40  0  0  1  0  0  0  0  0999 V2000
  160.4440  209.1080  155.1480 C   0  0  2  0  0  3  0  0  0  0  0  0
  162.5910  210.4580  154.8990 C   0  0  0  0  0  2  0  0  0  0  0  0
  161.9680  208.8720  153.0720 C   0  0  1  0  0  3  0  0  0  0  0  0
  162.4420  209.0400  150.5000 C   0  0  2  0  0  3  0  0  0  0  0  0
  161.5050  209.9360  157.1590 N   0  0  2  0  0  0  0  0  0  0  0  0
  162.9690  209.9950  157.2610 C   0  0  0  0  0  2  0  0  0  0  0  0
  163.2070  210.6360  152.0560 O   0  0  0  0  0  0  0  0  0  0  0  0
  161.4040  209.8150  154.1580 C   0  0  1  0  0  3  0  0  0  0  0  0
  161.1600  208.7180  156.4280 C   0  0  0  0  0  2  0  0  0  0  0  0
  160.9010  207.8750  152.6030 C   0  0  1  0  0  3  0  0  0  0  0  0
  159.6340  207.9520  154.5550 C   0  0  0  0  0  2  0  0  0  0  0  0
  162.2910  210.9050  156.3400 C   0  0  1  0  0  3  0  0  0  0  0  0
  162.1090  207.6110  150.5140 N   0  0  0  0  0  0  0  0  0  0  0  0
  161.4100  207.0340  151.4490 C   0  0  0  0  0  0  0  0  0  0  0  0
  162.5700  209.6070  151.8920 C   0  0  0  0  0  0  0  0  0  0  0  0
  160.4760  207.0820  153.7460 N   0  0  0  0  0  2  0  0  0  0  0  0
  160.2730  203.7330  150.3150 C   0  0  1  0  0  3  0  0  0  0  0  0
  162.0770  202.4500  151.6560 C   0  0  0  0  0  1  0  0  0  0  0  0
  161.0330  205.6200  151.2500 C   0  0  0  0  0  0  0  0  0  0  0  0
  160.8740  203.3840  151.6980 C   0  0  1  0  0  3  0  0  0  0  0  0
  160.4860  205.1660  150.1770 N   0  0  0  0  0  0  0  0  0  0  0  0
  161.2800  204.6440  152.1970 O   0  0  0  0  0  0  0  0  0  0  0  0
  160.8880  203.0000  149.1310 C   0  0  0  0  0  1  0  0  0  0  0  0
  161.4470  209.8260  149.6490 C   0  0  0  0  0  2  0  0  0  0  0  0
  161.9590  211.1500  149.3320 N   0  0  0  0  0  2  0  0  0  0  0  0
  162.3440  212.6390  147.4430 C   0  0  0  0  0  2  0  0  0  0  0  0
  160.1140  212.1700  145.6550 O   0  0  0  0  0  1  0  0  0  0  0  0
  160.9030  212.8130  147.8620 C   0  0  1  0  0  0  0  0  0  0  0  0
  159.9260  213.0680  146.7090 C   0  0  2  0  0  3  0  0  0  0  0  0
  161.5580  211.4390  147.9650 C   0  0  2  0  0  3  0  0  0  0  0  0
  158.4650  214.1270  148.6730 C   0  0  0  0  0  2  0  0  0  0  0  0
  159.3970  213.5640  149.6430 N   0  0  0  0  0  2  0  0  0  0  0  0
  160.7500  213.6830  149.1090 C   0  0  0  0  0  2  0  0  0  0  0  0
  158.2060  212.9450  147.3080 S   0  0  0  0  0  0  0  0  0  0  0  0
  1 11  1  6  0  0  0
  1  9  1  0  0  0  0
  3 15  1  6  0  0  0
  3  8  1  0  0  0  0
  4 24  1  6  0  0  0
  4 13  1  0  0  0  0
  4 15  1  0  0  0  0
  5  9  1  6  0  0  0
  5  6  1  0  0  0  0
  8  2  1  1  0  0  0
  8  1  1  0  0  0  0
 10 14  1  6  0  0  0
 10  3  1  0  0  0  0
 10 16  1  0  0  0  0
 12  2  1  6  0  0  0
 12  5  1  0  0  0  0
 12  6  1  0  0  0  0
 13 14  2  0  0  0  0
 15  7  2  0  0  0  0
 16 11  1  0  0  0  0
 17 23  1  6  0  0  0
 17 20  1  0  0  0  0
 19 14  1  0  0  0  0
 19 22  1  0  0  0  0
 20 18  1  6  0  0  0
 20 22  1  0  0  0  0
 21 17  1  0  0  0  0
 21 19  2  0  0  0  0
 25 24  1  0  0  0  0
 26 30  1  0  0  0  0
 28 26  1  6  0  0  0
 28 30  1  0  0  0  0
 28 33  1  0  0  0  0
 29 27  1  6  0  0  0
 29 34  1  0  0  0  0
 29 28  1  0  0  0  0
 30 25  1  1  0  0  0
 31 32  1  0  0  0  0
 33 32  1  0  0  0  0
 34 31  1  0  0  0  0
M  END
>  <MODEL>
2

>  <REMARK>
 VINA RESULT:      -5.7      1.685      5.488
  Name = 
  4 active torsions:
  status: ('A' for Active; 'I' for Inactive)
    1  A    between atoms: C_5  and  C_18
    2  A    between atoms: C_12  and  C_28
    3  A    between atoms: C_17  and  N_29
    4  A    between atoms: C_18  and  N_29
                            x       y       z     vdW  Elec       q    Type
                         _______ _______ _______ _____ _____    ______ ____

>  <TORSDO>
F 4

$$$$
=
 OpenBabel11062407593D

 34 40  0  0  1  0  0  0  0  0999 V2000
  162.1030  203.7020  151.0560 C   0  0  2  0  0  3  0  0  0  0  0  0
  160.5640  203.9280  149.0360 C   0  0  0  0  0  2  0  0  0  0  0  0
  160.9040  205.9260  150.5000 C   0  0  1  0  0  3  0  0  0  0  0  0
  160.8910  208.4660  149.8620 C   0  0  2  0  0  3  0  0  0  0  0  0
  161.0820  201.6920  150.1740 N   0  0  2  0  0  0  0  0  0  0  0  0
  159.7170  201.7240  149.6340 C   0  0  0  0  0  2  0  0  0  0  0  0
  160.4610  206.7480  148.3080 O   0  0  0  0  0  0  0  0  0  0  0  0
  161.5760  204.6480  149.9480 C   0  0  1  0  0  3  0  0  0  0  0  0
  161.1200  202.5790  151.3370 C   0  0  0  0  0  2  0  0  0  0  0  0
  161.6500  206.4490  151.7340 C   0  0  1  0  0  3  0  0  0  0  0  0
  162.5750  204.3980  152.3360 C   0  0  0  0  0  2  0  0  0  0  0  0
  160.7790  202.4110  148.9020 C   0  0  1  0  0  3  0  0  0  0  0  0
  160.7400  208.6580  151.3090 N   0  0  0  0  0  0  0  0  0  0  0  0
  161.0710  207.7700  152.2010 C   0  0  0  0  0  0  0  0  0  0  0  0
  160.7500  207.0190  149.4630 C   0  0  0  0  0  0  0  0  0  0  0  0
  161.6250  205.4180  152.7600 N   0  0  0  0  0  2  0  0  0  0  0  0
  160.6730  209.3680  155.4810 C   0  0  1  0  0  3  0  0  0  0  0  0
  159.9390  207.1840  156.6590 C   0  0  0  0  0  1  0  0  0  0  0  0
  160.9980  208.1640  153.6220 C   0  0  0  0  0  0  0  0  0  0  0  0
  161.0320  207.9200  155.8950 C   0  0  1  0  0  3  0  0  0  0  0  0
  160.6610  209.3390  154.0260 N   0  0  0  0  0  0  0  0  0  0  0  0
  161.2480  207.2780  154.6530 O   0  0  0  0  0  0  0  0  0  0  0  0
  159.3380  209.8850  156.0010 C   0  0  0  0  0  1  0  0  0  0  0  0
  162.1990  209.0760  149.3620 C   0  0  0  0  0  2  0  0  0  0  0  0
  161.9780  209.8990  148.1830 N   0  0  0  0  0  2  0  0  0  0  0  0
  161.5740  211.9650  149.4090 C   0  0  0  0  0  2  0  0  0  0  0  0
  163.4580  213.8680  148.3060 O   0  0  0  0  0  1  0  0  0  0  0  0
  161.6220  212.3180  147.9410 C   0  0  1  0  0  0  0  0  0  0  0  0
  162.2490  213.6820  147.6290 C   0  0  2  0  0  3  0  0  0  0  0  0
  162.5240  211.2130  148.4800 C   0  0  2  0  0  3  0  0  0  0  0  0
  160.8110  213.4190  145.3990 C   0  0  0  0  0  2  0  0  0  0  0  0
  160.5400  212.0320  145.7610 N   0  0  0  0  0  2  0  0  0  0  0  0
  160.3310  211.9620  147.2030 C   0  0  0  0  0  2  0  0  0  0  0  0
  162.5310  213.8460  145.8330 S   0  0  0  0  0  0  0  0  0  0  0  0
  1  9  1  1  0  0  0
  1 11  1  0  0  0  0
  3 15  1  6  0  0  0
  3 10  1  0  0  0  0
  4 24  1  1  0  0  0
  4 13  1  0  0  0  0
  5  6  1  1  0  0  0
  5  9  1  0  0  0  0
  7 15  2  0  0  0  0
  8  2  1  1  0  0  0
  8  3  1  0  0  0  0
  8  1  1  0  0  0  0
 10 14  1  1  0  0  0
 10 16  1  0  0  0  0
 11 16  1  0  0  0  0
 12  2  1  1  0  0  0
 12  6  1  0  0  0  0
 12  5  1  0  0  0  0
 13 14  2  0  0  0  0
 14 19  1  0  0  0  0
 15  4  1  0  0  0  0
 17 20  1  0  0  0  0
 17 23  1  1  0  0  0
 19 21  2  0  0  0  0
 19 22  1  0  0  0  0
 20 18  1  6  0  0  0
 21 17  1  0  0  0  0
 22 20  1  0  0  0  0
 25 24  1  0  0  0  0
 28 33  1  6  0  0  0
 28 30  1  0  0  0  0
 28 26  1  0  0  0  0
 29 28  1  0  0  0  0
 29 27  1  1  0  0  0
 30 25  1  6  0  0  0
 30 26  1  0  0  0  0
 31 32  1  0  0  0  0
 31 34  1  0  0  0  0
 32 33  1  0  0  0  0
 34 29  1  0  0  0  0
M  END
>  <MODEL>
3

>  <REMARK>
 VINA RESULT:      -5.7      1.621      1.944
  Name = 
  4 active torsions:
  status: ('A' for Active; 'I' for Inactive)
    1  A    between atoms: C_5  and  C_18
    2  A    between atoms: C_12  and  C_28
    3  A    between atoms: C_17  and  N_29
    4  A    between atoms: C_18  and  N_29
                            x       y       z     vdW  Elec       q    Type
                         _______ _______ _______ _____ _____    ______ ____

>  <TORSDO>
F 4

$$$$
=
 OpenBabel11062407593D

 34 40  0  0  1  0  0  0  0  0999 V2000
  160.3990  212.9420  149.5060 C   0  0  2  0  0  3  0  0  0  0  0  0
  162.2330  212.0040  148.0050 C   0  0  0  0  0  2  0  0  0  0  0  0
  161.7310  210.8190  150.1480 C   0  0  1  0  0  3  0  0  0  0  0  0
  161.9120  208.2670  150.7100 C   0  0  2  0  0  3  0  0  0  0  0  0
  161.4850  214.4530  147.9580 N   0  0  2  0  0  0  0  0  0  0  0  0
  162.9170  214.3170  147.6630 C   0  0  0  0  0  2  0  0  0  0  0  0
  162.5260  209.1710  148.6220 O   0  0  0  0  0  0  0  0  0  0  0  0
  161.1150  211.6620  149.0070 C   0  0  1  0  0  3  0  0  0  0  0  0
  161.2950  214.1610  149.3790 C   0  0  0  0  0  2  0  0  0  0  0  0
  160.8200  210.8180  151.3820 C   0  0  1  0  0  3  0  0  0  0  0  0
  159.7570  212.8310  150.8920 C   0  0  0  0  0  2  0  0  0  0  0  0
  161.9990  213.2850  147.1860 C   0  0  1  0  0  3  0  0  0  0  0  0
  161.8460  208.7380  152.0980 N   0  0  0  0  0  0  0  0  0  0  0  0
  161.3570  209.8910  152.4540 C   0  0  0  0  0  0  0  0  0  0  0  0
  162.0710  209.4030  149.7320 C   0  0  0  0  0  0  0  0  0  0  0  0
  160.6590  212.1900  151.8380 N   0  0  0  0  0  2  0  0  0  0  0  0
  160.3930  210.2690  155.9760 C   0  0  1  0  0  3  0  0  0  0  0  0
  162.8040  209.9470  156.8600 C   0  0  0  0  0  1  0  0  0  0  0  0
  161.2240  210.1630  153.9000 C   0  0  0  0  0  0  0  0  0  0  0  0
  161.8540  210.7800  156.0090 C   0  0  1  0  0  3  0  0  0  0  0  0
  160.1710  209.8910  154.5890 N   0  0  0  0  0  0  0  0  0  0  0  0
  162.2500  210.7010  154.6530 O   0  0  0  0  0  0  0  0  0  0  0  0
  160.0920  209.0890  156.8900 C   0  0  0  0  0  1  0  0  0  0  0  0
  160.7140  207.3820  150.3740 C   0  0  0  0  0  2  0  0  0  0  0  0
  160.7760  206.9140  148.9980 N   0  0  0  0  0  2  0  0  0  0  0  0
  161.9040  204.8550  149.6480 C   0  0  0  0  0  2  0  0  0  0  0  0
  160.3990  202.7420  148.3610 O   0  0  0  0  0  1  0  0  0  0  0  0
  161.6860  204.7930  148.1550 C   0  0  1  0  0  0  0  0  0  0  0  0
  161.3800  203.3940  147.6080 C   0  0  2  0  0  3  0  0  0  0  0  0
  160.6440  205.4670  149.0410 C   0  0  2  0  0  3  0  0  0  0  0  0
  162.2820  204.4830  145.3480 C   0  0  0  0  0  2  0  0  0  0  0  0
  162.2530  205.7920  145.9900 N   0  0  0  0  0  2  0  0  0  0  0  0
  162.6910  205.6400  147.3740 C   0  0  0  0  0  2  0  0  0  0  0  0
  160.8340  203.5060  145.8700 S   0  0  0  0  0  0  0  0  0  0  0  0
  1  9  1  1  0  0  0
  1 11  1  0  0  0  0
  3 15  1  6  0  0  0
  3 10  1  0  0  0  0
  4 24  1  6  0  0  0
  4 13  1  0  0  0  0
  5  6  1  1  0  0  0
  5  9  1  0  0  0  0
  7 15  2  0  0  0  0
  8  2  1  6  0  0  0
  8  1  1  0  0  0  0
  8  3  1  0  0  0  0
 10 16  1  1  0  0  0
 10 14  1  0  0  0  0
 11 16  1  0  0  0  0
 12  6  1  1  0  0  0
 12  5  1  0  0  0  0
 12  2  1  0  0  0  0
 13 14  2  0  0  0  0
 14 19  1  0  0  0  0
 15  4  1  0  0  0  0
 17 20  1  0  0  0  0
 17 23  1  1  0  0  0
 19 21  2  0  0  0  0
 19 22  1  0  0  0  0
 20 18  1  1  0  0  0
 21 17  1  0  0  0  0
 22 20  1  0  0  0  0
 25 24  1  0  0  0  0
 28 33  1  6  0  0  0
 28 30  1  0  0  0  0
 28 26  1  0  0  0  0
 29 28  1  0  0  0  0
 29 27  1  1  0  0  0
 30 25  1  6  0  0  0
 30 26  1  0  0  0  0
 31 34  1  0  0  0  0
 31 32  1  0  0  0  0
 32 33  1  0  0  0  0
 34 29  1  0  0  0  0
M  END
>  <MODEL>
4

>  <REMARK>
 VINA RESULT:      -5.6      2.773      7.088
  Name = 
  4 active torsions:
  status: ('A' for Active; 'I' for Inactive)
    1  A    between atoms: C_5  and  C_18
    2  A    between atoms: C_12  and  C_28
    3  A    between atoms: C_17  and  N_29
    4  A    between atoms: C_18  and  N_29
                            x       y       z     vdW  Elec       q    Type
                         _______ _______ _______ _____ _____    ______ ____

>  <TORSDO>
F 4

$$$$
=
 OpenBabel11062407593D

 34 40  0  0  1  0  0  0  0  0999 V2000
  162.0180  212.0700  148.7790 C   0  0  2  0  0  3  0  0  0  0  0  0
  160.0160  213.3320  149.7260 C   0  0  0  0  0  2  0  0  0  0  0  0
  160.6750  211.1740  150.8000 C   0  0  1  0  0  3  0  0  0  0  0  0
  160.4540  210.4350  153.3040 C   0  0  2  0  0  3  0  0  0  0  0  0
  160.8450  213.6030  147.3180 N   0  0  2  0  0  0  0  0  0  0  0  0
  159.3880  213.7560  147.4110 C   0  0  0  0  0  2  0  0  0  0  0  0
  159.6790  212.5110  152.5020 O   0  0  0  0  0  0  0  0  0  0  0  0
  161.2110  212.4180  150.0550 C   0  0  1  0  0  3  0  0  0  0  0  0
  161.1590  212.1910  147.5320 C   0  0  0  0  0  2  0  0  0  0  0  0
  161.6980  210.0310  150.7660 C   0  0  1  0  0  3  0  0  0  0  0  0
  162.7840  210.7450  148.8330 C   0  0  0  0  0  2  0  0  0  0  0  0
  160.2180  214.2490  148.5080 C   0  0  1  0  0  3  0  0  0  0  0  0
  160.6700  209.0920  152.7530 N   0  0  0  0  0  0  0  0  0  0  0  0
  161.2320  208.8570  151.6030 C   0  0  0  0  0  0  0  0  0  0  0  0
  160.2450  211.4650  152.2230 C   0  0  0  0  0  0  0  0  0  0  0  0
  161.9530  209.6800  149.3770 N   0  0  0  0  0  2  0  0  0  0  0  0
  162.0050  205.2730  151.4210 C   0  0  1  0  0  3  0  0  0  0  0  0
  160.4590  204.8570  149.3870 C   0  0  0  0  0  1  0  0  0  0  0  0
  161.5120  207.4500  151.2510 C   0  0  0  0  0  0  0  0  0  0  0  0
  161.6780  205.5840  149.9400 C   0  0  1  0  0  3  0  0  0  0  0  0
  161.8190  206.5410  152.1100 N   0  0  0  0  0  0  0  0  0  0  0  0
  161.4240  206.9770  149.9560 O   0  0  0  0  0  0  0  0  0  0  0  0
  161.1420  204.1990  152.0690 C   0  0  0  0  0  1  0  0  0  0  0  0
  161.5820  210.8240  154.2580 C   0  0  0  0  0  2  0  0  0  0  0  0
  161.1050  210.9060  155.6290 N   0  0  0  0  0  2  0  0  0  0  0  0
  160.1960  212.4710  157.2610 C   0  0  0  0  0  2  0  0  0  0  0  0
  158.7810  214.4500  155.6900 O   0  0  0  0  0  1  0  0  0  0  0  0
  159.0780  212.1190  156.3080 C   0  0  1  0  0  0  0  0  0  0  0  0
  158.1080  213.2660  156.0050 C   0  0  2  0  0  3  0  0  0  0  0  0
  160.5070  212.2220  155.7870 C   0  0  2  0  0  3  0  0  0  0  0  0
  156.4860  211.2410  155.3910 C   0  0  0  0  0  2  0  0  0  0  0  0
  157.6220  210.3300  155.4790 N   0  0  0  0  0  2  0  0  0  0  0  0
  158.4650  210.7480  156.5950 C   0  0  0  0  0  2  0  0  0  0  0  0
  157.0100  212.8090  154.6200 S   0  0  0  0  0  0  0  0  0  0  0  0
  1  9  1  6  0  0  0
  1 11  1  0  0  0  0
  1  8  1  0  0  0  0
  3 15  1  1  0  0  0
  4 24  1  6  0  0  0
  5  6  1  6  0  0  0
  5  9  1  0  0  0  0
  5 12  1  0  0  0  0
  8  2  1  6  0  0  0
  8  3  1  0  0  0  0
 10 16  1  6  0  0  0
 10  3  1  0  0  0  0
 10 14  1  0  0  0  0
 11 16  1  0  0  0  0
 12  6  1  6  0  0  0
 12  2  1  0  0  0  0
 13  4  1  0  0  0  0
 14 13  2  0  0  0  0
 15  7  2  0  0  0  0
 15  4  1  0  0  0  0
 17 23  1  1  0  0  0
 17 21  1  0  0  0  0
 19 14  1  0  0  0  0
 19 21  2  0  0  0  0
 20 18  1  1  0  0  0
 20 22  1  0  0  0  0
 20 17  1  0  0  0  0
 22 19  1  0  0  0  0
 24 25  1  0  0  0  0
 28 33  1  1  0  0  0
 28 26  1  0  0  0  0
 29 27  1  6  0  0  0
 29 28  1  0  0  0  0
 30 25  1  1  0  0  0
 30 28  1  0  0  0  0
 30 26  1  0  0  0  0
 31 32  1  0  0  0  0
 32 33  1  0  0  0  0
 34 31  1  0  0  0  0
 34 29  1  0  0  0  0
M  END
>  <MODEL>
5

>  <REMARK>
 VINA RESULT:      -5.3      2.919      7.395
  Name = 
  4 active torsions:
  status: ('A' for Active; 'I' for Inactive)
    1  A    between atoms: C_5  and  C_18
    2  A    between atoms: C_12  and  C_28
    3  A    between atoms: C_17  and  N_29
    4  A    between atoms: C_18  and  N_29
                            x       y       z     vdW  Elec       q    Type
                         _______ _______ _______ _____ _____    ______ ____

>  <TORSDO>
F 4

$$$$
=
 OpenBabel11062407593D

 34 40  0  0  1  0  0  0  0  0999 V2000
  160.2960  205.3370  150.2810 C   0  0  2  0  0  3  0  0  0  0  0  0
  161.4530  204.7090  152.4640 C   0  0  0  0  0  2  0  0  0  0  0  0
  161.4380  207.1120  151.7760 C   0  0  1  0  0  3  0  0  0  0  0  0
  161.4080  209.2620  153.2720 C   0  0  2  0  0  3  0  0  0  0  0  0
  161.0860  203.0630  150.5370 N   0  0  2  0  0  0  0  0  0  0  0  0
  162.3320  202.7820  151.2610 C   0  0  0  0  0  2  0  0  0  0  0  0
  161.5040  207.0810  154.1570 O   0  0  0  0  0  0  0  0  0  0  0  0
  160.6420  205.7880  151.7220 C   0  0  1  0  0  3  0  0  0  0  0  0
  161.2820  204.2970  149.7770 C   0  0  0  0  0  2  0  0  0  0  0  0
  160.9400  208.0950  150.7090 C   0  0  1  0  0  3  0  0  0  0  0  0
  160.0810  206.4720  149.2760 C   0  0  0  0  0  2  0  0  0  0  0  0
  161.1760  203.2660  152.0120 C   0  0  1  0  0  3  0  0  0  0  0  0
  161.8200  209.9290  152.0320 N   0  0  0  0  0  0  0  0  0  0  0  0
  161.6290  209.4390  150.8410 C   0  0  0  0  0  0  0  0  0  0  0  0
  161.4340  207.7600  153.1450 C   0  0  0  0  0  0  0  0  0  0  0  0
  161.1190  207.4860  149.4000 N   0  0  0  0  0  2  0  0  0  0  0  0
  162.0710  211.1090  147.6030 C   0  0  1  0  0  3  0  0  0  0  0  0
  162.1890  213.4790  148.6360 C   0  0  0  0  0  1  0  0  0  0  0  0
  161.9670  210.2930  149.6850 C   0  0  0  0  0  0  0  0  0  0  0  0
  162.8070  212.0900  148.5480 C   0  0  1  0  0  3  0  0  0  0  0  0
  161.5770  210.0590  148.4800 N   0  0  0  0  0  0  0  0  0  0  0  0
  162.7060  211.4530  149.8080 O   0  0  0  0  0  0  0  0  0  0  0  0
  160.9180  211.7080  146.8080 C   0  0  0  0  0  1  0  0  0  0  0  0
  160.0480  209.7760  153.7440 C   0  0  0  0  0  2  0  0  0  0  0  0
  160.1570  210.4410  155.0330 N   0  0  0  0  0  2  0  0  0  0  0  0
  160.0810  212.6280  156.1050 C   0  0  0  0  0  2  0  0  0  0  0  0
  158.9560  214.3990  154.1090 O   0  0  0  0  0  1  0  0  0  0  0  0
  158.7320  212.3960  155.4660 C   0  0  1  0  0  0  0  0  0  0  0  0
  158.0700  213.6520  154.8900 C   0  0  2  0  0  3  0  0  0  0  0  0
  159.9890  211.8640  154.7860 C   0  0  2  0  0  3  0  0  0  0  0  0
  155.8650  212.1860  155.2080 C   0  0  0  0  0  2  0  0  0  0  0  0
  156.7010  211.0230  155.4830 N   0  0  0  0  0  2  0  0  0  0  0  0
  157.8450  211.4530  156.2800 C   0  0  0  0  0  2  0  0  0  0  0  0
  156.6180  213.1910  153.8850 S   0  0  0  0  0  0  0  0  0  0  0  0
  1 11  1  6  0  0  0
  1  8  1  0  0  0  0
  3 15  1  1  0  0  0
  4 24  1  6  0  0  0
  5  9  1  6  0  0  0
  5  6  1  0  0  0  0
  5 12  1  0  0  0  0
  8  3  1  0  0  0  0
  8  2  1  6  0  0  0
  9  1  1  0  0  0  0
 10 16  1  6  0  0  0
 10 14  1  0  0  0  0
 10  3  1  0  0  0  0
 11 16  1  0  0  0  0
 12  6  1  6  0  0  0
 12  2  1  0  0  0  0
 13  4  1  0  0  0  0
 14 13  2  0  0  0  0
 15  4  1  0  0  0  0
 15  7  2  0  0  0  0
 17 23  1  1  0  0  0
 17 21  1  0  0  0  0
 17 20  1  0  0  0  0
 19 22  1  0  0  0  0
 19 14  1  0  0  0  0
 20 18  1  1  0  0  0
 20 22  1  0  0  0  0
 21 19  2  0  0  0  0
 24 25  1  0  0  0  0
 28 26  1  1  0  0  0
 28 33  1  0  0  0  0
 29 27  1  6  0  0  0
 29 28  1  0  0  0  0
 30 25  1  1  0  0  0
 30 28  1  0  0  0  0
 30 26  1  0  0  0  0
 31 32  1  0  0  0  0
 32 33  1  0  0  0  0
 34 29  1  0  0  0  0
 34 31  1  0  0  0  0
M  END
>  <MODEL>
6

>  <REMARK>
 VINA RESULT:      -4.7      2.895      5.928
  Name = 
  4 active torsions:
  status: ('A' for Active; 'I' for Inactive)
    1  A    between atoms: C_5  and  C_18
    2  A    between atoms: C_12  and  C_28
    3  A    between atoms: C_17  and  N_29
    4  A    between atoms: C_18  and  N_29
                            x       y       z     vdW  Elec       q    Type
                         _______ _______ _______ _____ _____    ______ ____

>  <TORSDO>
F 4

$$$$
=
 OpenBabel11062407593D

 34 40  0  0  1  0  0  0  0  0999 V2000
  160.4740  208.8500  155.2400 C   0  0  2  0  0  3  0  0  0  0  0  0
  162.5330  210.3210  154.9370 C   0  0  0  0  0  2  0  0  0  0  0  0
  161.9050  208.7620  153.0880 C   0  0  1  0  0  3  0  0  0  0  0  0
  162.2430  209.0360  150.5040 C   0  0  2  0  0  3  0  0  0  0  0  0
  161.5870  209.6700  157.2270 N   0  0  2  0  0  0  0  0  0  0  0  0
  163.0490  209.8050  157.2610 C   0  0  0  0  0  2  0  0  0  0  0  0
  162.9990  210.6210  152.0760 O   0  0  0  0  0  0  0  0  0  0  0  0
  161.3460  209.6380  154.2310 C   0  0  1  0  0  3  0  0  0  0  0  0
  161.2710  208.4580  156.4710 C   0  0  0  0  0  2  0  0  0  0  0  0
  160.8700  207.7240  152.6360 C   0  0  1  0  0  3  0  0  0  0  0  0
  159.6970  207.6710  154.6470 C   0  0  0  0  0  2  0  0  0  0  0  0
  162.2800  210.7050  156.4050 C   0  0  1  0  0  3  0  0  0  0  0  0
  161.9870  207.5920  150.4850 N   0  0  0  0  0  0  0  0  0  0  0  0
  161.3660  206.9490  151.4310 C   0  0  0  0  0  0  0  0  0  0  0  0
  162.4090  209.5650  151.9060 C   0  0  0  0  0  0  0  0  0  0  0  0
  160.5440  206.8740  153.7700 N   0  0  0  0  0  2  0  0  0  0  0  0
  160.3700  203.6260  150.2320 C   0  0  1  0  0  3  0  0  0  0  0  0
  162.2560  202.3980  151.5110 C   0  0  0  0  0  1  0  0  0  0  0  0
  161.0540  205.5230  151.2020 C   0  0  0  0  0  0  0  0  0  0  0  0
  161.0100  203.2720  151.5960 C   0  0  1  0  0  3  0  0  0  0  0  0
  160.5110  205.0700  150.1260 N   0  0  0  0  0  0  0  0  0  0  0  0
  161.3630  204.5380  152.1200 O   0  0  0  0  0  0  0  0  0  0  0  0
  161.0000  202.9520  149.0190 C   0  0  0  0  0  1  0  0  0  0  0  0
  161.1680  209.7940  149.7280 C   0  0  0  0  0  2  0  0  0  0  0  0
  161.6550  210.2030  148.4190 N   0  0  0  0  0  2  0  0  0  0  0  0
  161.2820  212.4230  149.3500 C   0  0  0  0  0  2  0  0  0  0  0  0
  163.3180  214.0910  148.1420 O   0  0  0  0  0  1  0  0  0  0  0  0
  161.4320  212.5840  147.8560 C   0  0  1  0  0  0  0  0  0  0  0  0
  162.1430  213.8700  147.4180 C   0  0  2  0  0  3  0  0  0  0  0  0
  162.2460  211.5210  148.5840 C   0  0  2  0  0  3  0  0  0  0  0  0
  160.8260  213.3840  145.1500 C   0  0  0  0  0  2  0  0  0  0  0  0
  160.4660  212.0680  145.6640 N   0  0  0  0  0  2  0  0  0  0  0  0
  160.1710  212.1900  147.0870 C   0  0  0  0  0  2  0  0  0  0  0  0
  162.5360  213.7920  145.6370 S   0  0  0  0  0  0  0  0  0  0  0  0
  1 11  1  6  0  0  0
  1  9  1  0  0  0  0
  3 15  1  6  0  0  0
  3  8  1  0  0  0  0
  4 24  1  1  0  0  0
  4 15  1  0  0  0  0
  5  9  1  6  0  0  0
  5  6  1  0  0  0  0
  8  2  1  1  0  0  0
  8  1  1  0  0  0  0
 10 14  1  6  0  0  0
 10  3  1  0  0  0  0
 10 16  1  0  0  0  0
 12  2  1  6  0  0  0
 12  5  1  0  0  0  0
 12  6  1  0  0  0  0
 13  4  1  0  0  0  0
 13 14  2  0  0  0  0
 15  7  2  0  0  0  0
 16 11  1  0  0  0  0
 17 23  1  6  0  0  0
 17 20  1  0  0  0  0
 19 14  1  0  0  0  0
 19 22  1  0  0  0  0
 20 18  1  6  0  0  0
 20 22  1  0  0  0  0
 21 17  1  0  0  0  0
 21 19  2  0  0  0  0
 25 24  1  0  0  0  0
 28 33  1  6  0  0  0
 28 30  1  0  0  0  0
 28 26  1  0  0  0  0
 29 28  1  0  0  0  0
 29 27  1  1  0  0  0
 30 25  1  6  0  0  0
 30 26  1  0  0  0  0
 31 34  1  0  0  0  0
 31 32  1  0  0  0  0
 32 33  1  0  0  0  0
 34 29  1  0  0  0  0
M  END
>  <MODEL>
7

>  <REMARK>
 VINA RESULT:      -4.6      2.148      5.701
  Name = 
  4 active torsions:
  status: ('A' for Active; 'I' for Inactive)
    1  A    between atoms: C_5  and  C_18
    2  A    between atoms: C_12  and  C_28
    3  A    between atoms: C_17  and  N_29
    4  A    between atoms: C_18  and  N_29
                            x       y       z     vdW  Elec       q    Type
                         _______ _______ _______ _____ _____    ______ ____

>  <TORSDO>
F 4

$$$$
=
 OpenBabel11062407593D

 34 40  0  0  1  0  0  0  0  0999 V2000
  160.3350  205.1350  148.1030 C   0  0  2  0  0  3  0  0  0  0  0  0
  161.6970  203.5950  149.6110 C   0  0  0  0  0  2  0  0  0  0  0  0
  161.6150  206.0310  150.1640 C   0  0  1  0  0  3  0  0  0  0  0  0
  161.7290  207.2010  152.5050 C   0  0  2  0  0  3  0  0  0  0  0  0
  161.1450  203.0540  147.1690 N   0  0  2  0  0  0  0  0  0  0  0  0
  162.4550  202.5200  147.5610 C   0  0  0  0  0  2  0  0  0  0  0  0
  161.9100  204.8680  152.2230 O   0  0  0  0  0  0  0  0  0  0  0  0
  160.8180  204.8580  149.5490 C   0  0  1  0  0  3  0  0  0  0  0  0
  161.2670  204.5090  147.0810 C   0  0  0  0  0  2  0  0  0  0  0  0
  161.0170  207.3800  149.7460 C   0  0  1  0  0  3  0  0  0  0  0  0
  160.0240  206.6010  147.7890 C   0  0  0  0  0  2  0  0  0  0  0  0
  161.3770  202.5310  148.5470 C   0  0  1  0  0  3  0  0  0  0  0  0
  162.0200  208.3970  151.7080 N   0  0  0  0  0  0  0  0  0  0  0  0
  161.7160  208.5270  150.4490 C   0  0  0  0  0  0  0  0  0  0  0  0
  161.7430  205.9450  151.6710 C   0  0  0  0  0  0  0  0  0  0  0  0
  161.0690  207.4790  148.2960 N   0  0  0  0  0  2  0  0  0  0  0  0
  162.3290  211.4320  148.2900 C   0  0  1  0  0  3  0  0  0  0  0  0
  160.8230  213.0120  149.6810 C   0  0  0  0  0  1  0  0  0  0  0  0
  161.9410  209.8440  149.8200 C   0  0  0  0  0  0  0  0  0  0  0  0
  162.0580  212.1210  149.6490 C   0  0  1  0  0  3  0  0  0  0  0  0
  162.1820  210.0110  148.5660 N   0  0  0  0  0  0  0  0  0  0  0  0
  161.8680  211.0280  150.5280 O   0  0  0  0  0  0  0  0  0  0  0  0
  161.4000  211.8380  147.1540 C   0  0  0  0  0  1  0  0  0  0  0  0
  160.4220  207.3630  153.2790 C   0  0  0  0  0  2  0  0  0  0  0  0
  160.6460  207.2710  154.7130 N   0  0  0  0  0  2  0  0  0  0  0  0
  161.8570  208.2960  156.5620 C   0  0  0  0  0  2  0  0  0  0  0  0
  162.8470  210.8050  155.5060 O   0  0  0  0  0  1  0  0  0  0  0  0
  160.9540  209.3560  155.9770 C   0  0  1  0  0  0  0  0  0  0  0  0
  161.5360  210.7740  155.9890 C   0  0  2  0  0  3  0  0  0  0  0  0
  161.5920  208.3200  155.0580 C   0  0  2  0  0  3  0  0  0  0  0  0
  158.9560  211.4360  155.8540 C   0  0  0  0  0  2  0  0  0  0  0  0
  158.6320  210.0390  155.5910 N   0  0  0  0  0  2  0  0  0  0  0  0
  159.4970  209.1990  156.4130 C   0  0  0  0  0  2  0  0  0  0  0  0
  160.4950  211.8870  154.9840 S   0  0  0  0  0  0  0  0  0  0  0  0
  1  9  1  6  0  0  0
  1  8  1  0  0  0  0
  3 15  1  1  0  0  0
  4 24  1  6  0  0  0
  5  9  1  1  0  0  0
  5  6  1  0  0  0  0
  5 12  1  0  0  0  0
  8  2  1  6  0  0  0
  8  3  1  0  0  0  0
 10 16  1  6  0  0  0
 10  3  1  0  0  0  0
 10 14  1  0  0  0  0
 11  1  1  0  0  0  0
 11 16  1  0  0  0  0
 12  6  1  6  0  0  0
 12  2  1  0  0  0  0
 13  4  1  0  0  0  0
 14 13  2  0  0  0  0
 15  7  2  0  0  0  0
 15  4  1  0  0  0  0
 17 23  1  6  0  0  0
 17 21  1  0  0  0  0
 17 20  1  0  0  0  0
 19 14  1  0  0  0  0
 19 22  1  0  0  0  0
 20 18  1  6  0  0  0
 20 22  1  0  0  0  0
 21 19  2  0  0  0  0
 24 25  1  0  0  0  0
 28 29  1  0  0  0  0
 28 33  1  1  0  0  0
 28 26  1  0  0  0  0
 29 27  1  6  0  0  0
 30 25  1  1  0  0  0
 30 28  1  0  0  0  0
 30 26  1  0  0  0  0
 32 31  1  0  0  0  0
 32 33  1  0  0  0  0
 34 31  1  0  0  0  0
 34 29  1  0  0  0  0
M  END
>  <MODEL>
8

>  <REMARK>
 VINA RESULT:      -4.4      2.332      6.051
  Name = 
  4 active torsions:
  status: ('A' for Active; 'I' for Inactive)
    1  A    between atoms: C_5  and  C_18
    2  A    between atoms: C_12  and  C_28
    3  A    between atoms: C_17  and  N_29
    4  A    between atoms: C_18  and  N_29
                            x       y       z     vdW  Elec       q    Type
                         _______ _______ _______ _____ _____    ______ ____

>  <TORSDO>
F 4

$$$$
=
 OpenBabel11062407593D

 34 40  0  0  1  0  0  0  0  0999 V2000
  160.5920  206.1620  147.4450 C   0  0  2  0  0  3  0  0  0  0  0  0
  161.9600  204.6060  148.9290 C   0  0  0  0  0  2  0  0  0  0  0  0
  161.8920  207.0380  149.5030 C   0  0  1  0  0  3  0  0  0  0  0  0
  162.0290  208.1890  151.8520 C   0  0  2  0  0  3  0  0  0  0  0  0
  161.3870  204.0860  146.4880 N   0  0  2  0  0  0  0  0  0  0  0  0
  162.6990  203.5440  146.8650 C   0  0  0  0  0  2  0  0  0  0  0  0
  162.1990  205.8580  151.5500 O   0  0  0  0  0  0  0  0  0  0  0  0
  161.0850  205.8730  148.8850 C   0  0  1  0  0  3  0  0  0  0  0  0
  161.5130  205.5410  146.4100 C   0  0  0  0  0  2  0  0  0  0  0  0
  161.2950  208.3920  149.1010 C   0  0  1  0  0  3  0  0  0  0  0  0
  160.2840  207.6320  147.1460 C   0  0  0  0  0  2  0  0  0  0  0  0
  161.6280  203.5520  147.8600 C   0  0  1  0  0  3  0  0  0  0  0  0
  162.3180  209.3900  151.0620 N   0  0  0  0  0  0  0  0  0  0  0  0
  162.0040  209.5310  149.8060 C   0  0  0  0  0  0  0  0  0  0  0  0
  162.0310  206.9390  151.0080 C   0  0  0  0  0  0  0  0  0  0  0  0
  161.3360  208.5020  147.6510 N   0  0  0  0  0  2  0  0  0  0  0  0
  163.0480  212.4780  147.8840 C   0  0  1  0  0  3  0  0  0  0  0  0
  160.6810  213.5260  147.8590 C   0  0  0  0  0  1  0  0  0  0  0  0
  162.2290  210.8530  149.1860 C   0  0  0  0  0  0  0  0  0  0  0  0
  161.8630  213.0550  148.6970 C   0  0  1  0  0  3  0  0  0  0  0  0
  163.1190  211.0820  148.2840 N   0  0  0  0  0  0  0  0  0  0  0  0
  161.4620  211.9590  149.4960 O   0  0  0  0  0  0  0  0  0  0  0  0
  162.9130  212.5790  146.3700 C   0  0  0  0  0  1  0  0  0  0  0  0
  160.7290  208.3490  152.6370 C   0  0  0  0  0  2  0  0  0  0  0  0
  160.8210  209.4470  153.5870 N   0  0  0  0  0  2  0  0  0  0  0  0
  160.4540  211.8040  153.0930 C   0  0  0  0  0  2  0  0  0  0  0  0
  157.5780  212.1380  153.1430 O   0  0  0  0  0  1  0  0  0  0  0  0
  159.6070  211.4620  154.2960 C   0  0  1  0  0  0  0  0  0  0  0  0
  158.2610  212.1920  154.3610 C   0  0  2  0  0  3  0  0  0  0  0  0
  159.8140  210.4220  153.2010 C   0  0  2  0  0  3  0  0  0  0  0  0
  158.5020  211.6300  156.9570 C   0  0  0  0  0  2  0  0  0  0  0  0
  159.6290  210.7590  156.6440 N   0  0  0  0  0  2  0  0  0  0  0  0
  160.4190  211.3850  155.5890 C   0  0  0  0  0  2  0  0  0  0  0  0
  157.2180  211.4650  155.6720 S   0  0  0  0  0  0  0  0  0  0  0  0
  1  9  1  6  0  0  0
  1  8  1  0  0  0  0
  3 15  1  1  0  0  0
  4 24  1  6  0  0  0
  5  9  1  1  0  0  0
  5  6  1  0  0  0  0
  5 12  1  0  0  0  0
  8  2  1  6  0  0  0
  8  3  1  0  0  0  0
 10 16  1  6  0  0  0
 10  3  1  0  0  0  0
 10 14  1  0  0  0  0
 11  1  1  0  0  0  0
 11 16  1  0  0  0  0
 12  6  1  6  0  0  0
 12  2  1  0  0  0  0
 13  4  1  0  0  0  0
 14 13  2  0  0  0  0
 15  7  2  0  0  0  0
 15  4  1  0  0  0  0
 17 23  1  6  0  0  0
 17 21  1  0  0  0  0
 17 20  1  0  0  0  0
 19 22  1  0  0  0  0
 19 14  1  0  0  0  0
 20 18  1  6  0  0  0
 20 22  1  0  0  0  0
 21 19  2  0  0  0  0
 24 25  1  0  0  0  0
 26 30  1  0  0  0  0
 28 26  1  6  0  0  0
 28 29  1  0  0  0  0
 28 33  1  0  0  0  0
 29 27  1  6  0  0  0
 29 34  1  0  0  0  0
 30 25  1  1  0  0  0
 30 28  1  0  0  0  0
 32 31  1  0  0  0  0
 33 32  1  0  0  0  0
 34 31  1  0  0  0  0
M  END
>  <MODEL>
9

>  <REMARK>
 VINA RESULT:      -4.1      2.913      6.069
  Name = 
  4 active torsions:
  status: ('A' for Active; 'I' for Inactive)
    1  A    between atoms: C_5  and  C_18
    2  A    between atoms: C_12  and  C_28
    3  A    between atoms: C_17  and  N_29
    4  A    between atoms: C_18  and  N_29
                            x       y       z     vdW  Elec       q    Type
                         _______ _______ _______ _____ _____    ______ ____

>  <TORSDO>
F 4

$$$$
