=
 OpenBabel11062409253D

 37 39  0  0  1  0  0  0  0  0999 V2000
  160.4060  211.9550  154.0970 C   0  0  0  0  0  2  0  0  0  0  0  0
  157.8150  214.0890  152.4830 C   0  0  0  0  0  2  0  0  0  0  0  0
  159.8200  210.1820  155.9020 C   0  0  2  0  0  0  0  0  0  0  0  0
  159.2260  211.6410  153.1930 C   0  0  2  0  0  3  0  0  0  0  0  0
  160.8130  210.6620  154.7880 C   0  0  1  0  0  3  0  0  0  0  0  0
  157.8000  213.5570  153.9080 C   0  0  0  0  0  2  0  0  0  0  0  0
  159.1350  209.0280  155.4990 O   0  0  0  0  0  1  0  0  0  0  0  0
  161.4340  209.6020  153.8280 C   0  0  2  0  0  3  0  0  0  0  0  0
  156.4730  210.9020  155.4640 C   0  0  0  0  0  2  0  0  0  0  0  0
  158.7630  211.2680  156.2470 C   0  0  0  0  0  2  0  0  0  0  0  0
  162.1710  210.2140  152.6160 C   0  0  0  0  0  2  0  0  0  0  0  0
  157.6770  211.4010  155.1970 C   0  0  0  0  0  0  0  0  0  0  0  0
  159.4240  212.2290  151.7810 C   0  0  1  0  0  3  0  0  0  0  0  0
  159.1160  213.7550  151.7280 C   0  0  1  0  0  3  0  0  0  0  0  0
  160.8600  211.9330  151.2920 C   0  0  0  0  0  2  0  0  0  0  0  0
  161.2570  210.4610  151.4070 C   0  0  0  0  0  2  0  0  0  0  0  0
  157.9070  212.0440  153.8480 C   0  0  2  0  0  3  0  0  0  0  0  0
  161.9270  210.6490  157.2600 C   0  0  0  0  0  1  0  0  0  0  0  0
  160.6440  209.8340  157.1580 C   0  0  0  0  0  3  0  0  0  0  0  0
  160.9780  208.3510  157.2610 C   0  0  0  0  0  1  0  0  0  0  0  0
  158.9740  214.3300  150.2950 C   0  0  2  0  0  3  0  0  0  0  0  0
  157.5490  214.3630  149.7640 C   0  0  0  0  0  2  0  0  0  0  0  0
  157.2470  213.1460  149.1530 O   0  0  0  0  0  1  0  0  0  0  0  0
  159.8010  213.5180  149.3020 C   0  0  0  0  0  2  0  0  0  0  0  0
  160.0010  213.9910  147.0200 C   0  0  0  0  0  1  0  0  0  0  0  0
  161.8730  214.0930  148.4040 C   0  0  0  0  0  1  0  0  0  0  0  0
  160.4520  214.3940  148.3410 N   0  0  0  0  0  0  0  0  0  0  0  0
  160.5060  208.6380  153.4100 O   0  0  0  0  0  0  0  0  0  0  0  0
  161.0270  206.5330  154.4620 C   0  0  0  0  0  1  0  0  0  0  0  0
  161.2260  207.4460  153.2560 C   0  0  1  0  0  3  0  0  0  0  0  0
  160.8470  206.7600  151.9380 C   0  0  1  0  0  3  0  0  0  0  0  0
  160.5390  207.7170  150.9670 O   0  0  0  0  0  1  0  0  0  0  0  0
  161.9120  205.7900  151.4120 C   0  0  2  0  0  0  0  0  0  0  0  0
  161.5480  203.9350  151.5120 P   0  0  0  0  0  2  0  0  0  0  0  0
  163.2540  206.1170  151.6220 O   0  0  0  0  0  1  0  0  0  0  0  0
  161.6650  205.2290  150.1140 C   0  0  0  0  0  1  0  0  0  0  0  0
  159.8130  204.0340  151.5130 O   0  0  0  0  0  1  0  0  0  0  0  0
  2  6  1  0  0  0  0
  3  7  1  6  0  0  0
  3 10  1  0  0  0  0
  3 19  1  0  0  0  0
  4 17  1  0  0  0  0
  4  1  1  1  0  0  0
  5  1  1  6  0  0  0
  5  3  1  0  0  0  0
  8 28  1  6  0  0  0
  8  5  1  0  0  0  0
 11  8  1  0  0  0  0
 12  9  2  0  0  0  0
 12 10  1  0  0  0  0
 13 15  1  1  0  0  0
 13  4  1  0  0  0  0
 14 21  1  6  0  0  0
 14 13  1  0  0  0  0
 14  2  1  0  0  0  0
 15 16  1  0  0  0  0
 16 11  1  0  0  0  0
 17  6  1  1  0  0  0
 17 12  1  0  0  0  0
 19 18  1  0  0  0  0
 19 20  1  0  0  0  0
 21 24  1  6  0  0  0
 22 21  1  0  0  0  0
 23 22  1  0  0  0  0
 25 27  1  0  0  0  0
 27 26  1  0  0  0  0
 27 24  1  0  0  0  0
 30 28  1  0  0  0  0
 30 29  1  1  0  0  0
 31 32  1  6  0  0  0
 31 30  1  0  0  0  0
 33 36  1  6  0  0  0
 33 34  1  0  0  0  0
 33 35  1  0  0  0  0
 33 31  1  0  0  0  0
 34 37  1  0  0  0  0
M  END
>  <MODEL>
1

>  <REMARK>
 VINA RESULT:      -4.8      0.000      0.000
  Name = 
  9 active torsions:
  status: ('A' for Active; 'I' for Inactive)
    1  A    between atoms: C_1  and  C_5
    2  A    between atoms: C_1  and  C_23
    3  A    between atoms: C_2  and  C_6
    4  A    between atoms: C_6  and  C_8
    5  A    between atoms: C_6  and  C_31
    6  A    between atoms: C_8  and  N_19
    7  A    between atoms: C_9  and  C_30
    8  A    between atoms: C_20  and  O_25
    9  A    between atoms: C_23  and  O_25
                            x       y       z     vdW  Elec       q    Type
                         _______ _______ _______ _____ _____    ______ ____

>  <TORSDO>
F 9

$$$$
=
 OpenBabel11062409253D

 37 39  0  0  1  0  0  0  0  0999 V2000
  162.1320  210.9220  151.5330 C   0  0  0  0  0  2  0  0  0  0  0  0
  160.2380  213.5300  149.6650 C   0  0  0  0  0  2  0  0  0  0  0  0
  161.2240  209.8380  153.7110 C   0  0  2  0  0  0  0  0  0  0  0  0
  160.8040  210.9050  150.7950 C   0  0  2  0  0  3  0  0  0  0  0  0
  162.1600  209.7160  152.4590 C   0  0  1  0  0  3  0  0  0  0  0  0
  160.2360  213.3030  151.1690 C   0  0  0  0  0  2  0  0  0  0  0  0
  160.1360  208.9610  153.6110 O   0  0  0  0  0  1  0  0  0  0  0  0
  162.2420  208.3500  151.7120 C   0  0  2  0  0  3  0  0  0  0  0  0
  158.3020  211.6380  153.3410 C   0  0  0  0  0  2  0  0  0  0  0  0
  160.6630  211.2770  153.8800 C   0  0  0  0  0  2  0  0  0  0  0  0
  162.9710  208.4230  150.3520 C   0  0  0  0  0  2  0  0  0  0  0  0
  159.5560  211.6070  152.8980 C   0  0  0  0  0  0  0  0  0  0  0  0
  160.9980  211.1180  149.2800 C   0  0  1  0  0  3  0  0  0  0  0  0
  161.2290  212.6160  148.9190 C   0  0  1  0  0  3  0  0  0  0  0  0
  162.1620  210.2370  148.7750 C   0  0  0  0  0  2  0  0  0  0  0  0
  162.0410  208.7670  149.1800 C   0  0  0  0  0  2  0  0  0  0  0  0
  159.8070  211.8710  151.4300 C   0  0  2  0  0  3  0  0  0  0  0  0
  161.2990  208.4670  155.8600 C   0  0  0  0  0  1  0  0  0  0  0  0
  162.0420  209.4430  154.9580 C   0  0  0  0  0  3  0  0  0  0  0  0
  162.4950  210.6450  155.7780 C   0  0  0  0  0  1  0  0  0  0  0  0
  161.0990  212.9380  147.4070 C   0  0  2  0  0  3  0  0  0  0  0  0
  162.1160  213.9390  146.8830 C   0  0  0  0  0  2  0  0  0  0  0  0
  163.1000  214.1580  147.8470 O   0  0  0  0  0  1  0  0  0  0  0  0
  159.7150  213.5000  147.0920 C   0  0  0  0  0  2  0  0  0  0  0  0
  158.8930  213.0690  144.9450 C   0  0  0  0  0  1  0  0  0  0  0  0
  157.5860  212.5960  146.8150 C   0  0  0  0  0  1  0  0  0  0  0  0
  158.9450  212.5520  146.3020 N   0  0  0  0  0  0  0  0  0  0  0  0
  160.9900  207.7320  151.5710 O   0  0  0  0  0  0  0  0  0  0  0  0
  160.9710  205.9240  153.1640 C   0  0  0  0  0  1  0  0  0  0  0  0
  161.2160  206.3580  151.7230 C   0  0  1  0  0  3  0  0  0  0  0  0
  160.3640  205.5640  150.7240 C   0  0  1  0  0  3  0  0  0  0  0  0
  159.8480  206.4170  149.7450 O   0  0  0  0  0  1  0  0  0  0  0  0
  161.1040  204.3890  150.0710 C   0  0  2  0  0  0  0  0  0  0  0  0
  161.6230  202.9440  151.1780 P   0  0  0  0  0  2  0  0  0  0  0  0
  162.0100  204.6760  149.0480 O   0  0  0  0  0  1  0  0  0  0  0  0
  160.3160  203.2170  149.8140 C   0  0  0  0  0  1  0  0  0  0  0  0
  160.4280  203.1580  152.4220 O   0  0  0  0  0  1  0  0  0  0  0  0
  2  6  1  0  0  0  0
  3  7  1  6  0  0  0
  3 10  1  0  0  0  0
  3 19  1  0  0  0  0
  4 17  1  0  0  0  0
  4  1  1  1  0  0  0
  5  1  1  6  0  0  0
  5  3  1  0  0  0  0
  8 28  1  6  0  0  0
  8  5  1  0  0  0  0
 11  8  1  0  0  0  0
 12  9  2  0  0  0  0
 12 10  1  0  0  0  0
 13 15  1  1  0  0  0
 13  4  1  0  0  0  0
 14 21  1  6  0  0  0
 14 13  1  0  0  0  0
 14  2  1  0  0  0  0
 15 16  1  0  0  0  0
 16 11  1  0  0  0  0
 17  6  1  1  0  0  0
 17 12  1  0  0  0  0
 19 20  1  0  0  0  0
 19 18  1  0  0  0  0
 21 22  1  1  0  0  0
 22 23  1  0  0  0  0
 24 21  1  0  0  0  0
 25 27  1  0  0  0  0
 27 26  1  0  0  0  0
 27 24  1  0  0  0  0
 28 30  1  0  0  0  0
 30 29  1  1  0  0  0
 31 32  1  6  0  0  0
 31 30  1  0  0  0  0
 33 36  1  6  0  0  0
 33 31  1  0  0  0  0
 33 34  1  0  0  0  0
 34 37  1  0  0  0  0
 35 33  1  0  0  0  0
M  END
>  <MODEL>
2

>  <REMARK>
 VINA RESULT:      -3.5      1.974      3.080
  Name = 
  9 active torsions:
  status: ('A' for Active; 'I' for Inactive)
    1  A    between atoms: C_1  and  C_5
    2  A    between atoms: C_1  and  C_23
    3  A    between atoms: C_2  and  C_6
    4  A    between atoms: C_6  and  C_8
    5  A    between atoms: C_6  and  C_31
    6  A    between atoms: C_8  and  N_19
    7  A    between atoms: C_9  and  C_30
    8  A    between atoms: C_20  and  O_25
    9  A    between atoms: C_23  and  O_25
                            x       y       z     vdW  Elec       q    Type
                         _______ _______ _______ _____ _____    ______ ____

>  <TORSDO>
F 9

$$$$
=
 OpenBabel11062409253D

 37 39  0  0  1  0  0  0  0  0999 V2000
  162.1460  210.4160  151.5560 C   0  0  0  0  0  2  0  0  0  0  0  0
  160.4190  213.4550  150.2670 C   0  0  0  0  0  2  0  0  0  0  0  0
  161.1160  208.9100  153.4040 C   0  0  2  0  0  0  0  0  0  0  0  0
  160.8490  210.6210  150.7920 C   0  0  2  0  0  3  0  0  0  0  0  0
  162.0960  209.0330  152.1860 C   0  0  1  0  0  3  0  0  0  0  0  0
  160.3490  212.8960  151.6800 C   0  0  0  0  0  2  0  0  0  0  0  0
  160.0030  208.1260  153.0750 O   0  0  0  0  0  1  0  0  0  0  0  0
  162.1600  207.8670  151.1530 C   0  0  2  0  0  3  0  0  0  0  0  0
  158.2750  210.8700  153.3600 C   0  0  0  0  0  2  0  0  0  0  0  0
  160.5980  210.2970  153.8760 C   0  0  0  0  0  2  0  0  0  0  0  0
  162.9450  208.2130  149.8680 C   0  0  0  0  0  2  0  0  0  0  0  0
  159.5430  210.8860  152.9600 C   0  0  0  0  0  0  0  0  0  0  0  0
  161.1100  211.1600  149.3710 C   0  0  1  0  0  3  0  0  0  0  0  0
  161.4070  212.6900  149.3650 C   0  0  1  0  0  3  0  0  0  0  0  0
  162.2630  210.3660  148.7170 C   0  0  0  0  0  2  0  0  0  0  0  0
  162.0750  208.8500  148.7750 C   0  0  0  0  0  2  0  0  0  0  0  0
  159.8610  211.4620  151.5980 C   0  0  2  0  0  3  0  0  0  0  0  0
  161.8220  206.6930  154.4480 C   0  0  0  0  0  1  0  0  0  0  0  0
  161.8700  208.2120  154.5540 C   0  0  0  0  0  3  0  0  0  0  0  0
  161.3800  208.6380  155.9330 C   0  0  0  0  0  1  0  0  0  0  0  0
  161.3480  213.3480  147.9610 C   0  0  2  0  0  3  0  0  0  0  0  0
  162.4800  214.3200  147.6700 C   0  0  0  0  0  2  0  0  0  0  0  0
  163.6940  213.6330  147.6460 O   0  0  0  0  0  1  0  0  0  0  0  0
  160.0420  214.1170  147.7800 C   0  0  0  0  0  2  0  0  0  0  0  0
  158.1520  212.7960  147.3850 C   0  0  0  0  0  1  0  0  0  0  0  0
  160.0700  212.5130  146.0920 C   0  0  0  0  0  1  0  0  0  0  0  0
  159.2340  213.5140  146.7320 N   0  0  0  0  0  0  0  0  0  0  0  0
  160.8950  207.3500  150.8380 O   0  0  0  0  0  0  0  0  0  0  0  0
  160.5760  205.1910  151.8600 C   0  0  0  0  0  1  0  0  0  0  0  0
  161.0730  205.9740  150.6480 C   0  0  1  0  0  3  0  0  0  0  0  0
  160.3970  205.5220  149.3470 C   0  0  1  0  0  3  0  0  0  0  0  0
  159.8040  206.6140  148.7080 O   0  0  0  0  0  1  0  0  0  0  0  0
  161.3340  204.7840  148.3830 C   0  0  2  0  0  0  0  0  0  0  0  0
  161.4760  202.9030  148.5510 P   0  0  0  0  0  2  0  0  0  0  0  0
  162.5280  205.4140  148.0220 O   0  0  0  0  0  1  0  0  0  0  0  0
  160.7010  204.1060  147.2870 C   0  0  0  0  0  1  0  0  0  0  0  0
  159.9280  202.6150  149.2860 O   0  0  0  0  0  1  0  0  0  0  0  0
  2  6  1  0  0  0  0
  3  7  1  6  0  0  0
  3 10  1  0  0  0  0
  3 19  1  0  0  0  0
  4  1  1  1  0  0  0
  4 17  1  0  0  0  0
  5  1  1  6  0  0  0
  5  3  1  0  0  0  0
  8 28  1  6  0  0  0
  8  5  1  0  0  0  0
 11  8  1  0  0  0  0
 12  9  2  0  0  0  0
 12 10  1  0  0  0  0
 13 15  1  1  0  0  0
 13  4  1  0  0  0  0
 14 21  1  6  0  0  0
 14 13  1  0  0  0  0
 14  2  1  0  0  0  0
 15 16  1  0  0  0  0
 16 11  1  0  0  0  0
 17  6  1  1  0  0  0
 17 12  1  0  0  0  0
 18 19  1  0  0  0  0
 19 20  1  0  0  0  0
 21 22  1  1  0  0  0
 23 22  1  0  0  0  0
 24 21  1  0  0  0  0
 26 27  1  0  0  0  0
 27 25  1  0  0  0  0
 27 24  1  0  0  0  0
 30 28  1  0  0  0  0
 30 29  1  1  0  0  0
 31 32  1  6  0  0  0
 31 30  1  0  0  0  0
 33 36  1  6  0  0  0
 33 34  1  0  0  0  0
 33 31  1  0  0  0  0
 34 37  1  0  0  0  0
 35 33  1  0  0  0  0
M  END
>  <MODEL>
3

>  <REMARK>
 VINA RESULT:      -2.4      2.156      3.340
  Name = 
  9 active torsions:
  status: ('A' for Active; 'I' for Inactive)
    1  A    between atoms: C_1  and  C_5
    2  A    between atoms: C_1  and  C_23
    3  A    between atoms: C_2  and  C_6
    4  A    between atoms: C_6  and  C_8
    5  A    between atoms: C_6  and  C_31
    6  A    between atoms: C_8  and  N_19
    7  A    between atoms: C_9  and  C_30
    8  A    between atoms: C_20  and  O_25
    9  A    between atoms: C_23  and  O_25
                            x       y       z     vdW  Elec       q    Type
                         _______ _______ _______ _____ _____    ______ ____

>  <TORSDO>
F 9

$$$$
=
 OpenBabel11062409253D

 37 39  0  0  1  0  0  0  0  0999 V2000
  161.9170  207.8950  154.1780 C   0  0  0  0  0  2  0  0  0  0  0  0
  162.1340  206.2620  150.8370 C   0  0  0  0  0  2  0  0  0  0  0  0
  161.7660  210.4720  154.4590 C   0  0  2  0  0  0  0  0  0  0  0  0
  160.9590  207.8180  153.0020 C   0  0  2  0  0  3  0  0  0  0  0  0
  161.4730  209.0530  155.0580 C   0  0  1  0  0  3  0  0  0  0  0  0
  162.6980  207.6200  151.2270 C   0  0  0  0  0  2  0  0  0  0  0  0
  160.5780  211.1110  154.0800 O   0  0  0  0  0  1  0  0  0  0  0  0
  160.1150  208.8100  155.7840 C   0  0  2  0  0  3  0  0  0  0  0  0
  161.6550  210.7990  151.0240 C   0  0  0  0  0  2  0  0  0  0  0  0
  162.6850  210.3970  153.2090 C   0  0  0  0  0  2  0  0  0  0  0  0
  159.8270  207.3230  156.0870 C   0  0  0  0  0  2  0  0  0  0  0  0
  161.9670  209.9110  151.9650 C   0  0  0  0  0  0  0  0  0  0  0  0
  160.4630  206.3760  152.7710 C   0  0  1  0  0  3  0  0  0  0  0  0
  161.5170  205.5010  152.0270 C   0  0  1  0  0  3  0  0  0  0  0  0
  160.0650  205.7400  154.1210 C   0  0  0  0  0  2  0  0  0  0  0  0
  159.1030  206.5970  154.9440 C   0  0  0  0  0  2  0  0  0  0  0  0
  161.5580  208.4700  151.7580 C   0  0  2  0  0  3  0  0  0  0  0  0
  163.2850  210.4890  156.5070 C   0  0  0  0  0  1  0  0  0  0  0  0
  162.4380  211.3240  155.5550 C   0  0  0  0  0  3  0  0  0  0  0  0
  161.4440  212.1540  156.3580 C   0  0  0  0  0  1  0  0  0  0  0  0
  160.9630  204.1620  151.4750 C   0  0  2  0  0  3  0  0  0  0  0  0
  161.1160  202.9780  152.4160 C   0  0  0  0  0  2  0  0  0  0  0  0
  162.0090  202.0550  151.8700 O   0  0  0  0  0  1  0  0  0  0  0  0
  161.6580  203.7870  150.1690 C   0  0  0  0  0  2  0  0  0  0  0  0
  160.5160  202.2260  148.8520 C   0  0  0  0  0  1  0  0  0  0  0  0
  161.3110  204.2010  147.9030 C   0  0  0  0  0  1  0  0  0  0  0  0
  160.6880  203.6490  149.0940 N   0  0  0  0  0  0  0  0  0  0  0  0
  159.0300  209.4000  155.1190 O   0  0  0  0  0  0  0  0  0  0  0  0
  159.2290  210.4870  157.2610 C   0  0  0  0  0  1  0  0  0  0  0  0
  158.3210  210.1170  156.0920 C   0  0  1  0  0  3  0  0  0  0  0  0
  157.6500  211.3450  155.4650 C   0  0  1  0  0  3  0  0  0  0  0  0
  157.8200  211.3330  154.0780 O   0  0  0  0  0  1  0  0  0  0  0  0
  156.1650  211.4910  155.8190 C   0  0  2  0  0  0  0  0  0  0  0  0
  155.7030  212.6570  157.2390 P   0  0  0  0  0  2  0  0  0  0  0  0
  155.3580  210.3550  155.7320 O   0  0  0  0  0  1  0  0  0  0  0  0
  155.5180  212.6800  155.3390 C   0  0  0  0  0  1  0  0  0  0  0  0
  157.0950  213.6930  157.1560 O   0  0  0  0  0  1  0  0  0  0  0  0
  2  6  1  0  0  0  0
  2 14  1  0  0  0  0
  3  7  1  6  0  0  0
  3  5  1  0  0  0  0
  3 19  1  0  0  0  0
  4  1  1  1  0  0  0
  5  1  1  6  0  0  0
  5  8  1  0  0  0  0
  8 28  1  6  0  0  0
  8 11  1  0  0  0  0
  9 12  2  0  0  0  0
 10  3  1  0  0  0  0
 12 10  1  0  0  0  0
 13  4  1  0  0  0  0
 13 15  1  1  0  0  0
 14 21  1  6  0  0  0
 14 13  1  0  0  0  0
 15 16  1  0  0  0  0
 16 11  1  0  0  0  0
 17  6  1  1  0  0  0
 17 12  1  0  0  0  0
 17  4  1  0  0  0  0
 19 20  1  0  0  0  0
 19 18  1  0  0  0  0
 21 24  1  6  0  0  0
 21 22  1  0  0  0  0
 23 22  1  0  0  0  0
 25 27  1  0  0  0  0
 26 27  1  0  0  0  0
 27 24  1  0  0  0  0
 28 30  1  0  0  0  0
 30 29  1  1  0  0  0
 31 32  1  6  0  0  0
 31 33  1  0  0  0  0
 31 30  1  0  0  0  0
 33 36  1  6  0  0  0
 33 34  1  0  0  0  0
 35 33  1  0  0  0  0
 37 34  1  0  0  0  0
M  END
>  <MODEL>
4

>  <REMARK>
 VINA RESULT:      -1.8      3.809      7.638
  Name = 
  9 active torsions:
  status: ('A' for Active; 'I' for Inactive)
    1  A    between atoms: C_1  and  C_5
    2  A    between atoms: C_1  and  C_23
    3  A    between atoms: C_2  and  C_6
    4  A    between atoms: C_6  and  C_8
    5  A    between atoms: C_6  and  C_31
    6  A    between atoms: C_8  and  N_19
    7  A    between atoms: C_9  and  C_30
    8  A    between atoms: C_20  and  O_25
    9  A    between atoms: C_23  and  O_25
                            x       y       z     vdW  Elec       q    Type
                         _______ _______ _______ _____ _____    ______ ____

>  <TORSDO>
F 9

$$$$
