=
 OpenBabel11052422443D

 31 34  0  0  1  0  0  0  0  0999 V2000
  161.4200  207.4330  150.6070 C   0  0  0  0  0  0  0  0  0  0  0  0
  161.2880  206.0710  150.2690 C   0  0  0  0  0  0  0  0  0  0  0  0
  160.9710  203.8060  150.8830 C   0  0  0  0  0  3  0  0  0  0  0  0
  161.3450  207.9310  151.9930 C   0  0  0  0  0  0  0  0  0  0  0  0
  161.2170  208.2600  154.1390 C   0  0  0  0  0  0  0  0  0  0  0  0
  161.0930  205.1170  151.2190 N   0  0  0  0  0  0  0  0  0  0  0  0
  161.8660  209.8580  149.9150 C   0  0  1  0  0  3  0  0  0  0  0  0
  161.5610  206.6320  147.9490 N   0  0  0  0  0  0  0  0  0  0  0  0
  161.0390  203.4260  149.5800 N   0  0  0  0  0  2  0  0  0  0  0  0
  161.2090  210.3280  151.2320 C   0  0  0  0  0  2  0  0  0  0  0  0
  161.6050  208.3920  149.5800 C   0  0  0  0  0  0  0  0  0  0  0  0
  161.3130  207.2430  153.1930 C   0  0  0  0  0  3  0  0  0  0  0  0
  161.2770  203.9550  147.3890 O   0  0  0  0  0  0  0  0  0  0  0  0
  161.2730  209.2670  152.2800 C   0  0  0  0  0  0  0  0  0  0  0  0
  161.1880  209.4470  153.5720 O   0  0  0  0  0  0  0  0  0  0  0  0
  161.6930  207.9500  148.2530 C   0  0  0  0  0  3  0  0  0  0  0  0
  161.3580  205.6930  148.9130 C   0  0  0  0  0  0  0  0  0  0  0  0
  161.2270  204.3370  148.5900 C   0  0  0  0  0  0  0  0  0  0  0  0
  162.5860  213.6550  146.6760 C   0  0  0  0  0  1  0  0  0  0  0  0
  163.4640  211.8510  148.6380 O   0  0  0  0  0  0  0  0  0  0  0  0
  162.2720  211.7250  148.2450 C   0  0  0  0  0  0  0  0  0  0  0  0
  161.7580  212.5830  147.2160 N   0  0  0  0  0  0  0  0  0  0  0  0
  161.4310  210.7230  148.8250 N   0  0  0  0  0  2  0  0  0  0  0  0
  160.2950  212.3820  145.2580 C   0  0  0  0  0  1  0  0  0  0  0  0
  160.3740  212.4410  146.7760 C   0  0  2  0  0  3  0  0  0  0  0  0
  159.5890  213.5170  147.2790 O   0  0  0  0  0  0  0  0  0  0  0  0
  158.8250  213.4060  148.4420 C   0  0  0  0  0  0  0  0  0  0  0  0
  159.3550  213.5370  149.5790 O   0  0  0  0  0  0  0  0  0  0  0  0
  157.3640  213.1280  148.3400 C   0  0  0  0  0  1  0  0  0  0  0  0
  161.1510  208.0620  155.5870 C   0  0  0  0  0  3  0  0  0  0  0  0
  161.9780  208.6260  156.3520 O   0  0  0  0  0  0  0  0  0  0  0  0
  1  4  1  0  0  0  0
  2  1  1  0  0  0  0
  2  6  1  0  0  0  0
  3  6  2  0  0  0  0
  4 14  2  0  0  0  0
  4 12  1  0  0  0  0
  5 30  1  0  0  0  0
  7 23  1  6  0  0  0
  7 10  1  0  0  0  0
  8 16  2  0  0  0  0
  8 17  1  0  0  0  0
  9  3  1  0  0  0  0
 10 14  1  0  0  0  0
 11  7  1  0  0  0  0
 11  1  2  0  0  0  0
 12  5  2  0  0  0  0
 13 18  2  0  0  0  0
 14 15  1  0  0  0  0
 15  5  1  0  0  0  0
 16 11  1  0  0  0  0
 17  2  2  0  0  0  0
 18 17  1  0  0  0  0
 18  9  1  0  0  0  0
 19 22  1  0  0  0  0
 21 20  2  0  0  0  0
 21 23  1  0  0  0  0
 22 21  1  0  0  0  0
 25 24  1  6  0  0  0
 25 22  1  0  0  0  0
 25 26  1  0  0  0  0
 26 27  1  0  0  0  0
 27 28  2  0  0  0  0
 29 27  1  0  0  0  0
 30 31  2  0  0  0  0
M  END
>  <MODEL>
1

>  <REMARK>
 VINA RESULT:      -7.6      0.000      0.000
  Name = 
  5 active torsions:
  status: ('A' for Active; 'I' for Inactive)
    1  A    between atoms: C_1  and  O_24
    2  A    between atoms: C_2  and  C_13
    3  A    between atoms: C_15  and  N_23
    4  A    between atoms: C_19  and  N_22
    5  A    between atoms: C_19  and  O_24
                            x       y       z     vdW  Elec       q    Type
                         _______ _______ _______ _____ _____    ______ ____

>  <TORSDO>
F 5

$$$$
=
 OpenBabel11052422443D

 31 34  0  0  1  0  0  0  0  0999 V2000
  161.4300  207.2230  150.8230 C   0  0  0  0  0  0  0  0  0  0  0  0
  161.2400  205.9290  150.2960 C   0  0  0  0  0  0  0  0  0  0  0  0
  160.6750  203.6450  150.5670 C   0  0  0  0  0  3  0  0  0  0  0  0
  161.2140  207.5540  152.2440 C   0  0  0  0  0  0  0  0  0  0  0  0
  160.8350  207.6320  154.3840 C   0  0  0  0  0  0  0  0  0  0  0  0
  160.8510  204.8900  151.0840 N   0  0  0  0  0  0  0  0  0  0  0  0
  162.1430  209.6630  150.5140 C   0  0  1  0  0  3  0  0  0  0  0  0
  161.8510  206.7390  148.1190 N   0  0  0  0  0  0  0  0  0  0  0  0
  160.8820  203.4210  149.2430 N   0  0  0  0  0  2  0  0  0  0  0  0
  161.3590  210.0280  151.7930 C   0  0  0  0  0  2  0  0  0  0  0  0
  161.8170  208.2770  149.9610 C   0  0  0  0  0  0  0  0  0  0  0  0
  160.9750  206.7330  153.3320 C   0  0  0  0  0  3  0  0  0  0  0  0
  161.4400  204.1860  147.1840 O   0  0  0  0  0  0  0  0  0  0  0  0
  161.2070  208.8470  152.6940 C   0  0  0  0  0  0  0  0  0  0  0  0
  160.9700  208.8770  153.9780 O   0  0  0  0  0  0  0  0  0  0  0  0
  162.0420  207.9930  148.6070 C   0  0  0  0  0  3  0  0  0  0  0  0
  161.4550  205.7130  148.9200 C   0  0  0  0  0  0  0  0  0  0  0  0
  161.2640  204.4240  148.4100 C   0  0  0  0  0  0  0  0  0  0  0  0
  160.2190  214.0620  148.9740 C   0  0  0  0  0  1  0  0  0  0  0  0
  160.8340  212.1640  150.9470 O   0  0  0  0  0  0  0  0  0  0  0  0
  161.2280  211.9120  149.7750 C   0  0  0  0  0  0  0  0  0  0  0  0
  160.9890  212.8510  148.7170 N   0  0  0  0  0  0  0  0  0  0  0  0
  161.9190  210.6890  149.5020 N   0  0  0  0  0  2  0  0  0  0  0  0
  162.9020  212.9130  147.1830 C   0  0  0  0  0  1  0  0  0  0  0  0
  161.4360  212.5470  147.3610 C   0  0  2  0  0  3  0  0  0  0  0  0
  160.6270  213.2360  146.4140 O   0  0  0  0  0  0  0  0  0  0  0  0
  159.5880  212.6100  145.7220 C   0  0  0  0  0  0  0  0  0  0  0  0
  158.4780  212.3930  146.2790 O   0  0  0  0  0  0  0  0  0  0  0  0
  159.7940  212.1940  144.3060 C   0  0  0  0  0  1  0  0  0  0  0  0
  160.5680  207.2680  155.7760 C   0  0  0  0  0  3  0  0  0  0  0  0
  159.3910  207.0540  156.1710 O   0  0  0  0  0  0  0  0  0  0  0  0
  1  4  1  0  0  0  0
  2  1  1  0  0  0  0
  2  6  1  0  0  0  0
  3  6  2  0  0  0  0
  4 14  2  0  0  0  0
  4 12  1  0  0  0  0
  5 30  1  0  0  0  0
  7 23  1  6  0  0  0
  7 10  1  0  0  0  0
  8 16  2  0  0  0  0
  8 17  1  0  0  0  0
  9  3  1  0  0  0  0
 10 14  1  0  0  0  0
 11  7  1  0  0  0  0
 11  1  2  0  0  0  0
 12  5  2  0  0  0  0
 13 18  2  0  0  0  0
 14 15  1  0  0  0  0
 15  5  1  0  0  0  0
 16 11  1  0  0  0  0
 17  2  2  0  0  0  0
 18 17  1  0  0  0  0
 18  9  1  0  0  0  0
 21 20  2  0  0  0  0
 22 19  1  0  0  0  0
 22 21  1  0  0  0  0
 23 21  1  0  0  0  0
 25 24  1  1  0  0  0
 25 22  1  0  0  0  0
 26 25  1  0  0  0  0
 27 28  2  0  0  0  0
 27 26  1  0  0  0  0
 29 27  1  0  0  0  0
 30 31  2  0  0  0  0
M  END
>  <MODEL>
2

>  <REMARK>
 VINA RESULT:      -7.3      1.311      1.830
  Name = 
  5 active torsions:
  status: ('A' for Active; 'I' for Inactive)
    1  A    between atoms: C_1  and  O_24
    2  A    between atoms: C_2  and  C_13
    3  A    between atoms: C_15  and  N_23
    4  A    between atoms: C_19  and  N_22
    5  A    between atoms: C_19  and  O_24
                            x       y       z     vdW  Elec       q    Type
                         _______ _______ _______ _____ _____    ______ ____

>  <TORSDO>
F 5

$$$$
=
 OpenBabel11052422443D

 31 34  0  0  1  0  0  0  0  0999 V2000
  161.7020  208.5320  151.0730 C   0  0  0  0  0  0  0  0  0  0  0  0
  161.2890  208.6940  152.4110 C   0  0  0  0  0  0  0  0  0  0  0  0
  160.5860  210.0640  154.2100 C   0  0  0  0  0  3  0  0  0  0  0  0
  161.8190  209.6550  150.1240 C   0  0  0  0  0  0  0  0  0  0  0  0
  161.9030  211.5490  149.0570 C   0  0  0  0  0  0  0  0  0  0  0  0
  160.9790  209.9180  152.9170 N   0  0  0  0  0  2  0  0  0  0  0  0
  162.5570  207.0350  149.1790 C   0  0  1  0  0  3  0  0  0  0  0  0
  161.5050  206.3260  152.7520 N   0  0  0  0  0  0  0  0  0  0  0  0
  160.4910  208.9780  155.0210 N   0  0  0  0  0  0  0  0  0  0  0  0
  162.0930  208.1000  148.1620 C   0  0  0  0  0  2  0  0  0  0  0  0
  161.9970  207.2350  150.5860 C   0  0  0  0  0  0  0  0  0  0  0  0
  161.7370  211.0200  150.3340 C   0  0  0  0  0  3  0  0  0  0  0  0
  160.6760  206.7410  155.3400 O   0  0  0  0  0  0  0  0  0  0  0  0
  162.0240  209.4550  148.7860 C   0  0  0  0  0  0  0  0  0  0  0  0
  162.0640  210.6000  148.1590 O   0  0  0  0  0  0  0  0  0  0  0  0
  161.9070  206.1480  151.4660 C   0  0  0  0  0  3  0  0  0  0  0  0
  161.1920  207.5570  153.2380 C   0  0  0  0  0  0  0  0  0  0  0  0
  160.7820  207.7310  154.5660 C   0  0  0  0  0  0  0  0  0  0  0  0
  161.3030  203.8630  145.4650 C   0  0  0  0  0  1  0  0  0  0  0  0
  162.1400  206.3600  146.4360 O   0  0  0  0  0  0  0  0  0  0  0  0
  161.9960  205.4400  147.2870 C   0  0  0  0  0  0  0  0  0  0  0  0
  161.6090  204.1230  146.8670 N   0  0  0  0  0  0  0  0  0  0  0  0
  162.2220  205.7080  148.6740 N   0  0  0  0  0  2  0  0  0  0  0  0
  160.9030  201.7990  147.2040 C   0  0  0  0  0  1  0  0  0  0  0  0
  161.4310  203.0670  147.8580 C   0  0  2  0  0  3  0  0  0  0  0  0
  160.5500  203.5070  148.8870 O   0  0  0  0  0  0  0  0  0  0  0  0
  160.5530  202.9440  150.1650 C   0  0  0  0  0  0  0  0  0  0  0  0
  160.2030  203.6210  151.1700 O   0  0  0  0  0  0  0  0  0  0  0  0
  160.9740  201.5260  150.3440 C   0  0  0  0  0  1  0  0  0  0  0  0
  161.8990  212.9740  148.7260 C   0  0  0  0  0  3  0  0  0  0  0  0
  162.8000  213.4670  147.9960 O   0  0  0  0  0  0  0  0  0  0  0  0
  1  2  1  0  0  0  0
  2  6  1  0  0  0  0
  2 17  2  0  0  0  0
  3  9  2  0  0  0  0
  4 12  1  0  0  0  0
  4  1  1  0  0  0  0
  5 12  2  0  0  0  0
  6  3  1  0  0  0  0
  7 23  1  6  0  0  0
  7 11  1  0  0  0  0
  8 17  1  0  0  0  0
 10 14  1  0  0  0  0
 10  7  1  0  0  0  0
 11  1  2  0  0  0  0
 11 16  1  0  0  0  0
 14  4  2  0  0  0  0
 15 14  1  0  0  0  0
 15  5  1  0  0  0  0
 16  8  2  0  0  0  0
 17 18  1  0  0  0  0
 18  9  1  0  0  0  0
 18 13  2  0  0  0  0
 19 22  1  0  0  0  0
 20 21  2  0  0  0  0
 21 23  1  0  0  0  0
 22 21  1  0  0  0  0
 22 25  1  0  0  0  0
 25 24  1  6  0  0  0
 25 26  1  0  0  0  0
 26 27  1  0  0  0  0
 27 29  1  0  0  0  0
 27 28  2  0  0  0  0
 30  5  1  0  0  0  0
 31 30  2  0  0  0  0
M  END
>  <MODEL>
3

>  <REMARK>
 VINA RESULT:      -6.6      2.497      7.147
  Name = 
  5 active torsions:
  status: ('A' for Active; 'I' for Inactive)
    1  A    between atoms: C_1  and  O_24
    2  A    between atoms: C_2  and  C_13
    3  A    between atoms: C_15  and  N_23
    4  A    between atoms: C_19  and  N_22
    5  A    between atoms: C_19  and  O_24
                            x       y       z     vdW  Elec       q    Type
                         _______ _______ _______ _____ _____    ______ ____

>  <TORSDO>
F 5

$$$$
=
 OpenBabel11052422443D

 31 34  0  0  1  0  0  0  0  0999 V2000
  161.5310  209.2950  151.3580 C   0  0  0  0  0  0  0  0  0  0  0  0
  161.1800  209.6950  152.6630 C   0  0  0  0  0  0  0  0  0  0  0  0
  160.6780  211.3830  154.2470 C   0  0  0  0  0  3  0  0  0  0  0  0
  161.7300  210.2460  150.2490 C   0  0  0  0  0  0  0  0  0  0  0  0
  161.9690  211.9410  148.9070 C   0  0  0  0  0  0  0  0  0  0  0  0
  161.0120  211.0070  152.9850 N   0  0  0  0  0  2  0  0  0  0  0  0
  162.1690  207.4520  149.6980 C   0  0  1  0  0  3  0  0  0  0  0  0
  161.1670  207.3950  153.3540 N   0  0  0  0  0  0  0  0  0  0  0  0
  160.5000  210.4450  155.2140 N   0  0  0  0  0  0  0  0  0  0  0  0
  161.7820  208.3970  148.5390 C   0  0  0  0  0  2  0  0  0  0  0  0
  161.6780  207.9160  151.0670 C   0  0  0  0  0  0  0  0  0  0  0  0
  161.7930  211.6280  150.2520 C   0  0  0  0  0  3  0  0  0  0  0  0
  160.4690  208.2740  155.8640 O   0  0  0  0  0  0  0  0  0  0  0  0
  161.8700  209.8290  148.9530 C   0  0  0  0  0  0  0  0  0  0  0  0
  162.0040  210.8590  148.1600 O   0  0  0  0  0  0  0  0  0  0  0  0
  161.5080  206.9870  152.1030 C   0  0  0  0  0  3  0  0  0  0  0  0
  160.9960  208.7100  153.6540 C   0  0  0  0  0  0  0  0  0  0  0  0
  160.6490  209.1210  154.9470 C   0  0  0  0  0  0  0  0  0  0  0  0
  161.5000  203.5330  146.5970 C   0  0  0  0  0  1  0  0  0  0  0  0
  162.5860  206.0350  147.2540 O   0  0  0  0  0  0  0  0  0  0  0  0
  161.9030  205.4620  148.1460 C   0  0  0  0  0  0  0  0  0  0  0  0
  161.3460  204.1620  147.9030 N   0  0  0  0  0  0  0  0  0  0  0  0
  161.6860  206.1080  149.4040 N   0  0  0  0  0  2  0  0  0  0  0  0
  161.2930  203.4820  150.2600 C   0  0  0  0  0  1  0  0  0  0  0  0
  160.5460  203.5100  148.9350 C   0  0  2  0  0  3  0  0  0  0  0  0
  160.2000  202.1910  148.5250 O   0  0  0  0  0  0  0  0  0  0  0  0
  160.9570  201.0730  148.8830 C   0  0  0  0  0  0  0  0  0  0  0  0
  161.0820  200.7390  150.0920 O   0  0  0  0  0  0  0  0  0  0  0  0
  161.6250  200.2660  147.8240 C   0  0  0  0  0  1  0  0  0  0  0  0
  162.0980  213.2940  148.3650 C   0  0  0  0  0  3  0  0  0  0  0  0
  161.4240  214.2460  148.8410 O   0  0  0  0  0  0  0  0  0  0  0  0
  1  2  1  0  0  0  0
  2  6  1  0  0  0  0
  2 17  2  0  0  0  0
  3  9  2  0  0  0  0
  4 12  1  0  0  0  0
  4  1  1  0  0  0  0
  5 12  2  0  0  0  0
  6  3  1  0  0  0  0
  7 23  1  6  0  0  0
  7 11  1  0  0  0  0
  8 17  1  0  0  0  0
 10 14  1  0  0  0  0
 10  7  1  0  0  0  0
 11  1  2  0  0  0  0
 11 16  1  0  0  0  0
 14  4  2  0  0  0  0
 15  5  1  0  0  0  0
 15 14  1  0  0  0  0
 16  8  2  0  0  0  0
 17 18  1  0  0  0  0
 18  9  1  0  0  0  0
 18 13  2  0  0  0  0
 19 22  1  0  0  0  0
 20 21  2  0  0  0  0
 21 23  1  0  0  0  0
 22 21  1  0  0  0  0
 22 25  1  0  0  0  0
 25 24  1  1  0  0  0
 26 27  1  0  0  0  0
 26 25  1  0  0  0  0
 27 28  2  0  0  0  0
 29 27  1  0  0  0  0
 30 31  2  0  0  0  0
 30  5  1  0  0  0  0
M  END
>  <MODEL>
4

>  <REMARK>
 VINA RESULT:      -6.2      2.366      7.733
  Name = 
  5 active torsions:
  status: ('A' for Active; 'I' for Inactive)
    1  A    between atoms: C_1  and  O_24
    2  A    between atoms: C_2  and  C_13
    3  A    between atoms: C_15  and  N_23
    4  A    between atoms: C_19  and  N_22
    5  A    between atoms: C_19  and  O_24
                            x       y       z     vdW  Elec       q    Type
                         _______ _______ _______ _____ _____    ______ ____

>  <TORSDO>
F 5

$$$$
=
 OpenBabel11052422443D

 31 34  0  0  1  0  0  0  0  0999 V2000
  161.4220  207.9690  151.6220 C   0  0  0  0  0  0  0  0  0  0  0  0
  161.1040  208.3980  152.9270 C   0  0  0  0  0  0  0  0  0  0  0  0
  160.7490  210.1220  154.5110 C   0  0  0  0  0  3  0  0  0  0  0  0
  161.7070  208.9000  150.5140 C   0  0  0  0  0  0  0  0  0  0  0  0
  162.0990  210.5680  149.1750 C   0  0  0  0  0  0  0  0  0  0  0  0
  161.0520  209.7190  153.2490 N   0  0  0  0  0  2  0  0  0  0  0  0
  161.8990  206.0780  149.9620 C   0  0  1  0  0  3  0  0  0  0  0  0
  160.8860  206.1070  153.6150 N   0  0  0  0  0  0  0  0  0  0  0  0
  160.4860  209.2030  155.4760 N   0  0  0  0  0  0  0  0  0  0  0  0
  161.6000  207.0550  148.8030 C   0  0  0  0  0  2  0  0  0  0  0  0
  161.4470  206.5830  151.3300 C   0  0  0  0  0  0  0  0  0  0  0  0
  161.8920  210.2710  150.5180 C   0  0  0  0  0  3  0  0  0  0  0  0
  160.2610  207.0430  156.1230 O   0  0  0  0  0  0  0  0  0  0  0  0
  161.8140  208.4730  149.2180 C   0  0  0  0  0  0  0  0  0  0  0  0
  162.0410  209.4870  148.4260 O   0  0  0  0  0  0  0  0  0  0  0  0
  161.1930  205.6720  152.3640 C   0  0  0  0  0  3  0  0  0  0  0  0
  160.8310  207.4330  153.9160 C   0  0  0  0  0  0  0  0  0  0  0  0
  160.5180  207.8710  155.2080 C   0  0  0  0  0  0  0  0  0  0  0  0
  161.2080  201.1700  150.8860 C   0  0  0  0  0  1  0  0  0  0  0  0
  162.1870  203.7170  151.5410 O   0  0  0  0  0  0  0  0  0  0  0  0
  161.5070  203.6260  150.4830 C   0  0  0  0  0  0  0  0  0  0  0  0
  160.9360  202.3670  150.0980 N   0  0  0  0  0  0  0  0  0  0  0  0
  161.2990  204.7820  149.6650 N   0  0  0  0  0  2  0  0  0  0  0  0
  158.9770  201.3280  149.0490 C   0  0  0  0  0  1  0  0  0  0  0  0
  160.1610  202.2660  148.8660 C   0  0  2  0  0  3  0  0  0  0  0  0
  160.9940  201.8220  147.8000 O   0  0  0  0  0  0  0  0  0  0  0  0
  160.9610  202.4060  146.5310 C   0  0  0  0  0  0  0  0  0  0  0  0
  160.4140  201.8150  145.5620 O   0  0  0  0  0  0  0  0  0  0  0  0
  161.5810  203.7450  146.3210 C   0  0  0  0  0  1  0  0  0  0  0  0
  162.3490  211.9050  148.6340 C   0  0  0  0  0  3  0  0  0  0  0  0
  163.3920  212.1450  147.9690 O   0  0  0  0  0  0  0  0  0  0  0  0
  1  2  1  0  0  0  0
  2  6  1  0  0  0  0
  2 17  2  0  0  0  0
  3  9  2  0  0  0  0
  4 12  1  0  0  0  0
  4  1  1  0  0  0  0
  5 12  2  0  0  0  0
  6  3  1  0  0  0  0
  7 23  1  6  0  0  0
  7 11  1  0  0  0  0
  8 17  1  0  0  0  0
 10 14  1  0  0  0  0
 10  7  1  0  0  0  0
 11  1  2  0  0  0  0
 11 16  1  0  0  0  0
 14  4  2  0  0  0  0
 15  5  1  0  0  0  0
 15 14  1  0  0  0  0
 16  8  2  0  0  0  0
 17 18  1  0  0  0  0
 18  9  1  0  0  0  0
 18 13  2  0  0  0  0
 21 20  2  0  0  0  0
 22 21  1  0  0  0  0
 22 19  1  0  0  0  0
 23 21  1  0  0  0  0
 25 24  1  1  0  0  0
 25 22  1  0  0  0  0
 26 25  1  0  0  0  0
 27 26  1  0  0  0  0
 28 27  2  0  0  0  0
 29 27  1  0  0  0  0
 30  5  1  0  0  0  0
 31 30  2  0  0  0  0
M  END
>  <MODEL>
5

>  <REMARK>
 VINA RESULT:      -6.0      2.688      7.858
  Name = 
  5 active torsions:
  status: ('A' for Active; 'I' for Inactive)
    1  A    between atoms: C_1  and  O_24
    2  A    between atoms: C_2  and  C_13
    3  A    between atoms: C_15  and  N_23
    4  A    between atoms: C_19  and  N_22
    5  A    between atoms: C_19  and  O_24
                            x       y       z     vdW  Elec       q    Type
                         _______ _______ _______ _____ _____    ______ ____

>  <TORSDO>
F 5

$$$$
=
 OpenBabel11052422443D

 31 34  0  0  1  0  0  0  0  0999 V2000
  161.5480  207.4440  151.5070 C   0  0  0  0  0  0  0  0  0  0  0  0
  161.8310  207.8640  150.1920 C   0  0  0  0  0  0  0  0  0  0  0  0
  162.2620  207.3870  147.9120 C   0  0  0  0  0  3  0  0  0  0  0  0
  161.3820  206.0280  151.8830 C   0  0  0  0  0  0  0  0  0  0  0  0
  161.2520  203.8620  152.0420 C   0  0  0  0  0  0  0  0  0  0  0  0
  161.9840  206.9710  149.1760 N   0  0  0  0  0  0  0  0  0  0  0  0
  161.1860  207.9910  153.9820 C   0  0  1  0  0  3  0  0  0  0  0  0
  161.8140  210.1500  150.9300 N   0  0  0  0  0  0  0  0  0  0  0  0
  162.3880  208.7120  147.6420 N   0  0  0  0  0  2  0  0  0  0  0  0
  160.4730  206.6320  154.1530 C   0  0  0  0  0  2  0  0  0  0  0  0
  161.3800  208.4120  152.5270 C   0  0  0  0  0  0  0  0  0  0  0  0
  161.6180  204.8730  151.1580 C   0  0  0  0  0  3  0  0  0  0  0  0
  162.3540  210.8710  148.3320 O   0  0  0  0  0  0  0  0  0  0  0  0
  160.9110  205.6540  153.1120 C   0  0  0  0  0  0  0  0  0  0  0  0
  160.8300  204.3520  153.1880 O   0  0  0  0  0  0  0  0  0  0  0  0
  161.5430  209.7660  152.2050 C   0  0  0  0  0  3  0  0  0  0  0  0
  161.9560  209.2430  149.9260 C   0  0  0  0  0  0  0  0  0  0  0  0
  162.2390  209.6470  148.6160 C   0  0  0  0  0  0  0  0  0  0  0  0
  160.9610  211.8160  157.2600 C   0  0  0  0  0  1  0  0  0  0  0  0
  162.3590  209.9700  155.6750 O   0  0  0  0  0  0  0  0  0  0  0  0
  161.1010  209.9610  155.5810 C   0  0  0  0  0  0  0  0  0  0  0  0
  160.3150  210.9010  156.3270 N   0  0  0  0  0  0  0  0  0  0  0  0
  160.4560  209.0140  154.7230 N   0  0  0  0  0  2  0  0  0  0  0  0
  158.4080  211.3720  154.8580 C   0  0  0  0  0  1  0  0  0  0  0  0
  158.8590  210.8760  156.2230 C   0  0  2  0  0  3  0  0  0  0  0  0
  158.2820  211.6620  157.2610 O   0  0  0  0  0  0  0  0  0  0  0  0
  157.0580  212.3180  157.1090 C   0  0  0  0  0  0  0  0  0  0  0  0
  155.9830  211.6660  157.0170 O   0  0  0  0  0  0  0  0  0  0  0  0
  157.0220  213.8070  157.0560 C   0  0  0  0  0  1  0  0  0  0  0  0
  161.3140  202.4280  151.7580 C   0  0  0  0  0  3  0  0  0  0  0  0
  160.9280  201.9750  150.6480 O   0  0  0  0  0  0  0  0  0  0  0  0
  1  4  1  0  0  0  0
  1 11  1  0  0  0  0
  2  1  2  0  0  0  0
  3  6  2  0  0  0  0
  4 14  2  0  0  0  0
  5 15  1  0  0  0  0
  6  2  1  0  0  0  0
  7 10  1  0  0  0  0
  7 23  1  1  0  0  0
  8 16  1  0  0  0  0
  9  3  1  0  0  0  0
  9 18  1  0  0  0  0
 11  7  1  0  0  0  0
 12  4  1  0  0  0  0
 12  5  2  0  0  0  0
 13 18  2  0  0  0  0
 14 15  1  0  0  0  0
 14 10  1  0  0  0  0
 16 11  2  0  0  0  0
 17  2  1  0  0  0  0
 17  8  2  0  0  0  0
 18 17  1  0  0  0  0
 21 20  2  0  0  0  0
 21 22  1  0  0  0  0
 22 19  1  0  0  0  0
 23 21  1  0  0  0  0
 25 24  1  6  0  0  0
 25 22  1  0  0  0  0
 25 26  1  0  0  0  0
 27 26  1  0  0  0  0
 28 27  2  0  0  0  0
 29 27  1  0  0  0  0
 30  5  1  0  0  0  0
 31 30  2  0  0  0  0
M  END
>  <MODEL>
6

>  <REMARK>
 VINA RESULT:      -6.0      3.456      6.564
  Name = 
  5 active torsions:
  status: ('A' for Active; 'I' for Inactive)
    1  A    between atoms: C_1  and  O_24
    2  A    between atoms: C_2  and  C_13
    3  A    between atoms: C_15  and  N_23
    4  A    between atoms: C_19  and  N_22
    5  A    between atoms: C_19  and  O_24
                            x       y       z     vdW  Elec       q    Type
                         _______ _______ _______ _____ _____    ______ ____

>  <TORSDO>
F 5

$$$$
=
 OpenBabel11052422443D

 31 34  0  0  1  0  0  0  0  0999 V2000
  161.1790  207.4590  150.8530 C   0  0  0  0  0  0  0  0  0  0  0  0
  161.5830  208.7570  150.4790 C   0  0  0  0  0  0  0  0  0  0  0  0
  162.3490  210.9280  151.0340 C   0  0  0  0  0  3  0  0  0  0  0  0
  161.1500  206.9960  152.2530 C   0  0  0  0  0  0  0  0  0  0  0  0
  161.2060  206.7080  154.4080 C   0  0  0  0  0  0  0  0  0  0  0  0
  161.9660  209.6780  151.4050 N   0  0  0  0  0  0  0  0  0  0  0  0
  160.2540  205.1550  150.2250 C   0  0  1  0  0  3  0  0  0  0  0  0
  161.2060  208.1980  148.1740 N   0  0  0  0  0  0  0  0  0  0  0  0
  162.3610  211.2770  149.7210 N   0  0  0  0  0  2  0  0  0  0  0  0
  160.8010  204.6000  151.5580 C   0  0  0  0  0  2  0  0  0  0  0  0
  160.8060  206.5290  149.8520 C   0  0  0  0  0  0  0  0  0  0  0  0
  161.3190  207.6960  153.4340 C   0  0  0  0  0  3  0  0  0  0  0  0
  162.0240  210.7460  147.5430 O   0  0  0  0  0  0  0  0  0  0  0  0
  160.9500  205.6810  152.5770 C   0  0  0  0  0  0  0  0  0  0  0  0
  160.9960  205.5240  153.8730 O   0  0  0  0  0  0  0  0  0  0  0  0
  160.8100  206.9420  148.5130 C   0  0  0  0  0  3  0  0  0  0  0  0
  161.5930  209.1030  149.1130 C   0  0  0  0  0  0  0  0  0  0  0  0
  161.9950  210.3950  148.7540 C   0  0  0  0  0  0  0  0  0  0  0  0
  161.5800  200.5770  148.5810 C   0  0  0  0  0  1  0  0  0  0  0  0
  160.8970  202.3990  150.6030 O   0  0  0  0  0  0  0  0  0  0  0  0
  160.8550  202.8260  149.4160 C   0  0  0  0  0  0  0  0  0  0  0  0
  161.1510  201.9460  148.3220 N   0  0  0  0  0  0  0  0  0  0  0  0
  160.5070  204.1900  149.1610 N   0  0  0  0  0  2  0  0  0  0  0  0
  160.8310  201.3240  145.9710 C   0  0  0  0  0  1  0  0  0  0  0  0
  161.1130  202.4510  146.9530 C   0  0  2  0  0  3  0  0  0  0  0  0
  162.3420  203.0980  146.6370 O   0  0  0  0  0  0  0  0  0  0  0  0
  162.3910  204.3550  146.0300 C   0  0  0  0  0  0  0  0  0  0  0  0
  163.4530  205.0340  146.0360 O   0  0  0  0  0  0  0  0  0  0  0  0
  161.1720  204.9010  145.3680 C   0  0  0  0  0  1  0  0  0  0  0  0
  161.3090  206.9290  155.8510 C   0  0  0  0  0  3  0  0  0  0  0  0
  160.2780  206.9520  156.5730 O   0  0  0  0  0  0  0  0  0  0  0  0
  1  4  1  0  0  0  0
  2  1  1  0  0  0  0
  2  6  1  0  0  0  0
  3  6  2  0  0  0  0
  4 14  2  0  0  0  0
  4 12  1  0  0  0  0
  5 30  1  0  0  0  0
  7 23  1  6  0  0  0
  7 10  1  0  0  0  0
  8 16  2  0  0  0  0
  8 17  1  0  0  0  0
  9  3  1  0  0  0  0
 10 14  1  0  0  0  0
 11  7  1  0  0  0  0
 11  1  2  0  0  0  0
 12  5  2  0  0  0  0
 13 18  2  0  0  0  0
 14 15  1  0  0  0  0
 15  5  1  0  0  0  0
 16 11  1  0  0  0  0
 17  2  2  0  0  0  0
 18 17  1  0  0  0  0
 18  9  1  0  0  0  0
 21 20  2  0  0  0  0
 22 19  1  0  0  0  0
 22 21  1  0  0  0  0
 23 21  1  0  0  0  0
 25 24  1  6  0  0  0
 25 22  1  0  0  0  0
 26 25  1  0  0  0  0
 27 28  2  0  0  0  0
 27 26  1  0  0  0  0
 29 27  1  0  0  0  0
 30 31  2  0  0  0  0
M  END
>  <MODEL>
7

>  <REMARK>
 VINA RESULT:      -5.3      2.510      6.948
  Name = 
  5 active torsions:
  status: ('A' for Active; 'I' for Inactive)
    1  A    between atoms: C_1  and  O_24
    2  A    between atoms: C_2  and  C_13
    3  A    between atoms: C_15  and  N_23
    4  A    between atoms: C_19  and  N_22
    5  A    between atoms: C_19  and  O_24
                            x       y       z     vdW  Elec       q    Type
                         _______ _______ _______ _____ _____    ______ ____

>  <TORSDO>
F 5

$$$$
=
 OpenBabel11052422443D

 31 34  0  0  1  0  0  0  0  0999 V2000
  161.0340  204.2620  148.0370 C   0  0  0  0  0  0  0  0  0  0  0  0
  161.1440  202.8750  148.2610 C   0  0  0  0  0  0  0  0  0  0  0  0
  161.5820  200.6800  147.4860 C   0  0  0  0  0  3  0  0  0  0  0  0
  161.2850  204.8900  146.7260 C   0  0  0  0  0  0  0  0  0  0  0  0
  161.6920  205.4220  144.6570 C   0  0  0  0  0  0  0  0  0  0  0  0
  161.4830  202.0170  147.2600 N   0  0  0  0  0  2  0  0  0  0  0  0
  160.4560  206.6080  148.8860 C   0  0  1  0  0  3  0  0  0  0  0  0
  160.5550  203.2110  150.5650 N   0  0  0  0  0  0  0  0  0  0  0  0
  161.3470  200.1780  148.7260 N   0  0  0  0  0  0  0  0  0  0  0  0
  161.2750  207.2040  147.7190 C   0  0  0  0  0  2  0  0  0  0  0  0
  160.6970  205.1180  149.1140 C   0  0  0  0  0  0  0  0  0  0  0  0
  161.4890  204.3200  145.4820 C   0  0  0  0  0  3  0  0  0  0  0  0
  160.8090  200.4950  150.9050 O   0  0  0  0  0  0  0  0  0  0  0  0
  161.3700  206.2480  146.5770 C   0  0  0  0  0  0  0  0  0  0  0  0
  161.6240  206.5500  145.3310 O   0  0  0  0  0  0  0  0  0  0  0  0
  160.4410  204.5510  150.3700 C   0  0  0  0  0  3  0  0  0  0  0  0
  160.9020  202.3700  149.5540 C   0  0  0  0  0  0  0  0  0  0  0  0
  161.0130  200.9900  149.7630 C   0  0  0  0  0  0  0  0  0  0  0  0
  162.9580  210.1390  151.4740 C   0  0  0  0  0  1  0  0  0  0  0  0
  162.2790  208.7960  149.1050 O   0  0  0  0  0  0  0  0  0  0  0  0
  161.6760  208.4370  150.1540 C   0  0  0  0  0  0  0  0  0  0  0  0
  161.9370  209.1020  151.3990 N   0  0  0  0  0  0  0  0  0  0  0  0
  160.7270  207.3680  150.1010 N   0  0  0  0  0  2  0  0  0  0  0  0
  161.1850  209.8040  153.6250 C   0  0  0  0  0  1  0  0  0  0  0  0
  161.2460  208.6720  152.6100 C   0  0  2  0  0  3  0  0  0  0  0  0
  161.8950  207.5330  153.1650 O   0  0  0  0  0  0  0  0  0  0  0  0
  161.2040  206.5560  153.8870 C   0  0  0  0  0  0  0  0  0  0  0  0
  161.2070  205.3530  153.5110 O   0  0  0  0  0  0  0  0  0  0  0  0
  160.4560  206.9410  155.1160 C   0  0  0  0  0  1  0  0  0  0  0  0
  161.9540  205.3630  143.2190 C   0  0  0  0  0  3  0  0  0  0  0  0
  161.5810  206.2950  142.4580 O   0  0  0  0  0  0  0  0  0  0  0  0
  1  2  2  0  0  0  0
  1 11  1  0  0  0  0
  2 17  1  0  0  0  0
  3  9  2  0  0  0  0
  4  1  1  0  0  0  0
  5 15  1  0  0  0  0
  5 12  2  0  0  0  0
  6  3  1  0  0  0  0
  6  2  1  0  0  0  0
  7 11  1  0  0  0  0
  7 23  1  1  0  0  0
  9 18  1  0  0  0  0
 10  7  1  0  0  0  0
 11 16  2  0  0  0  0
 12  4  1  0  0  0  0
 14  4  2  0  0  0  0
 14 10  1  0  0  0  0
 15 14  1  0  0  0  0
 16  8  1  0  0  0  0
 17 18  1  0  0  0  0
 17  8  2  0  0  0  0
 18 13  2  0  0  0  0
 20 21  2  0  0  0  0
 21 22  1  0  0  0  0
 22 19  1  0  0  0  0
 22 25  1  0  0  0  0
 23 21  1  0  0  0  0
 25 26  1  0  0  0  0
 25 24  1  1  0  0  0
 26 27  1  0  0  0  0
 27 29  1  0  0  0  0
 28 27  2  0  0  0  0
 30  5  1  0  0  0  0
 31 30  2  0  0  0  0
M  END
>  <MODEL>
8

>  <REMARK>
 VINA RESULT:      -5.2      3.425      6.892
  Name = 
  5 active torsions:
  status: ('A' for Active; 'I' for Inactive)
    1  A    between atoms: C_1  and  O_24
    2  A    between atoms: C_2  and  C_13
    3  A    between atoms: C_15  and  N_23
    4  A    between atoms: C_19  and  N_22
    5  A    between atoms: C_19  and  O_24
                            x       y       z     vdW  Elec       q    Type
                         _______ _______ _______ _____ _____    ______ ____

>  <TORSDO>
F 5

$$$$
=
 OpenBabel11052422443D

 31 34  0  0  1  0  0  0  0  0999 V2000
  161.4880  208.6700  150.1070 C   0  0  0  0  0  0  0  0  0  0  0  0
  161.6460  207.4530  149.4130 C   0  0  0  0  0  0  0  0  0  0  0  0
  162.1880  206.2440  147.4500 C   0  0  0  0  0  3  0  0  0  0  0  0
  161.7470  209.9870  149.4950 C   0  0  0  0  0  0  0  0  0  0  0  0
  162.1870  211.7090  148.2420 C   0  0  0  0  0  0  0  0  0  0  0  0
  162.0430  207.4220  148.1120 N   0  0  0  0  0  0  0  0  0  0  0  0
  160.7970  209.9490  152.2150 C   0  0  1  0  0  3  0  0  0  0  0  0
  160.9840  206.2550  151.3860 N   0  0  0  0  0  0  0  0  0  0  0  0
  161.9410  205.0690  148.0870 N   0  0  0  0  0  2  0  0  0  0  0  0
  161.6220  211.1580  151.7220 C   0  0  0  0  0  2  0  0  0  0  0  0
  161.0900  208.6510  151.4660 C   0  0  0  0  0  0  0  0  0  0  0  0
  162.0060  210.3310  148.1800 C   0  0  0  0  0  3  0  0  0  0  0  0
  161.3350  203.9350  149.9530 O   0  0  0  0  0  0  0  0  0  0  0  0
  161.7840  211.1360  150.2380 C   0  0  0  0  0  0  0  0  0  0  0  0
  162.0580  212.1590  149.4720 O   0  0  0  0  0  0  0  0  0  0  0  0
  160.8230  207.4160  152.0730 C   0  0  0  0  0  3  0  0  0  0  0  0
  161.3890  206.2430  150.0880 C   0  0  0  0  0  0  0  0  0  0  0  0
  161.5480  205.0410  149.3870 C   0  0  0  0  0  0  0  0  0  0  0  0
  159.5150  210.7130  157.0320 C   0  0  0  0  0  1  0  0  0  0  0  0
  159.0360  210.8600  154.2710 O   0  0  0  0  0  0  0  0  0  0  0  0
  160.0980  210.2830  154.6320 C   0  0  0  0  0  0  0  0  0  0  0  0
  160.3970  210.1310  156.0270 N   0  0  0  0  0  0  0  0  0  0  0  0
  161.0060  209.7770  153.6480 N   0  0  0  0  0  2  0  0  0  0  0  0
  162.8400  210.3390  156.0990 C   0  0  0  0  0  1  0  0  0  0  0  0
  161.6350  209.4760  156.4380 C   0  0  2  0  0  3  0  0  0  0  0  0
  161.7400  208.1980  155.8170 O   0  0  0  0  0  0  0  0  0  0  0  0
  160.7370  207.2320  155.9200 C   0  0  0  0  0  0  0  0  0  0  0  0
  160.3600  206.5830  154.9070 O   0  0  0  0  0  0  0  0  0  0  0  0
  160.1060  206.9630  157.2420 C   0  0  0  0  0  1  0  0  0  0  0  0
  162.4890  212.5730  147.1010 C   0  0  0  0  0  3  0  0  0  0  0  0
  161.8130  213.6140  146.8850 O   0  0  0  0  0  0  0  0  0  0  0  0
  1 11  1  0  0  0  0
  2 17  1  0  0  0  0
  2  1  2  0  0  0  0
  3  9  1  0  0  0  0
  3  6  2  0  0  0  0
  4  1  1  0  0  0  0
  4 14  2  0  0  0  0
  5 15  1  0  0  0  0
  6  2  1  0  0  0  0
  7 23  1  1  0  0  0
  8 16  1  0  0  0  0
  9 18  1  0  0  0  0
 10  7  1  0  0  0  0
 11 16  2  0  0  0  0
 11  7  1  0  0  0  0
 12  5  2  0  0  0  0
 12  4  1  0  0  0  0
 14 10  1  0  0  0  0
 15 14  1  0  0  0  0
 17  8  2  0  0  0  0
 18 13  2  0  0  0  0
 18 17  1  0  0  0  0
 20 21  2  0  0  0  0
 21 22  1  0  0  0  0
 22 25  1  0  0  0  0
 22 19  1  0  0  0  0
 23 21  1  0  0  0  0
 25 24  1  6  0  0  0
 26 27  1  0  0  0  0
 26 25  1  0  0  0  0
 27 29  1  0  0  0  0
 28 27  2  0  0  0  0
 30  5  1  0  0  0  0
 31 30  2  0  0  0  0
M  END
>  <MODEL>
9

>  <REMARK>
 VINA RESULT:      -5.0      2.252      6.726
  Name = 
  5 active torsions:
  status: ('A' for Active; 'I' for Inactive)
    1  A    between atoms: C_1  and  O_24
    2  A    between atoms: C_2  and  C_13
    3  A    between atoms: C_15  and  N_23
    4  A    between atoms: C_19  and  N_22
    5  A    between atoms: C_19  and  O_24
                            x       y       z     vdW  Elec       q    Type
                         _______ _______ _______ _____ _____    ______ ____

>  <TORSDO>
F 5

$$$$
