=
 OpenBabel11062410383D

 32 37  0  0  1  0  0  0  0  0999 V2000
  159.3550  213.9010  149.2040 C   0  0  0  0  0  2  0  0  0  0  0  0
  162.2440  209.6370  150.4560 C   0  0  2  0  0  3  0  0  0  0  0  0
  160.0360  208.8460  154.8060 C   0  0  0  0  0  3  0  0  0  0  0  0
  160.5680  207.5590  154.8480 C   0  0  0  0  0  3  0  0  0  0  0  0
  161.5340  207.4370  149.2760 C   0  0  0  0  0  0  0  0  0  0  0  0
  161.3240  206.0850  149.7110 C   0  0  0  0  0  0  0  0  0  0  0  0
  161.9310  211.8170  149.3650 N   0  0  2  0  0  0  0  0  0  0  0  0
  160.8970  211.4720  151.5510 C   0  0  0  0  0  2  0  0  0  0  0  0
  161.2420  203.6460  151.0150 C   0  0  0  0  0  0  0  0  0  0  0  0
  160.3770  213.5340  150.2700 C   0  0  0  0  0  2  0  0  0  0  0  0
  160.2570  209.6560  153.6900 C   0  0  0  0  0  3  0  0  0  0  0  0
  161.2660  210.0550  151.4700 N   0  0  0  0  0  0  0  0  0  0  0  0
  161.0070  209.1880  152.5980 C   0  0  0  0  0  0  0  0  0  0  0  0
  162.3380  207.3150  151.4820 C   0  0  2  0  0  3  0  0  0  0  0  0
  160.7450  203.7610  149.7030 C   0  0  0  0  0  3  0  0  0  0  0  0
  160.5710  212.6390  147.3980 C   0  0  0  0  0  2  0  0  0  0  0  0
  160.7110  212.0530  150.1560 C   0  0  1  0  0  3  0  0  0  0  0  0
  160.7860  204.9940  149.0310 C   0  0  0  0  0  3  0  0  0  0  0  0
  161.9480  212.4720  148.0460 C   0  0  0  0  0  2  0  0  0  0  0  0
  159.9770  213.9870  147.8080 C   0  0  1  0  0  3  0  0  0  0  0  0
  161.3090  207.0740  153.7690 C   0  0  0  0  0  3  0  0  0  0  0  0
  161.5160  207.8640  152.6280 C   0  0  0  0  0  0  0  0  0  0  0  0
  161.7820  204.7640  151.6720 C   0  0  0  0  0  3  0  0  0  0  0  0
  162.0360  210.3800  149.1320 C   0  0  0  0  0  2  0  0  0  0  0  0
  161.1880  207.9010  148.1570 O   0  0  0  0  0  0  0  0  0  0  0  0
  161.1900  202.1000  151.8340 Cl  0  0  0  0  0  0  0  0  0  0  0  0
  162.2000  208.1820  150.3020 N   0  0  0  0  0  0  0  0  0  0  0  0
  161.8030  205.9880  150.9970 C   0  0  0  0  0  0  0  0  0  0  0  0
  159.2560  213.9580  145.5190 O   0  0  0  0  0  1  0  0  0  0  0  0
  158.9280  214.4370  146.7910 C   0  0  1  0  0  3  0  0  0  0  0  0
  157.5500  213.9170  147.1770 C   0  0  0  0  0  2  0  0  0  0  0  0
  157.1390  212.7850  146.2560 C   0  0  0  0  0  1  0  0  0  0  0  0
  1 10  1  0  0  0  0
  2 24  1  6  0  0  0
  2 12  1  0  0  0  0
  3  4  1  0  0  0  0
  5  6  1  0  0  0  0
  5 27  1  0  0  0  0
  6 28  1  0  0  0  0
  7 19  1  6  0  0  0
  7 17  1  0  0  0  0
  9 23  1  0  0  0  0
  9 26  1  0  0  0  0
 11  3  2  0  0  0  0
 12  8  1  0  0  0  0
 12 13  1  0  0  0  0
 13 22  2  0  0  0  0
 13 11  1  0  0  0  0
 14 28  1  6  0  0  0
 14 22  1  0  0  0  0
 15  9  2  0  0  0  0
 16 20  1  0  0  0  0
 16 19  1  0  0  0  0
 17 10  1  1  0  0  0
 17  8  1  0  0  0  0
 18 15  1  0  0  0  0
 18  6  2  0  0  0  0
 20 30  1  6  0  0  0
 20  1  1  0  0  0  0
 21  4  2  0  0  0  0
 22 21  1  0  0  0  0
 24  7  1  0  0  0  0
 25  5  2  0  0  0  0
 27  2  1  0  0  0  0
 27 14  1  0  0  0  0
 28 23  2  0  0  0  0
 30 29  1  6  0  0  0
 30 31  1  0  0  0  0
 32 31  1  0  0  0  0
M  END
>  <MODEL>
1

>  <REMARK>
 VINA RESULT:      -9.2      0.000      0.000
  Name = 
  2 active torsions:
  status: ('A' for Active; 'I' for Inactive)
    1  A    between atoms: C_1  and  C_20
    2  A    between atoms: C_20  and  C_24
                            x       y       z     vdW  Elec       q    Type
                         _______ _______ _______ _____ _____    ______ ____

>  <TORSDO>
F 2

$$$$
=
 OpenBabel11062410383D

 32 37  0  0  1  0  0  0  0  0999 V2000
  159.6820  210.1790  154.5770 C   0  0  0  0  0  2  0  0  0  0  0  0
  162.3470  207.3210  150.9950 C   0  0  2  0  0  3  0  0  0  0  0  0
  160.3370  202.9920  152.2730 C   0  0  0  0  0  3  0  0  0  0  0  0
  160.7840  202.4260  151.0810 C   0  0  0  0  0  3  0  0  0  0  0  0
  161.4290  207.4550  148.5720 C   0  0  0  0  0  0  0  0  0  0  0  0
  161.1540  206.4880  147.5460 C   0  0  0  0  0  0  0  0  0  0  0  0
  162.1190  209.2190  152.5420 N   0  0  2  0  0  0  0  0  0  0  0  0
  161.1880  207.0660  153.2250 C   0  0  0  0  0  2  0  0  0  0  0  0
  160.9830  204.2810  145.8870 C   0  0  0  0  0  0  0  0  0  0  0  0
  160.7350  209.0810  154.6030 C   0  0  0  0  0  2  0  0  0  0  0  0
  160.5490  204.3490  152.5240 C   0  0  0  0  0  3  0  0  0  0  0  0
  161.4570  206.5550  151.8780 N   0  0  0  0  0  0  0  0  0  0  0  0
  161.2040  205.1620  151.5840 C   0  0  0  0  0  0  0  0  0  0  0  0
  162.3440  205.4200  149.3120 C   0  0  2  0  0  3  0  0  0  0  0  0
  160.4220  205.5090  145.4860 C   0  0  0  0  0  3  0  0  0  0  0  0
  160.7100  211.3180  152.5820 C   0  0  0  0  0  2  0  0  0  0  0  0
  160.9630  208.5710  153.1870 C   0  0  1  0  0  3  0  0  0  0  0  0
  160.5080  206.6360  146.3200 C   0  0  0  0  0  3  0  0  0  0  0  0
  162.1060  210.6910  152.5850 C   0  0  0  0  0  2  0  0  0  0  0  0
  160.2300  211.4960  154.0230 C   0  0  1  0  0  3  0  0  0  0  0  0
  161.4300  203.2190  150.1310 C   0  0  0  0  0  3  0  0  0  0  0  0
  161.6250  204.5900  150.3550 C   0  0  0  0  0  0  0  0  0  0  0  0
  161.6320  204.1660  147.1280 C   0  0  0  0  0  3  0  0  0  0  0  0
  162.1160  208.8300  151.1350 C   0  0  0  0  0  2  0  0  0  0  0  0
  161.0520  208.6570  148.5550 O   0  0  0  0  0  0  0  0  0  0  0  0
  160.8750  202.8890  144.8320 Cl  0  0  0  0  0  0  0  0  0  0  0  0
  162.1990  206.8510  149.6180 N   0  0  0  0  0  0  0  0  0  0  0  0
  161.6960  205.2910  147.9540 C   0  0  0  0  0  0  0  0  0  0  0  0
  159.1740  213.3520  152.9260 O   0  0  0  0  0  1  0  0  0  0  0  0
  159.1580  212.5840  154.0940 C   0  0  1  0  0  3  0  0  0  0  0  0
  157.7770  211.9650  154.2620 C   0  0  0  0  0  2  0  0  0  0  0  0
  156.7130  213.0460  154.2560 C   0  0  0  0  0  1  0  0  0  0  0  0
  1 10  1  0  0  0  0
  2 24  1  6  0  0  0
  2 12  1  0  0  0  0
  3 11  1  0  0  0  0
  4  3  2  0  0  0  0
  5 27  1  0  0  0  0
  6 28  1  0  0  0  0
  6  5  1  0  0  0  0
  7 24  1  6  0  0  0
  7 19  1  0  0  0  0
  7 17  1  0  0  0  0
  9 23  1  0  0  0  0
 12  8  1  0  0  0  0
 13 12  1  0  0  0  0
 13 11  2  0  0  0  0
 14 28  1  6  0  0  0
 14 27  1  0  0  0  0
 14 22  1  0  0  0  0
 15  9  2  0  0  0  0
 15 18  1  0  0  0  0
 16 19  1  0  0  0  0
 16 20  1  0  0  0  0
 17  8  1  1  0  0  0
 17 10  1  0  0  0  0
 18  6  2  0  0  0  0
 20 30  1  6  0  0  0
 20  1  1  0  0  0  0
 21 22  2  0  0  0  0
 21  4  1  0  0  0  0
 22 13  1  0  0  0  0
 23 28  2  0  0  0  0
 25  5  2  0  0  0  0
 26  9  1  0  0  0  0
 27  2  1  0  0  0  0
 30 29  1  6  0  0  0
 30 31  1  0  0  0  0
 32 31  1  0  0  0  0
M  END
>  <MODEL>
2

>  <REMARK>
 VINA RESULT:      -7.5      3.520      5.067
  Name = 
  2 active torsions:
  status: ('A' for Active; 'I' for Inactive)
    1  A    between atoms: C_1  and  C_20
    2  A    between atoms: C_20  and  C_24
                            x       y       z     vdW  Elec       q    Type
                         _______ _______ _______ _____ _____    ______ ____

>  <TORSDO>
F 2

$$$$
=
 OpenBabel11062410383D

 32 37  0  0  1  0  0  0  0  0999 V2000
  159.3380  208.7270  155.7540 C   0  0  0  0  0  2  0  0  0  0  0  0
  162.2080  206.8620  151.7080 C   0  0  2  0  0  3  0  0  0  0  0  0
  160.4120  202.2650  151.9500 C   0  0  0  0  0  3  0  0  0  0  0  0
  160.9080  201.9980  150.6750 C   0  0  0  0  0  3  0  0  0  0  0  0
  161.3230  207.4810  149.3480 C   0  0  0  0  0  0  0  0  0  0  0  0
  161.1160  206.7520  148.1280 C   0  0  0  0  0  0  0  0  0  0  0  0
  161.8550  208.3580  153.6250 N   0  0  2  0  0  0  0  0  0  0  0  0
  161.0290  206.0660  153.7940 C   0  0  0  0  0  2  0  0  0  0  0  0
  161.0900  204.9590  146.0220 C   0  0  0  0  0  0  0  0  0  0  0  0
  160.4470  207.7030  155.5680 C   0  0  0  0  0  2  0  0  0  0  0  0
  160.5470  203.5420  152.4970 C   0  0  0  0  0  3  0  0  0  0  0  0
  161.3470  205.8770  152.3750 N   0  0  0  0  0  0  0  0  0  0  0  0
  161.1730  204.5720  151.7760 C   0  0  0  0  0  0  0  0  0  0  0  0
  162.3330  205.3800  149.6480 C   0  0  2  0  0  3  0  0  0  0  0  0
  160.4710  206.2160  145.8850 C   0  0  0  0  0  3  0  0  0  0  0  0
  160.3350  210.3260  154.0860 C   0  0  0  0  0  2  0  0  0  0  0  0
  160.7250  207.5290  154.0810 C   0  0  1  0  0  3  0  0  0  0  0  0
  160.4830  207.1350  146.9480 C   0  0  0  0  0  3  0  0  0  0  0  0
  161.7630  209.7820  153.9900 C   0  0  0  0  0  2  0  0  0  0  0  0
  159.8240  210.1590  155.5180 C   0  0  1  0  0  3  0  0  0  0  0  0
  161.5250  203.0110  149.9400 C   0  0  0  0  0  3  0  0  0  0  0  0
  161.6430  204.3070  150.4640 C   0  0  0  0  0  0  0  0  0  0  0  0
  161.7250  204.6050  147.2240 C   0  0  0  0  0  3  0  0  0  0  0  0
  161.8950  208.2890  152.1680 C   0  0  0  0  0  2  0  0  0  0  0  0
  160.8830  208.6380  149.5850 O   0  0  0  0  0  0  0  0  0  0  0  0
  161.0730  203.8300  144.6840 Cl  0  0  0  0  0  0  0  0  0  0  0  0
  162.1080  206.6990  150.2570 N   0  0  0  0  0  0  0  0  0  0  0  0
  161.7150  205.5230  148.2780 C   0  0  0  0  0  0  0  0  0  0  0  0
  159.1640  212.2040  156.5880 O   0  0  0  0  0  1  0  0  0  0  0  0
  158.6940  211.1510  155.7970 C   0  0  1  0  0  3  0  0  0  0  0  0
  158.1440  211.7160  154.4940 C   0  0  0  0  0  2  0  0  0  0  0  0
  156.6420  211.9010  154.5950 C   0  0  0  0  0  1  0  0  0  0  0  0
  2 24  1  6  0  0  0
  2 12  1  0  0  0  0
  3 11  1  0  0  0  0
  4  3  2  0  0  0  0
  5 25  2  0  0  0  0
  5 27  1  0  0  0  0
  6 28  1  0  0  0  0
  6  5  1  0  0  0  0
  7 24  1  6  0  0  0
  7 19  1  0  0  0  0
  7 17  1  0  0  0  0
  9 23  1  0  0  0  0
 10  1  1  0  0  0  0
 12  8  1  0  0  0  0
 13 12  1  0  0  0  0
 13 11  2  0  0  0  0
 14 28  1  6  0  0  0
 14 27  1  0  0  0  0
 14 22  1  0  0  0  0
 15  9  2  0  0  0  0
 15 18  1  0  0  0  0
 16 20  1  0  0  0  0
 17  8  1  1  0  0  0
 17 10  1  0  0  0  0
 18  6  2  0  0  0  0
 19 16  1  0  0  0  0
 20  1  1  0  0  0  0
 20 30  1  6  0  0  0
 21 22  2  0  0  0  0
 21  4  1  0  0  0  0
 22 13  1  0  0  0  0
 23 28  2  0  0  0  0
 26  9  1  0  0  0  0
 27  2  1  0  0  0  0
 30 29  1  1  0  0  0
 31 32  1  0  0  0  0
 31 30  1  0  0  0  0
M  END
>  <MODEL>
3

>  <REMARK>
 VINA RESULT:      -6.3      4.000      5.993
  Name = 
  2 active torsions:
  status: ('A' for Active; 'I' for Inactive)
    1  A    between atoms: C_1  and  C_20
    2  A    between atoms: C_20  and  C_24
                            x       y       z     vdW  Elec       q    Type
                         _______ _______ _______ _____ _____    ______ ____

>  <TORSDO>
F 2

$$$$
