=
 OpenBabel11062410363D

 32 36  0  0  0  0  0  0  0  0999 V2000
  161.4560  202.9110  147.2070 C   0  0  0  0  0  3  0  0  0  0  0  0
  161.2660  206.4410  151.1450 N   0  0  0  0  0  0  0  0  0  0  0  0
  162.0960  210.6160  148.5850 C   0  0  0  0  0  3  0  0  0  0  0  0
  162.0040  211.3550  149.7640 C   0  0  0  0  0  3  0  0  0  0  0  0
  160.9210  206.6250  153.6380 C   0  0  0  0  0  0  0  0  0  0  0  0
  160.8370  207.4110  154.7970 C   0  0  0  0  0  0  0  0  0  0  0  0
  161.1860  204.2570  150.0590 C   0  0  0  0  0  0  0  0  0  0  0  0
  161.6080  206.3810  148.7560 C   0  0  0  0  0  3  0  0  0  0  0  0
  161.5560  204.3250  147.5810 C   0  0  0  0  0  3  0  0  0  0  0  0
  161.9390  209.2290  148.6200 C   0  0  0  0  0  3  0  0  0  0  0  0
  161.5220  207.0990  149.8830 C   0  0  0  0  0  0  0  0  0  0  0  0
  161.6890  208.5670  149.8350 C   0  0  0  0  0  0  0  0  0  0  0  0
  161.3330  208.6280  152.3130 C   0  0  0  0  0  0  0  0  0  0  0  0
  161.0160  201.8190  149.3990 C   0  0  0  0  0  3  0  0  0  0  0  0
  161.4480  204.9210  148.7640 C   0  0  0  0  0  0  0  0  0  0  0  0
  160.5910  206.7850  156.0150 O   0  0  0  0  0  1  0  0  0  0  0  0
  160.9980  202.8200  150.2720 C   0  0  0  0  0  3  0  0  0  0  0  0
  161.2290  201.8230  147.9470 C   0  0  0  0  0  0  0  0  0  0  0  0
  161.7560  210.7070  150.9750 C   0  0  0  0  0  3  0  0  0  0  0  0
  161.5970  209.3100  151.0240 C   0  0  0  0  0  0  0  0  0  0  0  0
  161.2450  209.3890  153.4840 C   0  0  0  0  0  3  0  0  0  0  0  0
  161.1070  205.0080  151.1590 C   0  0  0  0  0  3  0  0  0  0  0  0
  160.7510  205.2510  153.7750 O   0  0  0  0  0  1  0  0  0  0  0  0
  161.1720  207.2220  152.3700 C   0  0  0  0  0  0  0  0  0  0  0  0
  161.0000  208.8040  154.7270 C   0  0  0  0  0  0  0  0  0  0  0  0
  160.7910  200.2280  145.9700 C   0  0  0  0  0  0  0  0  0  0  0  0
  161.1810  200.5340  147.3170 N   0  0  0  0  0  2  0  0  0  0  0  0
  160.8100  198.8760  145.5300 N   0  0  0  0  0  1  0  0  0  0  0  0
  160.4340  201.1330  145.1720 O   0  0  0  0  0  0  0  0  0  0  0  0
  160.9210  209.6770  155.9200 C   0  0  0  0  0  0  0  0  0  0  0  0
  159.6950  210.0450  156.4620 O   0  0  0  0  0  0  0  0  0  0  0  0
  161.9750  210.1020  156.4640 O   0  0  0  0  0  1  0  0  0  0  0  0
  1  9  1  0  0  0  0
  1 18  2  0  0  0  0
  2 22  1  0  0  0  0
  2 24  1  0  0  0  0
  3 10  2  0  0  0  0
  3  4  1  0  0  0  0
  4 19  2  0  0  0  0
  5 23  1  0  0  0  0
  5  6  1  0  0  0  0
  6 16  1  0  0  0  0
  7 17  1  0  0  0  0
  7 22  2  0  0  0  0
  8 15  1  0  0  0  0
  8 11  2  0  0  0  0
  9 15  2  0  0  0  0
 10 12  1  0  0  0  0
 11  2  1  0  0  0  0
 12 11  1  0  0  0  0
 12 20  2  0  0  0  0
 13 24  1  0  0  0  0
 13 21  2  0  0  0  0
 14 17  2  0  0  0  0
 15  7  1  0  0  0  0
 18 14  1  0  0  0  0
 19 20  1  0  0  0  0
 20 13  1  0  0  0  0
 21 25  1  0  0  0  0
 24  5  2  0  0  0  0
 25  6  2  0  0  0  0
 25 30  1  0  0  0  0
 26 27  1  0  0  0  0
 27 18  1  0  0  0  0
 28 26  1  0  0  0  0
 29 26  2  0  0  0  0
 30 31  2  0  0  0  0
 30 32  1  0  0  0  0
M  END
>  <MODEL>
1

>  <REMARK>
 VINA RESULT:     -10.4      0.000      0.000
  Name = 
  2 active torsions:
  status: ('A' for Active; 'I' for Inactive)
    1  A    between atoms: N_10  and  C_24
    2  A    between atoms: C_11  and  C_32
                            x       y       z     vdW  Elec       q    Type
                         _______ _______ _______ _____ _____    ______ ____

>  <TORSDO>
F 2

$$$$
=
 OpenBabel11062410363D

 32 36  0  0  0  0  0  0  0  0999 V2000
  161.2420  208.3960  155.0740 C   0  0  0  0  0  3  0  0  0  0  0  0
  161.1010  206.1760  150.2720 N   0  0  0  0  0  0  0  0  0  0  0  0
  161.1620  201.3780  151.5510 C   0  0  0  0  0  3  0  0  0  0  0  0
  161.1200  201.0200  150.2030 C   0  0  0  0  0  3  0  0  0  0  0  0
  161.0210  206.7510  147.8160 C   0  0  0  0  0  0  0  0  0  0  0  0
  160.9810  206.3420  146.4750 C   0  0  0  0  0  0  0  0  0  0  0  0
  161.1460  207.9570  151.9410 C   0  0  0  0  0  0  0  0  0  0  0  0
  161.1760  205.5150  152.5920 C   0  0  0  0  0  3  0  0  0  0  0  0
  161.2240  207.1430  154.3120 C   0  0  0  0  0  3  0  0  0  0  0  0
  161.1670  202.7260  151.9120 C   0  0  0  0  0  3  0  0  0  0  0  0
  161.1380  205.1610  151.3020 C   0  0  0  0  0  0  0  0  0  0  0  0
  161.1310  203.7310  150.9300 C   0  0  0  0  0  0  0  0  0  0  0  0
  161.0530  204.4190  148.5230 C   0  0  0  0  0  0  0  0  0  0  0  0
  161.1780  210.1090  153.2730 C   0  0  0  0  0  3  0  0  0  0  0  0
  161.1830  206.9250  153.0010 C   0  0  0  0  0  0  0  0  0  0  0  0
  160.9450  207.3140  145.4790 O   0  0  0  0  0  1  0  0  0  0  0  0
  161.1460  209.4070  152.1460 C   0  0  0  0  0  3  0  0  0  0  0  0
  161.2240  209.6680  154.6710 C   0  0  0  0  0  0  0  0  0  0  0  0
  161.0850  202.0110  149.2210 C   0  0  0  0  0  3  0  0  0  0  0  0
  161.0910  203.3730  149.5710 C   0  0  0  0  0  0  0  0  0  0  0  0
  161.0120  204.0380  147.1770 C   0  0  0  0  0  3  0  0  0  0  0  0
  161.1070  207.5630  150.6670 C   0  0  0  0  0  3  0  0  0  0  0  0
  161.0230  208.1180  148.0760 O   0  0  0  0  0  1  0  0  0  0  0  0
  161.0580  205.7930  148.8680 C   0  0  0  0  0  0  0  0  0  0  0  0
  160.9760  204.9770  146.1460 C   0  0  0  0  0  0  0  0  0  0  0  0
  160.1330  211.3930  156.2450 C   0  0  0  0  0  0  0  0  0  0  0  0
  161.2510  210.7210  155.6460 N   0  0  0  0  0  2  0  0  0  0  0  0
  160.3690  212.4200  157.1990 N   0  0  0  0  0  1  0  0  0  0  0  0
  158.9500  211.0910  155.9430 O   0  0  0  0  0  0  0  0  0  0  0  0
  160.9350  204.4950  144.7460 C   0  0  0  0  0  0  0  0  0  0  0  0
  161.5150  205.2260  143.7170 O   0  0  0  0  0  0  0  0  0  0  0  0
  160.3650  203.4050  144.4690 O   0  0  0  0  0  1  0  0  0  0  0  0
  2 22  1  0  0  0  0
  2 11  1  0  0  0  0
  3 10  1  0  0  0  0
  4  3  2  0  0  0  0
  5 23  1  0  0  0  0
  5 24  1  0  0  0  0
  6  5  2  0  0  0  0
  7 17  1  0  0  0  0
  7 15  1  0  0  0  0
  8 15  1  0  0  0  0
  9  1  1  0  0  0  0
 11  8  2  0  0  0  0
 12 11  1  0  0  0  0
 12 10  2  0  0  0  0
 13 24  2  0  0  0  0
 13 20  1  0  0  0  0
 14 18  1  0  0  0  0
 15  9  2  0  0  0  0
 16  6  1  0  0  0  0
 17 14  2  0  0  0  0
 18  1  2  0  0  0  0
 18 27  1  0  0  0  0
 19 20  2  0  0  0  0
 19  4  1  0  0  0  0
 20 12  1  0  0  0  0
 21 13  1  0  0  0  0
 22  7  2  0  0  0  0
 24  2  1  0  0  0  0
 25  6  1  0  0  0  0
 25 21  2  0  0  0  0
 26 28  1  0  0  0  0
 27 26  1  0  0  0  0
 29 26  2  0  0  0  0
 30 25  1  0  0  0  0
 31 30  2  0  0  0  0
 32 30  1  0  0  0  0
M  END
>  <MODEL>
2

>  <REMARK>
 VINA RESULT:      -9.8      2.867      9.324
  Name = 
  2 active torsions:
  status: ('A' for Active; 'I' for Inactive)
    1  A    between atoms: N_10  and  C_24
    2  A    between atoms: C_11  and  C_32
                            x       y       z     vdW  Elec       q    Type
                         _______ _______ _______ _____ _____    ______ ____

>  <TORSDO>
F 2

$$$$
=
 OpenBabel11062410363D

 32 36  0  0  0  0  0  0  0  0999 V2000
  161.2050  201.3500  149.5180 C   0  0  0  0  0  3  0  0  0  0  0  0
  161.3090  206.6080  150.1030 N   0  0  0  0  0  0  0  0  0  0  0  0
  160.7360  206.9270  155.0270 C   0  0  0  0  0  3  0  0  0  0  0  0
  160.7930  208.3180  154.9420 C   0  0  0  0  0  3  0  0  0  0  0  0
  161.5350  208.7520  148.7920 C   0  0  0  0  0  0  0  0  0  0  0  0
  161.5850  210.1530  148.7560 C   0  0  0  0  0  0  0  0  0  0  0  0
  161.3740  204.4580  148.9490 C   0  0  0  0  0  0  0  0  0  0  0  0
  161.0840  204.6210  151.4540 C   0  0  0  0  0  3  0  0  0  0  0  0
  161.1300  202.4720  150.4590 C   0  0  0  0  0  3  0  0  0  0  0  0
  160.8480  206.1550  153.8690 C   0  0  0  0  0  3  0  0  0  0  0  0
  161.1360  205.9560  151.3830 C   0  0  0  0  0  0  0  0  0  0  0  0
  161.0170  206.7650  152.6140 C   0  0  0  0  0  0  0  0  0  0  0  0
  161.2510  208.8260  151.2110 C   0  0  0  0  0  0  0  0  0  0  0  0
  161.5010  202.5100  147.3380 C   0  0  0  0  0  3  0  0  0  0  0  0
  161.1980  203.7840  150.2540 C   0  0  0  0  0  0  0  0  0  0  0  0
  161.7510  210.7870  147.5290 O   0  0  0  0  0  1  0  0  0  0  0  0
  161.5070  203.8020  147.6470 C   0  0  0  0  0  3  0  0  0  0  0  0
  161.3610  201.3260  148.1930 C   0  0  0  0  0  0  0  0  0  0  0  0
  160.9600  208.9330  153.6990 C   0  0  0  0  0  3  0  0  0  0  0  0
  161.0730  208.1660  152.5260 C   0  0  0  0  0  0  0  0  0  0  0  0
  161.3040  210.2230  151.1480 C   0  0  0  0  0  3  0  0  0  0  0  0
  161.4220  205.7920  148.9200 C   0  0  0  0  0  3  0  0  0  0  0  0
  161.6550  208.0700  147.5850 O   0  0  0  0  0  1  0  0  0  0  0  0
  161.3660  208.0610  150.0250 C   0  0  0  0  0  0  0  0  0  0  0  0
  161.4690  210.9010  149.9400 C   0  0  0  0  0  0  0  0  0  0  0  0
  161.0310  199.7940  146.1470 C   0  0  0  0  0  0  0  0  0  0  0  0
  161.4010  200.0660  147.5060 N   0  0  0  0  0  2  0  0  0  0  0  0
  161.1410  198.4670  145.6480 N   0  0  0  0  0  1  0  0  0  0  0  0
  160.6110  200.7060  145.3880 O   0  0  0  0  0  0  0  0  0  0  0  0
  161.5160  212.3810  149.9550 C   0  0  0  0  0  0  0  0  0  0  0  0
  162.2840  213.0850  149.0360 O   0  0  0  0  0  0  0  0  0  0  0  0
  160.8540  213.0260  150.8120 O   0  0  0  0  0  1  0  0  0  0  0  0
  1  9  1  0  0  0  0
  2 11  1  0  0  0  0
  4  3  1  0  0  0  0
  5 24  1  0  0  0  0
  6  5  2  0  0  0  0
  6 25  1  0  0  0  0
  7 15  1  0  0  0  0
 10  3  2  0  0  0  0
 11  8  2  0  0  0  0
 11 12  1  0  0  0  0
 12 10  1  0  0  0  0
 13 20  1  0  0  0  0
 14 17  2  0  0  0  0
 14 18  1  0  0  0  0
 15  9  2  0  0  0  0
 15  8  1  0  0  0  0
 16  6  1  0  0  0  0
 17  7  1  0  0  0  0
 18  1  2  0  0  0  0
 19  4  2  0  0  0  0
 20 12  2  0  0  0  0
 20 19  1  0  0  0  0
 21 13  1  0  0  0  0
 22  7  2  0  0  0  0
 22  2  1  0  0  0  0
 23  5  1  0  0  0  0
 24  2  1  0  0  0  0
 24 13  2  0  0  0  0
 25 30  1  0  0  0  0
 25 21  2  0  0  0  0
 26 27  1  0  0  0  0
 27 18  1  0  0  0  0
 28 26  1  0  0  0  0
 29 26  2  0  0  0  0
 30 32  1  0  0  0  0
 31 30  2  0  0  0  0
M  END
>  <MODEL>
3

>  <REMARK>
 VINA RESULT:      -8.0      2.711      4.423
  Name = 
  2 active torsions:
  status: ('A' for Active; 'I' for Inactive)
    1  A    between atoms: N_10  and  C_24
    2  A    between atoms: C_11  and  C_32
                            x       y       z     vdW  Elec       q    Type
                         _______ _______ _______ _____ _____    ______ ____

>  <TORSDO>
F 2

$$$$
=
 OpenBabel11062410363D

 32 36  0  0  0  0  0  0  0  0999 V2000
  161.0760  208.2980  152.5780 C   0  0  0  0  0  3  0  0  0  0  0  0
  161.1200  204.2740  149.1410 N   0  0  0  0  0  0  0  0  0  0  0  0
  160.8350  206.7980  144.8730 C   0  0  0  0  0  3  0  0  0  0  0  0
  160.8610  205.5980  144.1630 C   0  0  0  0  0  3  0  0  0  0  0  0
  161.2290  201.7560  149.0270 C   0  0  0  0  0  0  0  0  0  0  0  0
  161.2510  200.5750  148.2700 C   0  0  0  0  0  0  0  0  0  0  0  0
  161.1560  205.4010  151.3060 C   0  0  0  0  0  0  0  0  0  0  0  0
  161.0110  206.6860  149.1340 C   0  0  0  0  0  3  0  0  0  0  0  0
  161.0370  207.9020  151.1670 C   0  0  0  0  0  3  0  0  0  0  0  0
  160.8910  206.7820  146.2670 C   0  0  0  0  0  3  0  0  0  0  0  0
  161.0350  205.5390  148.4440 C   0  0  0  0  0  0  0  0  0  0  0  0
  160.9750  205.5660  146.9680 C   0  0  0  0  0  0  0  0  0  0  0  0
  161.0870  203.0650  146.9770 C   0  0  0  0  0  0  0  0  0  0  0  0
  161.2220  206.1030  153.7370 C   0  0  0  0  0  3  0  0  0  0  0  0
  161.0690  206.6990  150.6010 C   0  0  0  0  0  0  0  0  0  0  0  0
  161.3330  199.3550  148.9340 O   0  0  0  0  0  1  0  0  0  0  0  0
  161.2220  205.2070  152.7560 C   0  0  0  0  0  3  0  0  0  0  0  0
  161.1540  207.5670  153.6920 C   0  0  0  0  0  0  0  0  0  0  0  0
  160.9430  204.3850  144.8500 C   0  0  0  0  0  3  0  0  0  0  0  0
  161.0000  204.3560  146.2550 C   0  0  0  0  0  0  0  0  0  0  0  0
  161.1120  201.8720  146.2450 C   0  0  0  0  0  3  0  0  0  0  0  0
  161.1770  204.2800  150.5820 C   0  0  0  0  0  3  0  0  0  0  0  0
  161.2890  201.6370  150.4120 O   0  0  0  0  0  1  0  0  0  0  0  0
  161.1460  203.0260  148.3910 C   0  0  0  0  0  0  0  0  0  0  0  0
  161.1920  200.6260  146.8680 C   0  0  0  0  0  0  0  0  0  0  0  0
  160.2720  208.0350  156.0680 C   0  0  0  0  0  0  0  0  0  0  0  0
  161.1760  208.2220  154.9690 N   0  0  0  0  0  2  0  0  0  0  0  0
  160.4620  208.7850  157.2610 N   0  0  0  0  0  1  0  0  0  0  0  0
  159.3160  207.2200  155.9970 O   0  0  0  0  0  0  0  0  0  0  0  0
  161.2130  199.4090  146.0240 C   0  0  0  0  0  0  0  0  0  0  0  0
  160.4230  199.3100  144.8860 O   0  0  0  0  0  0  0  0  0  0  0  0
  161.9540  198.4380  146.3340 O   0  0  0  0  0  1  0  0  0  0  0  0
  1 18  2  0  0  0  0
  2 22  1  0  0  0  0
  3 10  1  0  0  0  0
  4 19  1  0  0  0  0
  4  3  2  0  0  0  0
  5 23  1  0  0  0  0
  6 16  1  0  0  0  0
  6  5  2  0  0  0  0
  7 17  1  0  0  0  0
  8 15  1  0  0  0  0
  9  1  1  0  0  0  0
 10 12  2  0  0  0  0
 11  8  2  0  0  0  0
 11  2  1  0  0  0  0
 12 11  1  0  0  0  0
 13 24  2  0  0  0  0
 15  9  2  0  0  0  0
 15  7  1  0  0  0  0
 17 14  2  0  0  0  0
 18 14  1  0  0  0  0
 18 27  1  0  0  0  0
 19 20  2  0  0  0  0
 20 12  1  0  0  0  0
 20 13  1  0  0  0  0
 21 25  2  0  0  0  0
 21 13  1  0  0  0  0
 22  7  2  0  0  0  0
 24  5  1  0  0  0  0
 24  2  1  0  0  0  0
 25  6  1  0  0  0  0
 26 28  1  0  0  0  0
 27 26  1  0  0  0  0
 29 26  2  0  0  0  0
 30 32  1  0  0  0  0
 30 25  1  0  0  0  0
 31 30  2  0  0  0  0
M  END
>  <MODEL>
4

>  <REMARK>
 VINA RESULT:      -7.7      2.465      8.724
  Name = 
  2 active torsions:
  status: ('A' for Active; 'I' for Inactive)
    1  A    between atoms: N_10  and  C_24
    2  A    between atoms: C_11  and  C_32
                            x       y       z     vdW  Elec       q    Type
                         _______ _______ _______ _____ _____    ______ ____

>  <TORSDO>
F 2

$$$$
