=
 OpenBabel11062409143D

 37 39  0  0  1  0  0  0  0  0999 V2000
  161.7550  210.4650  154.1230 C   0  0  0  0  0  3  0  0  0  0  0  0
  157.9680  211.0030  156.2550 C   0  0  0  0  0  3  0  0  0  0  0  0
  160.9370  210.5160  153.0720 C   0  0  0  0  0  0  0  0  0  0  0  0
  159.0580  211.1190  155.3840 C   0  0  0  0  0  0  0  0  0  0  0  0
  160.2570  210.9690  155.9610 C   0  0  0  0  0  2  0  0  0  0  0  0
  158.8450  211.5510  154.0340 C   0  0  0  0  0  0  0  0  0  0  0  0
  156.4960  211.9530  154.6060 C   0  0  0  0  0  3  0  0  0  0  0  0
  161.5570  211.3070  155.3210 C   0  0  1  0  0  3  0  0  0  0  0  0
  157.5580  212.0250  153.7070 C   0  0  0  0  0  3  0  0  0  0  0  0
  159.7630  211.4520  153.0240 C   0  0  2  0  0  3  0  0  0  0  0  0
  156.6880  211.4000  155.8740 C   0  0  0  0  0  0  0  0  0  0  0  0
  155.6360  211.2610  156.7840 O   0  0  0  0  0  0  0  0  0  0  0  0
  154.5470  210.3740  156.5690 C   0  0  0  0  0  1  0  0  0  0  0  0
  163.5450  210.8760  157.0500 C   0  0  0  0  0  3  0  0  0  0  0  0
  162.6480  211.0730  156.2690 C   0  0  0  0  0  0  0  0  0  0  0  0
  161.2090  209.6410  151.9610 N   0  0  0  0  0  0  0  0  0  0  0  0
  162.0680  209.0990  149.8580 O   0  0  0  0  0  1  0  0  0  0  0  0
  162.0290  210.0870  150.8420 C   0  0  0  0  0  2  0  0  0  0  0  0
  160.5170  208.3660  151.8200 C   0  0  0  0  0  2  0  0  0  0  0  0
  161.2490  207.2850  152.5970 C   0  0  0  0  0  2  0  0  0  0  0  0
  161.1730  204.7840  152.6150 C   0  0  0  0  0  3  0  0  0  0  0  0
  161.1340  205.9800  151.8910 C   0  0  0  0  0  0  0  0  0  0  0  0
  161.0120  205.9480  150.4970 C   0  0  0  0  0  3  0  0  0  0  0  0
  160.7990  204.6940  148.4820 F   0  0  0  0  0  0  0  0  0  0  0  0
  160.9540  203.5290  150.5550 C   0  0  0  0  0  3  0  0  0  0  0  0
  160.9200  204.7230  149.8300 C   0  0  0  0  0  0  0  0  0  0  0  0
  161.0820  203.5590  151.9480 C   0  0  0  0  0  3  0  0  0  0  0  0
  159.5260  212.2090  151.7280 C   0  0  1  0  0  3  0  0  0  0  0  0
  158.4570  213.1060  151.8450 O   0  0  0  0  0  0  0  0  0  0  0  0
  157.7720  212.9700  150.7270 O   0  0  0  0  0  0  0  0  0  0  0  0
  155.9250  213.9240  149.5690 C   0  0  0  0  0  1  0  0  0  0  0  0
  156.9460  214.0960  150.6740 C   0  0  0  0  0  2  0  0  0  0  0  0
  160.7740  212.9270  151.2400 C   0  0  0  0  0  2  0  0  0  0  0  0
  160.4540  213.7550  150.1630 O   0  0  0  0  0  0  0  0  0  0  0  0
  160.8490  213.0320  149.0390 C   0  0  0  0  0  2  0  0  0  0  0  0
  163.0160  212.6130  147.9270 C   0  0  0  0  0  1  0  0  0  0  0  0
  162.0670  213.6840  148.4200 C   0  0  0  0  0  2  0  0  0  0  0  0
  1  8  1  0  0  0  0
  3  1  2  0  0  0  0
  4  5  1  0  0  0  0
  4  2  2  0  0  0  0
  6  4  1  0  0  0  0
  7 11  2  0  0  0  0
  8  5  1  0  0  0  0
  8 15  1  1  0  0  0
  9  6  2  0  0  0  0
  9  7  1  0  0  0  0
 10 28  1  6  0  0  0
 10  3  1  0  0  0  0
 10  6  1  0  0  0  0
 11  2  1  0  0  0  0
 11 12  1  0  0  0  0
 13 12  1  0  0  0  0
 15 14  3  0  0  0  0
 16  3  1  0  0  0  0
 17 18  1  0  0  0  0
 18 16  1  0  0  0  0
 19 16  1  0  0  0  0
 19 20  1  0  0  0  0
 22 20  1  0  0  0  0
 22 21  2  0  0  0  0
 23 22  1  0  0  0  0
 24 26  1  0  0  0  0
 25 27  2  0  0  0  0
 26 23  2  0  0  0  0
 26 25  1  0  0  0  0
 27 21  1  0  0  0  0
 28 33  1  1  0  0  0
 28 29  1  0  0  0  0
 30 29  1  0  0  0  0
 31 32  1  0  0  0  0
 32 30  1  0  0  0  0
 34 33  1  0  0  0  0
 35 34  1  0  0  0  0
 36 37  1  0  0  0  0
 37 35  1  0  0  0  0
M  END
>  <MODEL>
1

>  <REMARK>
 VINA RESULT:      -5.9      0.000      0.000
  Name = 
  15 active torsions:
  status: ('A' for Active; 'I' for Inactive)
    1  A    between atoms: O_1  and  O_5
    2  A    between atoms: O_1  and  C_36
    3  A    between atoms: O_3  and  C_32
    4  A    between atoms: O_5  and  C_23
    5  A    between atoms: C_6  and  C_31
    6  A    between atoms: C_10  and  N_14
    7  A    between atoms: N_14  and  C_27
    8  A    between atoms: N_14  and  C_37
    9  A    between atoms: O_17  and  C_26
   10  A    between atoms: O_17  and  C_33
   11  A    between atoms: C_24  and  C_28
   12  A    between atoms: C_26  and  C_34
   13  A    between atoms: C_29  and  C_36
   14  A    between atoms: C_31  and  C_37
   15  A    between atoms: C_33  and  C_36
                            x       y       z     vdW  Elec       q    Type
                         _______ _______ _______ _____ _____    ______ ____

>  <TORSDO>
F 15

$$$$
=
 OpenBabel11062409143D

 37 39  0  0  1  0  0  0  0  0999 V2000
  160.8460  211.1340  151.3800 C   0  0  0  0  0  3  0  0  0  0  0  0
  161.1760  206.7910  150.9260 C   0  0  0  0  0  3  0  0  0  0  0  0
  160.3600  210.7690  152.5660 C   0  0  0  0  0  0  0  0  0  0  0  0
  161.2440  208.1120  151.3850 C   0  0  0  0  0  0  0  0  0  0  0  0
  161.5710  209.0150  150.4530 C   0  0  0  0  0  2  0  0  0  0  0  0
  161.1460  208.3810  152.7890 C   0  0  0  0  0  0  0  0  0  0  0  0
  161.1660  205.9620  153.1850 C   0  0  0  0  0  3  0  0  0  0  0  0
  161.9670  210.4220  150.7330 C   0  0  1  0  0  3  0  0  0  0  0  0
  161.1780  207.2710  153.6600 C   0  0  0  0  0  3  0  0  0  0  0  0
  160.9320  209.6160  153.3390 C   0  0  2  0  0  3  0  0  0  0  0  0
  161.1210  205.7160  151.8110 C   0  0  0  0  0  0  0  0  0  0  0  0
  161.0540  204.4170  151.2970 O   0  0  0  0  0  0  0  0  0  0  0  0
  160.9890  203.2660  152.1280 C   0  0  0  0  0  1  0  0  0  0  0  0
  162.6000  211.6500  148.4470 C   0  0  0  0  0  3  0  0  0  0  0  0
  162.3150  211.0940  149.4790 C   0  0  0  0  0  0  0  0  0  0  0  0
  159.2540  211.5200  153.1030 N   0  0  0  0  0  0  0  0  0  0  0  0
  157.1750  211.6980  154.1500 O   0  0  0  0  0  1  0  0  0  0  0  0
  157.9620  210.8880  153.3320 C   0  0  0  0  0  2  0  0  0  0  0  0
  159.3260  212.9690  153.2420 C   0  0  0  0  0  2  0  0  0  0  0  0
  159.4990  213.6180  151.8790 C   0  0  0  0  0  2  0  0  0  0  0  0
  157.0920  214.2990  151.9560 C   0  0  0  0  0  3  0  0  0  0  0  0
  158.1740  213.7980  151.2250 C   0  0  0  0  0  0  0  0  0  0  0  0
  158.0040  213.4390  149.8830 C   0  0  0  0  0  3  0  0  0  0  0  0
  156.5940  213.2480  147.9710 F   0  0  0  0  0  0  0  0  0  0  0  0
  155.6770  214.0980  150.0000 C   0  0  0  0  0  3  0  0  0  0  0  0
  156.7570  213.5920  149.2700 C   0  0  0  0  0  0  0  0  0  0  0  0
  155.8440  214.4510  151.3430 C   0  0  0  0  0  3  0  0  0  0  0  0
  161.1440  209.8110  154.8310 C   0  0  1  0  0  3  0  0  0  0  0  0
  162.1230  210.7800  155.0880 O   0  0  0  0  0  0  0  0  0  0  0  0
  161.6530  211.4790  156.1030 O   0  0  0  0  0  0  0  0  0  0  0  0
  163.9210  211.1240  156.7280 C   0  0  0  0  0  1  0  0  0  0  0  0
  162.4760  211.1420  157.1810 C   0  0  0  0  0  2  0  0  0  0  0  0
  159.8540  210.1500  155.5600 C   0  0  0  0  0  2  0  0  0  0  0  0
  159.2210  208.9780  155.9740 O   0  0  0  0  0  0  0  0  0  0  0  0
  159.8290  208.6650  157.1900 C   0  0  0  0  0  2  0  0  0  0  0  0
  161.5660  206.9070  157.1600 C   0  0  0  0  0  1  0  0  0  0  0  0
  160.0790  207.1730  157.2600 C   0  0  0  0  0  2  0  0  0  0  0  0
  1  3  2  0  0  0  0
  2  4  2  0  0  0  0
  2 11  1  0  0  0  0
  3 16  1  0  0  0  0
  3 10  1  0  0  0  0
  4  6  1  0  0  0  0
  5  8  1  0  0  0  0
  5  4  1  0  0  0  0
  6 10  1  0  0  0  0
  6  9  2  0  0  0  0
  7  9  1  0  0  0  0
  8 15  1  6  0  0  0
  8  1  1  0  0  0  0
 10 28  1  1  0  0  0
 11  7  2  0  0  0  0
 12 11  1  0  0  0  0
 12 13  1  0  0  0  0
 14 15  3  0  0  0  0
 16 19  1  0  0  0  0
 16 18  1  0  0  0  0
 18 17  1  0  0  0  0
 20 19  1  0  0  0  0
 22 20  1  0  0  0  0
 22 21  2  0  0  0  0
 23 22  1  0  0  0  0
 24 26  1  0  0  0  0
 25 27  2  0  0  0  0
 26 23  2  0  0  0  0
 26 25  1  0  0  0  0
 27 21  1  0  0  0  0
 28 29  1  0  0  0  0
 28 33  1  1  0  0  0
 29 30  1  0  0  0  0
 30 32  1  0  0  0  0
 31 32  1  0  0  0  0
 33 34  1  0  0  0  0
 34 35  1  0  0  0  0
 35 37  1  0  0  0  0
 36 37  1  0  0  0  0
M  END
>  <MODEL>
2

>  <REMARK>
 VINA RESULT:      -5.3      2.799      7.816
  Name = 
  15 active torsions:
  status: ('A' for Active; 'I' for Inactive)
    1  A    between atoms: O_1  and  O_5
    2  A    between atoms: O_1  and  C_36
    3  A    between atoms: O_3  and  C_32
    4  A    between atoms: O_5  and  C_23
    5  A    between atoms: C_6  and  C_31
    6  A    between atoms: C_10  and  N_14
    7  A    between atoms: N_14  and  C_27
    8  A    between atoms: N_14  and  C_37
    9  A    between atoms: O_17  and  C_26
   10  A    between atoms: O_17  and  C_33
   11  A    between atoms: C_24  and  C_28
   12  A    between atoms: C_26  and  C_34
   13  A    between atoms: C_29  and  C_36
   14  A    between atoms: C_31  and  C_37
   15  A    between atoms: C_33  and  C_36
                            x       y       z     vdW  Elec       q    Type
                         _______ _______ _______ _____ _____    ______ ____

>  <TORSDO>
F 15

$$$$
=
 OpenBabel11062409143D

 37 39  0  0  1  0  0  0  0  0999 V2000
  161.0320  211.1410  150.8850 C   0  0  0  0  0  3  0  0  0  0  0  0
  161.2520  206.8260  150.1750 C   0  0  0  0  0  3  0  0  0  0  0  0
  160.5230  210.7190  152.0430 C   0  0  0  0  0  0  0  0  0  0  0  0
  161.3500  208.1140  150.7120 C   0  0  0  0  0  0  0  0  0  0  0  0
  161.7100  209.0620  149.8390 C   0  0  0  0  0  2  0  0  0  0  0  0
  161.2450  208.3020  152.1290 C   0  0  0  0  0  0  0  0  0  0  0  0
  161.1970  205.8640  152.3800 C   0  0  0  0  0  3  0  0  0  0  0  0
  162.1400  210.4390  150.2060 C   0  0  1  0  0  3  0  0  0  0  0  0
  161.2380  207.1420  152.9320 C   0  0  0  0  0  3  0  0  0  0  0  0
  161.0570  209.5070  152.7510 C   0  0  2  0  0  3  0  0  0  0  0  0
  161.1590  205.7020  150.9930 C   0  0  0  0  0  0  0  0  0  0  0  0
  161.0630  204.4380  150.4020 O   0  0  0  0  0  0  0  0  0  0  0  0
  160.9420  204.2550  148.9980 C   0  0  0  0  0  1  0  0  0  0  0  0
  162.8290  211.7780  148.0000 C   0  0  0  0  0  3  0  0  0  0  0  0
  162.5180  211.1750  148.9970 C   0  0  0  0  0  0  0  0  0  0  0  0
  159.4320  211.4670  152.6140 N   0  0  0  0  0  0  0  0  0  0  0  0
  157.5730  211.6220  154.0180 O   0  0  0  0  0  1  0  0  0  0  0  0
  158.2500  210.7890  153.1270 C   0  0  0  0  0  2  0  0  0  0  0  0
  159.3830  212.9200  152.5150 C   0  0  0  0  0  2  0  0  0  0  0  0
  159.6890  213.3580  151.0930 C   0  0  0  0  0  2  0  0  0  0  0  0
  158.4310  213.7290  148.9610 C   0  0  0  0  0  3  0  0  0  0  0  0
  158.4230  213.6280  150.3560 C   0  0  0  0  0  0  0  0  0  0  0  0
  157.2290  213.8050  151.0630 C   0  0  0  0  0  3  0  0  0  0  0  0
  154.8860  214.2430  151.0590 F   0  0  0  0  0  0  0  0  0  0  0  0
  156.0490  214.1700  148.9800 C   0  0  0  0  0  3  0  0  0  0  0  0
  156.0420  214.0740  150.3750 C   0  0  0  0  0  0  0  0  0  0  0  0
  157.2440  213.9990  148.2730 C   0  0  0  0  0  3  0  0  0  0  0  0
  161.2590  209.6080  154.2530 C   0  0  1  0  0  3  0  0  0  0  0  0
  161.7220  208.4010  154.7910 O   0  0  0  0  0  0  0  0  0  0  0  0
  161.2940  208.3960  156.0390 O   0  0  0  0  0  0  0  0  0  0  0  0
  159.2650  207.1610  156.1720 C   0  0  0  0  0  1  0  0  0  0  0  0
  160.7770  207.1130  156.2340 C   0  0  0  0  0  2  0  0  0  0  0  0
  162.1820  210.7530  154.6380 C   0  0  0  0  0  2  0  0  0  0  0  0
  161.9240  211.1490  155.9500 O   0  0  0  0  0  0  0  0  0  0  0  0
  160.7280  211.8610  155.8710 C   0  0  0  0  0  2  0  0  0  0  0  0
  158.7520  211.3370  157.2610 C   0  0  0  0  0  1  0  0  0  0  0  0
  160.1200  211.9850  157.2520 C   0  0  0  0  0  2  0  0  0  0  0  0
  1  3  2  0  0  0  0
  2  4  2  0  0  0  0
  2 11  1  0  0  0  0
  3 16  1  0  0  0  0
  3 10  1  0  0  0  0
  4  6  1  0  0  0  0
  5  8  1  0  0  0  0
  5  4  1  0  0  0  0
  6 10  1  0  0  0  0
  6  9  2  0  0  0  0
  7  9  1  0  0  0  0
  8 15  1  6  0  0  0
  8  1  1  0  0  0  0
 10 28  1  1  0  0  0
 11  7  2  0  0  0  0
 12 11  1  0  0  0  0
 13 12  1  0  0  0  0
 14 15  3  0  0  0  0
 16 18  1  0  0  0  0
 18 17  1  0  0  0  0
 19 16  1  0  0  0  0
 20 19  1  0  0  0  0
 21 22  1  0  0  0  0
 22 23  2  0  0  0  0
 22 20  1  0  0  0  0
 25 26  2  0  0  0  0
 26 24  1  0  0  0  0
 26 23  1  0  0  0  0
 27 21  2  0  0  0  0
 27 25  1  0  0  0  0
 28 33  1  6  0  0  0
 28 29  1  0  0  0  0
 29 30  1  0  0  0  0
 30 32  1  0  0  0  0
 31 32  1  0  0  0  0
 33 34  1  0  0  0  0
 35 34  1  0  0  0  0
 35 37  1  0  0  0  0
 37 36  1  0  0  0  0
M  END
>  <MODEL>
3

>  <REMARK>
 VINA RESULT:      -5.0      3.018      7.872
  Name = 
  15 active torsions:
  status: ('A' for Active; 'I' for Inactive)
    1  A    between atoms: O_1  and  O_5
    2  A    between atoms: O_1  and  C_36
    3  A    between atoms: O_3  and  C_32
    4  A    between atoms: O_5  and  C_23
    5  A    between atoms: C_6  and  C_31
    6  A    between atoms: C_10  and  N_14
    7  A    between atoms: N_14  and  C_27
    8  A    between atoms: N_14  and  C_37
    9  A    between atoms: O_17  and  C_26
   10  A    between atoms: O_17  and  C_33
   11  A    between atoms: C_24  and  C_28
   12  A    between atoms: C_26  and  C_34
   13  A    between atoms: C_29  and  C_36
   14  A    between atoms: C_31  and  C_37
   15  A    between atoms: C_33  and  C_36
                            x       y       z     vdW  Elec       q    Type
                         _______ _______ _______ _____ _____    ______ ____

>  <TORSDO>
F 15

$$$$
=
 OpenBabel11062409143D

 37 39  0  0  1  0  0  0  0  0999 V2000
  160.2790  211.5640  151.9870 C   0  0  0  0  0  3  0  0  0  0  0  0
  161.0080  207.2710  152.4470 C   0  0  0  0  0  3  0  0  0  0  0  0
  159.7200  211.3910  153.1840 C   0  0  0  0  0  0  0  0  0  0  0  0
  160.9240  208.6550  152.6320 C   0  0  0  0  0  0  0  0  0  0  0  0
  161.2580  209.3870  151.5620 C   0  0  0  0  0  2  0  0  0  0  0  0
  160.6780  209.1830  153.9420 C   0  0  0  0  0  0  0  0  0  0  0  0
  160.8630  206.9010  154.8200 C   0  0  0  0  0  3  0  0  0  0  0  0
  161.5090  210.8540  151.5790 C   0  0  1  0  0  3  0  0  0  0  0  0
  160.7240  208.2730  155.0190 C   0  0  0  0  0  3  0  0  0  0  0  0
  160.3140  210.4740  154.2140 C   0  0  2  0  0  3  0  0  0  0  0  0
  160.9620  206.3890  153.5250 C   0  0  0  0  0  0  0  0  0  0  0  0
  161.0490  205.0150  153.2810 O   0  0  0  0  0  0  0  0  0  0  0  0
  161.4040  204.4810  152.0130 C   0  0  0  0  0  1  0  0  0  0  0  0
  162.2400  211.6680  149.1430 C   0  0  0  0  0  3  0  0  0  0  0  0
  161.9110  211.2990  150.2430 C   0  0  0  0  0  0  0  0  0  0  0  0
  158.5120  212.1190  153.4760 N   0  0  0  0  0  0  0  0  0  0  0  0
  156.4020  212.4040  154.4340 O   0  0  0  0  0  1  0  0  0  0  0  0
  157.3790  211.4620  154.1120 C   0  0  0  0  0  2  0  0  0  0  0  0
  158.3060  213.4700  152.9690 C   0  0  0  0  0  2  0  0  0  0  0  0
  157.2150  213.4710  151.9110 C   0  0  0  0  0  2  0  0  0  0  0  0
  159.0680  214.2230  150.4060 C   0  0  0  0  0  3  0  0  0  0  0  0
  157.8140  213.6220  150.5570 C   0  0  0  0  0  0  0  0  0  0  0  0
  157.1090  213.1850  149.4300 C   0  0  0  0  0  3  0  0  0  0  0  0
  156.9800  212.9140  147.0650 F   0  0  0  0  0  0  0  0  0  0  0  0
  158.9170  213.9360  148.0060 C   0  0  0  0  0  3  0  0  0  0  0  0
  157.6620  213.3400  148.1550 C   0  0  0  0  0  0  0  0  0  0  0  0
  159.6200  214.3790  149.1310 C   0  0  0  0  0  3  0  0  0  0  0  0
  160.3740  210.9770  155.6460 C   0  0  1  0  0  3  0  0  0  0  0  0
  161.4100  210.3650  156.3630 O   0  0  0  0  0  0  0  0  0  0  0  0
  162.4780  211.0970  156.1110 O   0  0  0  0  0  0  0  0  0  0  0  0
  164.5070  211.5880  157.2520 C   0  0  0  0  0  1  0  0  0  0  0  0
  163.4930  210.5250  156.8820 C   0  0  0  0  0  2  0  0  0  0  0  0
  160.4920  212.4910  155.7240 C   0  0  0  0  0  2  0  0  0  0  0  0
  160.4280  212.9030  157.0550 O   0  0  0  0  0  0  0  0  0  0  0  0
  160.0430  214.2410  156.9870 C   0  0  0  0  0  2  0  0  0  0  0  0
  157.7020  213.4910  157.2460 C   0  0  0  0  0  1  0  0  0  0  0  0
  158.6450  214.3370  156.4170 C   0  0  0  0  0  2  0  0  0  0  0  0
  1  3  2  0  0  0  0
  2  4  2  0  0  0  0
  2 11  1  0  0  0  0
  3 16  1  0  0  0  0
  3 10  1  0  0  0  0
  4  6  1  0  0  0  0
  5  8  1  0  0  0  0
  5  4  1  0  0  0  0
  6 10  1  0  0  0  0
  6  9  2  0  0  0  0
  7  9  1  0  0  0  0
  8 15  1  6  0  0  0
  8  1  1  0  0  0  0
 10 28  1  1  0  0  0
 11  7  2  0  0  0  0
 12 11  1  0  0  0  0
 13 12  1  0  0  0  0
 14 15  3  0  0  0  0
 16 18  1  0  0  0  0
 18 17  1  0  0  0  0
 19 16  1  0  0  0  0
 20 19  1  0  0  0  0
 21 22  1  0  0  0  0
 22 20  1  0  0  0  0
 23 22  2  0  0  0  0
 24 26  1  0  0  0  0
 25 26  2  0  0  0  0
 25 27  1  0  0  0  0
 26 23  1  0  0  0  0
 27 21  2  0  0  0  0
 28 33  1  6  0  0  0
 28 29  1  0  0  0  0
 30 29  1  0  0  0  0
 30 32  1  0  0  0  0
 32 31  1  0  0  0  0
 33 34  1  0  0  0  0
 35 34  1  0  0  0  0
 37 35  1  0  0  0  0
 37 36  1  0  0  0  0
M  END
>  <MODEL>
4

>  <REMARK>
 VINA RESULT:      -4.9      2.968      7.430
  Name = 
  15 active torsions:
  status: ('A' for Active; 'I' for Inactive)
    1  A    between atoms: O_1  and  O_5
    2  A    between atoms: O_1  and  C_36
    3  A    between atoms: O_3  and  C_32
    4  A    between atoms: O_5  and  C_23
    5  A    between atoms: C_6  and  C_31
    6  A    between atoms: C_10  and  N_14
    7  A    between atoms: N_14  and  C_27
    8  A    between atoms: N_14  and  C_37
    9  A    between atoms: O_17  and  C_26
   10  A    between atoms: O_17  and  C_33
   11  A    between atoms: C_24  and  C_28
   12  A    between atoms: C_26  and  C_34
   13  A    between atoms: C_29  and  C_36
   14  A    between atoms: C_31  and  C_37
   15  A    between atoms: C_33  and  C_36
                            x       y       z     vdW  Elec       q    Type
                         _______ _______ _______ _____ _____    ______ ____

>  <TORSDO>
F 15

$$$$
=
 OpenBabel11062409143D

 37 39  0  0  1  0  0  0  0  0999 V2000
  160.9040  211.0260  151.8270 C   0  0  0  0  0  3  0  0  0  0  0  0
  161.2220  206.6790  151.4080 C   0  0  0  0  0  3  0  0  0  0  0  0
  160.5780  210.6790  153.0720 C   0  0  0  0  0  0  0  0  0  0  0  0
  161.3330  208.0080  151.8320 C   0  0  0  0  0  0  0  0  0  0  0  0
  161.5270  208.8970  150.8500 C   0  0  0  0  0  2  0  0  0  0  0  0
  161.4150  208.3020  153.2320 C   0  0  0  0  0  0  0  0  0  0  0  0
  161.5140  205.8910  153.6630 C   0  0  0  0  0  3  0  0  0  0  0  0
  161.9400  210.3130  151.0520 C   0  0  1  0  0  3  0  0  0  0  0  0
  161.5720  207.2090  154.1100 C   0  0  0  0  0  3  0  0  0  0  0  0
  161.2590  209.5450  153.7840 C   0  0  2  0  0  3  0  0  0  0  0  0
  161.2940  205.6200  152.3110 C   0  0  0  0  0  0  0  0  0  0  0  0
  161.1760  204.3110  151.8330 O   0  0  0  0  0  0  0  0  0  0  0  0
  161.1930  203.9970  150.4470 C   0  0  0  0  0  1  0  0  0  0  0  0
  162.2570  211.4980  148.6810 C   0  0  0  0  0  3  0  0  0  0  0  0
  162.1150  210.9640  149.7530 C   0  0  0  0  0  0  0  0  0  0  0  0
  159.5430  211.4290  153.7340 N   0  0  0  0  0  0  0  0  0  0  0  0
  158.6300  211.0820  155.8550 O   0  0  0  0  0  1  0  0  0  0  0  0
  158.5070  210.7550  154.5040 C   0  0  0  0  0  2  0  0  0  0  0  0
  159.3770  212.8570  153.4930 C   0  0  0  0  0  2  0  0  0  0  0  0
  157.9110  213.1820  153.2630 C   0  0  0  0  0  2  0  0  0  0  0  0
  156.3840  213.7940  151.3770 C   0  0  0  0  0  3  0  0  0  0  0  0
  157.6770  213.5100  151.8300 C   0  0  0  0  0  0  0  0  0  0  0  0
  158.7480  213.5080  150.9300 C   0  0  0  0  0  3  0  0  0  0  0  0
  159.5660  213.8000  148.7100 F   0  0  0  0  0  0  0  0  0  0  0  0
  157.2370  214.0880  149.1290 C   0  0  0  0  0  3  0  0  0  0  0  0
  158.5280  213.7990  149.5800 C   0  0  0  0  0  0  0  0  0  0  0  0
  156.1640  214.0840  150.0270 C   0  0  0  0  0  3  0  0  0  0  0  0
  161.6600  209.7700  155.2320 C   0  0  1  0  0  3  0  0  0  0  0  0
  161.8320  208.5580  155.9120 O   0  0  0  0  0  0  0  0  0  0  0  0
  160.8810  208.5400  156.8260 O   0  0  0  0  0  0  0  0  0  0  0  0
  159.3510  206.7240  156.6840 C   0  0  0  0  0  1  0  0  0  0  0  0
  160.7160  207.1900  157.1450 C   0  0  0  0  0  2  0  0  0  0  0  0
  162.9030  210.6350  155.3620 C   0  0  0  0  0  2  0  0  0  0  0  0
  162.6870  211.6390  156.3060 O   0  0  0  0  0  0  0  0  0  0  0  0
  163.6830  211.4400  157.2610 C   0  0  0  0  0  2  0  0  0  0  0  0
  165.7550  212.7790  157.1010 C   0  0  0  0  0  1  0  0  0  0  0  0
  165.0420  211.5400  156.6010 C   0  0  0  0  0  2  0  0  0  0  0  0
  1  3  2  0  0  0  0
  2  4  2  0  0  0  0
  2 11  1  0  0  0  0
  3 16  1  0  0  0  0
  3 10  1  0  0  0  0
  4  6  1  0  0  0  0
  5  8  1  0  0  0  0
  5  4  1  0  0  0  0
  6 10  1  0  0  0  0
  6  9  2  0  0  0  0
  7  9  1  0  0  0  0
  8 15  1  6  0  0  0
  8  1  1  0  0  0  0
 10 28  1  1  0  0  0
 11  7  2  0  0  0  0
 12 11  1  0  0  0  0
 13 12  1  0  0  0  0
 14 15  3  0  0  0  0
 16 18  1  0  0  0  0
 18 17  1  0  0  0  0
 19 16  1  0  0  0  0
 20 19  1  0  0  0  0
 21 22  1  0  0  0  0
 22 20  1  0  0  0  0
 23 22  2  0  0  0  0
 24 26  1  0  0  0  0
 25 26  2  0  0  0  0
 25 27  1  0  0  0  0
 26 23  1  0  0  0  0
 27 21  2  0  0  0  0
 28 33  1  6  0  0  0
 28 29  1  0  0  0  0
 29 30  1  0  0  0  0
 30 32  1  0  0  0  0
 31 32  1  0  0  0  0
 33 34  1  0  0  0  0
 34 35  1  0  0  0  0
 37 36  1  0  0  0  0
 37 35  1  0  0  0  0
M  END
>  <MODEL>
5

>  <REMARK>
 VINA RESULT:      -4.6      2.975      7.686
  Name = 
  15 active torsions:
  status: ('A' for Active; 'I' for Inactive)
    1  A    between atoms: O_1  and  O_5
    2  A    between atoms: O_1  and  C_36
    3  A    between atoms: O_3  and  C_32
    4  A    between atoms: O_5  and  C_23
    5  A    between atoms: C_6  and  C_31
    6  A    between atoms: C_10  and  N_14
    7  A    between atoms: N_14  and  C_27
    8  A    between atoms: N_14  and  C_37
    9  A    between atoms: O_17  and  C_26
   10  A    between atoms: O_17  and  C_33
   11  A    between atoms: C_24  and  C_28
   12  A    between atoms: C_26  and  C_34
   13  A    between atoms: C_29  and  C_36
   14  A    between atoms: C_31  and  C_37
   15  A    between atoms: C_33  and  C_36
                            x       y       z     vdW  Elec       q    Type
                         _______ _______ _______ _____ _____    ______ ____

>  <TORSDO>
F 15

$$$$
=
 OpenBabel11062409143D

 37 39  0  0  1  0  0  0  0  0999 V2000
  160.6050  207.4720  153.9430 C   0  0  0  0  0  3  0  0  0  0  0  0
  158.1460  211.0750  154.3310 C   0  0  0  0  0  3  0  0  0  0  0  0
  160.8600  208.0200  152.7550 C   0  0  0  0  0  0  0  0  0  0  0  0
  159.1870  210.1660  154.1100 C   0  0  0  0  0  0  0  0  0  0  0  0
  159.2910  209.1970  155.0280 C   0  0  0  0  0  2  0  0  0  0  0  0
  160.1430  210.4200  153.0730 C   0  0  0  0  0  0  0  0  0  0  0  0
  159.0800  212.6000  152.7210 C   0  0  0  0  0  3  0  0  0  0  0  0
  160.4560  208.2810  155.1700 C   0  0  1  0  0  3  0  0  0  0  0  0
  160.0930  211.6830  152.4490 C   0  0  0  0  0  3  0  0  0  0  0  0
  161.0330  209.5020  152.5840 C   0  0  2  0  0  3  0  0  0  0  0  0
  158.0740  212.2800  153.6350 C   0  0  0  0  0  0  0  0  0  0  0  0
  157.0120  213.1510  153.8950 O   0  0  0  0  0  0  0  0  0  0  0  0
  156.7720  214.3210  153.1240 C   0  0  0  0  0  1  0  0  0  0  0  0
  160.0770  206.6630  157.2610 C   0  0  0  0  0  3  0  0  0  0  0  0
  160.2470  207.3950  156.3180 C   0  0  0  0  0  0  0  0  0  0  0  0
  160.9710  207.1440  151.6170 N   0  0  0  0  0  0  0  0  0  0  0  0
  162.4760  207.3510  149.8440 O   0  0  0  0  0  1  0  0  0  0  0  0
  161.1920  207.6790  150.2810 C   0  0  0  0  0  2  0  0  0  0  0  0
  160.6660  205.7230  151.7290 C   0  0  0  0  0  2  0  0  0  0  0  0
  161.8600  204.8960  151.2840 C   0  0  0  0  0  2  0  0  0  0  0  0
  160.9410  202.6030  150.8780 C   0  0  0  0  0  3  0  0  0  0  0  0
  161.4190  203.8130  150.3630 C   0  0  0  0  0  0  0  0  0  0  0  0
  161.5060  203.9960  148.9780 C   0  0  0  0  0  3  0  0  0  0  0  0
  161.1900  203.1540  146.7710 F   0  0  0  0  0  0  0  0  0  0  0  0
  160.6250  201.7690  148.6260 C   0  0  0  0  0  3  0  0  0  0  0  0
  161.1070  202.9760  148.1100 C   0  0  0  0  0  0  0  0  0  0  0  0
  160.5430  201.5820  150.0100 C   0  0  0  0  0  3  0  0  0  0  0  0
  162.1790  209.9740  151.7050 C   0  0  1  0  0  3  0  0  0  0  0  0
  161.7360  210.8590  150.7140 O   0  0  0  0  0  0  0  0  0  0  0  0
  162.6180  210.7500  149.7390 O   0  0  0  0  0  0  0  0  0  0  0  0
  162.5170  212.5290  148.1640 C   0  0  0  0  0  1  0  0  0  0  0  0
  161.9470  211.1950  148.5980 C   0  0  0  0  0  2  0  0  0  0  0  0
  163.3080  210.5980  152.5110 C   0  0  0  0  0  2  0  0  0  0  0  0
  162.9510  210.6600  153.8580 O   0  0  0  0  0  0  0  0  0  0  0  0
  164.1590  210.8380  154.5310 C   0  0  0  0  0  2  0  0  0  0  0  0
  162.3990  210.9980  156.2590 C   0  0  0  0  0  1  0  0  0  0  0  0
  163.8890  211.0800  156.0000 C   0  0  0  0  0  2  0  0  0  0  0  0
  1  8  1  0  0  0  0
  3  1  2  0  0  0  0
  4  2  1  0  0  0  0
  4  5  1  0  0  0  0
  5  8  1  0  0  0  0
  6  4  2  0  0  0  0
  7 11  1  0  0  0  0
  8 15  1  1  0  0  0
  9  7  2  0  0  0  0
  9  6  1  0  0  0  0
 10 28  1  6  0  0  0
 10  3  1  0  0  0  0
 10  6  1  0  0  0  0
 11 12  1  0  0  0  0
 11  2  2  0  0  0  0
 13 12  1  0  0  0  0
 15 14  3  0  0  0  0
 16 19  1  0  0  0  0
 16  3  1  0  0  0  0
 17 18  1  0  0  0  0
 18 16  1  0  0  0  0
 20 19  1  0  0  0  0
 22 21  1  0  0  0  0
 22 20  1  0  0  0  0
 23 22  2  0  0  0  0
 24 26  1  0  0  0  0
 25 27  1  0  0  0  0
 26 25  2  0  0  0  0
 26 23  1  0  0  0  0
 27 21  2  0  0  0  0
 28 33  1  1  0  0  0
 29 28  1  0  0  0  0
 30 29  1  0  0  0  0
 31 32  1  0  0  0  0
 32 30  1  0  0  0  0
 33 34  1  0  0  0  0
 34 35  1  0  0  0  0
 35 37  1  0  0  0  0
 37 36  1  0  0  0  0
M  END
>  <MODEL>
6

>  <REMARK>
 VINA RESULT:      -4.3      2.012      4.097
  Name = 
  15 active torsions:
  status: ('A' for Active; 'I' for Inactive)
    1  A    between atoms: O_1  and  O_5
    2  A    between atoms: O_1  and  C_36
    3  A    between atoms: O_3  and  C_32
    4  A    between atoms: O_5  and  C_23
    5  A    between atoms: C_6  and  C_31
    6  A    between atoms: C_10  and  N_14
    7  A    between atoms: N_14  and  C_27
    8  A    between atoms: N_14  and  C_37
    9  A    between atoms: O_17  and  C_26
   10  A    between atoms: O_17  and  C_33
   11  A    between atoms: C_24  and  C_28
   12  A    between atoms: C_26  and  C_34
   13  A    between atoms: C_29  and  C_36
   14  A    between atoms: C_31  and  C_37
   15  A    between atoms: C_33  and  C_36
                            x       y       z     vdW  Elec       q    Type
                         _______ _______ _______ _____ _____    ______ ____

>  <TORSDO>
F 15

$$$$
=
 OpenBabel11062409143D

 37 39  0  0  1  0  0  0  0  0999 V2000
  160.7900  207.8600  154.0610 C   0  0  0  0  0  3  0  0  0  0  0  0
  157.9650  211.1790  154.4920 C   0  0  0  0  0  3  0  0  0  0  0  0
  161.0780  208.5180  152.9390 C   0  0  0  0  0  0  0  0  0  0  0  0
  159.1050  210.3900  154.2960 C   0  0  0  0  0  0  0  0  0  0  0  0
  159.2340  209.3670  155.1510 C   0  0  0  0  0  2  0  0  0  0  0  0
  160.1070  210.8100  153.3610 C   0  0  0  0  0  0  0  0  0  0  0  0
  158.8630  212.9020  153.0730 C   0  0  0  0  0  3  0  0  0  0  0  0
  160.4700  208.5550  155.3250 C   0  0  1  0  0  3  0  0  0  0  0  0
  159.9790  212.1070  152.8230 C   0  0  0  0  0  3  0  0  0  0  0  0
  161.1170  210.0180  152.8850 C   0  0  2  0  0  3  0  0  0  0  0  0
  157.8280  212.4220  153.8770 C   0  0  0  0  0  0  0  0  0  0  0  0
  156.6680  213.1670  154.1080 O   0  0  0  0  0  0  0  0  0  0  0  0
  155.7230  212.8260  155.1130 C   0  0  0  0  0  1  0  0  0  0  0  0
  160.0940  206.7540  157.2600 C   0  0  0  0  0  3  0  0  0  0  0  0
  160.2630  207.5690  156.3880 C   0  0  0  0  0  0  0  0  0  0  0  0
  161.3610  207.7450  151.7570 N   0  0  0  0  0  0  0  0  0  0  0  0
  161.4200  207.5980  149.4270 O   0  0  0  0  0  1  0  0  0  0  0  0
  160.6390  207.9890  150.5150 C   0  0  0  0  0  2  0  0  0  0  0  0
  162.2220  206.5710  151.8130 C   0  0  0  0  0  2  0  0  0  0  0  0
  161.4550  205.3860  152.3730 C   0  0  0  0  0  2  0  0  0  0  0  0
  161.0300  203.0240  151.6630 C   0  0  0  0  0  3  0  0  0  0  0  0
  161.2520  204.3600  151.3140 C   0  0  0  0  0  0  0  0  0  0  0  0
  161.3080  204.7290  149.9650 C   0  0  0  0  0  3  0  0  0  0  0  0
  161.1860  204.1230  147.6630 F   0  0  0  0  0  0  0  0  0  0  0  0
  160.9070  202.4300  149.3180 C   0  0  0  0  0  3  0  0  0  0  0  0
  161.1340  203.7650  148.9680 C   0  0  0  0  0  0  0  0  0  0  0  0
  160.8570  202.0590  150.6660 C   0  0  0  0  0  3  0  0  0  0  0  0
  162.2740  210.6610  152.1380 C   0  0  1  0  0  3  0  0  0  0  0  0
  163.4950  210.4270  152.7830 O   0  0  0  0  0  0  0  0  0  0  0  0
  163.1760  210.1590  154.0340 O   0  0  0  0  0  0  0  0  0  0  0  0
  163.4250  211.0650  156.2200 C   0  0  0  0  0  1  0  0  0  0  0  0
  163.9400  211.0470  154.7960 C   0  0  0  0  0  2  0  0  0  0  0  0
  162.3440  210.2180  150.6860 C   0  0  0  0  0  2  0  0  0  0  0  0
  161.7350  211.1710  149.8690 O   0  0  0  0  0  0  0  0  0  0  0  0
  162.3260  210.9890  148.6200 C   0  0  0  0  0  2  0  0  0  0  0  0
  162.1100  213.3300  147.8580 C   0  0  0  0  0  1  0  0  0  0  0  0
  163.0890  212.2390  148.2350 C   0  0  0  0  0  2  0  0  0  0  0  0
  1  8  1  0  0  0  0
  3  1  2  0  0  0  0
  4  2  1  0  0  0  0
  4  5  1  0  0  0  0
  5  8  1  0  0  0  0
  6  4  2  0  0  0  0
  7 11  1  0  0  0  0
  8 15  1  1  0  0  0
  9  7  2  0  0  0  0
  9  6  1  0  0  0  0
 10 28  1  6  0  0  0
 10  3  1  0  0  0  0
 10  6  1  0  0  0  0
 11 12  1  0  0  0  0
 11  2  2  0  0  0  0
 12 13  1  0  0  0  0
 15 14  3  0  0  0  0
 16 19  1  0  0  0  0
 16  3  1  0  0  0  0
 17 18  1  0  0  0  0
 18 16  1  0  0  0  0
 19 20  1  0  0  0  0
 22 21  1  0  0  0  0
 22 20  1  0  0  0  0
 23 22  2  0  0  0  0
 24 26  1  0  0  0  0
 25 27  1  0  0  0  0
 26 25  2  0  0  0  0
 26 23  1  0  0  0  0
 27 21  2  0  0  0  0
 28 33  1  6  0  0  0
 28 29  1  0  0  0  0
 29 30  1  0  0  0  0
 30 32  1  0  0  0  0
 32 31  1  0  0  0  0
 34 33  1  0  0  0  0
 35 34  1  0  0  0  0
 36 37  1  0  0  0  0
 37 35  1  0  0  0  0
M  END
>  <MODEL>
7

>  <REMARK>
 VINA RESULT:      -4.1      1.895      3.573
  Name = 
  15 active torsions:
  status: ('A' for Active; 'I' for Inactive)
    1  A    between atoms: O_1  and  O_5
    2  A    between atoms: O_1  and  C_36
    3  A    between atoms: O_3  and  C_32
    4  A    between atoms: O_5  and  C_23
    5  A    between atoms: C_6  and  C_31
    6  A    between atoms: C_10  and  N_14
    7  A    between atoms: N_14  and  C_27
    8  A    between atoms: N_14  and  C_37
    9  A    between atoms: O_17  and  C_26
   10  A    between atoms: O_17  and  C_33
   11  A    between atoms: C_24  and  C_28
   12  A    between atoms: C_26  and  C_34
   13  A    between atoms: C_29  and  C_36
   14  A    between atoms: C_31  and  C_37
   15  A    between atoms: C_33  and  C_36
                            x       y       z     vdW  Elec       q    Type
                         _______ _______ _______ _____ _____    ______ ____

>  <TORSDO>
F 15

$$$$
=
 OpenBabel11062409143D

 37 39  0  0  1  0  0  0  0  0999 V2000
  160.9890  207.5280  153.8140 C   0  0  0  0  0  3  0  0  0  0  0  0
  158.9230  211.3790  154.0890 C   0  0  0  0  0  3  0  0  0  0  0  0
  161.0060  207.8590  152.5230 C   0  0  0  0  0  0  0  0  0  0  0  0
  159.8260  210.3460  153.8130 C   0  0  0  0  0  0  0  0  0  0  0  0
  160.0690  209.5220  154.8400 C   0  0  0  0  0  2  0  0  0  0  0  0
  160.5400  210.3400  152.5700 C   0  0  0  0  0  0  0  0  0  0  0  0
  159.5710  212.5370  152.0820 C   0  0  0  0  0  3  0  0  0  0  0  0
  161.1730  208.5250  154.8890 C   0  0  1  0  0  3  0  0  0  0  0  0
  160.4340  211.4920  151.7630 C   0  0  0  0  0  3  0  0  0  0  0  0
  161.2340  209.2720  152.0680 C   0  0  2  0  0  3  0  0  0  0  0  0
  158.7770  212.4650  153.2280 C   0  0  0  0  0  0  0  0  0  0  0  0
  157.8600  213.4690  153.5530 O   0  0  0  0  0  0  0  0  0  0  0  0
  157.1390  213.4830  154.7780 C   0  0  0  0  0  1  0  0  0  0  0  0
  161.1640  207.2970  157.2600 C   0  0  0  0  0  3  0  0  0  0  0  0
  161.1690  207.8500  156.1880 C   0  0  0  0  0  0  0  0  0  0  0  0
  160.8000  206.8130  151.5550 N   0  0  0  0  0  0  0  0  0  0  0  0
  159.7250  205.9880  149.6530 O   0  0  0  0  0  1  0  0  0  0  0  0
  160.3170  207.1190  150.2150 C   0  0  0  0  0  2  0  0  0  0  0  0
  160.8720  205.4080  151.9380 C   0  0  0  0  0  2  0  0  0  0  0  0
  162.0550  204.7410  151.2570 C   0  0  0  0  0  2  0  0  0  0  0  0
  161.1980  202.3970  151.0620 C   0  0  0  0  0  3  0  0  0  0  0  0
  161.5910  203.5860  150.4390 C   0  0  0  0  0  0  0  0  0  0  0  0
  161.5740  203.6830  149.0430 C   0  0  0  0  0  3  0  0  0  0  0  0
  161.1340  202.6890  146.9210 F   0  0  0  0  0  0  0  0  0  0  0  0
  160.7560  201.4080  148.8960 C   0  0  0  0  0  3  0  0  0  0  0  0
  161.1540  202.5950  148.2720 C   0  0  0  0  0  0  0  0  0  0  0  0
  160.7790  201.3090  150.2910 C   0  0  0  0  0  3  0  0  0  0  0  0
  162.1820  209.4860  150.9010 C   0  0  1  0  0  3  0  0  0  0  0  0
  162.4710  208.2820  150.2460 O   0  0  0  0  0  0  0  0  0  0  0  0
  162.1720  208.5000  148.9800 O   0  0  0  0  0  0  0  0  0  0  0  0
  162.3060  206.6010  147.5540 C   0  0  0  0  0  1  0  0  0  0  0  0
  163.0660  207.7060  148.2590 C   0  0  0  0  0  2  0  0  0  0  0  0
  161.6630  210.5190  149.9140 C   0  0  0  0  0  2  0  0  0  0  0  0
  162.7040  211.3540  149.5090 O   0  0  0  0  0  0  0  0  0  0  0  0
  162.3680  211.7250  148.2080 C   0  0  0  0  0  2  0  0  0  0  0  0
  162.0760  213.7960  146.8910 C   0  0  0  0  0  1  0  0  0  0  0  0
  162.9510  213.0880  147.9040 C   0  0  0  0  0  2  0  0  0  0  0  0
  1  8  1  0  0  0  0
  3  1  2  0  0  0  0
  4  2  1  0  0  0  0
  4  5  1  0  0  0  0
  5  8  1  0  0  0  0
  6  4  2  0  0  0  0
  7 11  1  0  0  0  0
  8 15  1  1  0  0  0
  9  7  2  0  0  0  0
  9  6  1  0  0  0  0
 10 28  1  6  0  0  0
 10  3  1  0  0  0  0
 10  6  1  0  0  0  0
 11 12  1  0  0  0  0
 11  2  2  0  0  0  0
 12 13  1  0  0  0  0
 15 14  3  0  0  0  0
 16 19  1  0  0  0  0
 16  3  1  0  0  0  0
 17 18  1  0  0  0  0
 18 16  1  0  0  0  0
 20 19  1  0  0  0  0
 22 21  1  0  0  0  0
 22 20  1  0  0  0  0
 23 22  2  0  0  0  0
 24 26  1  0  0  0  0
 25 27  1  0  0  0  0
 26 25  2  0  0  0  0
 26 23  1  0  0  0  0
 27 21  2  0  0  0  0
 28 33  1  6  0  0  0
 29 28  1  0  0  0  0
 30 29  1  0  0  0  0
 31 32  1  0  0  0  0
 32 30  1  0  0  0  0
 34 33  1  0  0  0  0
 35 34  1  0  0  0  0
 36 37  1  0  0  0  0
 37 35  1  0  0  0  0
M  END
>  <MODEL>
8

>  <REMARK>
 VINA RESULT:      -3.9      2.262      3.962
  Name = 
  15 active torsions:
  status: ('A' for Active; 'I' for Inactive)
    1  A    between atoms: O_1  and  O_5
    2  A    between atoms: O_1  and  C_36
    3  A    between atoms: O_3  and  C_32
    4  A    between atoms: O_5  and  C_23
    5  A    between atoms: C_6  and  C_31
    6  A    between atoms: C_10  and  N_14
    7  A    between atoms: N_14  and  C_27
    8  A    between atoms: N_14  and  C_37
    9  A    between atoms: O_17  and  C_26
   10  A    between atoms: O_17  and  C_33
   11  A    between atoms: C_24  and  C_28
   12  A    between atoms: C_26  and  C_34
   13  A    between atoms: C_29  and  C_36
   14  A    between atoms: C_31  and  C_37
   15  A    between atoms: C_33  and  C_36
                            x       y       z     vdW  Elec       q    Type
                         _______ _______ _______ _____ _____    ______ ____

>  <TORSDO>
F 15

$$$$
=
 OpenBabel11062409143D

 37 39  0  0  1  0  0  0  0  0999 V2000
  161.3290  206.1410  149.1420 C   0  0  0  0  0  3  0  0  0  0  0  0
  162.5840  210.2390  148.2420 C   0  0  0  0  0  3  0  0  0  0  0  0
  161.5340  206.5680  150.3880 C   0  0  0  0  0  0  0  0  0  0  0  0
  161.9560  209.1000  148.7590 C   0  0  0  0  0  0  0  0  0  0  0  0
  161.6450  208.1680  147.8500 C   0  0  0  0  0  2  0  0  0  0  0  0
  161.5400  209.0790  150.1300 C   0  0  0  0  0  0  0  0  0  0  0  0
  162.1930  211.4360  150.2930 C   0  0  0  0  0  3  0  0  0  0  0  0
  160.7470  207.0060  148.0950 C   0  0  1  0  0  3  0  0  0  0  0  0
  161.6150  210.2940  150.8430 C   0  0  0  0  0  3  0  0  0  0  0  0
  161.1660  207.9580  150.8210 C   0  0  2  0  0  3  0  0  0  0  0  0
  162.7210  211.4000  149.0010 C   0  0  0  0  0  0  0  0  0  0  0  0
  163.3570  212.5090  148.4340 O   0  0  0  0  0  0  0  0  0  0  0  0
  162.7550  213.3060  147.4240 C   0  0  0  0  0  1  0  0  0  0  0  0
  160.4540  205.6060  145.8400 C   0  0  0  0  0  3  0  0  0  0  0  0
  160.5880  206.2390  146.8580 C   0  0  0  0  0  0  0  0  0  0  0  0
  162.1220  205.6490  151.3280 N   0  0  0  0  0  0  0  0  0  0  0  0
  163.4840  205.8260  153.2160 O   0  0  0  0  0  1  0  0  0  0  0  0
  163.4770  205.8510  151.8210 C   0  0  0  0  0  2  0  0  0  0  0  0
  161.4670  204.3900  151.6600 C   0  0  0  0  0  2  0  0  0  0  0  0
  160.3300  204.1200  150.6900 C   0  0  0  0  0  2  0  0  0  0  0  0
  160.8470  201.6860  150.4280 C   0  0  0  0  0  3  0  0  0  0  0  0
  160.6490  202.9400  149.8410 C   0  0  0  0  0  0  0  0  0  0  0  0
  160.7750  203.0900  148.4560 C   0  0  0  0  0  3  0  0  0  0  0  0
  161.2100  202.1320  146.3170 F   0  0  0  0  0  0  0  0  0  0  0  0
  161.2830  200.7320  148.2450 C   0  0  0  0  0  3  0  0  0  0  0  0
  161.0900  201.9860  147.6580 C   0  0  0  0  0  0  0  0  0  0  0  0
  161.1630  200.5820  149.6300 C   0  0  0  0  0  3  0  0  0  0  0  0
  160.4700  208.1100  152.1630 C   0  0  1  0  0  3  0  0  0  0  0  0
  161.2660  207.6350  153.2120 O   0  0  0  0  0  0  0  0  0  0  0  0
  160.4680  206.8670  153.9270 O   0  0  0  0  0  0  0  0  0  0  0  0
  159.6760  207.3270  156.1230 C   0  0  0  0  0  1  0  0  0  0  0  0
  160.8820  207.0530  155.2490 C   0  0  0  0  0  2  0  0  0  0  0  0
  160.0330  209.5420  152.4300 C   0  0  0  0  0  2  0  0  0  0  0  0
  160.4240  209.9250  153.7130 O   0  0  0  0  0  0  0  0  0  0  0  0
  159.7830  211.1450  153.9220 C   0  0  0  0  0  2  0  0  0  0  0  0
  158.5300  212.9150  152.7360 C   0  0  0  0  0  1  0  0  0  0  0  0
  158.8600  211.4380  152.7590 C   0  0  0  0  0  2  0  0  0  0  0  0
  1  3  2  0  0  0  0
  2  4  2  0  0  0  0
  2 11  1  0  0  0  0
  3 10  1  0  0  0  0
  3 16  1  0  0  0  0
  4  6  1  0  0  0  0
  5  8  1  0  0  0  0
  5  4  1  0  0  0  0
  6 10  1  0  0  0  0
  6  9  2  0  0  0  0
  7  9  1  0  0  0  0
  8 15  1  6  0  0  0
  8  1  1  0  0  0  0
 10 28  1  1  0  0  0
 11  7  2  0  0  0  0
 12 11  1  0  0  0  0
 13 12  1  0  0  0  0
 14 15  3  0  0  0  0
 16 19  1  0  0  0  0
 16 18  1  0  0  0  0
 18 17  1  0  0  0  0
 20 19  1  0  0  0  0
 22 21  1  0  0  0  0
 22 20  1  0  0  0  0
 23 22  2  0  0  0  0
 24 26  1  0  0  0  0
 25 27  1  0  0  0  0
 26 25  2  0  0  0  0
 26 23  1  0  0  0  0
 27 21  2  0  0  0  0
 28 33  1  1  0  0  0
 28 29  1  0  0  0  0
 29 30  1  0  0  0  0
 30 32  1  0  0  0  0
 32 31  1  0  0  0  0
 33 34  1  0  0  0  0
 34 35  1  0  0  0  0
 36 37  1  0  0  0  0
 37 35  1  0  0  0  0
M  END
>  <MODEL>
9

>  <REMARK>
 VINA RESULT:      -3.9      2.893      6.911
  Name = 
  15 active torsions:
  status: ('A' for Active; 'I' for Inactive)
    1  A    between atoms: O_1  and  O_5
    2  A    between atoms: O_1  and  C_36
    3  A    between atoms: O_3  and  C_32
    4  A    between atoms: O_5  and  C_23
    5  A    between atoms: C_6  and  C_31
    6  A    between atoms: C_10  and  N_14
    7  A    between atoms: N_14  and  C_27
    8  A    between atoms: N_14  and  C_37
    9  A    between atoms: O_17  and  C_26
   10  A    between atoms: O_17  and  C_33
   11  A    between atoms: C_24  and  C_28
   12  A    between atoms: C_26  and  C_34
   13  A    between atoms: C_29  and  C_36
   14  A    between atoms: C_31  and  C_37
   15  A    between atoms: C_33  and  C_36
                            x       y       z     vdW  Elec       q    Type
                         _______ _______ _______ _____ _____    ______ ____

>  <TORSDO>
F 15

$$$$
