=
 OpenBabel11062409023D

 37 42  0  0  1  0  0  0  0  0999 V2000
  162.5790  207.0350  153.7600 O   0  0  0  0  0  1  0  0  0  0  0  0
  160.8190  203.3560  149.3060 C   0  0  0  0  0  2  0  0  0  0  0  0
  161.5850  207.8100  149.7400 C   0  0  0  0  0  0  0  0  0  0  0  0
  162.3370  209.8400  152.6640 C   0  0  0  0  0  2  0  0  0  0  0  0
  161.8880  205.5000  148.5450 C   0  0  2  0  0  3  0  0  0  0  0  0
  161.3470  208.1630  151.0660 C   0  0  0  0  0  0  0  0  0  0  0  0
  161.6140  206.4160  149.7140 C   0  0  0  0  0  0  0  0  0  0  0  0
  161.2570  209.5560  151.6380 C   0  0  1  0  0  0  0  0  0  0  0  0
  162.0990  206.2130  147.3650 O   0  0  0  0  0  1  0  0  0  0  0  0
  161.4170  205.9870  151.0190 C   0  0  0  0  0  0  0  0  0  0  0  0
  161.2580  204.3800  152.8130 O   0  0  0  0  0  1  0  0  0  0  0  0
  161.2550  210.0570  148.6120 C   0  0  0  0  0  2  0  0  0  0  0  0
  163.3670  208.9170  148.6160 O   0  0  0  0  0  1  0  0  0  0  0  0
  161.4410  204.5330  151.4400 C   0  0  1  0  0  3  0  0  0  0  0  0
  160.8810  209.6920  153.1130 C   0  0  1  0  0  3  0  0  0  0  0  0
  161.9850  208.7180  148.6070 C   0  0  1  0  0  3  0  0  0  0  0  0
  161.2630  207.0580  151.8320 N   0  0  0  0  0  0  0  0  0  0  0  0
  160.7340  204.5300  148.3400 C   0  0  0  0  0  2  0  0  0  0  0  0
  160.8150  210.6990  150.6830 C   0  0  2  0  0  3  0  0  0  0  0  0
  160.3660  203.7430  150.7090 C   0  0  0  0  0  2  0  0  0  0  0  0
  160.5410  208.3490  153.7980 C   0  0  1  0  0  3  0  0  0  0  0  0
  161.2630  207.0860  153.2900 C   0  0  2  0  0  3  0  0  0  0  0  0
  161.7290  210.8740  149.6430 O   0  0  0  0  0  0  0  0  0  0  0  0
  160.9070  213.0740  150.3860 C   0  0  0  0  0  2  0  0  0  0  0  0
  160.4060  211.9970  151.2540 N   0  0  1  0  0  0  0  0  0  0  0  0
  158.9550  212.0880  151.5180 C   0  0  1  0  0  3  0  0  0  0  0  0
  158.6210  211.3920  152.8270 C   0  0  0  0  0  1  0  0  0  0  0  0
  159.5710  214.3660  151.9690 O   0  0  0  0  0  0  0  0  0  0  0  0
  158.4910  213.5450  151.6100 C   0  0  0  0  0  2  0  0  0  0  0  0
  160.3880  214.4530  150.8270 C   0  0  0  0  0  2  0  0  0  0  0  0
  160.4210  208.4790  155.3240 C   0  0  2  0  0  3  0  0  0  0  0  0
  159.5790  207.3630  155.9280 C   0  0  0  0  0  2  0  0  0  0  0  0
  160.1810  206.8960  157.2390 C   0  0  0  0  0  1  0  0  0  0  0  0
  159.8710  209.8430  155.7270 C   0  0  0  0  0  2  0  0  0  0  0  0
  160.5730  210.3420  156.8250 O   0  0  0  0  0  0  0  0  0  0  0  0
  162.9110  210.3940  157.2550 C   0  0  0  0  0  1  0  0  0  0  0  0
  161.7950  210.7570  156.2960 C   0  0  0  0  0  2  0  0  0  0  0  0
  2 20  1  0  0  0  0
  3  6  2  0  0  0  0
  5  9  1  6  0  0  0
  5  7  1  0  0  0  0
  6  8  1  0  0  0  0
  6 17  1  0  0  0  0
  7  3  1  0  0  0  0
  7 10  2  0  0  0  0
  8  4  1  1  0  0  0
  8 15  1  0  0  0  0
 10 14  1  0  0  0  0
 10 17  1  0  0  0  0
 12 23  1  0  0  0  0
 14 11  1  1  0  0  0
 15  4  1  1  0  0  0
 15 21  1  0  0  0  0
 16 12  1  0  0  0  0
 16 13  1  1  0  0  0
 16  3  1  0  0  0  0
 17 22  1  0  0  0  0
 18  5  1  0  0  0  0
 18  2  1  0  0  0  0
 19 23  1  6  0  0  0
 19 25  1  0  0  0  0
 19  8  1  0  0  0  0
 20 14  1  0  0  0  0
 21 31  1  1  0  0  0
 22  1  1  6  0  0  0
 22 21  1  0  0  0  0
 24 30  1  0  0  0  0
 25 24  1  6  0  0  0
 25 26  1  0  0  0  0
 26 29  1  0  0  0  0
 26 27  1  1  0  0  0
 29 28  1  0  0  0  0
 30 28  1  0  0  0  0
 31 34  1  6  0  0  0
 31 32  1  0  0  0  0
 32 33  1  0  0  0  0
 34 35  1  0  0  0  0
 37 35  1  0  0  0  0
 37 36  1  0  0  0  0
M  END
>  <MODEL>
1

>  <REMARK>
 VINA RESULT:      -4.4      0.000      0.000
  Name = 
  6 active torsions:
  status: ('A' for Active; 'I' for Inactive)
    1  A    between atoms: O_5  and  C_17
    2  A    between atoms: O_5  and  C_23
    3  A    between atoms: N_6  and  C_31
    4  A    between atoms: C_11  and  C_26
    5  A    between atoms: C_17  and  C_26
    6  A    between atoms: C_26  and  C_33
                            x       y       z     vdW  Elec       q    Type
                         _______ _______ _______ _____ _____    ______ ____

>  <TORSDO>
F 6

$$$$
=
 OpenBabel11062409023D

 37 42  0  0  1  0  0  0  0  0999 V2000
  163.0750  210.3300  150.8060 O   0  0  0  0  0  1  0  0  0  0  0  0
  159.6880  209.7970  155.7760 C   0  0  0  0  0  2  0  0  0  0  0  0
  161.0140  207.0330  152.4280 C   0  0  0  0  0  0  0  0  0  0  0  0
  162.8150  207.7020  149.3380 C   0  0  0  0  0  2  0  0  0  0  0  0
  160.7010  207.6480  154.9530 C   0  0  2  0  0  3  0  0  0  0  0  0
  161.2220  207.8040  151.2870 C   0  0  0  0  0  0  0  0  0  0  0  0
  160.8870  207.9360  153.4830 C   0  0  0  0  0  0  0  0  0  0  0  0
  161.4540  207.3100  149.8810 C   0  0  1  0  0  0  0  0  0  0  0  0
  160.6240  206.2790  155.2080 O   0  0  0  0  0  1  0  0  0  0  0  0
  161.0440  209.2060  152.9440 C   0  0  0  0  0  0  0  0  0  0  0  0
  161.2600  211.6100  152.9870 O   0  0  0  0  0  1  0  0  0  0  0  0
  160.6020  204.7660  151.3680 C   0  0  0  0  0  2  0  0  0  0  0  0
  162.4860  205.1970  152.7900 O   0  0  0  0  0  1  0  0  0  0  0  0
  161.0390  210.4750  153.7670 C   0  0  1  0  0  3  0  0  0  0  0  0
  161.5530  208.3560  148.7700 C   0  0  1  0  0  3  0  0  0  0  0  0
  161.1510  205.5390  152.5620 C   0  0  1  0  0  3  0  0  0  0  0  0
  161.2540  209.1110  151.6100 N   0  0  0  0  0  0  0  0  0  0  0  0
  159.4430  208.3240  155.4780 C   0  0  0  0  0  2  0  0  0  0  0  0
  160.8710  205.9210  149.5000 C   0  0  2  0  0  3  0  0  0  0  0  0
  159.7170  210.6350  154.5040 C   0  0  0  0  0  2  0  0  0  0  0  0
  161.2930  209.8020  149.2490 C   0  0  1  0  0  3  0  0  0  0  0  0
  161.6930  210.1580  150.6940 C   0  0  2  0  0  3  0  0  0  0  0  0
  161.4460  204.9020  150.2610 O   0  0  0  0  0  0  0  0  0  0  0  0
  160.6830  206.7600  147.2640 C   0  0  0  0  0  2  0  0  0  0  0  0
  160.7910  205.5390  148.0770 N   0  0  1  0  0  0  0  0  0  0  0  0
  161.8900  204.6480  147.6490 C   0  0  1  0  0  3  0  0  0  0  0  0
  161.5910  203.2170  148.0630 C   0  0  0  0  0  1  0  0  0  0  0  0
  160.8870  205.0770  145.5080 O   0  0  0  0  0  0  0  0  0  0  0  0
  162.0820  204.6840  146.1290 C   0  0  0  0  0  2  0  0  0  0  0  0
  160.7540  206.4550  145.7590 C   0  0  0  0  0  2  0  0  0  0  0  0
  161.6490  210.8490  148.1830 C   0  0  2  0  0  3  0  0  0  0  0  0
  163.1070  211.2790  148.2700 C   0  0  0  0  0  2  0  0  0  0  0  0
  163.2530  212.7370  147.8770 C   0  0  0  0  0  1  0  0  0  0  0  0
  160.7270  212.0610  148.2600 C   0  0  0  0  0  2  0  0  0  0  0  0
  159.9850  212.1790  147.0840 O   0  0  0  0  0  0  0  0  0  0  0  0
  157.6440  212.5820  146.9840 C   0  0  0  0  0  1  0  0  0  0  0  0
  159.0020  213.1210  147.3860 C   0  0  0  0  0  2  0  0  0  0  0  0
  3 16  1  0  0  0  0
  3  7  1  0  0  0  0
  5  9  1  6  0  0  0
  5 18  1  0  0  0  0
  6 17  1  0  0  0  0
  6  3  2  0  0  0  0
  7  5  1  0  0  0  0
  8  4  1  1  0  0  0
  8  6  1  0  0  0  0
 10  7  2  0  0  0  0
 10 14  1  0  0  0  0
 12 16  1  0  0  0  0
 14 11  1  6  0  0  0
 14 20  1  0  0  0  0
 15 21  1  0  0  0  0
 15  4  1  1  0  0  0
 15  8  1  0  0  0  0
 16 13  1  6  0  0  0
 17 10  1  0  0  0  0
 18  2  1  0  0  0  0
 19  8  1  0  0  0  0
 19 23  1  1  0  0  0
 20  2  1  0  0  0  0
 21 31  1  6  0  0  0
 21 22  1  0  0  0  0
 22  1  1  6  0  0  0
 22 17  1  0  0  0  0
 23 12  1  0  0  0  0
 25 24  1  6  0  0  0
 25 19  1  0  0  0  0
 26 27  1  6  0  0  0
 26 25  1  0  0  0  0
 28 30  1  0  0  0  0
 28 29  1  0  0  0  0
 29 26  1  0  0  0  0
 30 24  1  0  0  0  0
 31 34  1  1  0  0  0
 31 32  1  0  0  0  0
 33 32  1  0  0  0  0
 35 37  1  0  0  0  0
 35 34  1  0  0  0  0
 36 37  1  0  0  0  0
M  END
>  <MODEL>
2

>  <REMARK>
 VINA RESULT:      -4.0      2.113      7.366
  Name = 
  6 active torsions:
  status: ('A' for Active; 'I' for Inactive)
    1  A    between atoms: O_5  and  C_17
    2  A    between atoms: O_5  and  C_23
    3  A    between atoms: N_6  and  C_31
    4  A    between atoms: C_11  and  C_26
    5  A    between atoms: C_17  and  C_26
    6  A    between atoms: C_26  and  C_33
                            x       y       z     vdW  Elec       q    Type
                         _______ _______ _______ _____ _____    ______ ____

>  <TORSDO>
F 6

$$$$
=
 OpenBabel11062409023D

 37 42  0  0  1  0  0  0  0  0999 V2000
  162.8210  210.4900  151.2950 O   0  0  0  0  0  1  0  0  0  0  0  0
  158.4070  212.4490  154.9210 C   0  0  0  0  0  2  0  0  0  0  0  0
  160.4680  208.4780  154.1520 C   0  0  0  0  0  0  0  0  0  0  0  0
  162.9130  207.4910  151.6450 C   0  0  0  0  0  2  0  0  0  0  0  0
  159.5920  210.3820  155.7210 C   0  0  2  0  0  3  0  0  0  0  0  0
  160.9220  208.4730  152.8360 C   0  0  0  0  0  0  0  0  0  0  0  0
  160.1020  209.7950  154.4260 C   0  0  0  0  0  0  0  0  0  0  0  0
  161.4670  207.2990  152.0620 C   0  0  1  0  0  0  0  0  0  0  0  0
  159.4690  209.4130  156.7170 O   0  0  0  0  0  1  0  0  0  0  0  0
  160.3680  210.5320  153.2810 C   0  0  0  0  0  0  0  0  0  0  0  0
  160.5540  212.5260  151.9330 O   0  0  0  0  0  1  0  0  0  0  0  0
  160.3180  205.9830  154.5830 C   0  0  0  0  0  2  0  0  0  0  0  0
  161.8320  207.4070  155.7830 O   0  0  0  0  0  1  0  0  0  0  0  0
  160.1710  212.0290  153.1780 C   0  0  1  0  0  3  0  0  0  0  0  0
  161.8060  207.5190  150.5870 C   0  0  1  0  0  3  0  0  0  0  0  0
  160.5810  207.3680  155.1640 C   0  0  1  0  0  3  0  0  0  0  0  0
  160.8730  209.7180  152.3240 N   0  0  0  0  0  0  0  0  0  0  0  0
  158.2440  211.0550  155.5120 C   0  0  0  0  0  2  0  0  0  0  0  0
  160.9920  205.8790  152.4780 C   0  0  2  0  0  3  0  0  0  0  0  0
  158.7160  212.3990  153.4300 C   0  0  0  0  0  2  0  0  0  0  0  0
  161.4360  208.9250  150.0640 C   0  0  1  0  0  3  0  0  0  0  0  0
  161.5000  210.0970  151.0620 C   0  0  2  0  0  3  0  0  0  0  0  0
  161.3880  205.5730  153.7810 O   0  0  0  0  0  0  0  0  0  0  0  0
  161.6160  203.5690  152.3710 C   0  0  0  0  0  2  0  0  0  0  0  0
  161.2360  204.7420  151.5690 N   0  0  1  0  0  0  0  0  0  0  0  0
  160.1110  204.4800  150.6470 C   0  0  1  0  0  3  0  0  0  0  0  0
  160.1650  205.4450  149.4750 C   0  0  0  0  0  1  0  0  0  0  0  0
  161.4690  202.5610  150.1520 O   0  0  0  0  0  0  0  0  0  0  0  0
  160.1550  203.0490  150.1010 C   0  0  0  0  0  2  0  0  0  0  0  0
  161.7340  202.3000  151.5090 C   0  0  0  0  0  2  0  0  0  0  0  0
  162.0160  209.2060  148.6700 C   0  0  2  0  0  3  0  0  0  0  0  0
  161.6500  210.5970  148.1690 C   0  0  0  0  0  2  0  0  0  0  0  0
  162.8740  211.4930  148.1530 C   0  0  0  0  0  1  0  0  0  0  0  0
  161.5880  208.1450  147.6620 C   0  0  0  0  0  2  0  0  0  0  0  0
  162.5490  207.1360  147.5860 O   0  0  0  0  0  0  0  0  0  0  0  0
  162.9990  205.0770  146.4850 C   0  0  0  0  0  1  0  0  0  0  0  0
  162.0220  206.2210  146.6760 C   0  0  0  0  0  2  0  0  0  0  0  0
  2 18  1  0  0  0  0
  3  7  1  0  0  0  0
  3 16  1  0  0  0  0
  5  9  1  1  0  0  0
  6  3  2  0  0  0  0
  7  5  1  0  0  0  0
  8  4  1  1  0  0  0
  8 19  1  0  0  0  0
  8  6  1  0  0  0  0
 10  7  2  0  0  0  0
 12 16  1  0  0  0  0
 14 11  1  6  0  0  0
 14 10  1  0  0  0  0
 14 20  1  0  0  0  0
 15  4  1  1  0  0  0
 15  8  1  0  0  0  0
 16 13  1  6  0  0  0
 17  6  1  0  0  0  0
 17 10  1  0  0  0  0
 18  5  1  0  0  0  0
 19 23  1  1  0  0  0
 20  2  1  0  0  0  0
 21 31  1  6  0  0  0
 21 15  1  0  0  0  0
 21 22  1  0  0  0  0
 22  1  1  1  0  0  0
 22 17  1  0  0  0  0
 23 12  1  0  0  0  0
 25 24  1  1  0  0  0
 25 19  1  0  0  0  0
 26 27  1  6  0  0  0
 26 25  1  0  0  0  0
 28 30  1  0  0  0  0
 29 28  1  0  0  0  0
 29 26  1  0  0  0  0
 30 24  1  0  0  0  0
 31 34  1  6  0  0  0
 32 31  1  0  0  0  0
 33 32  1  0  0  0  0
 35 34  1  0  0  0  0
 36 37  1  0  0  0  0
 37 35  1  0  0  0  0
M  END
>  <MODEL>
3

>  <REMARK>
 VINA RESULT:      -4.0      1.773      7.957
  Name = 
  6 active torsions:
  status: ('A' for Active; 'I' for Inactive)
    1  A    between atoms: O_5  and  C_17
    2  A    between atoms: O_5  and  C_23
    3  A    between atoms: N_6  and  C_31
    4  A    between atoms: C_11  and  C_26
    5  A    between atoms: C_17  and  C_26
    6  A    between atoms: C_26  and  C_33
                            x       y       z     vdW  Elec       q    Type
                         _______ _______ _______ _____ _____    ______ ____

>  <TORSDO>
F 6

$$$$
=
 OpenBabel11062409023D

 37 42  0  0  1  0  0  0  0  0999 V2000
  162.8360  205.2060  152.5740 O   0  0  0  0  0  1  0  0  0  0  0  0
  159.9040  201.0710  149.2920 C   0  0  0  0  0  2  0  0  0  0  0  0
  161.4550  205.2800  148.5950 C   0  0  0  0  0  0  0  0  0  0  0  0
  162.9230  207.7040  150.8770 C   0  0  0  0  0  2  0  0  0  0  0  0
  161.2050  202.7550  147.9530 C   0  0  2  0  0  3  0  0  0  0  0  0
  161.4610  205.9480  149.8160 C   0  0  0  0  0  0  0  0  0  0  0  0
  161.2470  203.9340  148.8950 C   0  0  0  0  0  0  0  0  0  0  0  0
  161.6820  207.4210  150.0510 C   0  0  1  0  0  0  0  0  0  0  0  0
  161.3720  203.1440  146.6240 O   0  0  0  0  0  1  0  0  0  0  0  0
  161.1580  203.8410  150.2760 C   0  0  0  0  0  0  0  0  0  0  0  0
  160.9750  202.7170  152.4050 O   0  0  0  0  0  1  0  0  0  0  0  0
  161.3580  207.2540  147.0050 C   0  0  0  0  0  2  0  0  0  0  0  0
  163.2300  205.7550  147.0810 O   0  0  0  0  0  1  0  0  0  0  0  0
  160.9950  202.5340  151.0220 C   0  0  1  0  0  3  0  0  0  0  0  0
  161.5360  207.9410  151.4820 C   0  0  1  0  0  3  0  0  0  0  0  0
  161.8460  205.8300  147.2480 C   0  0  1  0  0  3  0  0  0  0  0  0
  161.2960  205.0700  150.8250 N   0  0  0  0  0  0  0  0  0  0  0  0
  159.8880  202.0050  148.0900 C   0  0  0  0  0  2  0  0  0  0  0  0
  161.3140  208.3970  148.8990 C   0  0  2  0  0  3  0  0  0  0  0  0
  159.7130  201.8290  150.6000 C   0  0  0  0  0  2  0  0  0  0  0  0
  161.0710  206.8670  152.4910 C   0  0  1  0  0  3  0  0  0  0  0  0
  161.4970  205.4090  152.2300 C   0  0  2  0  0  3  0  0  0  0  0  0
  162.0960  208.1660  147.7680 O   0  0  0  0  0  0  0  0  0  0  0  0
  161.7650  210.1010  150.5210 C   0  0  0  0  0  2  0  0  0  0  0  0
  161.2090  209.8410  149.1850 N   0  0  1  0  0  0  0  0  0  0  0  0
  161.8030  210.6900  148.1310 C   0  0  1  0  0  3  0  0  0  0  0  0
  160.8320  210.8350  146.9710 C   0  0  0  0  0  1  0  0  0  0  0  0
  161.3370  212.3840  149.7690 O   0  0  0  0  0  0  0  0  0  0  0  0
  162.1420  212.0870  148.6590 C   0  0  0  0  0  2  0  0  0  0  0  0
  161.8370  211.6060  150.8300 C   0  0  0  0  0  2  0  0  0  0  0  0
  161.1810  207.3410  153.9480 C   0  0  2  0  0  3  0  0  0  0  0  0
  160.3620  206.4730  154.8940 C   0  0  0  0  0  2  0  0  0  0  0  0
  159.7080  207.3260  155.9640 C   0  0  0  0  0  1  0  0  0  0  0  0
  160.7850  208.8070  154.0900 C   0  0  0  0  0  2  0  0  0  0  0  0
  161.7730  209.5090  154.7820 O   0  0  0  0  0  0  0  0  0  0  0  0
  160.0300  210.9420  154.0330 C   0  0  0  0  0  1  0  0  0  0  0  0
  161.2610  210.7990  154.9070 C   0  0  0  0  0  2  0  0  0  0  0  0
  2 20  1  0  0  0  0
  3  7  1  0  0  0  0
  3  6  2  0  0  0  0
  5  9  1  6  0  0  0
  5 18  1  0  0  0  0
  5  7  1  0  0  0  0
  6  8  1  0  0  0  0
  6 17  1  0  0  0  0
  7 10  2  0  0  0  0
  8  4  1  6  0  0  0
  8 15  1  0  0  0  0
 10 17  1  0  0  0  0
 10 14  1  0  0  0  0
 12 16  1  0  0  0  0
 12 23  1  0  0  0  0
 14 11  1  1  0  0  0
 15  4  1  1  0  0  0
 15 21  1  0  0  0  0
 16 13  1  1  0  0  0
 16  3  1  0  0  0  0
 17 22  1  0  0  0  0
 18  2  1  0  0  0  0
 19 23  1  6  0  0  0
 19 25  1  0  0  0  0
 19  8  1  0  0  0  0
 20 14  1  0  0  0  0
 21 31  1  1  0  0  0
 22 21  1  0  0  0  0
 22  1  1  6  0  0  0
 24 30  1  0  0  0  0
 25 24  1  1  0  0  0
 26 27  1  6  0  0  0
 26 29  1  0  0  0  0
 26 25  1  0  0  0  0
 28 30  1  0  0  0  0
 29 28  1  0  0  0  0
 31 34  1  6  0  0  0
 31 32  1  0  0  0  0
 32 33  1  0  0  0  0
 34 35  1  0  0  0  0
 35 37  1  0  0  0  0
 36 37  1  0  0  0  0
M  END
>  <MODEL>
4

>  <REMARK>
 VINA RESULT:      -2.7      1.837      2.982
  Name = 
  6 active torsions:
  status: ('A' for Active; 'I' for Inactive)
    1  A    between atoms: O_5  and  C_17
    2  A    between atoms: O_5  and  C_23
    3  A    between atoms: N_6  and  C_31
    4  A    between atoms: C_11  and  C_26
    5  A    between atoms: C_17  and  C_26
    6  A    between atoms: C_26  and  C_33
                            x       y       z     vdW  Elec       q    Type
                         _______ _______ _______ _____ _____    ______ ____

>  <TORSDO>
F 6

$$$$
=
 OpenBabel11062409023D

 37 42  0  0  1  0  0  0  0  0999 V2000
  162.1910  209.8990  154.2520 O   0  0  0  0  0  1  0  0  0  0  0  0
  162.2290  209.6260  148.2200 C   0  0  0  0  0  2  0  0  0  0  0  0
  160.0880  212.1170  151.3530 C   0  0  0  0  0  0  0  0  0  0  0  0
  160.0050  211.8530  154.9810 C   0  0  0  0  0  2  0  0  0  0  0  0
  161.5100  211.8380  149.1730 C   0  0  2  0  0  3  0  0  0  0  0  0
  159.9760  211.3540  152.5120 C   0  0  0  0  0  0  0  0  0  0  0  0
  160.9830  211.4350  150.5290 C   0  0  0  0  0  0  0  0  0  0  0  0
  159.1550  211.6680  153.7380 C   0  0  1  0  0  0  0  0  0  0  0  0
  160.9620  213.0460  148.7400 O   0  0  0  0  0  1  0  0  0  0  0  0
  161.3890  210.3070  151.2270 C   0  0  0  0  0  0  0  0  0  0  0  0
  162.6730  208.3020  151.6240 O   0  0  0  0  0  1  0  0  0  0  0  0
  158.1810  213.7520  151.7090 C   0  0  0  0  0  2  0  0  0  0  0  0
  160.4740  214.4520  151.6160 O   0  0  0  0  0  1  0  0  0  0  0  0
  162.4140  209.3220  150.7090 C   0  0  1  0  0  3  0  0  0  0  0  0
  159.1100  210.6180  154.8480 C   0  0  1  0  0  3  0  0  0  0  0  0
  159.5680  213.5120  151.1220 C   0  0  1  0  0  3  0  0  0  0  0  0
  160.7760  210.2720  152.4330 N   0  0  0  0  0  0  0  0  0  0  0  0
  161.2160  210.7600  148.1400 C   0  0  0  0  0  2  0  0  0  0  0  0
  157.8980  212.5620  153.5530 C   0  0  2  0  0  3  0  0  0  0  0  0
  161.9520  208.7010  149.3990 C   0  0  0  0  0  2  0  0  0  0  0  0
  159.8520  209.3080  154.4990 C   0  0  1  0  0  3  0  0  0  0  0  0
  161.0760  209.4060  153.5680 C   0  0  2  0  0  3  0  0  0  0  0  0
  158.2430  213.8370  153.1030 O   0  0  0  0  0  0  0  0  0  0  0  0
  157.6050  212.7270  155.9240 C   0  0  0  0  0  2  0  0  0  0  0  0
  156.9000  212.6350  154.6370 N   0  0  1  0  0  0  0  0  0  0  0  0
  155.9010  213.7060  154.4410 C   0  0  1  0  0  3  0  0  0  0  0  0
  154.8290  213.2450  153.4670 C   0  0  0  0  0  1  0  0  0  0  0  0
  155.2970  213.0210  156.6630 O   0  0  0  0  0  0  0  0  0  0  0  0
  155.2250  214.0930  155.7600 C   0  0  0  0  0  2  0  0  0  0  0  0
  156.6350  212.9660  157.0940 C   0  0  0  0  0  2  0  0  0  0  0  0
  160.0120  208.3800  155.7130 C   0  0  2  0  0  3  0  0  0  0  0  0
  160.4220  209.1440  156.9650 C   0  0  0  0  0  2  0  0  0  0  0  0
  161.8950  208.9300  157.2570 C   0  0  0  0  0  1  0  0  0  0  0  0
  160.9970  207.2520  155.4280 C   0  0  0  0  0  2  0  0  0  0  0  0
  160.4430  206.3450  154.5240 O   0  0  0  0  0  0  0  0  0  0  0  0
  161.0620  204.9170  152.7260 C   0  0  0  0  0  1  0  0  0  0  0  0
  161.4900  206.0350  153.6560 C   0  0  0  0  0  2  0  0  0  0  0  0
  2 20  1  0  0  0  0
  3  6  2  0  0  0  0
  5  9  1  6  0  0  0
  5  7  1  0  0  0  0
  6  8  1  0  0  0  0
  7 10  2  0  0  0  0
  7  3  1  0  0  0  0
  8 15  1  0  0  0  0
  8  4  1  1  0  0  0
 10 17  1  0  0  0  0
 12 23  1  0  0  0  0
 14 10  1  0  0  0  0
 14 11  1  1  0  0  0
 15  4  1  1  0  0  0
 16  3  1  0  0  0  0
 16 13  1  1  0  0  0
 16 12  1  0  0  0  0
 17  6  1  0  0  0  0
 17 22  1  0  0  0  0
 18  2  1  0  0  0  0
 18  5  1  0  0  0  0
 19 23  1  1  0  0  0
 19  8  1  0  0  0  0
 19 25  1  0  0  0  0
 20 14  1  0  0  0  0
 21 15  1  0  0  0  0
 21 31  1  1  0  0  0
 22  1  1  1  0  0  0
 22 21  1  0  0  0  0
 24 30  1  0  0  0  0
 25 24  1  1  0  0  0
 26 27  1  6  0  0  0
 26 25  1  0  0  0  0
 26 29  1  0  0  0  0
 28 30  1  0  0  0  0
 29 28  1  0  0  0  0
 31 34  1  6  0  0  0
 31 32  1  0  0  0  0
 32 33  1  0  0  0  0
 35 34  1  0  0  0  0
 36 37  1  0  0  0  0
 37 35  1  0  0  0  0
M  END
>  <MODEL>
5

>  <REMARK>
 VINA RESULT:      -2.6      2.468      4.968
  Name = 
  6 active torsions:
  status: ('A' for Active; 'I' for Inactive)
    1  A    between atoms: O_5  and  C_17
    2  A    between atoms: O_5  and  C_23
    3  A    between atoms: N_6  and  C_31
    4  A    between atoms: C_11  and  C_26
    5  A    between atoms: C_17  and  C_26
    6  A    between atoms: C_26  and  C_33
                            x       y       z     vdW  Elec       q    Type
                         _______ _______ _______ _____ _____    ______ ____

>  <TORSDO>
F 6

$$$$
=
 OpenBabel11062409023D

 37 42  0  0  1  0  0  0  0  0999 V2000
  163.0300  210.7340  152.1860 O   0  0  0  0  0  1  0  0  0  0  0  0
  159.6430  209.6400  157.0640 C   0  0  0  0  0  2  0  0  0  0  0  0
  161.0330  207.2510  153.4630 C   0  0  0  0  0  0  0  0  0  0  0  0
  162.8280  208.2600  150.4630 C   0  0  0  0  0  2  0  0  0  0  0  0
  160.7020  207.6060  156.0350 C   0  0  2  0  0  3  0  0  0  0  0  0
  161.2280  208.1350  152.4050 C   0  0  0  0  0  0  0  0  0  0  0  0
  160.8850  208.0420  154.6020 C   0  0  0  0  0  0  0  0  0  0  0  0
  161.4730  207.7880  150.9580 C   0  0  1  0  0  0  0  0  0  0  0  0
  160.6530  206.2170  156.1540 O   0  0  0  0  0  1  0  0  0  0  0  0
  161.0170  209.3620  154.1930 C   0  0  0  0  0  0  0  0  0  0  0  0
  161.1830  211.7530  154.4750 O   0  0  0  0  0  1  0  0  0  0  0  0
  160.6700  205.0920  152.1820 C   0  0  0  0  0  2  0  0  0  0  0  0
  162.5420  205.4190  153.6480 O   0  0  0  0  0  1  0  0  0  0  0  0
  160.9840  210.5430  155.1380 C   0  0  1  0  0  3  0  0  0  0  0  0
  161.5530  208.9410  149.9570 C   0  0  1  0  0  3  0  0  0  0  0  0
  161.2010  205.7540  153.4490 C   0  0  1  0  0  3  0  0  0  0  0  0
  161.2320  209.4040  152.8570 N   0  0  0  0  0  0  0  0  0  0  0  0
  159.4290  208.2000  156.6200 C   0  0  0  0  0  2  0  0  0  0  0  0
  160.9190  206.4330  150.4390 C   0  0  2  0  0  3  0  0  0  0  0  0
  159.6570  210.6010  155.8820 C   0  0  0  0  0  2  0  0  0  0  0  0
  161.2620  210.3270  150.5770 C   0  0  1  0  0  3  0  0  0  0  0  0
  161.6520  210.5460  152.0510 C   0  0  2  0  0  3  0  0  0  0  0  0
  161.5140  205.3550  151.0970 O   0  0  0  0  0  0  0  0  0  0  0  0
  161.2560  207.4200  148.2820 C   0  0  0  0  0  2  0  0  0  0  0  0
  160.8510  206.1920  148.9840 N   0  0  1  0  0  0  0  0  0  0  0  0
  161.6060  204.9970  148.5540 C   0  0  1  0  0  3  0  0  0  0  0  0
  160.7880  203.7440  148.8130 C   0  0  0  0  0  1  0  0  0  0  0  0
  161.0310  205.8860  146.3970 O   0  0  0  0  0  0  0  0  0  0  0  0
  161.9470  205.0560  147.0610 C   0  0  0  0  0  2  0  0  0  0  0  0
  161.3630  207.2020  146.7640 C   0  0  0  0  0  2  0  0  0  0  0  0
  161.5990  211.4820  149.6210 C   0  0  2  0  0  3  0  0  0  0  0  0
  160.4320  212.4470  149.4590 C   0  0  0  0  0  2  0  0  0  0  0  0
  160.7460  213.7720  150.1280 C   0  0  0  0  0  1  0  0  0  0  0  0
  162.0600  210.9660  148.2620 C   0  0  0  0  0  2  0  0  0  0  0  0
  162.9930  211.8410  147.7040 O   0  0  0  0  0  0  0  0  0  0  0  0
  162.5990  214.0400  146.8900 C   0  0  0  0  0  1  0  0  0  0  0  0
  162.2680  212.5660  146.7590 C   0  0  0  0  0  2  0  0  0  0  0  0
  3  7  1  0  0  0  0
  5  9  1  6  0  0  0
  5 18  1  0  0  0  0
  6 17  1  0  0  0  0
  6  3  2  0  0  0  0
  7  5  1  0  0  0  0
  8  4  1  1  0  0  0
  8  6  1  0  0  0  0
 10  7  2  0  0  0  0
 10 14  1  0  0  0  0
 12 16  1  0  0  0  0
 14 11  1  6  0  0  0
 14 20  1  0  0  0  0
 15  4  1  1  0  0  0
 15 21  1  0  0  0  0
 15  8  1  0  0  0  0
 16  3  1  0  0  0  0
 16 13  1  6  0  0  0
 17 10  1  0  0  0  0
 18  2  1  0  0  0  0
 19  8  1  0  0  0  0
 19 23  1  1  0  0  0
 20  2  1  0  0  0  0
 21 31  1  6  0  0  0
 21 22  1  0  0  0  0
 22  1  1  6  0  0  0
 22 17  1  0  0  0  0
 23 12  1  0  0  0  0
 25 24  1  6  0  0  0
 25 19  1  0  0  0  0
 26 27  1  6  0  0  0
 26 25  1  0  0  0  0
 28 30  1  0  0  0  0
 28 29  1  0  0  0  0
 29 26  1  0  0  0  0
 30 24  1  0  0  0  0
 31 34  1  6  0  0  0
 32 31  1  0  0  0  0
 32 33  1  0  0  0  0
 35 34  1  0  0  0  0
 37 36  1  0  0  0  0
 37 35  1  0  0  0  0
M  END
>  <MODEL>
6

>  <REMARK>
 VINA RESULT:      -1.5      1.834      7.137
  Name = 
  6 active torsions:
  status: ('A' for Active; 'I' for Inactive)
    1  A    between atoms: O_5  and  C_17
    2  A    between atoms: O_5  and  C_23
    3  A    between atoms: N_6  and  C_31
    4  A    between atoms: C_11  and  C_26
    5  A    between atoms: C_17  and  C_26
    6  A    between atoms: C_26  and  C_33
                            x       y       z     vdW  Elec       q    Type
                         _______ _______ _______ _____ _____    ______ ____

>  <TORSDO>
F 6

$$$$
=
 OpenBabel11062409023D

 37 42  0  0  1  0  0  0  0  0999 V2000
  163.3700  207.6960  148.5930 O   0  0  0  0  0  1  0  0  0  0  0  0
  160.5750  211.9060  151.8980 C   0  0  0  0  0  2  0  0  0  0  0  0
  161.2390  207.4270  152.2170 C   0  0  0  0  0  0  0  0  0  0  0  0
  162.7060  205.0490  149.8870 C   0  0  0  0  0  2  0  0  0  0  0  0
  161.2890  209.8620  153.1760 C   0  0  2  0  0  3  0  0  0  0  0  0
  161.3750  206.9160  150.9290 C   0  0  0  0  0  0  0  0  0  0  0  0
  161.3200  208.8130  152.0900 C   0  0  0  0  0  0  0  0  0  0  0  0
  161.3910  205.4650  150.5190 C   0  0  1  0  0  0  0  0  0  0  0  0
  161.1240  209.2970  154.4400 O   0  0  0  0  0  1  0  0  0  0  0  0
  161.5220  209.0810  150.7440 C   0  0  0  0  0  0  0  0  0  0  0  0
  161.9510  210.4580  148.8080 O   0  0  0  0  0  1  0  0  0  0  0  0
  160.5050  205.3370  153.4530 C   0  0  0  0  0  2  0  0  0  0  0  0
  162.5770  206.4500  153.9260 O   0  0  0  0  0  1  0  0  0  0  0  0
  161.7280  210.4720  150.1840 C   0  0  1  0  0  3  0  0  0  0  0  0
  161.4460  205.1520  149.0230 C   0  0  1  0  0  3  0  0  0  0  0  0
  161.2610  206.6600  153.5140 C   0  0  1  0  0  3  0  0  0  0  0  0
  161.5600  207.9200  150.0490 N   0  0  0  0  0  0  0  0  0  0  0  0
  160.1680  210.8600  152.9270 C   0  0  0  0  0  2  0  0  0  0  0  0
  160.6460  204.4510  151.4300 C   0  0  2  0  0  3  0  0  0  0  0  0
  160.5230  211.3550  150.4790 C   0  0  0  0  0  2  0  0  0  0  0  0
  161.3730  206.4050  148.1200 C   0  0  1  0  0  3  0  0  0  0  0  0
  161.9750  207.7140  148.6660 C   0  0  2  0  0  3  0  0  0  0  0  0
  161.2170  204.3960  152.7020 O   0  0  0  0  0  0  0  0  0  0  0  0
  159.5130  203.2110  149.7230 C   0  0  0  0  0  2  0  0  0  0  0  0
  160.3620  203.0960  150.9180 N   0  0  1  0  0  0  0  0  0  0  0  0
  161.5790  202.2890  150.6950 C   0  0  1  0  0  3  0  0  0  0  0  0
  162.0640  201.7040  152.0110 C   0  0  0  0  0  1  0  0  0  0  0  0
  159.9540  200.8090  149.7240 O   0  0  0  0  0  0  0  0  0  0  0  0
  161.3180  201.1370  149.7180 C   0  0  0  0  0  2  0  0  0  0  0  0
  159.3020  201.8500  149.0370 C   0  0  0  0  0  2  0  0  0  0  0  0
  161.6880  206.0900  146.6500 C   0  0  2  0  0  3  0  0  0  0  0  0
  160.4540  206.2030  145.7650 C   0  0  0  0  0  2  0  0  0  0  0  0
  160.8500  206.2010  144.3010 C   0  0  0  0  0  1  0  0  0  0  0  0
  162.3310  204.7150  146.4980 C   0  0  0  0  0  2  0  0  0  0  0  0
  161.6330  203.9580  145.5560 O   0  0  0  0  0  0  0  0  0  0  0  0
  160.4560  201.9050  145.3270 C   0  0  0  0  0  1  0  0  0  0  0  0
  161.2600  202.8040  146.2450 C   0  0  0  0  0  2  0  0  0  0  0  0
  2 18  1  0  0  0  0
  3 16  1  0  0  0  0
  5  9  1  1  0  0  0
  6  3  2  0  0  0  0
  7  3  1  0  0  0  0
  7  5  1  0  0  0  0
  8  4  1  1  0  0  0
  8  6  1  0  0  0  0
  8 19  1  0  0  0  0
 10  7  2  0  0  0  0
 12 16  1  0  0  0  0
 14 11  1  6  0  0  0
 14 20  1  0  0  0  0
 14 10  1  0  0  0  0
 15  4  1  1  0  0  0
 15  8  1  0  0  0  0
 16 13  1  6  0  0  0
 17 10  1  0  0  0  0
 17  6  1  0  0  0  0
 18  5  1  0  0  0  0
 19 23  1  1  0  0  0
 20  2  1  0  0  0  0
 21 31  1  6  0  0  0
 21 22  1  0  0  0  0
 21 15  1  0  0  0  0
 22  1  1  1  0  0  0
 22 17  1  0  0  0  0
 23 12  1  0  0  0  0
 25 24  1  6  0  0  0
 25 19  1  0  0  0  0
 26 25  1  0  0  0  0
 26 27  1  1  0  0  0
 29 28  1  0  0  0  0
 29 26  1  0  0  0  0
 30 24  1  0  0  0  0
 30 28  1  0  0  0  0
 31 32  1  6  0  0  0
 33 32  1  0  0  0  0
 34 31  1  0  0  0  0
 35 37  1  0  0  0  0
 35 34  1  0  0  0  0
 36 37  1  0  0  0  0
M  END
>  <MODEL>
7

>  <REMARK>
 VINA RESULT:      -1.4      2.227      8.594
  Name = 
  6 active torsions:
  status: ('A' for Active; 'I' for Inactive)
    1  A    between atoms: O_5  and  C_17
    2  A    between atoms: O_5  and  C_23
    3  A    between atoms: N_6  and  C_31
    4  A    between atoms: C_11  and  C_26
    5  A    between atoms: C_17  and  C_26
    6  A    between atoms: C_26  and  C_33
                            x       y       z     vdW  Elec       q    Type
                         _______ _______ _______ _____ _____    ______ ____

>  <TORSDO>
F 6

$$$$
