=
 OpenBabel11052421533D

 30 30  0  0  1  0  0  0  0  0999 V2000
  161.2650  208.3690  151.3570 C   0  0  0  0  0  2  0  0  0  0  0  0
  161.5560  209.4110  152.4250 C   0  0  0  0  0  2  0  0  0  0  0  0
  159.7640  210.9840  152.5840 O   0  0  0  0  0  1  0  0  0  0  0  0
  160.2690  209.8010  153.1300 C   0  0  2  0  0  3  0  0  0  0  0  0
  160.4880  209.9330  154.6480 C   0  0  2  0  0  3  0  0  0  0  0  0
  162.0020  209.0930  156.4730 C   0  0  0  0  0  1  0  0  0  0  0  0
  161.2410  208.7210  155.2120 C   0  0  0  0  0  3  0  0  0  0  0  0
  160.2760  207.5970  155.5610 C   0  0  0  0  0  1  0  0  0  0  0  0
  159.1620  210.1450  155.3840 C   0  0  0  0  0  2  0  0  0  0  0  0
  160.1440  212.0510  156.4330 O   0  0  0  0  0  1  0  0  0  0  0  0
  158.9900  211.6030  155.7880 C   0  0  2  0  0  3  0  0  0  0  0  0
  156.2250  212.0010  154.8230 O   0  0  0  0  0  0  0  0  0  0  0  0
  157.8320  211.7710  156.6640 N   0  0  0  0  0  2  0  0  0  0  0  0
  156.4960  211.9680  156.1870 C   0  0  0  0  0  0  0  0  0  0  0  0
  155.5550  212.1140  157.0120 O   0  0  0  0  0  1  0  0  0  0  0  0
  162.4490  207.4400  151.1890 C   0  0  0  0  0  2  0  0  0  0  0  0
  162.4250  206.3190  152.2150 C   0  0  0  0  0  2  0  0  0  0  0  0
  160.9930  205.8600  152.4330 C   0  0  0  0  0  2  0  0  0  0  0  0
  160.9610  204.4160  152.6170 N   0  0  0  0  0  2  0  0  0  0  0  0
  161.4310  203.8100  151.3800 C   0  0  1  0  0  3  0  0  0  0  0  0
  161.4290  202.3020  151.5290 C   0  0  0  0  0  1  0  0  0  0  0  0
  160.5090  204.1960  150.2300 C   0  0  0  0  0  2  0  0  0  0  0  0
  162.3500  205.4080  146.5430 C   0  0  1  0  0  3  0  0  0  0  0  0
  162.3930  207.4430  147.7780 F   0  0  0  0  0  0  0  0  0  0  0  0
  162.5710  205.8140  145.2250 O   0  0  0  0  0  1  0  0  0  0  0  0
  161.3090  204.6640  149.0250 C   0  0  2  0  0  3  0  0  0  0  0  0
  161.5350  206.4780  147.2850 C   0  0  2  0  0  3  0  0  0  0  0  0
  161.6410  204.0570  146.5500 C   0  0  0  0  0  2  0  0  0  0  0  0
  160.6760  205.9150  148.4240 C   0  0  0  0  0  2  0  0  0  0  0  0
  161.4220  203.5420  147.9790 C   0  0  0  0  0  2  0  0  0  0  0  0
  1  2  1  0  0  0  0
  2  4  1  0  0  0  0
  4  3  1  6  0  0  0
  4  5  1  0  0  0  0
  5  7  1  0  0  0  0
  5  9  1  1  0  0  0
  7  8  1  0  0  0  0
  7  6  1  0  0  0  0
  9 11  1  0  0  0  0
 11 10  1  1  0  0  0
 11 13  1  0  0  0  0
 12 14  2  0  0  0  0
 14 13  1  0  0  0  0
 14 15  1  0  0  0  0
 16  1  1  0  0  0  0
 16 17  1  0  0  0  0
 17 18  1  0  0  0  0
 18 19  1  0  0  0  0
 20 21  1  1  0  0  0
 20 19  1  0  0  0  0
 22 20  1  0  0  0  0
 23 25  1  6  0  0  0
 23 28  1  0  0  0  0
 23 27  1  0  0  0  0
 26 22  1  1  0  0  0
 27 24  1  1  0  0  0
 27 29  1  0  0  0  0
 28 30  1  0  0  0  0
 29 26  1  0  0  0  0
 30 26  1  0  0  0  0
M  END
>  <MODEL>
1

>  <REMARK>
 VINA RESULT:      -6.8      0.000      0.000
  Name = 
  14 active torsions:
  status: ('A' for Active; 'I' for Inactive)
    1  A    between atoms: C_3  and  C_11
    2  A    between atoms: C_3  and  C_19
    3  A    between atoms: C_4  and  C_13
    4  A    between atoms: C_7  and  C_16
    5  A    between atoms: C_7  and  C_30
    6  A    between atoms: C_8  and  C_12
    7  A    between atoms: C_8  and  C_13
    8  A    between atoms: N_9  and  C_12
    9  A    between atoms: C_10  and  C_15
   10  A    between atoms: C_10  and  N_25
   11  A    between atoms: C_11  and  N_25
   12  A    between atoms: C_13  and  C_30
   13  A    between atoms: C_15  and  C_26
   14  A    between atoms: C_16  and  C_26
                            x       y       z     vdW  Elec       q    Type
                         _______ _______ _______ _____ _____    ______ ____

>  <TORSDO>
F 14

$$$$
=
 OpenBabel11052421533D

 30 30  0  0  1  0  0  0  0  0999 V2000
  161.9350  209.5160  150.4570 C   0  0  0  0  0  2  0  0  0  0  0  0
  160.9640  208.5630  151.1350 C   0  0  0  0  0  2  0  0  0  0  0  0
  161.9430  209.7520  152.9630 O   0  0  0  0  0  1  0  0  0  0  0  0
  161.0280  208.7460  152.6410 C   0  0  2  0  0  3  0  0  0  0  0  0
  161.3820  207.4230  153.3440 C   0  0  2  0  0  3  0  0  0  0  0  0
  162.8690  206.0850  151.8190 C   0  0  0  0  0  1  0  0  0  0  0  0
  161.4550  206.2610  152.3450 C   0  0  0  0  0  3  0  0  0  0  0  0
  161.0330  204.9540  152.9990 C   0  0  0  0  0  1  0  0  0  0  0  0
  160.3950  207.1130  154.4730 C   0  0  0  0  0  2  0  0  0  0  0  0
  160.3510  206.8350  156.8440 O   0  0  0  0  0  1  0  0  0  0  0  0
  160.9400  207.5760  155.8170 C   0  0  2  0  0  3  0  0  0  0  0  0
  162.7730  209.3950  157.2540 O   0  0  0  0  0  1  0  0  0  0  0  0
  160.6870  209.0010  156.0220 N   0  0  0  0  0  2  0  0  0  0  0  0
  161.5790  209.8740  156.7250 C   0  0  0  0  0  0  0  0  0  0  0  0
  161.2800  211.0890  156.8650 O   0  0  0  0  0  0  0  0  0  0  0  0
  162.0310  209.2060  148.9770 C   0  0  0  0  0  2  0  0  0  0  0  0
  161.4540  207.8360  148.6600 C   0  0  0  0  0  2  0  0  0  0  0  0
  162.5520  206.9330  148.1250 C   0  0  0  0  0  2  0  0  0  0  0  0
  162.3070  206.6370  146.7200 N   0  0  0  0  0  2  0  0  0  0  0  0
  161.2230  205.6680  146.6630 C   0  0  1  0  0  3  0  0  0  0  0  0
  160.2290  206.0910  145.6010 C   0  0  0  0  0  1  0  0  0  0  0  0
  161.7750  204.2920  146.3060 C   0  0  0  0  0  2  0  0  0  0  0  0
  161.0770  201.7400  149.6900 C   0  0  1  0  0  3  0  0  0  0  0  0
  161.8700  200.1760  148.0780 F   0  0  0  0  0  0  0  0  0  0  0  0
  160.4760  200.9390  150.6630 O   0  0  0  0  0  1  0  0  0  0  0  0
  161.7060  203.3520  147.4980 C   0  0  2  0  0  3  0  0  0  0  0  0
  160.8760  201.1090  148.3030 C   0  0  2  0  0  3  0  0  0  0  0  0
  160.4960  203.1490  149.7550 C   0  0  0  0  0  2  0  0  0  0  0  0
  160.8560  202.1320  147.1600 C   0  0  0  0  0  2  0  0  0  0  0  0
  161.1630  204.0840  148.7360 C   0  0  0  0  0  2  0  0  0  0  0  0
  1  2  1  0  0  0  0
  2  4  1  0  0  0  0
  4  3  1  6  0  0  0
  4  5  1  0  0  0  0
  5  9  1  1  0  0  0
  6  7  1  0  0  0  0
  7  8  1  0  0  0  0
  7  5  1  0  0  0  0
  9 11  1  0  0  0  0
 11 13  1  0  0  0  0
 11 10  1  1  0  0  0
 13 14  1  0  0  0  0
 14 15  2  0  0  0  0
 14 12  1  0  0  0  0
 16  1  1  0  0  0  0
 17 16  1  0  0  0  0
 18 17  1  0  0  0  0
 19 18  1  0  0  0  0
 20 21  1  6  0  0  0
 20 19  1  0  0  0  0
 22 20  1  0  0  0  0
 23 28  1  0  0  0  0
 23 25  1  1  0  0  0
 26 22  1  6  0  0  0
 26 30  1  0  0  0  0
 27 24  1  6  0  0  0
 27 23  1  0  0  0  0
 29 26  1  0  0  0  0
 29 27  1  0  0  0  0
 30 28  1  0  0  0  0
M  END
>  <MODEL>
2

>  <REMARK>
 VINA RESULT:      -6.7      3.228      4.685
  Name = 
  14 active torsions:
  status: ('A' for Active; 'I' for Inactive)
    1  A    between atoms: C_3  and  C_11
    2  A    between atoms: C_3  and  C_19
    3  A    between atoms: C_4  and  C_13
    4  A    between atoms: C_7  and  C_16
    5  A    between atoms: C_7  and  C_30
    6  A    between atoms: C_8  and  C_12
    7  A    between atoms: C_8  and  C_13
    8  A    between atoms: N_9  and  C_12
    9  A    between atoms: C_10  and  C_15
   10  A    between atoms: C_10  and  N_25
   11  A    between atoms: C_11  and  N_25
   12  A    between atoms: C_13  and  C_30
   13  A    between atoms: C_15  and  C_26
   14  A    between atoms: C_16  and  C_26
                            x       y       z     vdW  Elec       q    Type
                         _______ _______ _______ _____ _____    ______ ____

>  <TORSDO>
F 14

$$$$
=
 OpenBabel11052421533D

 30 30  0  0  1  0  0  0  0  0999 V2000
  161.9080  208.2320  151.3130 C   0  0  0  0  0  2  0  0  0  0  0  0
  161.2930  207.8030  149.9900 C   0  0  0  0  0  2  0  0  0  0  0  0
  162.6850  208.3500  148.1250 O   0  0  0  0  0  1  0  0  0  0  0  0
  162.3830  207.3390  149.0410 C   0  0  2  0  0  3  0  0  0  0  0  0
  161.9750  206.0390  148.3240 C   0  0  2  0  0  3  0  0  0  0  0  0
  162.7970  205.1000  146.1390 C   0  0  0  0  0  1  0  0  0  0  0  0
  161.9980  206.2110  146.7990 C   0  0  0  0  0  3  0  0  0  0  0  0
  160.5880  206.1790  146.2270 C   0  0  0  0  0  1  0  0  0  0  0  0
  160.6040  205.5500  148.7980 C   0  0  0  0  0  2  0  0  0  0  0  0
  161.5990  204.2950  150.5680 O   0  0  0  0  0  1  0  0  0  0  0  0
  160.7170  204.1980  149.4900 C   0  0  2  0  0  3  0  0  0  0  0  0
  159.6880  201.4280  149.4350 O   0  0  0  0  0  1  0  0  0  0  0  0
  161.1800  203.1700  148.5590 N   0  0  0  0  0  2  0  0  0  0  0  0
  160.6780  201.8280  148.5440 C   0  0  0  0  0  0  0  0  0  0  0  0
  161.1390  201.0010  147.7130 O   0  0  0  0  0  0  0  0  0  0  0  0
  160.9110  208.0580  152.4390 C   0  0  0  0  0  2  0  0  0  0  0  0
  161.0130  206.6750  153.0610 C   0  0  0  0  0  2  0  0  0  0  0  0
  160.9670  206.7910  154.5750 C   0  0  0  0  0  2  0  0  0  0  0  0
  161.0850  208.1890  154.9670 N   0  0  0  0  0  2  0  0  0  0  0  0
  160.0060  208.4700  155.9030 C   0  0  1  0  0  3  0  0  0  0  0  0
  160.3600  207.8980  157.2600 C   0  0  0  0  0  1  0  0  0  0  0  0
  159.8130  209.9760  156.0340 C   0  0  0  0  0  2  0  0  0  0  0  0
  158.5660  212.1520  152.5460 C   0  0  1  0  0  3  0  0  0  0  0  0
  160.6760  211.3010  151.8390 F   0  0  0  0  0  0  0  0  0  0  0  0
  158.2920  213.1660  151.6260 O   0  0  0  0  0  1  0  0  0  0  0  0
  159.3770  210.5860  154.7120 C   0  0  2  0  0  3  0  0  0  0  0  0
  160.0790  212.0860  152.8070 C   0  0  2  0  0  3  0  0  0  0  0  0
  157.7850  212.4000  153.8320 C   0  0  0  0  0  2  0  0  0  0  0  0
  160.4390  211.5540  154.2010 C   0  0  0  0  0  2  0  0  0  0  0  0
  158.0130  211.2820  154.8580 C   0  0  0  0  0  2  0  0  0  0  0  0
  1 16  1  0  0  0  0
  2  1  1  0  0  0  0
  4  3  1  6  0  0  0
  4  2  1  0  0  0  0
  5  9  1  1  0  0  0
  5  4  1  0  0  0  0
  6  7  1  0  0  0  0
  7  5  1  0  0  0  0
  8  7  1  0  0  0  0
  9 11  1  0  0  0  0
 11 10  1  1  0  0  0
 13 11  1  0  0  0  0
 14 13  1  0  0  0  0
 14 12  1  0  0  0  0
 15 14  2  0  0  0  0
 16 17  1  0  0  0  0
 17 18  1  0  0  0  0
 18 19  1  0  0  0  0
 19 20  1  0  0  0  0
 20 22  1  0  0  0  0
 20 21  1  1  0  0  0
 23 25  1  6  0  0  0
 23 27  1  0  0  0  0
 23 28  1  0  0  0  0
 26 30  1  0  0  0  0
 26 22  1  1  0  0  0
 27 24  1  6  0  0  0
 27 29  1  0  0  0  0
 28 30  1  0  0  0  0
 29 26  1  0  0  0  0
M  END
>  <MODEL>
3

>  <REMARK>
 VINA RESULT:      -6.6      2.913      8.781
  Name = 
  14 active torsions:
  status: ('A' for Active; 'I' for Inactive)
    1  A    between atoms: C_3  and  C_11
    2  A    between atoms: C_3  and  C_19
    3  A    between atoms: C_4  and  C_13
    4  A    between atoms: C_7  and  C_16
    5  A    between atoms: C_7  and  C_30
    6  A    between atoms: C_8  and  C_12
    7  A    between atoms: C_8  and  C_13
    8  A    between atoms: N_9  and  C_12
    9  A    between atoms: C_10  and  C_15
   10  A    between atoms: C_10  and  N_25
   11  A    between atoms: C_11  and  N_25
   12  A    between atoms: C_13  and  C_30
   13  A    between atoms: C_15  and  C_26
   14  A    between atoms: C_16  and  C_26
                            x       y       z     vdW  Elec       q    Type
                         _______ _______ _______ _____ _____    ______ ____

>  <TORSDO>
F 14

$$$$
=
 OpenBabel11052421533D

 30 30  0  0  1  0  0  0  0  0999 V2000
  161.6080  209.3480  151.8240 C   0  0  0  0  0  2  0  0  0  0  0  0
  160.5000  209.7550  152.7820 C   0  0  0  0  0  2  0  0  0  0  0  0
  161.7550  210.9410  154.4350 O   0  0  0  0  0  1  0  0  0  0  0  0
  160.8250  211.1010  153.4050 C   0  0  2  0  0  3  0  0  0  0  0  0
  159.5490  211.8010  153.9070 C   0  0  2  0  0  3  0  0  0  0  0  0
  159.7580  212.8870  151.6470 C   0  0  0  0  0  1  0  0  0  0  0  0
  159.2200  213.0370  153.0600 C   0  0  0  0  0  3  0  0  0  0  0  0
  157.7160  213.2490  152.9690 C   0  0  0  0  0  1  0  0  0  0  0  0
  159.6640  212.1680  155.3890 C   0  0  0  0  0  2  0  0  0  0  0  0
  159.4740  210.2820  156.8400 O   0  0  0  0  0  1  0  0  0  0  0  0
  158.7390  211.3050  156.2370 C   0  0  2  0  0  3  0  0  0  0  0  0
  155.8970  212.0780  156.4750 O   0  0  0  0  0  1  0  0  0  0  0  0
  157.6640  210.7360  155.4270 N   0  0  0  0  0  2  0  0  0  0  0  0
  156.2880  211.1130  155.5530 C   0  0  0  0  0  0  0  0  0  0  0  0
  155.4230  210.5660  154.8200 O   0  0  0  0  0  0  0  0  0  0  0  0
  161.6500  207.8410  151.6760 C   0  0  0  0  0  2  0  0  0  0  0  0
  160.8940  207.1530  152.8000 C   0  0  0  0  0  2  0  0  0  0  0  0
  161.4940  205.7810  153.0530 C   0  0  0  0  0  2  0  0  0  0  0  0
  162.1860  205.3160  151.8590 N   0  0  0  0  0  2  0  0  0  0  0  0
  161.5630  204.0640  151.4550 C   0  0  1  0  0  3  0  0  0  0  0  0
  160.7650  203.5060  152.6160 C   0  0  0  0  0  1  0  0  0  0  0  0
  160.6250  204.3070  150.2790 C   0  0  0  0  0  2  0  0  0  0  0  0
  162.3780  205.4720  146.5340 C   0  0  1  0  0  3  0  0  0  0  0  0
  162.5640  207.4890  147.7870 F   0  0  0  0  0  0  0  0  0  0  0  0
  162.5670  205.8830  145.2130 O   0  0  0  0  0  1  0  0  0  0  0  0
  161.3990  204.7500  149.0480 C   0  0  2  0  0  3  0  0  0  0  0  0
  161.6430  206.5710  147.3180 C   0  0  2  0  0  3  0  0  0  0  0  0
  161.6070  204.1560  146.5570 C   0  0  0  0  0  2  0  0  0  0  0  0
  160.8030  206.0360  148.4850 C   0  0  0  0  0  2  0  0  0  0  0  0
  161.4180  203.6350  147.9890 C   0  0  0  0  0  2  0  0  0  0  0  0
  1  2  1  0  0  0  0
  2  4  1  0  0  0  0
  4  5  1  0  0  0  0
  4  3  1  1  0  0  0
  5  9  1  1  0  0  0
  6  7  1  0  0  0  0
  7  5  1  0  0  0  0
  8  7  1  0  0  0  0
  9 11  1  0  0  0  0
 11 10  1  6  0  0  0
 13 14  1  0  0  0  0
 13 11  1  0  0  0  0
 14 12  1  0  0  0  0
 15 14  2  0  0  0  0
 16  1  1  0  0  0  0
 16 17  1  0  0  0  0
 17 18  1  0  0  0  0
 19 18  1  0  0  0  0
 20 19  1  0  0  0  0
 20 21  1  1  0  0  0
 22 20  1  0  0  0  0
 23 25  1  6  0  0  0
 23 28  1  0  0  0  0
 23 27  1  0  0  0  0
 26 22  1  1  0  0  0
 27 24  1  1  0  0  0
 27 29  1  0  0  0  0
 28 30  1  0  0  0  0
 29 26  1  0  0  0  0
 30 26  1  0  0  0  0
M  END
>  <MODEL>
4

>  <REMARK>
 VINA RESULT:      -6.5      1.504      2.352
  Name = 
  14 active torsions:
  status: ('A' for Active; 'I' for Inactive)
    1  A    between atoms: C_3  and  C_11
    2  A    between atoms: C_3  and  C_19
    3  A    between atoms: C_4  and  C_13
    4  A    between atoms: C_7  and  C_16
    5  A    between atoms: C_7  and  C_30
    6  A    between atoms: C_8  and  C_12
    7  A    between atoms: C_8  and  C_13
    8  A    between atoms: N_9  and  C_12
    9  A    between atoms: C_10  and  C_15
   10  A    between atoms: C_10  and  N_25
   11  A    between atoms: C_11  and  N_25
   12  A    between atoms: C_13  and  C_30
   13  A    between atoms: C_15  and  C_26
   14  A    between atoms: C_16  and  C_26
                            x       y       z     vdW  Elec       q    Type
                         _______ _______ _______ _____ _____    ______ ____

>  <TORSDO>
F 14

$$$$
=
 OpenBabel11052421533D

 30 30  0  0  1  0  0  0  0  0999 V2000
  161.5620  209.4200  151.4190 C   0  0  0  0  0  2  0  0  0  0  0  0
  161.1820  210.0260  152.7610 C   0  0  0  0  0  2  0  0  0  0  0  0
  160.3170  212.0950  151.9320 O   0  0  0  0  0  1  0  0  0  0  0  0
  159.9640  210.9180  152.5980 C   0  0  2  0  0  3  0  0  0  0  0  0
  159.3130  211.2190  153.9600 C   0  0  2  0  0  3  0  0  0  0  0  0
  156.9050  211.4480  154.6490 C   0  0  0  0  0  1  0  0  0  0  0  0
  158.0190  212.0270  153.7940 C   0  0  0  0  0  3  0  0  0  0  0  0
  158.2250  213.4760  154.2110 C   0  0  0  0  0  1  0  0  0  0  0  0
  160.2900  211.9380  154.8950 C   0  0  0  0  0  2  0  0  0  0  0  0
  160.5230  212.2720  157.2470 O   0  0  0  0  0  1  0  0  0  0  0  0
  160.2940  211.2960  156.2760 C   0  0  2  0  0  3  0  0  0  0  0  0
  159.7350  208.4030  156.0470 O   0  0  0  0  0  0  0  0  0  0  0  0
  161.3150  210.2540  156.3670 N   0  0  0  0  0  2  0  0  0  0  0  0
  161.0330  208.8530  156.2590 C   0  0  0  0  0  0  0  0  0  0  0  0
  161.9730  208.0200  156.3580 O   0  0  0  0  0  1  0  0  0  0  0  0
  161.8710  207.9450  151.5750 C   0  0  0  0  0  2  0  0  0  0  0  0
  161.0020  207.3080  152.6460 C   0  0  0  0  0  2  0  0  0  0  0  0
  161.5100  205.9090  152.9480 C   0  0  0  0  0  2  0  0  0  0  0  0
  162.1890  205.3660  151.7810 N   0  0  0  0  0  2  0  0  0  0  0  0
  161.5550  204.0960  151.4600 C   0  0  1  0  0  3  0  0  0  0  0  0
  160.7450  203.6270  152.6510 C   0  0  0  0  0  1  0  0  0  0  0  0
  160.6270  204.2670  150.2640 C   0  0  0  0  0  2  0  0  0  0  0  0
  162.3740  205.4720  146.5290 C   0  0  1  0  0  3  0  0  0  0  0  0
  162.5200  207.4890  147.7870 F   0  0  0  0  0  0  0  0  0  0  0  0
  162.5620  205.8890  145.2100 O   0  0  0  0  0  1  0  0  0  0  0  0
  161.3980  204.7270  149.0370 C   0  0  2  0  0  3  0  0  0  0  0  0
  161.6180  206.5560  147.3120 C   0  0  2  0  0  3  0  0  0  0  0  0
  161.6270  204.1430  146.5460 C   0  0  0  0  0  2  0  0  0  0  0  0
  160.7820  206.0030  148.4740 C   0  0  0  0  0  2  0  0  0  0  0  0
  161.4420  203.6150  147.9750 C   0  0  0  0  0  2  0  0  0  0  0  0
  1 16  1  0  0  0  0
  1  2  1  0  0  0  0
  4  3  1  1  0  0  0
  4  2  1  0  0  0  0
  4  5  1  0  0  0  0
  5  9  1  1  0  0  0
  7  5  1  0  0  0  0
  7  8  1  0  0  0  0
  7  6  1  0  0  0  0
  9 11  1  0  0  0  0
 11 13  1  0  0  0  0
 11 10  1  1  0  0  0
 12 14  2  0  0  0  0
 14 15  1  0  0  0  0
 14 13  1  0  0  0  0
 16 17  1  0  0  0  0
 17 18  1  0  0  0  0
 19 18  1  0  0  0  0
 20 19  1  0  0  0  0
 20 21  1  1  0  0  0
 22 20  1  0  0  0  0
 23 25  1  6  0  0  0
 23 28  1  0  0  0  0
 23 27  1  0  0  0  0
 26 22  1  1  0  0  0
 27 24  1  1  0  0  0
 27 29  1  0  0  0  0
 28 30  1  0  0  0  0
 29 26  1  0  0  0  0
 30 26  1  0  0  0  0
M  END
>  <MODEL>
5

>  <REMARK>
 VINA RESULT:      -6.5      1.775      2.924
  Name = 
  14 active torsions:
  status: ('A' for Active; 'I' for Inactive)
    1  A    between atoms: C_3  and  C_11
    2  A    between atoms: C_3  and  C_19
    3  A    between atoms: C_4  and  C_13
    4  A    between atoms: C_7  and  C_16
    5  A    between atoms: C_7  and  C_30
    6  A    between atoms: C_8  and  C_12
    7  A    between atoms: C_8  and  C_13
    8  A    between atoms: N_9  and  C_12
    9  A    between atoms: C_10  and  C_15
   10  A    between atoms: C_10  and  N_25
   11  A    between atoms: C_11  and  N_25
   12  A    between atoms: C_13  and  C_30
   13  A    between atoms: C_15  and  C_26
   14  A    between atoms: C_16  and  C_26
                            x       y       z     vdW  Elec       q    Type
                         _______ _______ _______ _____ _____    ______ ____

>  <TORSDO>
F 14

$$$$
=
 OpenBabel11052421533D

 30 30  0  0  1  0  0  0  0  0999 V2000
  161.9840  207.5590  151.6770 C   0  0  0  0  0  2  0  0  0  0  0  0
  161.0300  208.1380  152.7100 C   0  0  0  0  0  2  0  0  0  0  0  0
  161.6220  210.0770  151.4420 O   0  0  0  0  0  1  0  0  0  0  0  0
  160.6830  209.5710  152.3450 C   0  0  2  0  0  3  0  0  0  0  0  0
  160.5850  210.4530  153.6030 C   0  0  2  0  0  3  0  0  0  0  0  0
  162.3000  210.4080  155.4430 C   0  0  0  0  0  1  0  0  0  0  0  0
  161.0880  209.7100  154.8470 C   0  0  0  0  0  3  0  0  0  0  0  0
  160.0090  209.6490  155.9180 C   0  0  0  0  0  1  0  0  0  0  0  0
  159.1570  210.9650  153.8120 C   0  0  0  0  0  2  0  0  0  0  0  0
  158.6220  213.0730  154.7980 O   0  0  0  0  0  1  0  0  0  0  0  0
  159.0860  212.4750  153.6250 C   0  0  2  0  0  3  0  0  0  0  0  0
  160.0350  212.9860  150.8730 O   0  0  0  0  0  1  0  0  0  0  0  0
  158.2110  212.8240  152.5080 N   0  0  0  0  0  2  0  0  0  0  0  0
  158.6810  213.0750  151.1780 C   0  0  0  0  0  0  0  0  0  0  0  0
  157.8580  213.3790  150.2740 O   0  0  0  0  0  0  0  0  0  0  0  0
  162.3840  206.1500  152.0600 C   0  0  0  0  0  2  0  0  0  0  0  0
  161.3440  205.5040  152.9600 C   0  0  0  0  0  2  0  0  0  0  0  0
  160.6010  204.4270  152.1890 C   0  0  0  0  0  2  0  0  0  0  0  0
  161.4370  203.2410  152.0680 N   0  0  0  0  0  2  0  0  0  0  0  0
  161.4310  202.8470  150.6660 C   0  0  1  0  0  3  0  0  0  0  0  0
  160.8200  201.4660  150.5370 C   0  0  0  0  0  1  0  0  0  0  0  0
  160.6030  203.8340  149.8530 C   0  0  0  0  0  2  0  0  0  0  0  0
  162.4330  205.3530  146.2760 C   0  0  1  0  0  3  0  0  0  0  0  0
  162.6810  207.2060  147.7520 F   0  0  0  0  0  0  0  0  0  0  0  0
  162.6500  205.9040  145.0120 O   0  0  0  0  0  1  0  0  0  0  0  0
  161.4040  204.3860  148.6850 C   0  0  2  0  0  3  0  0  0  0  0  0
  161.7320  206.3820  147.1770 C   0  0  2  0  0  3  0  0  0  0  0  0
  161.6140  204.0730  146.1440 C   0  0  0  0  0  2  0  0  0  0  0  0
  160.8610  205.7490  148.2700 C   0  0  0  0  0  2  0  0  0  0  0  0
  161.3930  203.4000  147.5060 C   0  0  0  0  0  2  0  0  0  0  0  0
  1 16  1  0  0  0  0
  1  2  1  0  0  0  0
  4  3  1  6  0  0  0
  4  2  1  0  0  0  0
  4  5  1  0  0  0  0
  5  9  1  1  0  0  0
  5  7  1  0  0  0  0
  7  6  1  0  0  0  0
  7  8  1  0  0  0  0
 11  9  1  0  0  0  0
 11 10  1  1  0  0  0
 12 14  1  0  0  0  0
 13 11  1  0  0  0  0
 14 13  1  0  0  0  0
 15 14  2  0  0  0  0
 16 17  1  0  0  0  0
 18 17  1  0  0  0  0
 19 18  1  0  0  0  0
 20 21  1  1  0  0  0
 20 19  1  0  0  0  0
 22 20  1  0  0  0  0
 23 25  1  6  0  0  0
 23 27  1  0  0  0  0
 26 22  1  1  0  0  0
 27 24  1  1  0  0  0
 27 29  1  0  0  0  0
 28 23  1  0  0  0  0
 28 30  1  0  0  0  0
 29 26  1  0  0  0  0
 30 26  1  0  0  0  0
M  END
>  <MODEL>
6

>  <REMARK>
 VINA RESULT:      -6.5      1.775      2.455
  Name = 
  14 active torsions:
  status: ('A' for Active; 'I' for Inactive)
    1  A    between atoms: C_3  and  C_11
    2  A    between atoms: C_3  and  C_19
    3  A    between atoms: C_4  and  C_13
    4  A    between atoms: C_7  and  C_16
    5  A    between atoms: C_7  and  C_30
    6  A    between atoms: C_8  and  C_12
    7  A    between atoms: C_8  and  C_13
    8  A    between atoms: N_9  and  C_12
    9  A    between atoms: C_10  and  C_15
   10  A    between atoms: C_10  and  N_25
   11  A    between atoms: C_11  and  N_25
   12  A    between atoms: C_13  and  C_30
   13  A    between atoms: C_15  and  C_26
   14  A    between atoms: C_16  and  C_26
                            x       y       z     vdW  Elec       q    Type
                         _______ _______ _______ _____ _____    ______ ____

>  <TORSDO>
F 14

$$$$
=
 OpenBabel11052421533D

 30 30  0  0  1  0  0  0  0  0999 V2000
  161.1900  208.7390  155.8080 C   0  0  0  0  0  2  0  0  0  0  0  0
  159.9610  209.4750  155.2990 C   0  0  0  0  0  2  0  0  0  0  0  0
  159.3410  211.0450  156.9920 O   0  0  0  0  0  1  0  0  0  0  0  0
  159.9970  210.9200  155.7640 C   0  0  2  0  0  3  0  0  0  0  0  0
  159.3850  211.8570  154.7060 C   0  0  2  0  0  3  0  0  0  0  0  0
  157.7470  213.7650  154.6220 C   0  0  0  0  0  1  0  0  0  0  0  0
  158.0000  212.3580  155.1370 C   0  0  0  0  0  3  0  0  0  0  0  0
  156.9020  211.4550  154.5940 C   0  0  0  0  0  1  0  0  0  0  0  0
  159.3180  211.1770  153.3350 C   0  0  0  0  0  2  0  0  0  0  0  0
  159.7260  212.8460  151.6770 O   0  0  0  0  0  1  0  0  0  0  0  0
  160.3250  211.7930  152.3720 C   0  0  2  0  0  3  0  0  0  0  0  0
  162.6470  210.0420  152.8940 O   0  0  0  0  0  1  0  0  0  0  0  0
  160.8270  210.7950  151.4300 N   0  0  0  0  0  2  0  0  0  0  0  0
  161.9570  209.9540  151.6900 C   0  0  0  0  0  0  0  0  0  0  0  0
  162.3300  209.1250  150.8180 O   0  0  0  0  0  0  0  0  0  0  0  0
  161.1830  207.3040  155.3250 C   0  0  0  0  0  2  0  0  0  0  0  0
  160.8290  207.2180  153.8490 C   0  0  0  0  0  2  0  0  0  0  0  0
  161.6730  206.1450  153.1840 C   0  0  0  0  0  2  0  0  0  0  0  0
  160.8640  204.9590  152.9430 N   0  0  0  0  0  2  0  0  0  0  0  0
  161.3480  204.3450  151.7150 C   0  0  1  0  0  3  0  0  0  0  0  0
  161.3230  202.8380  151.8650 C   0  0  0  0  0  1  0  0  0  0  0  0
  160.4530  204.7430  150.5480 C   0  0  0  0  0  2  0  0  0  0  0  0
  162.3470  205.5200  146.7710 C   0  0  1  0  0  3  0  0  0  0  0  0
  162.6780  207.5930  147.8970 F   0  0  0  0  0  0  0  0  0  0  0  0
  162.5870  205.8280  145.4310 O   0  0  0  0  0  1  0  0  0  0  0  0
  161.2770  205.0420  149.3060 C   0  0  2  0  0  3  0  0  0  0  0  0
  161.6930  206.7230  147.4700 C   0  0  2  0  0  3  0  0  0  0  0  0
  161.4720  204.2750  146.8620 C   0  0  0  0  0  2  0  0  0  0  0  0
  160.7960  206.3330  148.6520 C   0  0  0  0  0  2  0  0  0  0  0  0
  161.2220  203.8640  148.3200 C   0  0  0  0  0  2  0  0  0  0  0  0
  2  4  1  0  0  0  0
  2  1  1  0  0  0  0
  4  3  1  1  0  0  0
  5  9  1  6  0  0  0
  5  7  1  0  0  0  0
  5  4  1  0  0  0  0
  6  7  1  0  0  0  0
  8  7  1  0  0  0  0
 11 10  1  6  0  0  0
 11  9  1  0  0  0  0
 13 14  1  0  0  0  0
 13 11  1  0  0  0  0
 14 12  1  0  0  0  0
 15 14  2  0  0  0  0
 16  1  1  0  0  0  0
 17 16  1  0  0  0  0
 18 17  1  0  0  0  0
 19 18  1  0  0  0  0
 20 21  1  1  0  0  0
 20 19  1  0  0  0  0
 22 20  1  0  0  0  0
 23 25  1  6  0  0  0
 23 28  1  0  0  0  0
 23 27  1  0  0  0  0
 26 22  1  1  0  0  0
 27 24  1  1  0  0  0
 27 29  1  0  0  0  0
 28 30  1  0  0  0  0
 29 26  1  0  0  0  0
 30 26  1  0  0  0  0
M  END
>  <MODEL>
7

>  <REMARK>
 VINA RESULT:      -6.3      1.844      3.925
  Name = 
  14 active torsions:
  status: ('A' for Active; 'I' for Inactive)
    1  A    between atoms: C_3  and  C_11
    2  A    between atoms: C_3  and  C_19
    3  A    between atoms: C_4  and  C_13
    4  A    between atoms: C_7  and  C_16
    5  A    between atoms: C_7  and  C_30
    6  A    between atoms: C_8  and  C_12
    7  A    between atoms: C_8  and  C_13
    8  A    between atoms: N_9  and  C_12
    9  A    between atoms: C_10  and  C_15
   10  A    between atoms: C_10  and  N_25
   11  A    between atoms: C_11  and  N_25
   12  A    between atoms: C_13  and  C_30
   13  A    between atoms: C_15  and  C_26
   14  A    between atoms: C_16  and  C_26
                            x       y       z     vdW  Elec       q    Type
                         _______ _______ _______ _____ _____    ______ ____

>  <TORSDO>
F 14

$$$$
=
 OpenBabel11052421533D

 30 30  0  0  1  0  0  0  0  0999 V2000
  162.1060  209.4020  150.8160 C   0  0  0  0  0  2  0  0  0  0  0  0
  162.1400  209.7650  152.2920 C   0  0  0  0  0  2  0  0  0  0  0  0
  159.7940  209.9410  152.7200 O   0  0  0  0  0  1  0  0  0  0  0  0
  160.9310  209.1760  152.9960 C   0  0  2  0  0  3  0  0  0  0  0  0
  161.1740  209.0640  154.5120 C   0  0  2  0  0  3  0  0  0  0  0  0
  159.8850  207.4370  155.9340 C   0  0  0  0  0  1  0  0  0  0  0  0
  161.0630  207.6100  154.9900 C   0  0  0  0  0  3  0  0  0  0  0  0
  160.8650  206.6650  153.8140 C   0  0  0  0  0  1  0  0  0  0  0  0
  160.2210  209.9710  155.2960 C   0  0  0  0  0  2  0  0  0  0  0  0
  161.9030  211.0150  156.6300 O   0  0  0  0  0  1  0  0  0  0  0  0
  160.9070  211.2730  155.6870 C   0  0  2  0  0  3  0  0  0  0  0  0
  159.2120  213.0380  154.0300 O   0  0  0  0  0  0  0  0  0  0  0  0
  159.9440  212.2310  156.2290 N   0  0  0  0  0  2  0  0  0  0  0  0
  159.1300  213.0850  155.4170 C   0  0  0  0  0  0  0  0  0  0  0  0
  158.3310  213.8890  155.9660 O   0  0  0  0  0  1  0  0  0  0  0  0
  162.2610  207.9060  150.6370 C   0  0  0  0  0  2  0  0  0  0  0  0
  162.5690  207.5500  149.1930 C   0  0  0  0  0  2  0  0  0  0  0  0
  161.2730  207.3060  148.4400 C   0  0  0  0  0  2  0  0  0  0  0  0
  161.5540  207.1070  147.0250 N   0  0  0  0  0  2  0  0  0  0  0  0
  161.0550  205.7870  146.6640 C   0  0  1  0  0  3  0  0  0  0  0  0
  160.4640  205.8390  145.2710 C   0  0  0  0  0  1  0  0  0  0  0  0
  162.1980  204.7790  146.6820 C   0  0  0  0  0  2  0  0  0  0  0  0
  160.8690  201.7120  149.3800 C   0  0  1  0  0  3  0  0  0  0  0  0
  161.6550  200.4130  147.5450 F   0  0  0  0  0  0  0  0  0  0  0  0
  160.0840  200.8170  150.1090 O   0  0  0  0  0  1  0  0  0  0  0  0
  161.9010  203.6360  147.6380 C   0  0  2  0  0  3  0  0  0  0  0  0
  160.7500  201.4020  147.8800 C   0  0  2  0  0  3  0  0  0  0  0  0
  160.4410  203.1420  149.6940 C   0  0  0  0  0  2  0  0  0  0  0  0
  160.9630  202.6280  146.9810 C   0  0  0  0  0  2  0  0  0  0  0  0
  161.3110  204.1680  148.9550 C   0  0  0  0  0  2  0  0  0  0  0  0
  1  2  1  0  0  0  0
  2  4  1  0  0  0  0
  4  3  1  1  0  0  0
  4  5  1  0  0  0  0
  5  7  1  0  0  0  0
  5  9  1  1  0  0  0
  7  6  1  0  0  0  0
  8  7  1  0  0  0  0
  9 11  1  0  0  0  0
 11 13  1  0  0  0  0
 11 10  1  1  0  0  0
 12 14  2  0  0  0  0
 14 15  1  0  0  0  0
 14 13  1  0  0  0  0
 16  1  1  0  0  0  0
 17 16  1  0  0  0  0
 18 17  1  0  0  0  0
 19 18  1  0  0  0  0
 20 21  1  6  0  0  0
 20 22  1  0  0  0  0
 20 19  1  0  0  0  0
 23 28  1  0  0  0  0
 23 25  1  1  0  0  0
 26 22  1  6  0  0  0
 26 30  1  0  0  0  0
 27 24  1  6  0  0  0
 27 23  1  0  0  0  0
 29 26  1  0  0  0  0
 29 27  1  0  0  0  0
 30 28  1  0  0  0  0
M  END
>  <MODEL>
8

>  <REMARK>
 VINA RESULT:      -6.2      2.713      3.709
  Name = 
  14 active torsions:
  status: ('A' for Active; 'I' for Inactive)
    1  A    between atoms: C_3  and  C_11
    2  A    between atoms: C_3  and  C_19
    3  A    between atoms: C_4  and  C_13
    4  A    between atoms: C_7  and  C_16
    5  A    between atoms: C_7  and  C_30
    6  A    between atoms: C_8  and  C_12
    7  A    between atoms: C_8  and  C_13
    8  A    between atoms: N_9  and  C_12
    9  A    between atoms: C_10  and  C_15
   10  A    between atoms: C_10  and  N_25
   11  A    between atoms: C_11  and  N_25
   12  A    between atoms: C_13  and  C_30
   13  A    between atoms: C_15  and  C_26
   14  A    between atoms: C_16  and  C_26
                            x       y       z     vdW  Elec       q    Type
                         _______ _______ _______ _____ _____    ______ ____

>  <TORSDO>
F 14

$$$$
=
 OpenBabel11052421533D

 30 30  0  0  1  0  0  0  0  0999 V2000
  161.0960  207.0370  149.9520 C   0  0  0  0  0  2  0  0  0  0  0  0
  160.4310  205.8980  149.1960 C   0  0  0  0  0  2  0  0  0  0  0  0
  162.3570  205.3320  147.8970 O   0  0  0  0  0  1  0  0  0  0  0  0
  161.4610  204.8370  148.8500 C   0  0  2  0  0  3  0  0  0  0  0  0
  160.7810  203.5450  148.3610 C   0  0  2  0  0  3  0  0  0  0  0  0
  161.2080  201.1780  149.0990 C   0  0  0  0  0  1  0  0  0  0  0  0
  160.6340  202.5270  149.4990 C   0  0  0  0  0  3  0  0  0  0  0  0
  161.3650  202.9960  150.7470 C   0  0  0  0  0  1  0  0  0  0  0  0
  161.5350  202.9360  147.1760 C   0  0  0  0  0  2  0  0  0  0  0  0
  160.5010  201.6830  145.4260 O   0  0  0  0  0  1  0  0  0  0  0  0
  160.6890  202.9790  145.9110 C   0  0  2  0  0  3  0  0  0  0  0  0
  160.0400  205.8250  145.4480 O   0  0  0  0  0  1  0  0  0  0  0  0
  161.3200  203.8080  144.8850 N   0  0  0  0  0  2  0  0  0  0  0  0
  160.9950  205.1860  144.6660 C   0  0  0  0  0  0  0  0  0  0  0  0
  161.5820  205.8260  143.7530 O   0  0  0  0  0  0  0  0  0  0  0  0
  161.7020  206.5290  151.2450 C   0  0  0  0  0  2  0  0  0  0  0  0
  161.3300  207.4200  152.4180 C   0  0  0  0  0  2  0  0  0  0  0  0
  161.1560  206.5730  153.6670 C   0  0  0  0  0  2  0  0  0  0  0  0
  161.5740  207.3280  154.8390 N   0  0  0  0  0  2  0  0  0  0  0  0
  160.3800  207.9200  155.4240 C   0  0  1  0  0  3  0  0  0  0  0  0
  160.0810  207.2420  156.7450 C   0  0  0  0  0  1  0  0  0  0  0  0
  160.6050  209.4070  155.6680 C   0  0  0  0  0  2  0  0  0  0  0  0
  158.1880  212.1600  153.4260 C   0  0  1  0  0  3  0  0  0  0  0  0
  159.9920  211.7830  151.9160 F   0  0  0  0  0  0  0  0  0  0  0  0
  157.5800  213.3170  152.9340 O   0  0  0  0  0  1  0  0  0  0  0  0
  159.7340  210.2490  154.7500 C   0  0  2  0  0  3  0  0  0  0  0  0
  159.7050  212.2330  153.1910 C   0  0  2  0  0  3  0  0  0  0  0  0
  157.8560  211.9950  154.9050 C   0  0  0  0  0  2  0  0  0  0  0  0
  160.5240  211.4400  154.2180 C   0  0  0  0  0  2  0  0  0  0  0  0
  158.4600  210.7070  155.4800 C   0  0  0  0  0  2  0  0  0  0  0  0
  1 16  1  0  0  0  0
  2  1  1  0  0  0  0
  4  3  1  6  0  0  0
  4  2  1  0  0  0  0
  5  9  1  6  0  0  0
  5  4  1  0  0  0  0
  5  7  1  0  0  0  0
  6  7  1  0  0  0  0
  7  8  1  0  0  0  0
 11 10  1  6  0  0  0
 11  9  1  0  0  0  0
 13 11  1  0  0  0  0
 14 13  1  0  0  0  0
 14 12  1  0  0  0  0
 15 14  2  0  0  0  0
 16 17  1  0  0  0  0
 17 18  1  0  0  0  0
 18 19  1  0  0  0  0
 19 20  1  0  0  0  0
 20 22  1  0  0  0  0
 20 21  1  1  0  0  0
 23 25  1  1  0  0  0
 23 28  1  0  0  0  0
 26 30  1  0  0  0  0
 26 22  1  1  0  0  0
 27 24  1  6  0  0  0
 27 23  1  0  0  0  0
 27 29  1  0  0  0  0
 28 30  1  0  0  0  0
 29 26  1  0  0  0  0
M  END
>  <MODEL>
9

>  <REMARK>
 VINA RESULT:      -6.2      2.667      9.494
  Name = 
  14 active torsions:
  status: ('A' for Active; 'I' for Inactive)
    1  A    between atoms: C_3  and  C_11
    2  A    between atoms: C_3  and  C_19
    3  A    between atoms: C_4  and  C_13
    4  A    between atoms: C_7  and  C_16
    5  A    between atoms: C_7  and  C_30
    6  A    between atoms: C_8  and  C_12
    7  A    between atoms: C_8  and  C_13
    8  A    between atoms: N_9  and  C_12
    9  A    between atoms: C_10  and  C_15
   10  A    between atoms: C_10  and  N_25
   11  A    between atoms: C_11  and  N_25
   12  A    between atoms: C_13  and  C_30
   13  A    between atoms: C_15  and  C_26
   14  A    between atoms: C_16  and  C_26
                            x       y       z     vdW  Elec       q    Type
                         _______ _______ _______ _____ _____    ______ ____

>  <TORSDO>
F 14

$$$$
