=
 OpenBabel11052423193D

 27 29  0  0  0  0  0  0  0  0999 V2000
  159.4360  212.4670  152.5360 N   0  0  0  0  0  2  0  0  0  0  0  0
  161.0070  210.8580  151.8450 N   0  0  0  0  0  0  0  0  0  0  0  0
  160.3500  211.4010  152.8390 C   0  0  0  0  0  0  0  0  0  0  0  0
  160.0310  212.0960  155.2160 C   0  0  0  0  0  1  0  0  0  0  0  0
  161.3780  208.8120  156.1530 C   0  0  0  0  0  2  0  0  0  0  0  0
  160.4990  210.9720  154.2950 C   0  0  0  0  0  0  0  0  0  0  0  0
  161.9830  210.6910  154.6150 C   0  0  0  0  0  2  0  0  0  0  0  0
  162.1830  210.0960  156.0100 C   0  0  0  0  0  2  0  0  0  0  0  0
  159.9010  209.1020  155.9240 C   0  0  0  0  0  2  0  0  0  0  0  0
  159.6930  209.6820  154.5240 C   0  0  0  0  0  2  0  0  0  0  0  0
  163.2360  210.1140  151.9490 O   0  0  0  0  0  0  0  0  0  0  0  0
  162.0150  209.8320  151.8100 C   0  0  0  0  0  0  0  0  0  0  0  0
  160.9140  205.7360  151.1420 C   0  0  0  0  0  3  0  0  0  0  0  0
  160.7820  206.0650  148.6790 C   0  0  0  0  0  1  0  0  0  0  0  0
  161.3910  207.9380  150.2420 C   0  0  0  0  0  0  0  0  0  0  0  0
  161.4830  208.7570  149.1620 F   0  0  0  0  0  0  0  0  0  0  0  0
  161.6300  208.4260  151.5460 C   0  0  0  0  0  0  0  0  0  0  0  0
  161.0360  206.5940  150.0470 C   0  0  0  0  0  0  0  0  0  0  0  0
  161.4970  207.5450  152.6330 C   0  0  0  0  0  3  0  0  0  0  0  0
  161.1420  206.2110  152.4340 C   0  0  0  0  0  3  0  0  0  0  0  0
  159.2630  213.0290  151.2010 C   0  0  0  0  0  2  0  0  0  0  0  0
  155.8150  214.4170  151.9290 C   0  0  0  0  0  3  0  0  0  0  0  0
  155.2170  214.3490  150.6680 C   0  0  0  0  0  3  0  0  0  0  0  0
  157.1350  213.9910  152.1010 C   0  0  0  0  0  3  0  0  0  0  0  0
  155.9390  213.8540  149.5770 C   0  0  0  0  0  3  0  0  0  0  0  0
  157.2600  213.4280  149.7480 C   0  0  0  0  0  3  0  0  0  0  0  0
  157.8600  213.4970  151.0110 C   0  0  0  0  0  0  0  0  0  0  0  0
  1  3  1  0  0  0  0
  2  3  2  0  0  0  0
  3  6  1  0  0  0  0
  6 10  1  0  0  0  0
  6  7  1  0  0  0  0
  6  4  1  0  0  0  0
  7  8  1  0  0  0  0
  8  5  1  0  0  0  0
  9  5  1  0  0  0  0
 10  9  1  0  0  0  0
 12  2  1  0  0  0  0
 12 11  2  0  0  0  0
 13 20  1  0  0  0  0
 14 18  1  0  0  0  0
 15 17  2  0  0  0  0
 16 15  1  0  0  0  0
 17 12  1  0  0  0  0
 17 19  1  0  0  0  0
 18 15  1  0  0  0  0
 18 13  2  0  0  0  0
 20 19  2  0  0  0  0
 21  1  1  0  0  0  0
 22 24  1  0  0  0  0
 23 22  2  0  0  0  0
 25 26  2  0  0  0  0
 25 23  1  0  0  0  0
 26 27  1  0  0  0  0
 27 21  1  0  0  0  0
 27 24  2  0  0  0  0
M  END
>  <MODEL>
1

>  <REMARK>
 VINA RESULT:      -6.8      0.000      0.000
  Name = 
  5 active torsions:
  status: ('A' for Active; 'I' for Inactive)
    1  A    between atoms: N_1  and  C_18
    2  A    between atoms: N_2  and  C_19
    3  A    between atoms: C_9  and  C_15
    4  A    between atoms: C_14  and  C_19
    5  A    between atoms: C_18  and  C_26
                            x       y       z     vdW  Elec       q    Type
                         _______ _______ _______ _____ _____    ______ ____

>  <TORSDO>
F 5

$$$$
=
 OpenBabel11052423193D

 27 29  0  0  0  0  0  0  0  0999 V2000
  161.7190  210.6890  150.0700 N   0  0  0  0  0  2  0  0  0  0  0  0
  162.0880  208.3850  150.3730 N   0  0  0  0  0  0  0  0  0  0  0  0
  161.6620  209.5110  150.8900 C   0  0  0  0  0  0  0  0  0  0  0  0
  160.4930  208.3210  152.7460 C   0  0  0  0  0  1  0  0  0  0  0  0
  160.6970  211.4640  154.6310 C   0  0  0  0  0  2  0  0  0  0  0  0
  161.1120  209.6440  152.3060 C   0  0  0  0  0  0  0  0  0  0  0  0
  160.0030  210.7170  152.3450 C   0  0  0  0  0  2  0  0  0  0  0  0
  159.5250  211.0190  153.7670 C   0  0  0  0  0  2  0  0  0  0  0  0
  161.7560  210.3710  154.6650 C   0  0  0  0  0  2  0  0  0  0  0  0
  162.2500  210.0760  153.2480 C   0  0  0  0  0  2  0  0  0  0  0  0
  162.7790  206.8790  152.0420 O   0  0  0  0  0  0  0  0  0  0  0  0
  162.2160  207.0640  150.9290 C   0  0  0  0  0  0  0  0  0  0  0  0
  160.8110  203.6130  148.7950 C   0  0  0  0  0  3  0  0  0  0  0  0
  161.4940  204.5650  146.5990 C   0  0  0  0  0  1  0  0  0  0  0  0
  161.8470  205.8080  148.7560 C   0  0  0  0  0  0  0  0  0  0  0  0
  162.3820  206.8270  148.0360 F   0  0  0  0  0  0  0  0  0  0  0  0
  161.7370  205.8900  150.1630 C   0  0  0  0  0  0  0  0  0  0  0  0
  161.3850  204.6670  148.0810 C   0  0  0  0  0  0  0  0  0  0  0  0
  161.1540  204.8190  150.8600 C   0  0  0  0  0  3  0  0  0  0  0  0
  160.6950  203.6890  150.1830 C   0  0  0  0  0  3  0  0  0  0  0  0
  162.2990  210.7150  148.7320 C   0  0  0  0  0  2  0  0  0  0  0  0
  160.3800  213.3280  146.7710 C   0  0  0  0  0  3  0  0  0  0  0  0
  161.3090  214.3700  146.7150 C   0  0  0  0  0  3  0  0  0  0  0  0
  160.7020  212.1390  147.4320 C   0  0  0  0  0  3  0  0  0  0  0  0
  162.5610  214.2240  147.3220 C   0  0  0  0  0  3  0  0  0  0  0  0
  162.8840  213.0350  147.9830 C   0  0  0  0  0  3  0  0  0  0  0  0
  161.9530  211.9910  148.0400 C   0  0  0  0  0  0  0  0  0  0  0  0
  1  3  1  0  0  0  0
  2  3  2  0  0  0  0
  2 12  1  0  0  0  0
  3  6  1  0  0  0  0
  5  9  1  0  0  0  0
  6  7  1  0  0  0  0
  6  4  1  0  0  0  0
  6 10  1  0  0  0  0
  7  8  1  0  0  0  0
  8  5  1  0  0  0  0
 10  9  1  0  0  0  0
 12 11  2  0  0  0  0
 13 20  1  0  0  0  0
 14 18  1  0  0  0  0
 15 17  2  0  0  0  0
 16 15  1  0  0  0  0
 17 19  1  0  0  0  0
 17 12  1  0  0  0  0
 18 15  1  0  0  0  0
 18 13  2  0  0  0  0
 20 19  2  0  0  0  0
 21  1  1  0  0  0  0
 22 24  1  0  0  0  0
 23 22  2  0  0  0  0
 23 25  1  0  0  0  0
 24 27  2  0  0  0  0
 25 26  2  0  0  0  0
 26 27  1  0  0  0  0
 27 21  1  0  0  0  0
M  END
>  <MODEL>
2

>  <REMARK>
 VINA RESULT:      -6.7      2.850      4.153
  Name = 
  5 active torsions:
  status: ('A' for Active; 'I' for Inactive)
    1  A    between atoms: N_1  and  C_18
    2  A    between atoms: N_2  and  C_19
    3  A    between atoms: C_9  and  C_15
    4  A    between atoms: C_14  and  C_19
    5  A    between atoms: C_18  and  C_26
                            x       y       z     vdW  Elec       q    Type
                         _______ _______ _______ _____ _____    ______ ____

>  <TORSDO>
F 5

$$$$
=
 OpenBabel11052423193D

 27 29  0  0  0  0  0  0  0  0999 V2000
  161.7260  210.7090  150.0830 N   0  0  0  0  0  2  0  0  0  0  0  0
  162.0760  208.4050  150.4020 N   0  0  0  0  0  0  0  0  0  0  0  0
  161.6550  209.5370  150.9090 C   0  0  0  0  0  0  0  0  0  0  0  0
  160.4590  208.3690  152.7630 C   0  0  0  0  0  1  0  0  0  0  0  0
  160.6910  211.5170  154.6370 C   0  0  0  0  0  2  0  0  0  0  0  0
  161.0990  209.6830  152.3220 C   0  0  0  0  0  0  0  0  0  0  0  0
  160.0030  210.7700  152.3490 C   0  0  0  0  0  2  0  0  0  0  0  0
  159.5200  211.0830  153.7670 C   0  0  0  0  0  2  0  0  0  0  0  0
  161.7360  210.4110  154.6820 C   0  0  0  0  0  2  0  0  0  0  0  0
  162.2350  210.1040  153.2690 C   0  0  0  0  0  2  0  0  0  0  0  0
  162.7230  206.9070  152.0950 O   0  0  0  0  0  0  0  0  0  0  0  0
  162.1910  207.0870  150.9660 C   0  0  0  0  0  0  0  0  0  0  0  0
  160.8670  203.7290  148.6400 C   0  0  0  0  0  3  0  0  0  0  0  0
  160.7750  202.2490  150.6390 C   0  0  0  0  0  1  0  0  0  0  0  0
  161.4840  204.6570  150.7970 C   0  0  0  0  0  0  0  0  0  0  0  0
  161.6710  204.4730  152.1290 F   0  0  0  0  0  0  0  0  0  0  0  0
  161.7380  205.9080  150.1920 C   0  0  0  0  0  0  0  0  0  0  0  0
  161.0470  203.5740  150.0160 C   0  0  0  0  0  0  0  0  0  0  0  0
  161.5520  206.0400  148.8050 C   0  0  0  0  0  3  0  0  0  0  0  0
  161.1200  204.9610  148.0350 C   0  0  0  0  0  3  0  0  0  0  0  0
  162.3140  210.7240  148.7480 C   0  0  0  0  0  2  0  0  0  0  0  0
  160.4080  213.2860  146.7100 C   0  0  0  0  0  3  0  0  0  0  0  0
  161.3150  214.3480  146.6820 C   0  0  0  0  0  3  0  0  0  0  0  0
  160.7320  212.1070  147.3870 C   0  0  0  0  0  3  0  0  0  0  0  0
  162.5480  214.2320  147.3320 C   0  0  0  0  0  3  0  0  0  0  0  0
  162.8730  213.0530  148.0100 C   0  0  0  0  0  3  0  0  0  0  0  0
  161.9650  211.9880  148.0390 C   0  0  0  0  0  0  0  0  0  0  0  0
  1  3  1  0  0  0  0
  2  3  2  0  0  0  0
  2 12  1  0  0  0  0
  3  6  1  0  0  0  0
  5  9  1  0  0  0  0
  6  7  1  0  0  0  0
  6  4  1  0  0  0  0
  6 10  1  0  0  0  0
  7  8  1  0  0  0  0
  8  5  1  0  0  0  0
 10  9  1  0  0  0  0
 12 11  2  0  0  0  0
 13 18  1  0  0  0  0
 15 16  1  0  0  0  0
 17 15  1  0  0  0  0
 17 12  1  0  0  0  0
 18 14  1  0  0  0  0
 18 15  2  0  0  0  0
 19 17  2  0  0  0  0
 20 13  2  0  0  0  0
 20 19  1  0  0  0  0
 21  1  1  0  0  0  0
 22 24  1  0  0  0  0
 23 22  2  0  0  0  0
 23 25  1  0  0  0  0
 24 27  2  0  0  0  0
 25 26  2  0  0  0  0
 26 27  1  0  0  0  0
 27 21  1  0  0  0  0
M  END
>  <MODEL>
3

>  <REMARK>
 VINA RESULT:      -6.6      2.982      4.389
  Name = 
  5 active torsions:
  status: ('A' for Active; 'I' for Inactive)
    1  A    between atoms: N_1  and  C_18
    2  A    between atoms: N_2  and  C_19
    3  A    between atoms: C_9  and  C_15
    4  A    between atoms: C_14  and  C_19
    5  A    between atoms: C_18  and  C_26
                            x       y       z     vdW  Elec       q    Type
                         _______ _______ _______ _____ _____    ______ ____

>  <TORSDO>
F 5

$$$$
=
 OpenBabel11052423193D

 27 29  0  0  0  0  0  0  0  0999 V2000
  160.9880  208.0310  152.5030 N   0  0  0  0  0  2  0  0  0  0  0  0
  160.6440  210.3370  152.8220 N   0  0  0  0  0  0  0  0  0  0  0  0
  160.6700  209.1410  153.3570 C   0  0  0  0  0  0  0  0  0  0  0  0
  159.1880  209.6920  155.2890 C   0  0  0  0  0  1  0  0  0  0  0  0
  161.2110  207.3480  157.2610 C   0  0  0  0  0  2  0  0  0  0  0  0
  160.3810  208.8590  154.8280 C   0  0  0  0  0  0  0  0  0  0  0  0
  161.5950  209.2610  155.6930 C   0  0  0  0  0  2  0  0  0  0  0  0
  161.4370  208.8510  157.1580 C   0  0  0  0  0  2  0  0  0  0  0  0
  159.9630  206.9600  156.4790 C   0  0  0  0  0  2  0  0  0  0  0  0
  160.1220  207.3530  155.0100 C   0  0  0  0  0  2  0  0  0  0  0  0
  160.8570  212.0360  154.4340 O   0  0  0  0  0  0  0  0  0  0  0  0
  160.3150  211.6250  153.3730 C   0  0  0  0  0  0  0  0  0  0  0  0
  157.2560  214.0440  151.5760 C   0  0  0  0  0  3  0  0  0  0  0  0
  158.4670  214.1450  149.4040 C   0  0  0  0  0  1  0  0  0  0  0  0
  159.3850  212.8960  151.3840 C   0  0  0  0  0  0  0  0  0  0  0  0
  160.4680  212.5760  150.6290 F   0  0  0  0  0  0  0  0  0  0  0  0
  159.2790  212.4630  152.7250 C   0  0  0  0  0  0  0  0  0  0  0  0
  158.3700  213.6820  150.8160 C   0  0  0  0  0  0  0  0  0  0  0  0
  158.1510  212.8410  153.4710 C   0  0  0  0  0  3  0  0  0  0  0  0
  157.1460  213.6250  152.9020 C   0  0  0  0  0  3  0  0  0  0  0  0
  161.2010  208.1530  151.0650 C   0  0  0  0  0  2  0  0  0  0  0  0
  161.1200  204.3980  150.5700 C   0  0  0  0  0  3  0  0  0  0  0  0
  160.9610  204.3040  149.1850 C   0  0  0  0  0  3  0  0  0  0  0  0
  161.1930  205.6520  151.1830 C   0  0  0  0  0  3  0  0  0  0  0  0
  160.8760  205.4660  148.4110 C   0  0  0  0  0  3  0  0  0  0  0  0
  160.9490  206.7210  149.0230 C   0  0  0  0  0  3  0  0  0  0  0  0
  161.1070  206.8160  150.4100 C   0  0  0  0  0  0  0  0  0  0  0  0
  1  3  1  0  0  0  0
  2  3  2  0  0  0  0
  2 12  1  0  0  0  0
  3  6  1  0  0  0  0
  6 10  1  0  0  0  0
  6  4  1  0  0  0  0
  6  7  1  0  0  0  0
  7  8  1  0  0  0  0
  8  5  1  0  0  0  0
  9  5  1  0  0  0  0
 10  9  1  0  0  0  0
 12 11  2  0  0  0  0
 13 20  1  0  0  0  0
 14 18  1  0  0  0  0
 15 17  2  0  0  0  0
 16 15  1  0  0  0  0
 17 12  1  0  0  0  0
 17 19  1  0  0  0  0
 18 15  1  0  0  0  0
 18 13  2  0  0  0  0
 20 19  2  0  0  0  0
 21  1  1  0  0  0  0
 22 24  1  0  0  0  0
 23 22  2  0  0  0  0
 25 26  2  0  0  0  0
 25 23  1  0  0  0  0
 26 27  1  0  0  0  0
 27 21  1  0  0  0  0
 27 24  2  0  0  0  0
M  END
>  <MODEL>
4

>  <REMARK>
 VINA RESULT:      -6.5      1.720      6.297
  Name = 
  5 active torsions:
  status: ('A' for Active; 'I' for Inactive)
    1  A    between atoms: N_1  and  C_18
    2  A    between atoms: N_2  and  C_19
    3  A    between atoms: C_9  and  C_15
    4  A    between atoms: C_14  and  C_19
    5  A    between atoms: C_18  and  C_26
                            x       y       z     vdW  Elec       q    Type
                         _______ _______ _______ _____ _____    ______ ____

>  <TORSDO>
F 5

$$$$
=
 OpenBabel11052423193D

 27 29  0  0  0  0  0  0  0  0999 V2000
  160.9890  206.8360  151.9390 N   0  0  0  0  0  2  0  0  0  0  0  0
  161.0930  209.1000  152.5710 N   0  0  0  0  0  0  0  0  0  0  0  0
  161.0530  207.8480  152.9560 C   0  0  0  0  0  0  0  0  0  0  0  0
  161.5670  205.9660  154.5120 C   0  0  0  0  0  1  0  0  0  0  0  0
  160.4830  208.1770  157.2350 C   0  0  0  0  0  2  0  0  0  0  0  0
  161.0680  207.4050  154.4150 C   0  0  0  0  0  0  0  0  0  0  0  0
  159.6380  207.4450  154.9950 C   0  0  0  0  0  2  0  0  0  0  0  0
  159.6050  207.1730  156.5010 C   0  0  0  0  0  2  0  0  0  0  0  0
  161.9150  208.0790  156.7250 C   0  0  0  0  0  2  0  0  0  0  0  0
  161.9560  208.3660  155.2240 C   0  0  0  0  0  2  0  0  0  0  0  0
  162.1570  210.7410  153.8770 O   0  0  0  0  0  0  0  0  0  0  0  0
  161.1050  210.3310  153.3150 C   0  0  0  0  0  0  0  0  0  0  0  0
  157.4560  212.5220  153.8850 C   0  0  0  0  0  3  0  0  0  0  0  0
  157.7110  213.7130  151.7150 C   0  0  0  0  0  1  0  0  0  0  0  0
  159.4010  212.0320  152.5180 C   0  0  0  0  0  0  0  0  0  0  0  0
  160.1170  212.2720  151.3890 F   0  0  0  0  0  0  0  0  0  0  0  0
  159.8530  211.1060  153.4840 C   0  0  0  0  0  0  0  0  0  0  0  0
  158.2020  212.7330  152.7240 C   0  0  0  0  0  0  0  0  0  0  0  0
  159.0880  210.9110  154.6460 C   0  0  0  0  0  3  0  0  0  0  0  0
  157.9000  211.6130  154.8460 C   0  0  0  0  0  3  0  0  0  0  0  0
  160.8830  207.1270  150.5140 C   0  0  0  0  0  2  0  0  0  0  0  0
  161.3970  204.7650  147.5970 C   0  0  0  0  0  3  0  0  0  0  0  0
  161.2060  203.5230  148.2080 C   0  0  0  0  0  3  0  0  0  0  0  0
  161.2960  205.9390  148.3490 C   0  0  0  0  0  3  0  0  0  0  0  0
  160.9140  203.4540  149.5750 C   0  0  0  0  0  3  0  0  0  0  0  0
  160.8140  204.6280  150.3280 C   0  0  0  0  0  3  0  0  0  0  0  0
  161.0050  205.8720  149.7170 C   0  0  0  0  0  0  0  0  0  0  0  0
  1  3  1  0  0  0  0
  2  3  2  0  0  0  0
  2 12  1  0  0  0  0
  3  6  1  0  0  0  0
  6  4  1  0  0  0  0
  6  7  1  0  0  0  0
  6 10  1  0  0  0  0
  7  8  1  0  0  0  0
  8  5  1  0  0  0  0
  9  5  1  0  0  0  0
 10  9  1  0  0  0  0
 12 17  1  0  0  0  0
 12 11  2  0  0  0  0
 13 20  1  0  0  0  0
 14 18  1  0  0  0  0
 15 18  1  0  0  0  0
 15 17  2  0  0  0  0
 16 15  1  0  0  0  0
 17 19  1  0  0  0  0
 18 13  2  0  0  0  0
 19 20  2  0  0  0  0
 21  1  1  0  0  0  0
 22 23  2  0  0  0  0
 22 24  1  0  0  0  0
 23 25  1  0  0  0  0
 24 27  2  0  0  0  0
 25 26  2  0  0  0  0
 27 26  1  0  0  0  0
 27 21  1  0  0  0  0
M  END
>  <MODEL>
5

>  <REMARK>
 VINA RESULT:      -6.4      1.985      6.698
  Name = 
  5 active torsions:
  status: ('A' for Active; 'I' for Inactive)
    1  A    between atoms: N_1  and  C_18
    2  A    between atoms: N_2  and  C_19
    3  A    between atoms: C_9  and  C_15
    4  A    between atoms: C_14  and  C_19
    5  A    between atoms: C_18  and  C_26
                            x       y       z     vdW  Elec       q    Type
                         _______ _______ _______ _____ _____    ______ ____

>  <TORSDO>
F 5

$$$$
=
 OpenBabel11052423193D

 27 29  0  0  0  0  0  0  0  0999 V2000
  161.4400  207.5940  151.8910 N   0  0  0  0  0  2  0  0  0  0  0  0
  161.1570  209.6830  152.9350 N   0  0  0  0  0  0  0  0  0  0  0  0
  161.2080  208.3810  153.0700 C   0  0  0  0  0  0  0  0  0  0  0  0
  161.4310  206.1890  154.2430 C   0  0  0  0  0  1  0  0  0  0  0  0
  160.1860  207.8910  157.2480 C   0  0  0  0  0  2  0  0  0  0  0  0
  161.0340  207.6550  154.4000 C   0  0  0  0  0  0  0  0  0  0  0  0
  159.5530  207.6950  154.8350 C   0  0  0  0  0  2  0  0  0  0  0  0
  159.3370  207.1300  156.2400 C   0  0  0  0  0  2  0  0  0  0  0  0
  161.6570  207.7810  156.8690 C   0  0  0  0  0  2  0  0  0  0  0  0
  161.8830  208.3590  155.4720 C   0  0  0  0  0  2  0  0  0  0  0  0
  161.7610  211.0820  154.7260 O   0  0  0  0  0  0  0  0  0  0  0  0
  160.8920  210.7340  153.8810 C   0  0  0  0  0  0  0  0  0  0  0  0
  157.0530  212.6580  153.8850 C   0  0  0  0  0  3  0  0  0  0  0  0
  156.5420  211.8630  156.1870 C   0  0  0  0  0  1  0  0  0  0  0  0
  158.7040  211.2990  155.0330 C   0  0  0  0  0  0  0  0  0  0  0  0
  159.0620  210.5910  156.1360 F   0  0  0  0  0  0  0  0  0  0  0  0
  159.5600  211.3830  153.9130 C   0  0  0  0  0  0  0  0  0  0  0  0
  157.4550  211.9410  155.0130 C   0  0  0  0  0  0  0  0  0  0  0  0
  159.1340  212.1080  152.7870 C   0  0  0  0  0  3  0  0  0  0  0  0
  157.8910  212.7410  152.7720 C   0  0  0  0  0  3  0  0  0  0  0  0
  161.5390  208.1560  150.5490 C   0  0  0  0  0  2  0  0  0  0  0  0
  161.0380  204.7840  148.8980 C   0  0  0  0  0  3  0  0  0  0  0  0
  161.5700  205.0160  147.6260 C   0  0  0  0  0  3  0  0  0  0  0  0
  161.0240  205.8090  149.8480 C   0  0  0  0  0  3  0  0  0  0  0  0
  162.0870  206.2750  147.3040 C   0  0  0  0  0  3  0  0  0  0  0  0
  162.0740  207.3010  148.2540 C   0  0  0  0  0  3  0  0  0  0  0  0
  161.5410  207.0690  149.5280 C   0  0  0  0  0  0  0  0  0  0  0  0
  1  3  1  0  0  0  0
  2  3  2  0  0  0  0
  2 12  1  0  0  0  0
  3  6  1  0  0  0  0
  4  6  1  0  0  0  0
  6  7  1  0  0  0  0
  6 10  1  0  0  0  0
  7  8  1  0  0  0  0
  8  5  1  0  0  0  0
  9  5  1  0  0  0  0
 10  9  1  0  0  0  0
 12 17  1  0  0  0  0
 12 11  2  0  0  0  0
 13 18  1  0  0  0  0
 15 16  1  0  0  0  0
 17 15  1  0  0  0  0
 18 15  2  0  0  0  0
 18 14  1  0  0  0  0
 19 17  2  0  0  0  0
 20 19  1  0  0  0  0
 20 13  2  0  0  0  0
 21  1  1  0  0  0  0
 22 24  1  0  0  0  0
 23 22  2  0  0  0  0
 25 23  1  0  0  0  0
 25 26  2  0  0  0  0
 26 27  1  0  0  0  0
 27 24  2  0  0  0  0
 27 21  1  0  0  0  0
M  END
>  <MODEL>
6

>  <REMARK>
 VINA RESULT:      -6.3      2.507      6.668
  Name = 
  5 active torsions:
  status: ('A' for Active; 'I' for Inactive)
    1  A    between atoms: N_1  and  C_18
    2  A    between atoms: N_2  and  C_19
    3  A    between atoms: C_9  and  C_15
    4  A    between atoms: C_14  and  C_19
    5  A    between atoms: C_18  and  C_26
                            x       y       z     vdW  Elec       q    Type
                         _______ _______ _______ _____ _____    ______ ____

>  <TORSDO>
F 5

$$$$
=
 OpenBabel11052423193D

 27 29  0  0  0  0  0  0  0  0999 V2000
  161.6050  208.0180  149.4160 N   0  0  0  0  0  2  0  0  0  0  0  0
  161.9560  210.2160  148.6540 N   0  0  0  0  0  0  0  0  0  0  0  0
  161.7630  209.4210  149.6780 C   0  0  0  0  0  0  0  0  0  0  0  0
  163.0820  210.3280  151.5930 C   0  0  0  0  0  1  0  0  0  0  0  0
  159.9480  210.3190  153.5040 C   0  0  0  0  0  2  0  0  0  0  0  0
  161.6950  209.8970  151.1250 C   0  0  0  0  0  0  0  0  0  0  0  0
  161.2290  208.7440  152.0400 C   0  0  0  0  0  2  0  0  0  0  0  0
  160.9780  209.1990  153.4790 C   0  0  0  0  0  2  0  0  0  0  0  0
  160.4440  211.4940  152.6720 C   0  0  0  0  0  2  0  0  0  0  0  0
  160.6810  211.0500  151.2280 C   0  0  0  0  0  2  0  0  0  0  0  0
  163.2090  212.2040  148.7520 O   0  0  0  0  0  0  0  0  0  0  0  0
  162.0940  211.6460  148.5650 C   0  0  0  0  0  0  0  0  0  0  0  0
  158.6490  214.1280  147.9220 C   0  0  0  0  0  3  0  0  0  0  0  0
  158.1520  213.0490  145.7350 C   0  0  0  0  0  1  0  0  0  0  0  0
  160.1160  212.3570  147.1450 C   0  0  0  0  0  0  0  0  0  0  0  0
  160.4380  211.4540  146.1830 F   0  0  0  0  0  0  0  0  0  0  0  0
  160.9020  212.4890  148.3110 C   0  0  0  0  0  0  0  0  0  0  0  0
  158.9910  213.1760  146.9590 C   0  0  0  0  0  0  0  0  0  0  0  0
  160.5410  213.4550  149.2660 C   0  0  0  0  0  3  0  0  0  0  0  0
  159.4240  214.2680  149.0740 C   0  0  0  0  0  3  0  0  0  0  0  0
  161.5650  207.4450  148.0750 C   0  0  0  0  0  2  0  0  0  0  0  0
  160.9120  203.9620  149.4160 C   0  0  0  0  0  3  0  0  0  0  0  0
  161.2050  203.1760  148.2980 C   0  0  0  0  0  3  0  0  0  0  0  0
  161.0250  205.3540  149.3410 C   0  0  0  0  0  3  0  0  0  0  0  0
  161.6110  203.7810  147.1040 C   0  0  0  0  0  3  0  0  0  0  0  0
  161.7240  205.1730  147.0290 C   0  0  0  0  0  3  0  0  0  0  0  0
  161.4310  205.9610  148.1470 C   0  0  0  0  0  0  0  0  0  0  0  0
  1  3  1  0  0  0  0
  2  3  2  0  0  0  0
  3  6  1  0  0  0  0
  6 10  1  0  0  0  0
  6  4  1  0  0  0  0
  6  7  1  0  0  0  0
  7  8  1  0  0  0  0
  8  5  1  0  0  0  0
  9  5  1  0  0  0  0
 10  9  1  0  0  0  0
 12  2  1  0  0  0  0
 12 11  2  0  0  0  0
 13 20  1  0  0  0  0
 14 18  1  0  0  0  0
 15 17  2  0  0  0  0
 16 15  1  0  0  0  0
 17 12  1  0  0  0  0
 17 19  1  0  0  0  0
 18 15  1  0  0  0  0
 18 13  2  0  0  0  0
 20 19  2  0  0  0  0
 21 27  1  0  0  0  0
 21  1  1  0  0  0  0
 23 22  2  0  0  0  0
 24 22  1  0  0  0  0
 25 23  1  0  0  0  0
 26 25  2  0  0  0  0
 26 27  1  0  0  0  0
 27 24  2  0  0  0  0
M  END
>  <MODEL>
7

>  <REMARK>
 VINA RESULT:      -6.3      2.777      7.105
  Name = 
  5 active torsions:
  status: ('A' for Active; 'I' for Inactive)
    1  A    between atoms: N_1  and  C_18
    2  A    between atoms: N_2  and  C_19
    3  A    between atoms: C_9  and  C_15
    4  A    between atoms: C_14  and  C_19
    5  A    between atoms: C_18  and  C_26
                            x       y       z     vdW  Elec       q    Type
                         _______ _______ _______ _____ _____    ______ ____

>  <TORSDO>
F 5

$$$$
=
 OpenBabel11052423193D

 27 29  0  0  0  0  0  0  0  0999 V2000
  161.9720  209.5020  148.4250 N   0  0  0  0  0  2  0  0  0  0  0  0
  162.3000  208.3330  150.4400 N   0  0  0  0  0  0  0  0  0  0  0  0
  161.9290  208.2840  149.1840 C   0  0  0  0  0  0  0  0  0  0  0  0
  160.4560  206.2780  149.3750 C   0  0  0  0  0  1  0  0  0  0  0  0
  161.6870  205.2990  146.0570 C   0  0  0  0  0  2  0  0  0  0  0  0
  161.4540  207.0140  148.4850 C   0  0  0  0  0  0  0  0  0  0  0  0
  162.6480  206.0680  148.2370 C   0  0  0  0  0  2  0  0  0  0  0  0
  162.2690  204.8510  147.3910 C   0  0  0  0  0  2  0  0  0  0  0  0
  160.4560  206.1630  146.2980 C   0  0  0  0  0  2  0  0  0  0  0  0
  160.8320  207.3900  147.1290 C   0  0  0  0  0  2  0  0  0  0  0  0
  162.9340  206.2390  151.3040 O   0  0  0  0  0  0  0  0  0  0  0  0
  162.3230  207.3290  151.4710 C   0  0  0  0  0  0  0  0  0  0  0  0
  160.1300  207.8520  155.1260 C   0  0  0  0  0  3  0  0  0  0  0  0
  160.0930  210.3270  154.8700 C   0  0  0  0  0  1  0  0  0  0  0  0
  161.2060  208.8320  153.1830 C   0  0  0  0  0  0  0  0  0  0  0  0
  161.5560  209.9440  152.4860 F   0  0  0  0  0  0  0  0  0  0  0  0
  161.5710  207.5440  152.7290 C   0  0  0  0  0  0  0  0  0  0  0  0
  160.4850  208.9770  154.3790 C   0  0  0  0  0  0  0  0  0  0  0  0
  161.2060  206.4260  153.4980 C   0  0  0  0  0  3  0  0  0  0  0  0
  160.4910  206.5780  154.6870 C   0  0  0  0  0  3  0  0  0  0  0  0
  162.3240  210.7980  148.9940 C   0  0  0  0  0  2  0  0  0  0  0  0
  160.5310  212.8460  146.3600 C   0  0  0  0  0  3  0  0  0  0  0  0
  161.4000  213.9300  146.2120 C   0  0  0  0  0  3  0  0  0  0  0  0
  160.8300  211.8280  147.2700 C   0  0  0  0  0  3  0  0  0  0  0  0
  162.5710  213.9970  146.9750 C   0  0  0  0  0  3  0  0  0  0  0  0
  162.8710  212.9790  147.8860 C   0  0  0  0  0  3  0  0  0  0  0  0
  162.0000  211.8930  148.0350 C   0  0  0  0  0  0  0  0  0  0  0  0
  1 21  1  0  0  0  0
  1  3  1  0  0  0  0
  2 12  1  0  0  0  0
  3  2  2  0  0  0  0
  5  9  1  0  0  0  0
  5  8  1  0  0  0  0
  6  3  1  0  0  0  0
  6  4  1  0  0  0  0
  7  6  1  0  0  0  0
  8  7  1  0  0  0  0
  9 10  1  0  0  0  0
 10  6  1  0  0  0  0
 11 12  2  0  0  0  0
 12 17  1  0  0  0  0
 15 18  1  0  0  0  0
 16 15  1  0  0  0  0
 17 15  2  0  0  0  0
 17 19  1  0  0  0  0
 18 14  1  0  0  0  0
 18 13  2  0  0  0  0
 19 20  2  0  0  0  0
 20 13  1  0  0  0  0
 22 24  1  0  0  0  0
 23 22  2  0  0  0  0
 23 25  1  0  0  0  0
 24 27  2  0  0  0  0
 25 26  2  0  0  0  0
 26 27  1  0  0  0  0
 27 21  1  0  0  0  0
M  END
>  <MODEL>
8

>  <REMARK>
 VINA RESULT:      -6.2      3.481      6.306
  Name = 
  5 active torsions:
  status: ('A' for Active; 'I' for Inactive)
    1  A    between atoms: N_1  and  C_18
    2  A    between atoms: N_2  and  C_19
    3  A    between atoms: C_9  and  C_15
    4  A    between atoms: C_14  and  C_19
    5  A    between atoms: C_18  and  C_26
                            x       y       z     vdW  Elec       q    Type
                         _______ _______ _______ _____ _____    ______ ____

>  <TORSDO>
F 5

$$$$
=
 OpenBabel11052423193D

 27 29  0  0  0  0  0  0  0  0999 V2000
  162.0190  209.4310  148.5330 N   0  0  0  0  0  2  0  0  0  0  0  0
  162.0570  208.4690  150.6790 N   0  0  0  0  0  0  0  0  0  0  0  0
  161.8000  208.3110  149.4040 C   0  0  0  0  0  0  0  0  0  0  0  0
  160.0940  206.5000  149.6020 C   0  0  0  0  0  1  0  0  0  0  0  0
  161.6490  204.9780  146.6450 C   0  0  0  0  0  2  0  0  0  0  0  0
  161.2830  207.0120  148.7930 C   0  0  0  0  0  0  0  0  0  0  0  0
  162.3830  205.9300  148.8400 C   0  0  0  0  0  2  0  0  0  0  0  0
  161.9870  204.6550  148.0940 C   0  0  0  0  0  2  0  0  0  0  0  0
  160.5050  205.9810  146.5940 C   0  0  0  0  0  2  0  0  0  0  0  0
  160.9010  207.2650  147.3250 C   0  0  0  0  0  2  0  0  0  0  0  0
  162.2620  206.3800  151.7410 O   0  0  0  0  0  0  0  0  0  0  0  0
  161.8980  207.5860  151.8040 C   0  0  0  0  0  0  0  0  0  0  0  0
  160.0050  209.0920  155.3520 C   0  0  0  0  0  3  0  0  0  0  0  0
  160.0160  206.8510  156.4340 C   0  0  0  0  0  1  0  0  0  0  0  0
  160.9480  207.2200  154.1270 C   0  0  0  0  0  0  0  0  0  0  0  0
  161.2360  205.8940  154.0740 F   0  0  0  0  0  0  0  0  0  0  0  0
  161.2420  208.0730  153.0400 C   0  0  0  0  0  0  0  0  0  0  0  0
  160.3320  207.7370  155.2790 C   0  0  0  0  0  0  0  0  0  0  0  0
  160.9010  209.4330  153.1340 C   0  0  0  0  0  3  0  0  0  0  0  0
  160.2880  209.9390  154.2800 C   0  0  0  0  0  3  0  0  0  0  0  0
  162.4280  210.7510  149.0000 C   0  0  0  0  0  2  0  0  0  0  0  0
  162.5530  213.8300  146.7960 C   0  0  0  0  0  3  0  0  0  0  0  0
  161.3000  213.7790  146.1790 C   0  0  0  0  0  3  0  0  0  0  0  0
  162.9220  212.8400  147.7110 C   0  0  0  0  0  3  0  0  0  0  0  0
  160.4150  212.7380  146.4770 C   0  0  0  0  0  3  0  0  0  0  0  0
  160.7830  211.7480  147.3930 C   0  0  0  0  0  3  0  0  0  0  0  0
  162.0380  211.7970  148.0110 C   0  0  0  0  0  0  0  0  0  0  0  0
  1 21  1  0  0  0  0
  1  3  1  0  0  0  0
  2 12  1  0  0  0  0
  3  2  2  0  0  0  0
  5  8  1  0  0  0  0
  6  7  1  0  0  0  0
  6  3  1  0  0  0  0
  6  4  1  0  0  0  0
  8  7  1  0  0  0  0
  9  5  1  0  0  0  0
  9 10  1  0  0  0  0
 10  6  1  0  0  0  0
 11 12  2  0  0  0  0
 12 17  1  0  0  0  0
 15 18  2  0  0  0  0
 16 15  1  0  0  0  0
 17 19  2  0  0  0  0
 17 15  1  0  0  0  0
 18 13  1  0  0  0  0
 18 14  1  0  0  0  0
 19 20  1  0  0  0  0
 20 13  2  0  0  0  0
 22 24  1  0  0  0  0
 23 25  1  0  0  0  0
 23 22  2  0  0  0  0
 24 27  2  0  0  0  0
 25 26  2  0  0  0  0
 26 27  1  0  0  0  0
 27 21  1  0  0  0  0
M  END
>  <MODEL>
9

>  <REMARK>
 VINA RESULT:      -6.0      3.543      6.327
  Name = 
  5 active torsions:
  status: ('A' for Active; 'I' for Inactive)
    1  A    between atoms: N_1  and  C_18
    2  A    between atoms: N_2  and  C_19
    3  A    between atoms: C_9  and  C_15
    4  A    between atoms: C_14  and  C_19
    5  A    between atoms: C_18  and  C_26
                            x       y       z     vdW  Elec       q    Type
                         _______ _______ _______ _____ _____    ______ ____

>  <TORSDO>
F 5

$$$$
