=
 OpenBabel11062409113D

 37 42  0  0  1  0  0  0  0  0999 V2000
  160.3800  204.4070  151.4710 C   0  0  0  0  0  2  0  0  0  0  0  0
  162.3230  208.0510  149.6880 C   0  0  1  0  0  3  0  0  0  0  0  0
  162.0160  211.6370  151.0280 C   0  0  0  0  0  2  0  0  0  0  0  0
  161.7220  206.4120  151.2700 C   0  0  2  0  0  0  0  0  0  0  0  0
  161.5610  209.1290  150.4890 C   0  0  2  0  0  3  0  0  0  0  0  0
  162.7560  206.9310  150.4510 O   0  0  0  0  0  0  0  0  0  0  0  0
  162.0190  210.5180  149.9850 C   0  0  1  0  0  3  0  0  0  0  0  0
  161.0650  207.4270  152.2050 C   0  0  1  0  0  3  0  0  0  0  0  0
  162.3110  205.5810  152.3900 C   0  0  1  0  0  3  0  0  0  0  0  0
  161.5970  208.8310  147.4030 C   0  0  0  0  0  2  0  0  0  0  0  0
  161.6710  206.6370  153.7290 S   0  0  0  0  0  0  0  0  0  0  0  0
  160.6170  211.9680  151.5550 C   0  0  0  0  0  2  0  0  0  0  0  0
  161.6270  207.6570  148.3770 C   0  0  1  0  0  3  0  0  0  0  0  0
  161.6380  208.8310  152.0100 C   0  0  2  0  0  3  0  0  0  0  0  0
  160.7270  205.5370  150.5260 C   0  0  0  0  0  2  0  0  0  0  0  0
  161.2720  210.9880  148.7170 C   0  0  2  0  0  3  0  0  0  0  0  0
  161.5860  204.2440  152.3750 C   0  0  0  0  0  2  0  0  0  0  0  0
  159.9240  210.7450  152.1650 C   0  0  1  0  0  3  0  0  0  0  0  0
  160.8620  209.7950  152.9370 C   0  0  2  0  0  3  0  0  0  0  0  0
  160.6130  209.8980  147.8580 C   0  0  0  0  0  2  0  0  0  0  0  0
  163.4960  212.2670  148.3240 C   0  0  0  0  0  2  0  0  0  0  0  0
  162.0930  211.9420  147.8980 C   0  0  0  0  0  0  0  0  0  0  0  0
  161.5930  212.5460  146.8100 C   0  0  0  0  0  3  0  0  0  0  0  0
  161.4590  214.4490  144.9130 Cl  0  0  0  0  0  0  0  0  0  0  0  0
  163.2130  214.4530  146.9910 C   0  0  0  0  0  2  0  0  0  0  0  0
  162.4560  213.5080  146.0450 C   0  0  1  0  0  3  0  0  0  0  0  0
  163.7120  213.7850  148.2910 C   0  0  0  0  0  2  0  0  0  0  0  0
  161.5000  205.8880  146.6210 C   0  0  0  0  0  1  0  0  0  0  0  0
  162.3580  206.4980  147.7120 C   0  0  0  0  0  2  0  0  0  0  0  0
  158.6680  210.7530  154.3600 C   0  0  0  0  0  1  0  0  0  0  0  0
  158.6210  211.1120  152.8820 C   0  0  1  0  0  3  0  0  0  0  0  0
  157.1530  212.9080  153.5630 O   0  0  0  0  0  1  0  0  0  0  0  0
  158.1430  212.5460  152.6470 C   0  0  0  0  0  2  0  0  0  0  0  0
  161.8070  210.5520  153.8790 C   0  0  0  0  0  2  0  0  0  0  0  0
  161.8970  209.9110  155.2210 C   0  0  0  0  0  0  0  0  0  0  0  0
  162.7860  210.4050  156.1650 O   0  0  0  0  0  1  0  0  0  0  0  0
  161.1800  208.9140  155.4930 O   0  0  0  0  0  0  0  0  0  0  0  0
  1 17  1  0  0  0  0
  2  6  1  1  0  0  0
  2  5  1  0  0  0  0
  3 12  1  0  0  0  0
  4 15  1  6  0  0  0
  4  8  1  0  0  0  0
  4  9  1  0  0  0  0
  5 14  1  0  0  0  0
  6  4  1  0  0  0  0
  7  5  1  0  0  0  0
  7  3  1  0  0  0  0
  8 11  1  0  0  0  0
  9 11  1  0  0  0  0
 10 20  1  0  0  0  0
 10 13  1  0  0  0  0
 12 18  1  0  0  0  0
 13  2  1  0  0  0  0
 14  8  1  0  0  0  0
 14 19  1  0  0  0  0
 15  1  1  0  0  0  0
 16  7  1  0  0  0  0
 17  9  1  0  0  0  0
 18 31  1  0  0  0  0
 18 19  1  0  0  0  0
 19 34  1  0  0  0  0
 20 16  1  0  0  0  0
 22 21  1  0  0  0  0
 22 16  1  0  0  0  0
 23 22  2  0  0  0  0
 24 26  1  0  0  0  0
 25 27  1  0  0  0  0
 26 23  1  0  0  0  0
 26 25  1  0  0  0  0
 27 21  1  0  0  0  0
 28 29  1  0  0  0  0
 29 13  1  0  0  0  0
 31 30  1  0  0  0  0
 33 31  1  0  0  0  0
 33 32  1  0  0  0  0
 34 35  1  0  0  0  0
 35 37  2  0  0  0  0
 35 36  1  0  0  0  0
M  END
>  <MODEL>
1

>  <REMARK>
 VINA RESULT:      -0.8      0.000      0.000
  Name = 
  6 active torsions:
  status: ('A' for Active; 'I' for Inactive)
    1  A    between atoms: C_1  and  C_5
    2  A    between atoms: C_1  and  C_36
    3  A    between atoms: C_6  and  C_31
    4  A    between atoms: C_24  and  C_28
    5  A    between atoms: C_26  and  C_33
    6  A    between atoms: C_26  and  C_34
                            x       y       z     vdW  Elec       q    Type
                         _______ _______ _______ _____ _____    ______ ____

>  <TORSDO>
F 6

$$$$
=
 OpenBabel11062409113D

 37 42  0  0  1  0  0  0  0  0999 V2000
  162.0120  201.0390  151.4090 C   0  0  0  0  0  2  0  0  0  0  0  0
  160.7580  205.3220  150.8370 C   0  0  1  0  0  3  0  0  0  0  0  0
  160.7740  207.2360  147.5070 C   0  0  0  0  0  2  0  0  0  0  0  0
  160.8380  202.9830  150.5660 C   0  0  2  0  0  0  0  0  0  0  0  0
  161.2920  205.5240  149.4020 C   0  0  2  0  0  3  0  0  0  0  0  0
  160.0950  204.0830  151.0610 O   0  0  0  0  0  0  0  0  0  0  0  0
  161.0350  206.9940  148.9950 C   0  0  1  0  0  3  0  0  0  0  0  0
  161.2320  203.0780  149.0920 C   0  0  1  0  0  3  0  0  0  0  0  0
  159.9330  201.7850  150.3710 C   0  0  1  0  0  3  0  0  0  0  0  0
  162.1240  207.1510  151.9070 C   0  0  0  0  0  2  0  0  0  0  0  0
  160.1960  201.6730  148.5720 S   0  0  0  0  0  0  0  0  0  0  0  0
  161.9750  206.8960  146.6200 C   0  0  0  0  0  2  0  0  0  0  0  0
  161.7860  205.6630  151.9260 C   0  0  1  0  0  3  0  0  0  0  0  0
  160.7770  204.3970  148.4670 C   0  0  2  0  0  3  0  0  0  0  0  0
  161.9790  202.5510  151.4740 C   0  0  0  0  0  2  0  0  0  0  0  0
  162.1240  207.9690  149.4960 C   0  0  2  0  0  3  0  0  0  0  0  0
  160.5940  200.6130  151.0800 C   0  0  0  0  0  2  0  0  0  0  0  0
  162.4310  205.4440  146.7950 C   0  0  1  0  0  3  0  0  0  0  0  0
  161.2860  204.4320  147.0070 C   0  0  2  0  0  3  0  0  0  0  0  0
  162.9680  207.5080  150.6930 C   0  0  0  0  0  2  0  0  0  0  0  0
  161.5540  210.2960  148.4960 C   0  0  0  0  0  2  0  0  0  0  0  0
  161.5960  209.3640  149.6730 C   0  0  0  0  0  0  0  0  0  0  0  0
  161.1930  209.8170  150.8690 C   0  0  0  0  0  3  0  0  0  0  0  0
  160.6040  211.6980  152.7000 Cl  0  0  0  0  0  0  0  0  0  0  0  0
  161.6040  212.2060  150.2230 C   0  0  0  0  0  2  0  0  0  0  0  0
  160.6970  211.2290  150.9890 C   0  0  1  0  0  3  0  0  0  0  0  0
  162.1470  211.6550  148.8870 C   0  0  0  0  0  2  0  0  0  0  0  0
  160.8900  206.5690  154.0720 C   0  0  0  0  0  1  0  0  0  0  0  0
  161.2400  205.3100  153.3030 C   0  0  0  0  0  2  0  0  0  0  0  0
  164.4060  203.9470  146.2920 C   0  0  0  0  0  1  0  0  0  0  0  0
  163.4870  205.0370  145.7630 C   0  0  1  0  0  3  0  0  0  0  0  0
  162.1570  205.7560  143.8760 O   0  0  0  0  0  1  0  0  0  0  0  0
  162.9320  204.7070  144.3760 C   0  0  0  0  0  2  0  0  0  0  0  0
  160.1350  204.6430  146.0160 C   0  0  0  0  0  2  0  0  0  0  0  0
  159.9910  203.5030  145.0690 C   0  0  0  0  0  0  0  0  0  0  0  0
  160.7360  202.3470  145.2590 O   0  0  0  0  0  1  0  0  0  0  0  0
  159.2060  203.5900  144.0900 O   0  0  0  0  0  0  0  0  0  0  0  0
  1 15  1  0  0  0  0
  2  6  1  6  0  0  0
  2 13  1  0  0  0  0
  3  7  1  0  0  0  0
  4  6  1  0  0  0  0
  4 15  1  1  0  0  0
  5  2  1  0  0  0  0
  7  5  1  0  0  0  0
  7 16  1  0  0  0  0
  8  4  1  0  0  0  0
  9  4  1  0  0  0  0
  9 17  1  0  0  0  0
 10 13  1  0  0  0  0
 11  8  1  0  0  0  0
 11  9  1  0  0  0  0
 12 18  1  0  0  0  0
 12  3  1  0  0  0  0
 13 29  1  0  0  0  0
 14  8  1  0  0  0  0
 14  5  1  0  0  0  0
 16 22  1  0  0  0  0
 16 20  1  0  0  0  0
 17  1  1  0  0  0  0
 18 19  1  0  0  0  0
 19 14  1  0  0  0  0
 20 10  1  0  0  0  0
 21 27  1  0  0  0  0
 21 22  1  0  0  0  0
 22 23  2  0  0  0  0
 23 26  1  0  0  0  0
 25 26  1  0  0  0  0
 26 24  1  0  0  0  0
 27 25  1  0  0  0  0
 29 28  1  0  0  0  0
 31 30  1  0  0  0  0
 31 18  1  0  0  0  0
 32 33  1  0  0  0  0
 33 31  1  0  0  0  0
 34 19  1  0  0  0  0
 35 36  1  0  0  0  0
 35 34  1  0  0  0  0
 37 35  2  0  0  0  0
M  END
>  <MODEL>
2

>  <REMARK>
 VINA RESULT:      -0.4      3.586      7.290
  Name = 
  6 active torsions:
  status: ('A' for Active; 'I' for Inactive)
    1  A    between atoms: C_1  and  C_5
    2  A    between atoms: C_1  and  C_36
    3  A    between atoms: C_6  and  C_31
    4  A    between atoms: C_24  and  C_28
    5  A    between atoms: C_26  and  C_33
    6  A    between atoms: C_26  and  C_34
                            x       y       z     vdW  Elec       q    Type
                         _______ _______ _______ _____ _____    ______ ____

>  <TORSDO>
F 6

$$$$
=
 OpenBabel11062409113D

 37 42  0  0  1  0  0  0  0  0999 V2000
  163.4690  212.8770  148.1710 C   0  0  0  0  0  2  0  0  0  0  0  0
  161.4410  209.0410  149.3580 C   0  0  1  0  0  3  0  0  0  0  0  0
  160.0240  208.2390  152.8370 C   0  0  0  0  0  2  0  0  0  0  0  0
  161.7900  211.3440  149.0050 C   0  0  2  0  0  0  0  0  0  0  0  0
  161.4170  209.2620  150.8870 C   0  0  2  0  0  3  0  0  0  0  0  0
  161.0960  210.1820  148.5820 O   0  0  0  0  0  0  0  0  0  0  0  0
  160.8100  208.0010  151.5460 C   0  0  1  0  0  3  0  0  0  0  0  0
  161.6390  211.6860  150.4870 C   0  0  1  0  0  3  0  0  0  0  0  0
  161.0720  212.5860  148.5210 C   0  0  1  0  0  3  0  0  0  0  0  0
  162.7850  206.9090  149.4020 C   0  0  0  0  0  2  0  0  0  0  0  0
  160.7220  213.2310  150.1890 S   0  0  0  0  0  0  0  0  0  0  0  0
  160.8890  208.7750  153.9810 C   0  0  0  0  0  2  0  0  0  0  0  0
  162.7110  208.3340  148.8620 C   0  0  1  0  0  3  0  0  0  0  0  0
  160.7980  210.6440  151.2260 C   0  0  2  0  0  3  0  0  0  0  0  0
  163.2240  211.4220  148.5050 C   0  0  0  0  0  2  0  0  0  0  0  0
  161.8370  206.8680  151.7650 C   0  0  2  0  0  3  0  0  0  0  0  0
  162.1090  213.4520  147.8230 C   0  0  0  0  0  2  0  0  0  0  0  0
  161.5990  210.0800  153.6070 C   0  0  1  0  0  3  0  0  0  0  0  0
  160.7680  211.0320  152.7230 C   0  0  2  0  0  3  0  0  0  0  0  0
  163.0990  206.8990  150.8900 C   0  0  0  0  0  2  0  0  0  0  0  0
  160.8680  204.8630  153.0990 C   0  0  0  0  0  2  0  0  0  0  0  0
  161.1890  205.5130  151.7840 C   0  0  0  0  0  0  0  0  0  0  0  0
  160.9220  204.8450  150.6520 C   0  0  0  0  0  3  0  0  0  0  0  0
  160.4080  202.6640  149.1620 Cl  0  0  0  0  0  0  0  0  0  0  0  0
  160.9620  202.6270  151.8240 C   0  0  0  0  0  2  0  0  0  0  0  0
  160.2950  203.4830  150.7360 C   0  0  1  0  0  3  0  0  0  0  0  0
  161.3580  203.4100  153.0950 C   0  0  0  0  0  2  0  0  0  0  0  0
  162.1170  206.9750  146.8550 C   0  0  0  0  0  1  0  0  0  0  0  0
  162.7280  208.2750  147.3400 C   0  0  0  0  0  2  0  0  0  0  0  0
  161.7770  210.1760  156.1270 C   0  0  0  0  0  1  0  0  0  0  0  0
  162.2910  210.7310  154.8080 C   0  0  1  0  0  3  0  0  0  0  0  0
  164.3770  211.3220  155.8790 O   0  0  0  0  0  1  0  0  0  0  0  0
  163.8190  210.7420  154.7370 C   0  0  0  0  0  2  0  0  0  0  0  0
  159.3310  211.1910  153.2330 C   0  0  0  0  0  2  0  0  0  0  0  0
  159.0600  212.5660  153.7370 C   0  0  0  0  0  0  0  0  0  0  0  0
  159.5560  212.9590  154.9730 O   0  0  0  0  0  1  0  0  0  0  0  0
  158.3710  213.3650  153.0530 O   0  0  0  0  0  0  0  0  0  0  0  0
  1 15  1  0  0  0  0
  2  6  1  6  0  0  0
  2  5  1  0  0  0  0
  3 12  1  0  0  0  0
  4 15  1  6  0  0  0
  4  8  1  0  0  0  0
  5 14  1  0  0  0  0
  5  7  1  0  0  0  0
  6  4  1  0  0  0  0
  7 16  1  0  0  0  0
  7  3  1  0  0  0  0
  8 14  1  0  0  0  0
  9  4  1  0  0  0  0
  9 11  1  0  0  0  0
 10 20  1  0  0  0  0
 11  8  1  0  0  0  0
 13  2  1  0  0  0  0
 13 10  1  0  0  0  0
 14 19  1  0  0  0  0
 16 22  1  0  0  0  0
 17  1  1  0  0  0  0
 17  9  1  0  0  0  0
 18 12  1  0  0  0  0
 18 31  1  0  0  0  0
 19 34  1  0  0  0  0
 19 18  1  0  0  0  0
 20 16  1  0  0  0  0
 22 21  1  0  0  0  0
 23 26  1  0  0  0  0
 23 22  2  0  0  0  0
 24 26  1  0  0  0  0
 25 27  1  0  0  0  0
 26 25  1  0  0  0  0
 27 21  1  0  0  0  0
 28 29  1  0  0  0  0
 29 13  1  0  0  0  0
 31 30  1  0  0  0  0
 33 31  1  0  0  0  0
 33 32  1  0  0  0  0
 34 35  1  0  0  0  0
 35 36  1  0  0  0  0
 37 35  2  0  0  0  0
M  END
>  <MODEL>
3

>  <REMARK>
 VINA RESULT:      -0.3      2.825      6.517
  Name = 
  6 active torsions:
  status: ('A' for Active; 'I' for Inactive)
    1  A    between atoms: C_1  and  C_5
    2  A    between atoms: C_1  and  C_36
    3  A    between atoms: C_6  and  C_31
    4  A    between atoms: C_24  and  C_28
    5  A    between atoms: C_26  and  C_33
    6  A    between atoms: C_26  and  C_34
                            x       y       z     vdW  Elec       q    Type
                         _______ _______ _______ _____ _____    ______ ____

>  <TORSDO>
F 6

$$$$
=
 OpenBabel11062409113D

 37 42  0  0  1  0  0  0  0  0999 V2000
  160.4000  204.2060  151.2570 C   0  0  0  0  0  2  0  0  0  0  0  0
  162.2420  208.1240  150.0360 C   0  0  1  0  0  3  0  0  0  0  0  0
  161.8200  211.4690  151.8760 C   0  0  0  0  0  2  0  0  0  0  0  0
  161.6830  206.2580  151.3590 C   0  0  2  0  0  0  0  0  0  0  0  0
  161.4430  209.0520  150.9770 C   0  0  2  0  0  3  0  0  0  0  0  0
  162.7050  206.9190  150.6330 O   0  0  0  0  0  0  0  0  0  0  0  0
  161.8620  210.5120  150.6820 C   0  0  1  0  0  3  0  0  0  0  0  0
  160.9910  207.1070  152.4250 C   0  0  1  0  0  3  0  0  0  0  0  0
  162.2910  205.2910  152.3530 C   0  0  1  0  0  3  0  0  0  0  0  0
  161.5030  209.2050  147.8810 C   0  0  0  0  0  2  0  0  0  0  0  0
  161.6140  206.1240  153.8250 S   0  0  0  0  0  0  0  0  0  0  0  0
  160.4100  211.6800  152.4330 C   0  0  0  0  0  2  0  0  0  0  0  0
  161.5640  207.9040  148.6760 C   0  0  1  0  0  3  0  0  0  0  0  0
  161.5230  208.5410  152.4400 C   0  0  2  0  0  3  0  0  0  0  0  0
  160.7180  205.4700  150.4880 C   0  0  0  0  0  2  0  0  0  0  0  0
  161.1070  211.1390  149.4890 C   0  0  2  0  0  3  0  0  0  0  0  0
  161.6070  203.9490  152.1390 C   0  0  0  0  0  2  0  0  0  0  0  0
  159.7510  210.3620  152.8540 C   0  0  1  0  0  3  0  0  0  0  0  0
  160.7130  209.3380  153.4900 C   0  0  2  0  0  3  0  0  0  0  0  0
  160.4860  210.1660  148.4760 C   0  0  0  0  0  2  0  0  0  0  0  0
  161.5870  213.6630  149.1180 C   0  0  0  0  0  2  0  0  0  0  0  0
  161.9030  212.2240  148.8240 C   0  0  0  0  0  0  0  0  0  0  0  0
  162.8710  211.9450  147.9380 C   0  0  0  0  0  3  0  0  0  0  0  0
  164.5450  212.4690  145.8980 Cl  0  0  0  0  0  0  0  0  0  0  0  0
  162.6590  214.1890  146.8360 C   0  0  0  0  0  2  0  0  0  0  0  0
  163.6170  213.0750  147.2870 C   0  0  1  0  0  3  0  0  0  0  0  0
  161.4880  214.4530  147.8070 C   0  0  0  0  0  2  0  0  0  0  0  0
  161.4070  206.1780  146.8780 C   0  0  0  0  0  1  0  0  0  0  0  0
  162.3330  206.8750  147.8570 C   0  0  0  0  0  2  0  0  0  0  0  0
  158.6250  210.5180  155.1120 C   0  0  0  0  0  1  0  0  0  0  0  0
  158.4350  210.5830  153.6050 C   0  0  1  0  0  3  0  0  0  0  0  0
  157.2270  212.5680  154.2730 O   0  0  0  0  0  1  0  0  0  0  0  0
  157.6510  211.8230  153.1710 C   0  0  0  0  0  2  0  0  0  0  0  0
  161.6310  209.9770  154.5390 C   0  0  0  0  0  2  0  0  0  0  0  0
  161.6170  209.2320  155.8280 C   0  0  0  0  0  0  0  0  0  0  0  0
  160.6480  208.2650  156.0580 O   0  0  0  0  0  0  0  0  0  0  0  0
  162.4720  209.4880  156.7150 O   0  0  0  0  0  1  0  0  0  0  0  0
  1 17  1  0  0  0  0
  2  6  1  1  0  0  0
  2  5  1  0  0  0  0
  3 12  1  0  0  0  0
  4 15  1  6  0  0  0
  4  9  1  0  0  0  0
  4  8  1  0  0  0  0
  5 14  1  0  0  0  0
  6  4  1  0  0  0  0
  7  5  1  0  0  0  0
  7  3  1  0  0  0  0
  8 14  1  0  0  0  0
  8 11  1  0  0  0  0
  9 11  1  0  0  0  0
 10 20  1  0  0  0  0
 10 13  1  0  0  0  0
 12 18  1  0  0  0  0
 13  2  1  0  0  0  0
 14 19  1  0  0  0  0
 15  1  1  0  0  0  0
 16  7  1  0  0  0  0
 17  9  1  0  0  0  0
 18 19  1  0  0  0  0
 18 31  1  0  0  0  0
 19 34  1  0  0  0  0
 20 16  1  0  0  0  0
 22 21  1  0  0  0  0
 22 16  1  0  0  0  0
 23 22  2  0  0  0  0
 24 26  1  0  0  0  0
 25 26  1  0  0  0  0
 25 27  1  0  0  0  0
 26 23  1  0  0  0  0
 27 21  1  0  0  0  0
 28 29  1  0  0  0  0
 29 13  1  0  0  0  0
 31 30  1  0  0  0  0
 33 31  1  0  0  0  0
 33 32  1  0  0  0  0
 34 35  1  0  0  0  0
 35 36  2  0  0  0  0
 35 37  1  0  0  0  0
M  END
>  <MODEL>
4

>  <REMARK>
 VINA RESULT:       0.6      1.037      1.255
  Name = 
  6 active torsions:
  status: ('A' for Active; 'I' for Inactive)
    1  A    between atoms: C_1  and  C_5
    2  A    between atoms: C_1  and  C_36
    3  A    between atoms: C_6  and  C_31
    4  A    between atoms: C_24  and  C_28
    5  A    between atoms: C_26  and  C_33
    6  A    between atoms: C_26  and  C_34
                            x       y       z     vdW  Elec       q    Type
                         _______ _______ _______ _____ _____    ______ ____

>  <TORSDO>
F 6

$$$$
