=
 OpenBabel11052421493D

 30 31  0  0  1  0  0  0  0  0999 V2000
  160.5480  210.0130  153.2540 C   0  0  1  0  0  3  0  0  0  0  0  0
  159.5550  210.9080  155.4400 N   0  0  0  0  0  0  0  0  0  0  0  0
  159.1750  210.1580  152.7830 N   0  0  0  0  0  2  0  0  0  0  0  0
  159.5760  212.5520  153.4780 C   0  0  2  0  0  3  0  0  0  0  0  0
  158.8690  211.5680  152.5310 C   0  0  0  0  0  2  0  0  0  0  0  0
  159.2730  212.2890  154.9780 C   0  0  2  0  0  3  0  0  0  0  0  0
  160.6350  210.1350  154.7860 C   0  0  2  0  0  3  0  0  0  0  0  0
  161.9130  208.6420  151.5950 C   0  0  0  0  0  0  0  0  0  0  0  0
  162.4320  207.4090  151.1870 C   0  0  0  0  0  3  0  0  0  0  0  0
  162.1660  209.7730  150.8290 O   0  0  0  0  0  1  0  0  0  0  0  0
  160.9030  207.5650  153.5210 C   0  0  0  0  0  3  0  0  0  0  0  0
  161.1890  205.2200  153.8390 F   0  0  0  0  0  0  0  0  0  0  0  0
  161.1420  208.7230  152.7730 C   0  0  0  0  0  0  0  0  0  0  0  0
  162.1890  206.2580  151.9410 C   0  0  0  0  0  3  0  0  0  0  0  0
  161.4250  206.3360  153.1080 C   0  0  0  0  0  0  0  0  0  0  0  0
  160.5280  212.7140  157.1810 C   0  0  0  0  0  1  0  0  0  0  0  0
  159.9560  213.3240  155.9070 C   0  0  2  0  0  3  0  0  0  0  0  0
  159.0050  214.4530  156.2950 C   0  0  0  0  0  2  0  0  0  0  0  0
  157.7280  214.2280  155.7770 O   0  0  0  0  0  1  0  0  0  0  0  0
  159.2090  213.9670  153.0480 C   0  0  0  0  0  2  0  0  0  0  0  0
  158.1980  214.3540  150.9500 O   0  0  0  0  0  0  0  0  0  0  0  0
  159.2230  214.0960  151.5580 C   0  0  0  0  0  0  0  0  0  0  0  0
  160.3910  213.9480  150.8820 F   0  0  0  0  0  0  0  0  0  0  0  0
  162.0040  210.6390  155.2150 C   0  0  0  0  0  2  0  0  0  0  0  0
  161.9530  208.6110  156.4840 O   0  0  0  0  0  1  0  0  0  0  0  0
  162.4740  209.9050  156.4590 C   0  0  0  0  0  2  0  0  0  0  0  0
  158.3190  210.1390  155.5160 C   0  0  0  0  0  2  0  0  0  0  0  0
  157.2390  211.4590  157.1410 O   0  0  0  0  0  0  0  0  0  0  0  0
  157.2060  211.0050  156.0090 C   0  0  0  0  0  0  0  0  0  0  0  0
  156.0630  211.3270  155.1130 C   0  0  0  0  0  1  0  0  0  0  0  0
  1 13  1  1  0  0  0
  1  7  1  0  0  0  0
  2 27  1  0  0  0  0
  3  1  1  0  0  0  0
  4 20  1  6  0  0  0
  4  6  1  0  0  0  0
  5  3  1  0  0  0  0
  5  4  1  0  0  0  0
  6  2  1  0  0  0  0
  6 17  1  1  0  0  0
  7 24  1  6  0  0  0
  7  2  1  0  0  0  0
  8 13  1  0  0  0  0
  9  8  2  0  0  0  0
  9 14  1  0  0  0  0
 10  8  1  0  0  0  0
 13 11  2  0  0  0  0
 14 15  2  0  0  0  0
 15 11  1  0  0  0  0
 15 12  1  0  0  0  0
 17 18  1  0  0  0  0
 17 16  1  1  0  0  0
 19 18  1  0  0  0  0
 21 22  2  0  0  0  0
 22 20  1  0  0  0  0
 23 22  1  0  0  0  0
 24 26  1  0  0  0  0
 26 25  1  0  0  0  0
 27 29  1  0  0  0  0
 29 28  2  0  0  0  0
 30 29  1  0  0  0  0
M  END
>  <MODEL>
1

>  <REMARK>
 VINA RESULT:      -4.8      0.000      0.000
  Name = 
  9 active torsions:
  status: ('A' for Active; 'I' for Inactive)
    1  A    between atoms: C_1  and  C_22
    2  A    between atoms: N_4  and  C_25
    3  A    between atoms: C_6  and  C_8
    4  A    between atoms: C_6  and  C_17
    5  A    between atoms: C_7  and  C_30
    6  A    between atoms: C_10  and  C_23
    7  A    between atoms: C_10  and  C_26
    8  A    between atoms: C_11  and  C_25
    9  A    between atoms: C_13  and  C_30
                            x       y       z     vdW  Elec       q    Type
                         _______ _______ _______ _____ _____    ______ ____

>  <TORSDO>
F 9

$$$$
=
 OpenBabel11052421493D

 30 31  0  0  1  0  0  0  0  0999 V2000
  160.5660  210.1820  152.9670 C   0  0  1  0  0  3  0  0  0  0  0  0
  159.9870  210.7110  155.4060 N   0  0  0  0  0  0  0  0  0  0  0  0
  159.1160  210.1130  152.8270 N   0  0  0  0  0  2  0  0  0  0  0  0
  159.2850  212.4790  153.6940 C   0  0  2  0  0  3  0  0  0  0  0  0
  158.5390  211.4590  152.8150 C   0  0  0  0  0  2  0  0  0  0  0  0
  159.3890  212.0490  155.1820 C   0  0  2  0  0  3  0  0  0  0  0  0
  160.9910  210.1990  154.4460 C   0  0  2  0  0  3  0  0  0  0  0  0
  161.8820  209.2620  150.9880 C   0  0  0  0  0  0  0  0  0  0  0  0
  162.4700  208.1780  150.3280 C   0  0  0  0  0  3  0  0  0  0  0  0
  161.9520  210.5260  150.4140 O   0  0  0  0  0  1  0  0  0  0  0  0
  161.1710  207.7770  152.7690 C   0  0  0  0  0  3  0  0  0  0  0  0
  161.7030  205.4570  152.6470 F   0  0  0  0  0  0  0  0  0  0  0  0
  161.2270  209.0620  152.2200 C   0  0  0  0  0  0  0  0  0  0  0  0
  162.4100  206.8990  150.8850 C   0  0  0  0  0  3  0  0  0  0  0  0
  161.7610  206.6980  152.1060 C   0  0  0  0  0  0  0  0  0  0  0  0
  160.8260  212.5300  157.2580 C   0  0  0  0  0  1  0  0  0  0  0  0
  160.0980  213.1160  156.0540 C   0  0  2  0  0  3  0  0  0  0  0  0
  159.1270  214.1840  156.5470 C   0  0  0  0  0  2  0  0  0  0  0  0
  157.9860  213.6010  157.1020 O   0  0  0  0  0  1  0  0  0  0  0  0
  158.6070  213.8320  153.5230 C   0  0  0  0  0  2  0  0  0  0  0  0
  156.6310  213.9280  152.2340 O   0  0  0  0  0  0  0  0  0  0  0  0
  157.1350  213.6740  153.3160 C   0  0  0  0  0  0  0  0  0  0  0  0
  156.3580  213.2220  154.3340 F   0  0  0  0  0  0  0  0  0  0  0  0
  162.3250  210.9080  154.6210 C   0  0  0  0  0  2  0  0  0  0  0  0
  164.1110  211.2760  156.1700 O   0  0  0  0  0  1  0  0  0  0  0  0
  162.9690  210.5100  155.9380 C   0  0  0  0  0  2  0  0  0  0  0  0
  158.9410  209.7270  155.6600 C   0  0  0  0  0  2  0  0  0  0  0  0
  160.2810  208.6300  157.2570 O   0  0  0  0  0  0  0  0  0  0  0  0
  159.5250  208.5140  156.3070 C   0  0  0  0  0  0  0  0  0  0  0  0
  159.1690  207.1600  155.8030 C   0  0  0  0  0  1  0  0  0  0  0  0
  1 13  1  6  0  0  0
  1  7  1  0  0  0  0
  2 27  1  0  0  0  0
  3  1  1  0  0  0  0
  4 20  1  1  0  0  0
  4  6  1  0  0  0  0
  5  3  1  0  0  0  0
  5  4  1  0  0  0  0
  6  2  1  0  0  0  0
  6 17  1  1  0  0  0
  7 24  1  6  0  0  0
  7  2  1  0  0  0  0
  8 13  1  0  0  0  0
  9 14  1  0  0  0  0
  9  8  2  0  0  0  0
 10  8  1  0  0  0  0
 13 11  2  0  0  0  0
 14 15  2  0  0  0  0
 15 12  1  0  0  0  0
 15 11  1  0  0  0  0
 17 18  1  0  0  0  0
 17 16  1  1  0  0  0
 18 19  1  0  0  0  0
 21 22  2  0  0  0  0
 22 20  1  0  0  0  0
 22 23  1  0  0  0  0
 24 26  1  0  0  0  0
 26 25  1  0  0  0  0
 27 29  1  0  0  0  0
 29 28  2  0  0  0  0
 30 29  1  0  0  0  0
M  END
>  <MODEL>
2

>  <REMARK>
 VINA RESULT:      -4.6      1.618      2.030
  Name = 
  9 active torsions:
  status: ('A' for Active; 'I' for Inactive)
    1  A    between atoms: C_1  and  C_22
    2  A    between atoms: N_4  and  C_25
    3  A    between atoms: C_6  and  C_8
    4  A    between atoms: C_6  and  C_17
    5  A    between atoms: C_7  and  C_30
    6  A    between atoms: C_10  and  C_23
    7  A    between atoms: C_10  and  C_26
    8  A    between atoms: C_11  and  C_25
    9  A    between atoms: C_13  and  C_30
                            x       y       z     vdW  Elec       q    Type
                         _______ _______ _______ _____ _____    ______ ____

>  <TORSDO>
F 9

$$$$
=
 OpenBabel11052421493D

 30 31  0  0  1  0  0  0  0  0999 V2000
  161.1970  209.9030  151.5500 C   0  0  1  0  0  3  0  0  0  0  0  0
  161.1440  209.9590  154.1120 N   0  0  0  0  0  0  0  0  0  0  0  0
  162.4940  209.2740  151.7720 N   0  0  0  0  0  2  0  0  0  0  0  0
  161.0710  207.6290  153.0540 C   0  0  2  0  0  3  0  0  0  0  0  0
  162.3230  207.8830  152.1960 C   0  0  0  0  0  2  0  0  0  0  0  0
  161.0190  208.4990  154.3390 C   0  0  2  0  0  3  0  0  0  0  0  0
  160.6490  210.5360  152.8420 C   0  0  2  0  0  3  0  0  0  0  0  0
  161.7630  210.5730  149.1580 C   0  0  0  0  0  0  0  0  0  0  0  0
  161.8240  211.5520  148.1610 C   0  0  0  0  0  3  0  0  0  0  0  0
  162.1910  209.2830  148.8690 O   0  0  0  0  0  1  0  0  0  0  0  0
  160.8530  212.2140  150.6960 C   0  0  0  0  0  3  0  0  0  0  0  0
  160.5050  214.4520  149.9560 F   0  0  0  0  0  0  0  0  0  0  0  0
  161.2730  210.9050  150.4380 C   0  0  0  0  0  0  0  0  0  0  0  0
  161.4010  212.8570  148.4280 C   0  0  0  0  0  3  0  0  0  0  0  0
  160.9150  213.1870  149.6960 C   0  0  0  0  0  0  0  0  0  0  0  0
  159.1450  209.4270  155.8330 C   0  0  0  0  0  1  0  0  0  0  0  0
  159.7770  208.1880  155.2110 C   0  0  2  0  0  3  0  0  0  0  0  0
  160.0980  207.1960  156.3250 C   0  0  0  0  0  2  0  0  0  0  0  0
  161.2130  207.6130  157.0560 O   0  0  0  0  0  1  0  0  0  0  0  0
  161.0010  206.1380  153.3560 C   0  0  0  0  0  2  0  0  0  0  0  0
  161.8200  204.3280  152.0790 O   0  0  0  0  0  0  0  0  0  0  0  0
  161.1250  205.3300  152.1030 C   0  0  0  0  0  0  0  0  0  0  0  0
  160.4390  205.7040  150.9920 F   0  0  0  0  0  0  0  0  0  0  0  0
  159.1280  210.5860  152.8200 C   0  0  0  0  0  2  0  0  0  0  0  0
  157.3910  211.7760  153.9560 O   0  0  0  0  0  1  0  0  0  0  0  0
  158.6340  211.9250  153.3400 C   0  0  0  0  0  2  0  0  0  0  0  0
  162.5020  210.4020  154.4050 C   0  0  0  0  0  2  0  0  0  0  0  0
  163.6300  210.6670  156.4560 O   0  0  0  0  0  0  0  0  0  0  0  0
  162.6000  210.8470  155.8270 C   0  0  0  0  0  0  0  0  0  0  0  0
  161.4450  211.5260  156.4730 C   0  0  0  0  0  1  0  0  0  0  0  0
  1 13  1  6  0  0  0
  1  3  1  0  0  0  0
  1  7  1  0  0  0  0
  2  6  1  0  0  0  0
  2 27  1  0  0  0  0
  3  5  1  0  0  0  0
  4 20  1  1  0  0  0
  4  6  1  0  0  0  0
  5  4  1  0  0  0  0
  6 17  1  6  0  0  0
  7 24  1  6  0  0  0
  7  2  1  0  0  0  0
  8 13  1  0  0  0  0
  9 14  1  0  0  0  0
  9  8  2  0  0  0  0
 10  8  1  0  0  0  0
 13 11  2  0  0  0  0
 14 15  2  0  0  0  0
 15 12  1  0  0  0  0
 15 11  1  0  0  0  0
 17 16  1  1  0  0  0
 17 18  1  0  0  0  0
 18 19  1  0  0  0  0
 21 22  2  0  0  0  0
 22 20  1  0  0  0  0
 23 22  1  0  0  0  0
 24 26  1  0  0  0  0
 26 25  1  0  0  0  0
 27 29  1  0  0  0  0
 29 28  2  0  0  0  0
 29 30  1  0  0  0  0
M  END
>  <MODEL>
3

>  <REMARK>
 VINA RESULT:      -4.0      2.432      5.982
  Name = 
  9 active torsions:
  status: ('A' for Active; 'I' for Inactive)
    1  A    between atoms: C_1  and  C_22
    2  A    between atoms: N_4  and  C_25
    3  A    between atoms: C_6  and  C_8
    4  A    between atoms: C_6  and  C_17
    5  A    between atoms: C_7  and  C_30
    6  A    between atoms: C_10  and  C_23
    7  A    between atoms: C_10  and  C_26
    8  A    between atoms: C_11  and  C_25
    9  A    between atoms: C_13  and  C_30
                            x       y       z     vdW  Elec       q    Type
                         _______ _______ _______ _____ _____    ______ ____

>  <TORSDO>
F 9

$$$$
=
 OpenBabel11052421493D

 30 31  0  0  1  0  0  0  0  0999 V2000
  160.0030  210.8840  153.0080 C   0  0  1  0  0  3  0  0  0  0  0  0
  161.2000  209.8840  155.0410 N   0  0  0  0  0  0  0  0  0  0  0  0
  161.3610  210.9880  152.4860 N   0  0  0  0  0  2  0  0  0  0  0  0
  161.3170  208.4960  152.8930 C   0  0  2  0  0  3  0  0  0  0  0  0
  161.8440  209.6740  152.0560 C   0  0  0  0  0  2  0  0  0  0  0  0
  161.6450  208.6200  154.4050 C   0  0  2  0  0  3  0  0  0  0  0  0
  159.9980  210.5710  154.5150 C   0  0  2  0  0  3  0  0  0  0  0  0
  159.1790  213.2260  153.5850 C   0  0  0  0  0  0  0  0  0  0  0  0
  158.4220  214.3550  153.2550 C   0  0  0  0  0  3  0  0  0  0  0  0
  159.8820  213.2070  154.7830 O   0  0  0  0  0  1  0  0  0  0  0  0
  158.4980  212.1770  151.5060 C   0  0  0  0  0  3  0  0  0  0  0  0
  157.0490  213.3470  150.0200 F   0  0  0  0  0  0  0  0  0  0  0  0
  159.2200  212.1260  152.7040 C   0  0  0  0  0  0  0  0  0  0  0  0
  157.7050  214.3960  152.0560 C   0  0  0  0  0  3  0  0  0  0  0  0
  157.7440  213.3070  151.1820 C   0  0  0  0  0  0  0  0  0  0  0  0
  159.8080  206.8540  154.7410 C   0  0  0  0  0  1  0  0  0  0  0  0
  161.1490  207.3980  155.2180 C   0  0  2  0  0  3  0  0  0  0  0  0
  161.0440  207.7100  156.7080 C   0  0  0  0  0  2  0  0  0  0  0  0
  159.9050  207.1190  157.2610 O   0  0  0  0  0  1  0  0  0  0  0  0
  161.8530  207.2070  152.2830 C   0  0  0  0  0  2  0  0  0  0  0  0
  160.7200  206.7060  150.2740 O   0  0  0  0  0  0  0  0  0  0  0  0
  161.6990  207.2120  150.7960 C   0  0  0  0  0  0  0  0  0  0  0  0
  162.6460  207.8060  150.0240 F   0  0  0  0  0  0  0  0  0  0  0  0
  158.7290  209.8340  154.9140 C   0  0  0  0  0  2  0  0  0  0  0  0
  156.6090  210.8910  155.2550 O   0  0  0  0  0  1  0  0  0  0  0  0
  157.8720  210.7040  155.8180 C   0  0  0  0  0  2  0  0  0  0  0  0
  162.3230  210.8040  155.1780 C   0  0  0  0  0  2  0  0  0  0  0  0
  161.5680  211.6070  157.2610 O   0  0  0  0  0  0  0  0  0  0  0  0
  162.5080  211.1760  156.6130 C   0  0  0  0  0  0  0  0  0  0  0  0
  163.8370  211.0040  157.2580 C   0  0  0  0  0  1  0  0  0  0  0  0
  1 13  1  1  0  0  0
  1  7  1  0  0  0  0
  2 27  1  0  0  0  0
  3  1  1  0  0  0  0
  4 20  1  6  0  0  0
  4  6  1  0  0  0  0
  5  3  1  0  0  0  0
  5  4  1  0  0  0  0
  6  2  1  0  0  0  0
  6 17  1  1  0  0  0
  7 24  1  6  0  0  0
  7  2  1  0  0  0  0
  8 10  1  0  0  0  0
  9  8  1  0  0  0  0
 11 13  1  0  0  0  0
 12 15  1  0  0  0  0
 13  8  2  0  0  0  0
 14  9  2  0  0  0  0
 15 11  2  0  0  0  0
 15 14  1  0  0  0  0
 17 16  1  6  0  0  0
 17 18  1  0  0  0  0
 18 19  1  0  0  0  0
 21 22  2  0  0  0  0
 22 20  1  0  0  0  0
 23 22  1  0  0  0  0
 24 26  1  0  0  0  0
 25 26  1  0  0  0  0
 27 29  1  0  0  0  0
 29 30  1  0  0  0  0
 29 28  2  0  0  0  0
M  END
>  <MODEL>
4

>  <REMARK>
 VINA RESULT:      -3.3      2.143      6.035
  Name = 
  9 active torsions:
  status: ('A' for Active; 'I' for Inactive)
    1  A    between atoms: C_1  and  C_22
    2  A    between atoms: N_4  and  C_25
    3  A    between atoms: C_6  and  C_8
    4  A    between atoms: C_6  and  C_17
    5  A    between atoms: C_7  and  C_30
    6  A    between atoms: C_10  and  C_23
    7  A    between atoms: C_10  and  C_26
    8  A    between atoms: C_11  and  C_25
    9  A    between atoms: C_13  and  C_30
                            x       y       z     vdW  Elec       q    Type
                         _______ _______ _______ _____ _____    ______ ____

>  <TORSDO>
F 9

$$$$
=
 OpenBabel11052421493D

 30 31  0  0  1  0  0  0  0  0999 V2000
  161.1950  208.7740  153.5320 C   0  0  1  0  0  3  0  0  0  0  0  0
  159.5370  210.6600  154.0430 N   0  0  0  0  0  0  0  0  0  0  0  0
  161.9900  209.8680  152.9830 N   0  0  0  0  0  2  0  0  0  0  0  0
  161.7430  210.7450  155.3380 C   0  0  2  0  0  3  0  0  0  0  0  0
  162.5980  210.6490  154.0620 C   0  0  0  0  0  2  0  0  0  0  0  0
  160.3330  211.3440  155.0910 C   0  0  2  0  0  3  0  0  0  0  0  0
  159.7460  209.2130  153.8090 C   0  0  2  0  0  3  0  0  0  0  0  0
  161.3090  207.6920  151.2280 C   0  0  0  0  0  0  0  0  0  0  0  0
  161.3390  206.5400  150.4350 C   0  0  0  0  0  3  0  0  0  0  0  0
  161.3450  208.9390  150.6150 O   0  0  0  0  0  1  0  0  0  0  0  0
  161.2060  206.3070  153.2170 C   0  0  0  0  0  3  0  0  0  0  0  0
  161.2010  203.9340  152.9950 F   0  0  0  0  0  0  0  0  0  0  0  0
  161.2430  207.5770  152.6310 C   0  0  0  0  0  0  0  0  0  0  0  0
  161.3020  205.2760  151.0290 C   0  0  0  0  0  3  0  0  0  0  0  0
  161.2370  205.1600  152.4190 C   0  0  0  0  0  0  0  0  0  0  0  0
  158.0290  211.1770  156.2190 C   0  0  0  0  0  1  0  0  0  0  0  0
  159.5120  211.4780  156.3980 C   0  0  2  0  0  3  0  0  0  0  0  0
  159.6540  212.8640  157.0190 C   0  0  0  0  0  2  0  0  0  0  0  0
  159.7000  213.8500  156.0310 O   0  0  0  0  0  1  0  0  0  0  0  0
  162.5360  211.5260  156.3780 C   0  0  0  0  0  2  0  0  0  0  0  0
  164.6970  211.1710  157.2600 O   0  0  0  0  0  0  0  0  0  0  0  0
  163.6160  210.6820  156.9760 C   0  0  0  0  0  0  0  0  0  0  0  0
  163.3810  209.3680  157.2270 F   0  0  0  0  0  0  0  0  0  0  0  0
  159.1300  208.3840  154.9250 C   0  0  0  0  0  2  0  0  0  0  0  0
  160.1070  208.1020  157.0920 O   0  0  0  0  0  1  0  0  0  0  0  0
  160.2160  207.7200  155.7540 C   0  0  0  0  0  2  0  0  0  0  0  0
  159.5870  211.4150  152.7970 C   0  0  0  0  0  2  0  0  0  0  0  0
  157.4470  212.1420  153.4650 O   0  0  0  0  0  0  0  0  0  0  0  0
  158.3270  212.1980  152.6210 C   0  0  0  0  0  0  0  0  0  0  0  0
  158.1500  213.0600  151.4220 C   0  0  0  0  0  1  0  0  0  0  0  0
  1 13  1  6  0  0  0
  1  7  1  0  0  0  0
  2  6  1  0  0  0  0
  3  1  1  0  0  0  0
  3  5  1  0  0  0  0
  4 20  1  1  0  0  0
  5  4  1  0  0  0  0
  6  4  1  0  0  0  0
  6 17  1  1  0  0  0
  7  2  1  0  0  0  0
  7 24  1  1  0  0  0
  8 13  1  0  0  0  0
  9 14  1  0  0  0  0
  9  8  2  0  0  0  0
 10  8  1  0  0  0  0
 13 11  2  0  0  0  0
 14 15  2  0  0  0  0
 15 12  1  0  0  0  0
 15 11  1  0  0  0  0
 17 16  1  6  0  0  0
 17 18  1  0  0  0  0
 19 18  1  0  0  0  0
 20 22  1  0  0  0  0
 22 23  1  0  0  0  0
 22 21  2  0  0  0  0
 24 26  1  0  0  0  0
 26 25  1  0  0  0  0
 27  2  1  0  0  0  0
 29 27  1  0  0  0  0
 29 28  2  0  0  0  0
 30 29  1  0  0  0  0
M  END
>  <MODEL>
5

>  <REMARK>
 VINA RESULT:      -2.9      2.214      3.741
  Name = 
  9 active torsions:
  status: ('A' for Active; 'I' for Inactive)
    1  A    between atoms: C_1  and  C_22
    2  A    between atoms: N_4  and  C_25
    3  A    between atoms: C_6  and  C_8
    4  A    between atoms: C_6  and  C_17
    5  A    between atoms: C_7  and  C_30
    6  A    between atoms: C_10  and  C_23
    7  A    between atoms: C_10  and  C_26
    8  A    between atoms: C_11  and  C_25
    9  A    between atoms: C_13  and  C_30
                            x       y       z     vdW  Elec       q    Type
                         _______ _______ _______ _____ _____    ______ ____

>  <TORSDO>
F 9

$$$$
=
 OpenBabel11052421493D

 30 31  0  0  1  0  0  0  0  0999 V2000
  159.9530  209.4760  154.5370 C   0  0  1  0  0  3  0  0  0  0  0  0
  160.7970  211.3410  156.0780 N   0  0  0  0  0  0  0  0  0  0  0  0
  159.2940  209.0170  155.7540 N   0  0  0  0  0  2  0  0  0  0  0  0
  158.2750  211.3240  155.6390 C   0  0  2  0  0  3  0  0  0  0  0  0
  158.1250  209.8480  156.0470 C   0  0  0  0  0  2  0  0  0  0  0  0
  159.4980  212.0220  156.2930 C   0  0  2  0  0  3  0  0  0  0  0  0
  161.0040  210.5590  154.8380 C   0  0  2  0  0  3  0  0  0  0  0  0
  160.8470  207.0940  154.4090 C   0  0  0  0  0  0  0  0  0  0  0  0
  161.4170  206.0560  153.6640 C   0  0  0  0  0  3  0  0  0  0  0  0
  160.5800  206.8930  155.7580 O   0  0  0  0  0  1  0  0  0  0  0  0
  160.8350  208.4940  152.4280 C   0  0  0  0  0  3  0  0  0  0  0  0
  161.6750  207.6280  150.3730 F   0  0  0  0  0  0  0  0  0  0  0  0
  160.5520  208.3240  153.7880 C   0  0  0  0  0  0  0  0  0  0  0  0
  161.6960  206.2350  152.3070 C   0  0  0  0  0  3  0  0  0  0  0  0
  161.4040  207.4540  151.6890 C   0  0  0  0  0  0  0  0  0  0  0  0
  159.6900  214.4520  157.1090 C   0  0  0  0  0  1  0  0  0  0  0  0
  159.5970  213.5200  155.9070 C   0  0  2  0  0  3  0  0  0  0  0  0
  158.4220  213.9620  155.0400 C   0  0  0  0  0  2  0  0  0  0  0  0
  158.8680  214.4440  153.8070 O   0  0  0  0  0  1  0  0  0  0  0  0
  156.9630  212.0340  155.9470 C   0  0  0  0  0  2  0  0  0  0  0  0
  155.1130  210.7030  156.5630 O   0  0  0  0  0  0  0  0  0  0  0  0
  155.7920  211.1510  155.6540 C   0  0  0  0  0  0  0  0  0  0  0  0
  155.4710  210.8670  154.3660 F   0  0  0  0  0  0  0  0  0  0  0  0
  161.1990  211.4760  153.6400 C   0  0  0  0  0  2  0  0  0  0  0  0
  160.1610  212.2660  151.6340 O   0  0  0  0  0  1  0  0  0  0  0  0
  160.0250  211.3580  152.6840 C   0  0  0  0  0  2  0  0  0  0  0  0
  161.1670  210.5730  157.2610 C   0  0  0  0  0  2  0  0  0  0  0  0
  162.7990  208.8830  157.0800 O   0  0  0  0  0  0  0  0  0  0  0  0
  162.5720  210.0810  157.1330 C   0  0  0  0  0  0  0  0  0  0  0  0
  163.6950  211.0540  157.0530 C   0  0  0  0  0  1  0  0  0  0  0  0
  1 13  1  1  0  0  0
  1  7  1  0  0  0  0
  1  3  1  0  0  0  0
  2  6  1  0  0  0  0
  2 27  1  0  0  0  0
  3  5  1  0  0  0  0
  4 20  1  1  0  0  0
  4  5  1  0  0  0  0
  4  6  1  0  0  0  0
  6 17  1  6  0  0  0
  7 24  1  6  0  0  0
  7  2  1  0  0  0  0
  8 10  1  0  0  0  0
  9  8  2  0  0  0  0
 11 13  2  0  0  0  0
 12 15  1  0  0  0  0
 13  8  1  0  0  0  0
 14  9  1  0  0  0  0
 15 14  2  0  0  0  0
 15 11  1  0  0  0  0
 17 16  1  1  0  0  0
 18 17  1  0  0  0  0
 19 18  1  0  0  0  0
 22 20  1  0  0  0  0
 22 21  2  0  0  0  0
 23 22  1  0  0  0  0
 25 26  1  0  0  0  0
 26 24  1  0  0  0  0
 28 29  2  0  0  0  0
 29 27  1  0  0  0  0
 30 29  1  0  0  0  0
M  END
>  <MODEL>
6

>  <REMARK>
 VINA RESULT:      -2.8      2.142      4.064
  Name = 
  9 active torsions:
  status: ('A' for Active; 'I' for Inactive)
    1  A    between atoms: C_1  and  C_22
    2  A    between atoms: N_4  and  C_25
    3  A    between atoms: C_6  and  C_8
    4  A    between atoms: C_6  and  C_17
    5  A    between atoms: C_7  and  C_30
    6  A    between atoms: C_10  and  C_23
    7  A    between atoms: C_10  and  C_26
    8  A    between atoms: C_11  and  C_25
    9  A    between atoms: C_13  and  C_30
                            x       y       z     vdW  Elec       q    Type
                         _______ _______ _______ _____ _____    ______ ____

>  <TORSDO>
F 9

$$$$
=
 OpenBabel11052421493D

 30 31  0  0  1  0  0  0  0  0999 V2000
  160.1060  209.1110  154.2520 C   0  0  1  0  0  3  0  0  0  0  0  0
  161.1430  211.2620  155.1820 N   0  0  0  0  0  0  0  0  0  0  0  0
  159.8620  208.8330  155.6630 N   0  0  0  0  0  2  0  0  0  0  0  0
  158.6150  211.0230  155.5030 C   0  0  2  0  0  3  0  0  0  0  0  0
  158.7390  209.6340  156.1550 C   0  0  0  0  0  2  0  0  0  0  0  0
  159.8900  211.8930  155.6610 C   0  0  2  0  0  3  0  0  0  0  0  0
  161.0800  210.2890  154.0680 C   0  0  2  0  0  3  0  0  0  0  0  0
  160.8440  206.6720  154.2220 C   0  0  0  0  0  0  0  0  0  0  0  0
  161.3090  205.5600  153.5120 C   0  0  0  0  0  3  0  0  0  0  0  0
  160.6380  206.5650  155.5920 O   0  0  0  0  0  1  0  0  0  0  0  0
  160.8130  207.9570  152.1640 C   0  0  0  0  0  3  0  0  0  0  0  0
  161.4870  206.9250  150.1250 F   0  0  0  0  0  0  0  0  0  0  0  0
  160.5930  207.8820  153.5440 C   0  0  0  0  0  0  0  0  0  0  0  0
  161.5260  205.6440  152.1350 C   0  0  0  0  0  3  0  0  0  0  0  0
  161.2770  206.8430  151.4610 C   0  0  0  0  0  0  0  0  0  0  0  0
  159.5080  214.4010  156.0780 C   0  0  0  0  0  1  0  0  0  0  0  0
  159.7200  213.3040  155.0420 C   0  0  2  0  0  3  0  0  0  0  0  0
  158.5670  213.3510  154.0430 C   0  0  0  0  0  2  0  0  0  0  0  0
  158.8180  214.2880  153.0380 O   0  0  0  0  0  1  0  0  0  0  0  0
  157.3720  211.6980  156.0690 C   0  0  0  0  0  2  0  0  0  0  0  0
  155.1680  210.8780  156.2800 O   0  0  0  0  0  0  0  0  0  0  0  0
  156.1260  211.0560  155.5460 C   0  0  0  0  0  0  0  0  0  0  0  0
  156.0560  210.6890  154.2410 F   0  0  0  0  0  0  0  0  0  0  0  0
  160.8380  210.9920  152.7420 C   0  0  0  0  0  2  0  0  0  0  0  0
  161.5910  210.7050  150.4890 O   0  0  0  0  0  1  0  0  0  0  0  0
  162.0230  210.7930  151.8120 C   0  0  0  0  0  2  0  0  0  0  0  0
  161.9050  210.7350  156.3080 C   0  0  0  0  0  2  0  0  0  0  0  0
  163.8570  210.7570  154.9890 O   0  0  0  0  0  0  0  0  0  0  0  0
  163.3650  210.9570  156.0870 C   0  0  0  0  0  0  0  0  0  0  0  0
  164.2200  211.4400  157.2060 C   0  0  0  0  0  1  0  0  0  0  0  0
  1 13  1  1  0  0  0
  1  3  1  0  0  0  0
  2  6  1  0  0  0  0
  2 27  1  0  0  0  0
  3  5  1  0  0  0  0
  4  6  1  0  0  0  0
  4 20  1  1  0  0  0
  4  5  1  0  0  0  0
  6 17  1  6  0  0  0
  7 24  1  6  0  0  0
  7  1  1  0  0  0  0
  7  2  1  0  0  0  0
  8 10  1  0  0  0  0
  9  8  2  0  0  0  0
 11 13  2  0  0  0  0
 12 15  1  0  0  0  0
 13  8  1  0  0  0  0
 14  9  1  0  0  0  0
 15 14  2  0  0  0  0
 15 11  1  0  0  0  0
 17 16  1  1  0  0  0
 18 17  1  0  0  0  0
 19 18  1  0  0  0  0
 22 20  1  0  0  0  0
 22 21  2  0  0  0  0
 23 22  1  0  0  0  0
 25 26  1  0  0  0  0
 26 24  1  0  0  0  0
 28 29  2  0  0  0  0
 29 27  1  0  0  0  0
 29 30  1  0  0  0  0
M  END
>  <MODEL>
7

>  <REMARK>
 VINA RESULT:      -2.6      2.086      4.199
  Name = 
  9 active torsions:
  status: ('A' for Active; 'I' for Inactive)
    1  A    between atoms: C_1  and  C_22
    2  A    between atoms: N_4  and  C_25
    3  A    between atoms: C_6  and  C_8
    4  A    between atoms: C_6  and  C_17
    5  A    between atoms: C_7  and  C_30
    6  A    between atoms: C_10  and  C_23
    7  A    between atoms: C_10  and  C_26
    8  A    between atoms: C_11  and  C_25
    9  A    between atoms: C_13  and  C_30
                            x       y       z     vdW  Elec       q    Type
                         _______ _______ _______ _____ _____    ______ ____

>  <TORSDO>
F 9

$$$$
=
 OpenBabel11052421493D

 30 31  0  0  1  0  0  0  0  0999 V2000
  159.6010  209.8850  138.4460 C   0  0  1  0  0  3  0  0  0  0  0  0
  159.1530  212.3790  138.8240 N   0  0  0  0  0  0  0  0  0  0  0  0
  158.4990  209.7300  139.3890 N   0  0  0  0  0  2  0  0  0  0  0  0
  157.2890  211.0880  137.6380 C   0  0  2  0  0  3  0  0  0  0  0  0
  157.2200  210.0070  138.7310 C   0  0  0  0  0  2  0  0  0  0  0  0
  157.8340  212.4480  138.1490 C   0  0  2  0  0  3  0  0  0  0  0  0
  160.1180  211.3340  138.4160 C   0  0  2  0  0  3  0  0  0  0  0  0
  161.5020  209.0220  139.9060 C   0  0  0  0  0  0  0  0  0  0  0  0
  162.5250  208.0950  140.1340 C   0  0  0  0  0  3  0  0  0  0  0  0
  161.2900  210.0380  140.8300 O   0  0  0  0  0  1  0  0  0  0  0  0
  160.9440  207.8810  137.8390 C   0  0  0  0  0  3  0  0  0  0  0  0
  162.1930  205.9600  137.1850 F   0  0  0  0  0  0  0  0  0  0  0  0
  160.7030  208.9150  138.7500 C   0  0  0  0  0  0  0  0  0  0  0  0
  162.7580  207.0650  139.2190 C   0  0  0  0  0  3  0  0  0  0  0  0
  161.9670  206.9580  138.0720 C   0  0  0  0  0  0  0  0  0  0  0  0
  159.1050  214.3880  137.0420 C   0  0  0  0  0  1  0  0  0  0  0  0
  157.8440  213.5320  137.0420 C   0  0  2  0  0  3  0  0  0  0  0  0
  156.6320  214.4530  137.1380 C   0  0  0  0  0  2  0  0  0  0  0  0
  156.0660  214.4010  138.4140 O   0  0  0  0  0  1  0  0  0  0  0  0
  155.9060  211.2110  137.0110 C   0  0  0  0  0  2  0  0  0  0  0  0
  153.8320  210.3860  137.7820 O   0  0  0  0  0  0  0  0  0  0  0  0
  154.8320  211.0360  138.0380 C   0  0  0  0  0  0  0  0  0  0  0  0
  154.9860  211.5840  139.2700 F   0  0  0  0  0  0  0  0  0  0  0  0
  160.7410  211.6620  137.0670 C   0  0  0  0  0  2  0  0  0  0  0  0
  162.8110  212.0800  138.1900 O   0  0  0  0  0  1  0  0  0  0  0  0
  162.2400  211.4210  137.1020 C   0  0  0  0  0  2  0  0  0  0  0  0
  158.9820  212.4110  140.2720 C   0  0  0  0  0  2  0  0  0  0  0  0
  161.0120  213.5990  140.4040 O   0  0  0  0  0  0  0  0  0  0  0  0
  159.9000  213.4240  140.8740 C   0  0  0  0  0  0  0  0  0  0  0  0
  159.4510  214.2320  142.0400 C   0  0  0  0  0  1  0  0  0  0  0  0
  1 13  1  1  0  0  0
  1  3  1  0  0  0  0
  2 27  1  0  0  0  0
  4 20  1  1  0  0  0
  4  6  1  0  0  0  0
  4  5  1  0  0  0  0
  5  3  1  0  0  0  0
  6 17  1  6  0  0  0
  6  2  1  0  0  0  0
  7 24  1  6  0  0  0
  7  1  1  0  0  0  0
  7  2  1  0  0  0  0
  8  9  1  0  0  0  0
  8 10  1  0  0  0  0
 11 15  2  0  0  0  0
 11 13  1  0  0  0  0
 12 15  1  0  0  0  0
 13  8  2  0  0  0  0
 14  9  2  0  0  0  0
 15 14  1  0  0  0  0
 17 16  1  1  0  0  0
 17 18  1  0  0  0  0
 18 19  1  0  0  0  0
 20 22  1  0  0  0  0
 21 22  2  0  0  0  0
 22 23  1  0  0  0  0
 24 26  1  0  0  0  0
 26 25  1  0  0  0  0
 27 29  1  0  0  0  0
 28 29  2  0  0  0  0
 29 30  1  0  0  0  0
M  END
>  <MODEL>
8

>  <REMARK>
 VINA RESULT:      -2.5     13.418     15.810
  Name = 
  9 active torsions:
  status: ('A' for Active; 'I' for Inactive)
    1  A    between atoms: C_1  and  C_22
    2  A    between atoms: N_4  and  C_25
    3  A    between atoms: C_6  and  C_8
    4  A    between atoms: C_6  and  C_17
    5  A    between atoms: C_7  and  C_30
    6  A    between atoms: C_10  and  C_23
    7  A    between atoms: C_10  and  C_26
    8  A    between atoms: C_11  and  C_25
    9  A    between atoms: C_13  and  C_30
                            x       y       z     vdW  Elec       q    Type
                         _______ _______ _______ _____ _____    ______ ____

>  <TORSDO>
F 9

$$$$
=
 OpenBabel11052421493D

 30 31  0  0  1  0  0  0  0  0999 V2000
  159.4290  211.0970  154.1660 C   0  0  1  0  0  3  0  0  0  0  0  0
  161.3080  209.4320  154.6780 N   0  0  0  0  0  0  0  0  0  0  0  0
  160.4840  211.7830  153.4290 N   0  0  0  0  0  2  0  0  0  0  0  0
  160.5840  209.5650  152.2270 C   0  0  2  0  0  3  0  0  0  0  0  0
  160.7560  211.0930  152.1670 C   0  0  0  0  0  2  0  0  0  0  0  0
  161.4680  208.8880  153.3080 C   0  0  2  0  0  3  0  0  0  0  0  0
  160.0010  209.9990  155.0810 C   0  0  2  0  0  3  0  0  0  0  0  0
  159.1310  212.8620  155.9800 C   0  0  0  0  0  0  0  0  0  0  0  0
  158.3050  213.7500  156.6770 C   0  0  0  0  0  3  0  0  0  0  0  0
  160.4730  212.7680  156.3290 O   0  0  0  0  0  1  0  0  0  0  0  0
  157.2400  212.1920  154.6150 C   0  0  0  0  0  3  0  0  0  0  0  0
  155.1090  213.1890  154.9920 F   0  0  0  0  0  0  0  0  0  0  0  0
  158.5970  212.0760  154.9400 C   0  0  0  0  0  0  0  0  0  0  0  0
  156.9520  213.8610  156.3450 C   0  0  0  0  0  3  0  0  0  0  0  0
  156.4210  213.0820  155.3140 C   0  0  0  0  0  0  0  0  0  0  0  0
  161.9180  206.6790  154.5430 C   0  0  0  0  0  1  0  0  0  0  0  0
  161.3150  207.3460  153.3130 C   0  0  2  0  0  3  0  0  0  0  0  0
  161.9250  206.7100  152.0680 C   0  0  0  0  0  2  0  0  0  0  0  0
  163.0130  205.9010  152.4050 O   0  0  0  0  0  1  0  0  0  0  0  0
  160.8370  209.0070  150.8320 C   0  0  0  0  0  2  0  0  0  0  0  0
  162.2380  209.5790  149.0190 O   0  0  0  0  0  0  0  0  0  0  0  0
  162.0640  209.6100  150.2260 C   0  0  0  0  0  0  0  0  0  0  0  0
  162.9790  210.2180  151.0250 F   0  0  0  0  0  0  0  0  0  0  0  0
  158.9780  208.8990  155.3170 C   0  0  0  0  0  2  0  0  0  0  0  0
  159.2300  206.7490  156.3350 O   0  0  0  0  0  1  0  0  0  0  0  0
  159.3170  208.1200  156.5760 C   0  0  0  0  0  2  0  0  0  0  0  0
  162.4040  210.3420  154.9910 C   0  0  0  0  0  2  0  0  0  0  0  0
  162.5210  209.1640  157.0280 O   0  0  0  0  0  0  0  0  0  0  0  0
  162.8130  210.1800  156.4180 C   0  0  0  0  0  0  0  0  0  0  0  0
  163.5930  211.2520  157.0930 C   0  0  0  0  0  1  0  0  0  0  0  0
  1 13  1  1  0  0  0
  1  7  1  0  0  0  0
  2 27  1  0  0  0  0
  2  7  1  0  0  0  0
  3  1  1  0  0  0  0
  4 20  1  6  0  0  0
  4  6  1  0  0  0  0
  5  4  1  0  0  0  0
  5  3  1  0  0  0  0
  6 17  1  1  0  0  0
  6  2  1  0  0  0  0
  7 24  1  6  0  0  0
  8 10  1  0  0  0  0
  8  9  1  0  0  0  0
 11 13  1  0  0  0  0
 11 15  2  0  0  0  0
 12 15  1  0  0  0  0
 13  8  2  0  0  0  0
 14  9  2  0  0  0  0
 15 14  1  0  0  0  0
 17 16  1  1  0  0  0
 18 19  1  0  0  0  0
 18 17  1  0  0  0  0
 21 22  2  0  0  0  0
 22 20  1  0  0  0  0
 22 23  1  0  0  0  0
 24 26  1  0  0  0  0
 25 26  1  0  0  0  0
 27 29  1  0  0  0  0
 29 28  2  0  0  0  0
 29 30  1  0  0  0  0
M  END
>  <MODEL>
9

>  <REMARK>
 VINA RESULT:      -2.4      2.431      6.200
  Name = 
  9 active torsions:
  status: ('A' for Active; 'I' for Inactive)
    1  A    between atoms: C_1  and  C_22
    2  A    between atoms: N_4  and  C_25
    3  A    between atoms: C_6  and  C_8
    4  A    between atoms: C_6  and  C_17
    5  A    between atoms: C_7  and  C_30
    6  A    between atoms: C_10  and  C_23
    7  A    between atoms: C_10  and  C_26
    8  A    between atoms: C_11  and  C_25
    9  A    between atoms: C_13  and  C_30
                            x       y       z     vdW  Elec       q    Type
                         _______ _______ _______ _____ _____    ______ ____

>  <TORSDO>
F 9

$$$$
