=
 OpenBabel11062409343D

 34 37  0  0  1  0  0  0  0  0999 V2000
  160.1870  210.4790  153.4190 C   0  0  1  0  0  0  0  0  0  0  0  0
  157.4560  212.8100  154.4650 C   0  0  0  0  0  2  0  0  0  0  0  0
  158.9730  211.5320  155.7430 C   0  0  0  0  0  2  0  0  0  0  0  0
  161.0900  211.5470  153.4140 O   0  0  0  0  0  1  0  0  0  0  0  0
  161.1640  208.5940  154.8530 C   0  0  0  0  0  3  0  0  0  0  0  0
  160.7010  208.5060  157.2280 C   0  0  0  0  0  3  0  0  0  0  0  0
  161.3290  207.9770  156.0970 C   0  0  0  0  0  3  0  0  0  0  0  0
  159.7430  210.2640  155.8720 C   0  0  0  0  0  0  0  0  0  0  0  0
  160.3510  209.7350  154.7270 C   0  0  0  0  0  0  0  0  0  0  0  0
  159.9140  209.6550  157.1180 C   0  0  0  0  0  3  0  0  0  0  0  0
  158.3690  213.7910  153.7370 C   0  0  0  0  0  2  0  0  0  0  0  0
  158.5410  213.3690  152.2810 C   0  0  2  0  0  3  0  0  0  0  0  0
  158.0780  211.4860  154.5800 N   0  0  2  0  0  0  0  0  0  0  0  0
  158.4070  211.8580  152.0620 C   0  0  0  0  0  2  0  0  0  0  0  0
  158.7260  211.0150  153.3140 C   0  0  1  0  0  3  0  0  0  0  0  0
  160.4840  209.5390  152.2350 C   0  0  0  0  0  2  0  0  0  0  0  0
  161.9430  209.5620  151.7950 C   0  0  0  0  0  2  0  0  0  0  0  0
  162.1140  208.8170  150.4820 C   0  0  0  0  0  2  0  0  0  0  0  0
  162.3550  207.3330  150.7200 C   0  0  0  0  0  2  0  0  0  0  0  0
  161.0110  204.9440  147.8900 C   0  0  1  0  0  3  0  0  0  0  0  0
  160.7710  204.3500  149.2830 C   0  0  0  0  0  2  0  0  0  0  0  0
  161.5290  205.1370  150.3580 C   0  0  1  0  0  3  0  0  0  0  0  0
  160.6090  207.0920  149.1510 C   0  0  0  0  0  2  0  0  0  0  0  0
  161.1520  206.5660  150.4160 N   0  0  0  0  0  0  0  0  0  0  0  0
  161.2670  206.4580  147.9240 C   0  0  0  0  0  2  0  0  0  0  0  0
  162.1280  204.1890  147.1680 C   0  0  1  0  0  3  0  0  0  0  0  0
  161.5730  203.3750  146.0130 C   0  0  0  0  0  1  0  0  0  0  0  0
  163.1090  205.0690  146.7010 O   0  0  0  0  0  1  0  0  0  0  0  0
  161.3720  204.4750  151.7240 C   0  0  0  0  0  2  0  0  0  0  0  0
  161.3620  202.9580  151.6260 C   0  0  0  0  0  1  0  0  0  0  0  0
  160.1240  213.9750  151.6280 S   0  0  0  0  0  0  0  0  0  0  0  0
  159.8230  213.2610  149.9800 C   0  0  0  0  0  2  0  0  0  0  0  0
  161.0090  213.5070  149.0620 C   0  0  0  0  0  2  0  0  0  0  0  0
  161.5130  212.1950  148.4880 C   0  0  0  0  0  1  0  0  0  0  0  0
  1  4  1  6  0  0  0
  1  9  1  0  0  0  0
  3  8  1  0  0  0  0
  5  7  1  0  0  0  0
  7  6  2  0  0  0  0
  8 10  2  0  0  0  0
  9  5  2  0  0  0  0
  9  8  1  0  0  0  0
 10  6  1  0  0  0  0
 11  2  1  0  0  0  0
 12 31  1  1  0  0  0
 12 11  1  0  0  0  0
 13  2  1  6  0  0  0
 13  3  1  0  0  0  0
 14 12  1  0  0  0  0
 15 14  1  6  0  0  0
 15  1  1  0  0  0  0
 15 13  1  0  0  0  0
 16  1  1  0  0  0  0
 17 16  1  0  0  0  0
 18 19  1  0  0  0  0
 18 17  1  0  0  0  0
 20 26  1  1  0  0  0
 20 25  1  0  0  0  0
 20 21  1  0  0  0  0
 21 22  1  0  0  0  0
 22 24  1  0  0  0  0
 22 29  1  1  0  0  0
 23 24  1  0  0  0  0
 24 19  1  0  0  0  0
 25 23  1  0  0  0  0
 26 27  1  6  0  0  0
 28 26  1  0  0  0  0
 30 29  1  0  0  0  0
 32 31  1  0  0  0  0
 33 32  1  0  0  0  0
 34 33  1  0  0  0  0
M  END
>  <MODEL>
1

>  <REMARK>
 VINA RESULT:      -6.8      0.000      0.000
  Name = 
  10 active torsions:
  status: ('A' for Active; 'I' for Inactive)
    1  A    between atoms: C_1  and  C_8
    2  A    between atoms: C_3  and  C_13
    3  A    between atoms: C_4  and  C_16
    4  A    between atoms: C_6  and  N_28
    5  A    between atoms: C_6  and  C_30
    6  A    between atoms: C_7  and  C_11
    7  A    between atoms: C_8  and  C_18
    8  A    between atoms: C_13  and  S_27
    9  A    between atoms: C_18  and  C_30
   10  A    between atoms: C_25  and  S_27
                            x       y       z     vdW  Elec       q    Type
                         _______ _______ _______ _____ _____    ______ ____

>  <TORSDO>
F 10

$$$$
=
 OpenBabel11062409343D

 34 37  0  0  1  0  0  0  0  0999 V2000
  160.3880  211.1970  153.5790 C   0  0  1  0  0  0  0  0  0  0  0  0
  159.7240  212.5680  156.9950 C   0  0  0  0  0  2  0  0  0  0  0  0
  158.7550  213.0830  154.9060 C   0  0  0  0  0  2  0  0  0  0  0  0
  159.4140  210.2150  153.7890 O   0  0  0  0  0  1  0  0  0  0  0  0
  159.8750  212.3920  151.3720 C   0  0  0  0  0  3  0  0  0  0  0  0
  158.4410  214.3430  151.3480 C   0  0  0  0  0  3  0  0  0  0  0  0
  159.2260  213.4090  150.6650 C   0  0  0  0  0  3  0  0  0  0  0  0
  158.9540  213.2430  153.4390 C   0  0  0  0  0  0  0  0  0  0  0  0
  159.7600  212.3120  152.7710 C   0  0  0  0  0  0  0  0  0  0  0  0
  158.2970  214.2550  152.7350 C   0  0  0  0  0  3  0  0  0  0  0  0
  159.3080  211.1170  157.2130 C   0  0  0  0  0  2  0  0  0  0  0  0
  160.4850  210.1850  156.9440 C   0  0  2  0  0  3  0  0  0  0  0  0
  160.0320  212.8290  155.5840 N   0  0  2  0  0  0  0  0  0  0  0  0
  161.4850  210.7410  155.9240 C   0  0  0  0  0  2  0  0  0  0  0  0
  160.8740  211.7670  154.9470 C   0  0  1  0  0  3  0  0  0  0  0  0
  161.5790  210.5950  152.8110 C   0  0  0  0  0  2  0  0  0  0  0  0
  161.2680  209.2460  152.1720 C   0  0  0  0  0  2  0  0  0  0  0  0
  162.1910  208.9900  150.9930 C   0  0  0  0  0  2  0  0  0  0  0  0
  162.4820  207.5040  150.8350 C   0  0  0  0  0  2  0  0  0  0  0  0
  161.0500  205.1450  148.0240 C   0  0  1  0  0  3  0  0  0  0  0  0
  160.8010  204.5640  149.4200 C   0  0  0  0  0  2  0  0  0  0  0  0
  161.5890  205.3330  150.4870 C   0  0  1  0  0  3  0  0  0  0  0  0
  160.7210  207.3100  149.2780 C   0  0  0  0  0  2  0  0  0  0  0  0
  161.2550  206.7720  150.5420 N   0  0  0  0  0  0  0  0  0  0  0  0
  161.3510  206.6510  148.0500 C   0  0  0  0  0  2  0  0  0  0  0  0
  162.1390  204.3550  147.2970 C   0  0  1  0  0  3  0  0  0  0  0  0
  161.5380  203.4550  146.2330 C   0  0  0  0  0  1  0  0  0  0  0  0
  163.0810  205.2120  146.7200 O   0  0  0  0  0  1  0  0  0  0  0  0
  161.4220  204.6810  151.8570 C   0  0  0  0  0  2  0  0  0  0  0  0
  161.1410  203.1910  151.7500 C   0  0  0  0  0  1  0  0  0  0  0  0
  159.8930  208.5450  156.4360 S   0  0  0  0  0  0  0  0  0  0  0  0
  161.5710  207.9590  156.0420 C   0  0  0  0  0  2  0  0  0  0  0  0
  161.5760  207.1740  154.7400 C   0  0  0  0  0  2  0  0  0  0  0  0
  160.2050  206.5800  154.4760 C   0  0  0  0  0  1  0  0  0  0  0  0
  1  4  1  1  0  0  0
  1 15  1  0  0  0  0
  2 11  1  0  0  0  0
  5  9  1  0  0  0  0
  6 10  2  0  0  0  0
  7  6  1  0  0  0  0
  7  5  2  0  0  0  0
  8  3  1  0  0  0  0
  9  8  2  0  0  0  0
  9  1  1  0  0  0  0
 10  8  1  0  0  0  0
 12 31  1  6  0  0  0
 12 11  1  0  0  0  0
 13  3  1  6  0  0  0
 13  2  1  0  0  0  0
 14 12  1  0  0  0  0
 15 13  1  0  0  0  0
 15 14  1  1  0  0  0
 16  1  1  0  0  0  0
 17 16  1  0  0  0  0
 18 17  1  0  0  0  0
 19 18  1  0  0  0  0
 20 26  1  1  0  0  0
 20 25  1  0  0  0  0
 20 21  1  0  0  0  0
 21 22  1  0  0  0  0
 22 24  1  0  0  0  0
 22 29  1  1  0  0  0
 23 24  1  0  0  0  0
 24 19  1  0  0  0  0
 25 23  1  0  0  0  0
 26 27  1  6  0  0  0
 28 26  1  0  0  0  0
 30 29  1  0  0  0  0
 32 31  1  0  0  0  0
 33 32  1  0  0  0  0
 34 33  1  0  0  0  0
M  END
>  <MODEL>
2

>  <REMARK>
 VINA RESULT:      -6.7      1.771      4.261
  Name = 
  10 active torsions:
  status: ('A' for Active; 'I' for Inactive)
    1  A    between atoms: C_1  and  C_8
    2  A    between atoms: C_3  and  C_13
    3  A    between atoms: C_4  and  C_16
    4  A    between atoms: C_6  and  N_28
    5  A    between atoms: C_6  and  C_30
    6  A    between atoms: C_7  and  C_11
    7  A    between atoms: C_8  and  C_18
    8  A    between atoms: C_13  and  S_27
    9  A    between atoms: C_18  and  C_30
   10  A    between atoms: C_25  and  S_27
                            x       y       z     vdW  Elec       q    Type
                         _______ _______ _______ _____ _____    ______ ____

>  <TORSDO>
F 10

$$$$
=
 OpenBabel11062409343D

 34 37  0  0  1  0  0  0  0  0999 V2000
  161.5520  208.2610  151.9100 C   0  0  1  0  0  0  0  0  0  0  0  0
  161.7950  204.5320  152.0770 C   0  0  0  0  0  2  0  0  0  0  0  0
  160.8850  206.0930  153.5960 C   0  0  0  0  0  2  0  0  0  0  0  0
  160.3080  208.1460  151.2810 O   0  0  0  0  0  1  0  0  0  0  0  0
  161.3050  209.8270  153.9220 C   0  0  0  0  0  3  0  0  0  0  0  0
  160.7110  208.9350  156.0940 C   0  0  0  0  0  3  0  0  0  0  0  0
  161.0170  210.0260  155.2750 C   0  0  0  0  0  3  0  0  0  0  0  0
  160.9820  207.4470  154.2060 C   0  0  0  0  0  0  0  0  0  0  0  0
  161.3090  208.5290  153.3790 C   0  0  0  0  0  0  0  0  0  0  0  0
  160.6840  207.6450  155.5570 C   0  0  0  0  0  3  0  0  0  0  0  0
  160.8900  204.6780  150.8580 C   0  0  0  0  0  2  0  0  0  0  0  0
  161.6000  205.4740  149.7680 C   0  0  2  0  0  3  0  0  0  0  0  0
  162.0360  205.8280  152.7220 N   0  0  2  0  0  0  0  0  0  0  0  0
  162.6280  206.4730  150.3100 C   0  0  0  0  0  2  0  0  0  0  0  0
  162.3510  206.9290  151.7570 C   0  0  1  0  0  3  0  0  0  0  0  0
  162.3480  209.4210  151.2850 C   0  0  0  0  0  2  0  0  0  0  0  0
  161.9740  209.6990  149.8330 C   0  0  0  0  0  2  0  0  0  0  0  0
  161.9410  211.1950  149.5690 C   0  0  0  0  0  2  0  0  0  0  0  0
  161.7020  211.4870  148.0940 C   0  0  0  0  0  2  0  0  0  0  0  0
  161.3910  214.0450  145.1140 C   0  0  1  0  0  3  0  0  0  0  0  0
  160.2130  214.1740  146.0850 C   0  0  0  0  0  2  0  0  0  0  0  0
  160.1880  213.0100  147.0830 C   0  0  1  0  0  3  0  0  0  0  0  0
  162.6080  213.4970  147.2560 C   0  0  0  0  0  2  0  0  0  0  0  0
  161.4200  212.9040  147.8940 N   0  0  0  0  0  0  0  0  0  0  0  0
  162.6000  213.3290  145.7350 C   0  0  0  0  0  2  0  0  0  0  0  0
  160.9440  213.3870  143.8080 C   0  0  1  0  0  3  0  0  0  0  0  0
  162.0790  212.5980  143.1810 C   0  0  0  0  0  1  0  0  0  0  0  0
  159.8430  212.5510  144.0180 O   0  0  0  0  0  1  0  0  0  0  0  0
  158.9520  213.0880  147.9750 C   0  0  0  0  0  2  0  0  0  0  0  0
  157.6790  212.7370  147.2190 C   0  0  0  0  0  1  0  0  0  0  0  0
  160.3890  206.3100  148.7030 S   0  0  0  0  0  0  0  0  0  0  0  0
  161.3690  206.0120  147.1980 C   0  0  0  0  0  2  0  0  0  0  0  0
  161.8260  204.5640  147.1310 C   0  0  0  0  0  2  0  0  0  0  0  0
  161.9310  204.1090  145.6870 C   0  0  0  0  0  1  0  0  0  0  0  0
  1  4  1  6  0  0  0
  1  9  1  0  0  0  0
  3  8  1  0  0  0  0
  5  7  1  0  0  0  0
  7  6  2  0  0  0  0
  8 10  2  0  0  0  0
  9  5  2  0  0  0  0
  9  8  1  0  0  0  0
 10  6  1  0  0  0  0
 11  2  1  0  0  0  0
 12 31  1  1  0  0  0
 12 14  1  0  0  0  0
 12 11  1  0  0  0  0
 13  2  1  6  0  0  0
 13  3  1  0  0  0  0
 15 14  1  6  0  0  0
 15  1  1  0  0  0  0
 15 13  1  0  0  0  0
 16  1  1  0  0  0  0
 17 16  1  0  0  0  0
 18 17  1  0  0  0  0
 19 18  1  0  0  0  0
 20 26  1  6  0  0  0
 20 25  1  0  0  0  0
 20 21  1  0  0  0  0
 21 22  1  0  0  0  0
 22 24  1  0  0  0  0
 22 29  1  1  0  0  0
 23 24  1  0  0  0  0
 24 19  1  0  0  0  0
 25 23  1  0  0  0  0
 26 27  1  1  0  0  0
 26 28  1  0  0  0  0
 30 29  1  0  0  0  0
 32 31  1  0  0  0  0
 33 32  1  0  0  0  0
 34 33  1  0  0  0  0
M  END
>  <MODEL>
3

>  <REMARK>
 VINA RESULT:      -6.4      3.215      7.141
  Name = 
  10 active torsions:
  status: ('A' for Active; 'I' for Inactive)
    1  A    between atoms: C_1  and  C_8
    2  A    between atoms: C_3  and  C_13
    3  A    between atoms: C_4  and  C_16
    4  A    between atoms: C_6  and  N_28
    5  A    between atoms: C_6  and  C_30
    6  A    between atoms: C_7  and  C_11
    7  A    between atoms: C_8  and  C_18
    8  A    between atoms: C_13  and  S_27
    9  A    between atoms: C_18  and  C_30
   10  A    between atoms: C_25  and  S_27
                            x       y       z     vdW  Elec       q    Type
                         _______ _______ _______ _____ _____    ______ ____

>  <TORSDO>
F 10

$$$$
=
 OpenBabel11062409343D

 34 37  0  0  1  0  0  0  0  0999 V2000
  161.5310  208.1880  151.9210 C   0  0  1  0  0  0  0  0  0  0  0  0
  161.8250  204.4610  151.8000 C   0  0  0  0  0  2  0  0  0  0  0  0
  160.9030  205.8880  153.4380 C   0  0  0  0  0  2  0  0  0  0  0  0
  160.2850  208.1050  151.2900 O   0  0  0  0  0  1  0  0  0  0  0  0
  161.2740  209.5910  154.0480 C   0  0  0  0  0  3  0  0  0  0  0  0
  160.7030  208.5270  156.1480 C   0  0  0  0  0  3  0  0  0  0  0  0
  160.9910  209.6820  155.4150 C   0  0  0  0  0  3  0  0  0  0  0  0
  160.9840  207.1930  154.1500 C   0  0  0  0  0  0  0  0  0  0  0  0
  161.2930  208.3390  153.4080 C   0  0  0  0  0  0  0  0  0  0  0  0
  160.6910  207.2820  155.5140 C   0  0  0  0  0  3  0  0  0  0  0  0
  160.9120  204.6870  150.6000 C   0  0  0  0  0  2  0  0  0  0  0  0
  161.6050  205.5740  149.5710 C   0  0  2  0  0  3  0  0  0  0  0  0
  162.0520  205.7070  152.5420 N   0  0  2  0  0  0  0  0  0  0  0  0
  162.6220  206.5430  150.1840 C   0  0  0  0  0  2  0  0  0  0  0  0
  162.3470  206.8830  151.6630 C   0  0  1  0  0  3  0  0  0  0  0  0
  162.3080  209.4040  151.3840 C   0  0  0  0  0  2  0  0  0  0  0  0
  161.9630  209.7530  149.9400 C   0  0  0  0  0  2  0  0  0  0  0  0
  162.0180  211.2570  149.7290 C   0  0  0  0  0  2  0  0  0  0  0  0
  162.1260  211.6000  148.2500 C   0  0  0  0  0  2  0  0  0  0  0  0
  160.0740  213.8570  145.7560 C   0  0  1  0  0  3  0  0  0  0  0  0
  159.8140  214.2550  147.2130 C   0  0  0  0  0  2  0  0  0  0  0  0
  160.3890  213.2160  148.1820 C   0  0  1  0  0  3  0  0  0  0  0  0
  162.3620  213.3600  146.6960 C   0  0  0  0  0  2  0  0  0  0  0  0
  161.8460  213.0150  148.0320 N   0  0  0  0  0  0  0  0  0  0  0  0
  161.3630  213.0390  145.5830 C   0  0  0  0  0  2  0  0  0  0  0  0
  158.8580  213.1410  145.1680 C   0  0  1  0  0  3  0  0  0  0  0  0
  157.5670  213.7670  145.6640 C   0  0  0  0  0  1  0  0  0  0  0  0
  158.8900  213.1610  143.7710 O   0  0  0  0  0  1  0  0  0  0  0  0
  160.0310  213.5650  149.6250 C   0  0  0  0  0  2  0  0  0  0  0  0
  158.5530  213.8830  149.7850 C   0  0  0  0  0  1  0  0  0  0  0  0
  160.3780  206.4740  148.5790 S   0  0  0  0  0  0  0  0  0  0  0  0
  161.1740  206.0120  147.0080 C   0  0  0  0  0  2  0  0  0  0  0  0
  161.9630  204.7220  147.1620 C   0  0  0  0  0  2  0  0  0  0  0  0
  163.1660  204.7240  146.2370 C   0  0  0  0  0  1  0  0  0  0  0  0
  1  4  1  6  0  0  0
  1  9  1  0  0  0  0
  3  8  1  0  0  0  0
  5  7  1  0  0  0  0
  7  6  2  0  0  0  0
  8 10  2  0  0  0  0
  9  5  2  0  0  0  0
  9  8  1  0  0  0  0
 10  6  1  0  0  0  0
 11  2  1  0  0  0  0
 12 31  1  1  0  0  0
 12 14  1  0  0  0  0
 12 11  1  0  0  0  0
 13  2  1  6  0  0  0
 13  3  1  0  0  0  0
 15 14  1  6  0  0  0
 15  1  1  0  0  0  0
 15 13  1  0  0  0  0
 16  1  1  0  0  0  0
 17 16  1  0  0  0  0
 18 17  1  0  0  0  0
 19 18  1  0  0  0  0
 20 26  1  1  0  0  0
 20 21  1  0  0  0  0
 21 22  1  0  0  0  0
 22 29  1  1  0  0  0
 23 24  1  0  0  0  0
 24 22  1  0  0  0  0
 24 19  1  0  0  0  0
 25 20  1  0  0  0  0
 25 23  1  0  0  0  0
 26 27  1  1  0  0  0
 28 26  1  0  0  0  0
 29 30  1  0  0  0  0
 32 33  1  0  0  0  0
 32 31  1  0  0  0  0
 34 33  1  0  0  0  0
M  END
>  <MODEL>
4

>  <REMARK>
 VINA RESULT:      -6.2      3.136      7.188
  Name = 
  10 active torsions:
  status: ('A' for Active; 'I' for Inactive)
    1  A    between atoms: C_1  and  C_8
    2  A    between atoms: C_3  and  C_13
    3  A    between atoms: C_4  and  C_16
    4  A    between atoms: C_6  and  N_28
    5  A    between atoms: C_6  and  C_30
    6  A    between atoms: C_7  and  C_11
    7  A    between atoms: C_8  and  C_18
    8  A    between atoms: C_13  and  S_27
    9  A    between atoms: C_18  and  C_30
   10  A    between atoms: C_25  and  S_27
                            x       y       z     vdW  Elec       q    Type
                         _______ _______ _______ _____ _____    ______ ____

>  <TORSDO>
F 10

$$$$
=
 OpenBabel11062409343D

 34 37  0  0  1  0  0  0  0  0999 V2000
  161.5520  206.4260  148.5050 C   0  0  1  0  0  0  0  0  0  0  0  0
  160.4810  203.6380  150.7570 C   0  0  0  0  0  2  0  0  0  0  0  0
  161.4660  203.6040  148.6130 C   0  0  0  0  0  2  0  0  0  0  0  0
  162.8220  206.4040  149.0910 O   0  0  0  0  0  1  0  0  0  0  0  0
  161.8240  206.2650  145.9640 C   0  0  0  0  0  3  0  0  0  0  0  0
  161.8720  204.1000  144.8790 C   0  0  0  0  0  3  0  0  0  0  0  0
  161.9390  205.4940  144.8030 C   0  0  0  0  0  3  0  0  0  0  0  0
  161.5750  204.2480  147.2750 C   0  0  0  0  0  0  0  0  0  0  0  0
  161.6200  205.6460  147.2100 C   0  0  0  0  0  0  0  0  0  0  0  0
  161.6990  203.4760  146.1170 C   0  0  0  0  0  3  0  0  0  0  0  0
  161.5700  204.2640  151.6210 C   0  0  0  0  0  2  0  0  0  0  0  0
  161.2250  205.7170  151.9330 C   0  0  2  0  0  3  0  0  0  0  0  0
  160.4330  204.2560  149.4260 N   0  0  2  0  0  0  0  0  0  0  0  0
  160.3690  206.3880  150.8540 C   0  0  0  0  0  2  0  0  0  0  0  0
  160.5150  205.7510  149.4560 C   0  0  1  0  0  3  0  0  0  0  0  0
  161.1320  207.8810  148.2250 C   0  0  0  0  0  2  0  0  0  0  0  0
  162.2060  208.9020  148.5870 C   0  0  0  0  0  2  0  0  0  0  0  0
  161.6420  210.3110  148.5240 C   0  0  0  0  0  2  0  0  0  0  0  0
  162.7570  211.3470  148.4910 C   0  0  0  0  0  2  0  0  0  0  0  0
  160.0020  213.3360  146.4970 C   0  0  1  0  0  3  0  0  0  0  0  0
  159.8850  213.5800  148.0060 C   0  0  0  0  0  2  0  0  0  0  0  0
  160.7680  212.6050  148.7940 C   0  0  1  0  0  3  0  0  0  0  0  0
  162.4520  213.2200  147.0890 C   0  0  0  0  0  2  0  0  0  0  0  0
  162.2010  212.6950  148.4420 N   0  0  0  0  0  0  0  0  0  0  0  0
  161.3780  212.7910  146.0870 C   0  0  0  0  0  2  0  0  0  0  0  0
  158.8620  212.4430  146.0050 C   0  0  1  0  0  3  0  0  0  0  0  0
  157.5840  212.7220  146.7750 C   0  0  0  0  0  1  0  0  0  0  0  0
  158.6400  212.6200  144.6360 O   0  0  0  0  0  1  0  0  0  0  0  0
  160.5620  212.7820  150.2960 C   0  0  0  0  0  2  0  0  0  0  0  0
  159.2420  213.4670  150.6150 C   0  0  0  0  0  1  0  0  0  0  0  0
  162.7370  206.6750  152.2440 S   0  0  0  0  0  0  0  0  0  0  0  0
  161.9030  208.2640  151.9350 C   0  0  0  0  0  2  0  0  0  0  0  0
  161.1830  208.7460  153.1840 C   0  0  0  0  0  2  0  0  0  0  0  0
  160.3900  210.0050  152.8840 C   0  0  0  0  0  1  0  0  0  0  0  0
  1  4  1  1  0  0  0
  1 15  1  0  0  0  0
  2 11  1  0  0  0  0
  5  9  1  0  0  0  0
  6 10  2  0  0  0  0
  7  6  1  0  0  0  0
  7  5  2  0  0  0  0
  8  3  1  0  0  0  0
  9  8  2  0  0  0  0
  9  1  1  0  0  0  0
 10  8  1  0  0  0  0
 11 12  1  0  0  0  0
 12 31  1  6  0  0  0
 13  3  1  6  0  0  0
 13 15  1  0  0  0  0
 13  2  1  0  0  0  0
 14 12  1  0  0  0  0
 15 14  1  1  0  0  0
 16  1  1  0  0  0  0
 16 17  1  0  0  0  0
 18 17  1  0  0  0  0
 19 18  1  0  0  0  0
 20 26  1  1  0  0  0
 20 21  1  0  0  0  0
 21 22  1  0  0  0  0
 22 29  1  1  0  0  0
 23 24  1  0  0  0  0
 24 19  1  0  0  0  0
 24 22  1  0  0  0  0
 25 20  1  0  0  0  0
 25 23  1  0  0  0  0
 26 27  1  1  0  0  0
 28 26  1  0  0  0  0
 29 30  1  0  0  0  0
 32 31  1  0  0  0  0
 32 33  1  0  0  0  0
 34 33  1  0  0  0  0
M  END
>  <MODEL>
5

>  <REMARK>
 VINA RESULT:      -6.0      3.031      8.432
  Name = 
  10 active torsions:
  status: ('A' for Active; 'I' for Inactive)
    1  A    between atoms: C_1  and  C_8
    2  A    between atoms: C_3  and  C_13
    3  A    between atoms: C_4  and  C_16
    4  A    between atoms: C_6  and  N_28
    5  A    between atoms: C_6  and  C_30
    6  A    between atoms: C_7  and  C_11
    7  A    between atoms: C_8  and  C_18
    8  A    between atoms: C_13  and  S_27
    9  A    between atoms: C_18  and  C_30
   10  A    between atoms: C_25  and  S_27
                            x       y       z     vdW  Elec       q    Type
                         _______ _______ _______ _____ _____    ______ ____

>  <TORSDO>
F 10

$$$$
=
 OpenBabel11062409343D

 34 37  0  0  1  0  0  0  0  0999 V2000
  161.5960  206.0730  149.0370 C   0  0  1  0  0  0  0  0  0  0  0  0
  160.4520  202.9430  150.7360 C   0  0  0  0  0  2  0  0  0  0  0  0
  161.4500  203.2810  148.6240 C   0  0  0  0  0  2  0  0  0  0  0  0
  162.8610  205.9160  149.6110 O   0  0  0  0  0  1  0  0  0  0  0  0
  161.8800  206.3750  146.5100 C   0  0  0  0  0  3  0  0  0  0  0  0
  161.8900  204.4450  145.0460 C   0  0  0  0  0  3  0  0  0  0  0  0
  161.9870  205.8280  145.2270 C   0  0  0  0  0  3  0  0  0  0  0  0
  161.5810  204.1580  147.4280 C   0  0  0  0  0  0  0  0  0  0  0  0
  161.6560  205.5430  147.6210 C   0  0  0  0  0  0  0  0  0  0  0  0
  161.6960  203.6090  146.1480 C   0  0  0  0  0  3  0  0  0  0  0  0
  161.5490  203.3760  151.7020 C   0  0  0  0  0  2  0  0  0  0  0  0
  161.2320  204.7530  152.2750 C   0  0  2  0  0  3  0  0  0  0  0  0
  160.4250  203.7960  149.5410 N   0  0  2  0  0  0  0  0  0  0  0  0
  160.3970  205.6300  151.3360 C   0  0  0  0  0  2  0  0  0  0  0  0
  160.5390  205.2580  149.8450 C   0  0  1  0  0  3  0  0  0  0  0  0
  161.2080  207.5640  149.0280 C   0  0  0  0  0  2  0  0  0  0  0  0
  162.1080  208.4290  149.9030 C   0  0  0  0  0  2  0  0  0  0  0  0
  161.3450  209.6370  150.4200 C   0  0  0  0  0  2  0  0  0  0  0  0
  161.0770  209.5190  151.9140 C   0  0  0  0  0  2  0  0  0  0  0  0
  158.9000  211.8500  154.2270 C   0  0  1  0  0  3  0  0  0  0  0  0
  160.3360  211.7290  154.7490 C   0  0  0  0  0  2  0  0  0  0  0  0
  161.0990  210.6190  154.0170 C   0  0  1  0  0  3  0  0  0  0  0  0
  160.0920  211.6610  152.0110 C   0  0  0  0  0  2  0  0  0  0  0  0
  161.1770  210.8250  152.5550 N   0  0  0  0  0  0  0  0  0  0  0  0
  158.7680  211.4530  152.7490 C   0  0  0  0  0  2  0  0  0  0  0  0
  157.9340  211.0700  155.1190 C   0  0  1  0  0  3  0  0  0  0  0  0
  158.1950  211.3600  156.5860 C   0  0  0  0  0  1  0  0  0  0  0  0
  156.6060  211.3690  154.8040 O   0  0  0  0  0  1  0  0  0  0  0  0
  162.4900  210.4320  154.6170 C   0  0  0  0  0  2  0  0  0  0  0  0
  162.4480  210.3280  156.1340 C   0  0  0  0  0  1  0  0  0  0  0  0
  162.7620  205.6050  152.7600 S   0  0  0  0  0  0  0  0  0  0  0  0
  161.8590  206.9190  153.6410 C   0  0  0  0  0  2  0  0  0  0  0  0
  160.7170  206.3340  154.4560 C   0  0  0  0  0  2  0  0  0  0  0  0
  160.2920  207.3050  155.5420 C   0  0  0  0  0  1  0  0  0  0  0  0
  1  4  1  1  0  0  0
  1 15  1  0  0  0  0
  2 11  1  0  0  0  0
  5  9  1  0  0  0  0
  6  7  1  0  0  0  0
  6 10  2  0  0  0  0
  7  5  2  0  0  0  0
  8  9  2  0  0  0  0
  8  3  1  0  0  0  0
  9  1  1  0  0  0  0
 10  8  1  0  0  0  0
 11 12  1  0  0  0  0
 12 31  1  6  0  0  0
 13  3  1  6  0  0  0
 13 15  1  0  0  0  0
 13  2  1  0  0  0  0
 14 12  1  0  0  0  0
 15 14  1  1  0  0  0
 16  1  1  0  0  0  0
 16 17  1  0  0  0  0
 17 18  1  0  0  0  0
 18 19  1  0  0  0  0
 19 24  1  0  0  0  0
 20 21  1  0  0  0  0
 20 26  1  1  0  0  0
 22 29  1  1  0  0  0
 22 21  1  0  0  0  0
 23 24  1  0  0  0  0
 23 25  1  0  0  0  0
 24 22  1  0  0  0  0
 25 20  1  0  0  0  0
 26 27  1  1  0  0  0
 28 26  1  0  0  0  0
 29 30  1  0  0  0  0
 31 32  1  0  0  0  0
 32 33  1  0  0  0  0
 33 34  1  0  0  0  0
M  END
>  <MODEL>
6

>  <REMARK>
 VINA RESULT:      -5.7      2.476      8.843
  Name = 
  10 active torsions:
  status: ('A' for Active; 'I' for Inactive)
    1  A    between atoms: C_1  and  C_8
    2  A    between atoms: C_3  and  C_13
    3  A    between atoms: C_4  and  C_16
    4  A    between atoms: C_6  and  N_28
    5  A    between atoms: C_6  and  C_30
    6  A    between atoms: C_7  and  C_11
    7  A    between atoms: C_8  and  C_18
    8  A    between atoms: C_13  and  S_27
    9  A    between atoms: C_18  and  C_30
   10  A    between atoms: C_25  and  S_27
                            x       y       z     vdW  Elec       q    Type
                         _______ _______ _______ _____ _____    ______ ____

>  <TORSDO>
F 10

$$$$
=
 OpenBabel11062409343D

 34 37  0  0  1  0  0  0  0  0999 V2000
  161.5530  205.1580  150.5290 C   0  0  1  0  0  0  0  0  0  0  0  0
  162.4060  206.5560  147.1660 C   0  0  0  0  0  2  0  0  0  0  0  0
  161.0980  204.6900  147.7800 C   0  0  0  0  0  2  0  0  0  0  0  0
  160.4160  205.9700  150.5740 O   0  0  0  0  0  1  0  0  0  0  0  0
  160.8450  202.7410  150.9990 C   0  0  0  0  0  3  0  0  0  0  0  0
  160.1960  201.2860  149.1750 C   0  0  0  0  0  3  0  0  0  0  0  0
  160.3940  201.4990  150.5430 C   0  0  0  0  0  3  0  0  0  0  0  0
  160.9020  203.5550  148.7230 C   0  0  0  0  0  0  0  0  0  0  0  0
  161.1230  203.7760  150.0870 C   0  0  0  0  0  0  0  0  0  0  0  0
  160.4420  202.3170  148.2650 C   0  0  0  0  0  3  0  0  0  0  0  0
  161.6160  207.7270  147.7410 C   0  0  0  0  0  2  0  0  0  0  0  0
  162.2870  208.2420  149.0110 C   0  0  2  0  0  3  0  0  0  0  0  0
  162.3580  205.3910  148.0570 N   0  0  2  0  0  0  0  0  0  0  0  0
  163.0710  207.1660  149.7680 C   0  0  0  0  0  2  0  0  0  0  0  0
  162.5770  205.7290  149.5000 C   0  0  1  0  0  3  0  0  0  0  0  0
  162.2000  205.0890  151.9250 C   0  0  0  0  0  2  0  0  0  0  0  0
  161.2350  205.4250  153.0570 C   0  0  0  0  0  2  0  0  0  0  0  0
  161.7170  206.6460  153.8220 C   0  0  0  0  0  2  0  0  0  0  0  0
  160.8230  207.8490  153.5550 C   0  0  0  0  0  2  0  0  0  0  0  0
  159.3280  211.3410  154.6010 C   0  0  1  0  0  3  0  0  0  0  0  0
  159.5910  210.4570  155.8250 C   0  0  0  0  0  2  0  0  0  0  0  0
  159.9090  209.0160  155.4090 C   0  0  1  0  0  3  0  0  0  0  0  0
  161.3770  210.1330  153.7590 C   0  0  0  0  0  2  0  0  0  0  0  0
  161.0880  208.9070  154.5230 N   0  0  0  0  0  0  0  0  0  0  0  0
  160.1060  210.8840  153.3580 C   0  0  0  0  0  2  0  0  0  0  0  0
  157.8270  211.4520  154.3290 C   0  0  1  0  0  3  0  0  0  0  0  0
  157.0300  211.2980  155.6120 C   0  0  0  0  0  1  0  0  0  0  0  0
  157.5150  212.6710  153.7190 O   0  0  0  0  0  1  0  0  0  0  0  0
  160.0620  208.1200  156.6350 C   0  0  0  0  0  2  0  0  0  0  0  0
  161.4520  208.2190  157.2450 C   0  0  0  0  0  1  0  0  0  0  0  0
  161.0640  209.0320  150.0980 S   0  0  0  0  0  0  0  0  0  0  0  0
  161.9600  210.6180  150.1060 C   0  0  0  0  0  2  0  0  0  0  0  0
  161.9530  211.2470  148.7220 C   0  0  0  0  0  2  0  0  0  0  0  0
  161.3050  212.6190  148.7690 C   0  0  0  0  0  1  0  0  0  0  0  0
  1  4  1  1  0  0  0
  1 16  1  0  0  0  0
  2 11  1  0  0  0  0
  3 13  1  0  0  0  0
  3  8  1  0  0  0  0
  6  7  2  0  0  0  0
  7  5  1  0  0  0  0
  8  9  1  0  0  0  0
  9  1  1  0  0  0  0
  9  5  2  0  0  0  0
 10  8  2  0  0  0  0
 10  6  1  0  0  0  0
 11 12  1  0  0  0  0
 12 14  1  0  0  0  0
 12 31  1  1  0  0  0
 13  2  1  6  0  0  0
 13 15  1  0  0  0  0
 15 14  1  6  0  0  0
 15  1  1  0  0  0  0
 16 17  1  0  0  0  0
 17 18  1  0  0  0  0
 19 18  1  0  0  0  0
 19 24  1  0  0  0  0
 20 26  1  6  0  0  0
 20 21  1  0  0  0  0
 22 21  1  0  0  0  0
 22 29  1  1  0  0  0
 23 24  1  0  0  0  0
 24 22  1  0  0  0  0
 25 23  1  0  0  0  0
 25 20  1  0  0  0  0
 26 27  1  1  0  0  0
 28 26  1  0  0  0  0
 29 30  1  0  0  0  0
 31 32  1  0  0  0  0
 33 34  1  0  0  0  0
 33 32  1  0  0  0  0
M  END
>  <MODEL>
7

>  <REMARK>
 VINA RESULT:      -5.3      2.126      7.938
  Name = 
  10 active torsions:
  status: ('A' for Active; 'I' for Inactive)
    1  A    between atoms: C_1  and  C_8
    2  A    between atoms: C_3  and  C_13
    3  A    between atoms: C_4  and  C_16
    4  A    between atoms: C_6  and  N_28
    5  A    between atoms: C_6  and  C_30
    6  A    between atoms: C_7  and  C_11
    7  A    between atoms: C_8  and  C_18
    8  A    between atoms: C_13  and  S_27
    9  A    between atoms: C_18  and  C_30
   10  A    between atoms: C_25  and  S_27
                            x       y       z     vdW  Elec       q    Type
                         _______ _______ _______ _____ _____    ______ ____

>  <TORSDO>
F 10

$$$$
=
 OpenBabel11062409343D

 34 37  0  0  1  0  0  0  0  0999 V2000
  160.0640  210.6260  153.4240 C   0  0  1  0  0  0  0  0  0  0  0  0
  157.0650  212.6560  154.3630 C   0  0  0  0  0  2  0  0  0  0  0  0
  158.6650  211.5500  155.6990 C   0  0  0  0  0  2  0  0  0  0  0  0
  160.8470  211.7850  153.4430 O   0  0  0  0  0  1  0  0  0  0  0  0
  161.1860  208.8600  154.9010 C   0  0  0  0  0  3  0  0  0  0  0  0
  160.6540  208.7290  157.2610 C   0  0  0  0  0  3  0  0  0  0  0  0
  161.3730  208.2680  156.1540 C   0  0  0  0  0  3  0  0  0  0  0  0
  159.5610  210.3720  155.8620 C   0  0  0  0  0  0  0  0  0  0  0  0
  160.2610  209.9070  154.7410 C   0  0  0  0  0  0  0  0  0  0  0  0
  159.7540  209.7880  157.1160 C   0  0  0  0  0  3  0  0  0  0  0  0
  157.8920  213.7260  153.6600 C   0  0  0  0  0  2  0  0  0  0  0  0
  158.1580  213.3210  152.2140 C   0  0  2  0  0  3  0  0  0  0  0  0
  157.8200  211.4060  154.5070 N   0  0  2  0  0  0  0  0  0  0  0  0
  158.1940  211.8040  151.9990 C   0  0  0  0  0  2  0  0  0  0  0  0
  158.5580  211.0030  153.2670 C   0  0  1  0  0  3  0  0  0  0  0  0
  160.4990  209.7210  152.2570 C   0  0  0  0  0  2  0  0  0  0  0  0
  161.8800  210.0610  151.7090 C   0  0  0  0  0  2  0  0  0  0  0  0
  161.9610  209.7300  150.2280 C   0  0  0  0  0  2  0  0  0  0  0  0
  161.2420  208.4250  149.9170 C   0  0  0  0  0  2  0  0  0  0  0  0
  161.7950  204.5510  150.3730 C   0  0  1  0  0  3  0  0  0  0  0  0
  161.9520  204.9690  148.9070 C   0  0  0  0  0  2  0  0  0  0  0  0
  161.4730  206.4080  148.6880 C   0  0  1  0  0  3  0  0  0  0  0  0
  162.7860  206.8420  150.7390 C   0  0  0  0  0  2  0  0  0  0  0  0
  162.1970  207.4010  149.5100 N   0  0  0  0  0  0  0  0  0  0  0  0
  161.9270  205.7320  151.3470 C   0  0  0  0  0  2  0  0  0  0  0  0
  160.4880  203.7830  150.5770 C   0  0  1  0  0  3  0  0  0  0  0  0
  160.5590  202.4100  149.9340 C   0  0  0  0  0  1  0  0  0  0  0  0
  160.1870  203.6560  151.9370 O   0  0  0  0  0  1  0  0  0  0  0  0
  161.5310  206.7780  147.2070 C   0  0  0  0  0  2  0  0  0  0  0  0
  161.0140  205.6580  146.3180 C   0  0  0  0  0  1  0  0  0  0  0  0
  159.6890  214.0920  151.6100 S   0  0  0  0  0  0  0  0  0  0  0  0
  159.1730  213.9680  149.8680 C   0  0  0  0  0  2  0  0  0  0  0  0
  160.1640  213.1340  149.0710 C   0  0  0  0  0  2  0  0  0  0  0  0
  161.4210  213.9360  148.7870 C   0  0  0  0  0  1  0  0  0  0  0  0
  1  4  1  6  0  0  0
  1  9  1  0  0  0  0
  3  8  1  0  0  0  0
  5  7  1  0  0  0  0
  7  6  2  0  0  0  0
  8 10  2  0  0  0  0
  9  5  2  0  0  0  0
  9  8  1  0  0  0  0
 10  6  1  0  0  0  0
 11  2  1  0  0  0  0
 12 31  1  1  0  0  0
 12 11  1  0  0  0  0
 13  2  1  6  0  0  0
 13  3  1  0  0  0  0
 14 12  1  0  0  0  0
 15 14  1  6  0  0  0
 15  1  1  0  0  0  0
 15 13  1  0  0  0  0
 16  1  1  0  0  0  0
 17 16  1  0  0  0  0
 18 17  1  0  0  0  0
 19 18  1  0  0  0  0
 20 26  1  6  0  0  0
 20 25  1  0  0  0  0
 21 20  1  0  0  0  0
 22 29  1  6  0  0  0
 22 21  1  0  0  0  0
 22 24  1  0  0  0  0
 23 25  1  0  0  0  0
 24 19  1  0  0  0  0
 24 23  1  0  0  0  0
 26 27  1  1  0  0  0
 26 28  1  0  0  0  0
 30 29  1  0  0  0  0
 32 31  1  0  0  0  0
 33 32  1  0  0  0  0
 34 33  1  0  0  0  0
M  END
>  <MODEL>
8

>  <REMARK>
 VINA RESULT:      -5.3      1.417      2.286
  Name = 
  10 active torsions:
  status: ('A' for Active; 'I' for Inactive)
    1  A    between atoms: C_1  and  C_8
    2  A    between atoms: C_3  and  C_13
    3  A    between atoms: C_4  and  C_16
    4  A    between atoms: C_6  and  N_28
    5  A    between atoms: C_6  and  C_30
    6  A    between atoms: C_7  and  C_11
    7  A    between atoms: C_8  and  C_18
    8  A    between atoms: C_13  and  S_27
    9  A    between atoms: C_18  and  C_30
   10  A    between atoms: C_25  and  S_27
                            x       y       z     vdW  Elec       q    Type
                         _______ _______ _______ _____ _____    ______ ____

>  <TORSDO>
F 10

$$$$
=
 OpenBabel11062409343D

 34 37  0  0  1  0  0  0  0  0999 V2000
  158.9850  212.2210  153.0870 C   0  0  1  0  0  0  0  0  0  0  0  0
  157.5590  214.1110  155.9830 C   0  0  0  0  0  2  0  0  0  0  0  0
  156.8120  213.8990  153.7550 C   0  0  0  0  0  2  0  0  0  0  0  0
  158.2270  211.1040  153.4490 O   0  0  0  0  0  1  0  0  0  0  0  0
  158.5500  212.7350  150.6160 C   0  0  0  0  0  3  0  0  0  0  0  0
  156.7480  214.2230  149.9810 C   0  0  0  0  0  3  0  0  0  0  0  0
  157.8050  213.3820  149.6240 C   0  0  0  0  0  3  0  0  0  0  0  0
  157.1800  213.7730  152.3170 C   0  0  0  0  0  0  0  0  0  0  0  0
  158.2550  212.9430  151.9750 C   0  0  0  0  0  0  0  0  0  0  0  0
  156.4290  214.4120  151.3280 C   0  0  0  0  0  3  0  0  0  0  0  0
  157.4380  212.6880  156.5180 C   0  0  0  0  0  2  0  0  0  0  0  0
  158.8150  212.0350  156.5930 C   0  0  2  0  0  3  0  0  0  0  0  0
  158.0030  214.1200  154.5840 N   0  0  2  0  0  0  0  0  0  0  0  0
  159.8070  212.5780  155.5590 C   0  0  0  0  0  2  0  0  0  0  0  0
  159.1360  213.1810  154.3080 C   0  0  1  0  0  3  0  0  0  0  0  0
  160.3760  211.7730  152.6010 C   0  0  0  0  0  2  0  0  0  0  0  0
  160.3950  210.3520  152.0480 C   0  0  0  0  0  2  0  0  0  0  0  0
  160.7870  209.3640  153.1340 C   0  0  0  0  0  2  0  0  0  0  0  0
  160.5600  207.9290  152.6770 C   0  0  0  0  0  2  0  0  0  0  0  0
  161.8370  204.5190  151.1720 C   0  0  1  0  0  3  0  0  0  0  0  0
  162.4040  205.7170  150.4020 C   0  0  0  0  0  2  0  0  0  0  0  0
  161.7010  207.0180  150.8070 C   0  0  1  0  0  3  0  0  0  0  0  0
  162.0400  206.1400  153.0950 C   0  0  0  0  0  2  0  0  0  0  0  0
  161.8160  207.3250  152.2480 N   0  0  0  0  0  0  0  0  0  0  0  0
  161.3180  204.8990  152.5670 C   0  0  0  0  0  2  0  0  0  0  0  0
  160.7740  203.8000  150.3420 C   0  0  1  0  0  3  0  0  0  0  0  0
  160.9900  204.0390  148.8580 C   0  0  0  0  0  1  0  0  0  0  0  0
  160.7730  202.4270  150.6070 O   0  0  0  0  0  1  0  0  0  0  0  0
  162.1960  208.1860  149.9580 C   0  0  0  0  0  2  0  0  0  0  0  0
  162.6650  207.7360  148.5830 C   0  0  0  0  0  1  0  0  0  0  0  0
  158.6690  210.2300  156.4590 S   0  0  0  0  0  0  0  0  0  0  0  0
  160.4090  209.9620  156.9220 C   0  0  0  0  0  2  0  0  0  0  0  0
  160.7380  208.4780  156.9470 C   0  0  0  0  0  2  0  0  0  0  0  0
  159.7130  207.6960  156.1490 C   0  0  0  0  0  1  0  0  0  0  0  0
  1  4  1  1  0  0  0
  1 15  1  0  0  0  0
  2 11  1  0  0  0  0
  5  9  1  0  0  0  0
  6 10  2  0  0  0  0
  7  6  1  0  0  0  0
  7  5  2  0  0  0  0
  8  3  1  0  0  0  0
  9  8  2  0  0  0  0
  9  1  1  0  0  0  0
 10  8  1  0  0  0  0
 11 12  1  0  0  0  0
 12 31  1  6  0  0  0
 13  3  1  6  0  0  0
 13  2  1  0  0  0  0
 14 12  1  0  0  0  0
 15 13  1  0  0  0  0
 15 14  1  1  0  0  0
 16  1  1  0  0  0  0
 17 16  1  0  0  0  0
 17 18  1  0  0  0  0
 19 18  1  0  0  0  0
 20 26  1  6  0  0  0
 20 25  1  0  0  0  0
 21 22  1  0  0  0  0
 21 20  1  0  0  0  0
 22 29  1  6  0  0  0
 22 24  1  0  0  0  0
 24 19  1  0  0  0  0
 24 23  1  0  0  0  0
 25 23  1  0  0  0  0
 26 27  1  6  0  0  0
 26 28  1  0  0  0  0
 30 29  1  0  0  0  0
 31 32  1  0  0  0  0
 32 33  1  0  0  0  0
 34 33  1  0  0  0  0
M  END
>  <MODEL>
9

>  <REMARK>
 VINA RESULT:      -5.3      2.193      5.141
  Name = 
  10 active torsions:
  status: ('A' for Active; 'I' for Inactive)
    1  A    between atoms: C_1  and  C_8
    2  A    between atoms: C_3  and  C_13
    3  A    between atoms: C_4  and  C_16
    4  A    between atoms: C_6  and  N_28
    5  A    between atoms: C_6  and  C_30
    6  A    between atoms: C_7  and  C_11
    7  A    between atoms: C_8  and  C_18
    8  A    between atoms: C_13  and  S_27
    9  A    between atoms: C_18  and  C_30
   10  A    between atoms: C_25  and  S_27
                            x       y       z     vdW  Elec       q    Type
                         _______ _______ _______ _____ _____    ______ ____

>  <TORSDO>
F 10

$$$$
