=
 OpenBabel11052422553D

 28 32  0  0  1  0  0  0  0  0999 V2000
  160.7690  205.2370  148.7730 C   0  0  1  0  0  3  0  0  0  0  0  0
  161.0520  209.7010  151.5450 C   0  0  0  0  0  2  0  0  0  0  0  0
  162.9340  204.9200  152.3800 C   0  0  0  0  0  1  0  0  0  0  0  0
  160.6380  208.7870  153.8430 C   0  0  0  0  0  0  0  0  0  0  0  0
  161.1540  207.2310  151.9190 C   0  0  2  0  0  3  0  0  0  0  0  0
  160.5060  211.1730  153.3860 C   0  0  0  0  0  0  0  0  0  0  0  0
  160.4720  208.5320  152.3560 C   0  0  2  0  0  3  0  0  0  0  0  0
  161.3380  206.4440  154.3120 C   0  0  0  0  0  2  0  0  0  0  0  0
  160.5810  210.0340  154.3150 C   0  0  0  0  0  3  0  0  0  0  0  0
  160.9280  204.5120  151.0990 C   0  0  2  0  0  3  0  0  0  0  0  0
  160.6430  206.7990  150.5490 C   0  0  0  0  0  2  0  0  0  0  0  0
  160.5610  207.6520  154.8170 C   0  0  0  0  0  2  0  0  0  0  0  0
  160.7690  202.7980  149.2990 C   0  0  0  0  0  2  0  0  0  0  0  0
  161.4710  204.8160  152.4360 N   0  0  0  0  0  0  0  0  0  0  0  0
  161.3640  203.1130  150.6550 C   0  0  0  0  0  2  0  0  0  0  0  0
  160.1220  212.7660  154.0000 Cl  0  0  0  0  0  0  0  0  0  0  0  0
  160.6600  210.9930  152.1080 N   0  0  0  0  0  0  0  0  0  0  0  0
  160.8790  206.0810  152.9000 C   0  0  2  0  0  3  0  0  0  0  0  0
  161.2270  203.8510  148.3110 C   0  0  0  0  0  2  0  0  0  0  0  0
  161.2980  205.5610  150.1160 N   0  0  2  0  0  0  0  0  0  0  0  0
  162.5760  206.8780  147.9950 C   0  0  0  0  0  2  0  0  0  0  0  0
  161.2120  206.2720  147.7270 C   0  0  0  0  0  0  0  0  0  0  0  0
  161.3210  207.7070  148.2070 C   0  0  0  0  0  2  0  0  0  0  0  0
  161.8340  205.4430  145.3740 N   0  0  0  0  0  0  0  0  0  0  0  0
  159.8060  206.5140  145.8190 O   0  0  0  0  0  0  0  0  0  0  0  0
  160.9020  206.0760  146.2670 C   0  0  0  0  0  0  0  0  0  0  0  0
  161.5120  205.2910  143.9650 C   0  0  0  0  0  1  0  0  0  0  0  0
  163.1170  204.9370  145.8350 C   0  0  0  0  0  1  0  0  0  0  0  0
  1 22  1  6  0  0  0
  1 20  1  0  0  0  0
  2 17  1  0  0  0  0
  3 14  1  0  0  0  0
  4  9  2  0  0  0  0
  4 12  1  0  0  0  0
  5 11  1  6  0  0  0
  5  7  1  0  0  0  0
  5 18  1  0  0  0  0
  6 16  1  0  0  0  0
  6  9  1  0  0  0  0
  7  2  1  6  0  0  0
  7  4  1  0  0  0  0
  8 12  1  0  0  0  0
 10 15  1  6  0  0  0
 10 14  1  0  0  0  0
 13 15  1  0  0  0  0
 14 18  1  0  0  0  0
 17  6  2  0  0  0  0
 18  8  1  1  0  0  0
 19  1  1  0  0  0  0
 19 13  1  0  0  0  0
 20 11  1  1  0  0  0
 20 10  1  0  0  0  0
 21 23  1  0  0  0  0
 22 21  1  0  0  0  0
 22 23  1  0  0  0  0
 24 28  1  0  0  0  0
 24 26  1  0  0  0  0
 25 26  2  0  0  0  0
 26 22  1  0  0  0  0
 27 24  1  0  0  0  0
M  END
>  <MODEL>
1

>  <REMARK>
 VINA RESULT:      -8.3      0.000      0.000
  Name = 
  2 active torsions:
  status: ('A' for Active; 'I' for Inactive)
    1  A    between atoms: C_1  and  C_3
    2  A    between atoms: C_3  and  C_11
                            x       y       z     vdW  Elec       q    Type
                         _______ _______ _______ _____ _____    ______ ____

>  <TORSDO>
F 2

$$$$
=
 OpenBabel11052422553D

 28 32  0  0  1  0  0  0  0  0999 V2000
  160.9140  204.0610  148.2990 C   0  0  1  0  0  3  0  0  0  0  0  0
  162.1120  209.1790  148.5380 C   0  0  0  0  0  2  0  0  0  0  0  0
  162.9110  205.2250  151.8280 C   0  0  0  0  0  1  0  0  0  0  0  0
  161.4810  209.6410  150.9210 C   0  0  0  0  0  0  0  0  0  0  0  0
  161.6760  207.2630  150.0840 C   0  0  2  0  0  3  0  0  0  0  0  0
  161.8710  211.4490  149.3410 C   0  0  0  0  0  0  0  0  0  0  0  0
  161.2840  208.7050  149.7420 C   0  0  2  0  0  3  0  0  0  0  0  0
  161.6540  207.7720  152.5570 C   0  0  0  0  0  2  0  0  0  0  0  0
  161.6870  210.9420  150.7100 C   0  0  0  0  0  3  0  0  0  0  0  0
  160.8820  204.5930  150.6810 C   0  0  2  0  0  3  0  0  0  0  0  0
  161.1030  206.2990  149.0520 C   0  0  0  0  0  2  0  0  0  0  0  0
  161.1480  209.1870  152.3080 C   0  0  0  0  0  2  0  0  0  0  0  0
  160.3820  202.2660  149.9490 C   0  0  0  0  0  2  0  0  0  0  0  0
  161.4590  205.4270  151.7520 N   0  0  0  0  0  0  0  0  0  0  0  0
  161.0130  203.1100  151.0360 C   0  0  0  0  0  2  0  0  0  0  0  0
  161.8300  213.1740  149.0450 Cl  0  0  0  0  0  0  0  0  0  0  0  0
  162.0000  210.6250  148.3440 N   0  0  0  0  0  0  0  0  0  0  0  0
  161.1480  206.8360  151.4610 C   0  0  2  0  0  3  0  0  0  0  0  0
  161.0690  202.5760  148.6340 C   0  0  0  0  0  2  0  0  0  0  0  0
  161.4820  204.9180  149.3630 N   0  0  2  0  0  0  0  0  0  0  0  0
  162.8840  203.5780  146.7340 C   0  0  0  0  0  2  0  0  0  0  0  0
  161.5830  204.3290  146.9410 C   0  0  0  0  0  0  0  0  0  0  0  0
  162.9020  205.0770  146.9790 C   0  0  0  0  0  2  0  0  0  0  0  0
  160.2430  203.3520  144.9760 N   0  0  0  0  0  0  0  0  0  0  0  0
  160.5490  205.6520  145.2520 O   0  0  0  0  0  0  0  0  0  0  0  0
  160.7580  204.4880  145.6920 C   0  0  0  0  0  0  0  0  0  0  0  0
  159.4710  203.5410  143.7600 C   0  0  0  0  0  1  0  0  0  0  0  0
  160.4710  201.9900  145.4300 C   0  0  0  0  0  1  0  0  0  0  0  0
  1 22  1  6  0  0  0
  1 19  1  0  0  0  0
  1 20  1  0  0  0  0
  4 12  1  0  0  0  0
  5 11  1  6  0  0  0
  5 18  1  0  0  0  0
  6  9  1  0  0  0  0
  7  2  1  6  0  0  0
  7  5  1  0  0  0  0
  7  4  1  0  0  0  0
  9  4  2  0  0  0  0
 10 15  1  1  0  0  0
 10 14  1  0  0  0  0
 12  8  1  0  0  0  0
 13 15  1  0  0  0  0
 14  3  1  0  0  0  0
 16  6  1  0  0  0  0
 17  2  1  0  0  0  0
 17  6  2  0  0  0  0
 18 14  1  0  0  0  0
 18  8  1  1  0  0  0
 19 13  1  0  0  0  0
 20 11  1  6  0  0  0
 20 10  1  0  0  0  0
 21 22  1  0  0  0  0
 21 23  1  0  0  0  0
 22 23  1  0  0  0  0
 24 28  1  0  0  0  0
 24 26  1  0  0  0  0
 25 26  2  0  0  0  0
 26 22  1  0  0  0  0
 27 24  1  0  0  0  0
M  END
>  <MODEL>
2

>  <REMARK>
 VINA RESULT:      -7.4      1.969      2.657
  Name = 
  2 active torsions:
  status: ('A' for Active; 'I' for Inactive)
    1  A    between atoms: C_1  and  C_3
    2  A    between atoms: C_3  and  C_11
                            x       y       z     vdW  Elec       q    Type
                         _______ _______ _______ _____ _____    ______ ____

>  <TORSDO>
F 2

$$$$
=
 OpenBabel11052422553D

 28 32  0  0  1  0  0  0  0  0999 V2000
  160.8160  203.8940  148.1500 C   0  0  1  0  0  3  0  0  0  0  0  0
  161.6010  208.2330  151.0220 C   0  0  0  0  0  2  0  0  0  0  0  0
  162.6130  203.2040  151.9040 C   0  0  0  0  0  1  0  0  0  0  0  0
  160.8660  207.3840  153.2640 C   0  0  0  0  0  0  0  0  0  0  0  0
  161.2720  205.7770  151.3550 C   0  0  2  0  0  3  0  0  0  0  0  0
  161.1580  209.7620  152.8450 C   0  0  0  0  0  0  0  0  0  0  0  0
  160.7770  207.1690  151.7640 C   0  0  2  0  0  3  0  0  0  0  0  0
  161.1380  204.9550  153.7390 C   0  0  0  0  0  2  0  0  0  0  0  0
  160.9750  208.6200  153.7540 C   0  0  0  0  0  3  0  0  0  0  0  0
  160.6730  203.1370  150.4670 C   0  0  2  0  0  3  0  0  0  0  0  0
  160.8070  205.4440  149.9420 C   0  0  0  0  0  2  0  0  0  0  0  0
  160.5300  206.2700  154.2060 C   0  0  0  0  0  2  0  0  0  0  0  0
  160.3800  201.4840  148.6270 C   0  0  0  0  0  2  0  0  0  0  0  0
  161.1520  203.3390  151.8470 N   0  0  0  0  0  0  0  0  0  0  0  0
  160.9110  201.6890  150.0310 C   0  0  0  0  0  2  0  0  0  0  0  0
  160.9900  211.3920  153.4590 Cl  0  0  0  0  0  0  0  0  0  0  0  0
  161.3810  209.5690  151.5790 N   0  0  0  0  0  0  0  0  0  0  0  0
  160.7390  204.6810  152.2890 C   0  0  2  0  0  3  0  0  0  0  0  0
  161.0780  202.4550  147.6980 C   0  0  0  0  0  2  0  0  0  0  0  0
  161.2840  204.1190  149.5350 N   0  0  2  0  0  0  0  0  0  0  0  0
  161.8250  204.2250  145.8190 C   0  0  0  0  0  2  0  0  0  0  0  0
  161.5010  204.8500  147.1610 C   0  0  0  0  0  0  0  0  0  0  0  0
  162.9400  204.5290  146.8040 C   0  0  0  0  0  2  0  0  0  0  0  0
  161.8830  207.3350  147.7030 N   0  0  0  0  0  0  0  0  0  0  0  0
  160.0290  206.5980  146.4880 O   0  0  0  0  0  0  0  0  0  0  0  0
  161.1000  206.2990  147.0840 C   0  0  0  0  0  0  0  0  0  0  0  0
  161.4540  208.7210  147.6290 C   0  0  0  0  0  1  0  0  0  0  0  0
  163.1150  207.0430  148.4180 C   0  0  0  0  0  1  0  0  0  0  0  0
  1 22  1  6  0  0  0
  1 20  1  0  0  0  0
  2 17  1  0  0  0  0
  4  9  2  0  0  0  0
  4 12  1  0  0  0  0
  5 11  1  6  0  0  0
  5  7  1  0  0  0  0
  5 18  1  0  0  0  0
  6 16  1  0  0  0  0
  6  9  1  0  0  0  0
  7  2  1  6  0  0  0
  7  4  1  0  0  0  0
  8 12  1  0  0  0  0
 10 15  1  6  0  0  0
 10 14  1  0  0  0  0
 13 15  1  0  0  0  0
 14  3  1  0  0  0  0
 14 18  1  0  0  0  0
 17  6  2  0  0  0  0
 18  8  1  1  0  0  0
 19  1  1  0  0  0  0
 19 13  1  0  0  0  0
 20 11  1  1  0  0  0
 20 10  1  0  0  0  0
 21 23  1  0  0  0  0
 21 22  1  0  0  0  0
 23 22  1  0  0  0  0
 24 28  1  0  0  0  0
 25 26  2  0  0  0  0
 26 22  1  0  0  0  0
 26 24  1  0  0  0  0
 27 24  1  0  0  0  0
M  END
>  <MODEL>
3

>  <REMARK>
 VINA RESULT:      -7.2      1.381      2.125
  Name = 
  2 active torsions:
  status: ('A' for Active; 'I' for Inactive)
    1  A    between atoms: C_1  and  C_3
    2  A    between atoms: C_3  and  C_11
                            x       y       z     vdW  Elec       q    Type
                         _______ _______ _______ _____ _____    ______ ____

>  <TORSDO>
F 2

$$$$
=
 OpenBabel11052422553D

 28 32  0  0  1  0  0  0  0  0999 V2000
  161.2840  210.5290  153.3860 C   0  0  1  0  0  3  0  0  0  0  0  0
  160.4580  206.9530  149.6150 C   0  0  0  0  0  2  0  0  0  0  0  0
  159.7170  206.8630  154.7670 C   0  0  0  0  0  1  0  0  0  0  0  0
  161.3460  204.9150  150.7760 C   0  0  0  0  0  0  0  0  0  0  0  0
  160.9120  207.0420  152.0720 C   0  0  2  0  0  3  0  0  0  0  0  0
  160.9270  204.9250  148.3800 C   0  0  0  0  0  0  0  0  0  0  0  0
  161.3650  206.4320  150.7400 C   0  0  2  0  0  3  0  0  0  0  0  0
  161.2060  204.8330  153.2610 C   0  0  0  0  0  2  0  0  0  0  0  0
  161.2080  204.2250  149.6430 C   0  0  0  0  0  3  0  0  0  0  0  0
  161.5800  208.3760  154.4990 C   0  0  2  0  0  3  0  0  0  0  0  0
  161.3180  208.5090  152.1480 C   0  0  0  0  0  2  0  0  0  0  0  0
  161.7790  204.1840  152.0090 C   0  0  0  0  0  2  0  0  0  0  0  0
  161.8510  210.4730  155.8150 C   0  0  0  0  0  2  0  0  0  0  0  0
  161.1660  206.9610  154.5480 N   0  0  0  0  0  0  0  0  0  0  0  0
  161.3850  209.0330  155.8680 C   0  0  0  0  0  2  0  0  0  0  0  0
  161.0540  204.0600  146.8640 Cl  0  0  0  0  0  0  0  0  0  0  0  0
  160.6480  206.1950  148.3770 N   0  0  0  0  0  0  0  0  0  0  0  0
  161.5410  206.3240  153.2750 C   0  0  2  0  0  3  0  0  0  0  0  0
  161.0620  211.1990  154.7450 C   0  0  0  0  0  2  0  0  0  0  0  0
  160.8790  209.1060  153.4130 N   0  0  2  0  0  0  0  0  0  0  0  0
  159.7020  212.4770  152.8710 C   0  0  0  0  0  2  0  0  0  0  0  0
  160.5060  211.3160  152.3200 C   0  0  0  0  0  0  0  0  0  0  0  0
  158.9940  211.2240  152.3870 C   0  0  0  0  0  2  0  0  0  0  0  0
  160.7000  212.6940  150.1570 N   0  0  0  0  0  0  0  0  0  0  0  0
  161.9500  210.7520  150.5110 O   0  0  0  0  0  0  0  0  0  0  0  0
  161.1020  211.5710  150.9610 C   0  0  0  0  0  0  0  0  0  0  0  0
  161.2780  212.8970  148.8400 C   0  0  0  0  0  1  0  0  0  0  0  0
  159.7140  213.6560  150.6210 C   0  0  0  0  0  1  0  0  0  0  0  0
  1 22  1  6  0  0  0
  1 20  1  0  0  0  0
  1 19  1  0  0  0  0
  4 12  1  0  0  0  0
  5 11  1  6  0  0  0
  5 18  1  0  0  0  0
  6  9  1  0  0  0  0
  7  2  1  6  0  0  0
  7  4  1  0  0  0  0
  7  5  1  0  0  0  0
  9  4  2  0  0  0  0
 10 14  1  0  0  0  0
 10 15  1  1  0  0  0
 12  8  1  0  0  0  0
 13 15  1  0  0  0  0
 14  3  1  0  0  0  0
 16  6  1  0  0  0  0
 17  6  2  0  0  0  0
 17  2  1  0  0  0  0
 18  8  1  1  0  0  0
 18 14  1  0  0  0  0
 19 13  1  0  0  0  0
 20 11  1  6  0  0  0
 20 10  1  0  0  0  0
 22 23  1  0  0  0  0
 22 21  1  0  0  0  0
 23 21  1  0  0  0  0
 24 28  1  0  0  0  0
 24 26  1  0  0  0  0
 25 26  2  0  0  0  0
 26 22  1  0  0  0  0
 27 24  1  0  0  0  0
M  END
>  <MODEL>
4

>  <REMARK>
 VINA RESULT:      -6.9      3.106      6.712
  Name = 
  2 active torsions:
  status: ('A' for Active; 'I' for Inactive)
    1  A    between atoms: C_1  and  C_3
    2  A    between atoms: C_3  and  C_11
                            x       y       z     vdW  Elec       q    Type
                         _______ _______ _______ _____ _____    ______ ____

>  <TORSDO>
F 2

$$$$
=
 OpenBabel11052422553D

 28 32  0  0  1  0  0  0  0  0999 V2000
  160.4520  202.6510  148.2300 C   0  0  1  0  0  3  0  0  0  0  0  0
  162.1150  207.6410  148.3650 C   0  0  0  0  0  2  0  0  0  0  0  0
  162.5290  203.7050  151.7470 C   0  0  0  0  0  1  0  0  0  0  0  0
  161.5160  208.2130  150.7320 C   0  0  0  0  0  0  0  0  0  0  0  0
  161.4960  205.8090  149.9500 C   0  0  2  0  0  3  0  0  0  0  0  0
  162.0790  209.9410  149.1160 C   0  0  0  0  0  0  0  0  0  0  0  0
  161.2400  207.2730  149.5730 C   0  0  2  0  0  3  0  0  0  0  0  0
  161.5070  206.3740  152.4110 C   0  0  0  0  0  2  0  0  0  0  0  0
  161.8420  209.4840  150.4950 C   0  0  0  0  0  3  0  0  0  0  0  0
  160.4560  203.2370  150.5990 C   0  0  2  0  0  3  0  0  0  0  0  0
  160.8420  204.8790  148.9350 C   0  0  0  0  0  2  0  0  0  0  0  0
  161.1350  207.8220  152.1270 C   0  0  0  0  0  2  0  0  0  0  0  0
  159.7480  200.9500  149.9140 C   0  0  0  0  0  2  0  0  0  0  0  0
  161.1020  204.0390  151.6560 N   0  0  0  0  0  0  0  0  0  0  0  0
  160.4480  201.7560  150.9880 C   0  0  0  0  0  2  0  0  0  0  0  0
  162.1990  211.6550  148.7820 Cl  0  0  0  0  0  0  0  0  0  0  0  0
  162.1370  209.0870  148.1390 N   0  0  0  0  0  0  0  0  0  0  0  0
  160.9230  205.4630  151.3320 C   0  0  2  0  0  3  0  0  0  0  0  0
  160.4680  201.1650  148.5990 C   0  0  0  0  0  2  0  0  0  0  0  0
  161.0910  203.4750  149.2790 N   0  0  2  0  0  0  0  0  0  0  0  0
  160.3510  202.3040  145.6930 C   0  0  0  0  0  2  0  0  0  0  0  0
  161.1500  202.8250  146.8720 C   0  0  0  0  0  0  0  0  0  0  0  0
  161.5810  201.5510  146.1700 C   0  0  0  0  0  2  0  0  0  0  0  0
  161.5170  205.0330  145.6070 N   0  0  0  0  0  0  0  0  0  0  0  0
  163.0600  204.2200  147.1610 O   0  0  0  0  0  0  0  0  0  0  0  0
  161.9560  204.0610  146.5710 C   0  0  0  0  0  0  0  0  0  0  0  0
  162.3310  206.2030  145.3230 C   0  0  0  0  0  1  0  0  0  0  0  0
  160.2620  204.8890  144.8860 C   0  0  0  0  0  1  0  0  0  0  0  0
  1 22  1  6  0  0  0
  1 19  1  0  0  0  0
  1 20  1  0  0  0  0
  4 12  1  0  0  0  0
  5 11  1  6  0  0  0
  5 18  1  0  0  0  0
  6  9  1  0  0  0  0
  7  2  1  6  0  0  0
  7  5  1  0  0  0  0
  7  4  1  0  0  0  0
  9  4  2  0  0  0  0
 10 15  1  1  0  0  0
 10 14  1  0  0  0  0
 12  8  1  0  0  0  0
 13 15  1  0  0  0  0
 14  3  1  0  0  0  0
 16  6  1  0  0  0  0
 17  2  1  0  0  0  0
 17  6  2  0  0  0  0
 18 14  1  0  0  0  0
 18  8  1  1  0  0  0
 19 13  1  0  0  0  0
 20 11  1  6  0  0  0
 20 10  1  0  0  0  0
 21 23  1  0  0  0  0
 21 22  1  0  0  0  0
 23 22  1  0  0  0  0
 24 26  1  0  0  0  0
 26 22  1  0  0  0  0
 26 25  2  0  0  0  0
 27 24  1  0  0  0  0
 28 24  1  0  0  0  0
M  END
>  <MODEL>
5

>  <REMARK>
 VINA RESULT:      -6.5      2.250      3.329
  Name = 
  2 active torsions:
  status: ('A' for Active; 'I' for Inactive)
    1  A    between atoms: C_1  and  C_3
    2  A    between atoms: C_3  and  C_11
                            x       y       z     vdW  Elec       q    Type
                         _______ _______ _______ _____ _____    ______ ____

>  <TORSDO>
F 2

$$$$
=
 OpenBabel11052422553D

 28 32  0  0  1  0  0  0  0  0999 V2000
  160.6290  203.6710  146.0130 C   0  0  1  0  0  3  0  0  0  0  0  0
  161.6480  206.0450  150.5970 C   0  0  0  0  0  2  0  0  0  0  0  0
  162.4240  201.1830  148.9080 C   0  0  0  0  0  1  0  0  0  0  0  0
  160.8930  204.2460  152.1720 C   0  0  0  0  0  0  0  0  0  0  0  0
  161.2040  203.7490  149.7120 C   0  0  2  0  0  3  0  0  0  0  0  0
  161.2960  206.5170  152.9440 C   0  0  0  0  0  0  0  0  0  0  0  0
  160.7810  204.7880  150.7580 C   0  0  2  0  0  3  0  0  0  0  0  0
  161.0520  201.8820  151.4050 C   0  0  0  0  0  2  0  0  0  0  0  0
  161.0660  205.0850  153.1940 C   0  0  0  0  0  3  0  0  0  0  0  0
  160.4710  201.8930  147.6790 C   0  0  2  0  0  3  0  0  0  0  0  0
  160.7110  204.1590  148.3300 C   0  0  0  0  0  2  0  0  0  0  0  0
  160.5130  202.8280  152.4690 C   0  0  0  0  0  2  0  0  0  0  0  0
  160.0810  201.3490  145.2800 C   0  0  0  0  0  2  0  0  0  0  0  0
  160.9710  201.3840  148.9700 N   0  0  0  0  0  0  0  0  0  0  0  0
  160.6340  200.8290  146.5910 C   0  0  0  0  0  2  0  0  0  0  0  0
  161.2120  207.6510  154.2740 Cl  0  0  0  0  0  0  0  0  0  0  0  0
  161.4970  206.9520  151.7360 N   0  0  0  0  0  0  0  0  0  0  0  0
  160.6270  202.3590  150.0170 C   0  0  2  0  0  3  0  0  0  0  0  0
  160.8170  202.6220  144.9140 C   0  0  0  0  0  2  0  0  0  0  0  0
  161.1200  203.1790  147.3190 N   0  0  2  0  0  0  0  0  0  0  0  0
  160.4560  205.9710  144.8990 C   0  0  0  0  0  2  0  0  0  0  0  0
  161.3510  204.9590  145.5880 C   0  0  0  0  0  0  0  0  0  0  0  0
  161.4830  205.1930  144.0950 C   0  0  0  0  0  2  0  0  0  0  0  0
  162.1480  206.7150  147.2890 N   0  0  0  0  0  0  0  0  0  0  0  0
  163.5770  205.0820  146.4260 O   0  0  0  0  0  0  0  0  0  0  0  0
  162.4150  205.5720  146.4590 C   0  0  0  0  0  0  0  0  0  0  0  0
  163.2050  207.2950  148.1000 C   0  0  0  0  0  1  0  0  0  0  0  0
  160.8310  207.3290  147.3500 C   0  0  0  0  0  1  0  0  0  0  0  0
  1 19  1  6  0  0  0
  1 20  1  0  0  0  0
  2 17  1  0  0  0  0
  3 14  1  0  0  0  0
  4 12  1  0  0  0  0
  4  9  2  0  0  0  0
  5 11  1  6  0  0  0
  5 18  1  0  0  0  0
  5  7  1  0  0  0  0
  6  9  1  0  0  0  0
  6 16  1  0  0  0  0
  7  2  1  1  0  0  0
  7  4  1  0  0  0  0
  8 12  1  0  0  0  0
 10 15  1  6  0  0  0
 10 14  1  0  0  0  0
 13 15  1  0  0  0  0
 14 18  1  0  0  0  0
 17  6  2  0  0  0  0
 18  8  1  1  0  0  0
 19 13  1  0  0  0  0
 20 10  1  0  0  0  0
 20 11  1  1  0  0  0
 21 22  1  0  0  0  0
 22  1  1  0  0  0  0
 22 26  1  0  0  0  0
 23 21  1  0  0  0  0
 23 22  1  0  0  0  0
 24 28  1  0  0  0  0
 24 27  1  0  0  0  0
 25 26  2  0  0  0  0
 26 24  1  0  0  0  0
M  END
>  <MODEL>
6

>  <REMARK>
 VINA RESULT:      -6.4      2.408      4.269
  Name = 
  2 active torsions:
  status: ('A' for Active; 'I' for Inactive)
    1  A    between atoms: C_1  and  C_3
    2  A    between atoms: C_3  and  C_11
                            x       y       z     vdW  Elec       q    Type
                         _______ _______ _______ _____ _____    ______ ____

>  <TORSDO>
F 2

$$$$
=
 OpenBabel11052422553D

 28 32  0  0  1  0  0  0  0  0999 V2000
  159.8750  210.4570  154.4060 C   0  0  1  0  0  3  0  0  0  0  0  0
  161.3780  205.5920  153.0800 C   0  0  0  0  0  2  0  0  0  0  0  0
  162.6700  210.2910  151.2510 C   0  0  0  0  0  1  0  0  0  0  0  0
  161.3190  205.8080  150.5820 C   0  0  0  0  0  0  0  0  0  0  0  0
  161.1920  207.8630  152.0490 C   0  0  2  0  0  3  0  0  0  0  0  0
  161.4470  203.6320  151.6620 C   0  0  0  0  0  0  0  0  0  0  0  0
  160.8130  206.3850  151.8920 C   0  0  2  0  0  3  0  0  0  0  0  0
  161.7490  208.0520  149.5940 C   0  0  0  0  0  2  0  0  0  0  0  0
  161.5440  204.4970  150.4760 C   0  0  0  0  0  3  0  0  0  0  0  0
  160.4040  210.6000  152.0280 C   0  0  2  0  0  3  0  0  0  0  0  0
  160.3510  208.5100  153.1430 C   0  0  0  0  0  2  0  0  0  0  0  0
  161.2800  206.6280  149.3300 C   0  0  0  0  0  2  0  0  0  0  0  0
  159.6260  212.6410  153.2250 C   0  0  0  0  0  2  0  0  0  0  0  0
  161.2510  210.0880  150.9340 N   0  0  0  0  0  0  0  0  0  0  0  0
  160.5300  212.1230  152.1250 C   0  0  0  0  0  2  0  0  0  0  0  0
  161.4360  201.8930  151.4660 Cl  0  0  0  0  0  0  0  0  0  0  0  0
  161.3050  204.1490  152.8460 N   0  0  0  0  0  0  0  0  0  0  0  0
  160.9610  208.6560  150.7550 C   0  0  2  0  0  3  0  0  0  0  0  0
  160.0190  211.9760  154.5280 C   0  0  0  0  0  2  0  0  0  0  0  0
  160.7130  209.9210  153.3110 N   0  0  2  0  0  0  0  0  0  0  0  0
  159.3920  208.6180  156.1240 C   0  0  0  0  0  2  0  0  0  0  0  0
  160.2390  209.8210  155.7580 C   0  0  0  0  0  0  0  0  0  0  0  0
  159.1980  209.9350  156.8550 C   0  0  0  0  0  2  0  0  0  0  0  0
  162.3380  210.8130  156.8640 N   0  0  0  0  0  0  0  0  0  0  0  0
  162.3110  208.6620  155.9540 O   0  0  0  0  0  0  0  0  0  0  0  0
  161.6740  209.7220  156.2030 C   0  0  0  0  0  0  0  0  0  0  0  0
  163.7300  210.6920  157.2610 C   0  0  0  0  0  1  0  0  0  0  0  0
  161.6550  212.0630  157.1590 C   0  0  0  0  0  1  0  0  0  0  0  0
  1 19  1  1  0  0  0
  1 22  1  0  0  0  0
  4  7  1  0  0  0  0
  5 11  1  1  0  0  0
  6 17  2  0  0  0  0
  7  5  1  0  0  0  0
  7  2  1  1  0  0  0
  9  4  2  0  0  0  0
  9  6  1  0  0  0  0
 10 15  1  1  0  0  0
 10 20  1  0  0  0  0
 12  8  1  0  0  0  0
 12  4  1  0  0  0  0
 13 19  1  0  0  0  0
 14  3  1  0  0  0  0
 14 10  1  0  0  0  0
 15 13  1  0  0  0  0
 16  6  1  0  0  0  0
 17  2  1  0  0  0  0
 18  8  1  6  0  0  0
 18 14  1  0  0  0  0
 18  5  1  0  0  0  0
 20 11  1  6  0  0  0
 20  1  1  0  0  0  0
 21 23  1  0  0  0  0
 22 21  1  0  0  0  0
 22 26  1  0  0  0  0
 22 23  1  0  0  0  0
 24 28  1  0  0  0  0
 24 27  1  0  0  0  0
 25 26  2  0  0  0  0
 26 24  1  0  0  0  0
M  END
>  <MODEL>
7

>  <REMARK>
 VINA RESULT:      -6.3      3.800      8.272
  Name = 
  2 active torsions:
  status: ('A' for Active; 'I' for Inactive)
    1  A    between atoms: C_1  and  C_3
    2  A    between atoms: C_3  and  C_11
                            x       y       z     vdW  Elec       q    Type
                         _______ _______ _______ _____ _____    ______ ____

>  <TORSDO>
F 2

$$$$
=
 OpenBabel11052422553D

 28 32  0  0  1  0  0  0  0  0999 V2000
  161.7350  203.3320  148.0090 C   0  0  1  0  0  3  0  0  0  0  0  0
  160.7680  206.5950  152.0230 C   0  0  0  0  0  2  0  0  0  0  0  0
  160.3780  207.1590  146.8630 C   0  0  0  0  0  1  0  0  0  0  0  0
  161.7940  208.6920  151.1070 C   0  0  0  0  0  0  0  0  0  0  0  0
  161.3830  206.7030  149.6020 C   0  0  2  0  0  3  0  0  0  0  0  0
  161.2150  208.4890  153.4610 C   0  0  0  0  0  0  0  0  0  0  0  0
  161.7650  207.1780  151.0090 C   0  0  2  0  0  3  0  0  0  0  0  0
  161.8240  208.9940  148.6360 C   0  0  0  0  0  2  0  0  0  0  0  0
  161.6020  209.2860  152.2860 C   0  0  0  0  0  3  0  0  0  0  0  0
  162.1710  205.5610  147.1140 C   0  0  2  0  0  3  0  0  0  0  0  0
  161.7480  205.2340  149.4220 C   0  0  0  0  0  2  0  0  0  0  0  0
  162.3310  209.5120  149.9750 C   0  0  0  0  0  2  0  0  0  0  0  0
  162.4650  203.5780  145.6360 C   0  0  0  0  0  2  0  0  0  0  0  0
  161.8050  206.9890  147.1640 N   0  0  0  0  0  0  0  0  0  0  0  0
  162.0480  205.0330  145.6820 C   0  0  0  0  0  2  0  0  0  0  0  0
  161.2670  209.2140  155.0530 Cl  0  0  0  0  0  0  0  0  0  0  0  0
  160.8980  207.2350  153.3330 N   0  0  0  0  0  0  0  0  0  0  0  0
  162.1130  207.4990  148.5100 C   0  0  2  0  0  3  0  0  0  0  0  0
  161.5850  202.7910  146.5850 C   0  0  0  0  0  2  0  0  0  0  0  0
  161.3770  204.7660  148.0830 N   0  0  2  0  0  0  0  0  0  0  0  0
  161.2060  201.0070  148.9450 C   0  0  0  0  0  2  0  0  0  0  0  0
  160.8640  202.4840  148.9490 C   0  0  0  0  0  0  0  0  0  0  0  0
  159.9280  201.4930  148.2850 C   0  0  0  0  0  2  0  0  0  0  0  0
  161.2250  202.7980  151.4760 N   0  0  0  0  0  0  0  0  0  0  0  0
  159.3390  203.6300  150.3760 O   0  0  0  0  0  0  0  0  0  0  0  0
  160.4360  203.0130  150.2920 C   0  0  0  0  0  0  0  0  0  0  0  0
  160.7700  203.3020  152.7610 C   0  0  0  0  0  1  0  0  0  0  0  0
  162.4880  202.0780  151.4370 C   0  0  0  0  0  1  0  0  0  0  0  0
  1 19  1  6  0  0  0
  1 20  1  0  0  0  0
  1 22  1  0  0  0  0
  2 17  1  0  0  0  0
  3 14  1  0  0  0  0
  4  9  2  0  0  0  0
  5 11  1  1  0  0  0
  5  7  1  0  0  0  0
  6 16  1  0  0  0  0
  7  4  1  0  0  0  0
  7  2  1  1  0  0  0
  8 12  1  0  0  0  0
  9  6  1  0  0  0  0
 10 15  1  6  0  0  0
 10 14  1  0  0  0  0
 10 20  1  0  0  0  0
 12  4  1  0  0  0  0
 13 15  1  0  0  0  0
 13 19  1  0  0  0  0
 14 18  1  0  0  0  0
 17  6  2  0  0  0  0
 18  8  1  6  0  0  0
 18  5  1  0  0  0  0
 20 11  1  1  0  0  0
 21 22  1  0  0  0  0
 22 26  1  0  0  0  0
 23 21  1  0  0  0  0
 23 22  1  0  0  0  0
 24 27  1  0  0  0  0
 26 25  2  0  0  0  0
 26 24  1  0  0  0  0
 28 24  1  0  0  0  0
M  END
>  <MODEL>
8

>  <REMARK>
 VINA RESULT:      -6.2      2.094      4.777
  Name = 
  2 active torsions:
  status: ('A' for Active; 'I' for Inactive)
    1  A    between atoms: C_1  and  C_3
    2  A    between atoms: C_3  and  C_11
                            x       y       z     vdW  Elec       q    Type
                         _______ _______ _______ _____ _____    ______ ____

>  <TORSDO>
F 2

$$$$
=
 OpenBabel11052422553D

 28 32  0  0  1  0  0  0  0  0999 V2000
  160.5630  211.2410  154.7010 C   0  0  1  0  0  3  0  0  0  0  0  0
  160.5450  207.9770  150.5730 C   0  0  0  0  0  2  0  0  0  0  0  0
  159.4450  207.2770  155.6130 C   0  0  0  0  0  1  0  0  0  0  0  0
  161.6300  205.9750  151.6250 C   0  0  0  0  0  0  0  0  0  0  0  0
  160.7980  207.8830  153.0590 C   0  0  2  0  0  3  0  0  0  0  0  0
  161.3920  206.1650  149.2110 C   0  0  0  0  0  0  0  0  0  0  0  0
  161.4320  207.4770  151.7240 C   0  0  2  0  0  3  0  0  0  0  0  0
  161.3200  205.6290  154.0710 C   0  0  0  0  0  2  0  0  0  0  0  0
  161.6770  205.3880  150.4280 C   0  0  0  0  0  3  0  0  0  0  0  0
  161.0850  209.0500  155.6420 C   0  0  2  0  0  3  0  0  0  0  0  0
  160.9800  209.3780  153.2980 C   0  0  0  0  0  2  0  0  0  0  0  0
  162.0720  205.1910  152.8220 C   0  0  0  0  0  2  0  0  0  0  0  0
  160.9510  211.0230  157.1560 C   0  0  0  0  0  2  0  0  0  0  0  0
  160.8770  207.5940  155.5310 N   0  0  0  0  0  0  0  0  0  0  0  0
  160.6950  209.5350  157.0410 C   0  0  0  0  0  2  0  0  0  0  0  0
  161.7560  205.4800  147.6420 Cl  0  0  0  0  0  0  0  0  0  0  0  0
  160.9330  207.3780  149.2960 N   0  0  0  0  0  0  0  0  0  0  0  0
  161.4340  207.1430  154.2450 C   0  0  2  0  0  3  0  0  0  0  0  0
  160.1470  211.7370  156.0880 C   0  0  0  0  0  2  0  0  0  0  0  0
  160.3670  209.7810  154.5670 N   0  0  2  0  0  0  0  0  0  0  0  0
  159.2870  211.1670  152.4810 C   0  0  0  0  0  2  0  0  0  0  0  0
  159.7610  212.0160  153.6430 C   0  0  0  0  0  0  0  0  0  0  0  0
  160.4140  212.1650  152.2820 C   0  0  0  0  0  2  0  0  0  0  0  0
  157.4680  212.8000  154.5020 N   0  0  0  0  0  0  0  0  0  0  0  0
  159.1670  214.3030  153.9450 O   0  0  0  0  0  0  0  0  0  0  0  0
  158.7980  213.1010  154.0470 C   0  0  0  0  0  0  0  0  0  0  0  0
  156.5560  213.8720  154.8610 C   0  0  0  0  0  1  0  0  0  0  0  0
  156.9870  211.4320  154.6200 C   0  0  0  0  0  1  0  0  0  0  0  0
  1 22  1  6  0  0  0
  1 19  1  0  0  0  0
  4  7  1  0  0  0  0
  4 12  1  0  0  0  0
  5 11  1  1  0  0  0
  5 18  1  0  0  0  0
  6 17  2  0  0  0  0
  6  9  1  0  0  0  0
  7  2  1  6  0  0  0
  7  5  1  0  0  0  0
  9  4  2  0  0  0  0
 10 15  1  1  0  0  0
 12  8  1  0  0  0  0
 14  3  1  0  0  0  0
 14 10  1  0  0  0  0
 15 13  1  0  0  0  0
 16  6  1  0  0  0  0
 17  2  1  0  0  0  0
 18  8  1  6  0  0  0
 18 14  1  0  0  0  0
 19 13  1  0  0  0  0
 20 11  1  6  0  0  0
 20  1  1  0  0  0  0
 20 10  1  0  0  0  0
 21 22  1  0  0  0  0
 22 26  1  0  0  0  0
 23 21  1  0  0  0  0
 23 22  1  0  0  0  0
 24 28  1  0  0  0  0
 24 27  1  0  0  0  0
 25 26  2  0  0  0  0
 26 24  1  0  0  0  0
M  END
>  <MODEL>
9

>  <REMARK>
 VINA RESULT:      -5.7      3.642      7.820
  Name = 
  2 active torsions:
  status: ('A' for Active; 'I' for Inactive)
    1  A    between atoms: C_1  and  C_3
    2  A    between atoms: C_3  and  C_11
                            x       y       z     vdW  Elec       q    Type
                         _______ _______ _______ _____ _____    ______ ____

>  <TORSDO>
F 2

$$$$
