=
 OpenBabel11062408393D

 55 64  0  0  1  0  0  0  0  0999 V2000
  157.9500  211.7510  151.0760 C   0  0  0  0  0  2  0  0  0  0  0  0
  162.4060  210.3140  147.4600 C   0  0  0  0  0  3  0  0  0  0  0  0
  160.5960  208.2870  148.4820 C   0  0  0  0  0  2  0  0  0  0  0  0
  161.4490  212.5140  145.6810 C   0  0  0  0  0  3  0  0  0  0  0  0
  163.5180  213.8120  146.2560 C   0  0  0  0  0  2  0  0  0  0  0  0
  161.8240  207.1420  151.3030 C   0  0  0  0  0  3  0  0  0  0  0  0
  162.6760  206.2310  152.1430 C   0  0  0  0  0  2  0  0  0  0  0  0
  162.0540  209.0020  152.9480 C   0  0  1  0  0  3  0  0  0  0  0  0
  163.0640  208.1160  153.6880 C   0  0  0  0  0  2  0  0  0  0  0  0
  160.6350  210.6430  151.1810 N   0  0  0  0  0  2  0  0  0  0  0  0
  162.8560  213.3760  143.9690 O   0  0  0  0  0  0  0  0  0  0  0  0
  163.9850  213.5060  144.8360 C   0  0  0  0  0  2  0  0  0  0  0  0
  162.6640  206.6480  153.6040 C   0  0  0  0  0  2  0  0  0  0  0  0
  157.1090  214.0980  148.2190 C   0  0  0  0  0  3  0  0  0  0  0  0
  161.6160  208.4370  151.6060 C   0  0  0  0  0  0  0  0  0  0  0  0
  159.5240  213.9260  148.3770 C   0  0  0  0  0  0  0  0  0  0  0  0
  158.9370  211.9690  152.0470 O   0  0  0  0  0  0  0  0  0  0  0  0
  159.3790  213.0700  149.4770 C   0  0  0  0  0  3  0  0  0  0  0  0
  160.2420  210.6420  153.6040 C   0  0  1  0  0  3  0  0  0  0  0  0
  163.2820  211.4320  146.9790 C   0  0  0  0  0  2  0  0  0  0  0  0
  160.8320  209.2420  153.8250 C   0  0  0  0  0  2  0  0  0  0  0  0
  162.0410  210.2450  148.7360 C   0  0  0  0  0  3  0  0  0  0  0  0
  161.1240  209.2180  149.2690 C   0  0  0  0  0  0  0  0  0  0  0  0
  156.9710  213.2290  149.3060 C   0  0  0  0  0  3  0  0  0  0  0  0
  161.6540  212.7840  144.3850 C   0  0  0  0  0  0  0  0  0  0  0  0
  162.5180  212.7460  146.7300 C   0  0  2  0  0  0  0  0  0  0  0  0
  158.1060  212.7210  149.9490 C   0  0  0  0  0  0  0  0  0  0  0  0
  160.7090  209.2610  150.7150 C   0  0  2  0  0  3  0  0  0  0  0  0
  159.5970  210.7420  152.2030 C   0  0  2  0  0  3  0  0  0  0  0  0
  161.9030  213.2270  148.0500 C   0  0  0  0  0  2  0  0  0  0  0  0
  160.8820  214.3550  147.9020 C   0  0  0  0  0  2  0  0  0  0  0  0
  158.3820  214.4510  147.7590 C   0  0  0  0  0  3  0  0  0  0  0  0
  156.3130  211.0820  154.1230 C   0  0  1  0  0  3  0  0  0  0  0  0
  158.4780  212.2670  154.4340 C   0  0  0  0  0  2  0  0  0  0  0  0
  154.8650  209.9980  155.6860 O   0  0  0  0  0  0  0  0  0  0  0  0
  157.1200  210.5850  155.2690 C   0  0  2  0  0  0  0  0  0  0  0  0
  158.3040  209.9400  154.8900 O   0  0  0  0  0  0  0  0  0  0  0  0
  156.1590  209.9480  156.2370 C   0  0  0  0  0  2  0  0  0  0  0  0
  154.9000  210.9390  154.6360 C   0  0  0  0  0  2  0  0  0  0  0  0
  157.1030  212.0510  155.0030 C   0  0  2  0  0  3  0  0  0  0  0  0
  159.2480  210.9780  154.7330 C   0  0  1  0  0  3  0  0  0  0  0  0
  161.7600  209.9090  141.0500 O   0  0  0  0  0  1  0  0  0  0  0  0
  160.2040  211.1710  142.9110 C   0  0  1  0  0  3  0  0  0  0  0  0
  162.3590  211.9440  141.9430 O   0  0  0  0  0  0  0  0  0  0  0  0
  160.9410  212.1440  141.9310 C   0  0  1  0  0  0  0  0  0  0  0  0
  161.6890  211.3000  140.9180 C   0  0  2  0  0  0  0  0  0  0  0  0
  161.0490  210.2350  143.5260 O   0  0  0  0  0  1  0  0  0  0  0  0
  160.5500  212.5560  143.3700 C   0  0  2  0  0  0  0  0  0  0  0  0
  159.3690  213.5230  143.3810 C   0  0  2  0  0  3  0  0  0  0  0  0
  158.7460  213.5120  144.6310 O   0  0  0  0  0  1  0  0  0  0  0  0
  158.3580  213.1620  142.3080 C   0  0  0  0  0  1  0  0  0  0  0  0
  162.0470  211.8820  139.5820 C   0  0  0  0  0  0  0  0  0  0  0  0
  161.3030  211.7080  138.6290 O   0  0  0  0  0  0  0  0  0  0  0  0
  163.3350  212.6170  139.3880 C   0  0  0  0  0  2  0  0  0  0  0  0
  163.2090  213.9860  139.8550 N   0  0  0  0  0  1  0  0  0  0  0  0
  1 17  1  0  0  0  0
  2 22  2  0  0  0  0
  3 23  2  0  0  0  0
  5 26  1  0  0  0  0
  6 15  2  0  0  0  0
  6  7  1  0  0  0  0
  7 13  1  0  0  0  0
  8  9  1  1  0  0  0
  8 21  1  0  0  0  0
 11 25  1  0  0  0  0
 11 12  1  0  0  0  0
 12  5  1  0  0  0  0
 13  9  1  0  0  0  0
 14 24  1  0  0  0  0
 15  8  1  0  0  0  0
 16 18  2  0  0  0  0
 17 29  1  0  0  0  0
 18 27  1  0  0  0  0
 19 21  1  1  0  0  0
 19 41  1  0  0  0  0
 20  2  1  0  0  0  0
 22 23  1  0  0  0  0
 24 27  2  0  0  0  0
 25  4  2  0  0  0  0
 26  4  1  6  0  0  0
 26 20  1  0  0  0  0
 26 30  1  0  0  0  0
 27  1  1  0  0  0  0
 28 23  1  6  0  0  0
 28 10  1  0  0  0  0
 28 15  1  0  0  0  0
 29 10  1  6  0  0  0
 29 19  1  0  0  0  0
 31 30  1  0  0  0  0
 31 16  1  0  0  0  0
 32 14  2  0  0  0  0
 32 16  1  0  0  0  0
 33 39  1  1  0  0  0
 33 40  1  0  0  0  0
 33 36  1  0  0  0  0
 35 38  1  0  0  0  0
 36 38  1  1  0  0  0
 37 36  1  0  0  0  0
 39 35  1  0  0  0  0
 40 34  1  6  0  0  0
 40 36  1  0  0  0  0
 41 34  1  6  0  0  0
 41 37  1  0  0  0  0
 43 48  1  0  0  0  0
 43 47  1  1  0  0  0
 45 44  1  1  0  0  0
 45 43  1  0  0  0  0
 45 48  1  0  0  0  0
 46 42  1  1  0  0  0
 46 45  1  0  0  0  0
 46 44  1  0  0  0  0
 48 49  1  1  0  0  0
 48 25  1  0  0  0  0
 49 51  1  6  0  0  0
 49 50  1  0  0  0  0
 52 46  1  0  0  0  0
 53 52  2  0  0  0  0
 54 52  1  0  0  0  0
 54 55  1  0  0  0  0
M  END
>  <MODEL>
1

>  <REMARK>
 VINA RESULT:      17.0      0.000      0.000
  Name = 
  5 active torsions:
  status: ('A' for Active; 'I' for Inactive)
    1  A    between atoms: C_1  and  C_53
    2  A    between atoms: C_11  and  C_29
    3  A    between atoms: C_29  and  C_38
    4  A    between atoms: C_33  and  C_52
    5  A    between atoms: C_42  and  C_53
                            x       y       z     vdW  Elec       q    Type
                         _______ _______ _______ _____ _____    ______ ____

>  <TORSDO>
F 5

$$$$
=
 OpenBabel11062408393D

 55 64  0  0  1  0  0  0  0  0999 V2000
  156.6160  212.7250  146.8750 C   0  0  0  0  0  2  0  0  0  0  0  0
  160.1910  211.8070  142.2520 C   0  0  0  0  0  3  0  0  0  0  0  0
  160.1540  209.9720  144.5010 C   0  0  0  0  0  2  0  0  0  0  0  0
  157.7880  212.2190  140.5270 C   0  0  0  0  0  3  0  0  0  0  0  0
  158.7890  214.3780  139.7330 C   0  0  0  0  0  2  0  0  0  0  0  0
  162.3810  210.9840  146.6900 C   0  0  0  0  0  3  0  0  0  0  0  0
  163.7570  211.0600  147.2920 C   0  0  0  0  0  2  0  0  0  0  0  0
  161.8360  213.2940  147.4530 C   0  0  1  0  0  3  0  0  0  0  0  0
  163.3010  213.4090  147.8930 C   0  0  0  0  0  2  0  0  0  0  0  0
  159.3940  213.0860  146.1020 N   0  0  0  0  0  2  0  0  0  0  0  0
  158.0360  212.6590  138.2040 O   0  0  0  0  0  0  0  0  0  0  0  0
  159.0330  213.6620  138.4070 C   0  0  0  0  0  2  0  0  0  0  0  0
  163.8160  212.0760  148.4200 C   0  0  0  0  0  2  0  0  0  0  0  0
  153.9910  212.7800  144.1390 C   0  0  0  0  0  3  0  0  0  0  0  0
  161.5330  212.0290  146.6670 C   0  0  0  0  0  0  0  0  0  0  0  0
  156.0270  213.7650  143.2600 C   0  0  0  0  0  0  0  0  0  0  0  0
  157.4730  213.7840  147.2050 O   0  0  0  0  0  0  0  0  0  0  0  0
  156.6400  213.5780  144.5080 C   0  0  0  0  0  3  0  0  0  0  0  0
  159.5990  214.0820  148.3370 C   0  0  1  0  0  3  0  0  0  0  0  0
  160.1330  212.8070  141.1360 C   0  0  0  0  0  2  0  0  0  0  0  0
  160.9210  213.3730  148.6680 C   0  0  0  0  0  2  0  0  0  0  0  0
  160.2140  212.2110  143.5180 C   0  0  0  0  0  3  0  0  0  0  0  0
  160.1980  211.2890  144.6710 C   0  0  0  0  0  0  0  0  0  0  0  0
  154.6150  212.5810  145.3750 C   0  0  0  0  0  3  0  0  0  0  0  0
  157.5190  211.8900  139.2570 C   0  0  0  0  0  0  0  0  0  0  0  0
  158.7180  213.3610  140.8820 C   0  0  2  0  0  0  0  0  0  0  0  0
  155.9390  212.9900  145.5690 C   0  0  0  0  0  0  0  0  0  0  0  0
  160.1530  211.8390  146.0710 C   0  0  2  0  0  3  0  0  0  0  0  0
  158.7360  213.2070  147.3990 C   0  0  2  0  0  3  0  0  0  0  0  0
  158.2360  214.0980  142.1370 C   0  0  0  0  0  2  0  0  0  0  0  0
  156.7480  214.4490  142.1360 C   0  0  0  0  0  2  0  0  0  0  0  0
  154.6920  213.3770  143.0870 C   0  0  0  0  0  3  0  0  0  0  0  0
  158.1730  212.2940  151.6030 C   0  0  1  0  0  3  0  0  0  0  0  0
  157.4940  213.7690  149.7190 C   0  0  0  0  0  2  0  0  0  0  0  0
  158.6190  212.7720  153.9040 O   0  0  0  0  0  0  0  0  0  0  0  0
  158.6530  213.6980  151.7250 C   0  0  2  0  0  0  0  0  0  0  0  0
  159.6090  214.0530  150.7660 O   0  0  0  0  0  0  0  0  0  0  0  0
  158.8800  213.9570  153.1900 C   0  0  0  0  0  2  0  0  0  0  0  0
  157.8960  211.9220  153.0410 C   0  0  0  0  0  2  0  0  0  0  0  0
  157.2860  213.4640  151.1770 C   0  0  2  0  0  3  0  0  0  0  0  0
  158.8610  214.4530  149.6380 C   0  0  1  0  0  3  0  0  0  0  0  0
  153.2430  212.2890  138.2790 O   0  0  0  0  0  1  0  0  0  0  0  0
  155.5480  210.8810  137.8520 C   0  0  1  0  0  3  0  0  0  0  0  0
  154.9300  212.2340  139.8440 O   0  0  0  0  0  0  0  0  0  0  0  0
  155.0790  210.8990  139.3450 C   0  0  1  0  0  0  0  0  0  0  0  0
  153.7580  211.6400  139.4070 C   0  0  2  0  0  0  0  0  0  0  0  0
  155.6300  212.1530  137.2650 O   0  0  0  0  0  1  0  0  0  0  0  0
  156.5660  210.7510  138.9450 C   0  0  2  0  0  0  0  0  0  0  0  0
  157.0720  209.3270  139.1610 C   0  0  2  0  0  3  0  0  0  0  0  0
  158.4590  209.2770  138.9990 O   0  0  0  0  0  1  0  0  0  0  0  0
  156.4140  208.3620  138.1930 C   0  0  0  0  0  1  0  0  0  0  0  0
  152.8160  211.3900  140.5460 C   0  0  0  0  0  0  0  0  0  0  0  0
  152.4650  212.3210  141.2550 O   0  0  0  0  0  0  0  0  0  0  0  0
  152.3520  210.0050  140.8670 C   0  0  0  0  0  2  0  0  0  0  0  0
  152.2070  209.2280  139.6490 N   0  0  0  0  0  1  0  0  0  0  0  0
  1 17  1  0  0  0  0
  2 22  2  0  0  0  0
  3 23  2  0  0  0  0
  4 26  1  0  0  0  0
  6  7  1  0  0  0  0
  7 13  1  0  0  0  0
  8  9  1  1  0  0  0
  8 21  1  0  0  0  0
  9 13  1  0  0  0  0
 11 12  1  0  0  0  0
 11 25  1  0  0  0  0
 12  5  1  0  0  0  0
 14 24  1  0  0  0  0
 15  6  2  0  0  0  0
 15  8  1  0  0  0  0
 16 18  2  0  0  0  0
 17 29  1  0  0  0  0
 18 27  1  0  0  0  0
 19 21  1  1  0  0  0
 19 41  1  0  0  0  0
 20  2  1  0  0  0  0
 22 23  1  0  0  0  0
 24 27  2  0  0  0  0
 25  4  2  0  0  0  0
 26  5  1  6  0  0  0
 26 20  1  0  0  0  0
 26 30  1  0  0  0  0
 27  1  1  0  0  0  0
 28 23  1  6  0  0  0
 28 10  1  0  0  0  0
 28 15  1  0  0  0  0
 29 10  1  6  0  0  0
 29 19  1  0  0  0  0
 31 30  1  0  0  0  0
 31 16  1  0  0  0  0
 32 16  1  0  0  0  0
 32 14  2  0  0  0  0
 33 36  1  0  0  0  0
 33 39  1  1  0  0  0
 36 38  1  1  0  0  0
 37 36  1  0  0  0  0
 38 35  1  0  0  0  0
 39 35  1  0  0  0  0
 40 34  1  6  0  0  0
 40 33  1  0  0  0  0
 40 36  1  0  0  0  0
 41 34  1  6  0  0  0
 41 37  1  0  0  0  0
 43 47  1  1  0  0  0
 43 48  1  0  0  0  0
 43 45  1  0  0  0  0
 45 46  1  0  0  0  0
 45 44  1  6  0  0  0
 46 42  1  6  0  0  0
 46 44  1  0  0  0  0
 46 52  1  0  0  0  0
 48 49  1  1  0  0  0
 48 25  1  0  0  0  0
 48 45  1  0  0  0  0
 49 51  1  6  0  0  0
 50 49  1  0  0  0  0
 52 54  1  0  0  0  0
 52 53  2  0  0  0  0
 55 54  1  0  0  0  0
M  END
>  <MODEL>
2

>  <REMARK>
 VINA RESULT:      17.9      3.921      6.727
  Name = 
  5 active torsions:
  status: ('A' for Active; 'I' for Inactive)
    1  A    between atoms: C_1  and  C_53
    2  A    between atoms: C_11  and  C_29
    3  A    between atoms: C_29  and  C_38
    4  A    between atoms: C_33  and  C_52
    5  A    between atoms: C_42  and  C_53
                            x       y       z     vdW  Elec       q    Type
                         _______ _______ _______ _____ _____    ______ ____

>  <TORSDO>
F 5

$$$$
=
 OpenBabel11062408393D

 55 64  0  0  1  0  0  0  0  0999 V2000
  160.2720  202.9930  150.4980 C   0  0  0  0  0  2  0  0  0  0  0  0
  161.1480  208.7770  149.6170 C   0  0  0  0  0  3  0  0  0  0  0  0
  159.1100  207.3310  148.1390 C   0  0  0  0  0  2  0  0  0  0  0  0
  161.0130  209.0780  152.5850 C   0  0  0  0  0  3  0  0  0  0  0  0
  163.4630  209.6190  152.5920 C   0  0  0  0  0  2  0  0  0  0  0  0
  160.4660  206.1720  145.3840 C   0  0  0  0  0  3  0  0  0  0  0  0
  160.8890  206.2460  143.9420 C   0  0  0  0  0  2  0  0  0  0  0  0
  162.3660  204.6560  145.9420 C   0  0  1  0  0  3  0  0  0  0  0  0
  162.8740  204.8970  144.5150 C   0  0  0  0  0  2  0  0  0  0  0  0
  161.5850  204.7870  148.6260 N   0  0  0  0  0  2  0  0  0  0  0  0
  161.8160  211.0560  153.6320 O   0  0  0  0  0  0  0  0  0  0  0  0
  163.0440  211.0530  152.9020 C   0  0  0  0  0  2  0  0  0  0  0  0
  161.7110  205.0340  143.5400 C   0  0  0  0  0  2  0  0  0  0  0  0
  159.8670  204.1560  154.0840 C   0  0  0  0  0  3  0  0  0  0  0  0
  161.1860  205.5350  146.3260 C   0  0  0  0  0  0  0  0  0  0  0  0
  161.5480  205.5440  153.0200 C   0  0  0  0  0  0  0  0  0  0  0  0
  161.4920  202.8060  149.8340 O   0  0  0  0  0  0  0  0  0  0  0  0
  161.3980  204.7990  151.8410 C   0  0  0  0  0  3  0  0  0  0  0  0
  162.2870  202.6980  147.5430 C   0  0  1  0  0  3  0  0  0  0  0  0
  162.2190  209.4360  150.4330 C   0  0  0  0  0  2  0  0  0  0  0  0
  161.9910  203.1910  146.1190 C   0  0  0  0  0  2  0  0  0  0  0  0
  161.3660  207.5950  149.0480 C   0  0  0  0  0  3  0  0  0  0  0  0
  160.3390  206.8510  148.2920 C   0  0  0  0  0  0  0  0  0  0  0  0
  159.7090  203.4290  152.9000 C   0  0  0  0  0  3  0  0  0  0  0  0
  160.7890  210.1340  153.3790 C   0  0  0  0  0  0  0  0  0  0  0  0
  162.3310  208.8780  151.8640 C   0  0  2  0  0  0  0  0  0  0  0  0
  160.4840  203.7400  151.7760 C   0  0  0  0  0  0  0  0  0  0  0  0
  160.6550  205.4850  147.7430 C   0  0  2  0  0  3  0  0  0  0  0  0
  161.3190  203.3530  148.5550 C   0  0  2  0  0  3  0  0  0  0  0  0
  162.7050  207.3920  151.7960 C   0  0  0  0  0  2  0  0  0  0  0  0
  162.5680  206.6410  153.1190 C   0  0  0  0  0  2  0  0  0  0  0  0
  160.7890  205.2060  154.1460 C   0  0  0  0  0  3  0  0  0  0  0  0
  160.4600  199.6960  145.6610 C   0  0  1  0  0  3  0  0  0  0  0  0
  160.8210  200.6610  147.9240 C   0  0  0  0  0  2  0  0  0  0  0  0
  161.4130  197.7830  144.5870 O   0  0  0  0  0  0  0  0  0  0  0  0
  161.8180  199.4510  146.2170 C   0  0  2  0  0  0  0  0  0  0  0  0
  162.5950  200.6090  146.3420 O   0  0  0  0  0  0  0  0  0  0  0  0
  162.3540  198.2190  145.5380 C   0  0  0  0  0  2  0  0  0  0  0  0
  160.1930  198.4240  144.8900 C   0  0  0  0  0  2  0  0  0  0  0  0
  160.6530  199.3860  147.1450 C   0  0  2  0  0  3  0  0  0  0  0  0
  162.2300  201.1580  147.5900 C   0  0  1  0  0  3  0  0  0  0  0  0
  158.2180  213.7100  153.3370 O   0  0  0  0  0  1  0  0  0  0  0  0
  158.3080  210.9780  153.4390 C   0  0  1  0  0  3  0  0  0  0  0  0
  160.0600  212.5920  154.1470 O   0  0  0  0  0  0  0  0  0  0  0  0
  159.0570  211.6850  154.6180 C   0  0  1  0  0  0  0  0  0  0  0  0
  158.8490  213.1790  154.4680 C   0  0  2  0  0  0  0  0  0  0  0  0
  158.6830  211.4380  152.1680 O   0  0  0  0  0  1  0  0  0  0  0  0
  159.4620  210.2850  154.0980 C   0  0  2  0  0  0  0  0  0  0  0  0
  159.0550  209.1810  155.0700 C   0  0  2  0  0  3  0  0  0  0  0  0
  158.1010  209.6570  155.9720 O   0  0  0  0  0  1  0  0  0  0  0  0
  160.2580  208.6570  155.8340 C   0  0  0  0  0  1  0  0  0  0  0  0
  158.9760  214.0720  155.6660 C   0  0  0  0  0  0  0  0  0  0  0  0
  160.0820  214.4520  156.0210 O   0  0  0  0  0  0  0  0  0  0  0  0
  157.7740  214.4520  156.4700 C   0  0  0  0  0  2  0  0  0  0  0  0
  156.7180  213.4710  156.2910 N   0  0  0  0  0  1  0  0  0  0  0  0
  1 27  1  0  0  0  0
  2 20  1  0  0  0  0
  3 23  2  0  0  0  0
  4 25  2  0  0  0  0
  5 12  1  0  0  0  0
  6 15  2  0  0  0  0
  7  6  1  0  0  0  0
  8  9  1  6  0  0  0
  8 21  1  0  0  0  0
  8 15  1  0  0  0  0
 12 11  1  0  0  0  0
 13  7  1  0  0  0  0
 13  9  1  0  0  0  0
 14 32  1  0  0  0  0
 16 31  1  0  0  0  0
 16 32  2  0  0  0  0
 17  1  1  0  0  0  0
 18 16  1  0  0  0  0
 19 21  1  6  0  0  0
 19 41  1  0  0  0  0
 19 29  1  0  0  0  0
 22  2  2  0  0  0  0
 23 22  1  0  0  0  0
 24 14  2  0  0  0  0
 25 11  1  0  0  0  0
 25 48  1  0  0  0  0
 26 20  1  6  0  0  0
 26  4  1  0  0  0  0
 26  5  1  0  0  0  0
 27 18  2  0  0  0  0
 27 24  1  0  0  0  0
 28 15  1  6  0  0  0
 28 23  1  0  0  0  0
 28 10  1  0  0  0  0
 29 10  1  1  0  0  0
 29 17  1  0  0  0  0
 30 26  1  0  0  0  0
 30 31  1  0  0  0  0
 33 39  1  6  0  0  0
 33 36  1  0  0  0  0
 33 40  1  0  0  0  0
 35 39  1  0  0  0  0
 35 38  1  0  0  0  0
 36 38  1  6  0  0  0
 36 37  1  0  0  0  0
 36 40  1  0  0  0  0
 37 41  1  0  0  0  0
 40 34  1  1  0  0  0
 41 34  1  6  0  0  0
 43 47  1  6  0  0  0
 43 48  1  0  0  0  0
 43 45  1  0  0  0  0
 44 46  1  0  0  0  0
 45 44  1  6  0  0  0
 46 42  1  6  0  0  0
 46 45  1  0  0  0  0
 46 52  1  0  0  0  0
 48 45  1  0  0  0  0
 48 49  1  1  0  0  0
 49 51  1  1  0  0  0
 49 50  1  0  0  0  0
 52 53  2  0  0  0  0
 52 54  1  0  0  0  0
 55 54  1  0  0  0  0
M  END
>  <MODEL>
3

>  <REMARK>
 VINA RESULT:      19.3      5.626     11.285
  Name = 
  5 active torsions:
  status: ('A' for Active; 'I' for Inactive)
    1  A    between atoms: C_1  and  C_53
    2  A    between atoms: C_11  and  C_29
    3  A    between atoms: C_29  and  C_38
    4  A    between atoms: C_33  and  C_52
    5  A    between atoms: C_42  and  C_53
                            x       y       z     vdW  Elec       q    Type
                         _______ _______ _______ _____ _____    ______ ____

>  <TORSDO>
F 5

$$$$
