=
 OpenBabel11052422103D

 25 29  0  0  1  0  0  0  0  0999 V2000
  161.6980  206.4700  148.1440 C   0  0  0  0  0  0  0  0  0  0  0  0
  161.4920  205.7110  149.2340 C   0  0  0  0  0  0  0  0  0  0  0  0
  162.9790  208.0950  149.5450 C   0  0  0  0  0  2  0  0  0  0  0  0
  160.1080  202.3550  150.0010 N   0  0  0  0  0  2  0  0  0  0  0  0
  162.4360  207.3740  150.7010 N   0  0  0  0  0  0  0  0  0  0  0  0
  161.4180  205.4370  151.7820 C   0  0  1  0  0  3  0  0  0  0  0  0
  160.8610  206.4620  153.1320 Cl  0  0  0  0  0  0  0  0  0  0  0  0
  161.0260  204.3620  149.1250 N   0  0  0  0  0  0  0  0  0  0  0  0
  162.0930  207.9120  148.3090 C   0  0  0  0  0  2  0  0  0  0  0  0
  160.3320  204.4020  151.4660 C   0  0  0  0  0  2  0  0  0  0  0  0
  160.5540  203.7090  150.1480 C   0  0  0  0  0  0  0  0  0  0  0  0
  161.7690  206.2640  150.5750 C   0  0  0  0  0  0  0  0  0  0  0  0
  161.4200  205.9740  146.8250 N   0  0  0  0  0  0  0  0  0  0  0  0
  160.7600  205.1440  144.1760 C   0  0  0  0  0  2  0  0  0  0  0  0
  162.5030  205.4990  145.9450 C   0  0  2  0  0  3  0  0  0  0  0  0
  161.9580  204.5360  144.8920 C   0  0  0  0  0  2  0  0  0  0  0  0
  159.6670  205.4510  145.1880 C   0  0  0  0  0  2  0  0  0  0  0  0
  163.5900  204.7760  146.7280 C   0  0  0  0  0  1  0  0  0  0  0  0
  160.1840  206.4550  146.2100 C   0  0  0  0  0  2  0  0  0  0  0  0
  160.3580  201.6760  146.3010 C   0  0  0  0  0  2  0  0  0  0  0  0
  161.2600  200.4720  148.9330 C   0  0  0  0  0  2  0  0  0  0  0  0
  161.7360  201.5710  146.9230 C   0  0  2  0  0  3  0  0  0  0  0  0
  160.2160  201.5530  148.7840 C   0  0  2  0  0  3  0  0  0  0  0  0
  161.8710  200.2960  147.6250 N   0  0  0  0  0  2  0  0  0  0  0  0
  160.6550  202.3910  147.6050 C   0  0  2  0  0  3  0  0  0  0  0  0
  1  9  1  0  0  0  0
  1  2  2  0  0  0  0
  2 12  1  0  0  0  0
  3  5  1  0  0  0  0
  4 11  1  0  0  0  0
  6  7  1  1  0  0  0
  8  2  1  0  0  0  0
  8 11  2  0  0  0  0
  9  3  1  0  0  0  0
 10  6  1  0  0  0  0
 11 10  1  0  0  0  0
 12  5  2  0  0  0  0
 12  6  1  0  0  0  0
 13  1  1  0  0  0  0
 14 16  1  0  0  0  0
 14 17  1  0  0  0  0
 15 18  1  1  0  0  0
 15 13  1  0  0  0  0
 16 15  1  0  0  0  0
 17 19  1  0  0  0  0
 19 13  1  0  0  0  0
 22 20  1  6  0  0  0
 22 25  1  0  0  0  0
 22 24  1  0  0  0  0
 23 21  1  0  0  0  0
 23  4  1  1  0  0  0
 24 21  1  0  0  0  0
 25 20  1  6  0  0  0
 25 23  1  0  0  0  0
M  END
>  <MODEL>
1

>  <REMARK>
 VINA RESULT:      -6.2      0.000      0.000
  Name = 
  2 active torsions:
  status: ('A' for Active; 'I' for Inactive)
    1  A    between atoms: C_1  and  N_5
    2  A    between atoms: N_6  and  C_15
                            x       y       z     vdW  Elec       q    Type
                         _______ _______ _______ _____ _____    ______ ____

>  <TORSDO>
F 2

$$$$
=
 OpenBabel11052422103D

 25 29  0  0  1  0  0  0  0  0999 V2000
  161.3210  207.7290  152.3960 C   0  0  0  0  0  0  0  0  0  0  0  0
  160.7000  208.5790  153.2310 C   0  0  0  0  0  0  0  0  0  0  0  0
  161.0500  205.9070  154.0860 C   0  0  0  0  0  2  0  0  0  0  0  0
  159.3740  212.0430  153.1120 N   0  0  0  0  0  2  0  0  0  0  0  0
  160.6800  206.9700  155.0250 N   0  0  0  0  0  0  0  0  0  0  0  0
  159.9050  209.2150  155.5850 C   0  0  1  0  0  3  0  0  0  0  0  0
  160.6000  209.0670  157.2210 Cl  0  0  0  0  0  0  0  0  0  0  0  0
  160.2130  209.8460  152.7770 N   0  0  0  0  0  0  0  0  0  0  0  0
  161.9050  206.4530  152.9380 C   0  0  0  0  0  2  0  0  0  0  0  0
  160.1210  210.6480  155.0830 C   0  0  0  0  0  2  0  0  0  0  0  0
  159.8690  210.7910  153.6050 C   0  0  0  0  0  0  0  0  0  0  0  0
  160.4940  208.2000  154.6440 C   0  0  0  0  0  0  0  0  0  0  0  0
  161.5590  208.0720  151.0220 N   0  0  0  0  0  0  0  0  0  0  0  0
  162.1810  208.8560  148.3500 C   0  0  0  0  0  2  0  0  0  0  0  0
  161.5890  207.0370  149.9730 C   0  0  2  0  0  3  0  0  0  0  0  0
  161.2910  207.6480  148.6050 C   0  0  0  0  0  2  0  0  0  0  0  0
  161.9380  209.9000  149.4290 C   0  0  0  0  0  2  0  0  0  0  0  0
  160.5680  205.9390  150.2330 C   0  0  0  0  0  1  0  0  0  0  0  0
  162.2880  209.3180  150.7920 C   0  0  0  0  0  2  0  0  0  0  0  0
  157.4570  213.3830  150.1540 C   0  0  0  0  0  2  0  0  0  0  0  0
  160.3230  212.9660  151.0480 C   0  0  0  0  0  2  0  0  0  0  0  0
  158.5270  214.3800  150.5500 C   0  0  2  0  0  3  0  0  0  0  0  0
  159.1100  212.3570  151.7090 C   0  0  2  0  0  3  0  0  0  0  0  0
  159.8320  213.9270  150.0730 N   0  0  0  0  0  2  0  0  0  0  0  0
  158.0060  213.3800  151.5680 C   0  0  2  0  0  3  0  0  0  0  0  0
  1  9  1  0  0  0  0
  1  2  2  0  0  0  0
  2 12  1  0  0  0  0
  3  5  1  0  0  0  0
  4 11  1  0  0  0  0
  6  7  1  1  0  0  0
  8  2  1  0  0  0  0
  8 11  2  0  0  0  0
  9  3  1  0  0  0  0
 10  6  1  0  0  0  0
 11 10  1  0  0  0  0
 12  5  2  0  0  0  0
 12  6  1  0  0  0  0
 13  1  1  0  0  0  0
 14 16  1  0  0  0  0
 14 17  1  0  0  0  0
 15 18  1  1  0  0  0
 15 13  1  0  0  0  0
 16 15  1  0  0  0  0
 17 19  1  0  0  0  0
 19 13  1  0  0  0  0
 21 23  1  0  0  0  0
 22 20  1  6  0  0  0
 22 25  1  0  0  0  0
 23  4  1  1  0  0  0
 24 22  1  0  0  0  0
 24 21  1  0  0  0  0
 25 20  1  6  0  0  0
 25 23  1  0  0  0  0
M  END
>  <MODEL>
2

>  <REMARK>
 VINA RESULT:      -5.9      4.693      8.079
  Name = 
  2 active torsions:
  status: ('A' for Active; 'I' for Inactive)
    1  A    between atoms: C_1  and  N_5
    2  A    between atoms: N_6  and  C_15
                            x       y       z     vdW  Elec       q    Type
                         _______ _______ _______ _____ _____    ______ ____

>  <TORSDO>
F 2

$$$$
=
 OpenBabel11052422103D

 25 29  0  0  1  0  0  0  0  0999 V2000
  161.5580  207.7260  152.1150 C   0  0  0  0  0  0  0  0  0  0  0  0
  160.8450  208.2410  153.1320 C   0  0  0  0  0  0  0  0  0  0  0  0
  161.4760  205.4860  153.2220 C   0  0  0  0  0  2  0  0  0  0  0  0
  159.1560  211.4460  153.9350 N   0  0  0  0  0  2  0  0  0  0  0  0
  160.9900  206.2000  154.4070 N   0  0  0  0  0  0  0  0  0  0  0  0
  159.9760  208.1090  155.5410 C   0  0  1  0  0  3  0  0  0  0  0  0
  160.6770  207.5800  157.0940 Cl  0  0  0  0  0  0  0  0  0  0  0  0
  160.2270  209.5280  153.0320 N   0  0  0  0  0  0  0  0  0  0  0  0
  162.2720  206.4160  152.3010 C   0  0  0  0  0  2  0  0  0  0  0  0
  160.0400  209.6390  155.4650 C   0  0  0  0  0  2  0  0  0  0  0  0
  159.7810  210.1640  154.0770 C   0  0  0  0  0  0  0  0  0  0  0  0
  160.6750  207.4630  154.3760 C   0  0  0  0  0  0  0  0  0  0  0  0
  161.7640  208.4620  150.9000 N   0  0  0  0  0  0  0  0  0  0  0  0
  162.3140  210.0170  148.5710 C   0  0  0  0  0  2  0  0  0  0  0  0
  161.8570  207.7750  149.5990 C   0  0  2  0  0  3  0  0  0  0  0  0
  161.5100  208.7300  148.4590 C   0  0  0  0  0  2  0  0  0  0  0  0
  162.0080  210.6910  149.9000 C   0  0  0  0  0  2  0  0  0  0  0  0
  160.9130  206.5830  149.5210 C   0  0  0  0  0  1  0  0  0  0  0  0
  162.4050  209.7680  151.0440 C   0  0  0  0  0  2  0  0  0  0  0  0
  157.3110  213.6950  151.5350 C   0  0  0  0  0  2  0  0  0  0  0  0
  160.1220  212.6800  152.0480 C   0  0  0  0  0  2  0  0  0  0  0  0
  158.5470  214.4110  152.0420 C   0  0  2  0  0  3  0  0  0  0  0  0
  158.8660  212.1120  152.6660 C   0  0  2  0  0  3  0  0  0  0  0  0
  159.7340  213.9010  151.3590 N   0  0  0  0  0  2  0  0  0  0  0  0
  157.9330  213.2860  152.8570 C   0  0  2  0  0  3  0  0  0  0  0  0
  1  9  1  0  0  0  0
  1  2  2  0  0  0  0
  2 12  1  0  0  0  0
  3  5  1  0  0  0  0
  4 11  1  0  0  0  0
  6  7  1  1  0  0  0
  8  2  1  0  0  0  0
  8 11  2  0  0  0  0
  9  3  1  0  0  0  0
 10  6  1  0  0  0  0
 11 10  1  0  0  0  0
 12  5  2  0  0  0  0
 12  6  1  0  0  0  0
 13 19  1  0  0  0  0
 13  1  1  0  0  0  0
 14 17  1  0  0  0  0
 15 18  1  1  0  0  0
 15 13  1  0  0  0  0
 16 14  1  0  0  0  0
 16 15  1  0  0  0  0
 17 19  1  0  0  0  0
 21 23  1  0  0  0  0
 22 20  1  6  0  0  0
 22 25  1  0  0  0  0
 23 25  1  0  0  0  0
 23  4  1  1  0  0  0
 24 22  1  0  0  0  0
 24 21  1  0  0  0  0
 25 20  1  6  0  0  0
M  END
>  <MODEL>
3

>  <REMARK>
 VINA RESULT:      -5.8      4.695      8.139
  Name = 
  2 active torsions:
  status: ('A' for Active; 'I' for Inactive)
    1  A    between atoms: C_1  and  N_5
    2  A    between atoms: N_6  and  C_15
                            x       y       z     vdW  Elec       q    Type
                         _______ _______ _______ _____ _____    ______ ____

>  <TORSDO>
F 2

$$$$
=
 OpenBabel11052422103D

 25 29  0  0  1  0  0  0  0  0999 V2000
  160.9230  208.3730  152.9540 C   0  0  0  0  0  0  0  0  0  0  0  0
  161.3470  208.1240  151.7030 C   0  0  0  0  0  0  0  0  0  0  0  0
  161.5250  206.0350  153.6000 C   0  0  0  0  0  2  0  0  0  0  0  0
  161.9550  210.0520  148.5920 N   0  0  0  0  0  2  0  0  0  0  0  0
  161.6590  205.7790  152.1630 N   0  0  0  0  0  0  0  0  0  0  0  0
  161.9590  206.4700  149.8420 C   0  0  1  0  0  3  0  0  0  0  0  0
  161.2800  204.9220  149.2740 Cl  0  0  0  0  0  0  0  0  0  0  0  0
  161.5790  209.1840  150.7700 N   0  0  0  0  0  0  0  0  0  0  0  0
  160.5970  207.2240  153.8680 C   0  0  0  0  0  2  0  0  0  0  0  0
  161.4690  207.5930  148.9200 C   0  0  0  0  0  2  0  0  0  0  0  0
  161.7120  208.9650  149.4940 C   0  0  0  0  0  0  0  0  0  0  0  0
  161.6010  206.7320  151.2790 C   0  0  0  0  0  0  0  0  0  0  0  0
  160.6440  209.7110  153.3960 N   0  0  0  0  0  0  0  0  0  0  0  0
  159.9310  212.3630  154.1700 C   0  0  0  0  0  2  0  0  0  0  0  0
  160.7360  210.0780  154.8210 C   0  0  2  0  0  3  0  0  0  0  0  0
  160.9580  211.5810  154.9770 C   0  0  0  0  0  2  0  0  0  0  0  0
  160.0500  211.9890  152.7010 C   0  0  0  0  0  2  0  0  0  0  0  0
  161.8810  209.3560  155.5170 C   0  0  0  0  0  1  0  0  0  0  0  0
  159.7730  210.5020  152.5280 C   0  0  0  0  0  2  0  0  0  0  0  0
  163.3790  213.5370  148.3710 C   0  0  0  0  0  2  0  0  0  0  0  0
  160.8730  212.1260  149.3280 C   0  0  0  0  0  2  0  0  0  0  0  0
  161.9680  213.5360  147.8180 C   0  0  2  0  0  3  0  0  0  0  0  0
  162.1750  211.4440  148.9810 C   0  0  2  0  0  3  0  0  0  0  0  0
  161.0030  213.5130  148.9140 N   0  0  0  0  0  2  0  0  0  0  0  0
  162.7720  212.2480  147.8490 C   0  0  2  0  0  3  0  0  0  0  0  0
  1 13  1  0  0  0  0
  1  9  1  0  0  0  0
  2  1  2  0  0  0  0
  3  9  1  0  0  0  0
  4 11  1  0  0  0  0
  5  3  1  0  0  0  0
  6  7  1  6  0  0  0
  6 12  1  0  0  0  0
  8  2  1  0  0  0  0
 10 11  1  0  0  0  0
 10  6  1  0  0  0  0
 11  8  2  0  0  0  0
 12  2  1  0  0  0  0
 12  5  2  0  0  0  0
 13 15  1  0  0  0  0
 14 16  1  0  0  0  0
 15 16  1  0  0  0  0
 15 18  1  6  0  0  0
 17 14  1  0  0  0  0
 19 17  1  0  0  0  0
 19 13  1  0  0  0  0
 22 25  1  0  0  0  0
 22 20  1  1  0  0  0
 22 24  1  0  0  0  0
 23  4  1  6  0  0  0
 23 21  1  0  0  0  0
 24 21  1  0  0  0  0
 25 20  1  1  0  0  0
 25 23  1  0  0  0  0
M  END
>  <MODEL>
4

>  <REMARK>
 VINA RESULT:      -5.7      4.281      8.485
  Name = 
  2 active torsions:
  status: ('A' for Active; 'I' for Inactive)
    1  A    between atoms: C_1  and  N_5
    2  A    between atoms: N_6  and  C_15
                            x       y       z     vdW  Elec       q    Type
                         _______ _______ _______ _____ _____    ______ ____

>  <TORSDO>
F 2

$$$$
=
 OpenBabel11052422103D

 25 29  0  0  1  0  0  0  0  0999 V2000
  159.1500  210.7040  155.4680 C   0  0  0  0  0  0  0  0  0  0  0  0
  159.2420  211.1010  154.1870 C   0  0  0  0  0  0  0  0  0  0  0  0
  157.0080  211.9740  155.6840 C   0  0  0  0  0  2  0  0  0  0  0  0
  161.3740  210.3530  151.2430 N   0  0  0  0  0  2  0  0  0  0  0  0
  157.3630  212.5950  154.4050 N   0  0  0  0  0  0  0  0  0  0  0  0
  158.5810  212.6970  152.2920 C   0  0  1  0  0  3  0  0  0  0  0  0
  158.2830  214.4520  152.1840 Cl  0  0  0  0  0  0  0  0  0  0  0  0
  160.1540  210.4770  153.2780 N   0  0  0  0  0  0  0  0  0  0  0  0
  158.2510  211.4530  156.4130 C   0  0  0  0  0  2  0  0  0  0  0  0
  159.9980  212.4030  151.7830 C   0  0  0  0  0  2  0  0  0  0  0  0
  160.4650  211.0150  152.1330 C   0  0  0  0  0  0  0  0  0  0  0  0
  158.3750  212.1910  153.6930 C   0  0  0  0  0  0  0  0  0  0  0  0
  159.9910  209.6640  155.9900 N   0  0  0  0  0  0  0  0  0  0  0  0
  161.5890  207.4800  156.8960 C   0  0  0  0  0  2  0  0  0  0  0  0
  161.4290  209.8920  156.2230 C   0  0  2  0  0  3  0  0  0  0  0  0
  161.9690  208.9090  157.2600 C   0  0  0  0  0  2  0  0  0  0  0  0
  160.0740  207.3600  156.8320 C   0  0  0  0  0  2  0  0  0  0  0  0
  161.7030  211.3040  156.7230 C   0  0  0  0  0  1  0  0  0  0  0  0
  159.5320  208.2950  155.7600 C   0  0  0  0  0  2  0  0  0  0  0  0
  161.6600  206.8790  152.6830 C   0  0  0  0  0  2  0  0  0  0  0  0
  162.3300  208.3840  150.1380 C   0  0  0  0  0  2  0  0  0  0  0  0
  161.0580  206.7980  151.2950 C   0  0  2  0  0  3  0  0  0  0  0  0
  161.9470  209.0250  151.4510 C   0  0  2  0  0  3  0  0  0  0  0  0
  162.1040  206.9550  150.2870 N   0  0  0  0  0  2  0  0  0  0  0  0
  160.9530  208.0850  152.0940 C   0  0  2  0  0  3  0  0  0  0  0  0
  1 13  1  0  0  0  0
  1  9  1  0  0  0  0
  2  1  2  0  0  0  0
  3  9  1  0  0  0  0
  4 11  1  0  0  0  0
  5  3  1  0  0  0  0
  6  7  1  1  0  0  0
  6 12  1  0  0  0  0
  8  2  1  0  0  0  0
 10 11  1  0  0  0  0
 10  6  1  0  0  0  0
 11  8  2  0  0  0  0
 12  2  1  0  0  0  0
 12  5  2  0  0  0  0
 13 15  1  0  0  0  0
 14 16  1  0  0  0  0
 15 18  1  1  0  0  0
 15 16  1  0  0  0  0
 17 14  1  0  0  0  0
 19 13  1  0  0  0  0
 19 17  1  0  0  0  0
 21 24  1  0  0  0  0
 21 23  1  0  0  0  0
 22 25  1  0  0  0  0
 22 20  1  1  0  0  0
 23  4  1  6  0  0  0
 23 25  1  0  0  0  0
 24 22  1  0  0  0  0
 25 20  1  1  0  0  0
M  END
>  <MODEL>
5

>  <REMARK>
 VINA RESULT:      -5.6      5.823      9.199
  Name = 
  2 active torsions:
  status: ('A' for Active; 'I' for Inactive)
    1  A    between atoms: C_1  and  N_5
    2  A    between atoms: N_6  and  C_15
                            x       y       z     vdW  Elec       q    Type
                         _______ _______ _______ _____ _____    ______ ____

>  <TORSDO>
F 2

$$$$
=
 OpenBabel11052422103D

 25 29  0  0  1  0  0  0  0  0999 V2000
  161.4440  205.8170  148.2720 C   0  0  0  0  0  0  0  0  0  0  0  0
  161.4210  204.7050  149.0270 C   0  0  0  0  0  0  0  0  0  0  0  0
  162.1690  207.1320  150.2700 C   0  0  0  0  0  2  0  0  0  0  0  0
  161.0060  201.0560  148.4990 N   0  0  0  0  0  2  0  0  0  0  0  0
  161.8110  205.9470  151.0550 N   0  0  0  0  0  0  0  0  0  0  0  0
  161.3390  203.5670  151.3230 C   0  0  1  0  0  3  0  0  0  0  0  0
  160.4710  203.8930  152.8470 Cl  0  0  0  0  0  0  0  0  0  0  0  0
  161.3550  203.4040  148.4340 N   0  0  0  0  0  0  0  0  0  0  0  0
  161.4130  207.1650  148.9380 C   0  0  0  0  0  2  0  0  0  0  0  0
  160.5970  202.4650  150.5580 C   0  0  0  0  0  2  0  0  0  0  0  0
  161.0500  202.3440  149.1260 C   0  0  0  0  0  0  0  0  0  0  0  0
  161.4860  204.8170  150.4980 C   0  0  0  0  0  0  0  0  0  0  0  0
  161.3610  205.7500  146.8400 N   0  0  0  0  0  0  0  0  0  0  0  0
  161.0810  205.7670  144.0000 C   0  0  0  0  0  2  0  0  0  0  0  0
  162.5740  205.6210  146.0120 C   0  0  2  0  0  3  0  0  0  0  0  0
  162.2350  205.0160  144.6510 C   0  0  0  0  0  2  0  0  0  0  0  0
  159.8580  205.6930  144.9000 C   0  0  0  0  0  2  0  0  0  0  0  0
  163.6200  204.7360  146.6750 C   0  0  0  0  0  1  0  0  0  0  0  0
  160.1690  206.3470  146.2400 C   0  0  0  0  0  2  0  0  0  0  0  0
  161.8130  198.9440  145.4810 C   0  0  0  0  0  2  0  0  0  0  0  0
  160.5960  201.6390  146.1520 C   0  0  0  0  0  2  0  0  0  0  0  0
  160.3850  199.4420  145.3770 C   0  0  2  0  0  3  0  0  0  0  0  0
  161.3770  200.7740  147.1140 C   0  0  2  0  0  3  0  0  0  0  0  0
  160.3730  200.8410  144.9570 N   0  0  0  0  0  2  0  0  0  0  0  0
  161.0590  199.3450  146.7340 C   0  0  2  0  0  3  0  0  0  0  0  0
  1  9  1  0  0  0  0
  1  2  2  0  0  0  0
  2 12  1  0  0  0  0
  3  5  1  0  0  0  0
  4 11  1  0  0  0  0
  6  7  1  1  0  0  0
  8  2  1  0  0  0  0
  8 11  2  0  0  0  0
  9  3  1  0  0  0  0
 10  6  1  0  0  0  0
 11 10  1  0  0  0  0
 12  5  2  0  0  0  0
 12  6  1  0  0  0  0
 13  1  1  0  0  0  0
 14 16  1  0  0  0  0
 14 17  1  0  0  0  0
 15 18  1  1  0  0  0
 15 13  1  0  0  0  0
 16 15  1  0  0  0  0
 17 19  1  0  0  0  0
 19 13  1  0  0  0  0
 21 23  1  0  0  0  0
 22 20  1  6  0  0  0
 22 25  1  0  0  0  0
 23  4  1  1  0  0  0
 24 22  1  0  0  0  0
 24 21  1  0  0  0  0
 25 20  1  6  0  0  0
 25 23  1  0  0  0  0
M  END
>  <MODEL>
6

>  <REMARK>
 VINA RESULT:      -5.5      1.492      1.884
  Name = 
  2 active torsions:
  status: ('A' for Active; 'I' for Inactive)
    1  A    between atoms: C_1  and  N_5
    2  A    between atoms: N_6  and  C_15
                            x       y       z     vdW  Elec       q    Type
                         _______ _______ _______ _____ _____    ______ ____

>  <TORSDO>
F 2

$$$$
=
 OpenBabel11052422103D

 25 29  0  0  1  0  0  0  0  0999 V2000
  161.4960  206.9400  151.7480 C   0  0  0  0  0  0  0  0  0  0  0  0
  161.2990  208.1380  152.3250 C   0  0  0  0  0  0  0  0  0  0  0  0
  160.8310  205.8270  153.8850 C   0  0  0  0  0  2  0  0  0  0  0  0
  161.2060  211.6940  151.2680 N   0  0  0  0  0  2  0  0  0  0  0  0
  160.9520  207.1540  154.4970 N   0  0  0  0  0  0  0  0  0  0  0  0
  161.0460  209.5910  154.4220 C   0  0  1  0  0  3  0  0  0  0  0  0
  161.8400  209.6280  156.0190 Cl  0  0  0  0  0  0  0  0  0  0  0  0
  161.2150  209.3350  151.5440 N   0  0  0  0  0  0  0  0  0  0  0  0
  161.6780  205.7230  152.6130 C   0  0  0  0  0  2  0  0  0  0  0  0
  161.6690  210.6760  153.5350 C   0  0  0  0  0  2  0  0  0  0  0  0
  161.3080  210.5180  152.0810 C   0  0  0  0  0  0  0  0  0  0  0  0
  161.1460  208.2300  153.7910 C   0  0  0  0  0  0  0  0  0  0  0  0
  161.6720  206.8140  150.3290 N   0  0  0  0  0  0  0  0  0  0  0  0
  162.1950  206.6350  147.5290 C   0  0  0  0  0  2  0  0  0  0  0  0
  161.3360  205.5610  149.6270 C   0  0  2  0  0  3  0  0  0  0  0  0
  161.0620  205.8280  148.1490 C   0  0  0  0  0  2  0  0  0  0  0  0
  162.3300  207.9610  148.2610 C   0  0  0  0  0  2  0  0  0  0  0  0
  160.1040  204.8930  150.2230 C   0  0  0  0  0  1  0  0  0  0  0  0
  162.6610  207.7050  149.7250 C   0  0  0  0  0  2  0  0  0  0  0  0
  159.7060  212.9760  148.0550 C   0  0  0  0  0  2  0  0  0  0  0  0
  162.1310  211.4280  149.0120 C   0  0  0  0  0  2  0  0  0  0  0  0
  161.1700  213.3630  148.1130 C   0  0  2  0  0  3  0  0  0  0  0  0
  160.9000  211.7130  149.8390 C   0  0  2  0  0  3  0  0  0  0  0  0
  162.0050  212.2070  147.7910 N   0  0  0  0  0  2  0  0  0  0  0  0
  160.4090  213.0720  149.3950 C   0  0  2  0  0  3  0  0  0  0  0  0
  1  2  2  0  0  0  0
  1  9  1  0  0  0  0
  2 12  1  0  0  0  0
  3  5  1  0  0  0  0
  4 11  1  0  0  0  0
  6  7  1  1  0  0  0
  8 11  2  0  0  0  0
  8  2  1  0  0  0  0
  9  3  1  0  0  0  0
 10  6  1  0  0  0  0
 11 10  1  0  0  0  0
 12  6  1  0  0  0  0
 12  5  2  0  0  0  0
 13  1  1  0  0  0  0
 14 16  1  0  0  0  0
 14 17  1  0  0  0  0
 15 18  1  1  0  0  0
 15 13  1  0  0  0  0
 16 15  1  0  0  0  0
 17 19  1  0  0  0  0
 19 13  1  0  0  0  0
 21 23  1  0  0  0  0
 22 20  1  6  0  0  0
 22 25  1  0  0  0  0
 23  4  1  1  0  0  0
 24 22  1  0  0  0  0
 24 21  1  0  0  0  0
 25 20  1  6  0  0  0
 25 23  1  0  0  0  0
M  END
>  <MODEL>
7

>  <REMARK>
 VINA RESULT:      -5.4      3.530      7.080
  Name = 
  2 active torsions:
  status: ('A' for Active; 'I' for Inactive)
    1  A    between atoms: C_1  and  N_5
    2  A    between atoms: N_6  and  C_15
                            x       y       z     vdW  Elec       q    Type
                         _______ _______ _______ _____ _____    ______ ____

>  <TORSDO>
F 2

$$$$
=
 OpenBabel11052422103D

 25 29  0  0  1  0  0  0  0  0999 V2000
  161.5670  206.9190  150.0710 C   0  0  0  0  0  0  0  0  0  0  0  0
  161.6500  208.1430  150.6220 C   0  0  0  0  0  0  0  0  0  0  0  0
  162.6200  207.8100  147.9860 C   0  0  0  0  0  2  0  0  0  0  0  0
  161.1070  209.6790  153.9550 N   0  0  0  0  0  2  0  0  0  0  0  0
  162.3750  209.1410  148.5510 N   0  0  0  0  0  0  0  0  0  0  0  0
  161.9190  210.6820  150.3870 C   0  0  1  0  0  3  0  0  0  0  0  0
  161.3100  211.9010  149.2360 Cl  0  0  0  0  0  0  0  0  0  0  0  0
  161.4730  208.3400  152.0280 N   0  0  0  0  0  0  0  0  0  0  0  0
  161.6620  206.7710  148.5770 C   0  0  0  0  0  2  0  0  0  0  0  0
  161.0500  210.7160  151.6500 C   0  0  0  0  0  2  0  0  0  0  0  0
  161.2680  209.5200  152.5390 C   0  0  0  0  0  0  0  0  0  0  0  0
  161.9500  209.3110  149.7690 C   0  0  0  0  0  0  0  0  0  0  0  0
  161.2570  205.7630  150.8640 N   0  0  0  0  0  0  0  0  0  0  0  0
  160.5490  203.5810  152.5620 C   0  0  0  0  0  2  0  0  0  0  0  0
  160.6900  204.5480  150.2510 C   0  0  2  0  0  3  0  0  0  0  0  0
  160.9700  203.3250  151.1210 C   0  0  0  0  0  2  0  0  0  0  0  0
  161.3190  204.7730  153.1090 C   0  0  0  0  0  2  0  0  0  0  0  0
  161.2730  204.2880  148.8690 C   0  0  0  0  0  1  0  0  0  0  0  0
  161.0010  206.0110  152.2820 C   0  0  0  0  0  2  0  0  0  0  0  0
  162.0290  208.1170  157.2610 C   0  0  0  0  0  2  0  0  0  0  0  0
  159.9910  207.7850  155.0410 C   0  0  0  0  0  2  0  0  0  0  0  0
  160.5380  208.3890  157.2340 C   0  0  2  0  0  3  0  0  0  0  0  0
  161.2470  208.6180  154.9490 C   0  0  2  0  0  3  0  0  0  0  0  0
  159.8610  207.3740  156.4300 N   0  0  0  0  0  2  0  0  0  0  0  0
  161.4710  209.1810  156.3340 C   0  0  2  0  0  3  0  0  0  0  0  0
  1  2  2  0  0  0  0
  1 13  1  0  0  0  0
  2  8  1  0  0  0  0
  3  5  1  0  0  0  0
  3  9  1  0  0  0  0
  5 12  2  0  0  0  0
  6  7  1  6  0  0  0
  6 10  1  0  0  0  0
  8 11  2  0  0  0  0
  9  1  1  0  0  0  0
 10 11  1  0  0  0  0
 11  4  1  0  0  0  0
 12  6  1  0  0  0  0
 12  2  1  0  0  0  0
 13 19  1  0  0  0  0
 14 17  1  0  0  0  0
 15 18  1  6  0  0  0
 15 13  1  0  0  0  0
 15 16  1  0  0  0  0
 16 14  1  0  0  0  0
 19 17  1  0  0  0  0
 21 24  1  0  0  0  0
 22 20  1  1  0  0  0
 23  4  1  6  0  0  0
 23 21  1  0  0  0  0
 23 25  1  0  0  0  0
 24 22  1  0  0  0  0
 25 22  1  0  0  0  0
 25 20  1  1  0  0  0
M  END
>  <MODEL>
8

>  <REMARK>
 VINA RESULT:      -5.0      3.582      7.226
  Name = 
  2 active torsions:
  status: ('A' for Active; 'I' for Inactive)
    1  A    between atoms: C_1  and  N_5
    2  A    between atoms: N_6  and  C_15
                            x       y       z     vdW  Elec       q    Type
                         _______ _______ _______ _____ _____    ______ ____

>  <TORSDO>
F 2

$$$$
=
 OpenBabel11052422103D

 25 29  0  0  1  0  0  0  0  0999 V2000
  159.1850  212.8990  139.4780 C   0  0  0  0  0  0  0  0  0  0  0  0
  158.6040  211.7570  139.0720 C   0  0  0  0  0  0  0  0  0  0  0  0
  156.9860  213.6670  140.3870 C   0  0  0  0  0  2  0  0  0  0  0  0
  159.6820  208.4980  137.6620 N   0  0  0  0  0  2  0  0  0  0  0  0
  156.4000  212.5520  139.6380 N   0  0  0  0  0  0  0  0  0  0  0  0
  156.5070  210.4080  138.4760 C   0  0  1  0  0  3  0  0  0  0  0  0
  154.9870  210.7770  137.6180 Cl  0  0  0  0  0  0  0  0  0  0  0  0
  159.3850  210.6230  138.6810 N   0  0  0  0  0  0  0  0  0  0  0  0
  158.3280  214.0970  139.7850 C   0  0  0  0  0  2  0  0  0  0  0  0
  157.4550  209.6860  137.5120 C   0  0  0  0  0  2  0  0  0  0  0  0
  158.8690  209.6220  138.0260 C   0  0  0  0  0  0  0  0  0  0  0  0
  157.1310  211.6520  139.0460 C   0  0  0  0  0  0  0  0  0  0  0  0
  160.6130  213.0460  139.4960 N   0  0  0  0  0  0  0  0  0  0  0  0
  163.4310  213.4870  139.4190 C   0  0  0  0  0  2  0  0  0  0  0  0
  161.3650  213.0210  140.7640 C   0  0  2  0  0  3  0  0  0  0  0  0
  162.8210  212.6290  140.5190 C   0  0  0  0  0  2  0  0  0  0  0  0
  162.6390  213.3010  138.1340 C   0  0  0  0  0  2  0  0  0  0  0  0
  160.7700  212.0300  141.7550 C   0  0  0  0  0  1  0  0  0  0  0  0
  161.1980  213.7440  138.3530 C   0  0  0  0  0  2  0  0  0  0  0  0
  162.5930  207.8940  139.9810 C   0  0  0  0  0  2  0  0  0  0  0  0
  161.7680  207.3280  137.1200 C   0  0  0  0  0  2  0  0  0  0  0  0
  162.2220  206.5950  139.2940 C   0  0  2  0  0  3  0  0  0  0  0  0
  161.0780  208.3000  138.0470 C   0  0  2  0  0  3  0  0  0  0  0  0
  162.7300  206.5930  137.9240 N   0  0  0  0  0  2  0  0  0  0  0  0
  161.1930  207.7030  139.4310 C   0  0  2  0  0  3  0  0  0  0  0  0
  1 13  1  0  0  0  0
  1  9  1  0  0  0  0
  2  1  2  0  0  0  0
  4 11  1  0  0  0  0
  5  3  1  0  0  0  0
  6  7  1  6  0  0  0
  6 12  1  0  0  0  0
  8  2  1  0  0  0  0
  9  3  1  0  0  0  0
 10 11  1  0  0  0  0
 10  6  1  0  0  0  0
 11  8  2  0  0  0  0
 12  2  1  0  0  0  0
 12  5  2  0  0  0  0
 13 15  1  0  0  0  0
 14 16  1  0  0  0  0
 15 18  1  1  0  0  0
 16 15  1  0  0  0  0
 17 19  1  0  0  0  0
 17 14  1  0  0  0  0
 19 13  1  0  0  0  0
 21 24  1  0  0  0  0
 21 23  1  0  0  0  0
 22 25  1  0  0  0  0
 22 20  1  1  0  0  0
 23  4  1  6  0  0  0
 23 25  1  0  0  0  0
 24 22  1  0  0  0  0
 25 20  1  1  0  0  0
M  END
>  <MODEL>
9

>  <REMARK>
 VINA RESULT:      -4.6     10.116     12.055
  Name = 
  2 active torsions:
  status: ('A' for Active; 'I' for Inactive)
    1  A    between atoms: C_1  and  N_5
    2  A    between atoms: N_6  and  C_15
                            x       y       z     vdW  Elec       q    Type
                         _______ _______ _______ _____ _____    ______ ____

>  <TORSDO>
F 2

$$$$
