=
 OpenBabel11062409093D

 37 44  0  0  1  0  0  0  0  0999 V2000
  161.5340  210.1110  151.6340 C   0  0  1  0  0  3  0  0  0  0  0  0
  160.8370  207.2190  153.8060 C   0  0  0  0  0  2  0  0  0  0  0  0
  161.1220  211.5130  151.6320 C   0  0  2  0  0  3  0  0  0  0  0  0
  160.7500  209.3390  152.3680 C   0  0  2  0  0  3  0  0  0  0  0  0
  159.6530  211.4040  152.0290 C   0  0  1  0  0  3  0  0  0  0  0  0
  160.8380  207.8580  152.4390 C   0  0  0  0  0  0  0  0  0  0  0  0
  161.3640  211.9290  150.1950 C   0  0  0  0  0  2  0  0  0  0  0  0
  161.5220  208.7840  149.5620 C   0  0  0  0  0  3  0  0  0  0  0  0
  162.4900  211.0130  149.7050 C   0  0  0  0  0  2  0  0  0  0  0  0
  159.8990  207.8690  154.8210 C   0  0  0  0  0  2  0  0  0  0  0  0
  162.3210  209.6930  150.4490 C   0  0  1  0  0  3  0  0  0  0  0  0
  159.6010  210.1290  152.9200 C   0  0  2  0  0  3  0  0  0  0  0  0
  160.9810  207.0830  151.3300 C   0  0  0  0  0  0  0  0  0  0  0  0
  160.3570  209.2660  155.2650 C   0  0  2  0  0  3  0  0  0  0  0  0
  159.7650  210.4170  154.4340 C   0  0  2  0  0  3  0  0  0  0  0  0
  160.9670  207.6350  149.9550 C   0  0  0  0  0  3  0  0  0  0  0  0
  161.2340  204.9600  152.6490 C   0  0  0  0  0  3  0  0  0  0  0  0
  161.0360  205.6030  151.4160 C   0  0  0  0  0  0  0  0  0  0  0  0
  160.9520  204.8300  150.2490 C   0  0  0  0  0  3  0  0  0  0  0  0
  160.9400  202.6600  149.1270 N   0  0  0  0  0  1  0  0  0  0  0  0
  161.2180  202.8040  151.5480 C   0  0  0  0  0  3  0  0  0  0  0  0
  161.0370  203.4360  150.3150 C   0  0  0  0  0  0  0  0  0  0  0  0
  161.3190  203.5660  152.7150 C   0  0  0  0  0  3  0  0  0  0  0  0
  162.1560  210.4890  156.4180 C   0  0  1  0  0  3  0  0  0  0  0  0
  162.2650  210.6900  155.0310 O   0  0  0  0  0  0  0  0  0  0  0  0
  161.8630  209.4100  155.4510 C   0  0  2  0  0  3  0  0  0  0  0  0
  163.5380  210.2890  157.0000 C   0  0  0  0  0  1  0  0  0  0  0  0
  159.0680  212.6860  152.6440 C   0  0  2  0  0  3  0  0  0  0  0  0
  157.6950  212.5320  152.8530 O   0  0  0  0  0  1  0  0  0  0  0  0
  159.3180  213.9310  151.7920 C   0  0  0  0  0  2  0  0  0  0  0  0
  158.1450  214.2370  150.8720 C   0  0  1  0  0  3  0  0  0  0  0  0
  158.6340  214.4530  149.4940 C   0  0  0  0  0  2  0  0  0  0  0  0
  158.0640  213.2310  149.8910 O   0  0  0  0  0  0  0  0  0  0  0  0
  158.4200  210.8000  155.0380 C   0  0  0  0  0  2  0  0  0  0  0  0
  158.6050  211.4300  156.4070 C   0  0  0  0  0  3  0  0  0  0  0  0
  157.2660  211.9370  156.9020 C   0  0  0  0  0  2  0  0  0  0  0  0
  158.2780  212.9080  156.3290 C   0  0  0  0  0  2  0  0  0  0  0  0
  1  4  1  0  0  0  0
  2 10  1  0  0  0  0
  3  1  1  0  0  0  0
  3  5  1  0  0  0  0
  4  6  1  0  0  0  0
  4 12  1  0  0  0  0
  5 28  1  0  0  0  0
  5 12  1  0  0  0  0
  6  2  1  0  0  0  0
  7  3  1  0  0  0  0
  8 16  2  0  0  0  0
  8 11  1  0  0  0  0
  9  7  1  0  0  0  0
  9 11  1  0  0  0  0
 10 14  1  0  0  0  0
 11  1  1  0  0  0  0
 12 15  1  0  0  0  0
 13 18  1  0  0  0  0
 13  6  2  0  0  0  0
 14 26  1  0  0  0  0
 15 34  1  0  0  0  0
 15 14  1  0  0  0  0
 16 13  1  0  0  0  0
 17 23  1  0  0  0  0
 18 17  2  0  0  0  0
 19 22  2  0  0  0  0
 19 18  1  0  0  0  0
 20 22  1  0  0  0  0
 21 23  2  0  0  0  0
 22 21  1  0  0  0  0
 24 27  1  0  0  0  0
 25 26  1  0  0  0  0
 25 24  1  0  0  0  0
 26 24  1  0  0  0  0
 28 29  1  0  0  0  0
 30 28  1  0  0  0  0
 31 30  1  0  0  0  0
 32 33  1  0  0  0  0
 32 31  1  0  0  0  0
 33 31  1  0  0  0  0
 34 35  1  0  0  0  0
 35 36  1  0  0  0  0
 37 35  1  0  0  0  0
 37 36  1  0  0  0  0
M  END
>  <MODEL>
1

>  <REMARK>
 VINA RESULT:      -6.5      0.000      0.000
  Name = 
  7 active torsions:
  status: ('A' for Active; 'I' for Inactive)
    1  A    between atoms: C_1  and  C_5
    2  A    between atoms: C_1  and  C_36
    3  A    between atoms: C_3  and  C_30
    4  A    between atoms: C_6  and  C_31
    5  A    between atoms: C_13  and  C_20
    6  A    between atoms: C_20  and  C_30
    7  A    between atoms: C_26  and  C_33
                            x       y       z     vdW  Elec       q    Type
                         _______ _______ _______ _____ _____    ______ ____

>  <TORSDO>
F 7

$$$$
=
 OpenBabel11062409093D

 37 44  0  0  1  0  0  0  0  0999 V2000
  160.6210  209.3410  152.4790 C   0  0  1  0  0  3  0  0  0  0  0  0
  159.7340  212.7620  151.4440 C   0  0  0  0  0  2  0  0  0  0  0  0
  160.8950  208.6970  153.7630 C   0  0  2  0  0  3  0  0  0  0  0  0
  160.7210  210.6590  152.5260 C   0  0  2  0  0  3  0  0  0  0  0  0
  161.7130  209.7690  154.4760 C   0  0  1  0  0  3  0  0  0  0  0  0
  160.6410  211.5600  151.3480 C   0  0  0  0  0  0  0  0  0  0  0  0
  161.6770  207.4640  153.3570 C   0  0  0  0  0  2  0  0  0  0  0  0
  162.0580  208.9300  150.5250 C   0  0  0  0  0  3  0  0  0  0  0  0
  161.1980  207.1450  151.9380 C   0  0  0  0  0  2  0  0  0  0  0  0
  159.7260  213.4580  152.8040 C   0  0  0  0  0  2  0  0  0  0  0  0
  160.8490  208.4810  151.2920 C   0  0  1  0  0  3  0  0  0  0  0  0
  161.1780  211.1040  153.8820 C   0  0  2  0  0  3  0  0  0  0  0  0
  161.3010  211.3020  150.1870 C   0  0  0  0  0  0  0  0  0  0  0  0
  159.0580  212.6260  153.9090 C   0  0  2  0  0  3  0  0  0  0  0  0
  160.0290  211.7390  154.7050 C   0  0  2  0  0  3  0  0  0  0  0  0
  162.2270  210.1560  150.0250 C   0  0  0  0  0  3  0  0  0  0  0  0
  162.3690  212.9490  148.6200 C   0  0  0  0  0  3  0  0  0  0  0  0
  161.2360  212.2290  149.0310 C   0  0  0  0  0  0  0  0  0  0  0  0
  160.0160  212.4410  148.3710 C   0  0  0  0  0  3  0  0  0  0  0  0
  158.6970  213.5390  146.6340 N   0  0  0  0  0  1  0  0  0  0  0  0
  161.0730  214.0390  146.8900 C   0  0  0  0  0  3  0  0  0  0  0  0
  159.9350  213.3390  147.3020 C   0  0  0  0  0  0  0  0  0  0  0  0
  162.2880  213.8460  147.5500 C   0  0  0  0  0  3  0  0  0  0  0  0
  156.9660  211.5450  154.6290 C   0  0  1  0  0  3  0  0  0  0  0  0
  157.8190  210.5850  154.0560 O   0  0  0  0  0  0  0  0  0  0  0  0
  157.8170  211.8590  153.4620 C   0  0  2  0  0  3  0  0  0  0  0  0
  155.5480  211.2860  154.1690 C   0  0  0  0  0  1  0  0  0  0  0  0
  161.7010  209.6560  156.0100 C   0  0  2  0  0  3  0  0  0  0  0  0
  162.8160  210.3040  156.5460 O   0  0  0  0  0  1  0  0  0  0  0  0
  161.6630  208.2100  156.5070 C   0  0  0  0  0  2  0  0  0  0  0  0
  160.3760  207.8990  157.2570 C   0  0  1  0  0  3  0  0  0  0  0  0
  159.3940  207.2940  156.3310 C   0  0  0  0  0  2  0  0  0  0  0  0
  160.1530  206.5100  157.2160 O   0  0  0  0  0  0  0  0  0  0  0  0
  160.6050  212.5680  155.8460 C   0  0  0  0  0  2  0  0  0  0  0  0
  159.5000  213.0650  156.7620 C   0  0  0  0  0  3  0  0  0  0  0  0
  158.8470  214.2790  156.1350 C   0  0  0  0  0  2  0  0  0  0  0  0
  159.8440  214.4530  157.2610 C   0  0  0  0  0  2  0  0  0  0  0  0
  1  4  1  0  0  0  0
  1  3  1  0  0  0  0
  2 10  1  0  0  0  0
  3  5  1  0  0  0  0
  4 12  1  0  0  0  0
  5 28  1  0  0  0  0
  6  2  1  0  0  0  0
  6  4  1  0  0  0  0
  7  3  1  0  0  0  0
  8 11  1  0  0  0  0
  9  7  1  0  0  0  0
 10 14  1  0  0  0  0
 11  9  1  0  0  0  0
 11  1  1  0  0  0  0
 12  5  1  0  0  0  0
 12 15  1  0  0  0  0
 13  6  2  0  0  0  0
 14 15  1  0  0  0  0
 15 34  1  0  0  0  0
 16 13  1  0  0  0  0
 16  8  2  0  0  0  0
 17 18  1  0  0  0  0
 18 13  1  0  0  0  0
 19 18  2  0  0  0  0
 20 22  1  0  0  0  0
 21 22  2  0  0  0  0
 21 23  1  0  0  0  0
 22 19  1  0  0  0  0
 23 17  2  0  0  0  0
 25 24  1  0  0  0  0
 26 14  1  0  0  0  0
 26 25  1  0  0  0  0
 26 24  1  0  0  0  0
 27 24  1  0  0  0  0
 28 30  1  0  0  0  0
 28 29  1  0  0  0  0
 30 31  1  0  0  0  0
 32 33  1  0  0  0  0
 32 31  1  0  0  0  0
 33 31  1  0  0  0  0
 34 35  1  0  0  0  0
 35 37  1  0  0  0  0
 36 35  1  0  0  0  0
 36 37  1  0  0  0  0
M  END
>  <MODEL>
2

>  <REMARK>
 VINA RESULT:      -4.2      2.759      6.437
  Name = 
  7 active torsions:
  status: ('A' for Active; 'I' for Inactive)
    1  A    between atoms: C_1  and  C_5
    2  A    between atoms: C_1  and  C_36
    3  A    between atoms: C_3  and  C_30
    4  A    between atoms: C_6  and  C_31
    5  A    between atoms: C_13  and  C_20
    6  A    between atoms: C_20  and  C_30
    7  A    between atoms: C_26  and  C_33
                            x       y       z     vdW  Elec       q    Type
                         _______ _______ _______ _____ _____    ______ ____

>  <TORSDO>
F 7

$$$$
