=
 OpenBabel11052421473D

 30 32  0  0  1  0  0  0  0  0999 V2000
  160.8880  208.6630  153.2730 C   0  0  1  0  0  3  0  0  0  0  0  0
  161.3660  210.0120  153.8420 C   0  0  2  0  0  3  0  0  0  0  0  0
  160.0330  211.9990  153.4550 O   0  0  0  0  0  0  0  0  0  0  0  0
  159.0820  210.2080  154.9440 C   0  0  2  0  0  3  0  0  0  0  0  0
  162.0020  210.0290  155.2290 C   0  0  2  0  0  3  0  0  0  0  0  0
  159.4310  209.2590  156.1230 C   0  0  0  0  0  2  0  0  0  0  0  0
  158.9730  214.0070  153.1900 O   0  0  0  0  0  1  0  0  0  0  0  0
  159.1380  212.9150  154.0400 C   0  0  1  0  0  3  0  0  0  0  0  0
  158.1930  211.7530  156.5820 O   0  0  0  0  0  1  0  0  0  0  0  0
  157.7840  212.2560  154.2860 C   0  0  0  0  0  2  0  0  0  0  0  0
  160.3130  210.9660  154.3780 C   0  0  1  0  0  0  0  0  0  0  0  0
  161.2110  208.7410  156.2910 S   0  0  0  0  0  0  0  0  0  0  0  0
  157.9470  211.1650  155.3370 C   0  0  1  0  0  3  0  0  0  0  0  0
  161.2640  211.3320  155.5080 C   0  0  0  0  0  2  0  0  0  0  0  0
  160.5520  208.8050  151.9240 O   0  0  0  0  0  0  0  0  0  0  0  0
  161.7380  209.1900  151.2900 C   0  0  0  0  0  2  0  0  0  0  0  0
  161.7000  208.7880  149.8260 C   0  0  1  0  0  3  0  0  0  0  0  0
  162.0930  210.2200  148.7780 S   0  0  0  0  0  1  0  0  0  0  0  0
  162.6330  207.7760  149.5980 O   0  0  0  0  0  0  0  0  0  0  0  0
  162.3510  207.3140  148.3120 C   0  0  0  0  0  1  0  0  0  0  0  0
  161.9530  207.5780  153.4420 C   0  0  0  0  0  2  0  0  0  0  0  0
  161.2290  205.9080  153.5570 S   0  0  0  0  0  0  0  0  0  0  0  0
  161.8390  205.4270  151.9140 C   0  0  0  0  0  2  0  0  0  0  0  0
  160.7560  204.6970  151.1380 C   0  0  0  0  0  2  0  0  0  0  0  0
  161.0760  203.2150  151.0030 C   0  0  0  0  0  2  0  0  0  0  0  0
  160.4930  202.6900  149.8470 O   0  0  0  0  0  0  0  0  0  0  0  0
  160.8730  201.3460  149.8330 C   0  0  0  0  0  2  0  0  0  0  0  0
  161.1750  200.9090  148.4080 C   0  0  0  0  0  2  0  0  0  0  0  0
  160.6460  201.5630  146.0570 C   0  0  0  0  0  1  0  0  0  0  0  0
  161.0320  202.0690  147.4330 C   0  0  0  0  0  2  0  0  0  0  0  0
  1 21  1  6  0  0  0
  2  1  1  1  0  0  0
  2 11  1  0  0  0  0
  2  5  1  0  0  0  0
  3  8  1  0  0  0  0
  3 11  1  0  0  0  0
  4 13  1  0  0  0  0
  4  6  1  1  0  0  0
  5 14  1  1  0  0  0
  5 12  1  0  0  0  0
  6 12  1  0  0  0  0
  8  7  1  6  0  0  0
  8 10  1  0  0  0  0
 10 13  1  0  0  0  0
 11  4  1  0  0  0  0
 11 14  1  1  0  0  0
 13  9  1  1  0  0  0
 15  1  1  0  0  0  0
 16 15  1  0  0  0  0
 17 18  1  6  0  0  0
 17 16  1  0  0  0  0
 19 17  1  0  0  0  0
 20 19  1  0  0  0  0
 21 22  1  0  0  0  0
 23 22  1  0  0  0  0
 24 23  1  0  0  0  0
 25 24  1  0  0  0  0
 26 25  1  0  0  0  0
 27 26  1  0  0  0  0
 28 27  1  0  0  0  0
 29 30  1  0  0  0  0
 30 28  1  0  0  0  0
M  END
>  <MODEL>
1

>  <REMARK>
 VINA RESULT:      -5.4      0.000      0.000
  Name = 
  14 active torsions:
  status: ('A' for Active; 'I' for Inactive)
    1  A    between atoms: C_1  and  C_4
    2  A    between atoms: C_4  and  O_10
    3  A    between atoms: C_4  and  C_23
    4  A    between atoms: C_7  and  O_15
    5  A    between atoms: C_7  and  C_25
    6  A    between atoms: C_8  and  O_12
    7  A    between atoms: C_8  and  C_13
    8  A    between atoms: C_9  and  O_12
    9  A    between atoms: C_9  and  C_21
   10  A    between atoms: O_10  and  C_25
   11  A    between atoms: C_13  and  C_30
   12  A    between atoms: C_17  and  C_21
   13  A    between atoms: C_23  and  S_27
   14  A    between atoms: S_27  and  C_30
                            x       y       z     vdW  Elec       q    Type
                         _______ _______ _______ _____ _____    ______ ____

>  <TORSDO>
F 14

$$$$
=
 OpenBabel11052421473D

 30 32  0  0  1  0  0  0  0  0999 V2000
  161.4870  211.1900  149.0810 C   0  0  1  0  0  3  0  0  0  0  0  0
  162.0590  212.5420  148.6140 C   0  0  2  0  0  3  0  0  0  0  0  0
  162.7760  212.7940  146.3120 O   0  0  0  0  0  0  0  0  0  0  0  0
  160.3180  212.4920  146.7600 C   0  0  2  0  0  3  0  0  0  0  0  0
  161.4160  213.8220  149.1410 C   0  0  2  0  0  3  0  0  0  0  0  0
  159.1550  212.9710  147.6710 C   0  0  0  0  0  2  0  0  0  0  0  0
  163.5490  213.2600  144.2120 O   0  0  0  0  0  1  0  0  0  0  0  0
  162.4460  213.3460  145.0590 C   0  0  1  0  0  3  0  0  0  0  0  0
  159.6100  214.1530  145.1490 O   0  0  0  0  0  1  0  0  0  0  0  0
  161.2720  212.5950  144.4380 C   0  0  0  0  0  2  0  0  0  0  0  0
  161.7090  213.0130  147.2130 C   0  0  1  0  0  0  0  0  0  0  0  0
  159.6050  213.5540  149.3810 S   0  0  0  0  0  0  0  0  0  0  0  0
  160.0300  212.8260  145.2900 C   0  0  1  0  0  3  0  0  0  0  0  0
  161.5830  214.4290  147.7540 C   0  0  0  0  0  2  0  0  0  0  0  0
  162.3620  210.1560  148.7340 O   0  0  0  0  0  0  0  0  0  0  0  0
  161.5480  209.1520  148.2010 C   0  0  0  0  0  2  0  0  0  0  0  0
  162.0160  207.7900  148.6840 C   0  0  1  0  0  3  0  0  0  0  0  0
  160.6010  206.6590  148.8180 S   0  0  0  0  0  1  0  0  0  0  0  0
  162.9420  207.2710  147.7790 O   0  0  0  0  0  0  0  0  0  0  0  0
  162.2610  206.2490  147.1180 C   0  0  0  0  0  1  0  0  0  0  0  0
  161.2310  211.1840  150.5890 C   0  0  0  0  0  2  0  0  0  0  0  0
  162.3630  210.0670  151.4800 S   0  0  0  0  0  0  0  0  0  0  0  0
  161.0250  208.9290  151.9470 C   0  0  0  0  0  2  0  0  0  0  0  0
  161.5680  207.7910  152.7960 C   0  0  0  0  0  2  0  0  0  0  0  0
  161.0000  206.4510  152.3520 C   0  0  0  0  0  2  0  0  0  0  0  0
  161.3610  205.4430  153.2490 O   0  0  0  0  0  0  0  0  0  0  0  0
  160.8640  204.2660  152.6850 C   0  0  0  0  0  2  0  0  0  0  0  0
  161.5560  203.9950  151.3590 C   0  0  0  0  0  2  0  0  0  0  0  0
  160.7860  202.9450  149.2290 C   0  0  0  0  0  1  0  0  0  0  0  0
  161.0280  202.7250  150.7100 C   0  0  0  0  0  2  0  0  0  0  0  0
  1 21  1  1  0  0  0
  2  1  1  1  0  0  0
  2  5  1  0  0  0  0
  3 11  1  0  0  0  0
  4 11  1  0  0  0  0
  4  6  1  1  0  0  0
  5 14  1  6  0  0  0
  5 12  1  0  0  0  0
  6 12  1  0  0  0  0
  8  7  1  6  0  0  0
  8  3  1  0  0  0  0
 10  8  1  0  0  0  0
 10 13  1  0  0  0  0
 11 14  1  1  0  0  0
 11  2  1  0  0  0  0
 13  9  1  1  0  0  0
 13  4  1  0  0  0  0
 15  1  1  0  0  0  0
 16 17  1  0  0  0  0
 16 15  1  0  0  0  0
 17 18  1  6  0  0  0
 19 17  1  0  0  0  0
 20 19  1  0  0  0  0
 21 22  1  0  0  0  0
 22 23  1  0  0  0  0
 23 24  1  0  0  0  0
 25 24  1  0  0  0  0
 25 26  1  0  0  0  0
 27 26  1  0  0  0  0
 28 27  1  0  0  0  0
 29 30  1  0  0  0  0
 30 28  1  0  0  0  0
M  END
>  <MODEL>
2

>  <REMARK>
 VINA RESULT:      -4.6      4.225      6.553
  Name = 
  14 active torsions:
  status: ('A' for Active; 'I' for Inactive)
    1  A    between atoms: C_1  and  C_4
    2  A    between atoms: C_4  and  O_10
    3  A    between atoms: C_4  and  C_23
    4  A    between atoms: C_7  and  O_15
    5  A    between atoms: C_7  and  C_25
    6  A    between atoms: C_8  and  O_12
    7  A    between atoms: C_8  and  C_13
    8  A    between atoms: C_9  and  O_12
    9  A    between atoms: C_9  and  C_21
   10  A    between atoms: O_10  and  C_25
   11  A    between atoms: C_13  and  C_30
   12  A    between atoms: C_17  and  C_21
   13  A    between atoms: C_23  and  S_27
   14  A    between atoms: S_27  and  C_30
                            x       y       z     vdW  Elec       q    Type
                         _______ _______ _______ _____ _____    ______ ____

>  <TORSDO>
F 14

$$$$
=
 OpenBabel11052421473D

 30 32  0  0  1  0  0  0  0  0999 V2000
  159.9180  211.2400  154.1150 C   0  0  1  0  0  3  0  0  0  0  0  0
  158.4590  211.4290  153.6580 C   0  0  2  0  0  3  0  0  0  0  0  0
  156.6610  210.9990  155.2260 O   0  0  0  0  0  0  0  0  0  0  0  0
  158.1660  212.9670  155.6620 C   0  0  2  0  0  3  0  0  0  0  0  0
  158.1330  212.6070  152.7450 C   0  0  2  0  0  3  0  0  0  0  0  0
  158.8420  214.1880  154.9810 C   0  0  0  0  0  2  0  0  0  0  0  0
  154.8040  210.6200  156.5050 O   0  0  0  0  0  1  0  0  0  0  0  0
  155.6940  211.5950  156.0580 C   0  0  1  0  0  3  0  0  0  0  0  0
  156.3740  214.4530  156.3240 O   0  0  0  0  0  1  0  0  0  0  0  0
  156.3610  212.2580  157.2600 C   0  0  0  0  0  2  0  0  0  0  0  0
  157.4730  212.0070  154.6590 C   0  0  1  0  0  0  0  0  0  0  0  0
  159.2220  214.0380  153.1650 S   0  0  0  0  0  0  0  0  0  0  0  0
  157.2100  213.4260  156.7730 C   0  0  1  0  0  3  0  0  0  0  0  0
  156.8400  212.8040  153.5280 C   0  0  0  0  0  2  0  0  0  0  0  0
  159.9750  210.3100  155.1580 O   0  0  0  0  0  0  0  0  0  0  0  0
  160.8530  210.8640  156.0940 C   0  0  0  0  0  2  0  0  0  0  0  0
  161.3100  209.7980  157.0750 C   0  0  1  0  0  3  0  0  0  0  0  0
  160.4370  208.2390  156.7480 S   0  0  0  0  0  1  0  0  0  0  0  0
  162.6840  209.5990  156.9360 O   0  0  0  0  0  0  0  0  0  0  0  0
  163.1470  210.7440  156.2870 C   0  0  0  0  0  1  0  0  0  0  0  0
  160.8110  210.7930  152.9580 C   0  0  0  0  0  2  0  0  0  0  0  0
  160.9200  208.9780  152.8270 S   0  0  0  0  0  0  0  0  0  0  0  0
  161.7630  209.0490  151.2180 C   0  0  0  0  0  2  0  0  0  0  0  0
  161.3760  207.8550  150.3630 C   0  0  0  0  0  2  0  0  0  0  0  0
  162.1570  207.8340  149.0560 C   0  0  0  0  0  2  0  0  0  0  0  0
  161.3070  207.5670  147.9800 O   0  0  0  0  0  0  0  0  0  0  0  0
  160.7510  206.3170  148.2640 C   0  0  0  0  0  2  0  0  0  0  0  0
  161.3520  205.2640  147.3460 C   0  0  0  0  0  2  0  0  0  0  0  0
  160.6950  205.7150  144.9800 C   0  0  0  0  0  1  0  0  0  0  0  0
  161.7870  205.8700  146.0210 C   0  0  0  0  0  2  0  0  0  0  0  0
  1 21  1  6  0  0  0
  1 15  1  0  0  0  0
  2  1  1  1  0  0  0
  2 11  1  0  0  0  0
  3  8  1  0  0  0  0
  4  6  1  6  0  0  0
  4 13  1  0  0  0  0
  5 12  1  0  0  0  0
  5 14  1  1  0  0  0
  5  2  1  0  0  0  0
  8  7  1  1  0  0  0
  8 10  1  0  0  0  0
 11 14  1  6  0  0  0
 11  3  1  0  0  0  0
 11  4  1  0  0  0  0
 12  6  1  0  0  0  0
 13  9  1  6  0  0  0
 13 10  1  0  0  0  0
 15 16  1  0  0  0  0
 16 17  1  0  0  0  0
 17 18  1  6  0  0  0
 19 17  1  0  0  0  0
 20 19  1  0  0  0  0
 22 21  1  0  0  0  0
 23 22  1  0  0  0  0
 24 23  1  0  0  0  0
 25 24  1  0  0  0  0
 26 27  1  0  0  0  0
 26 25  1  0  0  0  0
 28 27  1  0  0  0  0
 29 30  1  0  0  0  0
 30 28  1  0  0  0  0
M  END
>  <MODEL>
3

>  <REMARK>
 VINA RESULT:      -4.5      2.820      4.969
  Name = 
  14 active torsions:
  status: ('A' for Active; 'I' for Inactive)
    1  A    between atoms: C_1  and  C_4
    2  A    between atoms: C_4  and  O_10
    3  A    between atoms: C_4  and  C_23
    4  A    between atoms: C_7  and  O_15
    5  A    between atoms: C_7  and  C_25
    6  A    between atoms: C_8  and  O_12
    7  A    between atoms: C_8  and  C_13
    8  A    between atoms: C_9  and  O_12
    9  A    between atoms: C_9  and  C_21
   10  A    between atoms: O_10  and  C_25
   11  A    between atoms: C_13  and  C_30
   12  A    between atoms: C_17  and  C_21
   13  A    between atoms: C_23  and  S_27
   14  A    between atoms: S_27  and  C_30
                            x       y       z     vdW  Elec       q    Type
                         _______ _______ _______ _____ _____    ______ ____

>  <TORSDO>
F 14

$$$$
=
 OpenBabel11052421473D

 30 32  0  0  1  0  0  0  0  0999 V2000
  160.1030  211.2650  154.5450 C   0  0  1  0  0  3  0  0  0  0  0  0
  158.6840  211.2700  153.9490 C   0  0  2  0  0  3  0  0  0  0  0  0
  156.7910  210.8050  155.3910 O   0  0  0  0  0  0  0  0  0  0  0  0
  158.0660  212.9420  155.7640 C   0  0  2  0  0  3  0  0  0  0  0  0
  158.3410  212.3270  152.9020 C   0  0  2  0  0  3  0  0  0  0  0  0
  158.6920  214.1590  155.0280 C   0  0  0  0  0  2  0  0  0  0  0  0
  154.8630  210.3600  156.5360 O   0  0  0  0  0  1  0  0  0  0  0  0
  155.7010  211.3750  156.0760 C   0  0  1  0  0  3  0  0  0  0  0  0
  156.0950  214.2980  156.1230 O   0  0  0  0  0  1  0  0  0  0  0  0
  156.1890  212.2030  157.2610 C   0  0  0  0  0  2  0  0  0  0  0  0
  157.5600  211.8350  154.8010 C   0  0  1  0  0  0  0  0  0  0  0  0
  159.2540  213.8880  153.2740 S   0  0  0  0  0  0  0  0  0  0  0  0
  156.9730  213.4010  156.7390 C   0  0  1  0  0  3  0  0  0  0  0  0
  156.9680  212.4640  153.5480 C   0  0  0  0  0  2  0  0  0  0  0  0
  160.1480  210.4310  155.6660 O   0  0  0  0  0  0  0  0  0  0  0  0
  161.4830  210.0320  155.7720 C   0  0  0  0  0  2  0  0  0  0  0  0
  161.5610  208.5880  156.2370 C   0  0  1  0  0  3  0  0  0  0  0  0
  160.1140  208.1870  157.2610 S   0  0  0  0  0  1  0  0  0  0  0  0
  161.5930  207.7440  155.1270 O   0  0  0  0  0  0  0  0  0  0  0  0
  160.4350  206.9730  155.2310 C   0  0  0  0  0  1  0  0  0  0  0  0
  161.1410  210.8210  153.5130 C   0  0  0  0  0  2  0  0  0  0  0  0
  160.4880  209.5550  152.3750 S   0  0  0  0  0  0  0  0  0  0  0  0
  162.1060  209.2880  151.5920 C   0  0  0  0  0  2  0  0  0  0  0  0
  161.9570  209.1960  150.0830 C   0  0  0  0  0  2  0  0  0  0  0  0
  162.1920  207.7760  149.5890 C   0  0  0  0  0  2  0  0  0  0  0  0
  161.0780  206.9750  149.8460 O   0  0  0  0  0  0  0  0  0  0  0  0
  161.6040  205.7650  150.3040 C   0  0  0  0  0  2  0  0  0  0  0  0
  161.1850  205.5320  151.7470 C   0  0  0  0  0  2  0  0  0  0  0  0
  160.7670  203.2940  150.7230 C   0  0  0  0  0  1  0  0  0  0  0  0
  160.9530  204.0540  152.0220 C   0  0  0  0  0  2  0  0  0  0  0  0
  1 21  1  6  0  0  0
  1 15  1  0  0  0  0
  2  1  1  1  0  0  0
  2 11  1  0  0  0  0
  3  8  1  0  0  0  0
  4  6  1  6  0  0  0
  4 13  1  0  0  0  0
  5 12  1  0  0  0  0
  5 14  1  1  0  0  0
  5  2  1  0  0  0  0
  8  7  1  1  0  0  0
  8 10  1  0  0  0  0
 11 14  1  6  0  0  0
 11  3  1  0  0  0  0
 11  4  1  0  0  0  0
 12  6  1  0  0  0  0
 13  9  1  6  0  0  0
 13 10  1  0  0  0  0
 15 16  1  0  0  0  0
 16 17  1  0  0  0  0
 17 18  1  1  0  0  0
 19 20  1  0  0  0  0
 19 17  1  0  0  0  0
 22 21  1  0  0  0  0
 23 22  1  0  0  0  0
 24 23  1  0  0  0  0
 25 26  1  0  0  0  0
 25 24  1  0  0  0  0
 26 27  1  0  0  0  0
 27 28  1  0  0  0  0
 28 30  1  0  0  0  0
 29 30  1  0  0  0  0
M  END
>  <MODEL>
4

>  <REMARK>
 VINA RESULT:      -4.5      2.409      4.851
  Name = 
  14 active torsions:
  status: ('A' for Active; 'I' for Inactive)
    1  A    between atoms: C_1  and  C_4
    2  A    between atoms: C_4  and  O_10
    3  A    between atoms: C_4  and  C_23
    4  A    between atoms: C_7  and  O_15
    5  A    between atoms: C_7  and  C_25
    6  A    between atoms: C_8  and  O_12
    7  A    between atoms: C_8  and  C_13
    8  A    between atoms: C_9  and  O_12
    9  A    between atoms: C_9  and  C_21
   10  A    between atoms: O_10  and  C_25
   11  A    between atoms: C_13  and  C_30
   12  A    between atoms: C_17  and  C_21
   13  A    between atoms: C_23  and  S_27
   14  A    between atoms: S_27  and  C_30
                            x       y       z     vdW  Elec       q    Type
                         _______ _______ _______ _____ _____    ______ ____

>  <TORSDO>
F 14

$$$$
=
 OpenBabel11052421473D

 30 32  0  0  1  0  0  0  0  0999 V2000
  160.5840  209.8000  153.3560 C   0  0  1  0  0  3  0  0  0  0  0  0
  160.6520  211.2370  153.9050 C   0  0  2  0  0  3  0  0  0  0  0  0
  158.8650  212.7900  153.3850 O   0  0  0  0  0  0  0  0  0  0  0  0
  158.3370  210.8360  154.8800 C   0  0  2  0  0  3  0  0  0  0  0  0
  161.1790  211.4470  155.3220 C   0  0  2  0  0  3  0  0  0  0  0  0
  158.8560  210.0350  156.1050 C   0  0  0  0  0  2  0  0  0  0  0  0
  157.3270  214.4380  153.0000 O   0  0  0  0  0  1  0  0  0  0  0  0
  157.7260  213.4440  153.8930 C   0  0  1  0  0  3  0  0  0  0  0  0
  156.9760  212.1160  156.4180 O   0  0  0  0  0  1  0  0  0  0  0  0
  156.5840  212.4520  154.0890 C   0  0  0  0  0  2  0  0  0  0  0  0
  159.3540  211.8850  154.3540 C   0  0  1  0  0  0  0  0  0  0  0  0
  160.6970  210.0140  156.3820 S   0  0  0  0  0  0  0  0  0  0  0  0
  156.9680  211.4620  155.1810 C   0  0  1  0  0  3  0  0  0  0  0  0
  160.1060  212.5110  155.5200 C   0  0  0  0  0  2  0  0  0  0  0  0
  160.7160  209.8130  151.9640 O   0  0  0  0  0  0  0  0  0  0  0  0
  162.0810  210.0020  151.7270 C   0  0  0  0  0  2  0  0  0  0  0  0
  162.3420  210.1010  150.2340 C   0  0  1  0  0  3  0  0  0  0  0  0
  161.8640  208.5500  149.4160 S   0  0  0  0  0  1  0  0  0  0  0  0
  161.6000  211.1550  149.7020 O   0  0  0  0  0  0  0  0  0  0  0  0
  161.9540  211.1950  148.3530 C   0  0  0  0  0  1  0  0  0  0  0  0
  161.6610  208.9120  153.9810 C   0  0  0  0  0  2  0  0  0  0  0  0
  161.0460  207.2370  154.3570 S   0  0  0  0  0  0  0  0  0  0  0  0
  161.8800  206.5050  152.9180 C   0  0  0  0  0  2  0  0  0  0  0  0
  160.8670  205.8530  151.9920 C   0  0  0  0  0  2  0  0  0  0  0  0
  160.7720  204.3550  152.2430 C   0  0  0  0  0  2  0  0  0  0  0  0
  160.2970  203.6950  151.1070 O   0  0  0  0  0  0  0  0  0  0  0  0
  161.4250  203.5080  150.3040 C   0  0  0  0  0  2  0  0  0  0  0  0
  161.0710  203.7640  148.8480 C   0  0  0  0  0  2  0  0  0  0  0  0
  160.9480  201.2700  148.8410 C   0  0  0  0  0  1  0  0  0  0  0  0
  161.2380  202.5060  148.0100 C   0  0  0  0  0  2  0  0  0  0  0  0
  1 21  1  1  0  0  0
  2  1  1  1  0  0  0
  2 11  1  0  0  0  0
  2  5  1  0  0  0  0
  3  8  1  0  0  0  0
  3 11  1  0  0  0  0
  4 13  1  0  0  0  0
  4  6  1  1  0  0  0
  5 14  1  1  0  0  0
  5 12  1  0  0  0  0
  6 12  1  0  0  0  0
  8  7  1  6  0  0  0
  8 10  1  0  0  0  0
 10 13  1  0  0  0  0
 11  4  1  0  0  0  0
 11 14  1  1  0  0  0
 13  9  1  1  0  0  0
 15  1  1  0  0  0  0
 16 15  1  0  0  0  0
 17 18  1  6  0  0  0
 17 16  1  0  0  0  0
 19 17  1  0  0  0  0
 20 19  1  0  0  0  0
 21 22  1  0  0  0  0
 23 22  1  0  0  0  0
 24 25  1  0  0  0  0
 24 23  1  0  0  0  0
 26 25  1  0  0  0  0
 27 26  1  0  0  0  0
 28 27  1  0  0  0  0
 30 29  1  0  0  0  0
 30 28  1  0  0  0  0
M  END
>  <MODEL>
5

>  <REMARK>
 VINA RESULT:      -4.4      1.478      1.803
  Name = 
  14 active torsions:
  status: ('A' for Active; 'I' for Inactive)
    1  A    between atoms: C_1  and  C_4
    2  A    between atoms: C_4  and  O_10
    3  A    between atoms: C_4  and  C_23
    4  A    between atoms: C_7  and  O_15
    5  A    between atoms: C_7  and  C_25
    6  A    between atoms: C_8  and  O_12
    7  A    between atoms: C_8  and  C_13
    8  A    between atoms: C_9  and  O_12
    9  A    between atoms: C_9  and  C_21
   10  A    between atoms: O_10  and  C_25
   11  A    between atoms: C_13  and  C_30
   12  A    between atoms: C_17  and  C_21
   13  A    between atoms: C_23  and  S_27
   14  A    between atoms: S_27  and  C_30
                            x       y       z     vdW  Elec       q    Type
                         _______ _______ _______ _____ _____    ______ ____

>  <TORSDO>
F 14

$$$$
=
 OpenBabel11052421473D

 30 32  0  0  1  0  0  0  0  0999 V2000
  161.4640  211.2200  149.1250 C   0  0  1  0  0  3  0  0  0  0  0  0
  162.0540  212.5550  148.6350 C   0  0  2  0  0  3  0  0  0  0  0  0
  162.7390  212.7690  146.3190 O   0  0  0  0  0  0  0  0  0  0  0  0
  160.2830  212.5210  146.8100 C   0  0  2  0  0  3  0  0  0  0  0  0
  161.4450  213.8520  149.1590 C   0  0  2  0  0  3  0  0  0  0  0  0
  159.1440  213.0310  147.7330 C   0  0  0  0  0  2  0  0  0  0  0  0
  163.4880  213.1990  144.2020 O   0  0  0  0  0  1  0  0  0  0  0  0
  162.4000  213.3150  145.0660 C   0  0  1  0  0  3  0  0  0  0  0  0
  159.5820  214.1790  145.1930 O   0  0  0  0  0  1  0  0  0  0  0  0
  161.2010  212.5820  144.4720 C   0  0  0  0  0  2  0  0  0  0  0  0
  161.6910  213.0190  147.2350 C   0  0  1  0  0  0  0  0  0  0  0  0
  159.6330  213.6230  149.4300 S   0  0  0  0  0  0  0  0  0  0  0  0
  159.9780  212.8450  145.3410 C   0  0  1  0  0  3  0  0  0  0  0  0
  161.6020  214.4430  147.7630 C   0  0  0  0  0  2  0  0  0  0  0  0
  161.7150  210.2140  148.1870 O   0  0  0  0  0  0  0  0  0  0  0  0
  162.1960  209.1320  148.9310 C   0  0  0  0  0  2  0  0  0  0  0  0
  161.3600  207.8950  148.6520 C   0  0  1  0  0  3  0  0  0  0  0  0
  162.2760  206.7580  147.5710 S   0  0  0  0  0  1  0  0  0  0  0  0
  161.0640  207.2540  149.8560 O   0  0  0  0  0  0  0  0  0  0  0  0
  160.5320  206.0200  149.4810 C   0  0  0  0  0  1  0  0  0  0  0  0
  162.0310  210.8260  150.4900 C   0  0  0  0  0  2  0  0  0  0  0  0
  160.7590  210.8340  151.7970 S   0  0  0  0  0  0  0  0  0  0  0  0
  161.9020  210.1690  153.0440 C   0  0  0  0  0  2  0  0  0  0  0  0
  161.5940  210.7540  154.4120 C   0  0  0  0  0  2  0  0  0  0  0  0
  161.4640  209.6620  155.4640 C   0  0  0  0  0  2  0  0  0  0  0  0
  160.1340  209.5250  155.8680 O   0  0  0  0  0  0  0  0  0  0  0  0
  159.9120  208.1470  155.9090 C   0  0  0  0  0  2  0  0  0  0  0  0
  161.0830  207.4150  155.2740 C   0  0  0  0  0  2  0  0  0  0  0  0
  161.7340  206.1400  153.2280 C   0  0  0  0  0  1  0  0  0  0  0  0
  160.6120  206.4440  154.2020 C   0  0  0  0  0  2  0  0  0  0  0  0
  1 21  1  1  0  0  0
  2  1  1  1  0  0  0
  2  5  1  0  0  0  0
  3 11  1  0  0  0  0
  4 11  1  0  0  0  0
  4  6  1  1  0  0  0
  5 14  1  6  0  0  0
  5 12  1  0  0  0  0
  6 12  1  0  0  0  0
  8  7  1  6  0  0  0
  8  3  1  0  0  0  0
 10  8  1  0  0  0  0
 10 13  1  0  0  0  0
 11 14  1  1  0  0  0
 11  2  1  0  0  0  0
 13  9  1  1  0  0  0
 13  4  1  0  0  0  0
 15 16  1  0  0  0  0
 15  1  1  0  0  0  0
 17 18  1  6  0  0  0
 17 16  1  0  0  0  0
 17 19  1  0  0  0  0
 20 19  1  0  0  0  0
 21 22  1  0  0  0  0
 22 23  1  0  0  0  0
 23 24  1  0  0  0  0
 24 25  1  0  0  0  0
 25 26  1  0  0  0  0
 26 27  1  0  0  0  0
 28 27  1  0  0  0  0
 29 30  1  0  0  0  0
 30 28  1  0  0  0  0
M  END
>  <MODEL>
6

>  <REMARK>
 VINA RESULT:      -4.4      4.231      7.519
  Name = 
  14 active torsions:
  status: ('A' for Active; 'I' for Inactive)
    1  A    between atoms: C_1  and  C_4
    2  A    between atoms: C_4  and  O_10
    3  A    between atoms: C_4  and  C_23
    4  A    between atoms: C_7  and  O_15
    5  A    between atoms: C_7  and  C_25
    6  A    between atoms: C_8  and  O_12
    7  A    between atoms: C_8  and  C_13
    8  A    between atoms: C_9  and  O_12
    9  A    between atoms: C_9  and  C_21
   10  A    between atoms: O_10  and  C_25
   11  A    between atoms: C_13  and  C_30
   12  A    between atoms: C_17  and  C_21
   13  A    between atoms: C_23  and  S_27
   14  A    between atoms: S_27  and  C_30
                            x       y       z     vdW  Elec       q    Type
                         _______ _______ _______ _____ _____    ______ ____

>  <TORSDO>
F 14

$$$$
=
 OpenBabel11052421473D

 30 32  0  0  1  0  0  0  0  0999 V2000
  160.1510  210.8230  153.0970 C   0  0  1  0  0  3  0  0  0  0  0  0
  160.0580  212.0160  154.0670 C   0  0  2  0  0  3  0  0  0  0  0  0
  157.9430  213.1770  154.3160 O   0  0  0  0  0  0  0  0  0  0  0  0
  158.1010  210.8110  155.1570 C   0  0  2  0  0  3  0  0  0  0  0  0
  160.8080  211.9330  155.3930 C   0  0  2  0  0  3  0  0  0  0  0  0
  158.9950  209.8420  155.9780 C   0  0  0  0  0  2  0  0  0  0  0  0
  156.0800  214.4470  154.6900 O   0  0  0  0  0  1  0  0  0  0  0  0
  156.8280  213.3660  155.1540 C   0  0  1  0  0  3  0  0  0  0  0  0
  156.8600  211.2330  157.1910 O   0  0  0  0  0  1  0  0  0  0  0  0
  155.9540  212.1160  155.1690 C   0  0  0  0  0  2  0  0  0  0  0  0
  158.7770  212.1780  154.8690 C   0  0  1  0  0  0  0  0  0  0  0  0
  160.8250  210.1850  155.9880 S   0  0  0  0  0  0  0  0  0  0  0  0
  156.7270  210.9770  155.8230 C   0  0  1  0  0  3  0  0  0  0  0  0
  159.6170  212.6060  156.0630 C   0  0  0  0  0  2  0  0  0  0  0  0
  159.7610  211.2180  151.8140 O   0  0  0  0  0  0  0  0  0  0  0  0
  160.3550  212.4690  151.6200 C   0  0  0  0  0  2  0  0  0  0  0  0
  159.4140  213.3790  150.8500 C   0  0  1  0  0  3  0  0  0  0  0  0
  159.8660  213.3940  149.0900 S   0  0  0  0  0  1  0  0  0  0  0  0
  158.1050  212.9180  150.9900 O   0  0  0  0  0  0  0  0  0  0  0  0
  157.4440  213.3680  149.8460 C   0  0  0  0  0  1  0  0  0  0  0  0
  161.5640  210.2400  153.0660 C   0  0  0  0  0  2  0  0  0  0  0  0
  161.6670  208.7280  152.0500 S   0  0  0  0  0  0  0  0  0  0  0  0
  160.8970  207.6990  153.3350 C   0  0  0  0  0  2  0  0  0  0  0  0
  161.3160  206.2470  153.1730 C   0  0  0  0  0  2  0  0  0  0  0  0
  162.0800  206.0330  151.8740 C   0  0  0  0  0  2  0  0  0  0  0  0
  162.0130  204.6940  151.4810 O   0  0  0  0  0  0  0  0  0  0  0  0
  160.7730  204.5670  150.8510 C   0  0  0  0  0  2  0  0  0  0  0  0
  160.8440  205.1450  149.4470 C   0  0  0  0  0  2  0  0  0  0  0  0
  160.8090  202.8290  148.5150 C   0  0  0  0  0  1  0  0  0  0  0  0
  161.5090  204.1740  148.4830 C   0  0  0  0  0  2  0  0  0  0  0  0
  1 21  1  6  0  0  0
  2  1  1  1  0  0  0
  2 11  1  0  0  0  0
  2  5  1  0  0  0  0
  3 11  1  0  0  0  0
  3  8  1  0  0  0  0
  4 13  1  0  0  0  0
  4  6  1  1  0  0  0
  5 12  1  0  0  0  0
  5 14  1  1  0  0  0
  6 12  1  0  0  0  0
  8  7  1  6  0  0  0
  8 10  1  0  0  0  0
 10 13  1  0  0  0  0
 11  4  1  0  0  0  0
 11 14  1  1  0  0  0
 13  9  1  1  0  0  0
 15  1  1  0  0  0  0
 16 15  1  0  0  0  0
 17 18  1  6  0  0  0
 17 19  1  0  0  0  0
 17 16  1  0  0  0  0
 20 19  1  0  0  0  0
 22 21  1  0  0  0  0
 22 23  1  0  0  0  0
 24 23  1  0  0  0  0
 25 24  1  0  0  0  0
 26 25  1  0  0  0  0
 27 26  1  0  0  0  0
 28 27  1  0  0  0  0
 30 29  1  0  0  0  0
 30 28  1  0  0  0  0
M  END
>  <MODEL>
7

>  <REMARK>
 VINA RESULT:      -4.3      2.128      3.319
  Name = 
  14 active torsions:
  status: ('A' for Active; 'I' for Inactive)
    1  A    between atoms: C_1  and  C_4
    2  A    between atoms: C_4  and  O_10
    3  A    between atoms: C_4  and  C_23
    4  A    between atoms: C_7  and  O_15
    5  A    between atoms: C_7  and  C_25
    6  A    between atoms: C_8  and  O_12
    7  A    between atoms: C_8  and  C_13
    8  A    between atoms: C_9  and  O_12
    9  A    between atoms: C_9  and  C_21
   10  A    between atoms: O_10  and  C_25
   11  A    between atoms: C_13  and  C_30
   12  A    between atoms: C_17  and  C_21
   13  A    between atoms: C_23  and  S_27
   14  A    between atoms: S_27  and  C_30
                            x       y       z     vdW  Elec       q    Type
                         _______ _______ _______ _____ _____    ______ ____

>  <TORSDO>
F 14

$$$$
=
 OpenBabel11052421473D

 30 32  0  0  1  0  0  0  0  0999 V2000
  161.1320  210.0250  152.9410 C   0  0  1  0  0  3  0  0  0  0  0  0
  161.4680  210.9520  154.1240 C   0  0  2  0  0  3  0  0  0  0  0  0
  159.9120  212.7090  154.7320 O   0  0  0  0  0  0  0  0  0  0  0  0
  159.2030  210.3220  155.0940 C   0  0  2  0  0  3  0  0  0  0  0  0
  162.1300  210.3420  155.3560 C   0  0  2  0  0  3  0  0  0  0  0  0
  159.6830  208.9550  155.6530 C   0  0  0  0  0  2  0  0  0  0  0  0
  158.6280  214.4520  155.4670 O   0  0  0  0  0  1  0  0  0  0  0  0
  158.9350  213.1060  155.6640 C   0  0  1  0  0  3  0  0  0  0  0  0
  158.1850  210.7350  157.2500 O   0  0  0  0  0  1  0  0  0  0  0  0
  157.6690  212.2710  155.4990 C   0  0  0  0  0  2  0  0  0  0  0  0
  160.3280  211.3900  155.0260 C   0  0  1  0  0  0  0  0  0  0  0  0
  161.5140  208.6190  155.6050 S   0  0  0  0  0  0  0  0  0  0  0  0
  157.9770  210.8250  155.8700 C   0  0  1  0  0  3  0  0  0  0  0  0
  161.2580  211.2430  156.2210 C   0  0  0  0  0  2  0  0  0  0  0  0
  160.2760  210.6800  152.0490 O   0  0  0  0  0  0  0  0  0  0  0  0
  160.9850  211.8070  151.6230 C   0  0  0  0  0  2  0  0  0  0  0  0
  160.1460  212.6110  150.6450 C   0  0  1  0  0  3  0  0  0  0  0  0
  159.0320  213.7250  151.5510 S   0  0  0  0  0  1  0  0  0  0  0  0
  160.9860  213.3610  149.8220 O   0  0  0  0  0  0  0  0  0  0  0  0
  161.1770  212.5690  148.6890 C   0  0  0  0  0  1  0  0  0  0  0  0
  162.3970  209.5620  152.2170 C   0  0  0  0  0  2  0  0  0  0  0  0
  162.0830  208.1520  151.1040 S   0  0  0  0  0  0  0  0  0  0  0  0
  160.9420  207.3600  152.2770 C   0  0  0  0  0  2  0  0  0  0  0  0
  161.3860  205.9370  152.5700 C   0  0  0  0  0  2  0  0  0  0  0  0
  161.5470  205.1320  151.2890 C   0  0  0  0  0  2  0  0  0  0  0  0
  160.5880  204.1190  151.2200 O   0  0  0  0  0  0  0  0  0  0  0  0
  161.2750  202.9520  151.5630 C   0  0  0  0  0  2  0  0  0  0  0  0
  160.8750  201.8230  150.6270 C   0  0  0  0  0  2  0  0  0  0  0  0
  161.2060  202.7680  148.3400 C   0  0  0  0  0  1  0  0  0  0  0  0
  160.1840  202.3570  149.3820 C   0  0  0  0  0  2  0  0  0  0  0  0
  1 21  1  6  0  0  0
  2  1  1  6  0  0  0
  2 11  1  0  0  0  0
  2  5  1  0  0  0  0
  3 11  1  0  0  0  0
  3  8  1  0  0  0  0
  4  6  1  1  0  0  0
  4 13  1  0  0  0  0
  5 12  1  0  0  0  0
  5 14  1  1  0  0  0
  8  7  1  6  0  0  0
 10  8  1  0  0  0  0
 10 13  1  0  0  0  0
 11  4  1  0  0  0  0
 11 14  1  1  0  0  0
 12  6  1  0  0  0  0
 13  9  1  1  0  0  0
 15  1  1  0  0  0  0
 16 15  1  0  0  0  0
 17 18  1  1  0  0  0
 17 16  1  0  0  0  0
 19 17  1  0  0  0  0
 20 19  1  0  0  0  0
 22 21  1  0  0  0  0
 22 23  1  0  0  0  0
 23 24  1  0  0  0  0
 25 24  1  0  0  0  0
 26 25  1  0  0  0  0
 26 27  1  0  0  0  0
 28 27  1  0  0  0  0
 29 30  1  0  0  0  0
 30 28  1  0  0  0  0
M  END
>  <MODEL>
8

>  <REMARK>
 VINA RESULT:      -4.2      2.047      2.565
  Name = 
  14 active torsions:
  status: ('A' for Active; 'I' for Inactive)
    1  A    between atoms: C_1  and  C_4
    2  A    between atoms: C_4  and  O_10
    3  A    between atoms: C_4  and  C_23
    4  A    between atoms: C_7  and  O_15
    5  A    between atoms: C_7  and  C_25
    6  A    between atoms: C_8  and  O_12
    7  A    between atoms: C_8  and  C_13
    8  A    between atoms: C_9  and  O_12
    9  A    between atoms: C_9  and  C_21
   10  A    between atoms: O_10  and  C_25
   11  A    between atoms: C_13  and  C_30
   12  A    between atoms: C_17  and  C_21
   13  A    between atoms: C_23  and  S_27
   14  A    between atoms: S_27  and  C_30
                            x       y       z     vdW  Elec       q    Type
                         _______ _______ _______ _____ _____    ______ ____

>  <TORSDO>
F 14

$$$$
=
 OpenBabel11052421473D

 30 32  0  0  1  0  0  0  0  0999 V2000
  160.6320  208.1850  152.2660 C   0  0  1  0  0  3  0  0  0  0  0  0
  161.9070  207.3580  152.0210 C   0  0  2  0  0  3  0  0  0  0  0  0
  161.7690  204.9370  152.0270 O   0  0  0  0  0  0  0  0  0  0  0  0
  160.6320  206.1830  150.1590 C   0  0  2  0  0  3  0  0  0  0  0  0
  162.9060  207.8560  150.9800 C   0  0  2  0  0  3  0  0  0  0  0  0
  160.8310  207.3300  149.1310 C   0  0  0  0  0  2  0  0  0  0  0  0
  161.8960  202.6550  152.0240 O   0  0  0  0  0  1  0  0  0  0  0  0
  161.7610  203.7840  151.2190 C   0  0  1  0  0  3  0  0  0  0  0  0
  161.3320  204.6430  148.4290 O   0  0  0  0  0  1  0  0  0  0  0  0
  160.4560  203.6920  150.4340 C   0  0  0  0  0  2  0  0  0  0  0  0
  161.7790  206.0850  151.2020 C   0  0  1  0  0  0  0  0  0  0  0  0
  162.0030  208.6970  149.6060 S   0  0  0  0  0  0  0  0  0  0  0  0
  160.3900  204.8470  149.4420 C   0  0  1  0  0  3  0  0  0  0  0  0
  163.1110  206.4120  150.5430 C   0  0  0  0  0  2  0  0  0  0  0  0
  160.0830  207.8600  153.5100 O   0  0  0  0  0  0  0  0  0  0  0  0
  161.1740  207.7720  154.3800 C   0  0  0  0  0  2  0  0  0  0  0  0
  160.7070  207.9160  155.8180 C   0  0  1  0  0  3  0  0  0  0  0  0
  161.9560  208.8080  156.7900 S   0  0  0  0  0  1  0  0  0  0  0  0
  159.5040  208.6230  155.8470 O   0  0  0  0  0  0  0  0  0  0  0  0
  159.8210  209.8420  156.4460 C   0  0  0  0  0  1  0  0  0  0  0  0
  160.9170  209.6860  152.1890 C   0  0  0  0  0  2  0  0  0  0  0  0
  159.5060  210.6890  152.7610 S   0  0  0  0  0  0  0  0  0  0  0  0
  160.1470  212.2030  151.9860 C   0  0  0  0  0  2  0  0  0  0  0  0
  159.0020  213.1020  151.5500 C   0  0  0  0  0  2  0  0  0  0  0  0
  159.2930  213.7590  150.2090 C   0  0  0  0  0  2  0  0  0  0  0  0
  160.5850  214.2900  150.1920 O   0  0  0  0  0  0  0  0  0  0  0  0
  160.9550  214.2900  148.8450 C   0  0  0  0  0  2  0  0  0  0  0  0
  160.3090  213.1140  148.1300 C   0  0  0  0  0  2  0  0  0  0  0  0
  162.7460  212.5980  147.9710 C   0  0  0  0  0  1  0  0  0  0  0  0
  161.3560  212.2020  147.5110 C   0  0  0  0  0  2  0  0  0  0  0  0
  1 21  1  1  0  0  0
  1 15  1  0  0  0  0
  2  1  1  6  0  0  0
  4  6  1  6  0  0  0
  4 11  1  0  0  0  0
  5 14  1  6  0  0  0
  5  2  1  0  0  0  0
  6 12  1  0  0  0  0
  8  7  1  1  0  0  0
  8  3  1  0  0  0  0
 10  8  1  0  0  0  0
 11 14  1  6  0  0  0
 11  2  1  0  0  0  0
 11  3  1  0  0  0  0
 12  5  1  0  0  0  0
 13  9  1  6  0  0  0
 13  4  1  0  0  0  0
 13 10  1  0  0  0  0
 15 16  1  0  0  0  0
 16 17  1  0  0  0  0
 17 19  1  0  0  0  0
 17 18  1  1  0  0  0
 19 20  1  0  0  0  0
 21 22  1  0  0  0  0
 23 22  1  0  0  0  0
 24 23  1  0  0  0  0
 25 24  1  0  0  0  0
 26 25  1  0  0  0  0
 27 26  1  0  0  0  0
 28 27  1  0  0  0  0
 30 29  1  0  0  0  0
 30 28  1  0  0  0  0
M  END
>  <MODEL>
9

>  <REMARK>
 VINA RESULT:      -4.1      2.734      8.296
  Name = 
  14 active torsions:
  status: ('A' for Active; 'I' for Inactive)
    1  A    between atoms: C_1  and  C_4
    2  A    between atoms: C_4  and  O_10
    3  A    between atoms: C_4  and  C_23
    4  A    between atoms: C_7  and  O_15
    5  A    between atoms: C_7  and  C_25
    6  A    between atoms: C_8  and  O_12
    7  A    between atoms: C_8  and  C_13
    8  A    between atoms: C_9  and  O_12
    9  A    between atoms: C_9  and  C_21
   10  A    between atoms: O_10  and  C_25
   11  A    between atoms: C_13  and  C_30
   12  A    between atoms: C_17  and  C_21
   13  A    between atoms: C_23  and  S_27
   14  A    between atoms: S_27  and  C_30
                            x       y       z     vdW  Elec       q    Type
                         _______ _______ _______ _____ _____    ______ ____

>  <TORSDO>
F 14

$$$$
