=
 OpenBabel11062410273D

 43 48  0  0  1  0  0  0  0  0999 V2000
  160.9930  201.6480  146.8030 C   0  0  0  0  0  0  0  0  0  0  0  0
  160.9730  205.0130  150.6020 C   0  0  1  0  0  3  0  0  0  0  0  0
  160.5750  206.4490  148.6010 C   0  0  0  0  0  2  0  0  0  0  0  0
  161.1000  202.7440  148.9610 C   0  0  0  0  0  0  0  0  0  0  0  0
  161.0970  202.8870  146.1640 C   0  0  0  0  0  3  0  0  0  0  0  0
  160.8910  200.4870  146.0510 O   0  0  0  0  0  1  0  0  0  0  0  0
  161.1640  204.0010  148.3210 C   0  0  0  0  0  0  0  0  0  0  0  0
  160.9940  201.5780  148.1980 C   0  0  0  0  0  3  0  0  0  0  0  0
  161.1910  204.0580  146.9200 C   0  0  0  0  0  3  0  0  0  0  0  0
  160.7800  207.6640  149.4130 N   0  0  0  0  0  0  0  0  0  0  0  0
  161.3560  205.2510  149.1420 C   0  0  2  0  0  3  0  0  0  0  0  0
  161.6730  203.8260  151.0870 N   0  0  0  0  0  2  0  0  0  0  0  0
  161.3330  206.2550  151.4150 C   0  0  1  0  0  3  0  0  0  0  0  0
  160.5680  207.4590  150.8550 C   0  0  0  0  0  2  0  0  0  0  0  0
  161.0580  202.6540  150.4630 C   0  0  0  0  0  2  0  0  0  0  0  0
  162.0250  208.3990  149.1290 C   0  0  1  0  0  3  0  0  0  0  0  0
  163.1490  207.5220  148.5900 C   0  0  0  0  0  1  0  0  0  0  0  0
  161.7720  209.5570  148.1730 C   0  0  0  0  0  2  0  0  0  0  0  0
  163.2070  211.7890  148.5570 O   0  0  0  0  0  0  0  0  0  0  0  0
  161.9320  211.1320  149.0070 S   0  0  0  0  0  0  0  0  0  0  0  0
  162.0040  210.9090  150.4940 O   0  0  0  0  0  0  0  0  0  0  0  0
  160.5870  212.1840  148.6240 N   0  0  0  0  0  0  0  0  0  0  0  0
  159.3520  213.9560  149.7510 C   0  0  0  0  0  2  0  0  0  0  0  0
  160.7260  213.4350  149.3640 C   0  0  0  0  0  3  0  0  0  0  0  0
  160.2050  213.2500  150.7780 C   0  0  0  0  0  2  0  0  0  0  0  0
  160.4750  212.4840  147.1820 C   0  0  1  0  0  3  0  0  0  0  0  0
  159.0530  212.4130  146.6360 C   0  0  0  0  0  1  0  0  0  0  0  0
  161.1290  213.8150  146.8290 C   0  0  0  0  0  2  0  0  0  0  0  0
  161.5910  213.8220  145.4110 C   0  0  0  0  0  0  0  0  0  0  0  0
  161.1630  214.2480  143.0650 C   0  0  0  0  0  3  0  0  0  0  0  0
  163.2980  213.3380  143.7600 C   0  0  0  0  0  3  0  0  0  0  0  0
  162.4440  213.7850  142.7470 C   0  0  0  0  0  3  0  0  0  0  0  0
  162.8720  213.3550  145.0920 C   0  0  0  0  0  3  0  0  0  0  0  0
  160.7360  214.2650  144.3960 C   0  0  0  0  0  3  0  0  0  0  0  0
  160.9540  206.0950  152.8830 C   0  0  0  0  0  2  0  0  0  0  0  0
  161.5970  209.7520  153.6590 C   0  0  0  0  0  3  0  0  0  0  0  0
  161.1500  209.8330  154.9820 C   0  0  0  0  0  0  0  0  0  0  0  0
  160.5650  207.4830  154.9280 C   0  0  0  0  0  3  0  0  0  0  0  0
  161.5360  208.5340  152.9740 C   0  0  0  0  0  3  0  0  0  0  0  0
  161.0260  207.3960  153.6100 C   0  0  0  0  0  0  0  0  0  0  0  0
  160.6250  208.6990  155.6130 C   0  0  0  0  0  3  0  0  0  0  0  0
  160.1930  212.0330  155.1630 N   0  0  0  0  0  1  0  0  0  0  0  0
  161.1950  211.1330  155.7050 C   0  0  0  0  0  2  0  0  0  0  0  0
  1  8  1  0  0  0  0
  2 12  1  1  0  0  0
  2 13  1  0  0  0  0
  3 10  1  0  0  0  0
  4 15  1  0  0  0  0
  5  1  2  0  0  0  0
  5  9  1  0  0  0  0
  6  1  1  0  0  0  0
  7  4  1  0  0  0  0
  7 11  1  0  0  0  0
  8  4  2  0  0  0  0
  9  7  2  0  0  0  0
 10 14  1  0  0  0  0
 11  3  1  6  0  0  0
 11  2  1  0  0  0  0
 13 35  1  1  0  0  0
 14 13  1  0  0  0  0
 15 12  1  0  0  0  0
 16 17  1  6  0  0  0
 16 10  1  0  0  0  0
 18 20  1  0  0  0  0
 18 16  1  0  0  0  0
 19 20  2  0  0  0  0
 20 21  2  0  0  0  0
 22 20  1  0  0  0  0
 22 24  1  0  0  0  0
 23 25  1  0  0  0  0
 24 23  1  0  0  0  0
 24 25  1  0  0  0  0
 26 27  1  1  0  0  0
 26 22  1  0  0  0  0
 28 26  1  0  0  0  0
 29 28  1  0  0  0  0
 30 34  1  0  0  0  0
 31 33  2  0  0  0  0
 32 30  2  0  0  0  0
 32 31  1  0  0  0  0
 33 29  1  0  0  0  0
 34 29  2  0  0  0  0
 35 40  1  0  0  0  0
 36 37  1  0  0  0  0
 37 41  2  0  0  0  0
 37 43  1  0  0  0  0
 38 41  1  0  0  0  0
 39 40  1  0  0  0  0
 39 36  2  0  0  0  0
 40 38  2  0  0  0  0
 42 43  1  0  0  0  0
M  END
>  <MODEL>
1

>  <REMARK>
 VINA RESULT:      -7.9      0.000      0.000
  Name = 
  11 active torsions:
  status: ('A' for Active; 'I' for Inactive)
    1  A    between atoms: C_1  and  C_34
    2  A    between atoms: C_1  and  C_35
    3  A    between atoms: C_2  and  C_6
    4  A    between atoms: C_2  and  N_27
    5  A    between atoms: N_4  and  S_12
    6  A    between atoms: N_4  and  C_15
    7  A    between atoms: N_4  and  C_22
    8  A    between atoms: C_6  and  S_12
    9  A    between atoms: C_11  and  C_14
   10  A    between atoms: C_14  and  C_22
   11  A    between atoms: C_19  and  C_37
                            x       y       z     vdW  Elec       q    Type
                         _______ _______ _______ _____ _____    ______ ____

>  <TORSDO>
F 11

$$$$
=
 OpenBabel11062410273D

 43 48  0  0  1  0  0  0  0  0999 V2000
  159.0400  213.2390  143.5720 C   0  0  0  0  0  0  0  0  0  0  0  0
  159.4870  213.5930  148.6150 C   0  0  1  0  0  3  0  0  0  0  0  0
  161.5680  212.3780  147.9670 C   0  0  0  0  0  2  0  0  0  0  0  0
  158.6960  213.6900  145.9270 C   0  0  0  0  0  0  0  0  0  0  0  0
  160.0640  212.3430  143.8880 C   0  0  0  0  0  3  0  0  0  0  0  0
  158.6970  213.4600  142.2450 O   0  0  0  0  0  1  0  0  0  0  0  0
  159.7580  212.8170  146.2500 C   0  0  0  0  0  0  0  0  0  0  0  0
  158.3580  213.9110  144.5890 C   0  0  0  0  0  3  0  0  0  0  0  0
  160.4160  212.1260  145.2230 C   0  0  0  0  0  3  0  0  0  0  0  0
  161.8540  212.0820  149.3840 N   0  0  0  0  0  0  0  0  0  0  0  0
  160.0700  212.5200  147.6950 C   0  0  2  0  0  3  0  0  0  0  0  0
  158.0710  213.7670  148.2980 N   0  0  0  0  0  2  0  0  0  0  0  0
  159.6960  213.1640  150.0660 C   0  0  1  0  0  3  0  0  0  0  0  0
  161.1960  212.9980  150.3280 C   0  0  0  0  0  2  0  0  0  0  0  0
  157.9790  214.4530  147.0080 C   0  0  0  0  0  2  0  0  0  0  0  0
  161.6920  210.6680  149.7690 C   0  0  1  0  0  3  0  0  0  0  0  0
  161.9270  209.6880  148.6270 C   0  0  0  0  0  1  0  0  0  0  0  0
  162.5900  210.3140  150.9460 C   0  0  0  0  0  2  0  0  0  0  0  0
  160.1790  209.9820  152.0680 O   0  0  0  0  0  0  0  0  0  0  0  0
  161.6340  209.7150  152.3340 S   0  0  0  0  0  0  0  0  0  0  0  0
  162.0390  210.4530  153.5810 O   0  0  0  0  0  0  0  0  0  0  0  0
  161.8630  207.9940  152.5560 N   0  0  0  0  0  0  0  0  0  0  0  0
  161.0990  206.3470  154.1800 C   0  0  0  0  0  2  0  0  0  0  0  0
  160.6800  207.4290  153.2000 C   0  0  0  0  0  3  0  0  0  0  0  0
  160.7240  207.7190  154.6900 C   0  0  0  0  0  2  0  0  0  0  0  0
  162.1190  207.2730  151.2930 C   0  0  1  0  0  3  0  0  0  0  0  0
  162.9860  206.0280  151.4470 C   0  0  0  0  0  1  0  0  0  0  0  0
  160.8250  206.9470  150.5560 C   0  0  0  0  0  2  0  0  0  0  0  0
  160.9760  205.7120  149.7340 C   0  0  0  0  0  0  0  0  0  0  0  0
  160.8660  203.3010  149.5270 C   0  0  0  0  0  3  0  0  0  0  0  0
  161.5920  204.6450  147.6470 C   0  0  0  0  0  3  0  0  0  0  0  0
  161.3110  203.3940  148.2050 C   0  0  0  0  0  3  0  0  0  0  0  0
  161.4260  205.8040  148.4120 C   0  0  0  0  0  3  0  0  0  0  0  0
  160.6990  204.4590  150.2920 C   0  0  0  0  0  3  0  0  0  0  0  0
  159.1560  214.2050  151.0410 C   0  0  0  0  0  2  0  0  0  0  0  0
  158.3980  212.2220  154.1850 C   0  0  0  0  0  3  0  0  0  0  0  0
  157.0100  212.3740  154.2760 C   0  0  0  0  0  0  0  0  0  0  0  0
  157.0280  213.7290  152.2670 C   0  0  0  0  0  3  0  0  0  0  0  0
  159.0990  212.8150  153.1300 C   0  0  0  0  0  3  0  0  0  0  0  0
  158.4140  213.5650  152.1650 C   0  0  0  0  0  0  0  0  0  0  0  0
  156.3270  213.1360  153.3210 C   0  0  0  0  0  3  0  0  0  0  0  0
  156.8730  212.1550  156.6680 N   0  0  0  0  0  1  0  0  0  0  0  0
  156.2660  211.7600  155.4090 C   0  0  0  0  0  2  0  0  0  0  0  0
  1  5  2  0  0  0  0
  1  8  1  0  0  0  0
  2 12  1  6  0  0  0
  2 13  1  0  0  0  0
  3 10  1  0  0  0  0
  4  7  1  0  0  0  0
  4 15  1  0  0  0  0
  5  9  1  0  0  0  0
  6  1  1  0  0  0  0
  7 11  1  0  0  0  0
  8  4  2  0  0  0  0
  9  7  2  0  0  0  0
 10 16  1  0  0  0  0
 10 14  1  0  0  0  0
 11  3  1  6  0  0  0
 11  2  1  0  0  0  0
 13 14  1  0  0  0  0
 13 35  1  1  0  0  0
 15 12  1  0  0  0  0
 16 17  1  6  0  0  0
 16 18  1  0  0  0  0
 18 20  1  0  0  0  0
 19 20  2  0  0  0  0
 20 22  1  0  0  0  0
 20 21  2  0  0  0  0
 22 24  1  0  0  0  0
 23 25  1  0  0  0  0
 24 23  1  0  0  0  0
 24 25  1  0  0  0  0
 26 27  1  1  0  0  0
 26 22  1  0  0  0  0
 28 26  1  0  0  0  0
 29 34  1  0  0  0  0
 29 28  1  0  0  0  0
 30 34  2  0  0  0  0
 31 32  2  0  0  0  0
 31 33  1  0  0  0  0
 32 30  1  0  0  0  0
 33 29  2  0  0  0  0
 35 40  1  0  0  0  0
 36 37  1  0  0  0  0
 37 43  1  0  0  0  0
 38 41  1  0  0  0  0
 39 36  2  0  0  0  0
 40 38  2  0  0  0  0
 40 39  1  0  0  0  0
 41 37  2  0  0  0  0
 43 42  1  0  0  0  0
M  END
>  <MODEL>
2

>  <REMARK>
 VINA RESULT:      -7.9      2.746      8.242
  Name = 
  11 active torsions:
  status: ('A' for Active; 'I' for Inactive)
    1  A    between atoms: C_1  and  C_34
    2  A    between atoms: C_1  and  C_35
    3  A    between atoms: C_2  and  C_6
    4  A    between atoms: C_2  and  N_27
    5  A    between atoms: N_4  and  S_12
    6  A    between atoms: N_4  and  C_15
    7  A    between atoms: N_4  and  C_22
    8  A    between atoms: C_6  and  S_12
    9  A    between atoms: C_11  and  C_14
   10  A    between atoms: C_14  and  C_22
   11  A    between atoms: C_19  and  C_37
                            x       y       z     vdW  Elec       q    Type
                         _______ _______ _______ _____ _____    ______ ____

>  <TORSDO>
F 11

$$$$
=
 OpenBabel11062410273D

 43 48  0  0  1  0  0  0  0  0999 V2000
  160.8940  201.6360  146.8580 C   0  0  0  0  0  0  0  0  0  0  0  0
  161.0300  204.6930  150.9060 C   0  0  1  0  0  3  0  0  0  0  0  0
  160.5670  206.2830  149.0390 C   0  0  0  0  0  2  0  0  0  0  0  0
  161.0860  202.5590  149.0890 C   0  0  0  0  0  0  0  0  0  0  0  0
  160.9800  202.9210  146.3140 C   0  0  0  0  0  3  0  0  0  0  0  0
  160.7590  200.5370  146.0210 O   0  0  0  0  0  1  0  0  0  0  0  0
  161.1330  203.8630  148.5470 C   0  0  0  0  0  0  0  0  0  0  0  0
  160.9450  201.4570  148.2420 C   0  0  0  0  0  3  0  0  0  0  0  0
  161.1080  204.0290  147.1550 C   0  0  0  0  0  3  0  0  0  0  0  0
  160.8070  207.4290  149.9350 N   0  0  0  0  0  0  0  0  0  0  0  0
  161.3610  205.0440  149.4560 C   0  0  2  0  0  3  0  0  0  0  0  0
  161.7420  203.4700  151.2700 N   0  0  0  0  0  2  0  0  0  0  0  0
  161.4260  205.8680  151.7990 C   0  0  1  0  0  3  0  0  0  0  0  0
  160.6470  207.1130  151.3630 C   0  0  0  0  0  2  0  0  0  0  0  0
  161.0980  202.3520  150.5800 C   0  0  0  0  0  2  0  0  0  0  0  0
  162.0450  208.1820  149.6640 C   0  0  1  0  0  3  0  0  0  0  0  0
  163.0400  207.4340  148.7850 C   0  0  0  0  0  1  0  0  0  0  0  0
  161.7370  209.5410  149.0510 C   0  0  0  0  0  2  0  0  0  0  0  0
  163.1090  210.7420  151.0160 O   0  0  0  0  0  0  0  0  0  0  0  0
  161.8000  210.8360  150.2830 S   0  0  0  0  0  0  0  0  0  0  0  0
  160.6810  210.6470  151.2700 O   0  0  0  0  0  0  0  0  0  0  0  0
  161.6800  212.4160  149.5380 N   0  0  0  0  0  0  0  0  0  0  0  0
  162.5280  213.6130  147.5940 C   0  0  0  0  0  2  0  0  0  0  0  0
  161.9660  212.3000  148.1110 C   0  0  0  0  0  3  0  0  0  0  0  0
  163.4580  212.4570  147.8760 C   0  0  0  0  0  2  0  0  0  0  0  0
  160.3570  213.0460  149.7180 C   0  0  1  0  0  3  0  0  0  0  0  0
  160.4030  214.4340  150.3470 C   0  0  0  0  0  1  0  0  0  0  0  0
  159.5580  213.0620  148.4210 C   0  0  0  0  0  2  0  0  0  0  0  0
  158.1580  213.5170  148.6620 C   0  0  0  0  0  0  0  0  0  0  0  0
  156.0820  214.4530  147.8340 C   0  0  0  0  0  3  0  0  0  0  0  0
  156.3240  213.9390  150.1890 C   0  0  0  0  0  3  0  0  0  0  0  0
  155.5510  214.4200  149.1280 C   0  0  0  0  0  3  0  0  0  0  0  0
  157.6280  213.4900  149.9570 C   0  0  0  0  0  3  0  0  0  0  0  0
  157.3850  214.0030  147.6020 C   0  0  0  0  0  3  0  0  0  0  0  0
  161.1000  205.5940  153.2630 C   0  0  0  0  0  2  0  0  0  0  0  0
  159.7300  208.1050  155.7540 C   0  0  0  0  0  3  0  0  0  0  0  0
  160.4790  209.2430  155.4350 C   0  0  0  0  0  0  0  0  0  0  0  0
  161.6380  207.9950  153.7120 C   0  0  0  0  0  3  0  0  0  0  0  0
  159.9290  206.9150  155.0460 C   0  0  0  0  0  3  0  0  0  0  0  0
  160.8790  206.8610  154.0190 C   0  0  0  0  0  0  0  0  0  0  0  0
  161.4390  209.1840  154.4190 C   0  0  0  0  0  3  0  0  0  0  0  0
  161.5450  210.9330  156.7750 N   0  0  0  0  0  1  0  0  0  0  0  0
  160.2820  210.5030  156.2020 C   0  0  0  0  0  2  0  0  0  0  0  0
  1  8  1  0  0  0  0
  2 12  1  1  0  0  0
  2 13  1  0  0  0  0
  3 10  1  0  0  0  0
  4 15  1  0  0  0  0
  5  1  2  0  0  0  0
  5  9  1  0  0  0  0
  6  1  1  0  0  0  0
  7  4  1  0  0  0  0
  7 11  1  0  0  0  0
  8  4  2  0  0  0  0
  9  7  2  0  0  0  0
 10 14  1  0  0  0  0
 11  3  1  6  0  0  0
 11  2  1  0  0  0  0
 13 35  1  1  0  0  0
 14 13  1  0  0  0  0
 15 12  1  0  0  0  0
 16 17  1  6  0  0  0
 16 10  1  0  0  0  0
 18 16  1  0  0  0  0
 18 20  1  0  0  0  0
 20 19  2  0  0  0  0
 20 21  2  0  0  0  0
 22 26  1  0  0  0  0
 22 20  1  0  0  0  0
 23 25  1  0  0  0  0
 23 24  1  0  0  0  0
 24 22  1  0  0  0  0
 25 24  1  0  0  0  0
 26 27  1  6  0  0  0
 28 29  1  0  0  0  0
 28 26  1  0  0  0  0
 29 33  1  0  0  0  0
 30 32  2  0  0  0  0
 32 31  1  0  0  0  0
 33 31  2  0  0  0  0
 34 30  1  0  0  0  0
 34 29  2  0  0  0  0
 35 40  1  0  0  0  0
 37 36  1  0  0  0  0
 37 43  1  0  0  0  0
 38 40  2  0  0  0  0
 38 41  1  0  0  0  0
 39 36  2  0  0  0  0
 40 39  1  0  0  0  0
 41 37  2  0  0  0  0
 43 42  1  0  0  0  0
M  END
>  <MODEL>
3

>  <REMARK>
 VINA RESULT:      -7.5      1.722      3.216
  Name = 
  11 active torsions:
  status: ('A' for Active; 'I' for Inactive)
    1  A    between atoms: C_1  and  C_34
    2  A    between atoms: C_1  and  C_35
    3  A    between atoms: C_2  and  C_6
    4  A    between atoms: C_2  and  N_27
    5  A    between atoms: N_4  and  S_12
    6  A    between atoms: N_4  and  C_15
    7  A    between atoms: N_4  and  C_22
    8  A    between atoms: C_6  and  S_12
    9  A    between atoms: C_11  and  C_14
   10  A    between atoms: C_14  and  C_22
   11  A    between atoms: C_19  and  C_37
                            x       y       z     vdW  Elec       q    Type
                         _______ _______ _______ _____ _____    ______ ____

>  <TORSDO>
F 11

$$$$
=
 OpenBabel11062410273D

 43 48  0  0  1  0  0  0  0  0999 V2000
  161.0120  202.6890  147.4400 C   0  0  0  0  0  0  0  0  0  0  0  0
  161.9200  207.3140  149.3230 C   0  0  1  0  0  3  0  0  0  0  0  0
  162.1360  205.8540  151.3360 C   0  0  0  0  0  2  0  0  0  0  0  0
  161.3370  205.0690  147.7470 C   0  0  0  0  0  0  0  0  0  0  0  0
  160.9250  202.5180  148.8250 C   0  0  0  0  0  3  0  0  0  0  0  0
  160.8910  201.5930  146.5980 O   0  0  0  0  0  1  0  0  0  0  0  0
  161.2900  204.8980  149.1470 C   0  0  0  0  0  0  0  0  0  0  0  0
  161.2180  203.9620  146.9030 C   0  0  0  0  0  3  0  0  0  0  0  0
  161.0550  203.6200  149.6750 C   0  0  0  0  0  3  0  0  0  0  0  0
  162.1690  207.0410  152.2110 N   0  0  0  0  0  0  0  0  0  0  0  0
  161.3410  206.1020  150.0530 C   0  0  2  0  0  3  0  0  0  0  0  0
  161.1970  207.4980  148.0670 N   0  0  0  0  0  2  0  0  0  0  0  0
  161.8030  208.5370  150.2300 C   0  0  1  0  0  3  0  0  0  0  0  0
  162.5800  208.2760  151.5240 C   0  0  0  0  0  2  0  0  0  0  0  0
  161.6000  206.4280  147.1530 C   0  0  0  0  0  2  0  0  0  0  0  0
  160.9670  207.2360  153.0420 C   0  0  1  0  0  3  0  0  0  0  0  0
  160.6850  206.0810  153.9940 C   0  0  0  0  0  1  0  0  0  0  0  0
  161.0460  208.5410  153.8230 C   0  0  0  0  0  2  0  0  0  0  0  0
  161.6130  207.5360  156.2420 O   0  0  0  0  0  0  0  0  0  0  0  0
  160.5430  208.3090  155.5230 S   0  0  0  0  0  0  0  0  0  0  0  0
  159.2640  207.5170  155.5670 O   0  0  0  0  0  0  0  0  0  0  0  0
  160.3200  209.8480  156.3260 N   0  0  0  0  0  0  0  0  0  0  0  0
  162.0210  211.3280  157.2490 C   0  0  0  0  0  2  0  0  0  0  0  0
  161.4270  210.7370  155.9820 C   0  0  0  0  0  3  0  0  0  0  0  0
  162.7200  210.1840  156.5540 C   0  0  0  0  0  2  0  0  0  0  0  0
  159.0450  210.5060  155.9800 C   0  0  1  0  0  3  0  0  0  0  0  0
  158.4420  211.3380  157.1070 C   0  0  0  0  0  1  0  0  0  0  0  0
  159.1600  211.3260  154.7010 C   0  0  0  0  0  2  0  0  0  0  0  0
  157.9880  212.2330  154.5400 C   0  0  0  0  0  0  0  0  0  0  0  0
  157.0830  214.4490  154.1590 C   0  0  0  0  0  3  0  0  0  0  0  0
  155.5900  212.5830  154.5550 C   0  0  0  0  0  3  0  0  0  0  0  0
  155.7870  213.9420  154.2940 C   0  0  0  0  0  3  0  0  0  0  0  0
  156.6900  211.7290  154.6810 C   0  0  0  0  0  3  0  0  0  0  0  0
  158.1840  213.5950  154.2830 C   0  0  0  0  0  3  0  0  0  0  0  0
  162.3870  209.7820  149.5700 C   0  0  0  0  0  2  0  0  0  0  0  0
  160.5310  213.0650  149.1660 C   0  0  0  0  0  3  0  0  0  0  0  0
  160.0330  213.2590  150.4580 C   0  0  0  0  0  0  0  0  0  0  0  0
  161.0600  211.1810  151.1640 C   0  0  0  0  0  3  0  0  0  0  0  0
  161.2990  211.9340  148.8740 C   0  0  0  0  0  3  0  0  0  0  0  0
  161.5710  210.9930  149.8750 C   0  0  0  0  0  0  0  0  0  0  0  0
  160.2920  212.3120  151.4560 C   0  0  0  0  0  3  0  0  0  0  0  0
  157.7970  214.1440  150.5360 N   0  0  0  0  0  1  0  0  0  0  0  0
  159.1980  214.4520  150.7640 C   0  0  0  0  0  2  0  0  0  0  0  0
  1  5  1  0  0  0  0
  2 12  1  6  0  0  0
  2 11  1  0  0  0  0
  2 13  1  0  0  0  0
  3 10  1  0  0  0  0
  4  7  2  0  0  0  0
  5  9  2  0  0  0  0
  6  1  1  0  0  0  0
  7  9  1  0  0  0  0
  7 11  1  0  0  0  0
  8  1  2  0  0  0  0
  8  4  1  0  0  0  0
 10 16  1  0  0  0  0
 11  3  1  1  0  0  0
 13 35  1  6  0  0  0
 13 14  1  0  0  0  0
 14 10  1  0  0  0  0
 15  4  1  0  0  0  0
 15 12  1  0  0  0  0
 16 18  1  0  0  0  0
 16 17  1  1  0  0  0
 18 20  1  0  0  0  0
 20 21  2  0  0  0  0
 20 19  2  0  0  0  0
 20 22  1  0  0  0  0
 24 22  1  0  0  0  0
 24 25  1  0  0  0  0
 24 23  1  0  0  0  0
 25 23  1  0  0  0  0
 26 22  1  0  0  0  0
 26 27  1  1  0  0  0
 28 26  1  0  0  0  0
 29 33  1  0  0  0  0
 29 28  1  0  0  0  0
 30 34  1  0  0  0  0
 30 32  2  0  0  0  0
 31 33  2  0  0  0  0
 32 31  1  0  0  0  0
 34 29  2  0  0  0  0
 35 40  1  0  0  0  0
 36 37  1  0  0  0  0
 37 43  1  0  0  0  0
 37 41  2  0  0  0  0
 38 41  1  0  0  0  0
 39 36  2  0  0  0  0
 39 40  1  0  0  0  0
 40 38  2  0  0  0  0
 42 43  1  0  0  0  0
M  END
>  <MODEL>
4

>  <REMARK>
 VINA RESULT:      -7.4      3.202      6.819
  Name = 
  11 active torsions:
  status: ('A' for Active; 'I' for Inactive)
    1  A    between atoms: C_1  and  C_34
    2  A    between atoms: C_1  and  C_35
    3  A    between atoms: C_2  and  C_6
    4  A    between atoms: C_2  and  N_27
    5  A    between atoms: N_4  and  S_12
    6  A    between atoms: N_4  and  C_15
    7  A    between atoms: N_4  and  C_22
    8  A    between atoms: C_6  and  S_12
    9  A    between atoms: C_11  and  C_14
   10  A    between atoms: C_14  and  C_22
   11  A    between atoms: C_19  and  C_37
                            x       y       z     vdW  Elec       q    Type
                         _______ _______ _______ _____ _____    ______ ____

>  <TORSDO>
F 11

$$$$
=
 OpenBabel11062410273D

 43 48  0  0  1  0  0  0  0  0999 V2000
  161.3650  212.5790  147.8750 C   0  0  0  0  0  0  0  0  0  0  0  0
  160.4430  212.1260  152.8450 C   0  0  1  0  0  3  0  0  0  0  0  0
  162.1800  210.3770  152.4510 C   0  0  0  0  0  2  0  0  0  0  0  0
  160.5120  212.8180  150.1290 C   0  0  0  0  0  0  0  0  0  0  0  0
  161.9540  211.3600  148.2220 C   0  0  0  0  0  3  0  0  0  0  0  0
  161.4920  213.0660  146.5820 O   0  0  0  0  0  1  0  0  0  0  0  0
  161.1380  211.6080  150.4970 C   0  0  0  0  0  0  0  0  0  0  0  0
  160.6470  213.3070  148.8270 C   0  0  0  0  0  3  0  0  0  0  0  0
  161.8330  210.8720  149.5260 C   0  0  0  0  0  3  0  0  0  0  0  0
  161.9530  209.8270  153.8010 N   0  0  0  0  0  0  0  0  0  0  0  0
  160.9280  211.0450  151.8800 C   0  0  2  0  0  3  0  0  0  0  0  0
  159.2890  212.8010  152.2560 N   0  0  0  0  0  2  0  0  0  0  0  0
  160.0980  211.4730  154.1820 C   0  0  1  0  0  3  0  0  0  0  0  0
  161.3480  210.7850  154.7410 C   0  0  0  0  0  2  0  0  0  0  0  0
  159.7690  213.6350  151.1530 C   0  0  0  0  0  2  0  0  0  0  0  0
  161.2870  208.5130  153.8340 C   0  0  1  0  0  3  0  0  0  0  0  0
  159.9500  208.5190  154.5640 C   0  0  0  0  0  1  0  0  0  0  0  0
  161.1050  207.9560  152.4280 C   0  0  0  0  0  2  0  0  0  0  0  0
  160.8100  205.4210  153.2490 O   0  0  0  0  0  0  0  0  0  0  0  0
  161.6550  206.2570  152.3290 S   0  0  0  0  0  0  0  0  0  0  0  0
  163.0890  206.1650  152.7750 O   0  0  0  0  0  0  0  0  0  0  0  0
  161.4960  205.6410  150.6980 N   0  0  0  0  0  0  0  0  0  0  0  0
  161.1540  203.2570  150.3340 C   0  0  0  0  0  2  0  0  0  0  0  0
  160.4920  204.5800  150.6780 C   0  0  0  0  0  3  0  0  0  0  0  0
  160.7990  203.5690  151.7680 C   0  0  0  0  0  2  0  0  0  0  0  0
  161.1230  206.6800  149.7170 C   0  0  1  0  0  3  0  0  0  0  0  0
  162.3100  207.3710  149.0540 C   0  0  0  0  0  1  0  0  0  0  0  0
  160.1490  206.1480  148.6730 C   0  0  0  0  0  2  0  0  0  0  0  0
  160.8620  205.7880  147.4130 C   0  0  0  0  0  0  0  0  0  0  0  0
  162.7110  204.7030  146.2830 C   0  0  0  0  0  3  0  0  0  0  0  0
  161.0620  205.9320  145.0020 C   0  0  0  0  0  3  0  0  0  0  0  0
  162.2260  205.1590  145.0530 C   0  0  0  0  0  3  0  0  0  0  0  0
  160.3810  206.2480  146.1820 C   0  0  0  0  0  3  0  0  0  0  0  0
  162.0300  205.0180  147.4630 C   0  0  0  0  0  3  0  0  0  0  0  0
  159.6280  212.5030  155.2040 C   0  0  0  0  0  2  0  0  0  0  0  0
  156.4420  212.6040  157.2610 C   0  0  0  0  0  3  0  0  0  0  0  0
  155.7340  211.5250  156.7220 C   0  0  0  0  0  0  0  0  0  0  0  0
  157.5600  211.0950  155.1880 C   0  0  0  0  0  3  0  0  0  0  0  0
  157.7120  212.9240  156.7690 C   0  0  0  0  0  3  0  0  0  0  0  0
  158.2760  212.1650  155.7360 C   0  0  0  0  0  0  0  0  0  0  0  0
  156.2910  210.7760  155.6780 C   0  0  0  0  0  3  0  0  0  0  0  0
  154.0040  209.8560  156.8160 N   0  0  0  0  0  1  0  0  0  0  0  0
  154.3740  211.1980  157.2300 C   0  0  0  0  0  2  0  0  0  0  0  0
  1  5  2  0  0  0  0
  1  8  1  0  0  0  0
  2 12  1  6  0  0  0
  2 13  1  0  0  0  0
  3 10  1  0  0  0  0
  4  7  1  0  0  0  0
  4 15  1  0  0  0  0
  5  9  1  0  0  0  0
  6  1  1  0  0  0  0
  7 11  1  0  0  0  0
  8  4  2  0  0  0  0
  9  7  2  0  0  0  0
 10 16  1  0  0  0  0
 10 14  1  0  0  0  0
 11  3  1  1  0  0  0
 11  2  1  0  0  0  0
 13 14  1  0  0  0  0
 13 35  1  1  0  0  0
 15 12  1  0  0  0  0
 16 17  1  6  0  0  0
 18 16  1  0  0  0  0
 20 18  1  0  0  0  0
 20 21  2  0  0  0  0
 20 19  2  0  0  0  0
 22 20  1  0  0  0  0
 23 24  1  0  0  0  0
 23 25  1  0  0  0  0
 24 22  1  0  0  0  0
 24 25  1  0  0  0  0
 26 27  1  6  0  0  0
 26 22  1  0  0  0  0
 28 26  1  0  0  0  0
 29 34  1  0  0  0  0
 29 28  1  0  0  0  0
 30 34  2  0  0  0  0
 31 32  2  0  0  0  0
 31 33  1  0  0  0  0
 32 30  1  0  0  0  0
 33 29  2  0  0  0  0
 35 40  1  0  0  0  0
 37 43  1  0  0  0  0
 37 36  2  0  0  0  0
 38 41  2  0  0  0  0
 38 40  1  0  0  0  0
 39 36  1  0  0  0  0
 40 39  2  0  0  0  0
 41 37  1  0  0  0  0
 42 43  1  0  0  0  0
M  END
>  <MODEL>
5

>  <REMARK>
 VINA RESULT:      -6.9      3.125      7.887
  Name = 
  11 active torsions:
  status: ('A' for Active; 'I' for Inactive)
    1  A    between atoms: C_1  and  C_34
    2  A    between atoms: C_1  and  C_35
    3  A    between atoms: C_2  and  C_6
    4  A    between atoms: C_2  and  N_27
    5  A    between atoms: N_4  and  S_12
    6  A    between atoms: N_4  and  C_15
    7  A    between atoms: N_4  and  C_22
    8  A    between atoms: C_6  and  S_12
    9  A    between atoms: C_11  and  C_14
   10  A    between atoms: C_14  and  C_22
   11  A    between atoms: C_19  and  C_37
                            x       y       z     vdW  Elec       q    Type
                         _______ _______ _______ _____ _____    ______ ____

>  <TORSDO>
F 11

$$$$
=
 OpenBabel11062410273D

 43 48  0  0  1  0  0  0  0  0999 V2000
  160.9630  202.0840  147.3600 C   0  0  0  0  0  0  0  0  0  0  0  0
  161.0380  205.2330  151.3390 C   0  0  1  0  0  3  0  0  0  0  0  0
  160.7690  206.7960  149.4130 C   0  0  0  0  0  2  0  0  0  0  0  0
  161.0790  203.0530  149.5770 C   0  0  0  0  0  0  0  0  0  0  0  0
  161.1520  203.3480  146.7930 C   0  0  0  0  0  3  0  0  0  0  0  0
  160.8160  200.9730  146.5420 O   0  0  0  0  0  1  0  0  0  0  0  0
  161.2280  204.3380  149.0100 C   0  0  0  0  0  0  0  0  0  0  0  0
  160.9260  201.9380  148.7490 C   0  0  0  0  0  3  0  0  0  0  0  0
  161.2920  204.4690  147.6150 C   0  0  0  0  0  3  0  0  0  0  0  0
  161.0220  207.9510  150.2950 N   0  0  0  0  0  0  0  0  0  0  0  0
  161.4690  205.5280  149.9030 C   0  0  2  0  0  3  0  0  0  0  0  0
  161.6590  203.9830  151.7720 N   0  0  0  0  0  2  0  0  0  0  0  0
  161.4460  206.4070  152.2270 C   0  0  1  0  0  3  0  0  0  0  0  0
  160.7630  207.6810  151.7180 C   0  0  0  0  0  2  0  0  0  0  0  0
  160.9950  202.8840  151.0710 C   0  0  0  0  0  2  0  0  0  0  0  0
  162.3130  208.6290  150.0790 C   0  0  1  0  0  3  0  0  0  0  0  0
  162.8330  208.5210  148.6520 C   0  0  0  0  0  1  0  0  0  0  0  0
  162.2390  210.0930  150.4920 C   0  0  0  0  0  2  0  0  0  0  0  0
  161.4150  210.2850  147.9480 O   0  0  0  0  0  0  0  0  0  0  0  0
  161.8870  211.1440  149.0880 S   0  0  0  0  0  0  0  0  0  0  0  0
  163.1430  211.8570  148.6650 O   0  0  0  0  0  0  0  0  0  0  0  0
  160.6390  212.3080  149.4740 N   0  0  0  0  0  0  0  0  0  0  0  0
  159.5430  213.2020  151.4580 C   0  0  0  0  0  2  0  0  0  0  0  0
  160.8710  212.8380  150.8150 C   0  0  0  0  0  3  0  0  0  0  0  0
  160.2370  211.9170  151.8430 C   0  0  0  0  0  2  0  0  0  0  0  0
  160.5720  213.4290  148.5150 C   0  0  1  0  0  3  0  0  0  0  0  0
  161.8760  214.2060  148.3670 C   0  0  0  0  0  1  0  0  0  0  0  0
  160.0480  212.9800  147.1560 C   0  0  0  0  0  2  0  0  0  0  0  0
  158.6590  213.4750  146.9300 C   0  0  0  0  0  0  0  0  0  0  0  0
  156.8980  214.1710  145.4180 C   0  0  0  0  0  3  0  0  0  0  0  0
  156.5390  214.2500  147.8120 C   0  0  0  0  0  3  0  0  0  0  0  0
  156.0720  214.4530  146.5110 C   0  0  0  0  0  3  0  0  0  0  0  0
  157.8330  213.7630  148.0230 C   0  0  0  0  0  3  0  0  0  0  0  0
  158.1920  213.6830  145.6270 C   0  0  0  0  0  3  0  0  0  0  0  0
  161.0230  206.1890  153.6760 C   0  0  0  0  0  2  0  0  0  0  0  0
  161.5500  209.7800  154.7790 C   0  0  0  0  0  3  0  0  0  0  0  0
  160.5580  209.9130  155.7570 C   0  0  0  0  0  0  0  0  0  0  0  0
  159.8660  207.6250  155.3660 C   0  0  0  0  0  3  0  0  0  0  0  0
  161.7040  208.5670  154.1010 C   0  0  0  0  0  3  0  0  0  0  0  0
  160.8670  207.4840  154.3990 C   0  0  0  0  0  0  0  0  0  0  0  0
  159.7110  208.8370  156.0440 C   0  0  0  0  0  3  0  0  0  0  0  0
  159.9430  212.2270  155.5250 N   0  0  0  0  0  1  0  0  0  0  0  0
  160.3800  211.2100  156.4650 C   0  0  0  0  0  2  0  0  0  0  0  0
  1  8  1  0  0  0  0
  2 12  1  1  0  0  0
  2 13  1  0  0  0  0
  3 10  1  0  0  0  0
  4 15  1  0  0  0  0
  5  1  2  0  0  0  0
  5  9  1  0  0  0  0
  6  1  1  0  0  0  0
  7  4  1  0  0  0  0
  7 11  1  0  0  0  0
  8  4  2  0  0  0  0
  9  7  2  0  0  0  0
 10 14  1  0  0  0  0
 11  3  1  6  0  0  0
 11  2  1  0  0  0  0
 13 35  1  1  0  0  0
 14 13  1  0  0  0  0
 15 12  1  0  0  0  0
 16 17  1  6  0  0  0
 16 10  1  0  0  0  0
 16 18  1  0  0  0  0
 19 20  2  0  0  0  0
 20 22  1  0  0  0  0
 20 18  1  0  0  0  0
 21 20  2  0  0  0  0
 22 24  1  0  0  0  0
 23 25  1  0  0  0  0
 24 23  1  0  0  0  0
 24 25  1  0  0  0  0
 26 27  1  6  0  0  0
 26 22  1  0  0  0  0
 28 26  1  0  0  0  0
 29 28  1  0  0  0  0
 29 33  1  0  0  0  0
 30 34  1  0  0  0  0
 30 32  2  0  0  0  0
 31 33  2  0  0  0  0
 32 31  1  0  0  0  0
 34 29  2  0  0  0  0
 35 40  1  0  0  0  0
 36 37  1  0  0  0  0
 37 41  2  0  0  0  0
 37 43  1  0  0  0  0
 38 41  1  0  0  0  0
 39 40  1  0  0  0  0
 39 36  2  0  0  0  0
 40 38  2  0  0  0  0
 42 43  1  0  0  0  0
M  END
>  <MODEL>
6

>  <REMARK>
 VINA RESULT:      -6.9      1.710      2.461
  Name = 
  11 active torsions:
  status: ('A' for Active; 'I' for Inactive)
    1  A    between atoms: C_1  and  C_34
    2  A    between atoms: C_1  and  C_35
    3  A    between atoms: C_2  and  C_6
    4  A    between atoms: C_2  and  N_27
    5  A    between atoms: N_4  and  S_12
    6  A    between atoms: N_4  and  C_15
    7  A    between atoms: N_4  and  C_22
    8  A    between atoms: C_6  and  S_12
    9  A    between atoms: C_11  and  C_14
   10  A    between atoms: C_14  and  C_22
   11  A    between atoms: C_19  and  C_37
                            x       y       z     vdW  Elec       q    Type
                         _______ _______ _______ _____ _____    ______ ____

>  <TORSDO>
F 11

$$$$
=
 OpenBabel11062410273D

 43 48  0  0  1  0  0  0  0  0999 V2000
  160.9950  202.3730  147.0560 C   0  0  0  0  0  0  0  0  0  0  0  0
  161.1480  205.3340  151.1760 C   0  0  1  0  0  3  0  0  0  0  0  0
  160.6870  206.9680  149.3480 C   0  0  0  0  0  2  0  0  0  0  0  0
  161.1930  203.2430  149.3080 C   0  0  0  0  0  0  0  0  0  0  0  0
  161.0860  203.6700  146.5430 C   0  0  0  0  0  3  0  0  0  0  0  0
  160.8560  201.2950  146.1940 O   0  0  0  0  0  1  0  0  0  0  0  0
  161.2440  204.5580  148.7980 C   0  0  0  0  0  0  0  0  0  0  0  0
  161.0480  202.1610  148.4360 C   0  0  0  0  0  3  0  0  0  0  0  0
  161.2180  204.7580  147.4100 C   0  0  0  0  0  3  0  0  0  0  0  0
  160.9330  208.0920  150.2710 N   0  0  0  0  0  0  0  0  0  0  0  0
  161.4780  205.7170  149.7340 C   0  0  2  0  0  3  0  0  0  0  0  0
  161.8560  204.1000  151.5100 N   0  0  0  0  0  2  0  0  0  0  0  0
  161.5490  206.4850  152.0960 C   0  0  1  0  0  3  0  0  0  0  0  0
  160.7730  207.7430  151.6910 C   0  0  0  0  0  2  0  0  0  0  0  0
  161.2070  203.0000  150.7940 C   0  0  0  0  0  2  0  0  0  0  0  0
  162.1730  208.8470  150.0150 C   0  0  1  0  0  3  0  0  0  0  0  0
  162.7720  208.5970  148.6370 C   0  0  0  0  0  1  0  0  0  0  0  0
  161.9580  210.3400  150.2210 C   0  0  0  0  0  2  0  0  0  0  0  0
  160.9530  210.4870  147.7400 O   0  0  0  0  0  0  0  0  0  0  0  0
  161.9010  211.2080  148.6580 S   0  0  0  0  0  0  0  0  0  0  0  0
  163.2690  211.2090  148.0320 O   0  0  0  0  0  0  0  0  0  0  0  0
  161.3400  212.8510  148.8730 N   0  0  0  0  0  0  0  0  0  0  0  0
  161.1280  214.4520  147.0480 C   0  0  0  0  0  2  0  0  0  0  0  0
  160.5200  213.2360  147.7260 C   0  0  0  0  0  3  0  0  0  0  0  0
  161.3260  213.0790  146.4490 C   0  0  0  0  0  2  0  0  0  0  0  0
  160.5600  213.0430  150.1120 C   0  0  1  0  0  3  0  0  0  0  0  0
  160.6570  214.4450  150.7040 C   0  0  0  0  0  1  0  0  0  0  0  0
  159.1040  212.6270  149.9340 C   0  0  0  0  0  2  0  0  0  0  0  0
  158.3110  212.9220  151.1620 C   0  0  0  0  0  0  0  0  0  0  0  0
  156.6330  214.2380  152.3120 C   0  0  0  0  0  3  0  0  0  0  0  0
  157.8180  212.4880  153.4950 C   0  0  0  0  0  3  0  0  0  0  0  0
  156.8630  213.5080  153.4830 C   0  0  0  0  0  3  0  0  0  0  0  0
  158.5440  212.1950  152.3350 C   0  0  0  0  0  3  0  0  0  0  0  0
  157.3580  213.9460  151.1530 C   0  0  0  0  0  3  0  0  0  0  0  0
  161.2240  206.1770  153.5540 C   0  0  0  0  0  2  0  0  0  0  0  0
  161.0570  209.8200  154.5990 C   0  0  0  0  0  3  0  0  0  0  0  0
  160.2450  209.7410  155.7360 C   0  0  0  0  0  0  0  0  0  0  0  0
  160.0640  207.3430  155.4390 C   0  0  0  0  0  3  0  0  0  0  0  0
  161.3780  208.6600  153.8870 C   0  0  0  0  0  3  0  0  0  0  0  0
  160.8880  207.4180  154.3110 C   0  0  0  0  0  0  0  0  0  0  0  0
  159.7430  208.5030  156.1510 C   0  0  0  0  0  3  0  0  0  0  0  0
  160.5050  212.1300  155.8510 N   0  0  0  0  0  1  0  0  0  0  0  0
  159.8860  210.9780  156.4810 C   0  0  0  0  0  2  0  0  0  0  0  0
  1  8  1  0  0  0  0
  2 12  1  1  0  0  0
  2 13  1  0  0  0  0
  3 10  1  0  0  0  0
  4 15  1  0  0  0  0
  5  1  2  0  0  0  0
  5  9  1  0  0  0  0
  6  1  1  0  0  0  0
  7  4  1  0  0  0  0
  7 11  1  0  0  0  0
  8  4  2  0  0  0  0
  9  7  2  0  0  0  0
 10 14  1  0  0  0  0
 11  3  1  6  0  0  0
 11  2  1  0  0  0  0
 13 35  1  1  0  0  0
 14 13  1  0  0  0  0
 15 12  1  0  0  0  0
 16 17  1  6  0  0  0
 16 18  1  0  0  0  0
 16 10  1  0  0  0  0
 19 20  2  0  0  0  0
 20 22  1  0  0  0  0
 20 18  1  0  0  0  0
 21 20  2  0  0  0  0
 22 26  1  0  0  0  0
 23 24  1  0  0  0  0
 24 22  1  0  0  0  0
 25 23  1  0  0  0  0
 25 24  1  0  0  0  0
 26 27  1  6  0  0  0
 28 26  1  0  0  0  0
 28 29  1  0  0  0  0
 29 33  1  0  0  0  0
 30 32  2  0  0  0  0
 32 31  1  0  0  0  0
 33 31  2  0  0  0  0
 34 29  2  0  0  0  0
 34 30  1  0  0  0  0
 35 40  1  0  0  0  0
 36 37  1  0  0  0  0
 37 41  2  0  0  0  0
 37 43  1  0  0  0  0
 38 41  1  0  0  0  0
 39 40  1  0  0  0  0
 39 36  2  0  0  0  0
 40 38  2  0  0  0  0
 42 43  1  0  0  0  0
M  END
>  <MODEL>
7

>  <REMARK>
 VINA RESULT:      -6.8      1.530      3.961
  Name = 
  11 active torsions:
  status: ('A' for Active; 'I' for Inactive)
    1  A    between atoms: C_1  and  C_34
    2  A    between atoms: C_1  and  C_35
    3  A    between atoms: C_2  and  C_6
    4  A    between atoms: C_2  and  N_27
    5  A    between atoms: N_4  and  S_12
    6  A    between atoms: N_4  and  C_15
    7  A    between atoms: N_4  and  C_22
    8  A    between atoms: C_6  and  S_12
    9  A    between atoms: C_11  and  C_14
   10  A    between atoms: C_14  and  C_22
   11  A    between atoms: C_19  and  C_37
                            x       y       z     vdW  Elec       q    Type
                         _______ _______ _______ _____ _____    ______ ____

>  <TORSDO>
F 11

$$$$
=
 OpenBabel11062410273D

 43 48  0  0  1  0  0  0  0  0999 V2000
  160.9880  203.2870  148.4550 C   0  0  0  0  0  0  0  0  0  0  0  0
  162.1450  208.1700  149.2110 C   0  0  1  0  0  3  0  0  0  0  0  0
  162.0710  207.2620  151.5340 C   0  0  0  0  0  2  0  0  0  0  0  0
  161.4950  205.6410  148.1910 C   0  0  0  0  0  0  0  0  0  0  0  0
  160.7760  203.4810  149.8220 C   0  0  0  0  0  3  0  0  0  0  0  0
  160.8380  202.0220  147.9030 O   0  0  0  0  0  1  0  0  0  0  0  0
  161.3220  205.8350  149.5790 C   0  0  0  0  0  0  0  0  0  0  0  0
  161.3470  204.3640  147.6420 C   0  0  0  0  0  3  0  0  0  0  0  0
  160.9340  204.7520  150.3810 C   0  0  0  0  0  3  0  0  0  0  0  0
  162.1390  208.6280  152.0870 N   0  0  0  0  0  0  0  0  0  0  0  0
  161.4060  207.2250  150.1580 C   0  0  2  0  0  3  0  0  0  0  0  0
  161.5430  208.0740  147.8830 N   0  0  0  0  0  2  0  0  0  0  0  0
  162.0650  209.5890  149.7700 C   0  0  1  0  0  3  0  0  0  0  0  0
  162.7100  209.6170  151.1600 C   0  0  0  0  0  2  0  0  0  0  0  0
  161.9230  206.7830  147.3090 C   0  0  0  0  0  2  0  0  0  0  0  0
  160.8960  209.1050  152.7200 C   0  0  1  0  0  3  0  0  0  0  0  0
  160.5200  208.3460  153.9860 C   0  0  0  0  0  1  0  0  0  0  0  0
  160.9690  210.5970  153.0150 C   0  0  0  0  0  2  0  0  0  0  0  0
  160.3790  211.1570  155.5690 O   0  0  0  0  0  0  0  0  0  0  0  0
  159.7340  211.0810  154.2140 S   0  0  0  0  0  0  0  0  0  0  0  0
  158.6420  210.0480  154.2570 O   0  0  0  0  0  0  0  0  0  0  0  0
  159.0590  212.6480  153.8200 N   0  0  0  0  0  0  0  0  0  0  0  0
  159.1340  214.0680  151.8420 C   0  0  0  0  0  2  0  0  0  0  0  0
  158.7630  212.7010  152.3910 C   0  0  0  0  0  3  0  0  0  0  0  0
  160.0520  212.8910  151.6110 C   0  0  0  0  0  2  0  0  0  0  0  0
  157.8330  212.9610  154.5810 C   0  0  1  0  0  3  0  0  0  0  0  0
  157.6050  214.4510  154.8180 C   0  0  0  0  0  1  0  0  0  0  0  0
  156.6010  212.3150  153.9590 C   0  0  0  0  0  2  0  0  0  0  0  0
  155.8380  211.5330  154.9750 C   0  0  0  0  0  0  0  0  0  0  0  0
  155.0950  211.2220  157.2600 C   0  0  0  0  0  3  0  0  0  0  0  0
  154.5020  209.5980  155.5630 C   0  0  0  0  0  3  0  0  0  0  0  0
  154.4510  210.0370  156.8890 C   0  0  0  0  0  3  0  0  0  0  0  0
  155.1970  210.3450  154.6060 C   0  0  0  0  0  3  0  0  0  0  0  0
  155.7890  211.9690  156.3040 C   0  0  0  0  0  3  0  0  0  0  0  0
  162.8060  210.5840  148.8840 C   0  0  0  0  0  2  0  0  0  0  0  0
  161.3050  213.8880  147.7790 C   0  0  0  0  0  3  0  0  0  0  0  0
  160.1190  213.4600  147.1720 C   0  0  0  0  0  0  0  0  0  0  0  0
  160.6950  211.1600  147.6710 C   0  0  0  0  0  3  0  0  0  0  0  0
  162.1800  212.9530  148.3400 C   0  0  0  0  0  3  0  0  0  0  0  0
  161.8730  211.5870  148.2920 C   0  0  0  0  0  0  0  0  0  0  0  0
  159.8190  212.0950  147.1110 C   0  0  0  0  0  3  0  0  0  0  0  0
  158.8360  214.0260  145.2180 N   0  0  0  0  0  1  0  0  0  0  0  0
  159.1960  214.4530  146.5580 C   0  0  0  0  0  2  0  0  0  0  0  0
  1  5  1  0  0  0  0
  2 12  1  6  0  0  0
  2 13  1  0  0  0  0
  2 11  1  0  0  0  0
  3 10  1  0  0  0  0
  4  7  2  0  0  0  0
  5  9  2  0  0  0  0
  6  1  1  0  0  0  0
  7 11  1  0  0  0  0
  7  9  1  0  0  0  0
  8  4  1  0  0  0  0
  8  1  2  0  0  0  0
 10 16  1  0  0  0  0
 11  3  1  1  0  0  0
 13 35  1  6  0  0  0
 13 14  1  0  0  0  0
 14 10  1  0  0  0  0
 15 12  1  0  0  0  0
 15  4  1  0  0  0  0
 16 18  1  0  0  0  0
 16 17  1  1  0  0  0
 18 20  1  0  0  0  0
 20 21  2  0  0  0  0
 20 19  2  0  0  0  0
 22 20  1  0  0  0  0
 22 26  1  0  0  0  0
 23 24  1  0  0  0  0
 24 22  1  0  0  0  0
 25 23  1  0  0  0  0
 25 24  1  0  0  0  0
 26 27  1  6  0  0  0
 28 26  1  0  0  0  0
 28 29  1  0  0  0  0
 29 34  1  0  0  0  0
 31 32  2  0  0  0  0
 32 30  1  0  0  0  0
 33 29  2  0  0  0  0
 33 31  1  0  0  0  0
 34 30  2  0  0  0  0
 36 39  1  0  0  0  0
 37 36  2  0  0  0  0
 38 40  1  0  0  0  0
 40 39  2  0  0  0  0
 40 35  1  0  0  0  0
 41 37  1  0  0  0  0
 41 38  2  0  0  0  0
 42 43  1  0  0  0  0
 43 37  1  0  0  0  0
M  END
>  <MODEL>
8

>  <REMARK>
 VINA RESULT:      -5.9      3.247      7.553
  Name = 
  11 active torsions:
  status: ('A' for Active; 'I' for Inactive)
    1  A    between atoms: C_1  and  C_34
    2  A    between atoms: C_1  and  C_35
    3  A    between atoms: C_2  and  C_6
    4  A    between atoms: C_2  and  N_27
    5  A    between atoms: N_4  and  S_12
    6  A    between atoms: N_4  and  C_15
    7  A    between atoms: N_4  and  C_22
    8  A    between atoms: C_6  and  S_12
    9  A    between atoms: C_11  and  C_14
   10  A    between atoms: C_14  and  C_22
   11  A    between atoms: C_19  and  C_37
                            x       y       z     vdW  Elec       q    Type
                         _______ _______ _______ _____ _____    ______ ____

>  <TORSDO>
F 11

$$$$
=
 OpenBabel11062410273D

 43 48  0  0  1  0  0  0  0  0999 V2000
  155.6410  212.4770  156.3520 C   0  0  0  0  0  0  0  0  0  0  0  0
  159.1220  212.9190  152.6850 C   0  0  1  0  0  3  0  0  0  0  0  0
  158.8400  210.4470  152.8740 C   0  0  0  0  0  2  0  0  0  0  0  0
  157.2340  213.2990  154.7230 C   0  0  0  0  0  0  0  0  0  0  0  0
  156.1620  211.1870  156.2180 C   0  0  0  0  0  3  0  0  0  0  0  0
  154.5930  212.7130  157.2310 O   0  0  0  0  0  1  0  0  0  0  0  0
  157.7380  211.9910  154.5530 C   0  0  0  0  0  0  0  0  0  0  0  0
  156.1760  213.5300  155.6060 C   0  0  0  0  0  3  0  0  0  0  0  0
  157.2130  210.9470  155.3270 C   0  0  0  0  0  3  0  0  0  0  0  0
  160.0170  210.2320  152.0100 N   0  0  0  0  0  0  0  0  0  0  0  0
  158.9290  211.7570  153.6580 C   0  0  2  0  0  3  0  0  0  0  0  0
  159.1360  214.1700  153.4410 N   0  0  0  0  0  2  0  0  0  0  0  0
  160.4240  212.7060  151.9160 C   0  0  1  0  0  3  0  0  0  0  0  0
  160.3420  211.3820  151.1500 C   0  0  0  0  0  2  0  0  0  0  0  0
  157.7710  214.4370  153.8960 C   0  0  0  0  0  2  0  0  0  0  0  0
  161.2030  209.6930  152.6970 C   0  0  1  0  0  3  0  0  0  0  0  0
  161.4510  210.3060  154.0700 C   0  0  0  0  0  1  0  0  0  0  0  0
  161.1260  208.1770  152.8160 C   0  0  0  0  0  2  0  0  0  0  0  0
  163.1120  206.4330  152.3690 O   0  0  0  0  0  0  0  0  0  0  0  0
  162.2050  207.3790  151.6330 S   0  0  0  0  0  0  0  0  0  0  0  0
  163.0480  208.4150  150.9410 O   0  0  0  0  0  0  0  0  0  0  0  0
  161.2810  206.4740  150.4540 N   0  0  0  0  0  0  0  0  0  0  0  0
  160.7720  206.5280  148.0720 C   0  0  0  0  0  2  0  0  0  0  0  0
  161.8540  206.6850  149.1270 C   0  0  0  0  0  3  0  0  0  0  0  0
  161.2220  207.9090  148.4880 C   0  0  0  0  0  2  0  0  0  0  0  0
  161.2340  205.0260  150.7370 C   0  0  1  0  0  3  0  0  0  0  0  0
  161.1990  204.6780  152.2220 C   0  0  0  0  0  1  0  0  0  0  0  0
  160.0960  204.3400  149.9910 C   0  0  0  0  0  2  0  0  0  0  0  0
  160.5510  203.0530  149.3890 C   0  0  0  0  0  0  0  0  0  0  0  0
  161.2040  200.7340  149.6390 C   0  0  0  0  0  3  0  0  0  0  0  0
  161.2590  201.7780  147.4540 C   0  0  0  0  0  3  0  0  0  0  0  0
  161.4560  200.6570  148.2650 C   0  0  0  0  0  3  0  0  0  0  0  0
  160.8080  202.9770  148.0150 C   0  0  0  0  0  3  0  0  0  0  0  0
  160.7520  201.9320  150.2010 C   0  0  0  0  0  3  0  0  0  0  0  0
  160.6680  213.8230  150.9060 C   0  0  0  0  0  2  0  0  0  0  0  0
  158.0640  213.4080  148.1790 C   0  0  0  0  0  3  0  0  0  0  0  0
  158.8500  212.9480  147.1180 C   0  0  0  0  0  0  0  0  0  0  0  0
  160.8190  213.0710  148.5250 C   0  0  0  0  0  3  0  0  0  0  0  0
  158.6530  213.6920  149.4150 C   0  0  0  0  0  3  0  0  0  0  0  0
  160.0320  213.5170  149.5920 C   0  0  0  0  0  0  0  0  0  0  0  0
  160.2300  212.7880  147.2890 C   0  0  0  0  0  3  0  0  0  0  0  0
  156.7830  212.6040  145.9370 N   0  0  0  0  0  1  0  0  0  0  0  0
  158.2270  212.6650  145.7960 C   0  0  0  0  0  2  0  0  0  0  0  0
  1  6  1  0  0  0  0
  2 12  1  1  0  0  0
  2 11  1  0  0  0  0
  4  8  1  0  0  0  0
  5  1  1  0  0  0  0
  7  4  2  0  0  0  0
  7  9  1  0  0  0  0
  8  1  2  0  0  0  0
  9  5  2  0  0  0  0
 10 16  1  0  0  0  0
 10  3  1  0  0  0  0
 11  3  1  6  0  0  0
 11  7  1  0  0  0  0
 12 15  1  0  0  0  0
 13 35  1  6  0  0  0
 13  2  1  0  0  0  0
 14 13  1  0  0  0  0
 14 10  1  0  0  0  0
 15  4  1  0  0  0  0
 16 18  1  0  0  0  0
 16 17  1  1  0  0  0
 20 19  2  0  0  0  0
 20 18  1  0  0  0  0
 21 20  2  0  0  0  0
 22 26  1  0  0  0  0
 22 20  1  0  0  0  0
 23 25  1  0  0  0  0
 23 24  1  0  0  0  0
 24 22  1  0  0  0  0
 25 24  1  0  0  0  0
 26 27  1  1  0  0  0
 28 26  1  0  0  0  0
 29 28  1  0  0  0  0
 29 34  1  0  0  0  0
 30 34  2  0  0  0  0
 31 33  1  0  0  0  0
 31 32  2  0  0  0  0
 32 30  1  0  0  0  0
 33 29  2  0  0  0  0
 36 39  1  0  0  0  0
 37 41  1  0  0  0  0
 37 36  2  0  0  0  0
 38 40  1  0  0  0  0
 39 40  2  0  0  0  0
 40 35  1  0  0  0  0
 41 38  2  0  0  0  0
 43 42  1  0  0  0  0
 43 37  1  0  0  0  0
M  END
>  <MODEL>
9

>  <REMARK>
 VINA RESULT:      -5.2      3.109      9.861
  Name = 
  11 active torsions:
  status: ('A' for Active; 'I' for Inactive)
    1  A    between atoms: C_1  and  C_34
    2  A    between atoms: C_1  and  C_35
    3  A    between atoms: C_2  and  C_6
    4  A    between atoms: C_2  and  N_27
    5  A    between atoms: N_4  and  S_12
    6  A    between atoms: N_4  and  C_15
    7  A    between atoms: N_4  and  C_22
    8  A    between atoms: C_6  and  S_12
    9  A    between atoms: C_11  and  C_14
   10  A    between atoms: C_14  and  C_22
   11  A    between atoms: C_19  and  C_37
                            x       y       z     vdW  Elec       q    Type
                         _______ _______ _______ _____ _____    ______ ____

>  <TORSDO>
F 11

$$$$
