=
 OpenBabel11062410433D

 32 36  0  0  1  0  0  0  0  0999 V2000
  161.2230  210.3900  151.0110 C   0  0  1  0  0  3  0  0  0  0  0  0
  161.5010  211.4450  147.5980 C   0  0  2  0  0  3  0  0  0  0  0  0
  156.7040  213.2790  149.0860 C   0  0  0  0  0  2  0  0  0  0  0  0
  157.0820  212.0640  148.2180 C   0  0  0  0  0  2  0  0  0  0  0  0
  162.2980  210.9940  148.8180 C   0  0  1  0  0  0  0  0  0  0  0  0
  161.1530  212.6750  150.2180 O   0  0  0  0  0  0  0  0  0  0  0  0
  161.0530  210.8010  152.4600 C   0  0  0  0  0  1  0  0  0  0  0  0
  157.8920  213.9380  149.7440 C   0  0  0  0  0  3  0  0  0  0  0  0
  160.2290  212.9300  149.2120 C   0  0  0  0  0  0  0  0  0  0  0  0
  159.0990  213.4930  149.5270 C   0  0  0  0  0  0  0  0  0  0  0  0
  159.9480  213.1210  146.6530 C   0  0  2  0  0  3  0  0  0  0  0  0
  162.1760  208.5880  149.5130 C   0  0  1  0  0  3  0  0  0  0  0  0
  161.9470  211.4940  150.2290 C   0  0  1  0  0  3  0  0  0  0  0  0
  162.9480  209.6230  148.6960 C   0  0  0  0  0  2  0  0  0  0  0  0
  161.9970  209.0720  150.9560 C   0  0  0  0  0  2  0  0  0  0  0  0
  157.4730  212.4400  146.7860 C   0  0  0  0  0  2  0  0  0  0  0  0
  158.4860  213.5790  146.7110 C   0  0  0  0  0  2  0  0  0  0  0  0
  162.8920  212.0190  147.8850 C   0  0  0  0  0  2  0  0  0  0  0  0
  160.4810  212.4650  147.8650 N   0  0  0  0  0  0  0  0  0  0  0  0
  160.9140  208.3290  148.9030 O   0  0  0  0  0  0  0  0  0  0  0  0
  160.5490  207.0710  148.4150 C   0  0  0  0  0  0  0  0  0  0  0  0
  160.7460  206.7000  146.9830 C   0  0  0  0  0  1  0  0  0  0  0  0
  160.0340  206.2330  149.1990 O   0  0  0  0  0  0  0  0  0  0  0  0
  160.8620  214.2550  146.1750 C   0  0  0  0  0  2  0  0  0  0  0  0
  161.0730  213.0300  143.9990 C   0  0  0  0  0  3  0  0  0  0  0  0
  161.7930  212.6810  142.8530 C   0  0  0  0  0  0  0  0  0  0  0  0
  163.6160  214.1060  143.5650 C   0  0  0  0  0  3  0  0  0  0  0  0
  163.0650  213.2190  142.6370 C   0  0  0  0  0  3  0  0  0  0  0  0
  162.8970  214.4530  144.7130 C   0  0  0  0  0  3  0  0  0  0  0  0
  161.6240  213.9140  144.9330 C   0  0  0  0  0  0  0  0  0  0  0  0
  161.2290  211.7640  141.9040 C   0  0  0  0  0  0  0  0  0  0  0  0
  160.7730  211.0240  141.1390 N   0  0  0  0  0  0  0  0  0  0  0  0
  1  7  1  1  0  0  0
  2 19  1  0  0  0  0
  2 18  1  6  0  0  0
  2  5  1  0  0  0  0
  3  8  1  0  0  0  0
  4  3  1  0  0  0  0
  5 18  1  6  0  0  0
  5 13  1  0  0  0  0
  9 10  2  0  0  0  0
  9  6  1  0  0  0  0
 10  8  2  0  0  0  0
 11 24  1  1  0  0  0
 11 17  1  0  0  0  0
 11 19  1  0  0  0  0
 12 20  1  6  0  0  0
 12 15  1  0  0  0  0
 13  6  1  6  0  0  0
 13  1  1  0  0  0  0
 14  5  1  0  0  0  0
 14 12  1  0  0  0  0
 15  1  1  0  0  0  0
 16  4  1  0  0  0  0
 17 16  1  0  0  0  0
 19  9  1  0  0  0  0
 21 20  1  0  0  0  0
 21 23  2  0  0  0  0
 22 21  1  0  0  0  0
 25 30  1  0  0  0  0
 26 25  2  0  0  0  0
 27 29  1  0  0  0  0
 28 26  1  0  0  0  0
 28 27  2  0  0  0  0
 29 30  2  0  0  0  0
 30 24  1  0  0  0  0
 31 26  1  0  0  0  0
 32 31  3  0  0  0  0
M  END
>  <MODEL>
1

>  <REMARK>
 VINA RESULT:      -2.9      0.000      0.000
  Name = 
  5 active torsions:
  status: ('A' for Active; 'I' for Inactive)
    1  A    between atoms: C_1  and  O_17
    2  A    between atoms: C_7  and  C_22
    3  A    between atoms: C_16  and  C_27
    4  A    between atoms: O_17  and  C_19
    5  A    between atoms: C_27  and  C_32
                            x       y       z     vdW  Elec       q    Type
                         _______ _______ _______ _____ _____    ______ ____

>  <TORSDO>
F 5

$$$$
=
 OpenBabel11062410433D

 32 36  0  0  1  0  0  0  0  0999 V2000
  160.2010  211.7090  155.9960 C   0  0  1  0  0  3  0  0  0  0  0  0
  159.5290  208.5040  154.5430 C   0  0  2  0  0  3  0  0  0  0  0  0
  162.8650  210.7860  151.0440 C   0  0  0  0  0  2  0  0  0  0  0  0
  161.3410  210.5790  150.9780 C   0  0  0  0  0  2  0  0  0  0  0  0
  159.5020  209.2970  155.8450 C   0  0  1  0  0  0  0  0  0  0  0  0
  161.8410  210.0040  155.4920 O   0  0  0  0  0  0  0  0  0  0  0  0
  161.2420  212.6640  156.5470 C   0  0  0  0  0  1  0  0  0  0  0  0
  163.4610  210.4340  152.3850 C   0  0  0  0  0  3  0  0  0  0  0  0
  161.8220  209.5240  154.1880 C   0  0  0  0  0  0  0  0  0  0  0  0
  162.7050  209.9700  153.3420 C   0  0  0  0  0  0  0  0  0  0  0  0
  160.9090  207.6330  152.6860 C   0  0  2  0  0  3  0  0  0  0  0  0
  157.7560  211.0720  156.1380 C   0  0  1  0  0  3  0  0  0  0  0  0
  160.6440  210.2570  156.2180 C   0  0  1  0  0  3  0  0  0  0  0  0
  158.1130  209.6080  156.3870 C   0  0  0  0  0  2  0  0  0  0  0  0
  158.8600  211.9910  156.6760 C   0  0  0  0  0  2  0  0  0  0  0  0
  160.9390  209.1480  150.6100 C   0  0  0  0  0  2  0  0  0  0  0  0
  161.6630  208.0830  151.4290 C   0  0  0  0  0  2  0  0  0  0  0  0
  159.8390  207.8280  155.8820 C   0  0  0  0  0  2  0  0  0  0  0  0
  160.7610  208.6380  153.7590 N   0  0  0  0  0  0  0  0  0  0  0  0
  157.5450  211.2940  154.7460 O   0  0  0  0  0  0  0  0  0  0  0  0
  157.0540  212.4970  154.2320 C   0  0  0  0  0  0  0  0  0  0  0  0
  157.8640  213.3410  153.3060 C   0  0  0  0  0  1  0  0  0  0  0  0
  155.9030  212.8830  154.5640 O   0  0  0  0  0  0  0  0  0  0  0  0
  161.4710  206.3110  153.2220 C   0  0  0  0  0  2  0  0  0  0  0  0
  161.3640  205.3960  150.8910 C   0  0  0  0  0  3  0  0  0  0  0  0
  161.1710  204.3400  149.9960 C   0  0  0  0  0  0  0  0  0  0  0  0
  160.8580  202.8220  151.8560 C   0  0  0  0  0  3  0  0  0  0  0  0
  160.9180  203.0530  150.4790 C   0  0  0  0  0  3  0  0  0  0  0  0
  161.0490  203.8790  152.7510 C   0  0  0  0  0  3  0  0  0  0  0  0
  161.3000  205.1690  152.2700 C   0  0  0  0  0  0  0  0  0  0  0  0
  161.2260  204.5810  148.5830 C   0  0  0  0  0  0  0  0  0  0  0  0
  161.2690  204.7750  147.4420 N   0  0  0  0  0  0  0  0  0  0  0  0
  1 13  1  0  0  0  0
  1  7  1  1  0  0  0
  1 15  1  0  0  0  0
  2  5  1  0  0  0  0
  2 18  1  1  0  0  0
  3  8  1  0  0  0  0
  4  3  1  0  0  0  0
  5 18  1  1  0  0  0
  5 13  1  0  0  0  0
  5 14  1  0  0  0  0
  8 10  2  0  0  0  0
  9  6  1  0  0  0  0
 10  9  2  0  0  0  0
 11 24  1  1  0  0  0
 11 19  1  0  0  0  0
 12 20  1  6  0  0  0
 12 14  1  0  0  0  0
 12 15  1  0  0  0  0
 13  6  1  6  0  0  0
 16  4  1  0  0  0  0
 16 17  1  0  0  0  0
 17 11  1  0  0  0  0
 19  9  1  0  0  0  0
 19  2  1  0  0  0  0
 21 23  2  0  0  0  0
 21 20  1  0  0  0  0
 22 21  1  0  0  0  0
 25 30  1  0  0  0  0
 26 28  1  0  0  0  0
 26 25  2  0  0  0  0
 27 29  1  0  0  0  0
 28 27  2  0  0  0  0
 30 29  2  0  0  0  0
 30 24  1  0  0  0  0
 31 26  1  0  0  0  0
 32 31  3  0  0  0  0
M  END
>  <MODEL>
2

>  <REMARK>
 VINA RESULT:      -1.2      5.593      8.786
  Name = 
  5 active torsions:
  status: ('A' for Active; 'I' for Inactive)
    1  A    between atoms: C_1  and  O_17
    2  A    between atoms: C_7  and  C_22
    3  A    between atoms: C_16  and  C_27
    4  A    between atoms: O_17  and  C_19
    5  A    between atoms: C_27  and  C_32
                            x       y       z     vdW  Elec       q    Type
                         _______ _______ _______ _____ _____    ______ ____

>  <TORSDO>
F 5

$$$$
=
 OpenBabel11062410433D

 32 36  0  0  1  0  0  0  0  0999 V2000
  161.6850  212.2530  147.6610 C   0  0  1  0  0  3  0  0  0  0  0  0
  160.7070  210.6170  150.6950 C   0  0  2  0  0  3  0  0  0  0  0  0
  161.7210  206.5630  147.3610 C   0  0  0  0  0  2  0  0  0  0  0  0
  160.3800  207.1520  147.8340 C   0  0  0  0  0  2  0  0  0  0  0  0
  161.2330  211.9250  150.1140 C   0  0  1  0  0  0  0  0  0  0  0  0
  163.0360  210.7100  148.9450 O   0  0  0  0  0  0  0  0  0  0  0  0
  162.7670  212.4610  146.6190 C   0  0  0  0  0  1  0  0  0  0  0  0
  162.9180  207.3790  147.7850 C   0  0  0  0  0  3  0  0  0  0  0  0
  162.4390  209.4880  149.2290 C   0  0  0  0  0  0  0  0  0  0  0  0
  162.7620  208.4510  148.5120 C   0  0  0  0  0  0  0  0  0  0  0  0
  161.1030  208.1990  151.0220 C   0  0  2  0  0  3  0  0  0  0  0  0
  159.6820  213.3480  148.7520 C   0  0  1  0  0  3  0  0  0  0  0  0
  162.3160  211.9350  149.0230 C   0  0  1  0  0  3  0  0  0  0  0  0
  160.2520  213.0900  150.1450 C   0  0  0  0  0  2  0  0  0  0  0  0
  160.8150  213.5090  147.7320 C   0  0  0  0  0  2  0  0  0  0  0  0
  159.9890  206.7110  149.2480 C   0  0  0  0  0  2  0  0  0  0  0  0
  161.1140  206.8650  150.2670 C   0  0  0  0  0  2  0  0  0  0  0  0
  161.6840  211.4920  151.4860 C   0  0  0  0  0  2  0  0  0  0  0  0
  161.3930  209.4090  150.2260 N   0  0  0  0  0  0  0  0  0  0  0  0
  158.8080  212.2850  148.3770 O   0  0  0  0  0  0  0  0  0  0  0  0
  157.5130  212.4980  147.8980 C   0  0  0  0  0  0  0  0  0  0  0  0
  157.1700  212.3120  146.4580 C   0  0  0  0  0  1  0  0  0  0  0  0
  156.6140  212.8630  148.6990 O   0  0  0  0  0  0  0  0  0  0  0  0
  161.9760  208.1270  152.2800 C   0  0  0  0  0  2  0  0  0  0  0  0
  160.7670  209.2530  154.1650 C   0  0  0  0  0  3  0  0  0  0  0  0
  160.0540  209.2060  155.3660 C   0  0  0  0  0  0  0  0  0  0  0  0
  160.1580  206.7870  155.3330 C   0  0  0  0  0  3  0  0  0  0  0  0
  159.7500  207.9730  155.9500 C   0  0  0  0  0  3  0  0  0  0  0  0
  160.8740  206.8340  154.1330 C   0  0  0  0  0  3  0  0  0  0  0  0
  161.1810  208.0680  153.5470 C   0  0  0  0  0  0  0  0  0  0  0  0
  159.6420  210.4250  156.0020 C   0  0  0  0  0  0  0  0  0  0  0  0
  159.3090  211.4080  156.5150 N   0  0  0  0  0  0  0  0  0  0  0  0
  1  7  1  6  0  0  0
  1 15  1  0  0  0  0
  1 13  1  0  0  0  0
  2 18  1  1  0  0  0
  3  8  1  0  0  0  0
  3  4  1  0  0  0  0
  4 16  1  0  0  0  0
  5 14  1  6  0  0  0
  5  2  1  0  0  0  0
  5 18  1  0  0  0  0
  6  9  1  0  0  0  0
  8 10  2  0  0  0  0
  9 19  1  0  0  0  0
 10  9  2  0  0  0  0
 11 24  1  1  0  0  0
 12 20  1  6  0  0  0
 12 14  1  0  0  0  0
 13  6  1  6  0  0  0
 13  5  1  0  0  0  0
 15 12  1  0  0  0  0
 16 17  1  0  0  0  0
 17 11  1  0  0  0  0
 19  2  1  0  0  0  0
 19 11  1  0  0  0  0
 21 20  1  0  0  0  0
 21 23  2  0  0  0  0
 22 21  1  0  0  0  0
 24 30  1  0  0  0  0
 25 26  1  0  0  0  0
 26 28  2  0  0  0  0
 26 31  1  0  0  0  0
 27 28  1  0  0  0  0
 29 27  2  0  0  0  0
 30 29  1  0  0  0  0
 30 25  2  0  0  0  0
 31 32  3  0  0  0  0
M  END
>  <MODEL>
3

>  <REMARK>
 VINA RESULT:      -0.7      2.914      8.349
  Name = 
  5 active torsions:
  status: ('A' for Active; 'I' for Inactive)
    1  A    between atoms: C_1  and  O_17
    2  A    between atoms: C_7  and  C_22
    3  A    between atoms: C_16  and  C_27
    4  A    between atoms: O_17  and  C_19
    5  A    between atoms: C_27  and  C_32
                            x       y       z     vdW  Elec       q    Type
                         _______ _______ _______ _____ _____    ______ ____

>  <TORSDO>
F 5

$$$$
=
 OpenBabel11062410433D

 32 36  0  0  1  0  0  0  0  0999 V2000
  162.1210  209.9840  153.2140 C   0  0  1  0  0  3  0  0  0  0  0  0
  160.3100  206.9090  152.8920 C   0  0  2  0  0  3  0  0  0  0  0  0
  162.2550  207.7330  147.9810 C   0  0  0  0  0  2  0  0  0  0  0  0
  160.8330  207.9330  148.5360 C   0  0  0  0  0  2  0  0  0  0  0  0
  160.9780  207.8470  153.8920 C   0  0  1  0  0  0  0  0  0  0  0  0
  163.0450  207.8520  152.5420 O   0  0  0  0  0  0  0  0  0  0  0  0
  163.4570  210.6920  153.1040 C   0  0  0  0  0  1  0  0  0  0  0  0
  163.2760  207.4170  149.0470 C   0  0  0  0  0  3  0  0  0  0  0  0
  162.3950  207.2250  151.4860 C   0  0  0  0  0  0  0  0  0  0  0  0
  162.9140  207.3030  150.2950 C   0  0  0  0  0  0  0  0  0  0  0  0
  160.6000  205.4630  150.9080 C   0  0  2  0  0  3  0  0  0  0  0  0
  159.8850  210.0460  154.3970 C   0  0  1  0  0  3  0  0  0  0  0  0
  162.3310  208.5100  153.5830 C   0  0  1  0  0  3  0  0  0  0  0  0
  160.0270  208.5870  154.8240 C   0  0  0  0  0  2  0  0  0  0  0  0
  161.2650  210.7000  154.2600 C   0  0  0  0  0  2  0  0  0  0  0  0
  160.0500  206.6250  148.6820 C   0  0  0  0  0  2  0  0  0  0  0  0
  160.8320  205.5240  149.3940 C   0  0  0  0  0  2  0  0  0  0  0  0
  161.0140  206.3600  154.1370 C   0  0  0  0  0  2  0  0  0  0  0  0
  161.1050  206.6050  151.6980 N   0  0  0  0  0  0  0  0  0  0  0  0
  159.1600  210.1280  153.1720 O   0  0  0  0  0  0  0  0  0  0  0  0
  158.5750  211.3100  152.7120 C   0  0  0  0  0  0  0  0  0  0  0  0
  157.4690  211.9790  153.4570 C   0  0  0  0  0  1  0  0  0  0  0  0
  158.9850  211.8220  151.6380 O   0  0  0  0  0  0  0  0  0  0  0  0
  161.0700  204.1230  151.4840 C   0  0  0  0  0  2  0  0  0  0  0  0
  161.1420  203.3200  149.1120 C   0  0  0  0  0  3  0  0  0  0  0  0
  161.1140  202.2930  148.1630 C   0  0  0  0  0  0  0  0  0  0  0  0
  160.9680  200.6560  149.9410 C   0  0  0  0  0  3  0  0  0  0  0  0
  161.0270  200.9620  148.5780 C   0  0  0  0  0  3  0  0  0  0  0  0
  160.9920  201.6830  150.8890 C   0  0  0  0  0  3  0  0  0  0  0  0
  161.0780  203.0180  150.4760 C   0  0  0  0  0  0  0  0  0  0  0  0
  161.1680  202.6100  146.7650 C   0  0  0  0  0  0  0  0  0  0  0  0
  161.2120  202.8650  145.6360 N   0  0  0  0  0  0  0  0  0  0  0  0
  1  7  1  1  0  0  0
  1 13  1  0  0  0  0
  1 15  1  0  0  0  0
  2  5  1  0  0  0  0
  2 18  1  1  0  0  0
  3  4  1  0  0  0  0
  3  8  1  0  0  0  0
  4 16  1  0  0  0  0
  5 18  1  1  0  0  0
  5 14  1  0  0  0  0
  8 10  2  0  0  0  0
  9 19  1  0  0  0  0
  9  6  1  0  0  0  0
 10  9  2  0  0  0  0
 11 24  1  1  0  0  0
 11 19  1  0  0  0  0
 12 20  1  6  0  0  0
 12 14  1  0  0  0  0
 13  6  1  6  0  0  0
 13  5  1  0  0  0  0
 15 12  1  0  0  0  0
 16 17  1  0  0  0  0
 17 11  1  0  0  0  0
 19  2  1  0  0  0  0
 21 20  1  0  0  0  0
 21 22  1  0  0  0  0
 23 21  2  0  0  0  0
 25 30  1  0  0  0  0
 26 28  1  0  0  0  0
 26 25  2  0  0  0  0
 27 29  1  0  0  0  0
 28 27  2  0  0  0  0
 30 29  2  0  0  0  0
 30 24  1  0  0  0  0
 31 26  1  0  0  0  0
 32 31  3  0  0  0  0
M  END
>  <MODEL>
4

>  <REMARK>
 VINA RESULT:      -0.1      5.255      8.602
  Name = 
  5 active torsions:
  status: ('A' for Active; 'I' for Inactive)
    1  A    between atoms: C_1  and  O_17
    2  A    between atoms: C_7  and  C_22
    3  A    between atoms: C_16  and  C_27
    4  A    between atoms: O_17  and  C_19
    5  A    between atoms: C_27  and  C_32
                            x       y       z     vdW  Elec       q    Type
                         _______ _______ _______ _____ _____    ______ ____

>  <TORSDO>
F 5

$$$$
