=
 OpenBabel11052422073D

 25 27  0  0  1  0  0  0  0  0999 V2000
  161.6330  206.3370  148.4150 C   0  0  0  0  0  0  0  0  0  0  0  0
  161.3640  205.4400  149.4780 C   0  0  0  0  0  0  0  0  0  0  0  0
  162.1700  208.0710  150.0380 C   0  0  0  0  0  3  0  0  0  0  0  0
  161.9070  207.1910  151.0850 C   0  0  0  0  0  3  0  0  0  0  0  0
  161.2530  204.9870  151.8800 C   0  0  0  0  0  0  0  0  0  0  0  0
  161.3830  205.3970  153.2020 O   0  0  0  0  0  1  0  0  0  0  0  0
  160.9860  204.1110  149.2330 C   0  0  0  0  0  3  0  0  0  0  0  0
  162.0340  207.6480  148.7160 C   0  0  0  0  0  3  0  0  0  0  0  0
  160.8680  203.6720  151.6090 C   0  0  0  0  0  3  0  0  0  0  0  0
  160.7310  203.2340  150.2900 C   0  0  0  0  0  0  0  0  0  0  0  0
  161.5070  205.8770  150.8210 C   0  0  0  0  0  0  0  0  0  0  0  0
  161.4780  205.9530  146.9900 C   0  0  0  0  0  0  0  0  0  0  0  0
  161.1810  205.2900  144.3010 C   0  0  0  0  0  3  0  0  0  0  0  0
  162.4830  205.2520  146.2910 C   0  0  0  0  0  0  0  0  0  0  0  0
  162.3070  204.9400  144.9790 N   0  0  0  0  0  0  0  0  0  0  0  0
  160.1630  205.9860  144.9510 C   0  0  0  0  0  3  0  0  0  0  0  0
  163.6760  204.8320  146.9480 N   0  0  0  0  0  1  0  0  0  0  0  0
  160.3170  206.3170  146.2960 C   0  0  0  0  0  3  0  0  0  0  0  0
  160.3440  201.8230  150.0090 C   0  0  0  0  0  2  0  0  0  0  0  0
  160.0420  201.6490  148.5310 C   0  0  0  0  0  2  0  0  0  0  0  0
  161.2840  201.1810  147.7910 C   0  0  1  0  0  3  0  0  0  0  0  0
  161.8470  200.0880  148.4570 O   0  0  0  0  0  1  0  0  0  0  0  0
  160.9340  200.8290  146.3740 C   0  0  0  0  0  0  0  0  0  0  0  0
  160.3840  201.8470  145.4290 C   0  0  0  0  0  1  0  0  0  0  0  0
  161.0890  199.6830  145.9850 O   0  0  0  0  0  0  0  0  0  0  0  0
  1  8  2  0  0  0  0
  1  2  1  0  0  0  0
  2 11  1  0  0  0  0
  3  4  2  0  0  0  0
  5  6  1  0  0  0  0
  7  2  2  0  0  0  0
  7 10  1  0  0  0  0
  8  3  1  0  0  0  0
  9  5  1  0  0  0  0
 10  9  2  0  0  0  0
 11  4  1  0  0  0  0
 11  5  2  0  0  0  0
 12  1  1  0  0  0  0
 13 16  1  0  0  0  0
 13 15  2  0  0  0  0
 14 17  1  0  0  0  0
 14 12  2  0  0  0  0
 15 14  1  0  0  0  0
 16 18  2  0  0  0  0
 18 12  1  0  0  0  0
 19 10  1  0  0  0  0
 20 19  1  0  0  0  0
 21 22  1  1  0  0  0
 21 20  1  0  0  0  0
 23 21  1  0  0  0  0
 24 23  1  0  0  0  0
 25 23  2  0  0  0  0
M  END
>  <MODEL>
1

>  <REMARK>
 VINA RESULT:      -9.3      0.000      0.000
  Name = 
  5 active torsions:
  status: ('A' for Active; 'I' for Inactive)
    1  A    between atoms: C_1  and  C_5
    2  A    between atoms: C_2  and  C_21
    3  A    between atoms: C_6  and  C_15
    4  A    between atoms: C_6  and  C_23
    5  A    between atoms: C_15  and  C_21
                            x       y       z     vdW  Elec       q    Type
                         _______ _______ _______ _____ _____    ______ ____

>  <TORSDO>
F 5

$$$$
=
 OpenBabel11052422073D

 25 27  0  0  1  0  0  0  0  0999 V2000
  161.2270  203.2260  147.4880 C   0  0  0  0  0  0  0  0  0  0  0  0
  161.1490  203.8500  148.7580 C   0  0  0  0  0  0  0  0  0  0  0  0
  161.0450  201.0500  148.5660 C   0  0  0  0  0  3  0  0  0  0  0  0
  160.9680  201.6610  149.8160 C   0  0  0  0  0  3  0  0  0  0  0  0
  160.9270  203.6690  151.1880 C   0  0  0  0  0  0  0  0  0  0  0  0
  160.8010  202.9070  152.3440 O   0  0  0  0  0  1  0  0  0  0  0  0
  161.1700  205.2480  148.8870 C   0  0  0  0  0  3  0  0  0  0  0  0
  161.1740  201.8260  147.4140 C   0  0  0  0  0  3  0  0  0  0  0  0
  160.9600  205.0610  151.2890 C   0  0  0  0  0  3  0  0  0  0  0  0
  161.0850  205.8500  150.1440 C   0  0  0  0  0  0  0  0  0  0  0  0
  161.0160  203.0550  149.9270 C   0  0  0  0  0  0  0  0  0  0  0  0
  161.3920  203.9970  146.2310 C   0  0  0  0  0  0  0  0  0  0  0  0
  161.6550  205.4790  143.8880 C   0  0  0  0  0  3  0  0  0  0  0  0
  162.5930  204.6680  145.9170 C   0  0  0  0  0  0  0  0  0  0  0  0
  162.6910  205.3810  144.7630 N   0  0  0  0  0  0  0  0  0  0  0  0
  160.4490  204.8350  144.1580 C   0  0  0  0  0  3  0  0  0  0  0  0
  163.7260  204.5840  146.7780 N   0  0  0  0  0  1  0  0  0  0  0  0
  160.3210  204.0960  145.3330 C   0  0  0  0  0  3  0  0  0  0  0  0
  161.0960  207.3350  150.2590 C   0  0  0  0  0  2  0  0  0  0  0  0
  162.3560  207.7940  150.9730 C   0  0  0  0  0  2  0  0  0  0  0  0
  162.1450  209.1720  151.5770 C   0  0  1  0  0  3  0  0  0  0  0  0
  161.8880  210.1000  150.5630 O   0  0  0  0  0  1  0  0  0  0  0  0
  161.0190  209.1310  152.5700 C   0  0  0  0  0  0  0  0  0  0  0  0
  160.9870  208.1230  153.6720 C   0  0  0  0  0  1  0  0  0  0  0  0
  160.1010  209.9280  152.4680 O   0  0  0  0  0  0  0  0  0  0  0  0
  1  2  1  0  0  0  0
  2  7  2  0  0  0  0
  2 11  1  0  0  0  0
  3  4  2  0  0  0  0
  4 11  1  0  0  0  0
  5  9  1  0  0  0  0
  5  6  1  0  0  0  0
  7 10  1  0  0  0  0
  8  1  2  0  0  0  0
  8  3  1  0  0  0  0
 10 19  1  0  0  0  0
 10  9  2  0  0  0  0
 11  5  2  0  0  0  0
 12  1  1  0  0  0  0
 13 16  2  0  0  0  0
 13 15  1  0  0  0  0
 14 12  1  0  0  0  0
 14 17  1  0  0  0  0
 15 14  2  0  0  0  0
 16 18  1  0  0  0  0
 18 12  2  0  0  0  0
 19 20  1  0  0  0  0
 20 21  1  0  0  0  0
 21 22  1  6  0  0  0
 21 23  1  0  0  0  0
 23 24  1  0  0  0  0
 25 23  2  0  0  0  0
M  END
>  <MODEL>
2

>  <REMARK>
 VINA RESULT:      -8.5      2.131      5.676
  Name = 
  5 active torsions:
  status: ('A' for Active; 'I' for Inactive)
    1  A    between atoms: C_1  and  C_5
    2  A    between atoms: C_2  and  C_21
    3  A    between atoms: C_6  and  C_15
    4  A    between atoms: C_6  and  C_23
    5  A    between atoms: C_15  and  C_21
                            x       y       z     vdW  Elec       q    Type
                         _______ _______ _______ _____ _____    ______ ____

>  <TORSDO>
F 5

$$$$
=
 OpenBabel11052422073D

 25 27  0  0  1  0  0  0  0  0999 V2000
  161.2400  203.1560  147.7700 C   0  0  0  0  0  0  0  0  0  0  0  0
  161.1240  203.7780  149.0380 C   0  0  0  0  0  0  0  0  0  0  0  0
  161.0880  200.9760  148.8440 C   0  0  0  0  0  3  0  0  0  0  0  0
  160.9740  201.5840  150.0920 C   0  0  0  0  0  3  0  0  0  0  0  0
  160.8630  203.5900  151.4630 C   0  0  0  0  0  0  0  0  0  0  0  0
  160.7330  202.8250  152.6170 O   0  0  0  0  0  1  0  0  0  0  0  0
  161.1120  205.1750  149.1670 C   0  0  0  0  0  3  0  0  0  0  0  0
  161.2200  201.7550  147.6940 C   0  0  0  0  0  3  0  0  0  0  0  0
  160.8620  204.9830  151.5650 C   0  0  0  0  0  3  0  0  0  0  0  0
  160.9900  205.7750  150.4220 C   0  0  0  0  0  0  0  0  0  0  0  0
  160.9890  202.9790  150.2040 C   0  0  0  0  0  0  0  0  0  0  0  0
  161.4100  203.9310  146.5160 C   0  0  0  0  0  0  0  0  0  0  0  0
  161.7910  205.3780  144.1670 C   0  0  0  0  0  3  0  0  0  0  0  0
  160.8380  203.5150  145.2950 C   0  0  0  0  0  0  0  0  0  0  0  0
  161.0390  204.2450  144.1660 N   0  0  0  0  0  0  0  0  0  0  0  0
  162.3790  205.8260  145.3490 C   0  0  0  0  0  3  0  0  0  0  0  0
  160.0170  202.3510  145.2300 N   0  0  0  0  0  1  0  0  0  0  0  0
  162.1870  205.0970  146.5220 C   0  0  0  0  0  3  0  0  0  0  0  0
  160.9650  207.2600  150.5370 C   0  0  0  0  0  2  0  0  0  0  0  0
  162.2980  207.7650  151.0610 C   0  0  0  0  0  2  0  0  0  0  0  0
  162.1340  209.1460  151.6740 C   0  0  1  0  0  3  0  0  0  0  0  0
  161.9050  210.0870  150.6670 O   0  0  0  0  0  1  0  0  0  0  0  0
  161.0080  209.1340  152.6680 C   0  0  0  0  0  0  0  0  0  0  0  0
  161.0050  208.1990  153.8330 C   0  0  0  0  0  1  0  0  0  0  0  0
  160.0660  209.8940  152.5160 O   0  0  0  0  0  0  0  0  0  0  0  0
  1  2  1  0  0  0  0
  2  7  2  0  0  0  0
  2 11  1  0  0  0  0
  3  4  2  0  0  0  0
  4 11  1  0  0  0  0
  5  9  1  0  0  0  0
  5  6  1  0  0  0  0
  7 10  1  0  0  0  0
  8  1  2  0  0  0  0
  8  3  1  0  0  0  0
 10 19  1  0  0  0  0
 10  9  2  0  0  0  0
 11  5  2  0  0  0  0
 12 18  1  0  0  0  0
 12  1  1  0  0  0  0
 13 16  1  0  0  0  0
 14 12  2  0  0  0  0
 15 13  2  0  0  0  0
 15 14  1  0  0  0  0
 16 18  2  0  0  0  0
 17 14  1  0  0  0  0
 19 20  1  0  0  0  0
 20 21  1  0  0  0  0
 21 22  1  6  0  0  0
 21 23  1  0  0  0  0
 23 24  1  0  0  0  0
 25 23  2  0  0  0  0
M  END
>  <MODEL>
3

>  <REMARK>
 VINA RESULT:      -8.4      2.313      5.805
  Name = 
  5 active torsions:
  status: ('A' for Active; 'I' for Inactive)
    1  A    between atoms: C_1  and  C_5
    2  A    between atoms: C_2  and  C_21
    3  A    between atoms: C_6  and  C_15
    4  A    between atoms: C_6  and  C_23
    5  A    between atoms: C_15  and  C_21
                            x       y       z     vdW  Elec       q    Type
                         _______ _______ _______ _____ _____    ______ ____

>  <TORSDO>
F 5

$$$$
=
 OpenBabel11052422073D

 25 27  0  0  1  0  0  0  0  0999 V2000
  161.2730  202.9430  147.6460 C   0  0  0  0  0  0  0  0  0  0  0  0
  161.1500  203.4370  148.9680 C   0  0  0  0  0  0  0  0  0  0  0  0
  161.2210  200.6670  148.5090 C   0  0  0  0  0  3  0  0  0  0  0  0
  161.1000  201.1500  149.8110 C   0  0  0  0  0  3  0  0  0  0  0  0
  160.9270  203.0110  151.3670 C   0  0  0  0  0  0  0  0  0  0  0  0
  160.8420  202.1360  152.4440 O   0  0  0  0  0  1  0  0  0  0  0  0
  161.0840  204.8140  149.2290 C   0  0  0  0  0  3  0  0  0  0  0  0
  161.3070  201.5560  147.4380 C   0  0  0  0  0  3  0  0  0  0  0  0
  160.8730  204.3870  151.6000 C   0  0  0  0  0  3  0  0  0  0  0  0
  160.9550  205.2880  150.5370 C   0  0  0  0  0  0  0  0  0  0  0  0
  161.0610  202.5270  150.0540 C   0  0  0  0  0  0  0  0  0  0  0  0
  161.3970  203.8390  146.4690 C   0  0  0  0  0  0  0  0  0  0  0  0
  161.6900  205.5140  144.2630 C   0  0  0  0  0  3  0  0  0  0  0  0
  160.7710  203.5490  145.2390 C   0  0  0  0  0  0  0  0  0  0  0  0
  160.9310  204.3890  144.1800 N   0  0  0  0  0  0  0  0  0  0  0  0
  162.3300  205.8390  145.4580 C   0  0  0  0  0  3  0  0  0  0  0  0
  159.9400  202.4010  145.0920 N   0  0  0  0  0  1  0  0  0  0  0  0
  162.1820  204.9960  146.5590 C   0  0  0  0  0  3  0  0  0  0  0  0
  160.8730  206.7530  150.7920 C   0  0  0  0  0  2  0  0  0  0  0  0
  160.9760  207.5180  149.4840 C   0  0  0  0  0  2  0  0  0  0  0  0
  162.2950  208.2690  149.4170 C   0  0  1  0  0  3  0  0  0  0  0  0
  162.8640  208.1140  148.1490 O   0  0  0  0  0  1  0  0  0  0  0  0
  162.0760  209.7200  149.7360 C   0  0  0  0  0  0  0  0  0  0  0  0
  162.0390  210.7590  148.6620 C   0  0  0  0  0  1  0  0  0  0  0  0
  161.9380  210.0650  150.8980 O   0  0  0  0  0  0  0  0  0  0  0  0
  1  2  1  0  0  0  0
  2  7  2  0  0  0  0
  2 11  1  0  0  0  0
  3  4  2  0  0  0  0
  4 11  1  0  0  0  0
  5  9  1  0  0  0  0
  5  6  1  0  0  0  0
  7 10  1  0  0  0  0
  8  1  2  0  0  0  0
  8  3  1  0  0  0  0
 10 19  1  0  0  0  0
 10  9  2  0  0  0  0
 11  5  2  0  0  0  0
 12 18  1  0  0  0  0
 12  1  1  0  0  0  0
 13 16  1  0  0  0  0
 14 12  2  0  0  0  0
 15 13  2  0  0  0  0
 15 14  1  0  0  0  0
 16 18  2  0  0  0  0
 17 14  1  0  0  0  0
 20 19  1  0  0  0  0
 21 22  1  6  0  0  0
 21 20  1  0  0  0  0
 21 23  1  0  0  0  0
 23 25  2  0  0  0  0
 24 23  1  0  0  0  0
M  END
>  <MODEL>
4

>  <REMARK>
 VINA RESULT:      -8.1      2.249      5.411
  Name = 
  5 active torsions:
  status: ('A' for Active; 'I' for Inactive)
    1  A    between atoms: C_1  and  C_5
    2  A    between atoms: C_2  and  C_21
    3  A    between atoms: C_6  and  C_15
    4  A    between atoms: C_6  and  C_23
    5  A    between atoms: C_15  and  C_21
                            x       y       z     vdW  Elec       q    Type
                         _______ _______ _______ _____ _____    ______ ____

>  <TORSDO>
F 5

$$$$
=
 OpenBabel11052422073D

 25 27  0  0  1  0  0  0  0  0999 V2000
  161.5050  207.2150  151.5540 C   0  0  0  0  0  0  0  0  0  0  0  0
  161.2890  205.8700  151.1640 C   0  0  0  0  0  0  0  0  0  0  0  0
  161.2070  206.5700  153.8830 C   0  0  0  0  0  3  0  0  0  0  0  0
  160.9940  205.2470  153.5030 C   0  0  0  0  0  3  0  0  0  0  0  0
  160.8290  203.5450  151.7730 C   0  0  0  0  0  0  0  0  0  0  0  0
  160.5740  202.5650  152.7260 O   0  0  0  0  0  1  0  0  0  0  0  0
  161.3490  205.4810  149.8170 C   0  0  0  0  0  3  0  0  0  0  0  0
  161.4600  207.5440  152.9170 C   0  0  0  0  0  3  0  0  0  0  0  0
  160.8860  203.1870  150.4240 C   0  0  0  0  0  3  0  0  0  0  0  0
  161.1410  204.1510  149.4470 C   0  0  0  0  0  0  0  0  0  0  0  0
  161.0330  204.8830  152.1530 C   0  0  0  0  0  0  0  0  0  0  0  0
  161.7510  208.2990  150.5710 C   0  0  0  0  0  0  0  0  0  0  0  0
  162.1580  210.3210  148.7000 C   0  0  0  0  0  3  0  0  0  0  0  0
  161.9560  209.6370  150.9690 C   0  0  0  0  0  0  0  0  0  0  0  0
  162.1560  210.6020  150.0310 N   0  0  0  0  0  0  0  0  0  0  0  0
  161.9560  209.0140  148.2610 C   0  0  0  0  0  3  0  0  0  0  0  0
  161.9930  209.9940  152.3480 N   0  0  0  0  0  1  0  0  0  0  0  0
  161.7500  208.0050  149.2010 C   0  0  0  0  0  3  0  0  0  0  0  0
  161.2230  203.7570  148.0130 C   0  0  0  0  0  2  0  0  0  0  0  0
  161.8840  204.8600  147.2050 C   0  0  0  0  0  2  0  0  0  0  0  0
  162.0310  204.4340  145.7540 C   0  0  1  0  0  3  0  0  0  0  0  0
  161.5750  203.1220  145.5980 O   0  0  0  0  0  1  0  0  0  0  0  0
  161.2750  205.3780  144.8630 C   0  0  0  0  0  0  0  0  0  0  0  0
  160.1430  206.2030  145.3820 C   0  0  0  0  0  1  0  0  0  0  0  0
  161.5810  205.4650  143.6850 O   0  0  0  0  0  0  0  0  0  0  0  0
  1  8  1  0  0  0  0
  2  1  2  0  0  0  0
  2 11  1  0  0  0  0
  4  3  1  0  0  0  0
  5 11  1  0  0  0  0
  5  6  1  0  0  0  0
  7  2  1  0  0  0  0
  8  3  2  0  0  0  0
  9  5  2  0  0  0  0
 10  7  2  0  0  0  0
 10  9  1  0  0  0  0
 11  4  2  0  0  0  0
 12 14  1  0  0  0  0
 12  1  1  0  0  0  0
 13 15  1  0  0  0  0
 14 17  1  0  0  0  0
 15 14  2  0  0  0  0
 16 13  2  0  0  0  0
 16 18  1  0  0  0  0
 18 12  2  0  0  0  0
 19 10  1  0  0  0  0
 20 19  1  0  0  0  0
 21 22  1  1  0  0  0
 21 20  1  0  0  0  0
 23 24  1  0  0  0  0
 23 21  1  0  0  0  0
 25 23  2  0  0  0  0
M  END
>  <MODEL>
5

>  <REMARK>
 VINA RESULT:      -7.9      2.798      4.364
  Name = 
  5 active torsions:
  status: ('A' for Active; 'I' for Inactive)
    1  A    between atoms: C_1  and  C_5
    2  A    between atoms: C_2  and  C_21
    3  A    between atoms: C_6  and  C_15
    4  A    between atoms: C_6  and  C_23
    5  A    between atoms: C_15  and  C_21
                            x       y       z     vdW  Elec       q    Type
                         _______ _______ _______ _____ _____    ______ ____

>  <TORSDO>
F 5

$$$$
=
 OpenBabel11052422073D

 25 27  0  0  1  0  0  0  0  0999 V2000
  161.4600  205.4770  149.0380 C   0  0  0  0  0  0  0  0  0  0  0  0
  161.4290  206.3660  150.1410 C   0  0  0  0  0  0  0  0  0  0  0  0
  161.9470  207.3520  147.5620 C   0  0  0  0  0  3  0  0  0  0  0  0
  161.9170  208.2290  148.6440 C   0  0  0  0  0  3  0  0  0  0  0  0
  161.6440  208.6370  151.0270 C   0  0  0  0  0  0  0  0  0  0  0  0
  161.8670  209.9970  150.8450 O   0  0  0  0  0  1  0  0  0  0  0  0
  161.2000  205.9030  151.4460 C   0  0  0  0  0  3  0  0  0  0  0  0
  161.7200  205.9890  147.7580 C   0  0  0  0  0  3  0  0  0  0  0  0
  161.4050  208.1510  152.3140 C   0  0  0  0  0  3  0  0  0  0  0  0
  161.1800  206.7890  152.5250 C   0  0  0  0  0  0  0  0  0  0  0  0
  161.6620  207.7520  149.9350 C   0  0  0  0  0  0  0  0  0  0  0  0
  161.1990  204.0230  149.1800 C   0  0  0  0  0  0  0  0  0  0  0  0
  160.6550  201.3080  149.4690 C   0  0  0  0  0  3  0  0  0  0  0  0
  161.2310  203.1460  148.0760 C   0  0  0  0  0  0  0  0  0  0  0  0
  160.9630  201.8240  148.2500 N   0  0  0  0  0  0  0  0  0  0  0  0
  160.6090  202.1370  150.5890 C   0  0  0  0  0  3  0  0  0  0  0  0
  161.5740  203.6170  146.7750 N   0  0  0  0  0  1  0  0  0  0  0  0
  160.8800  203.4960  150.4380 C   0  0  0  0  0  3  0  0  0  0  0  0
  160.9490  206.2770  153.9040 C   0  0  0  0  0  2  0  0  0  0  0  0
  161.2530  207.3620  154.9220 C   0  0  0  0  0  2  0  0  0  0  0  0
  160.0310  207.6330  155.7840 C   0  0  1  0  0  3  0  0  0  0  0  0
  160.0980  206.8690  156.9530 O   0  0  0  0  0  1  0  0  0  0  0  0
  159.9400  209.0980  156.1000 C   0  0  0  0  0  0  0  0  0  0  0  0
  159.7360  210.1170  155.0270 C   0  0  0  0  0  1  0  0  0  0  0  0
  160.0500  209.4700  157.2570 O   0  0  0  0  0  0  0  0  0  0  0  0
  1 12  1  0  0  0  0
  1  2  1  0  0  0  0
  2  7  1  0  0  0  0
  3  8  1  0  0  0  0
  3  4  2  0  0  0  0
  4 11  1  0  0  0  0
  5  9  2  0  0  0  0
  6  5  1  0  0  0  0
  7 10  2  0  0  0  0
  8  1  2  0  0  0  0
  9 10  1  0  0  0  0
 10 19  1  0  0  0  0
 11  2  2  0  0  0  0
 11  5  1  0  0  0  0
 12 18  1  0  0  0  0
 13 16  1  0  0  0  0
 14 15  1  0  0  0  0
 14 12  2  0  0  0  0
 15 13  2  0  0  0  0
 17 14  1  0  0  0  0
 18 16  2  0  0  0  0
 19 20  1  0  0  0  0
 20 21  1  0  0  0  0
 21 23  1  0  0  0  0
 21 22  1  1  0  0  0
 23 25  2  0  0  0  0
 24 23  1  0  0  0  0
M  END
>  <MODEL>
6

>  <REMARK>
 VINA RESULT:      -7.7      3.601      6.814
  Name = 
  5 active torsions:
  status: ('A' for Active; 'I' for Inactive)
    1  A    between atoms: C_1  and  C_5
    2  A    between atoms: C_2  and  C_21
    3  A    between atoms: C_6  and  C_15
    4  A    between atoms: C_6  and  C_23
    5  A    between atoms: C_15  and  C_21
                            x       y       z     vdW  Elec       q    Type
                         _______ _______ _______ _____ _____    ______ ____

>  <TORSDO>
F 5

$$$$
=
 OpenBabel11052422073D

 25 27  0  0  1  0  0  0  0  0999 V2000
  161.2030  204.5600  149.8640 C   0  0  0  0  0  0  0  0  0  0  0  0
  161.3560  205.9080  150.2730 C   0  0  0  0  0  0  0  0  0  0  0  0
  160.9240  203.9040  152.1920 C   0  0  0  0  0  3  0  0  0  0  0  0
  161.0740  205.2290  152.5970 C   0  0  0  0  0  3  0  0  0  0  0  0
  161.4280  207.5750  152.0620 C   0  0  0  0  0  0  0  0  0  0  0  0
  161.3680  207.9170  153.4090 O   0  0  0  0  0  1  0  0  0  0  0  0
  161.5470  206.9370  149.3380 C   0  0  0  0  0  3  0  0  0  0  0  0
  160.9880  203.5740  150.8380 C   0  0  0  0  0  3  0  0  0  0  0  0
  161.6260  208.5790  151.1120 C   0  0  0  0  0  3  0  0  0  0  0  0
  161.6890  208.2630  149.7530 C   0  0  0  0  0  0  0  0  0  0  0  0
  161.2880  206.2380  151.6520 C   0  0  0  0  0  0  0  0  0  0  0  0
  161.2900  204.1450  148.4420 C   0  0  0  0  0  0  0  0  0  0  0  0
  161.5120  203.3790  145.7730 C   0  0  0  0  0  3  0  0  0  0  0  0
  160.9730  202.8350  148.0250 C   0  0  0  0  0  0  0  0  0  0  0  0
  161.0890  202.4930  146.7130 N   0  0  0  0  0  0  0  0  0  0  0  0
  161.8390  204.6840  146.1400 C   0  0  0  0  0  3  0  0  0  0  0  0
  160.4980  201.8650  148.9540 N   0  0  0  0  0  1  0  0  0  0  0  0
  161.7280  205.0620  147.4780 C   0  0  0  0  0  3  0  0  0  0  0  0
  161.8770  209.3430  148.7450 C   0  0  0  0  0  2  0  0  0  0  0  0
  162.2280  210.6480  149.4380 C   0  0  0  0  0  2  0  0  0  0  0  0
  161.6680  211.8250  148.6560 C   0  0  1  0  0  3  0  0  0  0  0  0
  160.8860  212.6220  149.4970 O   0  0  0  0  0  1  0  0  0  0  0  0
  162.7910  212.6190  148.0510 C   0  0  0  0  0  0  0  0  0  0  0  0
  162.6380  214.0720  147.7380 C   0  0  0  0  0  1  0  0  0  0  0  0
  163.8470  212.0660  147.7950 O   0  0  0  0  0  0  0  0  0  0  0  0
  1  2  2  0  0  0  0
  1  8  1  0  0  0  0
  2 11  1  0  0  0  0
  3  4  1  0  0  0  0
  5  6  1  0  0  0  0
  7 10  2  0  0  0  0
  7  2  1  0  0  0  0
  8  3  2  0  0  0  0
  9  5  2  0  0  0  0
 10  9  1  0  0  0  0
 11  5  1  0  0  0  0
 11  4  2  0  0  0  0
 12  1  1  0  0  0  0
 13 16  2  0  0  0  0
 13 15  1  0  0  0  0
 14 12  1  0  0  0  0
 14 17  1  0  0  0  0
 15 14  2  0  0  0  0
 16 18  1  0  0  0  0
 18 12  2  0  0  0  0
 19 20  1  0  0  0  0
 19 10  1  0  0  0  0
 21 20  1  0  0  0  0
 21 22  1  1  0  0  0
 23 21  1  0  0  0  0
 24 23  1  0  0  0  0
 25 23  2  0  0  0  0
M  END
>  <MODEL>
7

>  <REMARK>
 VINA RESULT:      -7.7      3.436      6.600
  Name = 
  5 active torsions:
  status: ('A' for Active; 'I' for Inactive)
    1  A    between atoms: C_1  and  C_5
    2  A    between atoms: C_2  and  C_21
    3  A    between atoms: C_6  and  C_15
    4  A    between atoms: C_6  and  C_23
    5  A    between atoms: C_15  and  C_21
                            x       y       z     vdW  Elec       q    Type
                         _______ _______ _______ _____ _____    ______ ____

>  <TORSDO>
F 5

$$$$
=
 OpenBabel11052422073D

 25 27  0  0  1  0  0  0  0  0999 V2000
  161.2540  206.8140  151.9090 C   0  0  0  0  0  0  0  0  0  0  0  0
  161.1040  206.0050  150.7550 C   0  0  0  0  0  0  0  0  0  0  0  0
  161.2060  204.8130  153.2960 C   0  0  0  0  0  3  0  0  0  0  0  0
  161.0580  204.0150  152.1640 C   0  0  0  0  0  3  0  0  0  0  0  0
  160.8690  203.7870  149.7500 C   0  0  0  0  0  0  0  0  0  0  0  0
  160.7690  202.4050  149.8630 O   0  0  0  0  0  1  0  0  0  0  0  0
  161.0760  206.5660  149.4690 C   0  0  0  0  0  3  0  0  0  0  0  0
  161.3030  206.1990  153.1690 C   0  0  0  0  0  3  0  0  0  0  0  0
  160.8340  204.3710  148.4820 C   0  0  0  0  0  3  0  0  0  0  0  0
  160.9340  205.7570  148.3400 C   0  0  0  0  0  0  0  0  0  0  0  0
  161.0070  204.5950  150.8920 C   0  0  0  0  0  0  0  0  0  0  0  0
  161.3340  208.2940  151.8390 C   0  0  0  0  0  0  0  0  0  0  0  0
  161.4520  211.0700  151.6560 C   0  0  0  0  0  3  0  0  0  0  0  0
  160.8340  209.1200  152.8670 C   0  0  0  0  0  0  0  0  0  0  0  0
  160.9100  210.4730  152.7500 N   0  0  0  0  0  0  0  0  0  0  0  0
  161.9560  210.2940  150.6130 C   0  0  0  0  0  3  0  0  0  0  0  0
  160.2780  208.5580  154.0530 N   0  0  0  0  0  1  0  0  0  0  0  0
  161.8930  208.9040  150.7090 C   0  0  0  0  0  3  0  0  0  0  0  0
  160.9200  206.3700  146.9830 C   0  0  0  0  0  2  0  0  0  0  0  0
  161.7100  205.5080  146.0130 C   0  0  0  0  0  2  0  0  0  0  0  0
  160.8660  205.1780  144.7940 C   0  0  1  0  0  3  0  0  0  0  0  0
  161.5760  205.4820  143.6290 O   0  0  0  0  0  1  0  0  0  0  0  0
  160.4690  203.7290  144.8220 C   0  0  0  0  0  0  0  0  0  0  0  0
  161.2050  202.7350  145.6590 C   0  0  0  0  0  1  0  0  0  0  0  0
  159.5340  203.3500  144.1360 O   0  0  0  0  0  0  0  0  0  0  0  0
  1  8  1  0  0  0  0
  2 11  1  0  0  0  0
  2  1  2  0  0  0  0
  4  3  1  0  0  0  0
  5  6  1  0  0  0  0
  5 11  1  0  0  0  0
  7  2  1  0  0  0  0
  8  3  2  0  0  0  0
  9  5  2  0  0  0  0
 10  9  1  0  0  0  0
 10  7  2  0  0  0  0
 11  4  2  0  0  0  0
 12  1  1  0  0  0  0
 12 14  1  0  0  0  0
 13 15  1  0  0  0  0
 14 17  1  0  0  0  0
 15 14  2  0  0  0  0
 16 18  1  0  0  0  0
 16 13  2  0  0  0  0
 18 12  2  0  0  0  0
 19 10  1  0  0  0  0
 20 19  1  0  0  0  0
 21 22  1  6  0  0  0
 21 23  1  0  0  0  0
 21 20  1  0  0  0  0
 23 24  1  0  0  0  0
 25 23  2  0  0  0  0
M  END
>  <MODEL>
8

>  <REMARK>
 VINA RESULT:      -7.3      3.243      5.362
  Name = 
  5 active torsions:
  status: ('A' for Active; 'I' for Inactive)
    1  A    between atoms: C_1  and  C_5
    2  A    between atoms: C_2  and  C_21
    3  A    between atoms: C_6  and  C_15
    4  A    between atoms: C_6  and  C_23
    5  A    between atoms: C_15  and  C_21
                            x       y       z     vdW  Elec       q    Type
                         _______ _______ _______ _____ _____    ______ ____

>  <TORSDO>
F 5

$$$$
=
 OpenBabel11052422073D

 25 27  0  0  1  0  0  0  0  0999 V2000
  160.8130  208.3390  152.9280 C   0  0  0  0  0  0  0  0  0  0  0  0
  160.8950  207.2680  152.0040 C   0  0  0  0  0  0  0  0  0  0  0  0
  161.2550  206.7810  154.7460 C   0  0  0  0  0  3  0  0  0  0  0  0
  161.3360  205.7260  153.8400 C   0  0  0  0  0  3  0  0  0  0  0  0
  161.2540  204.8900  151.5580 C   0  0  0  0  0  0  0  0  0  0  0  0
  161.5100  203.5950  151.9960 O   0  0  0  0  0  1  0  0  0  0  0  0
  160.7470  207.4810  150.6250 C   0  0  0  0  0  3  0  0  0  0  0  0
  160.9950  208.0750  154.2940 C   0  0  0  0  0  3  0  0  0  0  0  0
  161.0940  205.1280  150.1910 C   0  0  0  0  0  3  0  0  0  0  0  0
  160.8370  206.4180  149.7240 C   0  0  0  0  0  0  0  0  0  0  0  0
  161.1610  205.9540  152.4710 C   0  0  0  0  0  0  0  0  0  0  0  0
  160.5120  209.7310  152.5100 C   0  0  0  0  0  0  0  0  0  0  0  0
  159.9420  212.3580  151.7830 C   0  0  0  0  0  3  0  0  0  0  0  0
  161.4240  210.4980  151.7550 C   0  0  0  0  0  0  0  0  0  0  0  0
  161.1150  211.7780  151.4130 N   0  0  0  0  0  0  0  0  0  0  0  0
  159.0120  211.6380  152.5320 C   0  0  0  0  0  3  0  0  0  0  0  0
  162.6590  209.9430  151.3120 N   0  0  0  0  0  1  0  0  0  0  0  0
  159.3030  210.3240  152.8950 C   0  0  0  0  0  3  0  0  0  0  0  0
  160.6910  206.6670  148.2630 C   0  0  0  0  0  2  0  0  0  0  0  0
  161.9750  206.2990  147.5400 C   0  0  0  0  0  2  0  0  0  0  0  0
  161.6590  205.5720  146.2440 C   0  0  1  0  0  3  0  0  0  0  0  0
  162.5930  205.9240  145.2640 O   0  0  0  0  0  1  0  0  0  0  0  0
  161.6530  204.0880  146.4760 C   0  0  0  0  0  0  0  0  0  0  0  0
  161.0720  203.1440  145.4750 C   0  0  0  0  0  1  0  0  0  0  0  0
  162.1200  203.6410  147.5100 O   0  0  0  0  0  0  0  0  0  0  0  0
  1  8  1  0  0  0  0
  2 11  1  0  0  0  0
  2  1  2  0  0  0  0
  4  3  1  0  0  0  0
  5  6  1  0  0  0  0
  5 11  1  0  0  0  0
  7  2  1  0  0  0  0
  8  3  2  0  0  0  0
  9  5  2  0  0  0  0
 10  9  1  0  0  0  0
 10  7  2  0  0  0  0
 11  4  2  0  0  0  0
 12 18  1  0  0  0  0
 12  1  1  0  0  0  0
 13 16  1  0  0  0  0
 14 12  2  0  0  0  0
 15 14  1  0  0  0  0
 15 13  2  0  0  0  0
 16 18  2  0  0  0  0
 17 14  1  0  0  0  0
 19 10  1  0  0  0  0
 20 19  1  0  0  0  0
 21 22  1  6  0  0  0
 21 23  1  0  0  0  0
 21 20  1  0  0  0  0
 23 25  2  0  0  0  0
 24 23  1  0  0  0  0
M  END
>  <MODEL>
9

>  <REMARK>
 VINA RESULT:      -7.2      3.596      5.616
  Name = 
  5 active torsions:
  status: ('A' for Active; 'I' for Inactive)
    1  A    between atoms: C_1  and  C_5
    2  A    between atoms: C_2  and  C_21
    3  A    between atoms: C_6  and  C_15
    4  A    between atoms: C_6  and  C_23
    5  A    between atoms: C_15  and  C_21
                            x       y       z     vdW  Elec       q    Type
                         _______ _______ _______ _____ _____    ______ ____

>  <TORSDO>
F 5

$$$$
