=
 OpenBabel11062409313D

 34 38  0  0  1  0  0  0  0  0999 V2000
  162.1800  206.9810  151.9910 C   0  0  0  0  0  2  0  0  0  0  0  0
  161.2020  208.5460  153.7060 C   0  0  0  0  0  0  0  0  0  0  0  0
  160.1510  212.1550  153.4870 C   0  0  0  0  0  3  0  0  0  0  0  0
  161.1060  210.5990  151.8500 N   0  0  0  0  0  0  0  0  0  0  0  0
  161.2610  207.5220  154.6480 O   0  0  0  0  0  1  0  0  0  0  0  0
  161.5900  209.3870  151.4660 C   0  0  0  0  0  0  0  0  0  0  0  0
  161.6390  208.3240  152.3900 C   0  0  0  0  0  0  0  0  0  0  0  0
  159.5040  212.3280  154.6440 C   0  0  0  0  0  3  0  0  0  0  0  0
  159.2000  211.1640  155.5540 C   0  0  2  0  0  3  0  0  0  0  0  0
  160.6680  210.8290  153.1140 C   0  0  0  0  0  0  0  0  0  0  0  0
  160.3060  210.1000  155.4930 C   0  0  0  0  0  2  0  0  0  0  0  0
  160.7060  209.8010  154.0710 C   0  0  0  0  0  0  0  0  0  0  0  0
  162.0630  210.5470  149.3410 C   0  0  0  0  0  1  0  0  0  0  0  0
  162.0280  209.2070  150.0480 C   0  0  0  0  0  2  0  0  0  0  0  0
  157.9780  210.5910  155.1860 O   0  0  0  0  0  0  0  0  0  0  0  0
  156.0780  211.9250  154.6960 C   0  0  0  0  0  2  0  0  0  0  0  0
  155.6440  210.7720  155.5750 C   0  0  0  0  0  2  0  0  0  0  0  0
  157.0070  211.4040  155.7740 C   0  0  0  0  0  3  0  0  0  0  0  0
  161.0600  205.9550  151.9180 C   0  0  0  0  0  2  0  0  0  0  0  0
  160.4300  205.9380  150.5340 C   0  0  0  0  0  2  0  0  0  0  0  0
  161.4930  206.1230  147.7690 O   0  0  0  0  0  0  0  0  0  0  0  0
  161.0700  203.5090  150.0220 C   0  0  0  0  0  0  0  0  0  0  0  0
  161.0000  202.0070  146.0450 C   0  0  1  0  0  3  0  0  0  0  0  0
  160.8850  203.4610  146.5070 C   0  0  0  0  0  2  0  0  0  0  0  0
  161.7690  203.7050  147.7330 C   0  0  2  0  0  3  0  0  0  0  0  0
  161.0290  204.8900  149.7180 N   0  0  0  0  0  0  0  0  0  0  0  0
  160.4540  201.6350  148.5190 C   0  0  0  0  0  2  0  0  0  0  0  0
  161.5240  202.6700  148.8730 C   0  0  2  0  0  3  0  0  0  0  0  0
  160.7630  200.9850  147.1700 C   0  0  0  0  0  2  0  0  0  0  0  0
  160.7780  203.0470  151.1570 O   0  0  0  0  0  0  0  0  0  0  0  0
  161.4250  205.0140  148.3650 C   0  0  0  0  0  0  0  0  0  0  0  0
  159.4440  202.8080  144.2590 O   0  0  0  0  0  0  0  0  0  0  0  0
  160.0700  201.7510  144.9090 C   0  0  0  0  0  0  0  0  0  0  0  0
  159.8470  200.5690  144.5390 O   0  0  0  0  0  1  0  0  0  0  0  0
  1  7  1  0  0  0  0
  2 12  1  0  0  0  0
  2  5  1  0  0  0  0
  3  8  2  0  0  0  0
  4 10  1  0  0  0  0
  6  4  2  0  0  0  0
  6  7  1  0  0  0  0
  7  2  2  0  0  0  0
  8  9  1  0  0  0  0
  9 15  1  6  0  0  0
 10  3  1  0  0  0  0
 10 12  2  0  0  0  0
 11  9  1  0  0  0  0
 12 11  1  0  0  0  0
 13 14  1  0  0  0  0
 14  6  1  0  0  0  0
 15 18  1  0  0  0  0
 16 17  1  0  0  0  0
 16 18  1  0  0  0  0
 17 18  1  0  0  0  0
 19  1  1  0  0  0  0
 20 19  1  0  0  0  0
 21 31  2  0  0  0  0
 22 30  2  0  0  0  0
 23 33  1  6  0  0  0
 23 24  1  0  0  0  0
 23 29  1  0  0  0  0
 25 24  1  6  0  0  0
 25 31  1  0  0  0  0
 25 28  1  0  0  0  0
 26 22  1  0  0  0  0
 26 20  1  0  0  0  0
 28 27  1  6  0  0  0
 28 22  1  0  0  0  0
 29 27  1  0  0  0  0
 31 26  1  0  0  0  0
 32 33  2  0  0  0  0
 34 33  1  0  0  0  0
M  END
>  <MODEL>
1

>  <REMARK>
 VINA RESULT:      -8.0      0.000      0.000
  Name = 
  8 active torsions:
  status: ('A' for Active; 'I' for Inactive)
    1  A    between atoms: C_7  and  C_15
    2  A    between atoms: C_8  and  C_17
    3  A    between atoms: C_8  and  N_18
    4  A    between atoms: C_10  and  C_17
    5  A    between atoms: C_10  and  C_20
    6  A    between atoms: C_19  and  C_22
    7  A    between atoms: C_24  and  O_25
    8  A    between atoms: O_25  and  C_27
                            x       y       z     vdW  Elec       q    Type
                         _______ _______ _______ _____ _____    ______ ____

>  <TORSDO>
F 8

$$$$
=
 OpenBabel11062409313D

 34 38  0  0  1  0  0  0  0  0999 V2000
  162.3090  209.9500  151.7890 C   0  0  0  0  0  2  0  0  0  0  0  0
  160.6510  211.1780  153.2360 C   0  0  0  0  0  0  0  0  0  0  0  0
  158.3520  214.0690  152.5020 C   0  0  0  0  0  3  0  0  0  0  0  0
  159.9780  212.8480  151.1310 N   0  0  0  0  0  0  0  0  0  0  0  0
  160.9950  210.3510  154.3020 O   0  0  0  0  0  1  0  0  0  0  0  0
  160.9160  211.8830  150.9310 C   0  0  0  0  0  0  0  0  0  0  0  0
  161.2680  211.0140  151.9840 C   0  0  0  0  0  0  0  0  0  0  0  0
  157.5770  214.0910  153.5910 C   0  0  0  0  0  3  0  0  0  0  0  0
  157.6420  212.9930  154.6230 C   0  0  2  0  0  3  0  0  0  0  0  0
  159.3630  213.0130  152.3300 C   0  0  0  0  0  0  0  0  0  0  0  0
  159.0670  212.4340  154.7590 C   0  0  0  0  0  2  0  0  0  0  0  0
  159.6880  212.1760  153.4100 C   0  0  0  0  0  0  0  0  0  0  0  0
  161.2820  213.0070  148.7660 C   0  0  0  0  0  1  0  0  0  0  0  0
  161.5280  211.7480  149.5740 C   0  0  0  0  0  2  0  0  0  0  0  0
  156.7670  211.9630  154.2650 O   0  0  0  0  0  0  0  0  0  0  0  0
  155.6520  211.5480  156.3180 C   0  0  0  0  0  2  0  0  0  0  0  0
  155.4240  210.3690  155.3990 C   0  0  0  0  0  2  0  0  0  0  0  0
  156.7460  211.1070  155.3680 C   0  0  0  0  0  3  0  0  0  0  0  0
  161.6560  208.5830  151.6550 C   0  0  0  0  0  2  0  0  0  0  0  0
  162.5390  207.6370  150.8550 C   0  0  0  0  0  2  0  0  0  0  0  0
  160.6920  205.5360  151.8470 O   0  0  0  0  0  0  0  0  0  0  0  0
  161.7700  206.5060  148.6860 C   0  0  0  0  0  0  0  0  0  0  0  0
  160.6340  202.4090  148.6270 C   0  0  1  0  0  3  0  0  0  0  0  0
  160.8860  203.3010  149.8450 C   0  0  0  0  0  2  0  0  0  0  0  0
  160.4130  204.7300  149.5680 C   0  0  2  0  0  3  0  0  0  0  0  0
  161.7200  206.7090  150.0860 N   0  0  0  0  0  0  0  0  0  0  0  0
  161.9000  204.3290  147.5030 C   0  0  0  0  0  2  0  0  0  0  0  0
  160.9880  205.3130  148.2410 C   0  0  2  0  0  3  0  0  0  0  0  0
  161.1970  202.9850  147.3170 C   0  0  0  0  0  2  0  0  0  0  0  0
  162.3890  207.2720  147.9030 O   0  0  0  0  0  0  0  0  0  0  0  0
  160.9340  205.6580  150.6160 C   0  0  0  0  0  0  0  0  0  0  0  0
  161.5790  200.2460  147.8000 O   0  0  0  0  0  0  0  0  0  0  0  0
  161.1780  201.0420  148.8670 C   0  0  0  0  0  0  0  0  0  0  0  0
  161.2720  200.6040  150.0430 O   0  0  0  0  0  1  0  0  0  0  0  0
  1  7  1  0  0  0  0
  2 12  1  0  0  0  0
  2  5  1  0  0  0  0
  3  8  2  0  0  0  0
  4 10  1  0  0  0  0
  6  4  2  0  0  0  0
  6  7  1  0  0  0  0
  7  2  2  0  0  0  0
  8  9  1  0  0  0  0
  9 15  1  6  0  0  0
  9 11  1  0  0  0  0
 10  3  1  0  0  0  0
 10 12  2  0  0  0  0
 12 11  1  0  0  0  0
 13 14  1  0  0  0  0
 14  6  1  0  0  0  0
 15 18  1  0  0  0  0
 17 16  1  0  0  0  0
 18 17  1  0  0  0  0
 18 16  1  0  0  0  0
 19  1  1  0  0  0  0
 20 19  1  0  0  0  0
 22 26  1  0  0  0  0
 23 33  1  1  0  0  0
 23 24  1  0  0  0  0
 25 24  1  1  0  0  0
 25 31  1  0  0  0  0
 26 31  1  0  0  0  0
 26 20  1  0  0  0  0
 28 27  1  1  0  0  0
 28 22  1  0  0  0  0
 28 25  1  0  0  0  0
 29 27  1  0  0  0  0
 29 23  1  0  0  0  0
 30 22  2  0  0  0  0
 31 21  2  0  0  0  0
 32 33  2  0  0  0  0
 33 34  1  0  0  0  0
M  END
>  <MODEL>
2

>  <REMARK>
 VINA RESULT:      -7.9      1.844      3.049
  Name = 
  8 active torsions:
  status: ('A' for Active; 'I' for Inactive)
    1  A    between atoms: C_7  and  C_15
    2  A    between atoms: C_8  and  C_17
    3  A    between atoms: C_8  and  N_18
    4  A    between atoms: C_10  and  C_17
    5  A    between atoms: C_10  and  C_20
    6  A    between atoms: C_19  and  C_22
    7  A    between atoms: C_24  and  O_25
    8  A    between atoms: O_25  and  C_27
                            x       y       z     vdW  Elec       q    Type
                         _______ _______ _______ _____ _____    ______ ____

>  <TORSDO>
F 8

$$$$
=
 OpenBabel11062409313D

 34 38  0  0  1  0  0  0  0  0999 V2000
  161.7830  207.9130  154.0450 C   0  0  0  0  0  2  0  0  0  0  0  0
  160.2450  209.7200  154.8920 C   0  0  0  0  0  0  0  0  0  0  0  0
  159.2950  213.0710  153.4600 C   0  0  0  0  0  3  0  0  0  0  0  0
  160.7850  211.2880  152.6750 N   0  0  0  0  0  0  0  0  0  0  0  0
  159.9800  208.9430  156.0170 O   0  0  0  0  0  1  0  0  0  0  0  0
  161.3880  210.0730  152.7840 C   0  0  0  0  0  0  0  0  0  0  0  0
  161.1210  209.2530  153.8990 C   0  0  0  0  0  0  0  0  0  0  0  0
  158.2800  213.4340  154.2500 C   0  0  0  0  0  3  0  0  0  0  0  0
  157.6890  212.4780  155.2570 C   0  0  2  0  0  3  0  0  0  0  0  0
  159.9260  211.7510  153.6190 C   0  0  0  0  0  0  0  0  0  0  0  0
  158.7580  211.5390  155.8350 C   0  0  0  0  0  2  0  0  0  0  0  0
  159.6370  210.9710  154.7510 C   0  0  0  0  0  0  0  0  0  0  0  0
  161.9660  210.3550  150.4020 C   0  0  0  0  0  1  0  0  0  0  0  0
  162.3000  209.6240  151.6880 C   0  0  0  0  0  2  0  0  0  0  0  0
  156.6820  211.7230  154.6470 O   0  0  0  0  0  0  0  0  0  0  0  0
  155.1690  211.0780  156.3580 C   0  0  0  0  0  2  0  0  0  0  0  0
  155.0520  210.0950  155.2150 C   0  0  0  0  0  2  0  0  0  0  0  0
  156.3980  210.7010  155.5550 C   0  0  0  0  0  3  0  0  0  0  0  0
  161.0380  206.8580  153.2430 C   0  0  0  0  0  2  0  0  0  0  0  0
  161.9980  206.0610  152.3740 C   0  0  0  0  0  2  0  0  0  0  0  0
  160.3610  203.5850  152.3190 O   0  0  0  0  0  0  0  0  0  0  0  0
  161.3740  205.8620  149.8940 C   0  0  0  0  0  0  0  0  0  0  0  0
  160.6590  202.0730  148.1040 C   0  0  1  0  0  3  0  0  0  0  0  0
  160.8040  202.4010  149.5910 C   0  0  0  0  0  2  0  0  0  0  0  0
  160.1930  203.7710  149.8980 C   0  0  2  0  0  3  0  0  0  0  0  0
  161.2860  205.4650  151.2490 N   0  0  0  0  0  0  0  0  0  0  0  0
  161.7390  204.3880  147.9330 C   0  0  0  0  0  2  0  0  0  0  0  0
  160.7230  204.8960  148.9590 C   0  0  2  0  0  3  0  0  0  0  0  0
  161.1780  203.1850  147.1750 C   0  0  0  0  0  2  0  0  0  0  0  0
  161.9230  206.9350  149.5270 O   0  0  0  0  0  0  0  0  0  0  0  0
  160.6050  204.2250  151.2610 C   0  0  0  0  0  0  0  0  0  0  0  0
  161.3040  200.2640  146.5010 O   0  0  0  0  0  0  0  0  0  0  0  0
  161.3360  200.7820  147.7910 C   0  0  0  0  0  0  0  0  0  0  0  0
  161.9360  200.1550  148.7020 O   0  0  0  0  0  1  0  0  0  0  0  0
  2  5  1  0  0  0  0
  3 10  1  0  0  0  0
  3  8  2  0  0  0  0
  4  6  2  0  0  0  0
  4 10  1  0  0  0  0
  6  7  1  0  0  0  0
  7  1  1  0  0  0  0
  7  2  2  0  0  0  0
  8  9  1  0  0  0  0
  9 15  1  6  0  0  0
  9 11  1  0  0  0  0
 10 12  2  0  0  0  0
 12  2  1  0  0  0  0
 12 11  1  0  0  0  0
 13 14  1  0  0  0  0
 14  6  1  0  0  0  0
 15 18  1  0  0  0  0
 17 18  1  0  0  0  0
 17 16  1  0  0  0  0
 18 16  1  0  0  0  0
 19  1  1  0  0  0  0
 20 19  1  0  0  0  0
 22 26  1  0  0  0  0
 23 33  1  1  0  0  0
 23 24  1  0  0  0  0
 25 24  1  6  0  0  0
 25 31  1  0  0  0  0
 26 31  1  0  0  0  0
 26 20  1  0  0  0  0
 28 27  1  6  0  0  0
 28 22  1  0  0  0  0
 28 25  1  0  0  0  0
 29 27  1  0  0  0  0
 29 23  1  0  0  0  0
 30 22  2  0  0  0  0
 31 21  2  0  0  0  0
 32 33  2  0  0  0  0
 33 34  1  0  0  0  0
M  END
>  <MODEL>
3

>  <REMARK>
 VINA RESULT:      -7.7      1.472      2.525
  Name = 
  8 active torsions:
  status: ('A' for Active; 'I' for Inactive)
    1  A    between atoms: C_7  and  C_15
    2  A    between atoms: C_8  and  C_17
    3  A    between atoms: C_8  and  N_18
    4  A    between atoms: C_10  and  C_17
    5  A    between atoms: C_10  and  C_20
    6  A    between atoms: C_19  and  C_22
    7  A    between atoms: C_24  and  O_25
    8  A    between atoms: O_25  and  C_27
                            x       y       z     vdW  Elec       q    Type
                         _______ _______ _______ _____ _____    ______ ____

>  <TORSDO>
F 8

$$$$
=
 OpenBabel11062409313D

 34 38  0  0  1  0  0  0  0  0999 V2000
  162.1390  210.3850  150.3360 C   0  0  0  0  0  2  0  0  0  0  0  0
  162.2950  208.1170  149.2500 C   0  0  0  0  0  0  0  0  0  0  0  0
  160.9290  204.7590  150.2680 C   0  0  0  0  0  3  0  0  0  0  0  0
  160.8050  206.9840  151.2920 N   0  0  0  0  0  0  0  0  0  0  0  0
  163.0560  208.6780  148.2280 O   0  0  0  0  0  1  0  0  0  0  0  0
  161.0740  208.3170  151.3360 C   0  0  0  0  0  0  0  0  0  0  0  0
  161.8210  208.9190  150.3030 C   0  0  0  0  0  0  0  0  0  0  0  0
  161.1470  204.0250  149.1720 C   0  0  0  0  0  3  0  0  0  0  0  0
  161.6270  204.6560  147.8890 C   0  0  2  0  0  3  0  0  0  0  0  0
  161.2440  206.1960  150.2770 C   0  0  0  0  0  0  0  0  0  0  0  0
  162.5590  205.8460  148.1630 C   0  0  0  0  0  2  0  0  0  0  0  0
  161.9990  206.7510  149.2300 C   0  0  0  0  0  0  0  0  0  0  0  0
  160.8690  208.4490  153.7900 C   0  0  0  0  0  1  0  0  0  0  0  0
  160.5320  209.1200  152.4740 C   0  0  0  0  0  2  0  0  0  0  0  0
  160.5270  205.0860  147.1400 O   0  0  0  0  0  0  0  0  0  0  0  0
  161.1000  204.9970  144.8390 C   0  0  0  0  0  2  0  0  0  0  0  0
  160.0190  206.0380  145.0270 C   0  0  0  0  0  2  0  0  0  0  0  0
  161.0710  205.8400  146.0990 C   0  0  0  0  0  3  0  0  0  0  0  0
  161.9430  211.0050  148.9610 C   0  0  0  0  0  2  0  0  0  0  0  0
  161.2610  212.3610  149.0710 C   0  0  0  0  0  2  0  0  0  0  0  0
  159.1310  212.4080  147.0050 O   0  0  0  0  0  0  0  0  0  0  0  0
  162.3670  213.6710  147.1640 C   0  0  0  0  0  0  0  0  0  0  0  0
  161.2860  212.9840  143.1100 C   0  0  1  0  0  3  0  0  0  0  0  0
  160.5820  212.4830  144.3720 C   0  0  0  0  0  2  0  0  0  0  0  0
  160.6580  213.5350  145.4810 C   0  0  2  0  0  3  0  0  0  0  0  0
  161.2630  213.0340  147.7780 N   0  0  0  0  0  0  0  0  0  0  0  0
  163.1440  213.3750  144.8270 C   0  0  0  0  0  2  0  0  0  0  0  0
  162.1100  214.0400  145.7390 C   0  0  2  0  0  3  0  0  0  0  0  0
  162.7180  213.4870  143.3640 C   0  0  0  0  0  2  0  0  0  0  0  0
  163.4410  213.9210  147.7720 O   0  0  0  0  0  0  0  0  0  0  0  0
  160.2560  212.9350  146.7890 C   0  0  0  0  0  0  0  0  0  0  0  0
  162.4420  211.6580  141.3310 O   0  0  0  0  0  0  0  0  0  0  0  0
  161.2890  211.9230  142.0630 C   0  0  0  0  0  0  0  0  0  0  0  0
  160.2410  211.2650  141.8380 O   0  0  0  0  0  1  0  0  0  0  0  0
  2  7  1  0  0  0  0
  3 10  1  0  0  0  0
  4  6  1  0  0  0  0
  5  2  1  0  0  0  0
  6 14  1  0  0  0  0
  7  1  1  0  0  0  0
  7  6  2  0  0  0  0
  8  3  2  0  0  0  0
  9 15  1  1  0  0  0
  9 11  1  0  0  0  0
  9  8  1  0  0  0  0
 10  4  2  0  0  0  0
 11 12  1  0  0  0  0
 12  2  2  0  0  0  0
 12 10  1  0  0  0  0
 14 13  1  0  0  0  0
 16 17  1  0  0  0  0
 16 18  1  0  0  0  0
 17 18  1  0  0  0  0
 18 15  1  0  0  0  0
 19 20  1  0  0  0  0
 19  1  1  0  0  0  0
 22 30  2  0  0  0  0
 22 26  1  0  0  0  0
 23 33  1  6  0  0  0
 23 29  1  0  0  0  0
 23 24  1  0  0  0  0
 25 24  1  6  0  0  0
 25 28  1  0  0  0  0
 25 31  1  0  0  0  0
 26 20  1  0  0  0  0
 28 27  1  6  0  0  0
 28 22  1  0  0  0  0
 29 27  1  0  0  0  0
 31 21  2  0  0  0  0
 31 26  1  0  0  0  0
 32 33  2  0  0  0  0
 34 33  1  0  0  0  0
M  END
>  <MODEL>
4

>  <REMARK>
 VINA RESULT:      -7.1      4.256      8.992
  Name = 
  8 active torsions:
  status: ('A' for Active; 'I' for Inactive)
    1  A    between atoms: C_7  and  C_15
    2  A    between atoms: C_8  and  C_17
    3  A    between atoms: C_8  and  N_18
    4  A    between atoms: C_10  and  C_17
    5  A    between atoms: C_10  and  C_20
    6  A    between atoms: C_19  and  C_22
    7  A    between atoms: C_24  and  O_25
    8  A    between atoms: O_25  and  C_27
                            x       y       z     vdW  Elec       q    Type
                         _______ _______ _______ _____ _____    ______ ____

>  <TORSDO>
F 8

$$$$
=
 OpenBabel11062409313D

 34 38  0  0  1  0  0  0  0  0999 V2000
  161.9460  210.1030  152.7080 C   0  0  0  0  0  2  0  0  0  0  0  0
  160.8530  211.1090  154.7430 C   0  0  0  0  0  0  0  0  0  0  0  0
  158.3370  213.8860  155.1150 C   0  0  0  0  0  3  0  0  0  0  0  0
  159.4270  212.8800  153.1620 N   0  0  0  0  0  0  0  0  0  0  0  0
  161.5770  210.2310  155.5450 O   0  0  0  0  0  1  0  0  0  0  0  0
  160.2710  211.9970  152.5630 C   0  0  0  0  0  0  0  0  0  0  0  0
  161.0000  211.0790  153.3460 C   0  0  0  0  0  0  0  0  0  0  0  0
  157.9900  213.7770  156.4010 C   0  0  0  0  0  3  0  0  0  0  0  0
  158.4520  212.6140  157.2420 C   0  0  2  0  0  3  0  0  0  0  0  0
  159.2630  212.9150  154.5090 C   0  0  0  0  0  0  0  0  0  0  0  0
  159.8540  212.1420  156.8270 C   0  0  0  0  0  2  0  0  0  0  0  0
  159.9750  212.0250  155.3300 C   0  0  0  0  0  0  0  0  0  0  0  0
  159.8950  213.3310  150.5230 C   0  0  0  0  0  1  0  0  0  0  0  0
  160.3760  212.0020  151.0720 C   0  0  0  0  0  2  0  0  0  0  0  0
  157.5450  211.5570  157.1150 O   0  0  0  0  0  0  0  0  0  0  0  0
  155.5940  211.2720  155.7950 C   0  0  0  0  0  2  0  0  0  0  0  0
  155.1920  211.2850  157.2530 C   0  0  0  0  0  2  0  0  0  0  0  0
  156.3330  212.1600  156.7750 C   0  0  0  0  0  3  0  0  0  0  0  0
  161.5050  208.6740  152.9850 C   0  0  0  0  0  2  0  0  0  0  0  0
  160.5440  208.1860  151.9110 C   0  0  0  0  0  2  0  0  0  0  0  0
  161.8720  208.9240  149.3610 O   0  0  0  0  0  0  0  0  0  0  0  0
  161.2730  205.9090  150.9860 C   0  0  0  0  0  0  0  0  0  0  0  0
  161.6230  205.2450  146.8020 C   0  0  1  0  0  3  0  0  0  0  0  0
  161.4380  206.5760  147.5330 C   0  0  0  0  0  2  0  0  0  0  0  0
  162.1920  206.5630  148.8650 C   0  0  2  0  0  3  0  0  0  0  0  0
  161.2390  207.3230  150.9640 N   0  0  0  0  0  0  0  0  0  0  0  0
  160.8410  204.3800  149.0810 C   0  0  0  0  0  2  0  0  0  0  0  0
  161.8540  205.3190  149.7420 C   0  0  2  0  0  3  0  0  0  0  0  0
  161.2940  204.0160  147.6670 C   0  0  0  0  0  2  0  0  0  0  0  0
  160.8790  205.2270  151.9690 O   0  0  0  0  0  0  0  0  0  0  0  0
  161.7640  207.7180  149.7110 C   0  0  0  0  0  0  0  0  0  0  0  0
  160.8600  204.1300  144.6970 O   0  0  0  0  0  0  0  0  0  0  0  0
  160.8140  205.2270  145.5490 C   0  0  0  0  0  0  0  0  0  0  0  0
  160.0890  206.2130  145.2610 O   0  0  0  0  0  1  0  0  0  0  0  0
  1 19  1  0  0  0  0
  1  7  1  0  0  0  0
  2 12  1  0  0  0  0
  2  5  1  0  0  0  0
  3  8  2  0  0  0  0
  4 10  1  0  0  0  0
  6  4  2  0  0  0  0
  6  7  1  0  0  0  0
  7  2  2  0  0  0  0
  8  9  1  0  0  0  0
  9 15  1  6  0  0  0
 10  3  1  0  0  0  0
 10 12  2  0  0  0  0
 11  9  1  0  0  0  0
 12 11  1  0  0  0  0
 13 14  1  0  0  0  0
 14  6  1  0  0  0  0
 16 18  1  0  0  0  0
 16 17  1  0  0  0  0
 18 15  1  0  0  0  0
 18 17  1  0  0  0  0
 20 19  1  0  0  0  0
 21 31  2  0  0  0  0
 22 30  2  0  0  0  0
 23 33  1  6  0  0  0
 23 24  1  0  0  0  0
 23 29  1  0  0  0  0
 25 24  1  6  0  0  0
 25 31  1  0  0  0  0
 25 28  1  0  0  0  0
 26 22  1  0  0  0  0
 26 20  1  0  0  0  0
 28 27  1  6  0  0  0
 28 22  1  0  0  0  0
 29 27  1  0  0  0  0
 31 26  1  0  0  0  0
 32 33  2  0  0  0  0
 34 33  1  0  0  0  0
M  END
>  <MODEL>
5

>  <REMARK>
 VINA RESULT:      -6.6      2.003      2.960
  Name = 
  8 active torsions:
  status: ('A' for Active; 'I' for Inactive)
    1  A    between atoms: C_7  and  C_15
    2  A    between atoms: C_8  and  C_17
    3  A    between atoms: C_8  and  N_18
    4  A    between atoms: C_10  and  C_17
    5  A    between atoms: C_10  and  C_20
    6  A    between atoms: C_19  and  C_22
    7  A    between atoms: C_24  and  O_25
    8  A    between atoms: O_25  and  C_27
                            x       y       z     vdW  Elec       q    Type
                         _______ _______ _______ _____ _____    ______ ____

>  <TORSDO>
F 8

$$$$
=
 OpenBabel11062409313D

 34 38  0  0  1  0  0  0  0  0999 V2000
  162.2960  210.7280  149.8480 C   0  0  0  0  0  2  0  0  0  0  0  0
  162.3550  208.3090  150.5480 C   0  0  0  0  0  0  0  0  0  0  0  0
  160.8610  206.5260  153.5100 C   0  0  0  0  0  3  0  0  0  0  0  0
  160.8320  208.8700  152.7920 N   0  0  0  0  0  0  0  0  0  0  0  0
  163.1320  208.0220  149.4300 O   0  0  0  0  0  1  0  0  0  0  0  0
  161.1530  209.8850  151.9450 C   0  0  0  0  0  0  0  0  0  0  0  0
  161.9190  209.6220  150.7910 C   0  0  0  0  0  0  0  0  0  0  0  0
  161.0440  205.2420  153.1840 C   0  0  0  0  0  3  0  0  0  0  0  0
  161.5420  204.8440  151.8170 C   0  0  2  0  0  3  0  0  0  0  0  0
  161.2330  207.5930  152.5680 C   0  0  0  0  0  0  0  0  0  0  0  0
  162.5230  205.8820  151.2520 C   0  0  0  0  0  2  0  0  0  0  0  0
  162.0050  207.2860  151.4350 C   0  0  0  0  0  0  0  0  0  0  0  0
  159.2270  211.1890  152.7630 C   0  0  0  0  0  1  0  0  0  0  0  0
  160.6500  211.2600  152.2480 C   0  0  0  0  0  2  0  0  0  0  0  0
  160.4560  204.7030  150.9470 O   0  0  0  0  0  0  0  0  0  0  0  0
  161.3200  202.5420  150.4840 C   0  0  0  0  0  2  0  0  0  0  0  0
  160.0000  202.6990  149.7620 C   0  0  0  0  0  2  0  0  0  0  0  0
  160.9250  203.8890  149.9140 C   0  0  0  0  0  3  0  0  0  0  0  0
  161.2160  210.9220  148.7940 C   0  0  0  0  0  2  0  0  0  0  0  0
  160.6630  212.3380  148.8390 C   0  0  0  0  0  2  0  0  0  0  0  0
  158.7860  212.5320  146.5480 O   0  0  0  0  0  0  0  0  0  0  0  0
  162.0710  213.5450  147.0690 C   0  0  0  0  0  0  0  0  0  0  0  0
  161.4000  212.9130  142.9190 C   0  0  1  0  0  3  0  0  0  0  0  0
  160.5230  212.4760  144.0940 C   0  0  0  0  0  2  0  0  0  0  0  0
  160.5560  213.5280  145.2060 C   0  0  2  0  0  3  0  0  0  0  0  0
  160.8600  212.9990  147.5550 N   0  0  0  0  0  0  0  0  0  0  0  0
  163.0800  213.1730  144.8330 C   0  0  0  0  0  2  0  0  0  0  0  0
  162.0040  213.9230  145.6250 C   0  0  2  0  0  3  0  0  0  0  0  0
  162.8290  213.3070  143.3320 C   0  0  0  0  0  2  0  0  0  0  0  0
  163.0870  213.7180  147.7940 O   0  0  0  0  0  0  0  0  0  0  0  0
  159.9650  212.9700  146.4600 C   0  0  0  0  0  0  0  0  0  0  0  0
  162.5540  211.6990  141.0620 O   0  0  0  0  0  0  0  0  0  0  0  0
  161.4380  211.8460  141.8780 C   0  0  0  0  0  0  0  0  0  0  0  0
  160.4530  211.0780  141.7350 O   0  0  0  0  0  1  0  0  0  0  0  0
  1  7  1  0  0  0  0
  2  7  2  0  0  0  0
  2 12  1  0  0  0  0
  5  2  1  0  0  0  0
  6 14  1  0  0  0  0
  6  4  2  0  0  0  0
  7  6  1  0  0  0  0
  8  3  2  0  0  0  0
  9 15  1  6  0  0  0
  9  8  1  0  0  0  0
 10  4  1  0  0  0  0
 10  3  1  0  0  0  0
 11 12  1  0  0  0  0
 11  9  1  0  0  0  0
 12 10  2  0  0  0  0
 14 13  1  0  0  0  0
 17 18  1  0  0  0  0
 17 16  1  0  0  0  0
 18 16  1  0  0  0  0
 18 15  1  0  0  0  0
 19 20  1  0  0  0  0
 19  1  1  0  0  0  0
 22 26  1  0  0  0  0
 22 30  2  0  0  0  0
 23 33  1  6  0  0  0
 23 29  1  0  0  0  0
 23 24  1  0  0  0  0
 25 24  1  6  0  0  0
 25 28  1  0  0  0  0
 25 31  1  0  0  0  0
 26 20  1  0  0  0  0
 28 27  1  6  0  0  0
 28 22  1  0  0  0  0
 29 27  1  0  0  0  0
 31 21  2  0  0  0  0
 31 26  1  0  0  0  0
 32 33  2  0  0  0  0
 34 33  1  0  0  0  0
M  END
>  <MODEL>
6

>  <REMARK>
 VINA RESULT:      -6.6      4.244      8.317
  Name = 
  8 active torsions:
  status: ('A' for Active; 'I' for Inactive)
    1  A    between atoms: C_7  and  C_15
    2  A    between atoms: C_8  and  C_17
    3  A    between atoms: C_8  and  N_18
    4  A    between atoms: C_10  and  C_17
    5  A    between atoms: C_10  and  C_20
    6  A    between atoms: C_19  and  C_22
    7  A    between atoms: C_24  and  O_25
    8  A    between atoms: O_25  and  C_27
                            x       y       z     vdW  Elec       q    Type
                         _______ _______ _______ _____ _____    ______ ____

>  <TORSDO>
F 8

$$$$
=
 OpenBabel11062409313D

 34 38  0  0  1  0  0  0  0  0999 V2000
  159.6810  211.5970  153.7460 C   0  0  0  0  0  2  0  0  0  0  0  0
  160.9960  209.8440  152.5050 C   0  0  0  0  0  0  0  0  0  0  0  0
  161.8240  206.2700  153.3560 C   0  0  0  0  0  3  0  0  0  0  0  0
  160.5540  208.0070  154.5300 N   0  0  0  0  0  0  0  0  0  0  0  0
  161.2350  210.7660  151.4900 O   0  0  0  0  0  1  0  0  0  0  0  0
  160.0330  209.2580  154.6510 C   0  0  0  0  0  0  0  0  0  0  0  0
  160.2360  210.2080  153.6290 C   0  0  0  0  0  0  0  0  0  0  0  0
  162.3320  205.8200  152.2040 C   0  0  0  0  0  3  0  0  0  0  0  0
  162.2800  206.6500  150.9460 C   0  0  2  0  0  3  0  0  0  0  0  0
  161.2800  207.6340  153.4460 C   0  0  0  0  0  0  0  0  0  0  0  0
  162.4040  208.1490  151.2570 C   0  0  0  0  0  2  0  0  0  0  0  0
  161.5160  208.5490  152.4070 C   0  0  0  0  0  0  0  0  0  0  0  0
  160.1210  210.1010  156.9670 C   0  0  0  0  0  1  0  0  0  0  0  0
  159.2210  209.5830  155.8640 C   0  0  0  0  0  2  0  0  0  0  0  0
  161.0750  206.4090  150.2770 O   0  0  0  0  0  0  0  0  0  0  0  0
  161.2880  205.2510  148.2170 C   0  0  0  0  0  2  0  0  0  0  0  0
  160.1490  206.2400  148.0990 C   0  0  0  0  0  2  0  0  0  0  0  0
  161.3710  206.5880  148.9250 C   0  0  0  0  0  3  0  0  0  0  0  0
  158.4940  211.7780  152.8120 C   0  0  0  0  0  2  0  0  0  0  0  0
  158.0170  213.2230  152.8160 C   0  0  0  0  0  2  0  0  0  0  0  0
  155.9810  213.8800  150.7590 O   0  0  0  0  0  0  0  0  0  0  0  0
  159.4520  214.0630  150.8640 C   0  0  0  0  0  0  0  0  0  0  0  0
  158.1530  213.6370  146.8380 C   0  0  1  0  0  3  0  0  0  0  0  0
  157.3440  213.4190  148.1190 C   0  0  0  0  0  2  0  0  0  0  0  0
  157.7640  214.4240  149.1940 C   0  0  2  0  0  3  0  0  0  0  0  0
  158.2130  213.8240  151.5030 N   0  0  0  0  0  0  0  0  0  0  0  0
  160.0640  213.4700  148.5340 C   0  0  0  0  0  2  0  0  0  0  0  0
  159.3050  214.4530  149.4290 C   0  0  2  0  0  3  0  0  0  0  0  0
  159.6740  213.6700  147.0700 C   0  0  0  0  0  2  0  0  0  0  0  0
  160.5590  213.9790  151.4590 O   0  0  0  0  0  0  0  0  0  0  0  0
  157.2110  214.0200  150.5220 C   0  0  0  0  0  0  0  0  0  0  0  0
  158.6300  212.3860  144.7250 O   0  0  0  0  0  0  0  0  0  0  0  0
  157.8070  212.5990  145.8250 C   0  0  0  0  0  0  0  0  0  0  0  0
  156.7610  211.9140  145.9660 O   0  0  0  0  0  1  0  0  0  0  0  0
  2  7  1  0  0  0  0
  3 10  1  0  0  0  0
  4  6  1  0  0  0  0
  5  2  1  0  0  0  0
  6 14  1  0  0  0  0
  7  1  1  0  0  0  0
  7  6  2  0  0  0  0
  8  3  2  0  0  0  0
  9 15  1  1  0  0  0
  9 11  1  0  0  0  0
  9  8  1  0  0  0  0
 10  4  2  0  0  0  0
 11 12  1  0  0  0  0
 12  2  2  0  0  0  0
 12 10  1  0  0  0  0
 14 13  1  0  0  0  0
 16 18  1  0  0  0  0
 17 16  1  0  0  0  0
 17 18  1  0  0  0  0
 18 15  1  0  0  0  0
 19 20  1  0  0  0  0
 19  1  1  0  0  0  0
 22 30  2  0  0  0  0
 22 26  1  0  0  0  0
 23 33  1  6  0  0  0
 23 29  1  0  0  0  0
 23 24  1  0  0  0  0
 25 24  1  6  0  0  0
 25 28  1  0  0  0  0
 25 31  1  0  0  0  0
 26 20  1  0  0  0  0
 28 27  1  6  0  0  0
 28 22  1  0  0  0  0
 29 27  1  0  0  0  0
 31 21  2  0  0  0  0
 31 26  1  0  0  0  0
 32 33  2  0  0  0  0
 33 34  1  0  0  0  0
M  END
>  <MODEL>
7

>  <REMARK>
 VINA RESULT:      -6.3      3.792      8.673
  Name = 
  8 active torsions:
  status: ('A' for Active; 'I' for Inactive)
    1  A    between atoms: C_7  and  C_15
    2  A    between atoms: C_8  and  C_17
    3  A    between atoms: C_8  and  N_18
    4  A    between atoms: C_10  and  C_17
    5  A    between atoms: C_10  and  C_20
    6  A    between atoms: C_19  and  C_22
    7  A    between atoms: C_24  and  O_25
    8  A    between atoms: O_25  and  C_27
                            x       y       z     vdW  Elec       q    Type
                         _______ _______ _______ _____ _____    ______ ____

>  <TORSDO>
F 8

$$$$
=
 OpenBabel11062409313D

 34 38  0  0  1  0  0  0  0  0999 V2000
  161.7070  209.7260  151.4380 C   0  0  0  0  0  2  0  0  0  0  0  0
  161.9650  208.1470  149.4930 C   0  0  0  0  0  0  0  0  0  0  0  0
  161.3970  204.4360  149.1920 C   0  0  0  0  0  3  0  0  0  0  0  0
  161.1620  206.0080  151.0590 N   0  0  0  0  0  0  0  0  0  0  0  0
  162.3830  209.2140  148.7040 O   0  0  0  0  0  1  0  0  0  0  0  0
  161.2240  207.2460  151.6190 C   0  0  0  0  0  0  0  0  0  0  0  0
  161.6200  208.3520  150.8390 C   0  0  0  0  0  0  0  0  0  0  0  0
  161.4760  204.2480  147.8710 C   0  0  0  0  0  3  0  0  0  0  0  0
  161.5550  205.4130  146.9160 C   0  0  2  0  0  3  0  0  0  0  0  0
  161.4800  205.7920  149.7570 C   0  0  0  0  0  0  0  0  0  0  0  0
  162.3290  206.5900  147.5290 C   0  0  0  0  0  2  0  0  0  0  0  0
  161.8880  206.8620  148.9440 C   0  0  0  0  0  0  0  0  0  0  0  0
  161.2210  206.1700  153.8380 C   0  0  0  0  0  1  0  0  0  0  0  0
  160.8320  207.4060  153.0520 C   0  0  0  0  0  2  0  0  0  0  0  0
  160.2630  205.8280  146.5790 O   0  0  0  0  0  0  0  0  0  0  0  0
  161.4730  205.2650  144.6180 C   0  0  0  0  0  2  0  0  0  0  0  0
  160.0790  204.6900  144.5050 C   0  0  0  0  0  2  0  0  0  0  0  0
  160.2950  206.0210  145.1960 C   0  0  0  0  0  3  0  0  0  0  0  0
  160.6990  209.8810  152.5670 C   0  0  0  0  0  2  0  0  0  0  0  0
  161.3040  210.6490  153.7320 C   0  0  0  0  0  2  0  0  0  0  0  0
  160.6250  211.6610  156.4380 O   0  0  0  0  0  0  0  0  0  0  0  0
  159.6220  212.5150  153.2210 C   0  0  0  0  0  0  0  0  0  0  0  0
  156.5800  213.5570  156.0020 C   0  0  1  0  0  3  0  0  0  0  0  0
  157.7950  212.6540  156.2270 C   0  0  0  0  0  2  0  0  0  0  0  0
  159.0020  213.1780  155.4440 C   0  0  2  0  0  3  0  0  0  0  0  0
  160.4500  211.7730  154.0950 N   0  0  0  0  0  0  0  0  0  0  0  0
  157.2370  213.1030  153.5700 C   0  0  0  0  0  2  0  0  0  0  0  0
  158.6860  213.4320  153.9390 C   0  0  2  0  0  3  0  0  0  0  0  0
  156.2700  213.8120  154.5170 C   0  0  0  0  0  2  0  0  0  0  0  0
  159.6930  212.4260  151.9660 O   0  0  0  0  0  0  0  0  0  0  0  0
  160.0810  212.1450  155.4100 C   0  0  0  0  0  0  0  0  0  0  0  0
  155.3380  211.6480  157.0350 O   0  0  0  0  0  1  0  0  0  0  0  0
  155.3840  212.9940  156.6910 C   0  0  0  0  0  0  0  0  0  0  0  0
  154.4080  213.7410  156.9580 O   0  0  0  0  0  0  0  0  0  0  0  0
  1 19  1  0  0  0  0
  2  7  1  0  0  0  0
  3 10  1  0  0  0  0
  4  6  1  0  0  0  0
  5  2  1  0  0  0  0
  6 14  1  0  0  0  0
  7  1  1  0  0  0  0
  7  6  2  0  0  0  0
  8  3  2  0  0  0  0
  9 15  1  1  0  0  0
  9 11  1  0  0  0  0
  9  8  1  0  0  0  0
 10  4  2  0  0  0  0
 11 12  1  0  0  0  0
 12  2  2  0  0  0  0
 12 10  1  0  0  0  0
 14 13  1  0  0  0  0
 16 18  1  0  0  0  0
 17 16  1  0  0  0  0
 17 18  1  0  0  0  0
 18 15  1  0  0  0  0
 19 20  1  0  0  0  0
 20 26  1  0  0  0  0
 22 28  1  0  0  0  0
 22 26  1  0  0  0  0
 23 24  1  0  0  0  0
 23 33  1  6  0  0  0
 25 24  1  1  0  0  0
 26 31  1  0  0  0  0
 27 29  1  0  0  0  0
 28 27  1  1  0  0  0
 28 25  1  0  0  0  0
 29 23  1  0  0  0  0
 30 22  2  0  0  0  0
 31 25  1  0  0  0  0
 31 21  2  0  0  0  0
 33 34  2  0  0  0  0
 33 32  1  0  0  0  0
M  END
>  <MODEL>
8

>  <REMARK>
 VINA RESULT:      -6.3      2.442     10.547
  Name = 
  8 active torsions:
  status: ('A' for Active; 'I' for Inactive)
    1  A    between atoms: C_7  and  C_15
    2  A    between atoms: C_8  and  C_17
    3  A    between atoms: C_8  and  N_18
    4  A    between atoms: C_10  and  C_17
    5  A    between atoms: C_10  and  C_20
    6  A    between atoms: C_19  and  C_22
    7  A    between atoms: C_24  and  O_25
    8  A    between atoms: O_25  and  C_27
                            x       y       z     vdW  Elec       q    Type
                         _______ _______ _______ _____ _____    ______ ____

>  <TORSDO>
F 8

$$$$
=
 OpenBabel11062409313D

 34 38  0  0  1  0  0  0  0  0999 V2000
  161.5840  210.6200  150.5220 C   0  0  0  0  0  2  0  0  0  0  0  0
  161.6660  210.4520  153.0340 C   0  0  0  0  0  0  0  0  0  0  0  0
  159.7640  212.2750  155.7250 C   0  0  0  0  0  3  0  0  0  0  0  0
  159.7180  212.4060  153.2770 N   0  0  0  0  0  0  0  0  0  0  0  0
  162.6550  209.4800  152.9200 O   0  0  0  0  0  1  0  0  0  0  0  0
  160.1270  212.0360  152.0330 C   0  0  0  0  0  0  0  0  0  0  0  0
  161.1100  211.0360  151.8840 C   0  0  0  0  0  0  0  0  0  0  0  0
  160.0860  211.5740  156.8170 C   0  0  0  0  0  3  0  0  0  0  0  0
  160.8550  210.2800  156.7200 C   0  0  2  0  0  3  0  0  0  0  0  0
  160.2360  211.8450  154.3990 C   0  0  0  0  0  0  0  0  0  0  0  0
  161.8550  210.3070  155.5550 C   0  0  0  0  0  2  0  0  0  0  0  0
  161.2230  210.8510  154.2990 C   0  0  0  0  0  0  0  0  0  0  0  0
  160.1640  214.0080  150.5520 C   0  0  0  0  0  1  0  0  0  0  0  0
  159.4890  212.6830  150.8460 C   0  0  0  0  0  2  0  0  0  0  0  0
  159.9610  209.2180  156.5460 O   0  0  0  0  0  0  0  0  0  0  0  0
  160.1090  206.9460  157.2150 C   0  0  0  0  0  2  0  0  0  0  0  0
  160.0140  207.0000  155.7060 C   0  0  0  0  0  2  0  0  0  0  0  0
  160.7660  208.0810  156.4560 C   0  0  0  0  0  3  0  0  0  0  0  0
  162.2230  209.2410  150.5780 C   0  0  0  0  0  2  0  0  0  0  0  0
  162.4230  208.6800  149.1780 C   0  0  0  0  0  2  0  0  0  0  0  0
  160.6950  207.2880  151.1510 O   0  0  0  0  0  0  0  0  0  0  0  0
  161.6020  206.6410  147.8570 C   0  0  0  0  0  0  0  0  0  0  0  0
  160.6110  203.0020  149.8190 C   0  0  1  0  0  3  0  0  0  0  0  0
  160.8820  204.3700  150.4490 C   0  0  0  0  0  2  0  0  0  0  0  0
  160.3480  205.4880  149.5500 C   0  0  2  0  0  3  0  0  0  0  0  0
  161.6050  207.4880  148.9900 N   0  0  0  0  0  0  0  0  0  0  0  0
  161.7590  204.1660  147.8490 C   0  0  0  0  0  2  0  0  0  0  0  0
  160.8450  205.3720  148.0770 C   0  0  2  0  0  3  0  0  0  0  0  0
  161.0970  202.8880  148.3640 C   0  0  0  0  0  2  0  0  0  0  0  0
  162.1600  206.9470  146.7700 O   0  0  0  0  0  0  0  0  0  0  0  0
  160.8810  206.8100  149.9990 C   0  0  0  0  0  0  0  0  0  0  0  0
  161.8500  202.2270  151.8490 O   0  0  0  0  0  1  0  0  0  0  0  0
  161.2130  201.9220  150.6520 C   0  0  0  0  0  0  0  0  0  0  0  0
  161.1470  200.7260  150.2650 O   0  0  0  0  0  0  0  0  0  0  0  0
  1 19  1  0  0  0  0
  1  7  1  0  0  0  0
  2 12  1  0  0  0  0
  3  8  2  0  0  0  0
  4 10  1  0  0  0  0
  5  2  1  0  0  0  0
  6  4  2  0  0  0  0
  7  6  1  0  0  0  0
  7  2  2  0  0  0  0
  9 15  1  6  0  0  0
  9  8  1  0  0  0  0
 10  3  1  0  0  0  0
 11  9  1  0  0  0  0
 12 10  2  0  0  0  0
 12 11  1  0  0  0  0
 13 14  1  0  0  0  0
 14  6  1  0  0  0  0
 17 18  1  0  0  0  0
 17 16  1  0  0  0  0
 18 15  1  0  0  0  0
 18 16  1  0  0  0  0
 20 19  1  0  0  0  0
 22 28  1  0  0  0  0
 22 26  1  0  0  0  0
 23 24  1  0  0  0  0
 23 33  1  1  0  0  0
 25 31  1  0  0  0  0
 25 24  1  1  0  0  0
 26 20  1  0  0  0  0
 26 31  1  0  0  0  0
 27 29  1  0  0  0  0
 28 27  1  1  0  0  0
 28 25  1  0  0  0  0
 29 23  1  0  0  0  0
 30 22  2  0  0  0  0
 31 21  2  0  0  0  0
 33 32  1  0  0  0  0
 34 33  2  0  0  0  0
M  END
>  <MODEL>
9

>  <REMARK>
 VINA RESULT:      -6.3      2.463      3.936
  Name = 
  8 active torsions:
  status: ('A' for Active; 'I' for Inactive)
    1  A    between atoms: C_7  and  C_15
    2  A    between atoms: C_8  and  C_17
    3  A    between atoms: C_8  and  N_18
    4  A    between atoms: C_10  and  C_17
    5  A    between atoms: C_10  and  C_20
    6  A    between atoms: C_19  and  C_22
    7  A    between atoms: C_24  and  O_25
    8  A    between atoms: O_25  and  C_27
                            x       y       z     vdW  Elec       q    Type
                         _______ _______ _______ _____ _____    ______ ____

>  <TORSDO>
F 8

$$$$
