=
 OpenBabel11062409523D

 34 35  0  0  1  0  0  0  0  0999 V2000
  159.9240  208.7590  155.7190 C   0  0  0  0  0  2  0  0  0  0  0  0
  160.5450  210.2760  153.7540 C   0  0  1  0  0  3  0  0  0  0  0  0
  160.3860  211.6450  156.9730 S   0  0  0  0  0  0  0  0  0  0  0  0
  158.4500  212.0410  152.4230 C   0  0  0  0  0  2  0  0  0  0  0  0
  162.2290  209.9310  155.7460 C   0  0  2  0  0  3  0  0  0  0  0  0
  161.0540  209.3890  154.9030 C   0  0  1  0  0  3  0  0  0  0  0  0
  157.4200  213.0960  154.5540 C   0  0  2  0  0  3  0  0  0  0  0  0
  159.8180  212.5670  152.8610 C   0  0  0  0  0  2  0  0  0  0  0  0
  156.1740  213.3670  155.1220 O   0  0  0  0  0  1  0  0  0  0  0  0
  160.3760  211.7820  154.0610 C   0  0  1  0  0  3  0  0  0  0  0  0
  162.5540  209.0340  156.7680 O   0  0  0  0  0  1  0  0  0  0  0  0
  163.0190  211.6390  157.2600 O   0  0  0  0  0  1  0  0  0  0  0  0
  157.2690  212.7860  153.0610 C   0  0  0  0  0  2  0  0  0  0  0  0
  158.1420  212.0250  155.3190 C   0  0  0  0  0  0  0  0  0  0  0  0
  159.6370  212.1490  155.3720 C   0  0  1  0  0  3  0  0  0  0  0  0
  157.5360  210.8700  155.6050 C   0  0  0  0  0  2  0  0  0  0  0  0
  162.0520  211.3540  156.2950 C   0  0  2  0  0  3  0  0  0  0  0  0
  161.4580  210.0750  152.5560 C   0  0  0  0  0  1  0  0  0  0  0  0
  160.0660  207.2420  155.7880 C   0  0  0  0  0  2  0  0  0  0  0  0
  161.1110  206.7300  154.8010 C   0  0  0  0  0  2  0  0  0  0  0  0
  160.5020  206.3400  153.4600 C   0  0  0  0  0  2  0  0  0  0  0  0
  161.5580  205.7980  152.5120 C   0  0  0  0  0  2  0  0  0  0  0  0
  161.2660  204.3480  152.1700 C   0  0  0  0  0  2  0  0  0  0  0  0
  160.5990  204.2470  150.8040 C   0  0  0  0  0  2  0  0  0  0  0  0
  161.3280  203.2450  149.9160 C   0  0  1  0  0  3  0  0  0  0  0  0
  160.7750  201.8440  150.1250 C   0  0  0  0  0  1  0  0  0  0  0  0
  161.2230  203.6400  148.4720 C   0  0  0  0  0  0  0  0  0  0  0  0
  160.7130  202.8810  147.6630 O   0  0  0  0  0  0  0  0  0  0  0  0
  161.7140  204.9820  148.0060 C   0  0  1  0  0  3  0  0  0  0  0  0
  162.2090  204.9090  146.5980 C   0  0  0  0  0  0  0  0  0  0  0  0
  161.3180  204.9200  145.5330 O   0  0  0  0  0  0  0  0  0  0  0  0
  163.4440  204.8040  146.3770 O   0  0  0  0  0  1  0  0  0  0  0  0
  160.6570  206.0710  148.1550 C   0  0  0  0  0  2  0  0  0  0  0  0
  161.1740  207.1960  149.0320 C   0  0  0  0  0  1  0  0  0  0  0  0
  1 19  1  0  0  0  0
  2 18  1  6  0  0  0
  2 10  1  0  0  0  0
  2  6  1  0  0  0  0
  4  8  1  0  0  0  0
  4 13  1  0  0  0  0
  5 17  1  0  0  0  0
  5 11  1  1  0  0  0
  6  1  1  1  0  0  0
  6  5  1  0  0  0  0
  7  9  1  1  0  0  0
  7 14  1  0  0  0  0
 10  8  1  6  0  0  0
 10 15  1  0  0  0  0
 13  7  1  0  0  0  0
 14 16  2  0  0  0  0
 15 14  1  6  0  0  0
 15  3  1  0  0  0  0
 17  3  1  0  0  0  0
 17 12  1  1  0  0  0
 20 19  1  0  0  0  0
 21 20  1  0  0  0  0
 22 21  1  0  0  0  0
 23 22  1  0  0  0  0
 24 23  1  0  0  0  0
 25 26  1  6  0  0  0
 25 24  1  0  0  0  0
 27 25  1  0  0  0  0
 28 27  2  0  0  0  0
 29 33  1  6  0  0  0
 29 27  1  0  0  0  0
 30 29  1  0  0  0  0
 31 30  2  0  0  0  0
 32 30  1  0  0  0  0
 33 34  1  0  0  0  0
M  END
>  <MODEL>
1

>  <REMARK>
 VINA RESULT:      -7.1      0.000      0.000
  Name = 
  12 active torsions:
  status: ('A' for Active; 'I' for Inactive)
    1  A    between atoms: C_1  and  C_9
    2  A    between atoms: C_1  and  C_20
    3  A    between atoms: C_2  and  C_25
    4  A    between atoms: C_2  and  C_32
    5  A    between atoms: C_3  and  C_25
    6  A    between atoms: C_5  and  C_19
    7  A    between atoms: C_5  and  C_32
    8  A    between atoms: C_10  and  C_12
    9  A    between atoms: C_10  and  C_20
   10  A    between atoms: C_12  and  C_22
   11  A    between atoms: C_19  and  C_22
   12  A    between atoms: C_25  and  C_27
                            x       y       z     vdW  Elec       q    Type
                         _______ _______ _______ _____ _____    ______ ____

>  <TORSDO>
F 12

$$$$
=
 OpenBabel11062409523D

 34 35  0  0  1  0  0  0  0  0999 V2000
  159.9460  208.7890  155.8470 C   0  0  0  0  0  2  0  0  0  0  0  0
  160.5130  210.2910  153.8550 C   0  0  1  0  0  3  0  0  0  0  0  0
  160.4940  211.6720  157.0730 S   0  0  0  0  0  0  0  0  0  0  0  0
  158.3930  212.0790  152.5970 C   0  0  0  0  0  2  0  0  0  0  0  0
  162.2660  209.9300  155.7830 C   0  0  2  0  0  3  0  0  0  0  0  0
  161.0520  209.4010  154.9880 C   0  0  1  0  0  3  0  0  0  0  0  0
  157.4590  213.1560  154.7620 C   0  0  2  0  0  3  0  0  0  0  0  0
  159.7840  212.5880  152.9820 C   0  0  0  0  0  2  0  0  0  0  0  0
  156.2380  213.4460  155.3750 O   0  0  0  0  0  1  0  0  0  0  0  0
  160.3760  211.8000  154.1630 C   0  0  1  0  0  3  0  0  0  0  0  0
  162.6180  209.0320  156.7950 O   0  0  0  0  0  1  0  0  0  0  0  0
  163.1360  211.6320  157.2610 O   0  0  0  0  0  1  0  0  0  0  0  0
  157.2470  212.8430  153.2760 C   0  0  0  0  0  2  0  0  0  0  0  0
  158.1950  212.0780  155.5030 C   0  0  0  0  0  0  0  0  0  0  0  0
  159.6920  212.1810  155.4990 C   0  0  1  0  0  3  0  0  0  0  0  0
  157.5840  210.9310  155.8160 C   0  0  0  0  0  2  0  0  0  0  0  0
  162.1290  211.3570  156.3340 C   0  0  2  0  0  3  0  0  0  0  0  0
  161.3780  210.0740  152.6250 C   0  0  0  0  0  1  0  0  0  0  0  0
  159.9390  207.2670  155.7460 C   0  0  0  0  0  2  0  0  0  0  0  0
  161.0350  206.7610  154.8130 C   0  0  0  0  0  2  0  0  0  0  0  0
  160.4840  206.2790  153.4770 C   0  0  0  0  0  2  0  0  0  0  0  0
  161.2500  205.0690  152.9680 C   0  0  0  0  0  2  0  0  0  0  0  0
  160.9400  204.8270  151.5020 C   0  0  0  0  0  2  0  0  0  0  0  0
  161.8880  205.6290  150.6190 C   0  0  0  0  0  2  0  0  0  0  0  0
  161.1190  206.3720  149.5330 C   0  0  1  0  0  3  0  0  0  0  0  0
  161.1730  207.8720  149.7710 C   0  0  0  0  0  1  0  0  0  0  0  0
  161.6610  206.0370  148.1730 C   0  0  0  0  0  0  0  0  0  0  0  0
  162.6420  206.6230  147.7420 O   0  0  0  0  0  0  0  0  0  0  0  0
  161.0280  204.9600  147.3390 C   0  0  1  0  0  3  0  0  0  0  0  0
  160.9420  205.3760  145.9070 C   0  0  0  0  0  0  0  0  0  0  0  0
  160.3240  206.5690  145.5520 O   0  0  0  0  0  1  0  0  0  0  0  0
  161.4060  204.6240  145.0110 O   0  0  0  0  0  0  0  0  0  0  0  0
  161.7480  203.6220  147.4740 C   0  0  0  0  0  2  0  0  0  0  0  0
  161.1260  202.7930  148.5820 C   0  0  0  0  0  1  0  0  0  0  0  0
  2 18  1  6  0  0  0
  2 10  1  0  0  0  0
  2  6  1  0  0  0  0
  4  8  1  0  0  0  0
  4 13  1  0  0  0  0
  5 17  1  0  0  0  0
  5 11  1  1  0  0  0
  6  5  1  0  0  0  0
  6  1  1  1  0  0  0
  7  9  1  1  0  0  0
  7 14  1  0  0  0  0
 10  8  1  6  0  0  0
 10 15  1  0  0  0  0
 13  7  1  0  0  0  0
 14 16  2  0  0  0  0
 15 14  1  6  0  0  0
 15  3  1  0  0  0  0
 17  3  1  0  0  0  0
 17 12  1  1  0  0  0
 19  1  1  0  0  0  0
 20 19  1  0  0  0  0
 21 20  1  0  0  0  0
 22 21  1  0  0  0  0
 23 22  1  0  0  0  0
 24 23  1  0  0  0  0
 25 26  1  1  0  0  0
 25 24  1  0  0  0  0
 27 25  1  0  0  0  0
 28 27  2  0  0  0  0
 29 33  1  6  0  0  0
 29 27  1  0  0  0  0
 30 29  1  0  0  0  0
 31 30  1  0  0  0  0
 32 30  2  0  0  0  0
 33 34  1  0  0  0  0
M  END
>  <MODEL>
2

>  <REMARK>
 VINA RESULT:      -6.9      0.951      1.849
  Name = 
  12 active torsions:
  status: ('A' for Active; 'I' for Inactive)
    1  A    between atoms: C_1  and  C_9
    2  A    between atoms: C_1  and  C_20
    3  A    between atoms: C_2  and  C_25
    4  A    between atoms: C_2  and  C_32
    5  A    between atoms: C_3  and  C_25
    6  A    between atoms: C_5  and  C_19
    7  A    between atoms: C_5  and  C_32
    8  A    between atoms: C_10  and  C_12
    9  A    between atoms: C_10  and  C_20
   10  A    between atoms: C_12  and  C_22
   11  A    between atoms: C_19  and  C_22
   12  A    between atoms: C_25  and  C_27
                            x       y       z     vdW  Elec       q    Type
                         _______ _______ _______ _____ _____    ______ ____

>  <TORSDO>
F 12

$$$$
=
 OpenBabel11062409523D

 34 35  0  0  1  0  0  0  0  0999 V2000
  160.7940  209.3840  153.4770 C   0  0  0  0  0  2  0  0  0  0  0  0
  161.5660  210.7080  155.5260 C   0  0  1  0  0  3  0  0  0  0  0  0
  158.7170  208.6890  155.7840 S   0  0  0  0  0  0  0  0  0  0  0  0
  160.2790  213.3760  156.2350 C   0  0  0  0  0  2  0  0  0  0  0  0
  161.4450  208.0820  155.6140 C   0  0  2  0  0  3  0  0  0  0  0  0
  161.6040  209.3670  154.7740 C   0  0  1  0  0  3  0  0  0  0  0  0
  157.7920  212.6670  156.0560 C   0  0  2  0  0  3  0  0  0  0  0  0
  160.4910  212.2600  157.2600 C   0  0  0  0  0  2  0  0  0  0  0  0
  156.5880  213.1080  155.5030 O   0  0  0  0  0  1  0  0  0  0  0  0
  160.4700  210.8680  156.6040 C   0  0  1  0  0  3  0  0  0  0  0  0
  161.4660  206.9520  154.7910 O   0  0  0  0  0  1  0  0  0  0  0  0
  160.0210  206.7650  157.0550 O   0  0  0  0  0  1  0  0  0  0  0  0
  158.8130  213.8100  156.0890 C   0  0  0  0  0  2  0  0  0  0  0  0
  158.2920  211.4370  155.3550 C   0  0  0  0  0  0  0  0  0  0  0  0
  159.0330  210.4490  156.2080 C   0  0  1  0  0  3  0  0  0  0  0  0
  158.3910  211.4070  154.0240 C   0  0  0  0  0  2  0  0  0  0  0  0
  160.2360  208.0530  156.5620 C   0  0  2  0  0  3  0  0  0  0  0  0
  162.9410  210.9620  156.1210 C   0  0  0  0  0  1  0  0  0  0  0  0
  161.6190  209.9170  152.3100 C   0  0  0  0  0  2  0  0  0  0  0  0
  162.1340  208.7860  151.4250 C   0  0  0  0  0  2  0  0  0  0  0  0
  161.2410  207.5530  151.4780 C   0  0  0  0  0  2  0  0  0  0  0  0
  162.0590  206.2750  151.4030 C   0  0  0  0  0  2  0  0  0  0  0  0
  161.1610  205.0630  151.5750 C   0  0  0  0  0  2  0  0  0  0  0  0
  160.5000  204.6990  150.2510 C   0  0  0  0  0  2  0  0  0  0  0  0
  161.3300  203.6680  149.4950 C   0  0  1  0  0  3  0  0  0  0  0  0
  160.7640  202.2720  149.6980 C   0  0  0  0  0  1  0  0  0  0  0  0
  161.3890  204.0020  148.0320 C   0  0  0  0  0  0  0  0  0  0  0  0
  160.9570  203.2150  147.2050 O   0  0  0  0  0  0  0  0  0  0  0  0
  161.9490  205.3170  147.5670 C   0  0  1  0  0  3  0  0  0  0  0  0
  162.6370  205.1670  146.2500 C   0  0  0  0  0  0  0  0  0  0  0  0
  162.0220  205.5880  145.0770 O   0  0  0  0  0  0  0  0  0  0  0  0
  163.7720  204.6250  146.1980 O   0  0  0  0  0  1  0  0  0  0  0  0
  160.8880  206.4110  147.5050 C   0  0  0  0  0  2  0  0  0  0  0  0
  161.4540  207.7280  148.0020 C   0  0  0  0  0  1  0  0  0  0  0  0
  2 18  1  1  0  0  0
  2 10  1  0  0  0  0
  3 15  1  0  0  0  0
  3 17  1  0  0  0  0
  4  8  1  0  0  0  0
  5 11  1  6  0  0  0
  5 17  1  0  0  0  0
  6  1  1  6  0  0  0
  6  2  1  0  0  0  0
  6  5  1  0  0  0  0
  7  9  1  6  0  0  0
  7 13  1  0  0  0  0
 10  8  1  6  0  0  0
 13  4  1  0  0  0  0
 14  7  1  0  0  0  0
 15 14  1  6  0  0  0
 15 10  1  0  0  0  0
 16 14  2  0  0  0  0
 17 12  1  6  0  0  0
 19  1  1  0  0  0  0
 20 21  1  0  0  0  0
 20 19  1  0  0  0  0
 22 21  1  0  0  0  0
 22 23  1  0  0  0  0
 24 23  1  0  0  0  0
 25 26  1  6  0  0  0
 25 24  1  0  0  0  0
 27 25  1  0  0  0  0
 28 27  2  0  0  0  0
 29 33  1  6  0  0  0
 29 27  1  0  0  0  0
 30 29  1  0  0  0  0
 31 30  2  0  0  0  0
 32 30  1  0  0  0  0
 33 34  1  0  0  0  0
M  END
>  <MODEL>
3

>  <REMARK>
 VINA RESULT:      -6.7      1.698      2.562
  Name = 
  12 active torsions:
  status: ('A' for Active; 'I' for Inactive)
    1  A    between atoms: C_1  and  C_9
    2  A    between atoms: C_1  and  C_20
    3  A    between atoms: C_2  and  C_25
    4  A    between atoms: C_2  and  C_32
    5  A    between atoms: C_3  and  C_25
    6  A    between atoms: C_5  and  C_19
    7  A    between atoms: C_5  and  C_32
    8  A    between atoms: C_10  and  C_12
    9  A    between atoms: C_10  and  C_20
   10  A    between atoms: C_12  and  C_22
   11  A    between atoms: C_19  and  C_22
   12  A    between atoms: C_25  and  C_27
                            x       y       z     vdW  Elec       q    Type
                         _______ _______ _______ _____ _____    ______ ____

>  <TORSDO>
F 12

$$$$
=
 OpenBabel11062409523D

 34 35  0  0  1  0  0  0  0  0999 V2000
  160.7720  209.4110  153.3430 C   0  0  0  0  0  2  0  0  0  0  0  0
  161.5260  210.6730  155.4370 C   0  0  1  0  0  3  0  0  0  0  0  0
  158.6910  208.6250  155.6160 S   0  0  0  0  0  0  0  0  0  0  0  0
  160.2150  213.3060  156.2290 C   0  0  0  0  0  2  0  0  0  0  0  0
  161.4240  208.0450  155.4380 C   0  0  2  0  0  3  0  0  0  0  0  0
  161.5770  209.3580  154.6410 C   0  0  1  0  0  3  0  0  0  0  0  0
  157.7340  212.5840  156.0160 C   0  0  2  0  0  3  0  0  0  0  0  0
  160.4310  212.1590  157.2170 C   0  0  0  0  0  2  0  0  0  0  0  0
  156.5300  213.0340  155.4730 O   0  0  0  0  0  1  0  0  0  0  0  0
  160.4240  210.7890  156.5160 C   0  0  1  0  0  3  0  0  0  0  0  0
  161.4570  206.9430  154.5790 O   0  0  0  0  0  1  0  0  0  0  0  0
  160.0040  206.6700  156.8280 O   0  0  0  0  0  1  0  0  0  0  0  0
  158.7470  213.7330  156.0910 C   0  0  0  0  0  2  0  0  0  0  0  0
  158.2460  211.3820  155.2770 C   0  0  0  0  0  0  0  0  0  0  0  0
  158.9920  210.3730  156.1000 C   0  0  1  0  0  3  0  0  0  0  0  0
  158.3510  211.3980  153.9460 C   0  0  0  0  0  2  0  0  0  0  0  0
  160.2120  207.9750  156.3790 C   0  0  2  0  0  3  0  0  0  0  0  0
  162.8960  210.9170  156.0460 C   0  0  0  0  0  1  0  0  0  0  0  0
  161.6600  209.7460  152.1490 C   0  0  0  0  0  2  0  0  0  0  0  0
  162.1760  208.4850  151.4620 C   0  0  0  0  0  2  0  0  0  0  0  0
  161.8270  208.4450  149.9800 C   0  0  0  0  0  2  0  0  0  0  0  0
  161.1560  207.1350  149.6050 C   0  0  0  0  0  2  0  0  0  0  0  0
  161.1690  206.1790  150.7850 C   0  0  0  0  0  2  0  0  0  0  0  0
  160.3340  204.9430  150.4770 C   0  0  0  0  0  2  0  0  0  0  0  0
  161.2230  203.7180  150.2950 C   0  0  1  0  0  3  0  0  0  0  0  0
  161.2700  202.8970  151.5730 C   0  0  0  0  0  1  0  0  0  0  0  0
  160.7410  202.8770  149.1480 C   0  0  0  0  0  0  0  0  0  0  0  0
  159.7290  202.2030  149.2640 O   0  0  0  0  0  0  0  0  0  0  0  0
  161.4750  202.8740  147.8370 C   0  0  1  0  0  3  0  0  0  0  0  0
  161.1310  201.6610  147.0360 C   0  0  0  0  0  0  0  0  0  0  0  0
  161.4140  200.3900  147.5200 O   0  0  0  0  0  1  0  0  0  0  0  0
  160.6090  201.7930  145.8990 O   0  0  0  0  0  0  0  0  0  0  0  0
  161.2290  204.1450  147.0310 C   0  0  0  0  0  2  0  0  0  0  0  0
  162.5380  204.8610  146.7560 C   0  0  0  0  0  1  0  0  0  0  0  0
  2 18  1  1  0  0  0
  2 10  1  0  0  0  0
  3 15  1  0  0  0  0
  3 17  1  0  0  0  0
  4  8  1  0  0  0  0
  5 11  1  6  0  0  0
  5 17  1  0  0  0  0
  6  1  1  6  0  0  0
  6  2  1  0  0  0  0
  6  5  1  0  0  0  0
  7  9  1  6  0  0  0
  7 13  1  0  0  0  0
 10  8  1  6  0  0  0
 13  4  1  0  0  0  0
 14  7  1  0  0  0  0
 15 14  1  6  0  0  0
 15 10  1  0  0  0  0
 16 14  2  0  0  0  0
 17 12  1  6  0  0  0
 19  1  1  0  0  0  0
 20 19  1  0  0  0  0
 21 20  1  0  0  0  0
 22 21  1  0  0  0  0
 22 23  1  0  0  0  0
 24 23  1  0  0  0  0
 25 24  1  0  0  0  0
 25 26  1  1  0  0  0
 27 28  2  0  0  0  0
 27 25  1  0  0  0  0
 29 33  1  6  0  0  0
 29 27  1  0  0  0  0
 30 31  1  0  0  0  0
 30 29  1  0  0  0  0
 32 30  2  0  0  0  0
 34 33  1  0  0  0  0
M  END
>  <MODEL>
4

>  <REMARK>
 VINA RESULT:      -6.7      2.037      3.114
  Name = 
  12 active torsions:
  status: ('A' for Active; 'I' for Inactive)
    1  A    between atoms: C_1  and  C_9
    2  A    between atoms: C_1  and  C_20
    3  A    between atoms: C_2  and  C_25
    4  A    between atoms: C_2  and  C_32
    5  A    between atoms: C_3  and  C_25
    6  A    between atoms: C_5  and  C_19
    7  A    between atoms: C_5  and  C_32
    8  A    between atoms: C_10  and  C_12
    9  A    between atoms: C_10  and  C_20
   10  A    between atoms: C_12  and  C_22
   11  A    between atoms: C_19  and  C_22
   12  A    between atoms: C_25  and  C_27
                            x       y       z     vdW  Elec       q    Type
                         _______ _______ _______ _____ _____    ______ ____

>  <TORSDO>
F 12

$$$$
=
 OpenBabel11062409523D

 34 35  0  0  1  0  0  0  0  0999 V2000
  160.7230  209.3880  153.4060 C   0  0  0  0  0  2  0  0  0  0  0  0
  161.5460  210.6880  155.4510 C   0  0  1  0  0  3  0  0  0  0  0  0
  158.7370  208.6210  155.7690 S   0  0  0  0  0  0  0  0  0  0  0  0
  160.2440  213.3230  156.2520 C   0  0  0  0  0  2  0  0  0  0  0  0
  161.4660  208.0590  155.4960 C   0  0  2  0  0  3  0  0  0  0  0  0
  161.5780  209.3610  154.6740 C   0  0  1  0  0  3  0  0  0  0  0  0
  157.7640  212.5790  156.1460 C   0  0  2  0  0  3  0  0  0  0  0  0
  160.5080  212.1920  157.2500 C   0  0  0  0  0  2  0  0  0  0  0  0
  156.5360  213.0110  155.6420 O   0  0  0  0  0  1  0  0  0  0  0  0
  160.4850  210.8120  156.5690 C   0  0  1  0  0  3  0  0  0  0  0  0
  161.4750  206.9440  154.6520 O   0  0  0  0  0  1  0  0  0  0  0  0
  160.1120  206.6950  156.9590 O   0  0  0  0  0  1  0  0  0  0  0  0
  158.7690  213.7360  156.1650 C   0  0  0  0  0  2  0  0  0  0  0  0
  158.2570  211.3690  155.4060 C   0  0  0  0  0  0  0  0  0  0  0  0
  159.0420  210.3780  156.2150 C   0  0  1  0  0  3  0  0  0  0  0  0
  158.3100  211.3650  154.0710 C   0  0  0  0  0  2  0  0  0  0  0  0
  160.2910  207.9950  156.4830 C   0  0  2  0  0  3  0  0  0  0  0  0
  162.9360  210.9510  156.0040 C   0  0  0  0  0  1  0  0  0  0  0  0
  161.3390  210.2860  152.3370 C   0  0  0  0  0  2  0  0  0  0  0  0
  162.2780  209.5060  151.4230 C   0  0  0  0  0  2  0  0  0  0  0  0
  161.9900  208.0100  151.4320 C   0  0  0  0  0  2  0  0  0  0  0  0
  161.1090  207.6100  150.2610 C   0  0  0  0  0  2  0  0  0  0  0  0
  161.7120  208.0970  148.9560 C   0  0  0  0  0  2  0  0  0  0  0  0
  162.2260  206.9200  148.1360 C   0  0  0  0  0  2  0  0  0  0  0  0
  161.0870  205.9770  147.7670 C   0  0  1  0  0  3  0  0  0  0  0  0
  160.6120  206.2410  146.3470 C   0  0  0  0  0  1  0  0  0  0  0  0
  161.5130  204.5450  147.9200 C   0  0  0  0  0  0  0  0  0  0  0  0
  162.4040  204.0910  147.2180 O   0  0  0  0  0  0  0  0  0  0  0  0
  160.8740  203.6610  148.9530 C   0  0  1  0  0  3  0  0  0  0  0  0
  160.9120  202.2300  148.5270 C   0  0  0  0  0  0  0  0  0  0  0  0
  160.5930  201.8690  147.2240 O   0  0  0  0  0  0  0  0  0  0  0  0
  161.2070  201.3380  149.3660 O   0  0  0  0  0  1  0  0  0  0  0  0
  161.5000  203.8350  150.3330 C   0  0  0  0  0  2  0  0  0  0  0  0
  160.4270  204.0910  151.3740 C   0  0  0  0  0  1  0  0  0  0  0  0
  2 18  1  1  0  0  0
  2 10  1  0  0  0  0
  3 15  1  0  0  0  0
  3 17  1  0  0  0  0
  4  8  1  0  0  0  0
  5 11  1  6  0  0  0
  5 17  1  0  0  0  0
  6  1  1  6  0  0  0
  6  2  1  0  0  0  0
  6  5  1  0  0  0  0
  7  9  1  6  0  0  0
  7 13  1  0  0  0  0
 10  8  1  6  0  0  0
 13  4  1  0  0  0  0
 14  7  1  0  0  0  0
 15 14  1  6  0  0  0
 15 10  1  0  0  0  0
 16 14  2  0  0  0  0
 17 12  1  6  0  0  0
 19  1  1  0  0  0  0
 20 21  1  0  0  0  0
 20 19  1  0  0  0  0
 22 21  1  0  0  0  0
 23 22  1  0  0  0  0
 24 23  1  0  0  0  0
 25 26  1  6  0  0  0
 25 27  1  0  0  0  0
 25 24  1  0  0  0  0
 27 29  1  0  0  0  0
 28 27  2  0  0  0  0
 29 33  1  1  0  0  0
 30 29  1  0  0  0  0
 30 32  1  0  0  0  0
 31 30  2  0  0  0  0
 33 34  1  0  0  0  0
M  END
>  <MODEL>
5

>  <REMARK>
 VINA RESULT:      -6.6      1.865      3.455
  Name = 
  12 active torsions:
  status: ('A' for Active; 'I' for Inactive)
    1  A    between atoms: C_1  and  C_9
    2  A    between atoms: C_1  and  C_20
    3  A    between atoms: C_2  and  C_25
    4  A    between atoms: C_2  and  C_32
    5  A    between atoms: C_3  and  C_25
    6  A    between atoms: C_5  and  C_19
    7  A    between atoms: C_5  and  C_32
    8  A    between atoms: C_10  and  C_12
    9  A    between atoms: C_10  and  C_20
   10  A    between atoms: C_12  and  C_22
   11  A    between atoms: C_19  and  C_22
   12  A    between atoms: C_25  and  C_27
                            x       y       z     vdW  Elec       q    Type
                         _______ _______ _______ _____ _____    ______ ____

>  <TORSDO>
F 12

$$$$
=
 OpenBabel11062409523D

 34 35  0  0  1  0  0  0  0  0999 V2000
  159.8770  208.7940  155.1940 C   0  0  0  0  0  2  0  0  0  0  0  0
  160.3900  210.6590  153.5190 C   0  0  1  0  0  3  0  0  0  0  0  0
  160.0860  211.4610  156.9140 S   0  0  0  0  0  0  0  0  0  0  0  0
  158.1700  212.4460  152.4450 C   0  0  0  0  0  2  0  0  0  0  0  0
  162.0760  210.1260  155.4670 C   0  0  2  0  0  3  0  0  0  0  0  0
  160.9580  209.6380  154.5200 C   0  0  1  0  0  3  0  0  0  0  0  0
  157.0350  213.0500  154.6960 C   0  0  2  0  0  3  0  0  0  0  0  0
  159.4850  213.0000  152.9960 C   0  0  0  0  0  2  0  0  0  0  0  0
  155.7640  213.1220  155.2710 O   0  0  0  0  0  1  0  0  0  0  0  0
  160.0940  212.0750  154.0650 C   0  0  1  0  0  3  0  0  0  0  0  0
  162.4640  209.1020  156.3350 O   0  0  0  0  0  1  0  0  0  0  0  0
  162.7070  211.6180  157.2590 O   0  0  0  0  0  1  0  0  0  0  0  0
  156.9250  212.9790  153.1690 C   0  0  0  0  0  2  0  0  0  0  0  0
  157.8350  211.9280  155.2920 C   0  0  0  0  0  0  0  0  0  0  0  0
  159.3140  212.1600  155.3990 C   0  0  1  0  0  3  0  0  0  0  0  0
  157.3240  210.6970  155.3700 C   0  0  0  0  0  2  0  0  0  0  0  0
  161.7760  211.4200  156.2370 C   0  0  2  0  0  3  0  0  0  0  0  0
  161.3290  210.7320  152.3270 C   0  0  0  0  0  1  0  0  0  0  0  0
  159.9310  207.3420  154.7280 C   0  0  0  0  0  2  0  0  0  0  0  0
  161.0820  207.1080  153.7540 C   0  0  0  0  0  2  0  0  0  0  0  0
  160.6250  206.4440  152.4610 C   0  0  0  0  0  2  0  0  0  0  0  0
  161.2010  205.0460  152.3250 C   0  0  0  0  0  2  0  0  0  0  0  0
  160.8380  204.4550  150.9740 C   0  0  0  0  0  2  0  0  0  0  0  0
  161.5450  205.2100  149.8560 C   0  0  0  0  0  2  0  0  0  0  0  0
  160.8320  205.0030  148.5250 C   0  0  1  0  0  3  0  0  0  0  0  0
  160.9080  206.2620  147.6760 C   0  0  0  0  0  1  0  0  0  0  0  0
  161.4160  203.8350  147.7840 C   0  0  0  0  0  0  0  0  0  0  0  0
  162.4680  203.9580  147.1760 O   0  0  0  0  0  0  0  0  0  0  0  0
  160.7360  202.4960  147.8050 C   0  0  1  0  0  3  0  0  0  0  0  0
  160.8030  201.8430  146.4630 C   0  0  0  0  0  0  0  0  0  0  0  0
  160.4200  202.5320  145.3200 O   0  0  0  0  0  0  0  0  0  0  0  0
  161.1820  200.6460  146.3720 O   0  0  0  0  0  1  0  0  0  0  0  0
  161.2960  201.5770  148.8860 C   0  0  0  0  0  2  0  0  0  0  0  0
  160.1960  201.1430  149.8370 C   0  0  0  0  0  1  0  0  0  0  0  0
  2 18  1  6  0  0  0
  2 10  1  0  0  0  0
  2  6  1  0  0  0  0
  4  8  1  0  0  0  0
  4 13  1  0  0  0  0
  5 17  1  0  0  0  0
  5 11  1  1  0  0  0
  6  1  1  1  0  0  0
  6  5  1  0  0  0  0
  7  9  1  1  0  0  0
  7 14  1  0  0  0  0
 10  8  1  6  0  0  0
 10 15  1  0  0  0  0
 13  7  1  0  0  0  0
 14 16  2  0  0  0  0
 15 14  1  6  0  0  0
 15  3  1  0  0  0  0
 17  3  1  0  0  0  0
 17 12  1  1  0  0  0
 19  1  1  0  0  0  0
 20 19  1  0  0  0  0
 21 20  1  0  0  0  0
 22 21  1  0  0  0  0
 23 22  1  0  0  0  0
 24 23  1  0  0  0  0
 25 26  1  6  0  0  0
 25 24  1  0  0  0  0
 27 29  1  0  0  0  0
 27 25  1  0  0  0  0
 28 27  2  0  0  0  0
 29 33  1  1  0  0  0
 30 29  1  0  0  0  0
 31 30  2  0  0  0  0
 32 30  1  0  0  0  0
 33 34  1  0  0  0  0
M  END
>  <MODEL>
6

>  <REMARK>
 VINA RESULT:      -6.5      1.073      2.134
  Name = 
  12 active torsions:
  status: ('A' for Active; 'I' for Inactive)
    1  A    between atoms: C_1  and  C_9
    2  A    between atoms: C_1  and  C_20
    3  A    between atoms: C_2  and  C_25
    4  A    between atoms: C_2  and  C_32
    5  A    between atoms: C_3  and  C_25
    6  A    between atoms: C_5  and  C_19
    7  A    between atoms: C_5  and  C_32
    8  A    between atoms: C_10  and  C_12
    9  A    between atoms: C_10  and  C_20
   10  A    between atoms: C_12  and  C_22
   11  A    between atoms: C_19  and  C_22
   12  A    between atoms: C_25  and  C_27
                            x       y       z     vdW  Elec       q    Type
                         _______ _______ _______ _____ _____    ______ ____

>  <TORSDO>
F 12

$$$$
=
 OpenBabel11062409523D

 34 35  0  0  1  0  0  0  0  0999 V2000
  159.9610  209.0710  154.4330 C   0  0  0  0  0  2  0  0  0  0  0  0
  159.7790  211.4980  153.6440 C   0  0  1  0  0  3  0  0  0  0  0  0
  160.0070  210.8400  157.0760 S   0  0  0  0  0  0  0  0  0  0  0  0
  157.0990  212.9450  153.6520 C   0  0  0  0  0  2  0  0  0  0  0  0
  161.8850  210.7010  155.0040 C   0  0  2  0  0  3  0  0  0  0  0  0
  160.7130  210.3500  154.0630 C   0  0  1  0  0  3  0  0  0  0  0  0
  156.3380  212.3400  156.0550 C   0  0  2  0  0  3  0  0  0  0  0  0
  158.3710  213.5560  154.2420 C   0  0  0  0  0  2  0  0  0  0  0  0
  155.2150  211.8680  156.7370 O   0  0  0  0  0  1  0  0  0  0  0  0
  159.3390  212.4770  154.7580 C   0  0  1  0  0  3  0  0  0  0  0  0
  162.6200  209.5550  155.3210 O   0  0  0  0  0  1  0  0  0  0  0  0
  162.5690  211.5030  157.1780 O   0  0  0  0  0  1  0  0  0  0  0  0
  155.9440  212.8330  154.6580 C   0  0  0  0  0  2  0  0  0  0  0  0
  157.4340  211.3140  156.0410 C   0  0  0  0  0  0  0  0  0  0  0  0
  158.8360  211.8480  156.0810 C   0  0  1  0  0  3  0  0  0  0  0  0
  157.1850  210.0600  155.6530 C   0  0  0  0  0  2  0  0  0  0  0  0
  161.5090  211.4840  156.2710 C   0  0  2  0  0  3  0  0  0  0  0  0
  160.4340  212.2540  152.5000 C   0  0  0  0  0  1  0  0  0  0  0  0
  160.5640  207.8510  153.7450 C   0  0  0  0  0  2  0  0  0  0  0  0
  161.1090  208.1980  152.3630 C   0  0  0  0  0  2  0  0  0  0  0  0
  161.2590  206.9710  151.4710 C   0  0  0  0  0  2  0  0  0  0  0  0
  161.0530  207.3240  150.0080 C   0  0  0  0  0  2  0  0  0  0  0  0
  162.3920  207.4680  149.3070 C   0  0  0  0  0  2  0  0  0  0  0  0
  162.3320  206.8550  147.9140 C   0  0  0  0  0  2  0  0  0  0  0  0
  161.1660  205.8790  147.8000 C   0  0  1  0  0  3  0  0  0  0  0  0
  160.3170  206.2010  146.5810 C   0  0  0  0  0  1  0  0  0  0  0  0
  161.6620  204.4640  147.7360 C   0  0  0  0  0  0  0  0  0  0  0  0
  162.6890  204.2000  147.1300 O   0  0  0  0  0  0  0  0  0  0  0  0
  160.9230  203.3590  148.4370 C   0  0  1  0  0  3  0  0  0  0  0  0
  161.0220  202.0810  147.6710 C   0  0  0  0  0  0  0  0  0  0  0  0
  160.8240  202.0620  146.2960 O   0  0  0  0  0  0  0  0  0  0  0  0
  161.2570  201.0060  148.2820 O   0  0  0  0  0  1  0  0  0  0  0  0
  161.3930  203.1690  149.8760 C   0  0  0  0  0  2  0  0  0  0  0  0
  160.4220  203.8200  150.8420 C   0  0  0  0  0  1  0  0  0  0  0  0
  2 18  1  6  0  0  0
  2  6  1  0  0  0  0
  2 10  1  0  0  0  0
  4  8  1  0  0  0  0
  4 13  1  0  0  0  0
  5 11  1  1  0  0  0
  5 17  1  0  0  0  0
  6  1  1  1  0  0  0
  6  5  1  0  0  0  0
  7  9  1  6  0  0  0
 10  8  1  6  0  0  0
 10 15  1  0  0  0  0
 13  7  1  0  0  0  0
 14  7  1  0  0  0  0
 15 14  1  6  0  0  0
 15  3  1  0  0  0  0
 16 14  2  0  0  0  0
 17  3  1  0  0  0  0
 17 12  1  1  0  0  0
 19  1  1  0  0  0  0
 20 19  1  0  0  0  0
 21 20  1  0  0  0  0
 22 21  1  0  0  0  0
 23 22  1  0  0  0  0
 24 23  1  0  0  0  0
 25 26  1  6  0  0  0
 25 24  1  0  0  0  0
 27 25  1  0  0  0  0
 27 29  1  0  0  0  0
 28 27  2  0  0  0  0
 29 33  1  1  0  0  0
 30 32  1  0  0  0  0
 30 29  1  0  0  0  0
 31 30  2  0  0  0  0
 33 34  1  0  0  0  0
M  END
>  <MODEL>
7

>  <REMARK>
 VINA RESULT:      -5.8      1.278      2.616
  Name = 
  12 active torsions:
  status: ('A' for Active; 'I' for Inactive)
    1  A    between atoms: C_1  and  C_9
    2  A    between atoms: C_1  and  C_20
    3  A    between atoms: C_2  and  C_25
    4  A    between atoms: C_2  and  C_32
    5  A    between atoms: C_3  and  C_25
    6  A    between atoms: C_5  and  C_19
    7  A    between atoms: C_5  and  C_32
    8  A    between atoms: C_10  and  C_12
    9  A    between atoms: C_10  and  C_20
   10  A    between atoms: C_12  and  C_22
   11  A    between atoms: C_19  and  C_22
   12  A    between atoms: C_25  and  C_27
                            x       y       z     vdW  Elec       q    Type
                         _______ _______ _______ _____ _____    ______ ____

>  <TORSDO>
F 12

$$$$
=
 OpenBabel11062409523D

 34 35  0  0  1  0  0  0  0  0999 V2000
  161.1200  210.7400  148.2370 C   0  0  0  0  0  2  0  0  0  0  0  0
  162.6400  212.6690  147.5200 C   0  0  1  0  0  3  0  0  0  0  0  0
  159.2010  213.2450  147.8390 S   0  0  0  0  0  0  0  0  0  0  0  0
  162.9390  213.4110  144.5820 C   0  0  0  0  0  2  0  0  0  0  0  0
  161.2250  212.8480  149.7310 C   0  0  2  0  0  3  0  0  0  0  0  0
  161.9300  211.9580  148.6840 C   0  0  1  0  0  3  0  0  0  0  0  0
  160.4290  213.4800  143.9410 C   0  0  2  0  0  3  0  0  0  0  0  0
  162.6570  214.4470  145.6720 C   0  0  0  0  0  2  0  0  0  0  0  0
  159.5640  213.0250  142.9440 O   0  0  0  0  0  1  0  0  0  0  0  0
  161.8790  213.8380  146.8520 C   0  0  1  0  0  3  0  0  0  0  0  0
  160.5990  212.0600  150.7020 O   0  0  0  0  0  1  0  0  0  0  0  0
  159.4740  214.4500  150.1810 O   0  0  0  0  0  1  0  0  0  0  0  0
  161.8840  213.3870  143.4670 C   0  0  0  0  0  2  0  0  0  0  0  0
  160.1760  212.7750  145.2410 C   0  0  0  0  0  0  0  0  0  0  0  0
  160.3970  213.5860  146.4840 C   0  0  1  0  0  3  0  0  0  0  0  0
  160.1210  211.4410  145.2900 C   0  0  0  0  0  2  0  0  0  0  0  0
  160.2610  213.9010  149.1670 C   0  0  2  0  0  3  0  0  0  0  0  0
  164.0050  213.1300  148.0040 C   0  0  0  0  0  1  0  0  0  0  0  0
  161.9030  209.4460  148.4360 C   0  0  0  0  0  2  0  0  0  0  0  0
  161.6210  208.8240  149.8000 C   0  0  0  0  0  2  0  0  0  0  0  0
  161.1530  207.3780  149.6960 C   0  0  0  0  0  2  0  0  0  0  0  0
  161.6140  206.5600  150.8900 C   0  0  0  0  0  2  0  0  0  0  0  0
  161.2020  205.1080  150.7250 C   0  0  0  0  0  2  0  0  0  0  0  0
  160.8040  204.8290  149.2810 C   0  0  0  0  0  2  0  0  0  0  0  0
  161.2530  203.4360  148.8540 C   0  0  1  0  0  3  0  0  0  0  0  0
  160.3510  202.3740  149.4610 C   0  0  0  0  0  1  0  0  0  0  0  0
  161.2690  203.3180  147.3580 C   0  0  0  0  0  0  0  0  0  0  0  0
  161.2340  202.2180  146.8280 O   0  0  0  0  0  0  0  0  0  0  0  0
  161.2970  204.5460  146.4920 C   0  0  1  0  0  3  0  0  0  0  0  0
  162.6390  205.1990  146.5360 C   0  0  0  0  0  0  0  0  0  0  0  0
  163.7550  204.5620  146.0050 O   0  0  0  0  0  0  0  0  0  0  0  0
  162.7670  206.3230  147.0870 O   0  0  0  0  0  1  0  0  0  0  0  0
  160.8820  204.2520  145.0540 C   0  0  0  0  0  2  0  0  0  0  0  0
  161.2770  205.3980  144.1420 C   0  0  0  0  0  1  0  0  0  0  0  0
  1 19  1  0  0  0  0
  2 18  1  1  0  0  0
  2  6  1  0  0  0  0
  3 17  1  0  0  0  0
  4  8  1  0  0  0  0
  5 11  1  1  0  0  0
  6  1  1  6  0  0  0
  6  5  1  0  0  0  0
  7  9  1  6  0  0  0
  7 14  1  0  0  0  0
 10  8  1  6  0  0  0
 10  2  1  0  0  0  0
 13  7  1  0  0  0  0
 13  4  1  0  0  0  0
 14 16  2  0  0  0  0
 15 14  1  6  0  0  0
 15 10  1  0  0  0  0
 15  3  1  0  0  0  0
 17  5  1  0  0  0  0
 17 12  1  1  0  0  0
 19 20  1  0  0  0  0
 21 20  1  0  0  0  0
 21 22  1  0  0  0  0
 23 22  1  0  0  0  0
 24 23  1  0  0  0  0
 25 24  1  0  0  0  0
 25 26  1  1  0  0  0
 27 25  1  0  0  0  0
 28 27  2  0  0  0  0
 29 33  1  6  0  0  0
 29 30  1  0  0  0  0
 29 27  1  0  0  0  0
 30 32  1  0  0  0  0
 31 30  2  0  0  0  0
 34 33  1  0  0  0  0
M  END
>  <MODEL>
8

>  <REMARK>
 VINA RESULT:      -5.4      4.941      6.822
  Name = 
  12 active torsions:
  status: ('A' for Active; 'I' for Inactive)
    1  A    between atoms: C_1  and  C_9
    2  A    between atoms: C_1  and  C_20
    3  A    between atoms: C_2  and  C_25
    4  A    between atoms: C_2  and  C_32
    5  A    between atoms: C_3  and  C_25
    6  A    between atoms: C_5  and  C_19
    7  A    between atoms: C_5  and  C_32
    8  A    between atoms: C_10  and  C_12
    9  A    between atoms: C_10  and  C_20
   10  A    between atoms: C_12  and  C_22
   11  A    between atoms: C_19  and  C_22
   12  A    between atoms: C_25  and  C_27
                            x       y       z     vdW  Elec       q    Type
                         _______ _______ _______ _____ _____    ______ ____

>  <TORSDO>
F 12

$$$$
=
 OpenBabel11062409523D

 34 35  0  0  1  0  0  0  0  0999 V2000
  160.9470  210.7200  148.2110 C   0  0  0  0  0  2  0  0  0  0  0  0
  162.5770  212.5590  147.4990 C   0  0  1  0  0  3  0  0  0  0  0  0
  159.2280  213.3930  148.0880 S   0  0  0  0  0  0  0  0  0  0  0  0
  162.7470  213.4530  144.5920 C   0  0  0  0  0  2  0  0  0  0  0  0
  161.3300  212.7160  149.8090 C   0  0  2  0  0  3  0  0  0  0  0  0
  161.8850  211.8380  148.6670 C   0  0  1  0  0  3  0  0  0  0  0  0
  160.2150  213.7660  144.1330 C   0  0  2  0  0  3  0  0  0  0  0  0
  162.6260  214.4390  145.7560 C   0  0  0  0  0  2  0  0  0  0  0  0
  159.2510  213.4450  143.1750 O   0  0  0  0  0  1  0  0  0  0  0  0
  161.8770  213.8250  146.9510 C   0  0  1  0  0  3  0  0  0  0  0  0
  160.7030  211.9250  150.7760 O   0  0  0  0  0  1  0  0  0  0  0  0
  159.7550  214.4250  150.4700 O   0  0  0  0  0  1  0  0  0  0  0  0
  161.6230  213.5830  143.5540 C   0  0  0  0  0  2  0  0  0  0  0  0
  159.9880  213.0050  145.4070 C   0  0  0  0  0  0  0  0  0  0  0  0
  160.3580  213.7180  146.6750 C   0  0  1  0  0  3  0  0  0  0  0  0
  159.8220  211.6790  145.3850 C   0  0  0  0  0  2  0  0  0  0  0  0
  160.4240  213.8780  149.3730 C   0  0  2  0  0  3  0  0  0  0  0  0
  164.0050  212.8760  147.9110 C   0  0  0  0  0  1  0  0  0  0  0  0
  161.5880  209.3470  148.3880 C   0  0  0  0  0  2  0  0  0  0  0  0
  162.4200  209.2760  149.6640 C   0  0  0  0  0  2  0  0  0  0  0  0
  162.3060  207.9260  150.3600 C   0  0  0  0  0  2  0  0  0  0  0  0
  161.3460  207.9890  151.5350 C   0  0  0  0  0  2  0  0  0  0  0  0
  161.2030  206.6200  152.1750 C   0  0  0  0  0  2  0  0  0  0  0  0
  162.2450  205.6600  151.6140 C   0  0  0  0  0  2  0  0  0  0  0  0
  161.5970  204.3570  151.1630 C   0  0  1  0  0  3  0  0  0  0  0  0
  160.4520  203.9800  152.0890 C   0  0  0  0  0  1  0  0  0  0  0  0
  161.1100  204.4690  149.7470 C   0  0  0  0  0  0  0  0  0  0  0  0
  160.3970  205.4030  149.4140 O   0  0  0  0  0  0  0  0  0  0  0  0
  161.5150  203.4550  148.7140 C   0  0  1  0  0  3  0  0  0  0  0  0
  160.8780  202.1320  148.9870 C   0  0  0  0  0  0  0  0  0  0  0  0
  159.4950  202.0100  149.0440 O   0  0  0  0  0  0  0  0  0  0  0  0
  161.6010  201.1240  149.1990 O   0  0  0  0  0  1  0  0  0  0  0  0
  161.2130  203.9210  147.2930 C   0  0  0  0  0  2  0  0  0  0  0  0
  162.4310  204.5900  146.6840 C   0  0  0  0  0  1  0  0  0  0  0  0
  1 19  1  0  0  0  0
  2 18  1  1  0  0  0
  2  6  1  0  0  0  0
  3 17  1  0  0  0  0
  4  8  1  0  0  0  0
  5 11  1  1  0  0  0
  6  1  1  6  0  0  0
  6  5  1  0  0  0  0
  7  9  1  6  0  0  0
  7 14  1  0  0  0  0
 10  8  1  6  0  0  0
 10  2  1  0  0  0  0
 13  7  1  0  0  0  0
 13  4  1  0  0  0  0
 15 14  1  6  0  0  0
 15 10  1  0  0  0  0
 15  3  1  0  0  0  0
 16 14  2  0  0  0  0
 17  5  1  0  0  0  0
 17 12  1  1  0  0  0
 19 20  1  0  0  0  0
 20 21  1  0  0  0  0
 21 22  1  0  0  0  0
 22 23  1  0  0  0  0
 24 23  1  0  0  0  0
 25 24  1  0  0  0  0
 25 26  1  1  0  0  0
 27 25  1  0  0  0  0
 28 27  2  0  0  0  0
 29 33  1  6  0  0  0
 29 30  1  0  0  0  0
 29 27  1  0  0  0  0
 30 31  2  0  0  0  0
 30 32  1  0  0  0  0
 34 33  1  0  0  0  0
M  END
>  <MODEL>
9

>  <REMARK>
 VINA RESULT:      -4.9      4.984      6.852
  Name = 
  12 active torsions:
  status: ('A' for Active; 'I' for Inactive)
    1  A    between atoms: C_1  and  C_9
    2  A    between atoms: C_1  and  C_20
    3  A    between atoms: C_2  and  C_25
    4  A    between atoms: C_2  and  C_32
    5  A    between atoms: C_3  and  C_25
    6  A    between atoms: C_5  and  C_19
    7  A    between atoms: C_5  and  C_32
    8  A    between atoms: C_10  and  C_12
    9  A    between atoms: C_10  and  C_20
   10  A    between atoms: C_12  and  C_22
   11  A    between atoms: C_19  and  C_22
   12  A    between atoms: C_25  and  C_27
                            x       y       z     vdW  Elec       q    Type
                         _______ _______ _______ _____ _____    ______ ____

>  <TORSDO>
F 12

$$$$
