=
 OpenBabel11052423173D

 27 30  0  0  1  0  0  0  0  0999 V2000
  160.8610  207.7060  153.5300 C   0  0  0  0  0  0  0  0  0  0  0  0
  160.4590  207.1230  154.5700 O   0  0  0  0  0  0  0  0  0  0  0  0
  161.9440  208.9670  151.2600 C   0  0  1  0  0  3  0  0  0  0  0  0
  161.4890  206.9190  152.4230 C   0  0  0  0  0  2  0  0  0  0  0  0
  160.8220  209.1290  153.4460 N   0  0  0  0  0  2  0  0  0  0  0  0
  161.0560  209.8070  152.1790 C   0  0  0  0  0  2  0  0  0  0  0  0
  161.3730  207.6090  151.1360 N   0  0  0  0  0  0  0  0  0  0  0  0
  161.9900  209.6880  149.9160 C   0  0  0  0  0  2  0  0  0  0  0  0
  161.9670  211.1280  150.1230 N   0  0  0  0  0  2  0  0  0  0  0  0
  161.6150  213.9400  146.9810 C   0  0  0  0  0  3  0  0  0  0  0  0
  161.8540  212.0630  149.0490 C   0  0  0  0  0  0  0  0  0  0  0  0
  160.8230  213.0090  149.0720 C   0  0  0  0  0  3  0  0  0  0  0  0
  160.7020  213.9450  148.0400 C   0  0  0  0  0  3  0  0  0  0  0  0
  162.6480  212.9990  146.9530 C   0  0  0  0  0  3  0  0  0  0  0  0
  162.7690  212.0630  147.9850 C   0  0  0  0  0  3  0  0  0  0  0  0
  162.1810  206.8120  150.2160 C   0  0  0  0  0  2  0  0  0  0  0  0
  161.8450  206.7730  147.7660 C   0  0  0  0  0  2  0  0  0  0  0  0
  161.1290  202.5750  147.9990 C   0  0  0  0  0  3  0  0  0  0  0  0
  160.7580  200.5900  149.2620 F   0  0  0  0  0  0  0  0  0  0  0  0
  161.1590  206.0750  146.6040 C   0  0  0  0  0  2  0  0  0  0  0  0
  160.9720  204.0730  150.3500 C   0  0  0  0  0  3  0  0  0  0  0  0
  160.8160  202.6860  150.3930 C   0  0  0  0  0  3  0  0  0  0  0  0
  161.2320  204.7280  149.1360 C   0  0  0  0  0  0  0  0  0  0  0  0
  160.9020  201.9370  149.2190 C   0  0  0  0  0  0  0  0  0  0  0  0
  161.2750  203.9650  147.9440 C   0  0  0  0  0  0  0  0  0  0  0  0
  161.3130  206.2440  149.0970 C   0  0  1  0  0  3  0  0  0  0  0  0
  161.5480  204.6020  146.6120 C   0  0  0  0  0  2  0  0  0  0  0  0
  1  2  2  0  0  0  0
  3  8  1  6  0  0  0
  3  6  1  0  0  0  0
  4  1  1  0  0  0  0
  5  1  1  0  0  0  0
  6  5  1  0  0  0  0
  7  3  1  0  0  0  0
  7  4  1  0  0  0  0
  8  9  1  0  0  0  0
 10 13  1  0  0  0  0
 11 12  1  0  0  0  0
 11  9  1  0  0  0  0
 13 12  2  0  0  0  0
 14 10  2  0  0  0  0
 14 15  1  0  0  0  0
 15 11  2  0  0  0  0
 16  7  1  0  0  0  0
 17 26  1  0  0  0  0
 18 24  1  0  0  0  0
 20 27  1  0  0  0  0
 20 17  1  0  0  0  0
 21 22  1  0  0  0  0
 23 21  2  0  0  0  0
 24 19  1  0  0  0  0
 24 22  2  0  0  0  0
 25 18  2  0  0  0  0
 25 23  1  0  0  0  0
 26 23  1  0  0  0  0
 26 16  1  1  0  0  0
 27 25  1  0  0  0  0
M  END
>  <MODEL>
1

>  <REMARK>
 VINA RESULT:      -9.2      0.000      0.000
  Name = 
  5 active torsions:
  status: ('A' for Active; 'I' for Inactive)
    1  A    between atoms: C_1  and  N_15
    2  A    between atoms: C_1  and  C_18
    3  A    between atoms: C_3  and  C_19
    4  A    between atoms: C_3  and  N_26
    5  A    between atoms: C_9  and  N_15
                            x       y       z     vdW  Elec       q    Type
                         _______ _______ _______ _____ _____    ______ ____

>  <TORSDO>
F 5

$$$$
=
 OpenBabel11052423173D

 27 30  0  0  1  0  0  0  0  0999 V2000
  161.9360  208.9090  149.4330 C   0  0  0  0  0  0  0  0  0  0  0  0
  162.1750  209.5010  148.3490 O   0  0  0  0  0  0  0  0  0  0  0  0
  161.2130  207.6310  151.8330 C   0  0  1  0  0  3  0  0  0  0  0  0
  161.1790  207.6190  149.4340 C   0  0  0  0  0  2  0  0  0  0  0  0
  162.2890  209.5180  150.6740 N   0  0  0  0  0  2  0  0  0  0  0  0
  162.2420  208.7600  151.9160 C   0  0  0  0  0  2  0  0  0  0  0  0
  161.4750  206.8190  150.6260 N   0  0  0  0  0  0  0  0  0  0  0  0
  161.3600  206.8100  153.1110 C   0  0  0  0  0  2  0  0  0  0  0  0
  160.4430  207.3030  154.1270 N   0  0  0  0  0  2  0  0  0  0  0  0
  161.5670  210.2550  156.9420 C   0  0  0  0  0  3  0  0  0  0  0  0
  160.8050  208.3080  155.0750 C   0  0  0  0  0  0  0  0  0  0  0  0
  161.6080  207.9610  156.1670 C   0  0  0  0  0  3  0  0  0  0  0  0
  161.9880  208.9310  157.0990 C   0  0  0  0  0  3  0  0  0  0  0  0
  160.7660  210.6080  155.8520 C   0  0  0  0  0  3  0  0  0  0  0  0
  160.3860  209.6390  154.9200 C   0  0  0  0  0  3  0  0  0  0  0  0
  160.5350  205.7030  150.5630 C   0  0  0  0  0  2  0  0  0  0  0  0
  160.7880  203.4750  151.6090 C   0  0  0  0  0  2  0  0  0  0  0  0
  160.9400  201.7400  147.7160 C   0  0  0  0  0  3  0  0  0  0  0  0
  161.0800  201.9430  145.3460 F   0  0  0  0  0  0  0  0  0  0  0  0
  161.3380  202.0680  151.4470 C   0  0  0  0  0  2  0  0  0  0  0  0
  161.3680  204.4890  147.9530 C   0  0  0  0  0  3  0  0  0  0  0  0
  161.3370  203.8930  146.6900 C   0  0  0  0  0  3  0  0  0  0  0  0
  161.1610  203.7250  149.1120 C   0  0  0  0  0  0  0  0  0  0  0  0
  161.1160  202.5210  146.5720 C   0  0  0  0  0  0  0  0  0  0  0  0
  160.9810  202.3260  148.9840 C   0  0  0  0  0  0  0  0  0  0  0  0
  161.2850  204.3770  150.4780 C   0  0  1  0  0  3  0  0  0  0  0  0
  160.7550  201.4510  150.1830 C   0  0  0  0  0  2  0  0  0  0  0  0
  1  4  1  0  0  0  0
  1  5  1  0  0  0  0
  2  1  2  0  0  0  0
  3  6  1  0  0  0  0
  3  8  1  1  0  0  0
  4  7  1  0  0  0  0
  5  6  1  0  0  0  0
  7  3  1  0  0  0  0
  8  9  1  0  0  0  0
  9 11  1  0  0  0  0
 10 13  1  0  0  0  0
 11 12  1  0  0  0  0
 12 13  2  0  0  0  0
 14 10  2  0  0  0  0
 15 11  2  0  0  0  0
 15 14  1  0  0  0  0
 16  7  1  0  0  0  0
 18 25  1  0  0  0  0
 19 24  1  0  0  0  0
 20 17  1  0  0  0  0
 21 23  1  0  0  0  0
 22 21  2  0  0  0  0
 23 26  1  0  0  0  0
 24 22  1  0  0  0  0
 24 18  2  0  0  0  0
 25 23  2  0  0  0  0
 25 27  1  0  0  0  0
 26 16  1  6  0  0  0
 26 17  1  0  0  0  0
 27 20  1  0  0  0  0
M  END
>  <MODEL>
2

>  <REMARK>
 VINA RESULT:      -9.1      2.855      5.419
  Name = 
  5 active torsions:
  status: ('A' for Active; 'I' for Inactive)
    1  A    between atoms: C_1  and  N_15
    2  A    between atoms: C_1  and  C_18
    3  A    between atoms: C_3  and  C_19
    4  A    between atoms: C_3  and  N_26
    5  A    between atoms: C_9  and  N_15
                            x       y       z     vdW  Elec       q    Type
                         _______ _______ _______ _____ _____    ______ ____

>  <TORSDO>
F 5

$$$$
=
 OpenBabel11052423173D

 27 30  0  0  1  0  0  0  0  0999 V2000
  161.9550  209.4960  149.0660 C   0  0  0  0  0  0  0  0  0  0  0  0
  162.0290  210.6250  148.5170 O   0  0  0  0  0  0  0  0  0  0  0  0
  161.9820  206.9810  150.3280 C   0  0  1  0  0  3  0  0  0  0  0  0
  162.1620  209.3640  150.5420 C   0  0  0  0  0  2  0  0  0  0  0  0
  161.7820  208.3230  148.2730 N   0  0  0  0  0  2  0  0  0  0  0  0
  161.4580  207.0450  148.8920 C   0  0  0  0  0  2  0  0  0  0  0  0
  161.5080  208.1650  151.0750 N   0  0  0  0  0  0  0  0  0  0  0  0
  161.4520  205.6820  150.9290 C   0  0  0  0  0  2  0  0  0  0  0  0
  160.6020  204.9990  149.9670 N   0  0  0  0  0  2  0  0  0  0  0  0
  161.1650  200.9520  148.8680 C   0  0  0  0  0  3  0  0  0  0  0  0
  160.8060  203.6380  149.5830 C   0  0  0  0  0  0  0  0  0  0  0  0
  160.7760  202.6390  150.5620 C   0  0  0  0  0  3  0  0  0  0  0  0
  160.9570  201.2990  150.2060 C   0  0  0  0  0  3  0  0  0  0  0  0
  161.1940  201.9450  147.8850 C   0  0  0  0  0  3  0  0  0  0  0  0
  161.0140  203.2850  148.2400 C   0  0  0  0  0  3  0  0  0  0  0  0
  161.9540  208.0890  152.4640 C   0  0  0  0  0  2  0  0  0  0  0  0
  160.9380  206.9790  154.4280 C   0  0  0  0  0  2  0  0  0  0  0  0
  159.9410  210.8180  155.9960 C   0  0  0  0  0  3  0  0  0  0  0  0
  159.7640  213.1830  155.7660 F   0  0  0  0  0  0  0  0  0  0  0  0
  159.8920  207.0810  155.5250 C   0  0  0  0  0  2  0  0  0  0  0  0
  160.5890  210.6270  153.2870 C   0  0  0  0  0  3  0  0  0  0  0  0
  160.3280  211.8750  153.8560 C   0  0  0  0  0  3  0  0  0  0  0  0
  160.5550  209.4610  154.0680 C   0  0  0  0  0  0  0  0  0  0  0  0
  160.0110  211.9710  155.2110 C   0  0  0  0  0  0  0  0  0  0  0  0
  160.1900  209.5630  155.4320 C   0  0  0  0  0  0  0  0  0  0  0  0
  160.7580  208.1070  153.4110 C   0  0  1  0  0  3  0  0  0  0  0  0
  160.1330  208.3570  156.3220 C   0  0  0  0  0  2  0  0  0  0  0  0
  1  4  1  0  0  0  0
  2  1  2  0  0  0  0
  3  8  1  1  0  0  0
  3  7  1  0  0  0  0
  4  7  1  0  0  0  0
  5  6  1  0  0  0  0
  5  1  1  0  0  0  0
  6  3  1  0  0  0  0
  7 16  1  0  0  0  0
  9  8  1  0  0  0  0
 10 13  1  0  0  0  0
 11  9  1  0  0  0  0
 11 12  1  0  0  0  0
 13 12  2  0  0  0  0
 14 15  1  0  0  0  0
 14 10  2  0  0  0  0
 15 11  2  0  0  0  0
 17 20  1  0  0  0  0
 20 27  1  0  0  0  0
 21 22  2  0  0  0  0
 21 23  1  0  0  0  0
 22 24  1  0  0  0  0
 23 25  2  0  0  0  0
 24 19  1  0  0  0  0
 24 18  2  0  0  0  0
 25 18  1  0  0  0  0
 25 27  1  0  0  0  0
 26 16  1  6  0  0  0
 26 23  1  0  0  0  0
 26 17  1  0  0  0  0
M  END
>  <MODEL>
3

>  <REMARK>
 VINA RESULT:      -8.6      3.781      8.483
  Name = 
  5 active torsions:
  status: ('A' for Active; 'I' for Inactive)
    1  A    between atoms: C_1  and  N_15
    2  A    between atoms: C_1  and  C_18
    3  A    between atoms: C_3  and  C_19
    4  A    between atoms: C_3  and  N_26
    5  A    between atoms: C_9  and  N_15
                            x       y       z     vdW  Elec       q    Type
                         _______ _______ _______ _____ _____    ______ ____

>  <TORSDO>
F 5

$$$$
=
 OpenBabel11052423173D

 27 30  0  0  1  0  0  0  0  0999 V2000
  161.4610  208.6820  152.4860 C   0  0  0  0  0  0  0  0  0  0  0  0
  161.2850  208.8920  153.7140 O   0  0  0  0  0  0  0  0  0  0  0  0
  161.9730  208.0640  149.7890 C   0  0  1  0  0  3  0  0  0  0  0  0
  160.9040  207.4490  151.8480 C   0  0  0  0  0  2  0  0  0  0  0  0
  162.2840  209.5600  151.7200 N   0  0  0  0  0  2  0  0  0  0  0  0
  162.3110  209.4770  150.2670 C   0  0  0  0  0  2  0  0  0  0  0  0
  160.7020  207.6300  150.4080 N   0  0  0  0  0  0  0  0  0  0  0  0
  161.8710  208.1280  148.2690 C   0  0  0  0  0  2  0  0  0  0  0  0
  162.5670  206.9980  147.6750 N   0  0  0  0  0  2  0  0  0  0  0  0
  160.9070  204.7440  144.5020 C   0  0  0  0  0  3  0  0  0  0  0  0
  162.0170  206.2210  146.6100 C   0  0  0  0  0  0  0  0  0  0  0  0
  160.6930  206.4420  146.2150 C   0  0  0  0  0  3  0  0  0  0  0  0
  160.1380  205.7050  145.1650 C   0  0  0  0  0  3  0  0  0  0  0  0
  162.2310  204.5190  144.8910 C   0  0  0  0  0  3  0  0  0  0  0  0
  162.7860  205.2560  145.9410 C   0  0  0  0  0  3  0  0  0  0  0  0
  160.3370  206.3040  149.9170 C   0  0  0  0  0  2  0  0  0  0  0  0
  160.6850  205.1780  152.0920 C   0  0  0  0  0  2  0  0  0  0  0  0
  160.9270  201.4450  150.0440 C   0  0  0  0  0  3  0  0  0  0  0  0
  161.0660  200.1740  148.0340 F   0  0  0  0  0  0  0  0  0  0  0  0
  161.2970  203.9830  152.8030 C   0  0  0  0  0  2  0  0  0  0  0  0
  161.2330  203.7880  148.5570 C   0  0  0  0  0  3  0  0  0  0  0  0
  161.2330  202.5470  147.9140 C   0  0  0  0  0  3  0  0  0  0  0  0
  161.0560  203.8760  149.9460 C   0  0  0  0  0  0  0  0  0  0  0  0
  161.0730  201.3780  148.6570 C   0  0  0  0  0  0  0  0  0  0  0  0
  160.9370  202.6810  150.6970 C   0  0  0  0  0  0  0  0  0  0  0  0
  161.1450  205.2270  150.6350 C   0  0  1  0  0  3  0  0  0  0  0  0
  160.7460  202.7040  152.1850 C   0  0  0  0  0  2  0  0  0  0  0  0
  1  2  2  0  0  0  0
  3  8  1  6  0  0  0
  3  6  1  0  0  0  0
  3  7  1  0  0  0  0
  4  1  1  0  0  0  0
  5  1  1  0  0  0  0
  6  5  1  0  0  0  0
  7  4  1  0  0  0  0
  9  8  1  0  0  0  0
 10 14  2  0  0  0  0
 10 13  1  0  0  0  0
 11  9  1  0  0  0  0
 12 11  1  0  0  0  0
 13 12  2  0  0  0  0
 14 15  1  0  0  0  0
 15 11  2  0  0  0  0
 16  7  1  0  0  0  0
 17 20  1  0  0  0  0
 18 25  1  0  0  0  0
 19 24  1  0  0  0  0
 21 23  1  0  0  0  0
 22 21  2  0  0  0  0
 22 24  1  0  0  0  0
 23 26  1  0  0  0  0
 23 25  2  0  0  0  0
 24 18  2  0  0  0  0
 25 27  1  0  0  0  0
 26 16  1  6  0  0  0
 26 17  1  0  0  0  0
 27 20  1  0  0  0  0
M  END
>  <MODEL>
4

>  <REMARK>
 VINA RESULT:      -8.5      2.386      4.608
  Name = 
  5 active torsions:
  status: ('A' for Active; 'I' for Inactive)
    1  A    between atoms: C_1  and  N_15
    2  A    between atoms: C_1  and  C_18
    3  A    between atoms: C_3  and  C_19
    4  A    between atoms: C_3  and  N_26
    5  A    between atoms: C_9  and  N_15
                            x       y       z     vdW  Elec       q    Type
                         _______ _______ _______ _____ _____    ______ ____

>  <TORSDO>
F 5

$$$$
=
 OpenBabel11052423173D

 27 30  0  0  1  0  0  0  0  0999 V2000
  160.5150  207.4600  155.5580 C   0  0  0  0  0  0  0  0  0  0  0  0
  160.3030  206.7030  156.5400 O   0  0  0  0  0  0  0  0  0  0  0  0
  161.1820  209.1390  153.4000 C   0  0  1  0  0  3  0  0  0  0  0  0
  161.1740  206.9250  154.3250 C   0  0  0  0  0  2  0  0  0  0  0  0
  160.2300  208.8550  155.6540 N   0  0  0  0  0  2  0  0  0  0  0  0
  160.2420  209.7010  154.4690 C   0  0  0  0  0  2  0  0  0  0  0  0
  160.8400  207.7240  153.1430 N   0  0  0  0  0  0  0  0  0  0  0  0
  160.9960  210.0020  152.1560 C   0  0  0  0  0  2  0  0  0  0  0  0
  160.8650  211.4000  152.5350 N   0  0  0  0  0  2  0  0  0  0  0  0
  157.9950  214.0130  150.8500 C   0  0  0  0  0  3  0  0  0  0  0  0
  159.9010  212.2760  151.9480 C   0  0  0  0  0  0  0  0  0  0  0  0
  158.6800  212.4840  152.5980 C   0  0  0  0  0  3  0  0  0  0  0  0
  157.7280  213.3490  152.0500 C   0  0  0  0  0  3  0  0  0  0  0  0
  159.2140  213.8120  150.1960 C   0  0  0  0  0  3  0  0  0  0  0  0
  160.1660  212.9470  150.7430 C   0  0  0  0  0  3  0  0  0  0  0  0
  161.6920  207.1910  152.0840 C   0  0  0  0  0  2  0  0  0  0  0  0
  161.2190  207.3820  149.6630 C   0  0  0  0  0  2  0  0  0  0  0  0
  161.0930  203.1260  149.4200 C   0  0  0  0  0  3  0  0  0  0  0  0
  161.0680  200.9780  150.4510 F   0  0  0  0  0  0  0  0  0  0  0  0
  160.5670  206.7290  148.4570 C   0  0  0  0  0  2  0  0  0  0  0  0
  160.8740  204.3110  151.9390 C   0  0  0  0  0  3  0  0  0  0  0  0
  160.9110  202.9190  151.8220 C   0  0  0  0  0  3  0  0  0  0  0  0
  160.9710  205.1290  150.8020 C   0  0  0  0  0  0  0  0  0  0  0  0
  161.0270  202.3280  150.5640 C   0  0  0  0  0  0  0  0  0  0  0  0
  161.0450  204.5190  149.5270 C   0  0  0  0  0  0  0  0  0  0  0  0
  160.8430  206.6360  150.9440 C   0  0  1  0  0  3  0  0  0  0  0  0
  161.1510  205.3350  148.2710 C   0  0  0  0  0  2  0  0  0  0  0  0
  1  5  1  0  0  0  0
  1  2  2  0  0  0  0
  3  8  1  6  0  0  0
  3  6  1  0  0  0  0
  4  1  1  0  0  0  0
  6  5  1  0  0  0  0
  7  3  1  0  0  0  0
  7  4  1  0  0  0  0
  8  9  1  0  0  0  0
 10 13  1  0  0  0  0
 11  9  1  0  0  0  0
 11 12  1  0  0  0  0
 13 12  2  0  0  0  0
 14 15  1  0  0  0  0
 14 10  2  0  0  0  0
 15 11  2  0  0  0  0
 16  7  1  0  0  0  0
 17 26  1  0  0  0  0
 18 25  2  0  0  0  0
 18 24  1  0  0  0  0
 19 24  1  0  0  0  0
 20 17  1  0  0  0  0
 22 21  1  0  0  0  0
 23 26  1  0  0  0  0
 23 21  2  0  0  0  0
 24 22  2  0  0  0  0
 25 23  1  0  0  0  0
 26 16  1  1  0  0  0
 27 20  1  0  0  0  0
 27 25  1  0  0  0  0
M  END
>  <MODEL>
5

>  <REMARK>
 VINA RESULT:      -8.4      2.080      2.744
  Name = 
  5 active torsions:
  status: ('A' for Active; 'I' for Inactive)
    1  A    between atoms: C_1  and  N_15
    2  A    between atoms: C_1  and  C_18
    3  A    between atoms: C_3  and  C_19
    4  A    between atoms: C_3  and  N_26
    5  A    between atoms: C_9  and  N_15
                            x       y       z     vdW  Elec       q    Type
                         _______ _______ _______ _____ _____    ______ ____

>  <TORSDO>
F 5

$$$$
=
 OpenBabel11052423173D

 27 30  0  0  1  0  0  0  0  0999 V2000
  161.1570  203.5430  151.3770 C   0  0  0  0  0  0  0  0  0  0  0  0
  161.2060  202.4570  152.0100 O   0  0  0  0  0  0  0  0  0  0  0  0
  160.9080  206.0310  150.0860 C   0  0  1  0  0  3  0  0  0  0  0  0
  161.6360  204.8080  152.0180 C   0  0  0  0  0  2  0  0  0  0  0  0
  160.5450  203.5950  150.0900 N   0  0  0  0  0  2  0  0  0  0  0  0
  160.6860  204.7730  149.2450 C   0  0  0  0  0  2  0  0  0  0  0  0
  162.0320  205.8040  151.0180 N   0  0  0  0  0  0  0  0  0  0  0  0
  161.2020  207.1650  149.1080 C   0  0  0  0  0  2  0  0  0  0  0  0
  162.2130  206.7460  148.1500 N   0  0  0  0  0  2  0  0  0  0  0  0
  161.2790  204.7980  144.5120 C   0  0  0  0  0  3  0  0  0  0  0  0
  161.8920  206.1060  146.9140 C   0  0  0  0  0  0  0  0  0  0  0  0
  162.7110  205.0720  146.4460 C   0  0  0  0  0  3  0  0  0  0  0  0
  162.4070  204.4210  145.2470 C   0  0  0  0  0  3  0  0  0  0  0  0
  160.4560  205.8280  144.9750 C   0  0  0  0  0  3  0  0  0  0  0  0
  160.7600  206.4810  146.1740 C   0  0  0  0  0  3  0  0  0  0  0  0
  162.2930  207.0170  151.7890 C   0  0  0  0  0  2  0  0  0  0  0  0
  161.4460  206.5490  154.0650 C   0  0  0  0  0  2  0  0  0  0  0  0
  160.3150  210.6460  154.4130 C   0  0  0  0  0  3  0  0  0  0  0  0
  159.9910  212.8080  153.4660 F   0  0  0  0  0  0  0  0  0  0  0  0
  160.4550  206.9530  155.1440 C   0  0  0  0  0  2  0  0  0  0  0  0
  160.8300  209.6320  151.8640 C   0  0  0  0  0  3  0  0  0  0  0  0
  160.5290  210.9850  152.0290 C   0  0  0  0  0  3  0  0  0  0  0  0
  160.9030  208.7730  152.9710 C   0  0  0  0  0  0  0  0  0  0  0  0
  160.2780  211.4930  153.3040 C   0  0  0  0  0  0  0  0  0  0  0  0
  160.6050  209.2880  154.2560 C   0  0  0  0  0  0  0  0  0  0  0  0
  161.1490  207.2890  152.7610 C   0  0  1  0  0  3  0  0  0  0  0  0
  160.6640  208.4240  155.4820 C   0  0  0  0  0  2  0  0  0  0  0  0
  1  2  2  0  0  0  0
  1  4  1  0  0  0  0
  3  8  1  6  0  0  0
  3  7  1  0  0  0  0
  5  1  1  0  0  0  0
  6  3  1  0  0  0  0
  6  5  1  0  0  0  0
  7 16  1  0  0  0  0
  7  4  1  0  0  0  0
  9  8  1  0  0  0  0
 10 14  2  0  0  0  0
 10 13  1  0  0  0  0
 11  9  1  0  0  0  0
 12 11  1  0  0  0  0
 13 12  2  0  0  0  0
 14 15  1  0  0  0  0
 15 11  2  0  0  0  0
 17 20  1  0  0  0  0
 20 27  1  0  0  0  0
 21 22  2  0  0  0  0
 21 23  1  0  0  0  0
 22 24  1  0  0  0  0
 23 25  2  0  0  0  0
 24 19  1  0  0  0  0
 24 18  2  0  0  0  0
 25 18  1  0  0  0  0
 25 27  1  0  0  0  0
 26 16  1  6  0  0  0
 26 23  1  0  0  0  0
 26 17  1  0  0  0  0
M  END
>  <MODEL>
6

>  <REMARK>
 VINA RESULT:      -7.8      3.937      7.183
  Name = 
  5 active torsions:
  status: ('A' for Active; 'I' for Inactive)
    1  A    between atoms: C_1  and  N_15
    2  A    between atoms: C_1  and  C_18
    3  A    between atoms: C_3  and  C_19
    4  A    between atoms: C_3  and  N_26
    5  A    between atoms: C_9  and  N_15
                            x       y       z     vdW  Elec       q    Type
                         _______ _______ _______ _____ _____    ______ ____

>  <TORSDO>
F 5

$$$$
=
 OpenBabel11052423173D

 27 30  0  0  1  0  0  0  0  0999 V2000
  161.0860  204.5110  152.2960 C   0  0  0  0  0  0  0  0  0  0  0  0
  160.8320  203.3690  152.7610 O   0  0  0  0  0  0  0  0  0  0  0  0
  161.8430  207.0130  151.2560 C   0  0  1  0  0  3  0  0  0  0  0  0
  161.5690  204.6580  150.8880 C   0  0  0  0  0  2  0  0  0  0  0  0
  161.0200  205.6590  153.1410 N   0  0  0  0  0  2  0  0  0  0  0  0
  161.0750  207.0010  152.5790 C   0  0  0  0  0  2  0  0  0  0  0  0
  161.2750  205.9900  150.3520 N   0  0  0  0  0  0  0  0  0  0  0  0
  161.7010  208.4190  150.6800 C   0  0  0  0  0  2  0  0  0  0  0  0
  162.3310  209.3850  151.5660 N   0  0  0  0  0  2  0  0  0  0  0  0
  160.0880  211.7820  154.2360 C   0  0  0  0  0  3  0  0  0  0  0  0
  161.5910  210.2000  152.4770 C   0  0  0  0  0  0  0  0  0  0  0  0
  160.4750  210.9050  152.0120 C   0  0  0  0  0  3  0  0  0  0  0  0
  159.7260  211.6960  152.8880 C   0  0  0  0  0  3  0  0  0  0  0  0
  161.2000  211.0780  154.7070 C   0  0  0  0  0  3  0  0  0  0  0  0
  161.9490  210.2880  153.8310 C   0  0  0  0  0  3  0  0  0  0  0  0
  161.9620  206.0290  149.0630 C   0  0  0  0  0  2  0  0  0  0  0  0
  161.2280  206.6440  146.7830 C   0  0  0  0  0  2  0  0  0  0  0  0
  161.1220  202.5020  145.7720 C   0  0  0  0  0  3  0  0  0  0  0  0
  161.2320  200.2030  146.3850 F   0  0  0  0  0  0  0  0  0  0  0  0
  160.4560  206.2030  145.5510 C   0  0  0  0  0  2  0  0  0  0  0  0
  161.1640  203.2000  148.4750 C   0  0  0  0  0  3  0  0  0  0  0  0
  161.2030  201.8550  148.1000 C   0  0  0  0  0  3  0  0  0  0  0  0
  161.1290  204.2140  147.5050 C   0  0  0  0  0  0  0  0  0  0  0  0
  161.1890  201.5070  146.7490 C   0  0  0  0  0  0  0  0  0  0  0  0
  161.0720  203.8500  146.1380 C   0  0  0  0  0  0  0  0  0  0  0  0
  161.0010  205.6650  147.9350 C   0  0  1  0  0  3  0  0  0  0  0  0
  161.0320  204.8840  145.0510 C   0  0  0  0  0  2  0  0  0  0  0  0
  1  2  2  0  0  0  0
  1  5  1  0  0  0  0
  3  8  1  6  0  0  0
  3  6  1  0  0  0  0
  4  1  1  0  0  0  0
  6  5  1  0  0  0  0
  7  4  1  0  0  0  0
  7  3  1  0  0  0  0
  8  9  1  0  0  0  0
  9 11  1  0  0  0  0
 10 14  1  0  0  0  0
 11 15  1  0  0  0  0
 12 11  2  0  0  0  0
 12 13  1  0  0  0  0
 13 10  2  0  0  0  0
 15 14  2  0  0  0  0
 16  7  1  0  0  0  0
 17 26  1  0  0  0  0
 18 25  2  0  0  0  0
 18 24  1  0  0  0  0
 19 24  1  0  0  0  0
 20 17  1  0  0  0  0
 22 21  1  0  0  0  0
 23 26  1  0  0  0  0
 23 21  2  0  0  0  0
 24 22  2  0  0  0  0
 25 23  1  0  0  0  0
 26 16  1  1  0  0  0
 27 20  1  0  0  0  0
 27 25  1  0  0  0  0
M  END
>  <MODEL>
7

>  <REMARK>
 VINA RESULT:      -7.7      2.735      3.545
  Name = 
  5 active torsions:
  status: ('A' for Active; 'I' for Inactive)
    1  A    between atoms: C_1  and  N_15
    2  A    between atoms: C_1  and  C_18
    3  A    between atoms: C_3  and  C_19
    4  A    between atoms: C_3  and  N_26
    5  A    between atoms: C_9  and  N_15
                            x       y       z     vdW  Elec       q    Type
                         _______ _______ _______ _____ _____    ______ ____

>  <TORSDO>
F 5

$$$$
=
 OpenBabel11052423173D

 27 30  0  0  1  0  0  0  0  0999 V2000
  161.9400  210.6940  155.4310 C   0  0  0  0  0  0  0  0  0  0  0  0
  162.8580  210.4400  156.2520 O   0  0  0  0  0  0  0  0  0  0  0  0
  160.0190  211.3490  153.4810 C   0  0  1  0  0  3  0  0  0  0  0  0
  161.9130  210.0120  154.0990 C   0  0  0  0  0  2  0  0  0  0  0  0
  160.9820  211.7110  155.7190 N   0  0  0  0  0  2  0  0  0  0  0  0
  159.7840  211.8580  154.9040 C   0  0  0  0  0  2  0  0  0  0  0  0
  160.5610  209.9740  153.5370 N   0  0  0  0  0  0  0  0  0  0  0  0
  158.6710  211.3980  152.7690 C   0  0  0  0  0  2  0  0  0  0  0  0
  158.3880  212.7570  152.3340 N   0  0  0  0  0  2  0  0  0  0  0  0
  158.9240  214.0010  148.3250 C   0  0  0  0  0  3  0  0  0  0  0  0
  158.5520  213.1880  150.9820 C   0  0  0  0  0  0  0  0  0  0  0  0
  159.8390  213.4540  150.5000 C   0  0  0  0  0  3  0  0  0  0  0  0
  160.0250  213.8610  149.1760 C   0  0  0  0  0  3  0  0  0  0  0  0
  157.6370  213.7350  148.8000 C   0  0  0  0  0  3  0  0  0  0  0  0
  157.4500  213.3280  150.1240 C   0  0  0  0  0  3  0  0  0  0  0  0
  160.7370  209.4530  152.1840 C   0  0  0  0  0  2  0  0  0  0  0  0
  160.8340  207.2750  153.3520 C   0  0  0  0  0  2  0  0  0  0  0  0
  161.2060  205.3400  149.5710 C   0  0  0  0  0  3  0  0  0  0  0  0
  161.5260  205.4170  147.2110 F   0  0  0  0  0  0  0  0  0  0  0  0
  161.3430  205.8450  153.3010 C   0  0  0  0  0  2  0  0  0  0  0  0
  161.7150  208.0820  149.7050 C   0  0  0  0  0  3  0  0  0  0  0  0
  161.7540  207.4230  148.4740 C   0  0  0  0  0  3  0  0  0  0  0  0
  161.3970  207.3850  150.8810 C   0  0  0  0  0  0  0  0  0  0  0  0
  161.4930  206.0550  148.4060 C   0  0  0  0  0  0  0  0  0  0  0  0
  161.1760  205.9880  150.8090 C   0  0  0  0  0  0  0  0  0  0  0  0
  161.4430  208.1010  152.2200 C   0  0  1  0  0  3  0  0  0  0  0  0
  160.8330  205.1830  152.0280 C   0  0  0  0  0  2  0  0  0  0  0  0
  1  5  1  0  0  0  0
  1  2  2  0  0  0  0
  3  8  1  6  0  0  0
  3  7  1  0  0  0  0
  3  6  1  0  0  0  0
  4  1  1  0  0  0  0
  6  5  1  0  0  0  0
  7  4  1  0  0  0  0
  9  8  1  0  0  0  0
 10 14  2  0  0  0  0
 10 13  1  0  0  0  0
 11  9  1  0  0  0  0
 12 11  1  0  0  0  0
 13 12  2  0  0  0  0
 14 15  1  0  0  0  0
 15 11  2  0  0  0  0
 16  7  1  0  0  0  0
 18 25  1  0  0  0  0
 19 24  1  0  0  0  0
 20 17  1  0  0  0  0
 21 23  1  0  0  0  0
 22 21  2  0  0  0  0
 23 26  1  0  0  0  0
 24 22  1  0  0  0  0
 24 18  2  0  0  0  0
 25 23  2  0  0  0  0
 25 27  1  0  0  0  0
 26 16  1  6  0  0  0
 26 17  1  0  0  0  0
 27 20  1  0  0  0  0
M  END
>  <MODEL>
8

>  <REMARK>
 VINA RESULT:      -7.3      2.571      4.258
  Name = 
  5 active torsions:
  status: ('A' for Active; 'I' for Inactive)
    1  A    between atoms: C_1  and  N_15
    2  A    between atoms: C_1  and  C_18
    3  A    between atoms: C_3  and  C_19
    4  A    between atoms: C_3  and  N_26
    5  A    between atoms: C_9  and  N_15
                            x       y       z     vdW  Elec       q    Type
                         _______ _______ _______ _____ _____    ______ ____

>  <TORSDO>
F 5

$$$$
=
 OpenBabel11052423173D

 27 30  0  0  1  0  0  0  0  0999 V2000
  161.9060  211.3830  149.3630 C   0  0  0  0  0  0  0  0  0  0  0  0
  161.8130  212.5790  148.9870 O   0  0  0  0  0  0  0  0  0  0  0  0
  162.3000  208.7440  150.2600 C   0  0  1  0  0  3  0  0  0  0  0  0
  162.0090  211.0590  150.8210 C   0  0  0  0  0  2  0  0  0  0  0  0
  162.0250  210.3360  148.4010 N   0  0  0  0  0  2  0  0  0  0  0  0
  161.8960  208.9410  148.7970 C   0  0  0  0  0  2  0  0  0  0  0  0
  161.5500  209.6970  151.1060 N   0  0  0  0  0  0  0  0  0  0  0  0
  161.9750  207.2960  150.6120 C   0  0  0  0  0  2  0  0  0  0  0  0
  161.4570  206.6030  149.4430 N   0  0  0  0  0  2  0  0  0  0  0  0
  160.5190  202.4780  149.4780 C   0  0  0  0  0  3  0  0  0  0  0  0
  161.1530  205.2080  149.4400 C   0  0  0  0  0  0  0  0  0  0  0  0
  160.8930  204.5620  150.6540 C   0  0  0  0  0  3  0  0  0  0  0  0
  160.5780  203.1990  150.6740 C   0  0  0  0  0  3  0  0  0  0  0  0
  160.7760  203.1170  148.2620 C   0  0  0  0  0  3  0  0  0  0  0  0
  161.0910  204.4790  148.2420 C   0  0  0  0  0  3  0  0  0  0  0  0
  161.8830  209.4820  152.5120 C   0  0  0  0  0  2  0  0  0  0  0  0
  160.9130  207.7350  153.9690 C   0  0  0  0  0  2  0  0  0  0  0  0
  159.2950  210.8000  156.4540 C   0  0  0  0  0  3  0  0  0  0  0  0
  158.8040  213.0900  156.8870 F   0  0  0  0  0  0  0  0  0  0  0  0
  159.7970  207.3870  154.9400 C   0  0  0  0  0  2  0  0  0  0  0  0
  160.1300  211.4910  153.8800 C   0  0  0  0  0  3  0  0  0  0  0  0
  159.6620  212.4770  154.7520 C   0  0  0  0  0  3  0  0  0  0  0  0
  160.2100  210.1510  154.2910 C   0  0  0  0  0  0  0  0  0  0  0  0
  159.2520  212.1330  156.0400 C   0  0  0  0  0  0  0  0  0  0  0  0
  159.7510  209.8040  155.5850 C   0  0  0  0  0  0  0  0  0  0  0  0
  160.6400  209.0820  153.3010 C   0  0  1  0  0  3  0  0  0  0  0  0
  159.8080  208.3900  156.0860 C   0  0  0  0  0  2  0  0  0  0  0  0
  1  4  1  0  0  0  0
  2  1  2  0  0  0  0
  3  8  1  1  0  0  0
  3  7  1  0  0  0  0
  4  7  1  0  0  0  0
  5  6  1  0  0  0  0
  5  1  1  0  0  0  0
  6  3  1  0  0  0  0
  7 16  1  0  0  0  0
  9  8  1  0  0  0  0
 10 13  1  0  0  0  0
 11  9  1  0  0  0  0
 11 12  1  0  0  0  0
 12 13  2  0  0  0  0
 14 10  2  0  0  0  0
 15 14  1  0  0  0  0
 15 11  2  0  0  0  0
 17 20  1  0  0  0  0
 20 27  1  0  0  0  0
 21 23  2  0  0  0  0
 21 22  1  0  0  0  0
 22 24  2  0  0  0  0
 23 25  1  0  0  0  0
 24 18  1  0  0  0  0
 24 19  1  0  0  0  0
 25 27  1  0  0  0  0
 25 18  2  0  0  0  0
 26 16  1  1  0  0  0
 26 17  1  0  0  0  0
 26 23  1  0  0  0  0
M  END
>  <MODEL>
9

>  <REMARK>
 VINA RESULT:      -7.2      3.833      8.265
  Name = 
  5 active torsions:
  status: ('A' for Active; 'I' for Inactive)
    1  A    between atoms: C_1  and  N_15
    2  A    between atoms: C_1  and  C_18
    3  A    between atoms: C_3  and  C_19
    4  A    between atoms: C_3  and  N_26
    5  A    between atoms: C_9  and  N_15
                            x       y       z     vdW  Elec       q    Type
                         _______ _______ _______ _____ _____    ______ ____

>  <TORSDO>
F 5

$$$$
