=
 OpenBabel11062408133D

 32 38  0  0  1  0  0  0  0  0999 V2000
  161.6230  204.0500  150.1780 C   0  0  2  0  0  3  0  0  0  0  0  0
  161.4500  206.4050  151.1240 C   0  0  0  0  0  0  0  0  0  0  0  0
  160.6910  202.8480  150.2330 C   0  0  0  0  0  2  0  0  0  0  0  0
  161.3340  205.0130  151.3040 C   0  0  0  0  0  0  0  0  0  0  0  0
  161.4430  207.2580  152.2540 C   0  0  0  0  0  0  0  0  0  0  0  0
  162.3730  210.3260  148.2440 C   0  0  0  0  0  2  0  0  0  0  0  0
  161.5390  206.9550  149.8280 C   0  0  0  0  0  0  0  0  0  0  0  0
  162.0450  210.6530  150.6880 C   0  0  0  0  0  2  0  0  0  0  0  0
  161.7690  209.1790  150.8010 C   0  0  0  0  0  0  0  0  0  0  0  0
  161.0430  204.4900  152.5780 C   0  0  0  0  0  0  0  0  0  0  0  0
  161.6260  208.6330  152.0760 C   0  0  0  0  0  3  0  0  0  0  0  0
  160.9940  205.3440  153.6810 C   0  0  0  0  0  3  0  0  0  0  0  0
  160.6150  203.0550  152.7570 C   0  0  0  0  0  2  0  0  0  0  0  0
  161.2570  206.0800  148.6370 C   0  0  0  0  0  2  0  0  0  0  0  0
  161.8890  204.7000  148.8050 C   0  0  2  0  0  3  0  0  0  0  0  0
  161.7210  208.3430  149.6630 C   0  0  0  0  0  0  0  0  0  0  0  0
  161.2270  206.7150  153.5360 C   0  0  0  0  0  0  0  0  0  0  0  0
  160.9440  202.1460  151.5650 C   0  0  0  0  0  2  0  0  0  0  0  0
  161.7190  211.2010  149.3020 C   0  0  0  0  0  2  0  0  0  0  0  0
  161.7420  208.9390  148.2750 C   0  0  0  0  0  2  0  0  0  0  0  0
  161.2290  204.2370  144.9520 C   0  0  2  0  0  3  0  0  0  0  0  0
  160.0730  201.1430  144.5050 O   0  0  0  0  0  1  0  0  0  0  0  0
  160.9170  205.4840  145.7780 C   0  0  0  0  0  2  0  0  0  0  0  0
  160.4230  201.7370  146.7900 C   0  0  0  0  0  2  0  0  0  0  0  0
  161.6970  203.7750  147.5940 C   0  0  1  0  0  3  0  0  0  0  0  0
  160.1390  203.3600  145.0580 O   0  0  0  0  0  0  0  0  0  0  0  0
  160.3910  202.9790  147.6780 C   0  0  0  0  0  2  0  0  0  0  0  0
  161.9790  204.5240  146.2640 C   0  0  1  0  0  0  0  0  0  0  0  0
  163.3850  205.0490  146.0540 C   0  0  0  0  0  1  0  0  0  0  0  0
  160.6730  202.0950  145.3290 C   0  0  2  0  0  3  0  0  0  0  0  0
  161.2160  207.5690  154.7630 C   0  0  0  0  0  2  0  0  0  0  0  0
  160.1080  207.2530  155.5470 O   0  0  0  0  0  1  0  0  0  0  0  0
  1  3  1  6  0  0  0
  1  4  1  0  0  0  0
  2  4  2  0  0  0  0
  2  5  1  0  0  0  0
  3 18  1  0  0  0  0
  4 10  1  0  0  0  0
  5 17  2  0  0  0  0
  6 20  1  0  0  0  0
  6 19  1  0  0  0  0
  7  2  1  0  0  0  0
  8  9  1  0  0  0  0
  9 11  2  0  0  0  0
 10 13  1  0  0  0  0
 10 12  2  0  0  0  0
 11  5  1  0  0  0  0
 14  7  1  0  0  0  0
 15 14  1  6  0  0  0
 15  1  1  0  0  0  0
 16  7  2  0  0  0  0
 16  9  1  0  0  0  0
 17 12  1  0  0  0  0
 17 31  1  0  0  0  0
 18 13  1  0  0  0  0
 19  8  1  0  0  0  0
 20 16  1  0  0  0  0
 21 26  1  0  0  0  0
 21 23  1  1  0  0  0
 21 28  1  0  0  0  0
 23 28  1  0  0  0  0
 24 27  1  0  0  0  0
 25 27  1  6  0  0  0
 25 15  1  0  0  0  0
 26 30  1  0  0  0  0
 28 29  1  6  0  0  0
 28 25  1  0  0  0  0
 30 22  1  6  0  0  0
 30 24  1  0  0  0  0
 31 32  1  0  0  0  0
M  END
>  <MODEL>
1

>  <REMARK>
 VINA RESULT:     -10.3      0.000      0.000
  Name = 
  2 active torsions:
  status: ('A' for Active; 'I' for Inactive)
    1  A    between atoms: C_13  and  C_29
    2  A    between atoms: C_16  and  C_27
                            x       y       z     vdW  Elec       q    Type
                         _______ _______ _______ _____ _____    ______ ____

>  <TORSDO>
F 2

$$$$
=
 OpenBabel11062408133D

 32 38  0  0  1  0  0  0  0  0999 V2000
  161.4340  209.1300  150.9230 C   0  0  2  0  0  3  0  0  0  0  0  0
  161.4190  206.6740  150.2610 C   0  0  0  0  0  0  0  0  0  0  0  0
  162.2540  209.9180  151.9350 C   0  0  0  0  0  2  0  0  0  0  0  0
  161.4160  207.6610  151.2670 C   0  0  0  0  0  0  0  0  0  0  0  0
  161.1270  205.3310  150.5990 C   0  0  0  0  0  0  0  0  0  0  0  0
  161.5700  205.3760  145.4850 C   0  0  0  0  0  2  0  0  0  0  0  0
  161.7450  207.0090  148.9300 C   0  0  0  0  0  0  0  0  0  0  0  0
  161.1680  203.6340  147.2140 C   0  0  0  0  0  2  0  0  0  0  0  0
  161.3330  204.7010  148.2600 C   0  0  0  0  0  0  0  0  0  0  0  0
  161.2910  207.2870  152.6170 C   0  0  0  0  0  0  0  0  0  0  0  0
  161.0650  204.3670  149.5880 C   0  0  0  0  0  3  0  0  0  0  0  0
  161.0460  205.9520  152.9460 C   0  0  0  0  0  3  0  0  0  0  0  0
  161.5830  208.2620  153.7310 C   0  0  0  0  0  2  0  0  0  0  0  0
  162.3310  208.3640  148.6350 C   0  0  0  0  0  2  0  0  0  0  0  0
  161.6180  209.4570  149.4270 C   0  0  2  0  0  3  0  0  0  0  0  0
  161.6810  206.0280  147.9210 C   0  0  0  0  0  0  0  0  0  0  0  0
  160.9260  204.9800  151.9490 C   0  0  0  0  0  0  0  0  0  0  0  0
  161.5840  209.7340  153.2950 C   0  0  0  0  0  2  0  0  0  0  0  0
  161.9160  203.9620  145.9260 C   0  0  0  0  0  2  0  0  0  0  0  0
  162.1020  206.3700  146.5110 C   0  0  0  0  0  2  0  0  0  0  0  0
  160.8980  213.1360  148.2260 C   0  0  2  0  0  3  0  0  0  0  0  0
  163.8010  214.4510  147.2520 O   0  0  0  0  0  1  0  0  0  0  0  0
  160.0300  211.9090  147.9500 C   0  0  0  0  0  2  0  0  0  0  0  0
  163.9340  212.1580  147.8990 C   0  0  0  0  0  2  0  0  0  0  0  0
  162.1220  210.8760  149.1240 C   0  0  1  0  0  3  0  0  0  0  0  0
  161.8880  213.2010  147.2340 O   0  0  0  0  0  0  0  0  0  0  0  0
  163.0560  210.9080  147.9090 C   0  0  0  0  0  2  0  0  0  0  0  0
  160.9590  211.9020  149.1430 C   0  0  1  0  0  0  0  0  0  0  0  0
  160.2270  212.0890  150.4570 C   0  0  0  0  0  1  0  0  0  0  0  0
  163.0990  213.4330  147.8970 C   0  0  2  0  0  3  0  0  0  0  0  0
  160.6080  203.5780  152.3600 C   0  0  0  0  0  2  0  0  0  0  0  0
  161.6440  202.7280  151.9740 O   0  0  0  0  0  1  0  0  0  0  0  0
  1  4  1  0  0  0  0
  1  3  1  1  0  0  0
  2  5  1  0  0  0  0
  2  4  2  0  0  0  0
  3 18  1  0  0  0  0
  4 10  1  0  0  0  0
  5 17  2  0  0  0  0
  6 19  1  0  0  0  0
  6 20  1  0  0  0  0
  7  2  1  0  0  0  0
  8  9  1  0  0  0  0
  9 11  2  0  0  0  0
 10 12  2  0  0  0  0
 10 13  1  0  0  0  0
 11  5  1  0  0  0  0
 14  7  1  0  0  0  0
 15 14  1  1  0  0  0
 15  1  1  0  0  0  0
 16  9  1  0  0  0  0
 16  7  2  0  0  0  0
 17 31  1  0  0  0  0
 17 12  1  0  0  0  0
 18 13  1  0  0  0  0
 19  8  1  0  0  0  0
 20 16  1  0  0  0  0
 21 23  1  6  0  0  0
 21 28  1  0  0  0  0
 23 28  1  0  0  0  0
 24 27  1  0  0  0  0
 25 27  1  6  0  0  0
 25 28  1  0  0  0  0
 25 15  1  0  0  0  0
 26 30  1  0  0  0  0
 26 21  1  0  0  0  0
 28 29  1  1  0  0  0
 30 22  1  6  0  0  0
 30 24  1  0  0  0  0
 32 31  1  0  0  0  0
M  END
>  <MODEL>
2

>  <REMARK>
 VINA RESULT:      -7.9      3.195      6.814
  Name = 
  2 active torsions:
  status: ('A' for Active; 'I' for Inactive)
    1  A    between atoms: C_13  and  C_29
    2  A    between atoms: C_16  and  C_27
                            x       y       z     vdW  Elec       q    Type
                         _______ _______ _______ _____ _____    ______ ____

>  <TORSDO>
F 2

$$$$
=
 OpenBabel11062408133D

 32 38  0  0  1  0  0  0  0  0999 V2000
  161.9670  208.8750  151.2190 C   0  0  2  0  0  3  0  0  0  0  0  0
  161.5520  206.7330  149.9110 C   0  0  0  0  0  0  0  0  0  0  0  0
  161.3600  210.2680  151.1320 C   0  0  0  0  0  2  0  0  0  0  0  0
  161.7860  208.1220  149.9240 C   0  0  0  0  0  0  0  0  0  0  0  0
  161.6580  206.0180  148.6940 C   0  0  0  0  0  0  0  0  0  0  0  0
  160.8310  202.4530  152.2940 C   0  0  0  0  0  2  0  0  0  0  0  0
  161.1790  206.0590  151.0930 C   0  0  0  0  0  0  0  0  0  0  0  0
  161.0930  202.4470  149.8210 C   0  0  0  0  0  2  0  0  0  0  0  0
  161.1770  203.9480  149.8730 C   0  0  0  0  0  0  0  0  0  0  0  0
  161.9560  208.8170  148.7120 C   0  0  0  0  0  0  0  0  0  0  0  0
  161.4920  204.6300  148.6980 C   0  0  0  0  0  3  0  0  0  0  0  0
  162.0170  208.1090  147.5110 C   0  0  0  0  0  3  0  0  0  0  0  0
  161.9060  210.3250  148.6590 C   0  0  0  0  0  2  0  0  0  0  0  0
  160.7880  206.8610  152.3050 C   0  0  0  0  0  2  0  0  0  0  0  0
  161.7200  208.0540  152.5010 C   0  0  2  0  0  3  0  0  0  0  0  0
  161.0120  204.6600  151.0820 C   0  0  0  0  0  0  0  0  0  0  0  0
  161.9070  206.7160  147.4950 C   0  0  0  0  0  0  0  0  0  0  0  0
  162.0970  211.0090  150.0200 C   0  0  0  0  0  2  0  0  0  0  0  0
  160.3070  201.8680  150.9920 C   0  0  0  0  0  2  0  0  0  0  0  0
  160.5410  203.9490  152.3290 C   0  0  0  0  0  2  0  0  0  0  0  0
  160.0680  208.3420  156.0630 C   0  0  2  0  0  3  0  0  0  0  0  0
  159.6840  211.5860  156.7210 O   0  0  0  0  0  1  0  0  0  0  0  0
  159.7070  207.3280  154.9780 C   0  0  0  0  0  2  0  0  0  0  0  0
  160.5420  211.1250  154.5420 C   0  0  0  0  0  2  0  0  0  0  0  0
  161.4190  208.8800  153.7610 C   0  0  1  0  0  3  0  0  0  0  0  0
  159.3310  209.5130  155.8270 O   0  0  0  0  0  0  0  0  0  0  0  0
  160.4560  210.0370  153.4740 C   0  0  0  0  0  2  0  0  0  0  0  0
  161.0780  207.9630  154.9650 C   0  0  1  0  0  0  0  0  0  0  0  0
  162.1650  207.0220  155.4440 C   0  0  0  0  0  1  0  0  0  0  0  0
  160.2340  210.5770  155.9320 C   0  0  2  0  0  3  0  0  0  0  0  0
  162.0360  206.0090  146.1840 C   0  0  0  0  0  2  0  0  0  0  0  0
  160.8270  206.0750  145.4930 O   0  0  0  0  0  1  0  0  0  0  0  0
  1  3  1  6  0  0  0
  1 15  1  0  0  0  0
  2  4  1  0  0  0  0
  2  7  1  0  0  0  0
  4  1  1  0  0  0  0
  5 11  1  0  0  0  0
  5  2  2  0  0  0  0
  6 20  1  0  0  0  0
  7 14  1  0  0  0  0
  8  9  1  0  0  0  0
  8 19  1  0  0  0  0
  9 16  1  0  0  0  0
 10  4  2  0  0  0  0
 11  9  2  0  0  0  0
 12 10  1  0  0  0  0
 13 10  1  0  0  0  0
 13 18  1  0  0  0  0
 15 14  1  6  0  0  0
 15 25  1  0  0  0  0
 16  7  2  0  0  0  0
 16 20  1  0  0  0  0
 17 12  2  0  0  0  0
 17  5  1  0  0  0  0
 18  3  1  0  0  0  0
 19  6  1  0  0  0  0
 21 23  1  6  0  0  0
 24 30  1  0  0  0  0
 25 27  1  6  0  0  0
 25 28  1  0  0  0  0
 26 30  1  0  0  0  0
 26 21  1  0  0  0  0
 27 24  1  0  0  0  0
 28 23  1  0  0  0  0
 28 29  1  1  0  0  0
 28 21  1  0  0  0  0
 30 22  1  1  0  0  0
 31 17  1  0  0  0  0
 32 31  1  0  0  0  0
M  END
>  <MODEL>
3

>  <REMARK>
 VINA RESULT:      -7.6      1.764      8.413
  Name = 
  2 active torsions:
  status: ('A' for Active; 'I' for Inactive)
    1  A    between atoms: C_13  and  C_29
    2  A    between atoms: C_16  and  C_27
                            x       y       z     vdW  Elec       q    Type
                         _______ _______ _______ _____ _____    ______ ____

>  <TORSDO>
F 2

$$$$
=
 OpenBabel11062408133D

 32 38  0  0  1  0  0  0  0  0999 V2000
  161.8850  210.2350  151.0880 C   0  0  2  0  0  3  0  0  0  0  0  0
  161.6090  207.8390  150.2810 C   0  0  0  0  0  0  0  0  0  0  0  0
  161.2270  211.5440  150.6730 C   0  0  0  0  0  2  0  0  0  0  0  0
  161.7860  209.2060  149.9890 C   0  0  0  0  0  0  0  0  0  0  0  0
  161.7930  206.8780  149.2590 C   0  0  0  0  0  0  0  0  0  0  0  0
  160.9650  204.1660  153.5380 C   0  0  0  0  0  2  0  0  0  0  0  0
  161.2160  207.4270  151.5720 C   0  0  0  0  0  0  0  0  0  0  0  0
  161.3260  203.6230  151.1380 C   0  0  0  0  0  2  0  0  0  0  0  0
  161.3470  205.1000  150.8560 C   0  0  0  0  0  0  0  0  0  0  0  0
  161.9780  209.6220  148.6580 C   0  0  0  0  0  0  0  0  0  0  0  0
  161.6820  205.5180  149.5680 C   0  0  0  0  0  3  0  0  0  0  0  0
  162.1150  208.6680  147.6490 C   0  0  0  0  0  3  0  0  0  0  0  0
  161.8690  211.0750  148.2680 C   0  0  0  0  0  2  0  0  0  0  0  0
  160.7440  208.4580  152.5610 C   0  0  0  0  0  2  0  0  0  0  0  0
  161.6190  209.7090  152.5130 C   0  0  2  0  0  3  0  0  0  0  0  0
  161.1060  206.0540  151.8690 C   0  0  0  0  0  0  0  0  0  0  0  0
  162.0620  207.3020  147.9420 C   0  0  0  0  0  0  0  0  0  0  0  0
  161.9780  212.0540  149.4460 C   0  0  0  0  0  2  0  0  0  0  0  0
  160.5170  203.2820  152.3850 C   0  0  0  0  0  2  0  0  0  0  0  0
  160.6130  205.6170  153.2290 C   0  0  0  0  0  2  0  0  0  0  0  0
  161.4000  210.8910  156.2620 C   0  0  2  0  0  3  0  0  0  0  0  0
  159.1240  213.3220  156.4060 O   0  0  0  0  0  1  0  0  0  0  0  0
  161.5260  209.4480  155.7750 C   0  0  0  0  0  2  0  0  0  0  0  0
  159.3520  212.3220  154.2510 C   0  0  0  0  0  2  0  0  0  0  0  0
  161.2350  210.7780  153.5460 C   0  0  1  0  0  3  0  0  0  0  0  0
  160.0380  211.2320  156.2650 O   0  0  0  0  0  0  0  0  0  0  0  0
  159.7180  210.9720  153.6380 C   0  0  0  0  0  2  0  0  0  0  0  0
  161.9980  210.5710  154.8810 C   0  0  1  0  0  0  0  0  0  0  0  0
  163.5090  210.6890  154.8360 C   0  0  0  0  0  1  0  0  0  0  0  0
  159.9420  212.4840  155.6480 C   0  0  2  0  0  3  0  0  0  0  0  0
  162.2720  206.3290  146.8270 C   0  0  0  0  0  2  0  0  0  0  0  0
  161.1130  206.2370  146.0570 O   0  0  0  0  0  1  0  0  0  0  0  0
  1  3  1  6  0  0  0
  1 15  1  0  0  0  0
  2  7  1  0  0  0  0
  4  2  1  0  0  0  0
  4  1  1  0  0  0  0
  5 11  1  0  0  0  0
  5  2  2  0  0  0  0
  7 16  2  0  0  0  0
  7 14  1  0  0  0  0
  8 19  1  0  0  0  0
  9  8  1  0  0  0  0
  9 16  1  0  0  0  0
 10  4  2  0  0  0  0
 11  9  2  0  0  0  0
 12 17  2  0  0  0  0
 12 10  1  0  0  0  0
 13 10  1  0  0  0  0
 13 18  1  0  0  0  0
 15 14  1  6  0  0  0
 15 25  1  0  0  0  0
 16 20  1  0  0  0  0
 17  5  1  0  0  0  0
 18  3  1  0  0  0  0
 19  6  1  0  0  0  0
 20  6  1  0  0  0  0
 21 23  1  1  0  0  0
 21 26  1  0  0  0  0
 24 30  1  0  0  0  0
 25 27  1  1  0  0  0
 25 28  1  0  0  0  0
 27 24  1  0  0  0  0
 28 29  1  6  0  0  0
 28 23  1  0  0  0  0
 28 21  1  0  0  0  0
 30 26  1  0  0  0  0
 30 22  1  1  0  0  0
 31 17  1  0  0  0  0
 32 31  1  0  0  0  0
M  END
>  <MODEL>
4

>  <REMARK>
 VINA RESULT:      -7.4      2.475      8.853
  Name = 
  2 active torsions:
  status: ('A' for Active; 'I' for Inactive)
    1  A    between atoms: C_13  and  C_29
    2  A    between atoms: C_16  and  C_27
                            x       y       z     vdW  Elec       q    Type
                         _______ _______ _______ _____ _____    ______ ____

>  <TORSDO>
F 2

$$$$
