=
 OpenBabel11062408253D

 32 36  0  0  1  0  0  0  0  0999 V2000
  160.4590  207.4950  153.1510 O   0  0  0  0  0  0  0  0  0  0  0  0
  160.8300  211.4600  154.2080 C   0  0  2  0  0  3  0  0  0  0  0  0
  161.4690  207.1700  154.0650 C   0  0  0  0  0  2  0  0  0  0  0  0
  161.6600  210.3720  154.8970 C   0  0  0  0  0  2  0  0  0  0  0  0
  159.5640  211.8670  154.9790 C   0  0  2  0  0  3  0  0  0  0  0  0
  159.3830  213.8330  150.2120 C   0  0  0  0  0  2  0  0  0  0  0  0
  160.4570  211.1320  152.7480 C   0  0  1  0  0  3  0  0  0  0  0  0
  158.3400  214.4530  152.4220 C   0  0  0  0  0  2  0  0  0  0  0  0
  159.3740  213.4770  153.0000 C   0  0  1  0  0  3  0  0  0  0  0  0
  160.7550  209.5270  155.7810 C   0  0  2  0  0  3  0  0  0  0  0  0
  159.0820  213.2380  154.4940 C   0  0  0  0  0  2  0  0  0  0  0  0
  160.2470  210.3720  156.9520 C   0  0  0  0  0  2  0  0  0  0  0  0
  161.4530  208.3360  156.2340 N   0  0  0  0  0  2  0  0  0  0  0  0
  159.8250  209.7460  152.6120 C   0  0  0  0  0  2  0  0  0  0  0  0
  160.8940  208.6630  152.5140 C   0  0  2  0  0  3  0  0  0  0  0  0
  159.4770  212.1720  152.1690 C   0  0  1  0  0  3  0  0  0  0  0  0
  159.7440  211.7640  156.5070 C   0  0  2  0  0  3  0  0  0  0  0  0
  160.9160  207.2030  155.4880 C   0  0  0  0  0  2  0  0  0  0  0  0
  158.1070  214.2800  150.9180 C   0  0  0  0  0  2  0  0  0  0  0  0
  159.8270  212.4490  150.6990 C   0  0  0  0  0  2  0  0  0  0  0  0
  162.2470  209.1290  148.9940 C   0  0  0  0  0  0  0  0  0  0  0  0
  162.9170  210.0610  148.2720 F   0  0  0  0  0  0  0  0  0  0  0  0
  161.2470  208.3980  151.0810 C   0  0  0  0  0  0  0  0  0  0  0  0
  161.8540  207.9340  148.3850 C   0  0  0  0  0  3  0  0  0  0  0  0
  160.8510  207.2030  150.4630 C   0  0  0  0  0  3  0  0  0  0  0  0
  161.9440  209.3640  150.3400 C   0  0  0  0  0  0  0  0  0  0  0  0
  162.3220  210.5320  150.9200 F   0  0  0  0  0  0  0  0  0  0  0  0
  161.1630  206.9670  149.1200 C   0  0  0  0  0  0  0  0  0  0  0  0
  160.8330  204.6450  149.3620 O   0  0  0  0  0  1  0  0  0  0  0  0
  160.7210  205.7080  148.4650 C   0  0  0  0  0  2  0  0  0  0  0  0
  158.4670  212.1220  157.2600 C   0  0  0  0  0  2  0  0  0  0  0  0
  157.3580  211.5110  156.6720 O   0  0  0  0  0  1  0  0  0  0  0  0
  1  3  1  0  0  0  0
  2  4  1  1  0  0  0
  2  5  1  0  0  0  0
  3 18  1  0  0  0  0
  5 11  1  1  0  0  0
  5 17  1  0  0  0  0
  6 20  1  0  0  0  0
  6 19  1  0  0  0  0
  7 14  1  1  0  0  0
  7  2  1  0  0  0  0
  9  8  1  6  0  0  0
  9 11  1  0  0  0  0
 10  4  1  1  0  0  0
 10 13  1  0  0  0  0
 10 12  1  0  0  0  0
 15 23  1  6  0  0  0
 15 14  1  0  0  0  0
 15  1  1  0  0  0  0
 16 20  1  6  0  0  0
 16  7  1  0  0  0  0
 16  9  1  0  0  0  0
 17 12  1  0  0  0  0
 17 31  1  1  0  0  0
 18 13  1  0  0  0  0
 19  8  1  0  0  0  0
 21 26  1  0  0  0  0
 22 21  1  0  0  0  0
 24 21  2  0  0  0  0
 24 28  1  0  0  0  0
 25 23  1  0  0  0  0
 26 27  1  0  0  0  0
 26 23  2  0  0  0  0
 28 25  2  0  0  0  0
 30 28  1  0  0  0  0
 30 29  1  0  0  0  0
 32 31  1  0  0  0  0
M  END
>  <MODEL>
1

>  <REMARK>
 VINA RESULT:      -6.9      0.000      0.000
  Name = 
  3 active torsions:
  status: ('A' for Active; 'I' for Inactive)
    1  A    between atoms: C_13  and  C_29
    2  A    between atoms: C_15  and  C_26
    3  A    between atoms: C_16  and  C_27
                            x       y       z     vdW  Elec       q    Type
                         _______ _______ _______ _____ _____    ______ ____

>  <TORSDO>
F 3

$$$$
=
 OpenBabel11062408253D

 32 36  0  0  1  0  0  0  0  0999 V2000
  161.9840  205.2940  152.9940 O   0  0  0  0  0  0  0  0  0  0  0  0
  160.7030  206.9340  149.4380 C   0  0  2  0  0  3  0  0  0  0  0  0
  161.0450  204.2660  152.8430 C   0  0  0  0  0  2  0  0  0  0  0  0
  160.1170  205.6190  149.9640 C   0  0  0  0  0  2  0  0  0  0  0  0
  161.8230  206.7510  148.4000 C   0  0  2  0  0  3  0  0  0  0  0  0
  161.7030  211.6690  149.9540 C   0  0  0  0  0  2  0  0  0  0  0  0
  161.1840  207.8920  150.5450 C   0  0  1  0  0  3  0  0  0  0  0  0
  162.5140  210.4890  147.8790 C   0  0  0  0  0  2  0  0  0  0  0  0
  161.7080  209.3070  148.4330 C   0  0  1  0  0  3  0  0  0  0  0  0
  161.1620  204.5180  149.8540 C   0  0  2  0  0  3  0  0  0  0  0  0
  162.0000  208.0450  147.5980 C   0  0  0  0  0  2  0  0  0  0  0  0
  161.4330  204.2120  148.3790 C   0  0  0  0  0  2  0  0  0  0  0  0
  160.7340  203.3370  150.5840 N   0  0  0  0  0  2  0  0  0  0  0  0
  162.1140  207.2010  151.5440 C   0  0  0  0  0  2  0  0  0  0  0  0
  161.3180  206.4660  152.6160 C   0  0  2  0  0  3  0  0  0  0  0  0
  161.9230  209.1100  149.9550 C   0  0  1  0  0  3  0  0  0  0  0  0
  161.6240  205.4920  147.5330 C   0  0  2  0  0  3  0  0  0  0  0  0
  161.5340  203.2610  151.8030 C   0  0  0  0  0  2  0  0  0  0  0  0
  162.8250  211.5630  148.9270 C   0  0  0  0  0  2  0  0  0  0  0  0
  161.5660  210.3700  150.7570 C   0  0  0  0  0  2  0  0  0  0  0  0
  160.2250  207.6730  156.0490 C   0  0  0  0  0  0  0  0  0  0  0  0
  159.6430  207.1780  157.1690 F   0  0  0  0  0  0  0  0  0  0  0  0
  161.0770  207.3560  153.7980 C   0  0  0  0  0  0  0  0  0  0  0  0
  160.5670  209.0280  155.9880 C   0  0  0  0  0  3  0  0  0  0  0  0
  161.4120  208.7160  153.7420 C   0  0  0  0  0  3  0  0  0  0  0  0
  160.4780  206.8360  154.9550 C   0  0  0  0  0  0  0  0  0  0  0  0
  160.1340  205.5250  155.0210 F   0  0  0  0  0  0  0  0  0  0  0  0
  161.1670  209.5480  154.8380 C   0  0  0  0  0  0  0  0  0  0  0  0
  160.6020  211.6460  153.9210 O   0  0  0  0  0  1  0  0  0  0  0  0
  161.5040  210.9950  154.7640 C   0  0  0  0  0  2  0  0  0  0  0  0
  162.7660  205.2930  146.5400 C   0  0  0  0  0  2  0  0  0  0  0  0
  162.3190  205.4730  145.2290 O   0  0  0  0  0  1  0  0  0  0  0  0
  2  4  1  1  0  0  0
  2  7  1  0  0  0  0
  3  1  1  0  0  0  0
  5 11  1  6  0  0  0
  5  2  1  0  0  0  0
  6 20  1  0  0  0  0
  7 14  1  1  0  0  0
  8  9  1  0  0  0  0
  8 19  1  0  0  0  0
  9 11  1  6  0  0  0
  9 16  1  0  0  0  0
 10 12  1  6  0  0  0
 10  4  1  0  0  0  0
 10 13  1  0  0  0  0
 13 18  1  0  0  0  0
 14 15  1  0  0  0  0
 15  1  1  0  0  0  0
 15 23  1  1  0  0  0
 16  7  1  0  0  0  0
 16 20  1  1  0  0  0
 17 31  1  6  0  0  0
 17 12  1  0  0  0  0
 17  5  1  0  0  0  0
 18  3  1  0  0  0  0
 19  6  1  0  0  0  0
 21 22  1  0  0  0  0
 23 26  1  0  0  0  0
 24 21  1  0  0  0  0
 25 23  2  0  0  0  0
 25 28  1  0  0  0  0
 26 27  1  0  0  0  0
 26 21  2  0  0  0  0
 28 24  2  0  0  0  0
 29 30  1  0  0  0  0
 30 28  1  0  0  0  0
 32 31  1  0  0  0  0
M  END
>  <MODEL>
2

>  <REMARK>
 VINA RESULT:      -6.5      3.364      7.323
  Name = 
  3 active torsions:
  status: ('A' for Active; 'I' for Inactive)
    1  A    between atoms: C_13  and  C_29
    2  A    between atoms: C_15  and  C_26
    3  A    between atoms: C_16  and  C_27
                            x       y       z     vdW  Elec       q    Type
                         _______ _______ _______ _____ _____    ______ ____

>  <TORSDO>
F 3

$$$$
=
 OpenBabel11062408253D

 32 36  0  0  1  0  0  0  0  0999 V2000
  159.4580  212.2160  151.7430 O   0  0  0  0  0  0  0  0  0  0  0  0
  162.2230  209.2240  151.1260 C   0  0  2  0  0  3  0  0  0  0  0  0
  160.3340  213.1310  151.1440 C   0  0  0  0  0  2  0  0  0  0  0  0
  162.4750  210.6540  150.6340 C   0  0  0  0  0  2  0  0  0  0  0  0
  161.6670  208.2780  150.0480 C   0  0  2  0  0  3  0  0  0  0  0  0
  161.2550  206.0430  154.6800 C   0  0  0  0  0  2  0  0  0  0  0  0
  161.3370  209.1420  152.3840 C   0  0  1  0  0  3  0  0  0  0  0  0
  161.3990  205.1910  152.3110 C   0  0  0  0  0  2  0  0  0  0  0  0
  161.8410  206.6270  151.9940 C   0  0  1  0  0  3  0  0  0  0  0  0
  161.5490  210.9580  149.4660 C   0  0  2  0  0  3  0  0  0  0  0  0
  161.9030  206.8240  150.4670 C   0  0  0  0  0  2  0  0  0  0  0  0
  161.9430  210.1020  148.2600 C   0  0  0  0  0  2  0  0  0  0  0  0
  161.5740  212.3780  149.1540 N   0  0  0  0  0  2  0  0  0  0  0  0
  160.0410  209.9400  152.2310 C   0  0  0  0  0  2  0  0  0  0  0  0
  160.2620  211.4120  152.5610 C   0  0  2  0  0  3  0  0  0  0  0  0
  160.9730  207.6830  152.7240 C   0  0  1  0  0  3  0  0  0  0  0  0
  162.1850  208.6220  148.6370 C   0  0  2  0  0  3  0  0  0  0  0  0
  160.3190  212.9520  149.6280 C   0  0  0  0  0  2  0  0  0  0  0  0
  160.6960  205.0520  153.6650 C   0  0  0  0  0  2  0  0  0  0  0  0
  160.9840  207.4890  154.2470 C   0  0  0  0  0  2  0  0  0  0  0  0
  160.7190  211.6380  156.3260 C   0  0  0  0  0  0  0  0  0  0  0  0
  161.6740  211.3910  157.2560 F   0  0  0  0  0  0  0  0  0  0  0  0
  159.9890  211.6750  154.0110 C   0  0  0  0  0  0  0  0  0  0  0  0
  159.4640  212.1050  156.7300 C   0  0  0  0  0  3  0  0  0  0  0  0
  158.7310  212.1380  154.4240 C   0  0  0  0  0  3  0  0  0  0  0  0
  160.9830  211.4220  154.9680 C   0  0  0  0  0  0  0  0  0  0  0  0
  162.2010  210.9600  154.5870 F   0  0  0  0  0  0  0  0  0  0  0  0
  158.4720  212.3620  155.7800 C   0  0  0  0  0  0  0  0  0  0  0  0
  156.2010  211.8000  156.0680 O   0  0  0  0  0  1  0  0  0  0  0  0
  157.1290  212.8320  156.2120 C   0  0  0  0  0  2  0  0  0  0  0  0
  161.5880  207.7090  147.5700 C   0  0  0  0  0  2  0  0  0  0  0  0
  162.4320  206.6260  147.3170 O   0  0  0  0  0  1  0  0  0  0  0  0
  1 15  1  0  0  0  0
  2  4  1  6  0  0  0
  2  7  1  0  0  0  0
  3  1  1  0  0  0  0
  5 11  1  1  0  0  0
  5  2  1  0  0  0  0
  7 14  1  6  0  0  0
  7 16  1  0  0  0  0
  8 19  1  0  0  0  0
  9 11  1  6  0  0  0
  9  8  1  0  0  0  0
  9 16  1  0  0  0  0
 10 12  1  6  0  0  0
 10  4  1  0  0  0  0
 12 17  1  0  0  0  0
 13 10  1  0  0  0  0
 13 18  1  0  0  0  0
 14 15  1  0  0  0  0
 15 23  1  1  0  0  0
 16 20  1  1  0  0  0
 17 31  1  6  0  0  0
 17  5  1  0  0  0  0
 18  3  1  0  0  0  0
 19  6  1  0  0  0  0
 20  6  1  0  0  0  0
 21 24  1  0  0  0  0
 21 22  1  0  0  0  0
 23 25  2  0  0  0  0
 23 26  1  0  0  0  0
 25 28  1  0  0  0  0
 26 21  2  0  0  0  0
 27 26  1  0  0  0  0
 28 30  1  0  0  0  0
 28 24  2  0  0  0  0
 29 30  1  0  0  0  0
 32 31  1  0  0  0  0
M  END
>  <MODEL>
3

>  <REMARK>
 VINA RESULT:      -6.4      2.555      7.665
  Name = 
  3 active torsions:
  status: ('A' for Active; 'I' for Inactive)
    1  A    between atoms: C_13  and  C_29
    2  A    between atoms: C_15  and  C_26
    3  A    between atoms: C_16  and  C_27
                            x       y       z     vdW  Elec       q    Type
                         _______ _______ _______ _____ _____    ______ ____

>  <TORSDO>
F 3

$$$$
=
 OpenBabel11062408253D

 32 36  0  0  1  0  0  0  0  0999 V2000
  160.1500  203.8260  149.6280 O   0  0  0  0  0  0  0  0  0  0  0  0
  162.3200  206.8230  151.4410 C   0  0  2  0  0  3  0  0  0  0  0  0
  160.8320  202.8810  150.4040 C   0  0  0  0  0  2  0  0  0  0  0  0
  162.4910  205.3560  151.8520 C   0  0  0  0  0  2  0  0  0  0  0  0
  161.3650  207.6210  152.3440 C   0  0  2  0  0  3  0  0  0  0  0  0
  162.3940  210.3490  148.0870 C   0  0  0  0  0  2  0  0  0  0  0  0
  161.9110  207.0150  149.9670 C   0  0  1  0  0  3  0  0  0  0  0  0
  161.6640  210.9330  150.4280 C   0  0  0  0  0  2  0  0  0  0  0  0
  162.0720  209.4870  150.7420 C   0  0  1  0  0  3  0  0  0  0  0  0
  161.2470  204.8900  152.5950 C   0  0  2  0  0  3  0  0  0  0  0  0
  161.6260  209.1210  152.1710 C   0  0  0  0  0  2  0  0  0  0  0  0
  161.1470  205.6190  153.9370 C   0  0  0  0  0  2  0  0  0  0  0  0
  161.2650  203.4470  152.7610 N   0  0  0  0  0  2  0  0  0  0  0  0
  160.7000  206.1610  149.5880 C   0  0  0  0  0  2  0  0  0  0  0  0
  161.1240  204.7440  149.2180 C   0  0  2  0  0  3  0  0  0  0  0  0
  161.5810  208.4900  149.6610 C   0  0  1  0  0  3  0  0  0  0  0  0
  161.3960  207.1390  153.8080 C   0  0  2  0  0  3  0  0  0  0  0  0
  160.2900  202.8860  151.8310 C   0  0  0  0  0  2  0  0  0  0  0  0
  161.4540  211.2000  148.9340 C   0  0  0  0  0  2  0  0  0  0  0  0
  162.0950  208.8550  148.2610 C   0  0  0  0  0  2  0  0  0  0  0  0
  162.5450  205.3950  145.7540 C   0  0  0  0  0  0  0  0  0  0  0  0
  163.4560  206.2030  145.1590 F   0  0  0  0  0  0  0  0  0  0  0  0
  161.3790  204.6370  147.7440 C   0  0  0  0  0  0  0  0  0  0  0  0
  161.8160  204.4860  144.9800 C   0  0  0  0  0  3  0  0  0  0  0  0
  160.6490  203.7310  146.9610 C   0  0  0  0  0  3  0  0  0  0  0  0
  162.3270  205.4730  147.1350 C   0  0  0  0  0  0  0  0  0  0  0  0
  163.0320  206.3660  147.8760 F   0  0  0  0  0  0  0  0  0  0  0  0
  160.8740  203.6490  145.5840 C   0  0  0  0  0  0  0  0  0  0  0  0
  160.2210  201.4070  145.2580 O   0  0  0  0  0  1  0  0  0  0  0  0
  160.0810  202.7020  144.7570 C   0  0  0  0  0  2  0  0  0  0  0  0
  160.4100  207.9050  154.6840 C   0  0  0  0  0  2  0  0  0  0  0  0
  159.9790  207.1150  155.7520 O   0  0  0  0  0  1  0  0  0  0  0  0
  1  3  1  0  0  0  0
  2  4  1  1  0  0  0
  2  5  1  0  0  0  0
  3 18  1  0  0  0  0
  5 11  1  1  0  0  0
  5 17  1  0  0  0  0
  6 20  1  0  0  0  0
  6 19  1  0  0  0  0
  7 14  1  1  0  0  0
  7  2  1  0  0  0  0
  9  8  1  6  0  0  0
  9 11  1  0  0  0  0
 10  4  1  1  0  0  0
 10 13  1  0  0  0  0
 10 12  1  0  0  0  0
 15 23  1  6  0  0  0
 15 14  1  0  0  0  0
 15  1  1  0  0  0  0
 16 20  1  6  0  0  0
 16  7  1  0  0  0  0
 16  9  1  0  0  0  0
 17 12  1  0  0  0  0
 17 31  1  1  0  0  0
 18 13  1  0  0  0  0
 19  8  1  0  0  0  0
 21 26  1  0  0  0  0
 22 21  1  0  0  0  0
 24 28  1  0  0  0  0
 24 21  2  0  0  0  0
 25 23  1  0  0  0  0
 26 23  2  0  0  0  0
 26 27  1  0  0  0  0
 28 25  2  0  0  0  0
 30 29  1  0  0  0  0
 30 28  1  0  0  0  0
 31 32  1  0  0  0  0
M  END
>  <MODEL>
4

>  <REMARK>
 VINA RESULT:      -6.4      3.329      5.247
  Name = 
  3 active torsions:
  status: ('A' for Active; 'I' for Inactive)
    1  A    between atoms: C_13  and  C_29
    2  A    between atoms: C_15  and  C_26
    3  A    between atoms: C_16  and  C_27
                            x       y       z     vdW  Elec       q    Type
                         _______ _______ _______ _____ _____    ______ ____

>  <TORSDO>
F 3

$$$$
=
 OpenBabel11062408253D

 32 36  0  0  1  0  0  0  0  0999 V2000
  159.2110  212.6400  151.4040 O   0  0  0  0  0  0  0  0  0  0  0  0
  162.1070  209.7110  151.3060 C   0  0  2  0  0  3  0  0  0  0  0  0
  160.0870  213.5090  150.7400 C   0  0  0  0  0  2  0  0  0  0  0  0
  162.3360  211.0780  150.6530 C   0  0  0  0  0  2  0  0  0  0  0  0
  161.6440  208.6180  150.3290 C   0  0  2  0  0  3  0  0  0  0  0  0
  161.0540  206.9540  155.1770 C   0  0  0  0  0  2  0  0  0  0  0  0
  161.1560  209.7480  152.5190 C   0  0  1  0  0  3  0  0  0  0  0  0
  161.3580  205.8240  152.9440 C   0  0  0  0  0  2  0  0  0  0  0  0
  161.7670  207.2270  152.4720 C   0  0  1  0  0  3  0  0  0  0  0  0
  161.4660  211.1990  149.4110 C   0  0  2  0  0  3  0  0  0  0  0  0
  161.9060  207.2370  150.9380 C   0  0  0  0  0  2  0  0  0  0  0  0
  161.9560  210.2170  148.3430 C   0  0  0  0  0  2  0  0  0  0  0  0
  161.4600  212.5690  148.9260 N   0  0  0  0  0  2  0  0  0  0  0  0
  159.8430  210.4680  152.2020 C   0  0  0  0  0  2  0  0  0  0  0  0
  159.9950  211.9770  152.3550 C   0  0  2  0  0  3  0  0  0  0  0  0
  160.8230  208.3280  153.0190 C   0  0  1  0  0  3  0  0  0  0  0  0
  162.2270  208.8060  148.9140 C   0  0  2  0  0  3  0  0  0  0  0  0
  160.1610  213.1450  149.2590 C   0  0  0  0  0  2  0  0  0  0  0  0
  160.5850  205.8240  154.2670 C   0  0  0  0  0  2  0  0  0  0  0  0
  160.7570  208.3230  154.5530 C   0  0  0  0  0  2  0  0  0  0  0  0
  158.1570  213.5980  155.2590 C   0  0  0  0  0  0  0  0  0  0  0  0
  157.0460  214.3440  155.4760 F   0  0  0  0  0  0  0  0  0  0  0  0
  159.6330  212.4050  153.7460 C   0  0  0  0  0  0  0  0  0  0  0  0
  158.9850  213.2610  156.3340 C   0  0  0  0  0  3  0  0  0  0  0  0
  160.4610  212.0740  154.8280 C   0  0  0  0  0  3  0  0  0  0  0  0
  158.4790  213.1730  153.9650 C   0  0  0  0  0  0  0  0  0  0  0  0
  157.6750  213.5130  152.9260 F   0  0  0  0  0  0  0  0  0  0  0  0
  160.1320  212.4930  156.1210 C   0  0  0  0  0  0  0  0  0  0  0  0
  161.7620  211.0100  156.9600 O   0  0  0  0  0  1  0  0  0  0  0  0
  161.0270  212.1570  157.2610 C   0  0  0  0  0  2  0  0  0  0  0  0
  161.7230  207.7450  147.9400 C   0  0  0  0  0  2  0  0  0  0  0  0
  162.6880  206.7560  147.7420 O   0  0  0  0  0  1  0  0  0  0  0  0
  1 15  1  0  0  0  0
  2  4  1  6  0  0  0
  2  7  1  0  0  0  0
  3  1  1  0  0  0  0
  5 11  1  1  0  0  0
  5  2  1  0  0  0  0
  7 14  1  6  0  0  0
  7 16  1  0  0  0  0
  8 19  1  0  0  0  0
  9 11  1  6  0  0  0
  9  8  1  0  0  0  0
  9 16  1  0  0  0  0
 10 12  1  6  0  0  0
 10  4  1  0  0  0  0
 12 17  1  0  0  0  0
 13 18  1  0  0  0  0
 13 10  1  0  0  0  0
 14 15  1  0  0  0  0
 15 23  1  1  0  0  0
 16 20  1  1  0  0  0
 17 31  1  6  0  0  0
 17  5  1  0  0  0  0
 18  3  1  0  0  0  0
 19  6  1  0  0  0  0
 20  6  1  0  0  0  0
 21 22  1  0  0  0  0
 21 24  1  0  0  0  0
 23 26  1  0  0  0  0
 23 25  2  0  0  0  0
 25 28  1  0  0  0  0
 26 21  2  0  0  0  0
 27 26  1  0  0  0  0
 28 24  2  0  0  0  0
 28 30  1  0  0  0  0
 29 30  1  0  0  0  0
 32 31  1  0  0  0  0
M  END
>  <MODEL>
5

>  <REMARK>
 VINA RESULT:      -6.0      2.905      7.657
  Name = 
  3 active torsions:
  status: ('A' for Active; 'I' for Inactive)
    1  A    between atoms: C_13  and  C_29
    2  A    between atoms: C_15  and  C_26
    3  A    between atoms: C_16  and  C_27
                            x       y       z     vdW  Elec       q    Type
                         _______ _______ _______ _____ _____    ______ ____

>  <TORSDO>
F 3

$$$$
=
 OpenBabel11062408253D

 32 36  0  0  1  0  0  0  0  0999 V2000
  160.4310  207.6590  153.2760 O   0  0  0  0  0  0  0  0  0  0  0  0
  160.4540  211.6340  154.3580 C   0  0  2  0  0  3  0  0  0  0  0  0
  161.4040  207.4020  154.2500 C   0  0  0  0  0  2  0  0  0  0  0  0
  161.3160  210.6040  155.0960 C   0  0  0  0  0  2  0  0  0  0  0  0
  159.1170  211.9460  155.0510 C   0  0  2  0  0  3  0  0  0  0  0  0
  159.0880  213.9210  150.2840 C   0  0  0  0  0  2  0  0  0  0  0  0
  160.1950  211.2890  152.8790 C   0  0  1  0  0  3  0  0  0  0  0  0
  157.8710  214.4530  152.4270 C   0  0  0  0  0  2  0  0  0  0  0  0
  158.9340  213.5490  153.0650 C   0  0  1  0  0  3  0  0  0  0  0  0
  160.4200  209.6930  155.9220 C   0  0  2  0  0  3  0  0  0  0  0  0
  158.5700  213.2820  154.5390 C   0  0  0  0  0  2  0  0  0  0  0  0
  159.7830  210.4920  157.0610 C   0  0  0  0  0  2  0  0  0  0  0  0
  161.1730  208.5520  156.4150 N   0  0  0  0  0  2  0  0  0  0  0  0
  159.6730  209.8620  152.7020 C   0  0  0  0  0  2  0  0  0  0  0  0
  160.8210  208.8590  152.6680 C   0  0  2  0  0  3  0  0  0  0  0  0
  159.1810  212.2600  152.2410 C   0  0  1  0  0  3  0  0  0  0  0  0
  159.2110  211.8480  156.5870 C   0  0  2  0  0  3  0  0  0  0  0  0
  160.7650  207.3870  155.6360 C   0  0  0  0  0  2  0  0  0  0  0  0
  157.7430  214.2720  150.9110 C   0  0  0  0  0  2  0  0  0  0  0  0
  159.5990  212.5690  150.7960 C   0  0  0  0  0  2  0  0  0  0  0  0
  161.7970  207.1010  149.4440 C   0  0  0  0  0  0  0  0  0  0  0  0
  161.8640  205.8420  148.9470 F   0  0  0  0  0  0  0  0  0  0  0  0
  161.2780  208.6270  151.2600 C   0  0  0  0  0  0  0  0  0  0  0  0
  162.1920  208.1810  148.6480 C   0  0  0  0  0  3  0  0  0  0  0  0
  161.6800  209.7050  150.4570 C   0  0  0  0  0  3  0  0  0  0  0  0
  161.3410  207.3210  150.7490 C   0  0  0  0  0  0  0  0  0  0  0  0
  160.9690  206.2660  151.5170 F   0  0  0  0  0  0  0  0  0  0  0  0
  162.1270  209.4830  149.1510 C   0  0  0  0  0  0  0  0  0  0  0  0
  161.5240  211.5360  148.1600 O   0  0  0  0  0  1  0  0  0  0  0  0
  162.5730  210.6280  148.3140 C   0  0  0  0  0  2  0  0  0  0  0  0
  157.8680  212.1100  157.2610 C   0  0  0  0  0  2  0  0  0  0  0  0
  156.8670  211.3180  156.6950 O   0  0  0  0  0  1  0  0  0  0  0  0
  1  3  1  0  0  0  0
  2  5  1  0  0  0  0
  2  4  1  1  0  0  0
  3 18  1  0  0  0  0
  5 11  1  1  0  0  0
  5 17  1  0  0  0  0
  6 20  1  0  0  0  0
  6 19  1  0  0  0  0
  7 14  1  1  0  0  0
  7  2  1  0  0  0  0
  9  8  1  6  0  0  0
  9 11  1  0  0  0  0
 10  4  1  1  0  0  0
 10 13  1  0  0  0  0
 10 12  1  0  0  0  0
 15 23  1  6  0  0  0
 15 14  1  0  0  0  0
 15  1  1  0  0  0  0
 16 20  1  6  0  0  0
 16  7  1  0  0  0  0
 16  9  1  0  0  0  0
 17 12  1  0  0  0  0
 17 31  1  1  0  0  0
 18 13  1  0  0  0  0
 19  8  1  0  0  0  0
 21 26  1  0  0  0  0
 22 21  1  0  0  0  0
 24 28  1  0  0  0  0
 24 21  2  0  0  0  0
 25 23  1  0  0  0  0
 26 23  2  0  0  0  0
 26 27  1  0  0  0  0
 28 25  2  0  0  0  0
 29 30  1  0  0  0  0
 30 28  1  0  0  0  0
 32 31  1  0  0  0  0
M  END
>  <MODEL>
6

>  <REMARK>
 VINA RESULT:      -5.9      1.678      2.123
  Name = 
  3 active torsions:
  status: ('A' for Active; 'I' for Inactive)
    1  A    between atoms: C_13  and  C_29
    2  A    between atoms: C_15  and  C_26
    3  A    between atoms: C_16  and  C_27
                            x       y       z     vdW  Elec       q    Type
                         _______ _______ _______ _____ _____    ______ ____

>  <TORSDO>
F 3

$$$$
=
 OpenBabel11062408253D

 32 36  0  0  1  0  0  0  0  0999 V2000
  161.9060  211.2180  150.4700 O   0  0  0  0  0  0  0  0  0  0  0  0
  159.1490  211.0210  153.5250 C   0  0  2  0  0  3  0  0  0  0  0  0
  160.9680  211.9020  149.6850 C   0  0  0  0  0  2  0  0  0  0  0  0
  158.8330  211.7500  152.2140 C   0  0  0  0  0  2  0  0  0  0  0  0
  159.6280  211.9440  154.6570 C   0  0  2  0  0  3  0  0  0  0  0  0
  160.4630  207.0260  155.9750 C   0  0  0  0  0  2  0  0  0  0  0  0
  160.1380  209.8490  153.3670 C   0  0  1  0  0  3  0  0  0  0  0  0
  160.1350  209.1700  157.2600 C   0  0  0  0  0  2  0  0  0  0  0  0
  159.6450  209.7130  155.9110 C   0  0  1  0  0  3  0  0  0  0  0  0
  159.6530  213.0290  152.1360 C   0  0  2  0  0  3  0  0  0  0  0  0
  159.4520  211.2390  156.0070 C   0  0  0  0  0  2  0  0  0  0  0  0
  159.1730  214.0130  153.2060 C   0  0  0  0  0  2  0  0  0  0  0  0
  159.5790  213.6000  150.8020 N   0  0  0  0  0  2  0  0  0  0  0  0
  161.4040  210.2610  152.6120 C   0  0  0  0  0  2  0  0  0  0  0  0
  161.1880  210.1970  151.1040 C   0  0  2  0  0  3  0  0  0  0  0  0
  160.5540  209.2730  154.7350 C   0  0  1  0  0  3  0  0  0  0  0  0
  158.9880  213.3450  154.5880 C   0  0  2  0  0  3  0  0  0  0  0  0
  160.8590  213.3520  150.1470 C   0  0  0  0  0  2  0  0  0  0  0  0
  160.9520  207.8790  157.1400 C   0  0  0  0  0  2  0  0  0  0  0  0
  160.6740  207.7450  154.6380 C   0  0  0  0  0  2  0  0  0  0  0  0
  162.2500  207.4420  148.7120 C   0  0  0  0  0  0  0  0  0  0  0  0
  162.5730  207.2940  147.4040 F   0  0  0  0  0  0  0  0  0  0  0  0
  161.5770  208.8510  150.5710 C   0  0  0  0  0  0  0  0  0  0  0  0
  162.2450  206.3260  149.5550 C   0  0  0  0  0  3  0  0  0  0  0  0
  161.5700  207.7270  151.4090 C   0  0  0  0  0  3  0  0  0  0  0  0
  161.9150  208.7040  149.2170 C   0  0  0  0  0  0  0  0  0  0  0  0
  161.9130  209.7800  148.3890 F   0  0  0  0  0  0  0  0  0  0  0  0
  161.9130  206.4690  150.9050 C   0  0  0  0  0  0  0  0  0  0  0  0
  160.9780  204.3390  151.2930 O   0  0  0  0  0  1  0  0  0  0  0  0
  161.8820  205.2780  151.7940 C   0  0  0  0  0  2  0  0  0  0  0  0
  159.5080  214.2670  155.6860 C   0  0  0  0  0  2  0  0  0  0  0  0
  158.5400  214.4530  156.6760 O   0  0  0  0  0  1  0  0  0  0  0  0
  1 15  1  0  0  0  0
  2  4  1  6  0  0  0
  2  5  1  0  0  0  0
  3 18  1  0  0  0  0
  3  1  1  0  0  0  0
  5 11  1  1  0  0  0
  6 19  1  0  0  0  0
  7 14  1  1  0  0  0
  7  2  1  0  0  0  0
  7 16  1  0  0  0  0
  9 11  1  1  0  0  0
  9  8  1  0  0  0  0
 10  4  1  6  0  0  0
 10 12  1  0  0  0  0
 12 17  1  0  0  0  0
 13 10  1  0  0  0  0
 15 23  1  6  0  0  0
 15 14  1  0  0  0  0
 16 20  1  6  0  0  0
 16  9  1  0  0  0  0
 17  5  1  0  0  0  0
 17 31  1  1  0  0  0
 18 13  1  0  0  0  0
 19  8  1  0  0  0  0
 20  6  1  0  0  0  0
 21 26  2  0  0  0  0
 21 24  1  0  0  0  0
 22 21  1  0  0  0  0
 23 25  2  0  0  0  0
 24 28  2  0  0  0  0
 26 23  1  0  0  0  0
 27 26  1  0  0  0  0
 28 25  1  0  0  0  0
 28 30  1  0  0  0  0
 29 30  1  0  0  0  0
 31 32  1  0  0  0  0
M  END
>  <MODEL>
7

>  <REMARK>
 VINA RESULT:      -5.6      2.127      4.528
  Name = 
  3 active torsions:
  status: ('A' for Active; 'I' for Inactive)
    1  A    between atoms: C_13  and  C_29
    2  A    between atoms: C_15  and  C_26
    3  A    between atoms: C_16  and  C_27
                            x       y       z     vdW  Elec       q    Type
                         _______ _______ _______ _____ _____    ______ ____

>  <TORSDO>
F 3

$$$$
=
 OpenBabel11062408253D

 32 36  0  0  1  0  0  0  0  0999 V2000
  160.5880  210.2720  151.9150 O   0  0  0  0  0  0  0  0  0  0  0  0
  162.2720  207.0090  150.0470 C   0  0  2  0  0  3  0  0  0  0  0  0
  161.5630  211.0920  151.3320 C   0  0  0  0  0  2  0  0  0  0  0  0
  162.8170  208.4230  149.8220 C   0  0  0  0  0  2  0  0  0  0  0  0
  161.2980  206.5300  148.9580 C   0  0  2  0  0  3  0  0  0  0  0  0
  161.1040  203.3040  152.9800 C   0  0  0  0  0  2  0  0  0  0  0  0
  161.6320  206.7990  151.4340 C   0  0  1  0  0  3  0  0  0  0  0  0
  160.5920  203.0970  150.5200 C   0  0  0  0  0  2  0  0  0  0  0  0
  161.3480  204.4280  150.4160 C   0  0  1  0  0  3  0  0  0  0  0  0
  161.8210  209.2250  148.9960 C   0  0  2  0  0  3  0  0  0  0  0  0
  161.1940  205.0020  148.9940 C   0  0  0  0  0  2  0  0  0  0  0  0
  161.7480  208.6500  147.5800 C   0  0  0  0  0  2  0  0  0  0  0  0
  162.1800  210.6320  148.9930 N   0  0  0  0  0  2  0  0  0  0  0  0
  160.5990  207.8780  151.7620 C   0  0  0  0  0  2  0  0  0  0  0  0
  161.2700  209.1230  152.3320 C   0  0  2  0  0  3  0  0  0  0  0  0
  160.9450  205.4220  151.5350 C   0  0  1  0  0  3  0  0  0  0  0  0
  161.6350  207.1080  147.5690 C   0  0  2  0  0  3  0  0  0  0  0  0
  161.2340  211.3280  149.8600 C   0  0  0  0  0  2  0  0  0  0  0  0
  160.1250  202.7670  151.9420 C   0  0  0  0  0  2  0  0  0  0  0  0
  161.1690  204.8350  152.9370 C   0  0  0  0  0  2  0  0  0  0  0  0
  162.2590  209.8360  155.9310 C   0  0  0  0  0  0  0  0  0  0  0  0
  163.0680  210.6790  156.6200 F   0  0  0  0  0  0  0  0  0  0  0  0
  161.3370  209.0480  153.8280 C   0  0  0  0  0  0  0  0  0  0  0  0
  161.5160  208.8730  156.6190 C   0  0  0  0  0  3  0  0  0  0  0  0
  160.5980  208.0810  154.5240 C   0  0  0  0  0  3  0  0  0  0  0  0
  162.1730  209.9250  154.5360 C   0  0  0  0  0  0  0  0  0  0  0  0
  162.9050  210.8580  153.8760 F   0  0  0  0  0  0  0  0  0  0  0  0
  160.6800  208.0000  155.9180 C   0  0  0  0  0  0  0  0  0  0  0  0
  158.7440  206.6550  155.9450 O   0  0  0  0  0  1  0  0  0  0  0  0
  159.9110  206.9570  156.6480 C   0  0  0  0  0  2  0  0  0  0  0  0
  160.6340  206.6670  146.5060 C   0  0  0  0  0  2  0  0  0  0  0  0
  161.2640  205.9050  145.5190 O   0  0  0  0  0  1  0  0  0  0  0  0
  1 15  1  0  0  0  0
  2  4  1  6  0  0  0
  2  7  1  0  0  0  0
  3  1  1  0  0  0  0
  5 11  1  6  0  0  0
  5  2  1  0  0  0  0
  7 16  1  0  0  0  0
  7 14  1  6  0  0  0
  8 19  1  0  0  0  0
  9 11  1  6  0  0  0
  9  8  1  0  0  0  0
  9 16  1  0  0  0  0
 10 12  1  6  0  0  0
 10  4  1  0  0  0  0
 13 10  1  0  0  0  0
 13 18  1  0  0  0  0
 14 15  1  0  0  0  0
 15 23  1  1  0  0  0
 16 20  1  1  0  0  0
 17 31  1  6  0  0  0
 17 12  1  0  0  0  0
 17  5  1  0  0  0  0
 18  3  1  0  0  0  0
 19  6  1  0  0  0  0
 20  6  1  0  0  0  0
 21 24  1  0  0  0  0
 21 22  1  0  0  0  0
 23 25  2  0  0  0  0
 23 26  1  0  0  0  0
 25 28  1  0  0  0  0
 26 21  2  0  0  0  0
 27 26  1  0  0  0  0
 28 24  2  0  0  0  0
 28 30  1  0  0  0  0
 29 30  1  0  0  0  0
 32 31  1  0  0  0  0
M  END
>  <MODEL>
8

>  <REMARK>
 VINA RESULT:      -5.4      3.141      7.874
  Name = 
  3 active torsions:
  status: ('A' for Active; 'I' for Inactive)
    1  A    between atoms: C_13  and  C_29
    2  A    between atoms: C_15  and  C_26
    3  A    between atoms: C_16  and  C_27
                            x       y       z     vdW  Elec       q    Type
                         _______ _______ _______ _____ _____    ______ ____

>  <TORSDO>
F 3

$$$$
=
 OpenBabel11062408253D

 32 36  0  0  1  0  0  0  0  0999 V2000
  162.4990  204.7020  151.4380 O   0  0  0  0  0  0  0  0  0  0  0  0
  160.2640  203.2510  148.2970 C   0  0  2  0  0  3  0  0  0  0  0  0
  161.7020  203.9690  152.3270 C   0  0  0  0  0  2  0  0  0  0  0  0
  159.9940  202.8040  149.7370 C   0  0  0  0  0  2  0  0  0  0  0  0
  161.1470  202.2810  147.4930 C   0  0  2  0  0  3  0  0  0  0  0  0
  160.6820  206.7250  144.9140 C   0  0  0  0  0  2  0  0  0  0  0  0
  160.8340  204.6780  148.1800 C   0  0  1  0  0  3  0  0  0  0  0  0
  161.1810  204.3430  144.2570 C   0  0  0  0  0  2  0  0  0  0  0  0
  160.6860  204.0200  145.6740 C   0  0  1  0  0  3  0  0  0  0  0  0
  161.1330  201.9140  150.2140 C   0  0  2  0  0  3  0  0  0  0  0  0
  160.9640  202.5380  145.9940 C   0  0  0  0  0  2  0  0  0  0  0  0
  161.1180  200.5980  149.4330 C   0  0  0  0  0  2  0  0  0  0  0  0
  161.0420  201.6960  151.6470 N   0  0  0  0  0  2  0  0  0  0  0  0
  162.0450  204.8910  149.0900 C   0  0  0  0  0  2  0  0  0  0  0  0
  161.6100  205.2500  150.5060 C   0  0  2  0  0  3  0  0  0  0  0  0
  161.2520  205.0020  146.7310 C   0  0  1  0  0  3  0  0  0  0  0  0
  160.9420  200.8110  147.9120 C   0  0  2  0  0  3  0  0  0  0  0  0
  162.0880  202.4930  152.2800 C   0  0  0  0  0  2  0  0  0  0  0  0
  161.5590  205.8150  144.0610 C   0  0  0  0  0  2  0  0  0  0  0  0
  160.9040  206.4620  146.4080 C   0  0  0  0  0  2  0  0  0  0  0  0
  160.8720  208.6690  151.9920 C   0  0  0  0  0  0  0  0  0  0  0  0
  160.3720  209.2000  153.1350 F   0  0  0  0  0  0  0  0  0  0  0  0
  161.5090  206.7370  150.6660 C   0  0  0  0  0  0  0  0  0  0  0  0
  161.2590  209.5150  150.9480 C   0  0  0  0  0  3  0  0  0  0  0  0
  161.8900  207.5910  149.6210 C   0  0  0  0  0  3  0  0  0  0  0  0
  160.9940  207.2810  151.8530 C   0  0  0  0  0  0  0  0  0  0  0  0
  160.6070  206.4680  152.8690 F   0  0  0  0  0  0  0  0  0  0  0  0
  161.7750  208.9770  149.7660 C   0  0  0  0  0  0  0  0  0  0  0  0
  162.2120  211.1950  149.0950 O   0  0  0  0  0  1  0  0  0  0  0  0
  162.1600  209.8750  148.6450 C   0  0  0  0  0  2  0  0  0  0  0  0
  161.8580  199.8640  147.1440 C   0  0  0  0  0  2  0  0  0  0  0  0
  161.1810  199.2820  146.0700 O   0  0  0  0  0  1  0  0  0  0  0  0
  1  3  1  0  0  0  0
  2  4  1  1  0  0  0
  4 10  1  0  0  0  0
  5 11  1  6  0  0  0
  5 17  1  0  0  0  0
  5  2  1  0  0  0  0
  6 20  1  0  0  0  0
  7  2  1  0  0  0  0
  7 14  1  1  0  0  0
  9  8  1  6  0  0  0
  9 11  1  0  0  0  0
  9 16  1  0  0  0  0
 10 12  1  6  0  0  0
 10 13  1  0  0  0  0
 13 18  1  0  0  0  0
 14 15  1  0  0  0  0
 15 23  1  6  0  0  0
 15  1  1  0  0  0  0
 16 20  1  6  0  0  0
 16  7  1  0  0  0  0
 17 31  1  6  0  0  0
 17 12  1  0  0  0  0
 18  3  1  0  0  0  0
 19  8  1  0  0  0  0
 19  6  1  0  0  0  0
 21 22  1  0  0  0  0
 23 26  2  0  0  0  0
 24 21  2  0  0  0  0
 25 28  2  0  0  0  0
 25 23  1  0  0  0  0
 26 21  1  0  0  0  0
 26 27  1  0  0  0  0
 28 24  1  0  0  0  0
 30 29  1  0  0  0  0
 30 28  1  0  0  0  0
 32 31  1  0  0  0  0
M  END
>  <MODEL>
9

>  <REMARK>
 VINA RESULT:      -5.2      4.244      8.985
  Name = 
  3 active torsions:
  status: ('A' for Active; 'I' for Inactive)
    1  A    between atoms: C_13  and  C_29
    2  A    between atoms: C_15  and  C_26
    3  A    between atoms: C_16  and  C_27
                            x       y       z     vdW  Elec       q    Type
                         _______ _______ _______ _____ _____    ______ ____

>  <TORSDO>
F 3

$$$$
