=
 OpenBabel11052422073D

 25 27  0  0  1  0  0  0  0  0999 V2000
  161.4860  204.8710  148.3860 C   0  0  0  0  0  0  0  0  0  0  0  0
  161.4550  206.0810  149.1160 C   0  0  0  0  0  0  0  0  0  0  0  0
  162.1170  206.0670  146.4350 C   0  0  0  0  0  3  0  0  0  0  0  0
  160.9670  207.5060  152.6590 N   0  0  0  0  0  2  0  0  0  0  0  0
  162.0950  207.2370  147.1200 N   0  0  0  0  0  0  0  0  0  0  0  0
  161.7620  208.5340  149.1780 C   0  0  0  0  0  0  0  0  0  0  0  0
  162.0410  209.6470  148.5850 N   0  0  0  0  0  2  0  0  0  0  0  0
  161.1090  208.6630  153.4910 C   0  0  0  0  0  0  0  0  0  0  0  0
  160.9910  206.1250  150.5540 C   0  0  0  0  0  2  0  0  0  0  0  0
  161.8160  204.9040  147.0660 N   0  0  0  0  0  0  0  0  0  0  0  0
  161.5160  208.5260  150.5860 N   0  0  0  0  0  0  0  0  0  0  0  0
  161.1980  207.4500  151.2460 C   0  0  0  0  0  0  0  0  0  0  0  0
  161.7710  207.2670  148.4390 C   0  0  0  0  0  0  0  0  0  0  0  0
  161.4940  209.7650  153.0130 O   0  0  0  0  0  0  0  0  0  0  0  0
  161.1850  203.5600  149.0110 C   0  0  0  0  0  0  0  0  0  0  0  0
  160.6940  201.0810  150.2450 C   0  0  0  0  0  3  0  0  0  0  0  0
  161.0000  202.3970  148.2300 C   0  0  0  0  0  0  0  0  0  0  0  0
  160.7510  201.1700  148.8530 C   0  0  0  0  0  3  0  0  0  0  0  0
  160.8850  202.2230  151.0230 C   0  0  0  0  0  3  0  0  0  0  0  0
  161.0280  202.4540  146.8070 N   0  0  0  0  0  1  0  0  0  0  0  0
  161.1310  203.4530  150.4100 C   0  0  0  0  0  3  0  0  0  0  0  0
  160.8320  208.5440  154.9550 C   0  0  2  0  0  3  0  0  0  0  0  0
  161.9290  208.9350  155.7040 F   0  0  0  0  0  0  0  0  0  0  0  0
  160.0070  207.0370  156.8030 C   0  0  0  0  0  1  0  0  0  0  0  0
  160.3810  207.1360  155.3330 C   0  0  0  0  0  2  0  0  0  0  0  0
  1 15  1  0  0  0  0
  1  2  1  0  0  0  0
  2  9  1  0  0  0  0
  3 10  1  0  0  0  0
  3  5  2  0  0  0  0
  4  8  1  0  0  0  0
  5 13  1  0  0  0  0
  6 11  1  0  0  0  0
  7  6  2  0  0  0  0
  8 22  1  0  0  0  0
  9 12  1  0  0  0  0
 10  1  2  0  0  0  0
 11 12  2  0  0  0  0
 12  4  1  0  0  0  0
 13  2  2  0  0  0  0
 13  6  1  0  0  0  0
 14  8  2  0  0  0  0
 15 21  1  0  0  0  0
 16 19  1  0  0  0  0
 17 18  1  0  0  0  0
 17 15  2  0  0  0  0
 18 16  2  0  0  0  0
 20 17  1  0  0  0  0
 21 19  2  0  0  0  0
 22 25  1  0  0  0  0
 22 23  1  1  0  0  0
 25 24  1  0  0  0  0
M  END
>  <MODEL>
1

>  <REMARK>
 VINA RESULT:      -9.8      0.000      0.000
  Name = 
  3 active torsions:
  status: ('A' for Active; 'I' for Inactive)
    1  A    between atoms: C_1  and  C_5
    2  A    between atoms: C_2  and  C_15
    3  A    between atoms: C_2  and  C_21
                            x       y       z     vdW  Elec       q    Type
                         _______ _______ _______ _____ _____    ______ ____

>  <TORSDO>
F 3

$$$$
=
 OpenBabel11052422073D

 25 27  0  0  1  0  0  0  0  0999 V2000
  161.4290  204.7850  148.2630 C   0  0  0  0  0  0  0  0  0  0  0  0
  161.4050  205.9200  149.1050 C   0  0  0  0  0  0  0  0  0  0  0  0
  162.0140  206.1660  146.4220 C   0  0  0  0  0  3  0  0  0  0  0  0
  160.9790  206.9990  152.7760 N   0  0  0  0  0  2  0  0  0  0  0  0
  161.9980  207.2650  147.2150 N   0  0  0  0  0  0  0  0  0  0  0  0
  161.6980  208.3590  149.3940 C   0  0  0  0  0  0  0  0  0  0  0  0
  161.9580  209.5250  148.9030 N   0  0  0  0  0  2  0  0  0  0  0  0
  161.1300  208.0730  153.7110 C   0  0  0  0  0  0  0  0  0  0  0  0
  160.9690  205.8240  150.5490 C   0  0  0  0  0  2  0  0  0  0  0  0
  161.7320  204.9460  146.9460 N   0  0  0  0  0  0  0  0  0  0  0  0
  161.4800  208.2150  150.7990 N   0  0  0  0  0  0  0  0  0  0  0  0
  161.1810  207.0790  151.3600 C   0  0  0  0  0  0  0  0  0  0  0  0
  161.7000  207.1680  148.5370 C   0  0  0  0  0  0  0  0  0  0  0  0
  161.4980  209.2180  153.3320 O   0  0  0  0  0  0  0  0  0  0  0  0
  161.1480  203.4180  148.7660 C   0  0  0  0  0  0  0  0  0  0  0  0
  160.6930  200.8330  149.7740 C   0  0  0  0  0  3  0  0  0  0  0  0
  161.0460  202.3160  147.8870 C   0  0  0  0  0  0  0  0  0  0  0  0
  160.8150  201.0350  148.3980 C   0  0  0  0  0  3  0  0  0  0  0  0
  160.8010  201.9140  150.6490 C   0  0  0  0  0  3  0  0  0  0  0  0
  161.1430  202.4880  146.4770 N   0  0  0  0  0  1  0  0  0  0  0  0
  161.0300  203.1970  150.1480 C   0  0  0  0  0  3  0  0  0  0  0  0
  160.8820  207.8140  155.1620 C   0  0  2  0  0  3  0  0  0  0  0  0
  159.7250  207.0770  155.3470 F   0  0  0  0  0  0  0  0  0  0  0  0
  162.0570  209.2430  156.8790 C   0  0  0  0  0  1  0  0  0  0  0  0
  160.8460  209.1080  155.9690 C   0  0  0  0  0  2  0  0  0  0  0  0
  1 15  1  0  0  0  0
  1  2  1  0  0  0  0
  2  9  1  0  0  0  0
  3 10  1  0  0  0  0
  3  5  2  0  0  0  0
  4  8  1  0  0  0  0
  5 13  1  0  0  0  0
  6 11  1  0  0  0  0
  7  6  2  0  0  0  0
  8 22  1  0  0  0  0
  9 12  1  0  0  0  0
 10  1  2  0  0  0  0
 11 12  2  0  0  0  0
 12  4  1  0  0  0  0
 13  2  2  0  0  0  0
 13  6  1  0  0  0  0
 14  8  2  0  0  0  0
 15 21  1  0  0  0  0
 16 19  1  0  0  0  0
 17 18  1  0  0  0  0
 17 15  2  0  0  0  0
 18 16  2  0  0  0  0
 20 17  1  0  0  0  0
 21 19  2  0  0  0  0
 22 23  1  6  0  0  0
 22 25  1  0  0  0  0
 25 24  1  0  0  0  0
M  END
>  <MODEL>
2

>  <REMARK>
 VINA RESULT:      -9.6      0.874      1.012
  Name = 
  3 active torsions:
  status: ('A' for Active; 'I' for Inactive)
    1  A    between atoms: C_1  and  C_5
    2  A    between atoms: C_2  and  C_15
    3  A    between atoms: C_2  and  C_21
                            x       y       z     vdW  Elec       q    Type
                         _______ _______ _______ _____ _____    ______ ____

>  <TORSDO>
F 3

$$$$
=
 OpenBabel11052422073D

 25 27  0  0  1  0  0  0  0  0999 V2000
  161.1950  204.1470  149.8310 C   0  0  0  0  0  0  0  0  0  0  0  0
  161.3840  205.4800  150.2620 C   0  0  0  0  0  0  0  0  0  0  0  0
  160.8550  203.4700  152.0810 C   0  0  0  0  0  3  0  0  0  0  0  0
  161.9240  209.0660  148.9710 N   0  0  0  0  0  2  0  0  0  0  0  0
  161.0310  204.7430  152.5120 N   0  0  0  0  0  0  0  0  0  0  0  0
  161.4680  207.1260  152.1060 C   0  0  0  0  0  0  0  0  0  0  0  0
  161.3990  207.4070  153.3650 N   0  0  0  0  0  2  0  0  0  0  0  0
  161.9290  210.4550  149.3230 C   0  0  0  0  0  0  0  0  0  0  0  0
  161.7810  206.5740  149.2970 C   0  0  0  0  0  2  0  0  0  0  0  0
  160.9380  203.1840  150.7570 N   0  0  0  0  0  0  0  0  0  0  0  0
  161.6430  208.1780  151.1550 N   0  0  0  0  0  0  0  0  0  0  0  0
  161.7550  207.9680  149.8750 C   0  0  0  0  0  0  0  0  0  0  0  0
  161.2930  205.7470  151.6360 C   0  0  0  0  0  0  0  0  0  0  0  0
  161.7480  210.8240  150.5150 O   0  0  0  0  0  0  0  0  0  0  0  0
  161.2540  203.7610  148.4000 C   0  0  0  0  0  0  0  0  0  0  0  0
  161.3020  203.0950  145.6690 C   0  0  0  0  0  3  0  0  0  0  0  0
  160.9490  202.4460  147.9800 C   0  0  0  0  0  0  0  0  0  0  0  0
  160.9810  202.1240  146.6190 C   0  0  0  0  0  3  0  0  0  0  0  0
  161.5950  204.3970  146.0750 C   0  0  0  0  0  3  0  0  0  0  0  0
  160.6400  201.4240  148.9220 N   0  0  0  0  0  1  0  0  0  0  0  0
  161.5680  204.7280  147.4320 C   0  0  0  0  0  3  0  0  0  0  0  0
  162.1150  211.4760  148.2480 C   0  0  2  0  0  3  0  0  0  0  0  0
  163.4410  211.8600  148.1470 F   0  0  0  0  0  0  0  0  0  0  0  0
  161.9620  213.9950  148.2930 C   0  0  0  0  0  1  0  0  0  0  0  0
  161.2060  212.6850  148.4540 C   0  0  0  0  0  2  0  0  0  0  0  0
  1  2  2  0  0  0  0
  1 10  1  0  0  0  0
  2 13  1  0  0  0  0
  3  5  1  0  0  0  0
  4  8  1  0  0  0  0
  4 12  1  0  0  0  0
  6  7  2  0  0  0  0
  8 14  2  0  0  0  0
  9 12  1  0  0  0  0
  9  2  1  0  0  0  0
 10  3  2  0  0  0  0
 11  6  1  0  0  0  0
 12 11  2  0  0  0  0
 13  6  1  0  0  0  0
 13  5  2  0  0  0  0
 15  1  1  0  0  0  0
 16 19  2  0  0  0  0
 16 18  1  0  0  0  0
 17 15  1  0  0  0  0
 17 20  1  0  0  0  0
 18 17  2  0  0  0  0
 19 21  1  0  0  0  0
 21 15  2  0  0  0  0
 22 23  1  1  0  0  0
 22 25  1  0  0  0  0
 22  8  1  0  0  0  0
 24 25  1  0  0  0  0
M  END
>  <MODEL>
3

>  <REMARK>
 VINA RESULT:      -9.4      2.762      4.922
  Name = 
  3 active torsions:
  status: ('A' for Active; 'I' for Inactive)
    1  A    between atoms: C_1  and  C_5
    2  A    between atoms: C_2  and  C_15
    3  A    between atoms: C_2  and  C_21
                            x       y       z     vdW  Elec       q    Type
                         _______ _______ _______ _____ _____    ______ ____

>  <TORSDO>
F 3

$$$$
=
 OpenBabel11052422073D

 25 27  0  0  1  0  0  0  0  0999 V2000
  161.2280  208.9790  153.3070 C   0  0  0  0  0  0  0  0  0  0  0  0
  161.3270  208.1220  152.1880 C   0  0  0  0  0  0  0  0  0  0  0  0
  161.5810  210.8570  151.8990 C   0  0  0  0  0  3  0  0  0  0  0  0
  160.9930  204.4410  151.1110 N   0  0  0  0  0  2  0  0  0  0  0  0
  161.6760  210.0510  150.8130 N   0  0  0  0  0  0  0  0  0  0  0  0
  161.6460  207.8370  149.7520 C   0  0  0  0  0  0  0  0  0  0  0  0
  161.8640  208.3370  148.5810 N   0  0  0  0  0  2  0  0  0  0  0  0
  160.8890  203.5460  149.9970 C   0  0  0  0  0  0  0  0  0  0  0  0
  161.3000  206.6190  152.3380 C   0  0  0  0  0  2  0  0  0  0  0  0
  161.3600  210.3210  153.1260 N   0  0  0  0  0  0  0  0  0  0  0  0
  161.4160  206.4330  149.8890 N   0  0  0  0  0  0  0  0  0  0  0  0
  161.2230  205.8530  151.0390 C   0  0  0  0  0  0  0  0  0  0  0  0
  161.5560  208.7040  150.9320 C   0  0  0  0  0  0  0  0  0  0  0  0
  160.9700  203.9710  148.8120 O   0  0  0  0  0  0  0  0  0  0  0  0
  160.9710  208.4680  154.6760 C   0  0  0  0  0  0  0  0  0  0  0  0
  160.3910  207.5170  157.2580 C   0  0  0  0  0  3  0  0  0  0  0  0
  161.5880  209.0490  155.8070 C   0  0  0  0  0  0  0  0  0  0  0  0
  161.2970  208.5650  157.0870 C   0  0  0  0  0  3  0  0  0  0  0  0
  159.7710  206.9440  156.1470 C   0  0  0  0  0  3  0  0  0  0  0  0
  162.5340  210.1040  155.6680 N   0  0  0  0  0  1  0  0  0  0  0  0
  160.0570  207.4190  154.8660 C   0  0  0  0  0  3  0  0  0  0  0  0
  160.6410  202.0950  150.2520 C   0  0  2  0  0  3  0  0  0  0  0  0
  161.7380  201.4990  150.8520 F   0  0  0  0  0  0  0  0  0  0  0  0
  161.4140  200.5950  148.3750 C   0  0  0  0  0  1  0  0  0  0  0  0
  160.2430  201.3570  148.9770 C   0  0  0  0  0  2  0  0  0  0  0  0
  1 15  1  0  0  0  0
  2  9  1  0  0  0  0
  2  1  2  0  0  0  0
  3 10  2  0  0  0  0
  5 13  2  0  0  0  0
  5  3  1  0  0  0  0
  6 11  1  0  0  0  0
  6 13  1  0  0  0  0
  7  6  2  0  0  0  0
  8 22  1  0  0  0  0
  8  4  1  0  0  0  0
 10  1  1  0  0  0  0
 11 12  2  0  0  0  0
 12  4  1  0  0  0  0
 12  9  1  0  0  0  0
 13  2  1  0  0  0  0
 14  8  2  0  0  0  0
 15 21  2  0  0  0  0
 15 17  1  0  0  0  0
 17 18  2  0  0  0  0
 18 16  1  0  0  0  0
 19 16  2  0  0  0  0
 20 17  1  0  0  0  0
 21 19  1  0  0  0  0
 22 23  1  6  0  0  0
 24 25  1  0  0  0  0
 25 22  1  0  0  0  0
M  END
>  <MODEL>
4

>  <REMARK>
 VINA RESULT:      -9.2      2.919      7.065
  Name = 
  3 active torsions:
  status: ('A' for Active; 'I' for Inactive)
    1  A    between atoms: C_1  and  C_5
    2  A    between atoms: C_2  and  C_15
    3  A    between atoms: C_2  and  C_21
                            x       y       z     vdW  Elec       q    Type
                         _______ _______ _______ _____ _____    ______ ____

>  <TORSDO>
F 3

$$$$
=
 OpenBabel11052422073D

 25 27  0  0  1  0  0  0  0  0999 V2000
  161.2020  203.5910  147.6790 C   0  0  0  0  0  0  0  0  0  0  0  0
  161.1860  204.1860  148.9600 C   0  0  0  0  0  0  0  0  0  0  0  0
  160.8930  201.4550  148.6690 C   0  0  0  0  0  3  0  0  0  0  0  0
  161.2510  207.5920  150.7540 N   0  0  0  0  0  2  0  0  0  0  0  0
  160.8720  202.0090  149.9060 N   0  0  0  0  0  0  0  0  0  0  0  0
  160.9790  203.9450  151.4130 C   0  0  0  0  0  0  0  0  0  0  0  0
  160.8310  203.2040  152.4610 N   0  0  0  0  0  2  0  0  0  0  0  0
  161.0480  208.2690  152.0000 C   0  0  0  0  0  0  0  0  0  0  0  0
  161.4530  205.6610  149.1500 C   0  0  0  0  0  2  0  0  0  0  0  0
  161.0560  202.2410  147.5750 N   0  0  0  0  0  0  0  0  0  0  0  0
  161.0320  205.3660  151.5540 N   0  0  0  0  0  0  0  0  0  0  0  0
  161.2110  206.1740  150.5480 C   0  0  0  0  0  0  0  0  0  0  0  0
  161.0160  203.3490  150.0730 C   0  0  0  0  0  0  0  0  0  0  0  0
  160.7790  207.6280  153.0520 O   0  0  0  0  0  0  0  0  0  0  0  0
  161.3600  204.3860  146.4360 C   0  0  0  0  0  0  0  0  0  0  0  0
  161.6080  205.8290  144.0360 C   0  0  0  0  0  3  0  0  0  0  0  0
  162.6370  204.7100  145.9260 C   0  0  0  0  0  0  0  0  0  0  0  0
  162.7510  205.4320  144.7340 C   0  0  0  0  0  3  0  0  0  0  0  0
  160.3440  205.5060  144.5290 C   0  0  0  0  0  3  0  0  0  0  0  0
  163.8240  204.3410  146.6230 N   0  0  0  0  0  1  0  0  0  0  0  0
  160.2210  204.7870  145.7190 C   0  0  0  0  0  3  0  0  0  0  0  0
  161.1190  209.7610  152.0360 C   0  0  2  0  0  3  0  0  0  0  0  0
  162.4330  210.1980  152.0420 F   0  0  0  0  0  0  0  0  0  0  0  0
  159.1810  211.2050  152.7610 C   0  0  0  0  0  1  0  0  0  0  0  0
  160.3420  210.3360  153.2160 C   0  0  0  0  0  2  0  0  0  0  0  0
  1  2  1  0  0  0  0
  2  9  1  0  0  0  0
  2 13  2  0  0  0  0
  3  5  2  0  0  0  0
  4  8  1  0  0  0  0
  5 13  1  0  0  0  0
  6 11  1  0  0  0  0
  6  7  2  0  0  0  0
  8 22  1  0  0  0  0
  8 14  2  0  0  0  0
  9 12  1  0  0  0  0
 10  1  2  0  0  0  0
 10  3  1  0  0  0  0
 12  4  1  0  0  0  0
 12 11  2  0  0  0  0
 13  6  1  0  0  0  0
 15  1  1  0  0  0  0
 16 19  2  0  0  0  0
 16 18  1  0  0  0  0
 17 15  1  0  0  0  0
 17 20  1  0  0  0  0
 18 17  2  0  0  0  0
 19 21  1  0  0  0  0
 21 15  2  0  0  0  0
 22 23  1  1  0  0  0
 22 25  1  0  0  0  0
 24 25  1  0  0  0  0
M  END
>  <MODEL>
5

>  <REMARK>
 VINA RESULT:      -8.9      2.184      4.444
  Name = 
  3 active torsions:
  status: ('A' for Active; 'I' for Inactive)
    1  A    between atoms: C_1  and  C_5
    2  A    between atoms: C_2  and  C_15
    3  A    between atoms: C_2  and  C_21
                            x       y       z     vdW  Elec       q    Type
                         _______ _______ _______ _____ _____    ______ ____

>  <TORSDO>
F 3

$$$$
=
 OpenBabel11052422073D

 25 27  0  0  1  0  0  0  0  0999 V2000
  161.1470  205.1700  148.7470 C   0  0  0  0  0  0  0  0  0  0  0  0
  161.4040  206.4540  149.2780 C   0  0  0  0  0  0  0  0  0  0  0  0
  160.9040  204.3100  150.9470 C   0  0  0  0  0  3  0  0  0  0  0  0
  161.9990  210.1210  148.2690 N   0  0  0  0  0  2  0  0  0  0  0  0
  161.1460  205.5350  151.4740 N   0  0  0  0  0  0  0  0  0  0  0  0
  161.6440  207.9290  151.2490 C   0  0  0  0  0  0  0  0  0  0  0  0
  161.6510  208.1020  152.5290 N   0  0  0  0  0  2  0  0  0  0  0  0
  162.0720  211.4730  148.7370 C   0  0  0  0  0  0  0  0  0  0  0  0
  161.7870  207.6150  148.3900 C   0  0  0  0  0  2  0  0  0  0  0  0
  160.9060  204.1370  149.6000 N   0  0  0  0  0  0  0  0  0  0  0  0
  161.8040  209.0550  150.3820 N   0  0  0  0  0  0  0  0  0  0  0  0
  161.8400  208.9540  149.0850 C   0  0  0  0  0  0  0  0  0  0  0  0
  161.3960  206.6030  150.6730 C   0  0  0  0  0  0  0  0  0  0  0  0
  161.9660  211.7420  149.9650 O   0  0  0  0  0  0  0  0  0  0  0  0
  161.1160  204.9080  147.2870 C   0  0  0  0  0  0  0  0  0  0  0  0
  160.9710  204.4470  144.5170 C   0  0  0  0  0  3  0  0  0  0  0  0
  161.2870  203.6040  146.7690 C   0  0  0  0  0  0  0  0  0  0  0  0
  161.2180  203.3850  145.3900 C   0  0  0  0  0  3  0  0  0  0  0  0
  160.7920  205.7350  145.0210 C   0  0  0  0  0  3  0  0  0  0  0  0
  161.5630  202.5010  147.6280 N   0  0  0  0  0  1  0  0  0  0  0  0
  160.8620  205.9630  146.3970 C   0  0  0  0  0  3  0  0  0  0  0  0
  162.2350  212.5780  147.7450 C   0  0  2  0  0  3  0  0  0  0  0  0
  163.4550  213.2130  147.9020 F   0  0  0  0  0  0  0  0  0  0  0  0
  159.7940  212.9910  147.2560 C   0  0  0  0  0  1  0  0  0  0  0  0
  161.0820  213.5750  147.8140 C   0  0  0  0  0  2  0  0  0  0  0  0
  1  2  2  0  0  0  0
  1 10  1  0  0  0  0
  2 13  1  0  0  0  0
  3  5  1  0  0  0  0
  4  8  1  0  0  0  0
  4 12  1  0  0  0  0
  6  7  2  0  0  0  0
  8 14  2  0  0  0  0
  9 12  1  0  0  0  0
  9  2  1  0  0  0  0
 10  3  2  0  0  0  0
 11  6  1  0  0  0  0
 12 11  2  0  0  0  0
 13  6  1  0  0  0  0
 13  5  2  0  0  0  0
 15  1  1  0  0  0  0
 16 19  2  0  0  0  0
 16 18  1  0  0  0  0
 17 15  1  0  0  0  0
 17 20  1  0  0  0  0
 18 17  2  0  0  0  0
 19 21  1  0  0  0  0
 21 15  2  0  0  0  0
 22 25  1  0  0  0  0
 22 23  1  1  0  0  0
 22  8  1  0  0  0  0
 24 25  1  0  0  0  0
M  END
>  <MODEL>
6

>  <REMARK>
 VINA RESULT:      -8.7      2.991      5.254
  Name = 
  3 active torsions:
  status: ('A' for Active; 'I' for Inactive)
    1  A    between atoms: C_1  and  C_5
    2  A    between atoms: C_2  and  C_15
    3  A    between atoms: C_2  and  C_21
                            x       y       z     vdW  Elec       q    Type
                         _______ _______ _______ _____ _____    ______ ____

>  <TORSDO>
F 3

$$$$
=
 OpenBabel11052422073D

 25 27  0  0  1  0  0  0  0  0999 V2000
  161.5210  207.4740  151.6250 C   0  0  0  0  0  0  0  0  0  0  0  0
  161.3310  206.1890  151.0690 C   0  0  0  0  0  0  0  0  0  0  0  0
  161.4320  206.5420  153.8070 C   0  0  0  0  0  3  0  0  0  0  0  0
  161.2100  204.2890  147.7230 N   0  0  0  0  0  2  0  0  0  0  0  0
  161.2520  205.3020  153.2910 N   0  0  0  0  0  0  0  0  0  0  0  0
  161.0160  203.7580  151.3960 C   0  0  0  0  0  0  0  0  0  0  0  0
  160.8820  202.7370  152.1760 N   0  0  0  0  0  2  0  0  0  0  0  0
  161.2170  202.9980  147.1030 C   0  0  0  0  0  0  0  0  0  0  0  0
  161.1640  205.9890  149.5810 C   0  0  0  0  0  2  0  0  0  0  0  0
  161.5640  207.6100  152.9790 N   0  0  0  0  0  0  0  0  0  0  0  0
  161.0630  203.5650  149.9800 N   0  0  0  0  0  0  0  0  0  0  0  0
  161.1630  204.5480  149.1320 C   0  0  0  0  0  0  0  0  0  0  0  0
  161.1970  205.1050  151.9480 C   0  0  0  0  0  0  0  0  0  0  0  0
  161.2090  201.9440  147.7960 O   0  0  0  0  0  0  0  0  0  0  0  0
  161.6890  208.6850  150.7840 C   0  0  0  0  0  0  0  0  0  0  0  0
  162.0940  210.9470  149.1640 C   0  0  0  0  0  3  0  0  0  0  0  0
  161.6360  209.9830  151.3420 C   0  0  0  0  0  0  0  0  0  0  0  0
  161.8330  211.1020  150.5270 C   0  0  0  0  0  3  0  0  0  0  0  0
  162.1570  209.6700  148.6070 C   0  0  0  0  0  3  0  0  0  0  0  0
  161.3500  210.1790  152.7240 N   0  0  0  0  0  1  0  0  0  0  0  0
  161.9590  208.5460  149.4130 C   0  0  0  0  0  3  0  0  0  0  0  0
  161.2730  202.9080  145.6130 C   0  0  2  0  0  3  0  0  0  0  0  0
  161.6140  204.1270  145.0510 F   0  0  0  0  0  0  0  0  0  0  0  0
  159.9930  200.8680  144.8570 C   0  0  0  0  0  1  0  0  0  0  0  0
  159.9670  202.3790  145.0280 C   0  0  0  0  0  2  0  0  0  0  0  0
  1 10  1  0  0  0  0
  2  1  2  0  0  0  0
  2 13  1  0  0  0  0
  4 12  1  0  0  0  0
  5  3  1  0  0  0  0
  6 13  1  0  0  0  0
  6  7  2  0  0  0  0
  8  4  1  0  0  0  0
  8 14  2  0  0  0  0
  9  2  1  0  0  0  0
 10  3  2  0  0  0  0
 11  6  1  0  0  0  0
 12  9  1  0  0  0  0
 12 11  2  0  0  0  0
 13  5  2  0  0  0  0
 15 17  1  0  0  0  0
 15  1  1  0  0  0  0
 16 18  1  0  0  0  0
 17 20  1  0  0  0  0
 18 17  2  0  0  0  0
 19 16  2  0  0  0  0
 19 21  1  0  0  0  0
 21 15  2  0  0  0  0
 22 23  1  6  0  0  0
 22  8  1  0  0  0  0
 24 25  1  0  0  0  0
 25 22  1  0  0  0  0
M  END
>  <MODEL>
7

>  <REMARK>
 VINA RESULT:      -8.5      3.702      7.887
  Name = 
  3 active torsions:
  status: ('A' for Active; 'I' for Inactive)
    1  A    between atoms: C_1  and  C_5
    2  A    between atoms: C_2  and  C_15
    3  A    between atoms: C_2  and  C_21
                            x       y       z     vdW  Elec       q    Type
                         _______ _______ _______ _____ _____    ______ ____

>  <TORSDO>
F 3

$$$$
=
 OpenBabel11052422073D

 25 27  0  0  1  0  0  0  0  0999 V2000
  161.6180  206.2420  149.6620 C   0  0  0  0  0  0  0  0  0  0  0  0
  161.6230  207.4430  150.4060 C   0  0  0  0  0  0  0  0  0  0  0  0
  162.2390  207.4490  147.7140 C   0  0  0  0  0  3  0  0  0  0  0  0
  161.2220  208.8360  153.9730 N   0  0  0  0  0  2  0  0  0  0  0  0
  162.2510  208.6110  148.4120 N   0  0  0  0  0  0  0  0  0  0  0  0
  161.9770  209.8900  150.4910 C   0  0  0  0  0  0  0  0  0  0  0  0
  162.2670  211.0040  149.9050 N   0  0  0  0  0  2  0  0  0  0  0  0
  161.4000  209.9800  154.8160 C   0  0  0  0  0  0  0  0  0  0  0  0
  161.1840  207.4790  151.8520 C   0  0  0  0  0  2  0  0  0  0  0  0
  161.9260  206.2850  148.3370 N   0  0  0  0  0  0  0  0  0  0  0  0
  161.7550  209.8700  151.9030 N   0  0  0  0  0  0  0  0  0  0  0  0
  161.4270  208.7920  152.5560 C   0  0  0  0  0  0  0  0  0  0  0  0
  161.9490  208.6320  149.7370 C   0  0  0  0  0  0  0  0  0  0  0  0
  161.7970  211.0800  154.3430 O   0  0  0  0  0  0  0  0  0  0  0  0
  161.3030  204.9300  150.2770 C   0  0  0  0  0  0  0  0  0  0  0  0
  160.7860  202.4470  151.4910 C   0  0  0  0  0  3  0  0  0  0  0  0
  161.1000  203.7760  149.4860 C   0  0  0  0  0  0  0  0  0  0  0  0
  160.8380  202.5460  150.0990 C   0  0  0  0  0  3  0  0  0  0  0  0
  160.9940  203.5790  152.2780 C   0  0  0  0  0  3  0  0  0  0  0  0
  161.1230  203.8450  148.0640 N   0  0  0  0  0  1  0  0  0  0  0  0
  161.2540  204.8120  151.6750 C   0  0  0  0  0  3  0  0  0  0  0  0
  161.1450  209.8490  156.2820 C   0  0  2  0  0  3  0  0  0  0  0  0
  161.9100  208.8360  156.8330 F   0  0  0  0  0  0  0  0  0  0  0  0
  158.8730  210.9370  156.4420 C   0  0  0  0  0  1  0  0  0  0  0  0
  159.6630  209.6450  156.5830 C   0  0  0  0  0  2  0  0  0  0  0  0
  1 15  1  0  0  0  0
  1  2  1  0  0  0  0
  2  9  1  0  0  0  0
  3 10  1  0  0  0  0
  3  5  2  0  0  0  0
  4  8  1  0  0  0  0
  5 13  1  0  0  0  0
  6 11  1  0  0  0  0
  7  6  2  0  0  0  0
  8 22  1  0  0  0  0
  9 12  1  0  0  0  0
 10  1  2  0  0  0  0
 11 12  2  0  0  0  0
 12  4  1  0  0  0  0
 13  2  2  0  0  0  0
 13  6  1  0  0  0  0
 14  8  2  0  0  0  0
 15 21  1  0  0  0  0
 16 19  1  0  0  0  0
 17 18  1  0  0  0  0
 17 15  2  0  0  0  0
 18 16  2  0  0  0  0
 20 17  1  0  0  0  0
 21 19  2  0  0  0  0
 22 25  1  0  0  0  0
 22 23  1  6  0  0  0
 24 25  1  0  0  0  0
M  END
>  <MODEL>
8

>  <REMARK>
 VINA RESULT:      -8.2      1.571      2.041
  Name = 
  3 active torsions:
  status: ('A' for Active; 'I' for Inactive)
    1  A    between atoms: C_1  and  C_5
    2  A    between atoms: C_2  and  C_15
    3  A    between atoms: C_2  and  C_21
                            x       y       z     vdW  Elec       q    Type
                         _______ _______ _______ _____ _____    ______ ____

>  <TORSDO>
F 3

$$$$
=
 OpenBabel11052422073D

 25 27  0  0  1  0  0  0  0  0999 V2000
  159.8880  211.9450  153.9580 C   0  0  0  0  0  0  0  0  0  0  0  0
  160.2890  210.5900  153.9410 C   0  0  0  0  0  0  0  0  0  0  0  0
  160.5120  212.1000  156.2440 C   0  0  0  0  0  3  0  0  0  0  0  0
  160.7360  207.5590  151.6100 N   0  0  0  0  0  2  0  0  0  0  0  0
  160.9050  210.8020  156.2450 N   0  0  0  0  0  0  0  0  0  0  0  0
  161.2410  208.6410  155.1290 C   0  0  0  0  0  0  0  0  0  0  0  0
  161.7120  208.0990  156.2030 N   0  0  0  0  0  2  0  0  0  0  0  0
  161.3030  206.2510  151.4780 C   0  0  0  0  0  0  0  0  0  0  0  0
  160.0750  209.7180  152.7260 C   0  0  0  0  0  2  0  0  0  0  0  0
  160.0120  212.6570  155.1120 N   0  0  0  0  0  0  0  0  0  0  0  0
  161.2170  207.8910  153.9120 N   0  0  0  0  0  0  0  0  0  0  0  0
  160.7280  208.3590  152.7990 C   0  0  0  0  0  0  0  0  0  0  0  0
  160.8020  210.0410  155.1250 C   0  0  0  0  0  0  0  0  0  0  0  0
  161.8890  205.6950  152.4470 O   0  0  0  0  0  0  0  0  0  0  0  0
  159.3480  212.6270  152.7560 C   0  0  0  0  0  0  0  0  0  0  0  0
  158.3910  213.9860  150.4880 C   0  0  0  0  0  3  0  0  0  0  0  0
  158.0070  213.0690  152.7010 C   0  0  0  0  0  0  0  0  0  0  0  0
  157.5390  213.7390  151.5660 C   0  0  0  0  0  3  0  0  0  0  0  0
  159.7190  213.5620  150.5390 C   0  0  0  0  0  3  0  0  0  0  0  0
  157.1030  212.8140  153.7720 N   0  0  0  0  0  1  0  0  0  0  0  0
  160.1950  212.8890  151.6670 C   0  0  0  0  0  3  0  0  0  0  0  0
  161.2280  205.5560  150.1570 C   0  0  2  0  0  3  0  0  0  0  0  0
  160.2520  206.1180  149.3520 F   0  0  0  0  0  0  0  0  0  0  0  0
  160.9850  203.3380  148.9780 C   0  0  0  0  0  1  0  0  0  0  0  0
  161.0100  204.0550  150.3190 C   0  0  0  0  0  2  0  0  0  0  0  0
  1 10  1  0  0  0  0
  2  1  2  0  0  0  0
  2 13  1  0  0  0  0
  3  5  1  0  0  0  0
  4 12  1  0  0  0  0
  6  7  2  0  0  0  0
  8  4  1  0  0  0  0
  8 14  2  0  0  0  0
  9 12  1  0  0  0  0
  9  2  1  0  0  0  0
 10  3  2  0  0  0  0
 11  6  1  0  0  0  0
 12 11  2  0  0  0  0
 13  6  1  0  0  0  0
 13  5  2  0  0  0  0
 15  1  1  0  0  0  0
 16 19  2  0  0  0  0
 16 18  1  0  0  0  0
 17 15  1  0  0  0  0
 17 20  1  0  0  0  0
 18 17  2  0  0  0  0
 19 21  1  0  0  0  0
 21 15  2  0  0  0  0
 22 23  1  6  0  0  0
 22 25  1  0  0  0  0
 22  8  1  0  0  0  0
 24 25  1  0  0  0  0
M  END
>  <MODEL>
9

>  <REMARK>
 VINA RESULT:      -8.0      4.064      8.666
  Name = 
  3 active torsions:
  status: ('A' for Active; 'I' for Inactive)
    1  A    between atoms: C_1  and  C_5
    2  A    between atoms: C_2  and  C_15
    3  A    between atoms: C_2  and  C_21
                            x       y       z     vdW  Elec       q    Type
                         _______ _______ _______ _____ _____    ______ ____

>  <TORSDO>
F 3

$$$$
