=
 OpenBabel11052422213D

 25 28  0  0  1  0  0  0  0  0999 V2000
  159.5410  211.7140  154.1110 C   0  0  0  0  0  0  0  0  0  0  0  0
  160.8820  211.0740  154.3050 C   0  0  1  0  0  3  0  0  0  0  0  0
  158.7170  211.1810  156.2980 N   0  0  0  0  0  0  0  0  0  0  0  0
  159.0440  212.4410  153.1310 C   0  0  0  0  0  0  0  0  0  0  0  0
  157.3930  214.0480  151.4680 C   0  0  0  0  0  3  0  0  0  0  0  0
  159.9670  210.5270  156.5930 C   0  0  0  0  0  3  0  0  0  0  0  0
  157.7290  212.8960  153.5580 C   0  0  0  0  0  0  0  0  0  0  0  0
  156.9540  213.8030  152.7130 C   0  0  0  0  0  3  0  0  0  0  0  0
  158.5920  213.3290  150.8660 C   0  0  0  0  0  2  0  0  0  0  0  0
  158.5300  211.7140  155.1330 C   0  0  0  0  0  0  0  0  0  0  0  0
  157.3970  212.4880  154.7450 N   0  0  0  0  0  0  0  0  0  0  0  0
  159.6870  212.9580  151.8870 C   0  0  0  0  0  2  0  0  0  0  0  0
  160.9880  210.4620  155.7010 C   0  0  0  0  0  0  0  0  0  0  0  0
  161.1470  210.0550  153.2340 C   0  0  0  0  0  0  0  0  0  0  0  0
  162.2430  209.3680  151.1810 C   0  0  0  0  0  3  0  0  0  0  0  0
  160.5240  208.8070  153.3120 C   0  0  0  0  0  3  0  0  0  0  0  0
  160.7580  207.8420  152.3280 C   0  0  0  0  0  3  0  0  0  0  0  0
  162.0100  210.3340  152.1630 C   0  0  0  0  0  3  0  0  0  0  0  0
  161.6180  208.1150  151.2560 C   0  0  0  0  0  0  0  0  0  0  0  0
  161.8650  207.0970  150.2200 C   0  0  0  0  0  0  0  0  0  0  0  0
  161.4140  205.7580  150.4010 N   0  0  0  0  0  1  0  0  0  0  0  0
  162.4790  207.4020  149.1630 O   0  0  0  0  0  0  0  0  0  0  0  0
  162.2820  209.8070  156.0910 C   0  0  0  0  0  3  0  0  0  0  0  0
  162.0420  208.5280  156.8710 C   0  0  0  0  0  1  0  0  0  0  0  0
  163.1650  210.7520  156.8860 C   0  0  0  0  0  1  0  0  0  0  0  0
  1  2  1  0  0  0  0
  1 10  1  0  0  0  0
  2 14  1  6  0  0  0
  2 13  1  0  0  0  0
  3  6  1  0  0  0  0
  4  7  1  0  0  0  0
  4  1  2  0  0  0  0
  5  8  2  0  0  0  0
  7 11  2  0  0  0  0
  8  7  1  0  0  0  0
  9  5  1  0  0  0  0
  9 12  1  0  0  0  0
 10  3  2  0  0  0  0
 11 10  1  0  0  0  0
 12  4  1  0  0  0  0
 13 23  1  0  0  0  0
 13  6  2  0  0  0  0
 14 16  1  0  0  0  0
 15 19  2  0  0  0  0
 15 18  1  0  0  0  0
 17 16  2  0  0  0  0
 18 14  2  0  0  0  0
 19 17  1  0  0  0  0
 20 21  1  0  0  0  0
 20 19  1  0  0  0  0
 22 20  2  0  0  0  0
 23 24  1  0  0  0  0
 23 25  1  0  0  0  0
M  END
>  <MODEL>
1

>  <REMARK>
 VINA RESULT:      -6.0      0.000      0.000
  Name = 
  3 active torsions:
  status: ('A' for Active; 'I' for Inactive)
    1  A    between atoms: C_2  and  C_25
    2  A    between atoms: C_3  and  C_6
    3  A    between atoms: C_13  and  C_24
                            x       y       z     vdW  Elec       q    Type
                         _______ _______ _______ _____ _____    ______ ____

>  <TORSDO>
F 3

$$$$
=
 OpenBabel11052422213D

 25 28  0  0  1  0  0  0  0  0999 V2000
  160.7000  210.2580  152.7590 C   0  0  0  0  0  0  0  0  0  0  0  0
  161.2670  209.1070  153.5320 C   0  0  1  0  0  3  0  0  0  0  0  0
  159.0900  210.8790  154.4230 N   0  0  0  0  0  0  0  0  0  0  0  0
  161.0590  210.8200  151.6220 C   0  0  0  0  0  0  0  0  0  0  0  0
  161.2830  212.4890  149.3340 C   0  0  0  0  0  3  0  0  0  0  0  0
  159.5500  209.7930  155.2520 C   0  0  0  0  0  3  0  0  0  0  0  0
  160.2090  211.9860  151.4310 C   0  0  0  0  0  0  0  0  0  0  0  0
  160.4240  212.8750  150.2910 C   0  0  0  0  0  3  0  0  0  0  0  0
  161.9460  211.1190  149.3320 C   0  0  0  0  0  2  0  0  0  0  0  0
  159.6260  211.0720  153.2600 C   0  0  0  0  0  0  0  0  0  0  0  0
  159.3530  212.1680  152.3900 N   0  0  0  0  0  0  0  0  0  0  0  0
  162.2300  210.5490  150.7370 C   0  0  0  0  0  2  0  0  0  0  0  0
  160.5530  208.9590  154.8750 C   0  0  0  0  0  0  0  0  0  0  0  0
  161.2010  207.8400  152.7300 C   0  0  0  0  0  0  0  0  0  0  0  0
  160.8070  206.6650  150.6430 C   0  0  0  0  0  3  0  0  0  0  0  0
  161.4900  206.6230  153.3530 C   0  0  0  0  0  3  0  0  0  0  0  0
  161.4380  205.4310  152.6260 C   0  0  0  0  0  3  0  0  0  0  0  0
  160.8580  207.8570  151.3690 C   0  0  0  0  0  3  0  0  0  0  0  0
  161.0960  205.4420  151.2670 C   0  0  0  0  0  0  0  0  0  0  0  0
  161.0410  204.1850  150.5000 C   0  0  0  0  0  0  0  0  0  0  0  0
  161.0670  204.2060  149.0770 N   0  0  0  0  0  1  0  0  0  0  0  0
  160.9700  203.0790  151.0980 O   0  0  0  0  0  0  0  0  0  0  0  0
  161.0160  207.8770  155.8080 C   0  0  0  0  0  3  0  0  0  0  0  0
  159.8430  207.1850  156.4780 C   0  0  0  0  0  1  0  0  0  0  0  0
  161.9770  208.4160  156.8520 C   0  0  0  0  0  1  0  0  0  0  0  0
  1 10  1  0  0  0  0
  1  2  1  0  0  0  0
  2 14  1  6  0  0  0
  2 13  1  0  0  0  0
  3  6  1  0  0  0  0
  4  1  2  0  0  0  0
  5  8  2  0  0  0  0
  7  4  1  0  0  0  0
  7 11  2  0  0  0  0
  8  7  1  0  0  0  0
  9  5  1  0  0  0  0
  9 12  1  0  0  0  0
 10  3  2  0  0  0  0
 11 10  1  0  0  0  0
 12  4  1  0  0  0  0
 13  6  2  0  0  0  0
 13 23  1  0  0  0  0
 14 16  1  0  0  0  0
 15 19  2  0  0  0  0
 15 18  1  0  0  0  0
 17 16  2  0  0  0  0
 18 14  2  0  0  0  0
 19 17  1  0  0  0  0
 20 22  2  0  0  0  0
 20 19  1  0  0  0  0
 21 20  1  0  0  0  0
 23 24  1  0  0  0  0
 23 25  1  0  0  0  0
M  END
>  <MODEL>
2

>  <REMARK>
 VINA RESULT:      -5.9      2.095      3.014
  Name = 
  3 active torsions:
  status: ('A' for Active; 'I' for Inactive)
    1  A    between atoms: C_2  and  C_25
    2  A    between atoms: C_3  and  C_6
    3  A    between atoms: C_13  and  C_24
                            x       y       z     vdW  Elec       q    Type
                         _______ _______ _______ _____ _____    ______ ____

>  <TORSDO>
F 3

$$$$
=
 OpenBabel11052422213D

 25 28  0  0  1  0  0  0  0  0999 V2000
  161.2460  209.6360  151.3640 C   0  0  0  0  0  0  0  0  0  0  0  0
  161.9630  208.3220  151.3170 C   0  0  1  0  0  3  0  0  0  0  0  0
  160.1030  209.1980  153.4240 N   0  0  0  0  0  0  0  0  0  0  0  0
  161.3280  210.7140  150.6090 C   0  0  0  0  0  0  0  0  0  0  0  0
  161.0200  213.2970  149.4680 C   0  0  0  0  0  3  0  0  0  0  0  0
  160.7300  207.9010  153.4790 C   0  0  0  0  0  3  0  0  0  0  0  0
  160.4800  211.7290  151.2150 C   0  0  0  0  0  0  0  0  0  0  0  0
  160.4270  213.0770  150.6520 C   0  0  0  0  0  3  0  0  0  0  0  0
  161.6360  212.1790  148.6390 C   0  0  0  0  0  2  0  0  0  0  0  0
  160.3420  209.9860  152.4250 C   0  0  0  0  0  0  0  0  0  0  0  0
  159.8860  211.3310  152.3000 N   0  0  0  0  0  0  0  0  0  0  0  0
  162.2430  211.0320  149.4740 C   0  0  0  0  0  2  0  0  0  0  0  0
  161.5950  207.4660  152.5280 C   0  0  0  0  0  0  0  0  0  0  0  0
  161.6800  207.6050  150.0280 C   0  0  0  0  0  0  0  0  0  0  0  0
  160.2500  206.2250  148.6350 C   0  0  0  0  0  3  0  0  0  0  0  0
  162.6190  207.6640  148.9950 C   0  0  0  0  0  3  0  0  0  0  0  0
  162.3760  207.0070  147.7860 C   0  0  0  0  0  3  0  0  0  0  0  0
  160.4920  206.8810  149.8440 C   0  0  0  0  0  3  0  0  0  0  0  0
  161.1910  206.2820  147.5970 C   0  0  0  0  0  0  0  0  0  0  0  0
  160.9350  205.5900  146.3220 C   0  0  0  0  0  0  0  0  0  0  0  0
  160.2080  206.2370  145.2820 N   0  0  0  0  0  1  0  0  0  0  0  0
  161.3560  204.4170  146.1400 O   0  0  0  0  0  0  0  0  0  0  0  0
  162.2510  206.1230  152.6710 C   0  0  0  0  0  3  0  0  0  0  0  0
  163.3300  205.9200  151.6230 C   0  0  0  0  0  1  0  0  0  0  0  0
  161.2340  204.9980  152.6050 C   0  0  0  0  0  1  0  0  0  0  0  0
  1 10  1  0  0  0  0
  2 14  1  6  0  0  0
  2  1  1  0  0  0  0
  2 13  1  0  0  0  0
  3  6  1  0  0  0  0
  4  7  1  0  0  0  0
  4  1  2  0  0  0  0
  5  8  2  0  0  0  0
  7 11  2  0  0  0  0
  8  7  1  0  0  0  0
  9  5  1  0  0  0  0
  9 12  1  0  0  0  0
 10  3  2  0  0  0  0
 11 10  1  0  0  0  0
 12  4  1  0  0  0  0
 13 23  1  0  0  0  0
 13  6  2  0  0  0  0
 15 18  2  0  0  0  0
 16 14  2  0  0  0  0
 17 16  1  0  0  0  0
 18 14  1  0  0  0  0
 19 17  2  0  0  0  0
 19 15  1  0  0  0  0
 20 19  1  0  0  0  0
 21 20  1  0  0  0  0
 22 20  2  0  0  0  0
 24 23  1  0  0  0  0
 25 23  1  0  0  0  0
M  END
>  <MODEL>
3

>  <REMARK>
 VINA RESULT:      -5.3      3.070      4.513
  Name = 
  3 active torsions:
  status: ('A' for Active; 'I' for Inactive)
    1  A    between atoms: C_2  and  C_25
    2  A    between atoms: C_3  and  C_6
    3  A    between atoms: C_13  and  C_24
                            x       y       z     vdW  Elec       q    Type
                         _______ _______ _______ _____ _____    ______ ____

>  <TORSDO>
F 3

$$$$
=
 OpenBabel11052422213D

 25 28  0  0  1  0  0  0  0  0999 V2000
  161.6290  207.6460  150.4350 C   0  0  0  0  0  0  0  0  0  0  0  0
  162.1800  209.0170  150.6840 C   0  0  1  0  0  3  0  0  0  0  0  0
  161.0850  208.0340  148.1330 N   0  0  0  0  0  0  0  0  0  0  0  0
  161.5910  206.5610  151.1820 C   0  0  0  0  0  0  0  0  0  0  0  0
  161.2070  203.9330  152.1900 C   0  0  0  0  0  3  0  0  0  0  0  0
  161.5810  209.3820  148.2580 C   0  0  0  0  0  3  0  0  0  0  0  0
  161.0470  205.4910  150.3600 C   0  0  0  0  0  0  0  0  0  0  0  0
  160.9590  204.1300  150.8860 C   0  0  0  0  0  3  0  0  0  0  0  0
  161.4570  205.0800  153.1590 C   0  0  0  0  0  2  0  0  0  0  0  0
  161.1010  207.2450  149.1590 C   0  0  0  0  0  0  0  0  0  0  0  0
  160.7530  205.8630  149.1500 N   0  0  0  0  0  0  0  0  0  0  0  0
  162.1690  206.2960  152.5320 C   0  0  0  0  0  2  0  0  0  0  0  0
  162.0960  209.8670  149.4170 C   0  0  0  0  0  0  0  0  0  0  0  0
  161.4770  209.6740  151.8360 C   0  0  0  0  0  0  0  0  0  0  0  0
  159.4640  210.5300  152.8880 C   0  0  0  0  0  3  0  0  0  0  0  0
  162.2160  210.0420  152.9640 C   0  0  0  0  0  3  0  0  0  0  0  0
  161.5830  210.6530  154.0500 C   0  0  0  0  0  3  0  0  0  0  0  0
  160.0960  209.9210  151.8020 C   0  0  0  0  0  3  0  0  0  0  0  0
  160.2040  210.9020  154.0210 C   0  0  0  0  0  0  0  0  0  0  0  0
  159.5370  211.5450  155.1660 C   0  0  0  0  0  0  0  0  0  0  0  0
  158.2690  211.0790  155.6180 N   0  0  0  0  0  1  0  0  0  0  0  0
  160.0820  212.5150  155.7570 O   0  0  0  0  0  0  0  0  0  0  0  0
  162.6400  211.2660  149.4660 C   0  0  0  0  0  3  0  0  0  0  0  0
  161.5240  212.2900  149.5750 C   0  0  0  0  0  1  0  0  0  0  0  0
  163.5130  211.5650  148.2610 C   0  0  0  0  0  1  0  0  0  0  0  0
  1  2  1  0  0  0  0
  1  4  2  0  0  0  0
  2 14  1  1  0  0  0
  3  6  1  0  0  0  0
  3 10  2  0  0  0  0
  4 12  1  0  0  0  0
  5  9  1  0  0  0  0
  6 13  2  0  0  0  0
  7  8  1  0  0  0  0
  7  4  1  0  0  0  0
  8  5  2  0  0  0  0
 10  1  1  0  0  0  0
 11 10  1  0  0  0  0
 11  7  2  0  0  0  0
 12  9  1  0  0  0  0
 13 23  1  0  0  0  0
 13  2  1  0  0  0  0
 14 16  1  0  0  0  0
 15 19  2  0  0  0  0
 16 17  2  0  0  0  0
 18 14  2  0  0  0  0
 18 15  1  0  0  0  0
 19 17  1  0  0  0  0
 19 20  1  0  0  0  0
 20 21  1  0  0  0  0
 20 22  2  0  0  0  0
 23 24  1  0  0  0  0
 25 23  1  0  0  0  0
M  END
>  <MODEL>
4

>  <REMARK>
 VINA RESULT:      -5.2      2.799      7.249
  Name = 
  3 active torsions:
  status: ('A' for Active; 'I' for Inactive)
    1  A    between atoms: C_2  and  C_25
    2  A    between atoms: C_3  and  C_6
    3  A    between atoms: C_13  and  C_24
                            x       y       z     vdW  Elec       q    Type
                         _______ _______ _______ _____ _____    ______ ____

>  <TORSDO>
F 3

$$$$
=
 OpenBabel11052422213D

 25 28  0  0  1  0  0  0  0  0999 V2000
  161.1160  206.7610  151.7000 C   0  0  0  0  0  0  0  0  0  0  0  0
  160.6240  208.1240  152.0770 C   0  0  1  0  0  3  0  0  0  0  0  0
  162.0700  206.2620  153.8410 N   0  0  0  0  0  0  0  0  0  0  0  0
  160.9530  206.0330  150.6120 C   0  0  0  0  0  0  0  0  0  0  0  0
  160.9820  203.9710  148.6580 C   0  0  0  0  0  3  0  0  0  0  0  0
  161.6520  207.5590  154.3130 C   0  0  0  0  0  3  0  0  0  0  0  0
  161.5570  204.7340  150.8700 C   0  0  0  0  0  0  0  0  0  0  0  0
  161.4620  203.6680  149.8740 C   0  0  0  0  0  3  0  0  0  0  0  0
  160.6470  205.3970  148.2420 C   0  0  0  0  0  2  0  0  0  0  0  0
  161.8270  205.9130  152.6180 C   0  0  0  0  0  0  0  0  0  0  0  0
  162.0780  204.6280  152.0550 N   0  0  0  0  0  0  0  0  0  0  0  0
  160.1360  206.2900  149.3910 C   0  0  0  0  0  2  0  0  0  0  0  0
  160.9800  208.4400  153.5290 C   0  0  0  0  0  0  0  0  0  0  0  0
  161.1610  209.1650  151.1380 C   0  0  0  0  0  0  0  0  0  0  0  0
  162.3950  209.7940  149.1450 C   0  0  0  0  0  3  0  0  0  0  0  0
  160.9070  210.5140  151.3990 C   0  0  0  0  0  3  0  0  0  0  0  0
  161.3940  211.5010  150.5380 C   0  0  0  0  0  3  0  0  0  0  0  0
  161.9080  208.8070  150.0050 C   0  0  0  0  0  3  0  0  0  0  0  0
  162.1420  211.1490  149.4050 C   0  0  0  0  0  0  0  0  0  0  0  0
  162.6550  212.1890  148.4970 C   0  0  0  0  0  0  0  0  0  0  0  0
  161.9790  213.4370  148.3730 N   0  0  0  0  0  1  0  0  0  0  0  0
  163.6970  211.9840  147.8200 O   0  0  0  0  0  0  0  0  0  0  0  0
  160.5300  209.7560  154.0980 C   0  0  0  0  0  3  0  0  0  0  0  0
  161.7090  210.5780  154.5860 C   0  0  0  0  0  1  0  0  0  0  0  0
  159.5230  209.5620  155.2170 C   0  0  0  0  0  1  0  0  0  0  0  0
  1  2  1  0  0  0  0
  1 10  1  0  0  0  0
  2 14  1  6  0  0  0
  2 13  1  0  0  0  0
  3  6  1  0  0  0  0
  4  7  1  0  0  0  0
  4  1  2  0  0  0  0
  5  8  2  0  0  0  0
  7 11  2  0  0  0  0
  8  7  1  0  0  0  0
  9  5  1  0  0  0  0
  9 12  1  0  0  0  0
 10  3  2  0  0  0  0
 11 10  1  0  0  0  0
 12  4  1  0  0  0  0
 13 23  1  0  0  0  0
 13  6  2  0  0  0  0
 14 16  1  0  0  0  0
 15 19  2  0  0  0  0
 15 18  1  0  0  0  0
 17 16  2  0  0  0  0
 18 14  2  0  0  0  0
 19 17  1  0  0  0  0
 20 19  1  0  0  0  0
 21 20  1  0  0  0  0
 22 20  2  0  0  0  0
 23 24  1  0  0  0  0
 23 25  1  0  0  0  0
M  END
>  <MODEL>
5

>  <REMARK>
 VINA RESULT:      -4.8      3.295      6.254
  Name = 
  3 active torsions:
  status: ('A' for Active; 'I' for Inactive)
    1  A    between atoms: C_2  and  C_25
    2  A    between atoms: C_3  and  C_6
    3  A    between atoms: C_13  and  C_24
                            x       y       z     vdW  Elec       q    Type
                         _______ _______ _______ _____ _____    ______ ____

>  <TORSDO>
F 3

$$$$
=
 OpenBabel11052422213D

 25 28  0  0  1  0  0  0  0  0999 V2000
  159.1190  212.7700  152.0080 C   0  0  0  0  0  0  0  0  0  0  0  0
  160.0990  212.1640  152.9650 C   0  0  1  0  0  3  0  0  0  0  0  0
  157.3280  212.9400  153.5920 N   0  0  0  0  0  0  0  0  0  0  0  0
  159.2450  213.1950  150.7660 C   0  0  0  0  0  0  0  0  0  0  0  0
  158.8140  214.3020  148.1850 C   0  0  0  0  0  3  0  0  0  0  0  0
  158.1810  212.3540  154.5960 C   0  0  0  0  0  3  0  0  0  0  0  0
  157.9790  213.8060  150.3900 C   0  0  0  0  0  0  0  0  0  0  0  0
  157.8320  214.4530  149.0880 C   0  0  0  0  0  3  0  0  0  0  0  0
  160.0110  213.3910  148.4220 C   0  0  0  0  0  2  0  0  0  0  0  0
  157.7760  213.1120  152.3900 C   0  0  0  0  0  0  0  0  0  0  0  0
  157.0880  213.7810  151.3350 N   0  0  0  0  0  0  0  0  0  0  0  0
  160.4530  213.2950  149.8960 C   0  0  0  0  0  2  0  0  0  0  0  0
  159.4640  211.9880  154.3430 C   0  0  0  0  0  0  0  0  0  0  0  0
  160.6320  210.8650  152.4330 C   0  0  0  0  0  0  0  0  0  0  0  0
  160.5450  208.4460  152.2590 C   0  0  0  0  0  3  0  0  0  0  0  0
  161.7420  210.8800  151.5850 C   0  0  0  0  0  3  0  0  0  0  0  0
  162.2540  209.6840  151.0750 C   0  0  0  0  0  3  0  0  0  0  0  0
  160.0330  209.6410  152.7690 C   0  0  0  0  0  3  0  0  0  0  0  0
  161.6610  208.4580  151.4090 C   0  0  0  0  0  0  0  0  0  0  0  0
  162.2000  207.1970  150.8710 C   0  0  0  0  0  0  0  0  0  0  0  0
  162.2620  206.0320  151.6880 N   0  0  0  0  0  1  0  0  0  0  0  0
  162.6140  207.1380  149.6820 O   0  0  0  0  0  0  0  0  0  0  0  0
  160.3140  211.4270  155.4480 C   0  0  0  0  0  3  0  0  0  0  0  0
  159.6680  210.2050  156.0760 C   0  0  0  0  0  1  0  0  0  0  0  0
  160.6060  212.4730  156.5090 C   0  0  0  0  0  1  0  0  0  0  0  0
  1 10  1  0  0  0  0
  1  2  1  0  0  0  0
  2 14  1  6  0  0  0
  2 13  1  0  0  0  0
  3  6  1  0  0  0  0
  4  1  2  0  0  0  0
  5  9  1  0  0  0  0
  5  8  2  0  0  0  0
  7  4  1  0  0  0  0
  7 11  2  0  0  0  0
  8  7  1  0  0  0  0
  9 12  1  0  0  0  0
 10  3  2  0  0  0  0
 11 10  1  0  0  0  0
 12  4  1  0  0  0  0
 13  6  2  0  0  0  0
 13 23  1  0  0  0  0
 14 18  1  0  0  0  0
 15 18  2  0  0  0  0
 16 14  2  0  0  0  0
 17 19  2  0  0  0  0
 17 16  1  0  0  0  0
 19 15  1  0  0  0  0
 20 19  1  0  0  0  0
 20 21  1  0  0  0  0
 22 20  2  0  0  0  0
 23 24  1  0  0  0  0
 23 25  1  0  0  0  0
M  END
>  <MODEL>
6

>  <REMARK>
 VINA RESULT:      -4.5      1.539      2.649
  Name = 
  3 active torsions:
  status: ('A' for Active; 'I' for Inactive)
    1  A    between atoms: C_2  and  C_25
    2  A    between atoms: C_3  and  C_6
    3  A    between atoms: C_13  and  C_24
                            x       y       z     vdW  Elec       q    Type
                         _______ _______ _______ _____ _____    ______ ____

>  <TORSDO>
F 3

$$$$
=
 OpenBabel11052422213D

 25 28  0  0  1  0  0  0  0  0999 V2000
  161.5350  206.1480  150.1070 C   0  0  0  0  0  0  0  0  0  0  0  0
  162.1680  207.3410  150.7550 C   0  0  1  0  0  3  0  0  0  0  0  0
  160.9400  207.2790  148.0790 N   0  0  0  0  0  0  0  0  0  0  0  0
  161.4600  204.8830  150.4690 C   0  0  0  0  0  0  0  0  0  0  0  0
  160.9630  202.0890  150.6010 C   0  0  0  0  0  3  0  0  0  0  0  0
  161.5140  208.4920  148.6050 C   0  0  0  0  0  3  0  0  0  0  0  0
  160.8310  204.1590  149.3750 C   0  0  0  0  0  0  0  0  0  0  0  0
  160.6850  202.7060  149.4420 C   0  0  0  0  0  3  0  0  0  0  0  0
  161.3070  202.8510  151.8730 C   0  0  0  0  0  2  0  0  0  0  0  0
  160.9450  206.2020  148.7970 C   0  0  0  0  0  0  0  0  0  0  0  0
  160.5200  204.9120  148.3630 N   0  0  0  0  0  0  0  0  0  0  0  0
  162.0660  204.1730  151.6340 C   0  0  0  0  0  2  0  0  0  0  0  0
  162.0910  208.5570  149.8320 C   0  0  0  0  0  0  0  0  0  0  0  0
  161.5400  207.6210  152.0890 C   0  0  0  0  0  0  0  0  0  0  0  0
  159.9840  208.8500  153.4890 C   0  0  0  0  0  3  0  0  0  0  0  0
  161.9450  206.8790  153.2020 C   0  0  0  0  0  3  0  0  0  0  0  0
  161.3730  207.1200  154.4540 C   0  0  0  0  0  3  0  0  0  0  0  0
  160.5560  208.6100  152.2370 C   0  0  0  0  0  3  0  0  0  0  0  0
  160.3890  208.1070  154.6070 C   0  0  0  0  0  0  0  0  0  0  0  0
  159.7860  208.3600  155.9270 C   0  0  0  0  0  0  0  0  0  0  0  0
  159.7060  207.3200  156.8970 N   0  0  0  0  0  1  0  0  0  0  0  0
  159.3330  209.5010  156.2100 O   0  0  0  0  0  0  0  0  0  0  0  0
  162.7130  209.8410  150.3000 C   0  0  0  0  0  3  0  0  0  0  0  0
  162.7070  209.9390  151.8140 C   0  0  0  0  0  1  0  0  0  0  0  0
  162.0230  211.0470  149.6900 C   0  0  0  0  0  1  0  0  0  0  0  0
  1  4  2  0  0  0  0
  1  2  1  0  0  0  0
  2 14  1  1  0  0  0
  3  6  1  0  0  0  0
  3 10  2  0  0  0  0
  4 12  1  0  0  0  0
  5  9  1  0  0  0  0
  6 13  2  0  0  0  0
  7  8  1  0  0  0  0
  7  4  1  0  0  0  0
  8  5  2  0  0  0  0
 10  1  1  0  0  0  0
 11 10  1  0  0  0  0
 11  7  2  0  0  0  0
 12  9  1  0  0  0  0
 13 23  1  0  0  0  0
 13  2  1  0  0  0  0
 14 18  2  0  0  0  0
 14 16  1  0  0  0  0
 15 19  2  0  0  0  0
 16 17  2  0  0  0  0
 17 19  1  0  0  0  0
 18 15  1  0  0  0  0
 19 20  1  0  0  0  0
 20 22  2  0  0  0  0
 20 21  1  0  0  0  0
 23 24  1  0  0  0  0
 25 23  1  0  0  0  0
M  END
>  <MODEL>
7

>  <REMARK>
 VINA RESULT:      -4.5      3.670      7.620
  Name = 
  3 active torsions:
  status: ('A' for Active; 'I' for Inactive)
    1  A    between atoms: C_2  and  C_25
    2  A    between atoms: C_3  and  C_6
    3  A    between atoms: C_13  and  C_24
                            x       y       z     vdW  Elec       q    Type
                         _______ _______ _______ _____ _____    ______ ____

>  <TORSDO>
F 3

$$$$
=
 OpenBabel11052422213D

 25 28  0  0  1  0  0  0  0  0999 V2000
  161.3300  208.7590  153.0730 C   0  0  0  0  0  0  0  0  0  0  0  0
  160.9850  208.2740  151.6990 C   0  0  1  0  0  3  0  0  0  0  0  0
  162.9710  210.3490  152.3500 N   0  0  0  0  0  0  0  0  0  0  0  0
  160.8080  208.5020  154.2560 C   0  0  0  0  0  0  0  0  0  0  0  0
  160.1800  208.4420  157.0260 C   0  0  0  0  0  3  0  0  0  0  0  0
  162.7280  209.9550  150.9840 C   0  0  0  0  0  3  0  0  0  0  0  0
  161.4770  209.3660  155.2180 C   0  0  0  0  0  0  0  0  0  0  0  0
  161.0540  209.3750  156.6170 C   0  0  0  0  0  3  0  0  0  0  0  0
  159.7080  207.3110  156.1240 C   0  0  0  0  0  2  0  0  0  0  0  0
  162.3230  209.7710  153.3100 C   0  0  0  0  0  0  0  0  0  0  0  0
  162.3770  210.1370  154.6870 N   0  0  0  0  0  0  0  0  0  0  0  0
  159.6170  207.6860  154.6310 C   0  0  0  0  0  2  0  0  0  0  0  0
  161.8180  209.0060  150.6470 C   0  0  0  0  0  0  0  0  0  0  0  0
  161.1540  206.7860  151.5980 C   0  0  0  0  0  0  0  0  0  0  0  0
  162.1350  204.7030  152.3670 C   0  0  0  0  0  3  0  0  0  0  0  0
  160.4560  206.0860  150.6110 C   0  0  0  0  0  3  0  0  0  0  0  0
  160.5960  204.6990  150.5010 C   0  0  0  0  0  3  0  0  0  0  0  0
  161.9970  206.0880  152.4780 C   0  0  0  0  0  3  0  0  0  0  0  0
  161.4360  203.9980  151.3760 C   0  0  0  0  0  0  0  0  0  0  0  0
  161.5820  202.5360  151.2600 C   0  0  0  0  0  0  0  0  0  0  0  0
  160.8220  201.8090  150.3000 N   0  0  0  0  0  1  0  0  0  0  0  0
  162.3810  201.9160  152.0100 O   0  0  0  0  0  0  0  0  0  0  0  0
  161.5810  208.6770  149.2010 C   0  0  0  0  0  3  0  0  0  0  0  0
  162.6020  207.6800  148.6850 C   0  0  0  0  0  1  0  0  0  0  0  0
  161.5820  209.9270  148.3400 C   0  0  0  0  0  1  0  0  0  0  0  0
  1 10  1  0  0  0  0
  1  4  2  0  0  0  0
  2 14  1  1  0  0  0
  2  1  1  0  0  0  0
  3 10  2  0  0  0  0
  4 12  1  0  0  0  0
  4  7  1  0  0  0  0
  6  3  1  0  0  0  0
  7  8  1  0  0  0  0
  8  5  2  0  0  0  0
  9  5  1  0  0  0  0
 10 11  1  0  0  0  0
 11  7  2  0  0  0  0
 12  9  1  0  0  0  0
 13  6  2  0  0  0  0
 13  2  1  0  0  0  0
 14 18  1  0  0  0  0
 15 18  2  0  0  0  0
 16 14  2  0  0  0  0
 17 16  1  0  0  0  0
 17 19  2  0  0  0  0
 19 15  1  0  0  0  0
 20 19  1  0  0  0  0
 20 22  2  0  0  0  0
 21 20  1  0  0  0  0
 23 13  1  0  0  0  0
 24 23  1  0  0  0  0
 25 23  1  0  0  0  0
M  END
>  <MODEL>
8

>  <REMARK>
 VINA RESULT:      -4.4      3.659      5.735
  Name = 
  3 active torsions:
  status: ('A' for Active; 'I' for Inactive)
    1  A    between atoms: C_2  and  C_25
    2  A    between atoms: C_3  and  C_6
    3  A    between atoms: C_13  and  C_24
                            x       y       z     vdW  Elec       q    Type
                         _______ _______ _______ _____ _____    ______ ____

>  <TORSDO>
F 3

$$$$
=
 OpenBabel11052422213D

 25 28  0  0  1  0  0  0  0  0999 V2000
  161.4910  206.1150  151.7330 C   0  0  0  0  0  0  0  0  0  0  0  0
  161.9580  204.9490  150.9150 C   0  0  1  0  0  3  0  0  0  0  0  0
  160.2710  204.8030  153.3240 N   0  0  0  0  0  0  0  0  0  0  0  0
  161.7740  207.4010  151.6770 C   0  0  0  0  0  0  0  0  0  0  0  0
  161.9480  210.1970  152.1490 C   0  0  0  0  0  3  0  0  0  0  0  0
  160.6520  203.6100  152.6110 C   0  0  0  0  0  3  0  0  0  0  0  0
  161.1190  208.0350  152.8120 C   0  0  0  0  0  0  0  0  0  0  0  0
  161.3160  209.4590  153.0750 C   0  0  0  0  0  3  0  0  0  0  0  0
  162.3580  209.6370  150.7940 C   0  0  0  0  0  2  0  0  0  0  0  0
  160.6570  205.9610  152.8930 C   0  0  0  0  0  0  0  0  0  0  0  0
  160.4540  207.2050  153.5590 N   0  0  0  0  0  0  0  0  0  0  0  0
  162.7400  208.1430  150.8150 C   0  0  0  0  0  2  0  0  0  0  0  0
  161.4310  203.6390  151.4990 C   0  0  0  0  0  0  0  0  0  0  0  0
  161.5590  205.1120  149.4770 C   0  0  0  0  0  0  0  0  0  0  0  0
  160.3420  206.2730  147.7280 C   0  0  0  0  0  3  0  0  0  0  0  0
  162.0630  204.2210  148.5260 C   0  0  0  0  0  3  0  0  0  0  0  0
  161.7080  204.3540  147.1800 C   0  0  0  0  0  3  0  0  0  0  0  0
  160.6950  206.1410  149.0730 C   0  0  0  0  0  3  0  0  0  0  0  0
  160.8450  205.3790  146.7720 C   0  0  0  0  0  0  0  0  0  0  0  0
  160.4720  205.5200  145.3530 C   0  0  0  0  0  0  0  0  0  0  0  0
  160.5710  204.4090  144.4670 N   0  0  0  0  0  1  0  0  0  0  0  0
  160.0620  206.6260  144.9100 O   0  0  0  0  0  0  0  0  0  0  0  0
  161.8310  202.3550  150.8310 C   0  0  0  0  0  3  0  0  0  0  0  0
  160.6250  201.6290  150.2630 C   0  0  0  0  0  1  0  0  0  0  0  0
  162.5930  201.4480  151.7810 C   0  0  0  0  0  1  0  0  0  0  0  0
  1 10  1  0  0  0  0
  2 14  1  6  0  0  0
  2 13  1  0  0  0  0
  2  1  1  0  0  0  0
  4  1  2  0  0  0  0
  4  7  1  0  0  0  0
  5  8  2  0  0  0  0
  6  3  1  0  0  0  0
  7  8  1  0  0  0  0
  7 11  2  0  0  0  0
  9 12  1  0  0  0  0
  9  5  1  0  0  0  0
 10  3  2  0  0  0  0
 10 11  1  0  0  0  0
 12  4  1  0  0  0  0
 13  6  2  0  0  0  0
 15 18  2  0  0  0  0
 16 14  2  0  0  0  0
 17 16  1  0  0  0  0
 18 14  1  0  0  0  0
 19 17  2  0  0  0  0
 19 15  1  0  0  0  0
 20 19  1  0  0  0  0
 21 20  1  0  0  0  0
 22 20  2  0  0  0  0
 23 13  1  0  0  0  0
 23 25  1  0  0  0  0
 24 23  1  0  0  0  0
M  END
>  <MODEL>
9

>  <REMARK>
 VINA RESULT:      -4.3      3.761      6.770
  Name = 
  3 active torsions:
  status: ('A' for Active; 'I' for Inactive)
    1  A    between atoms: C_2  and  C_25
    2  A    between atoms: C_3  and  C_6
    3  A    between atoms: C_13  and  C_24
                            x       y       z     vdW  Elec       q    Type
                         _______ _______ _______ _____ _____    ______ ____

>  <TORSDO>
F 3

$$$$
