=
 OpenBabel11052421563D

 30 32  0  0  0  0  0  0  0  0999 V2000
  161.2370  205.1400  150.1760 C   0  0  0  0  0  3  0  0  0  0  0  0
  160.7440  202.8970  150.9690 C   0  0  0  0  0  0  0  0  0  0  0  0
  161.6930  203.7120  146.2360 C   0  0  0  0  0  3  0  0  0  0  0  0
  161.5640  206.0320  149.1490 C   0  0  0  0  0  0  0  0  0  0  0  0
  161.9920  204.6020  145.2030 C   0  0  0  0  0  3  0  0  0  0  0  0
  160.5810  201.5340  150.7110 C   0  0  0  0  0  3  0  0  0  0  0  0
  160.5850  203.3660  152.2690 O   0  0  0  0  0  1  0  0  0  0  0  0
  161.5430  204.1700  147.5570 C   0  0  0  0  0  0  0  0  0  0  0  0
  160.7350  201.0390  149.4160 C   0  0  0  0  0  3  0  0  0  0  0  0
  161.0670  203.7770  149.9220 C   0  0  0  0  0  0  0  0  0  0  0  0
  161.7080  205.5530  147.8320 C   0  0  0  0  0  0  0  0  0  0  0  0
  162.1440  205.9620  145.4750 C   0  0  0  0  0  3  0  0  0  0  0  0
  162.0010  206.4340  146.7800 C   0  0  0  0  0  3  0  0  0  0  0  0
  161.0550  201.9060  148.3690 C   0  0  0  0  0  3  0  0  0  0  0  0
  161.2250  203.2810  148.6050 C   0  0  0  0  0  0  0  0  0  0  0  0
  162.3050  209.0630  151.0480 O   0  0  0  0  0  0  0  0  0  0  0  0
  162.0790  207.8460  150.8070 C   0  0  0  0  0  0  0  0  0  0  0  0
  161.7570  207.4210  149.4670 N   0  0  0  0  0  0  0  0  0  0  0  0
  162.1150  206.8730  151.9390 C   0  0  0  0  0  2  0  0  0  0  0  0
  160.8420  206.9840  152.7570 C   0  0  0  0  0  2  0  0  0  0  0  0
  161.4710  207.2550  155.0370 O   0  0  0  0  0  1  0  0  0  0  0  0
  161.0950  207.8050  153.9700 C   0  0  0  0  0  0  0  0  0  0  0  0
  160.8860  209.1780  153.9340 O   0  0  0  0  0  0  0  0  0  0  0  0
  161.4890  208.4170  148.4360 C   0  0  0  0  0  2  0  0  0  0  0  0
  162.3040  209.6740  148.6950 C   0  0  0  0  0  2  0  0  0  0  0  0
  161.5460  210.8980  148.2170 C   0  0  0  0  0  2  0  0  0  0  0  0
  162.2950  212.1020  148.5400 N   0  0  0  0  0  2  0  0  0  0  0  0
  161.8230  213.1090  146.3250 N   0  0  0  0  0  1  0  0  0  0  0  0
  162.4280  213.1790  147.6130 C   0  0  0  0  0  0  0  0  0  0  0  0
  163.0860  214.2010  147.9380 O   0  0  0  0  0  0  0  0  0  0  0  0
  2  7  1  0  0  0  0
  3  8  1  0  0  0  0
  4 18  1  0  0  0  0
  4  1  2  0  0  0  0
  5 12  1  0  0  0  0
  5  3  2  0  0  0  0
  6  2  1  0  0  0  0
  8 11  2  0  0  0  0
  8 15  1  0  0  0  0
  9  6  2  0  0  0  0
 10  1  1  0  0  0  0
 10  2  2  0  0  0  0
 11  4  1  0  0  0  0
 12 13  2  0  0  0  0
 13 11  1  0  0  0  0
 14 15  2  0  0  0  0
 14  9  1  0  0  0  0
 15 10  1  0  0  0  0
 17 16  2  0  0  0  0
 17 19  1  0  0  0  0
 18 17  1  0  0  0  0
 19 20  1  0  0  0  0
 20 22  1  0  0  0  0
 22 21  1  0  0  0  0
 23 22  2  0  0  0  0
 24 25  1  0  0  0  0
 24 18  1  0  0  0  0
 26 27  1  0  0  0  0
 26 25  1  0  0  0  0
 28 29  1  0  0  0  0
 29 30  2  0  0  0  0
 29 27  1  0  0  0  0
M  END
>  <MODEL>
1

>  <REMARK>
 VINA RESULT:      -9.2      0.000      0.000
  Name = 
  8 active torsions:
  status: ('A' for Active; 'I' for Inactive)
    1  A    between atoms: C_4  and  N_13
    2  A    between atoms: N_7  and  C_16
    3  A    between atoms: C_8  and  C_12
    4  A    between atoms: C_9  and  C_12
    5  A    between atoms: C_9  and  C_17
    6  A    between atoms: N_13  and  C_27
    7  A    between atoms: C_16  and  C_30
    8  A    between atoms: C_27  and  C_30
                            x       y       z     vdW  Elec       q    Type
                         _______ _______ _______ _____ _____    ______ ____

>  <TORSDO>
F 8

$$$$
=
 OpenBabel11052421563D

 30 32  0  0  0  0  0  0  0  0999 V2000
  161.1090  208.1300  151.1350 C   0  0  0  0  0  3  0  0  0  0  0  0
  160.9870  205.8000  150.4560 C   0  0  0  0  0  0  0  0  0  0  0  0
  161.2130  207.0050  155.1950 C   0  0  0  0  0  3  0  0  0  0  0  0
  161.1800  209.1150  152.1240 C   0  0  0  0  0  0  0  0  0  0  0  0
  161.3100  207.9830  156.1870 C   0  0  0  0  0  3  0  0  0  0  0  0
  160.9350  204.4460  150.7940 C   0  0  0  0  0  3  0  0  0  0  0  0
  160.9610  206.1670  149.1150 O   0  0  0  0  0  1  0  0  0  0  0  0
  161.1710  207.3620  153.8360 C   0  0  0  0  0  0  0  0  0  0  0  0
  160.9590  204.0520  152.1320 C   0  0  0  0  0  3  0  0  0  0  0  0
  161.0630  206.7730  151.4660 C   0  0  0  0  0  0  0  0  0  0  0  0
  161.2220  208.7360  153.4810 C   0  0  0  0  0  0  0  0  0  0  0  0
  161.3700  209.3310  155.8340 C   0  0  0  0  0  3  0  0  0  0  0  0
  161.3280  209.7050  154.4900 C   0  0  0  0  0  3  0  0  0  0  0  0
  161.0360  205.0130  153.1430 C   0  0  0  0  0  3  0  0  0  0  0  0
  161.0880  206.3810  152.8270 C   0  0  0  0  0  0  0  0  0  0  0  0
  160.1770  212.6090  151.7680 O   0  0  0  0  0  0  0  0  0  0  0  0
  160.1120  211.3870  152.0690 C   0  0  0  0  0  0  0  0  0  0  0  0
  161.1960  210.4980  151.7320 N   0  0  0  0  0  0  0  0  0  0  0  0
  158.8780  210.8800  152.7410 C   0  0  0  0  0  2  0  0  0  0  0  0
  158.1920  212.0110  153.4840 C   0  0  0  0  0  2  0  0  0  0  0  0
  158.0090  210.7300  155.4810 O   0  0  0  0  0  1  0  0  0  0  0  0
  157.4330  211.4650  154.6390 C   0  0  0  0  0  0  0  0  0  0  0  0
  156.0770  211.7400  154.7710 O   0  0  0  0  0  0  0  0  0  0  0  0
  162.2720  210.9650  150.8640 C   0  0  0  0  0  2  0  0  0  0  0  0
  161.9090  210.7340  149.4060 C   0  0  0  0  0  2  0  0  0  0  0  0
  162.3560  211.9120  148.5620 C   0  0  0  0  0  2  0  0  0  0  0  0
  161.3830  212.9890  148.6610 N   0  0  0  0  0  2  0  0  0  0  0  0
  160.2390  212.2800  146.5790 N   0  0  0  0  0  1  0  0  0  0  0  0
  160.3510  213.1650  147.6900 C   0  0  0  0  0  0  0  0  0  0  0  0
  159.5310  214.1110  147.8190 O   0  0  0  0  0  0  0  0  0  0  0  0
  1 10  2  0  0  0  0
  1  4  1  0  0  0  0
  2  6  2  0  0  0  0
  2 10  1  0  0  0  0
  3  5  2  0  0  0  0
  4 11  2  0  0  0  0
  6  9  1  0  0  0  0
  7  2  1  0  0  0  0
  8  3  1  0  0  0  0
  9 14  2  0  0  0  0
 10 15  1  0  0  0  0
 11  8  1  0  0  0  0
 11 13  1  0  0  0  0
 12  5  1  0  0  0  0
 13 12  2  0  0  0  0
 15 14  1  0  0  0  0
 15  8  2  0  0  0  0
 16 17  2  0  0  0  0
 17 19  1  0  0  0  0
 18 17  1  0  0  0  0
 18  4  1  0  0  0  0
 19 20  1  0  0  0  0
 20 22  1  0  0  0  0
 22 23  2  0  0  0  0
 22 21  1  0  0  0  0
 24 18  1  0  0  0  0
 25 24  1  0  0  0  0
 26 27  1  0  0  0  0
 26 25  1  0  0  0  0
 28 29  1  0  0  0  0
 29 30  2  0  0  0  0
 29 27  1  0  0  0  0
M  END
>  <MODEL>
2

>  <REMARK>
 VINA RESULT:      -8.7      3.031      5.441
  Name = 
  8 active torsions:
  status: ('A' for Active; 'I' for Inactive)
    1  A    between atoms: C_4  and  N_13
    2  A    between atoms: N_7  and  C_16
    3  A    between atoms: C_8  and  C_12
    4  A    between atoms: C_9  and  C_12
    5  A    between atoms: C_9  and  C_17
    6  A    between atoms: N_13  and  C_27
    7  A    between atoms: C_16  and  C_30
    8  A    between atoms: C_27  and  C_30
                            x       y       z     vdW  Elec       q    Type
                         _______ _______ _______ _____ _____    ______ ____

>  <TORSDO>
F 8

$$$$
=
 OpenBabel11052421563D

 30 32  0  0  0  0  0  0  0  0999 V2000
  161.1530  208.7910  151.7860 C   0  0  0  0  0  3  0  0  0  0  0  0
  160.8800  209.5910  154.0640 C   0  0  0  0  0  0  0  0  0  0  0  0
  160.9810  204.7920  153.1040 C   0  0  0  0  0  3  0  0  0  0  0  0
  161.2690  207.7510  150.8590 C   0  0  0  0  0  0  0  0  0  0  0  0
  161.0690  203.7490  152.1800 C   0  0  0  0  0  3  0  0  0  0  0  0
  160.7220  209.3240  155.4260 C   0  0  0  0  0  3  0  0  0  0  0  0
  160.9280  210.9120  153.6320 O   0  0  0  0  0  1  0  0  0  0  0  0
  161.0420  206.1320  152.6830 C   0  0  0  0  0  0  0  0  0  0  0  0
  160.6710  208.0070  155.8850 C   0  0  0  0  0  3  0  0  0  0  0  0
  160.9900  208.5310  153.1490 C   0  0  0  0  0  0  0  0  0  0  0  0
  161.2040  206.4150  151.3020 C   0  0  0  0  0  0  0  0  0  0  0  0
  161.2180  204.0310  150.8220 C   0  0  0  0  0  3  0  0  0  0  0  0
  161.2830  205.3550  150.3850 C   0  0  0  0  0  3  0  0  0  0  0  0
  160.7780  206.9480  154.9820 C   0  0  0  0  0  3  0  0  0  0  0  0
  160.9380  207.1920  153.6080 C   0  0  0  0  0  0  0  0  0  0  0  0
  162.0940  209.6340  147.8400 O   0  0  0  0  0  0  0  0  0  0  0  0
  161.8680  209.3930  149.0560 C   0  0  0  0  0  0  0  0  0  0  0  0
  161.4660  208.0720  149.4710 N   0  0  0  0  0  0  0  0  0  0  0  0
  161.9890  210.5090  150.0410 C   0  0  0  0  0  2  0  0  0  0  0  0
  162.2380  211.8170  149.3130 C   0  0  0  0  0  2  0  0  0  0  0  0
  160.4740  212.7750  148.0360 O   0  0  0  0  0  0  0  0  0  0  0  0
  160.9620  212.5650  149.1760 C   0  0  0  0  0  0  0  0  0  0  0  0
  160.3230  213.0610  150.3060 O   0  0  0  0  0  1  0  0  0  0  0  0
  161.1200  207.0720  148.4670 C   0  0  0  0  0  2  0  0  0  0  0  0
  162.3620  206.6440  147.7020 C   0  0  0  0  0  2  0  0  0  0  0  0
  161.9710  206.0050  146.3830 C   0  0  0  0  0  2  0  0  0  0  0  0
  161.8760  204.5630  146.5400 N   0  0  0  0  0  2  0  0  0  0  0  0
  160.6270  204.3130  144.4140 N   0  0  0  0  0  1  0  0  0  0  0  0
  161.2180  203.7400  145.5760 C   0  0  0  0  0  0  0  0  0  0  0  0
  161.1620  202.4960  145.7550 O   0  0  0  0  0  0  0  0  0  0  0  0
  1 10  1  0  0  0  0
  2  6  1  0  0  0  0
  4 11  1  0  0  0  0
  4  1  2  0  0  0  0
  5  3  2  0  0  0  0
  6  9  2  0  0  0  0
  7  2  1  0  0  0  0
  8  3  1  0  0  0  0
  8 15  1  0  0  0  0
 10 15  1  0  0  0  0
 10  2  2  0  0  0  0
 11  8  2  0  0  0  0
 12  5  1  0  0  0  0
 13 12  2  0  0  0  0
 13 11  1  0  0  0  0
 14  9  1  0  0  0  0
 15 14  2  0  0  0  0
 16 17  2  0  0  0  0
 17 18  1  0  0  0  0
 17 19  1  0  0  0  0
 18  4  1  0  0  0  0
 20 19  1  0  0  0  0
 21 22  2  0  0  0  0
 22 20  1  0  0  0  0
 22 23  1  0  0  0  0
 24 18  1  0  0  0  0
 25 24  1  0  0  0  0
 26 27  1  0  0  0  0
 26 25  1  0  0  0  0
 28 29  1  0  0  0  0
 29 30  2  0  0  0  0
 29 27  1  0  0  0  0
M  END
>  <MODEL>
3

>  <REMARK>
 VINA RESULT:      -8.5      2.552      6.558
  Name = 
  8 active torsions:
  status: ('A' for Active; 'I' for Inactive)
    1  A    between atoms: C_4  and  N_13
    2  A    between atoms: N_7  and  C_16
    3  A    between atoms: C_8  and  C_12
    4  A    between atoms: C_9  and  C_12
    5  A    between atoms: C_9  and  C_17
    6  A    between atoms: N_13  and  C_27
    7  A    between atoms: C_16  and  C_30
    8  A    between atoms: C_27  and  C_30
                            x       y       z     vdW  Elec       q    Type
                         _______ _______ _______ _____ _____    ______ ____

>  <TORSDO>
F 8

$$$$
=
 OpenBabel11052421563D

 30 32  0  0  0  0  0  0  0  0999 V2000
  161.7250  206.1540  148.5620 C   0  0  0  0  0  3  0  0  0  0  0  0
  161.7500  205.3550  146.2670 C   0  0  0  0  0  0  0  0  0  0  0  0
  160.8300  202.2820  149.9660 C   0  0  0  0  0  3  0  0  0  0  0  0
  161.5630  205.9350  149.9330 C   0  0  0  0  0  0  0  0  0  0  0  0
  160.6930  202.0520  151.3360 C   0  0  0  0  0  3  0  0  0  0  0  0
  161.6040  204.3100  145.3520 C   0  0  0  0  0  3  0  0  0  0  0  0
  162.0530  206.6290  145.8010 O   0  0  0  0  0  1  0  0  0  0  0  0
  161.1230  203.5680  149.4790 C   0  0  0  0  0  0  0  0  0  0  0  0
  161.2990  203.0220  145.7940 C   0  0  0  0  0  3  0  0  0  0  0  0
  161.5870  205.1120  147.6420 C   0  0  0  0  0  0  0  0  0  0  0  0
  161.2710  204.6380  150.4000 C   0  0  0  0  0  0  0  0  0  0  0  0
  160.8500  203.1030  152.2390 C   0  0  0  0  0  3  0  0  0  0  0  0
  161.1380  204.3870  151.7750 C   0  0  0  0  0  3  0  0  0  0  0  0
  161.1380  202.7720  147.1580 C   0  0  0  0  0  3  0  0  0  0  0  0
  161.2780  203.8070  148.0980 C   0  0  0  0  0  0  0  0  0  0  0  0
  161.7040  209.3650  151.1780 O   0  0  0  0  0  0  0  0  0  0  0  0
  161.6560  208.4070  150.3610 C   0  0  0  0  0  0  0  0  0  0  0  0
  161.6870  207.0460  150.8370 N   0  0  0  0  0  0  0  0  0  0  0  0
  161.6050  208.7140  148.9000 C   0  0  0  0  0  2  0  0  0  0  0  0
  162.5260  209.8780  148.5840 C   0  0  0  0  0  2  0  0  0  0  0  0
  161.6920  211.9690  149.3580 O   0  0  0  0  0  1  0  0  0  0  0  0
  161.7270  211.1210  148.4290 C   0  0  0  0  0  0  0  0  0  0  0  0
  160.9900  211.3330  147.2700 O   0  0  0  0  0  0  0  0  0  0  0  0
  161.9820  206.7760  152.2400 C   0  0  0  0  0  2  0  0  0  0  0  0
  160.8410  207.2620  153.1200 C   0  0  0  0  0  2  0  0  0  0  0  0
  161.3260  207.4650  154.5420 C   0  0  0  0  0  2  0  0  0  0  0  0
  160.3510  208.2400  155.2920 N   0  0  0  0  0  2  0  0  0  0  0  0
  161.5260  210.3690  154.8140 N   0  0  0  0  0  1  0  0  0  0  0  0
  160.4520  209.6580  155.4230 C   0  0  0  0  0  0  0  0  0  0  0  0
  159.5830  210.2860  156.0810 O   0  0  0  0  0  0  0  0  0  0  0  0
  1  4  1  0  0  0  0
  2 10  1  0  0  0  0
  3  5  2  0  0  0  0
  4 11  2  0  0  0  0
  4 18  1  0  0  0  0
  5 12  1  0  0  0  0
  6  9  1  0  0  0  0
  6  2  2  0  0  0  0
  7  2  1  0  0  0  0
  8  3  1  0  0  0  0
  8 11  1  0  0  0  0
  9 14  2  0  0  0  0
 10 15  1  0  0  0  0
 10  1  2  0  0  0  0
 11 13  1  0  0  0  0
 13 12  2  0  0  0  0
 14 15  1  0  0  0  0
 15  8  2  0  0  0  0
 17 18  1  0  0  0  0
 17 16  2  0  0  0  0
 18 24  1  0  0  0  0
 19 17  1  0  0  0  0
 20 19  1  0  0  0  0
 22 20  1  0  0  0  0
 22 21  1  0  0  0  0
 23 22  2  0  0  0  0
 24 25  1  0  0  0  0
 25 26  1  0  0  0  0
 26 27  1  0  0  0  0
 27 29  1  0  0  0  0
 28 29  1  0  0  0  0
 29 30  2  0  0  0  0
M  END
>  <MODEL>
4

>  <REMARK>
 VINA RESULT:      -8.4      2.440      5.523
  Name = 
  8 active torsions:
  status: ('A' for Active; 'I' for Inactive)
    1  A    between atoms: C_4  and  N_13
    2  A    between atoms: N_7  and  C_16
    3  A    between atoms: C_8  and  C_12
    4  A    between atoms: C_9  and  C_12
    5  A    between atoms: C_9  and  C_17
    6  A    between atoms: N_13  and  C_27
    7  A    between atoms: C_16  and  C_30
    8  A    between atoms: C_27  and  C_30
                            x       y       z     vdW  Elec       q    Type
                         _______ _______ _______ _____ _____    ______ ____

>  <TORSDO>
F 8

$$$$
=
 OpenBabel11052421563D

 30 32  0  0  0  0  0  0  0  0999 V2000
  161.2960  206.0120  151.2530 C   0  0  0  0  0  3  0  0  0  0  0  0
  160.9550  206.1880  153.6520 C   0  0  0  0  0  0  0  0  0  0  0  0
  161.7010  210.1950  150.9410 C   0  0  0  0  0  3  0  0  0  0  0  0
  161.5250  206.5940  150.0020 C   0  0  0  0  0  0  0  0  0  0  0  0
  161.9560  210.7800  149.6990 C   0  0  0  0  0  3  0  0  0  0  0  0
  160.8440  206.9750  154.8010 C   0  0  0  0  0  3  0  0  0  0  0  0
  160.8290  204.8070  153.7600 O   0  0  0  0  0  1  0  0  0  0  0  0
  161.5580  208.8020  151.0630 C   0  0  0  0  0  0  0  0  0  0  0  0
  160.9660  208.3630  154.7190 C   0  0  0  0  0  3  0  0  0  0  0  0
  161.1900  206.7930  152.4060 C   0  0  0  0  0  0  0  0  0  0  0  0
  161.6670  207.9920  149.9020 C   0  0  0  0  0  0  0  0  0  0  0  0
  162.0730  209.9810  148.5620 C   0  0  0  0  0  3  0  0  0  0  0  0
  161.9310  208.5960  148.6630 C   0  0  0  0  0  3  0  0  0  0  0  0
  161.2010  208.9720  153.4840 C   0  0  0  0  0  3  0  0  0  0  0  0
  161.3150  208.2010  152.3160 C   0  0  0  0  0  0  0  0  0  0  0  0
  161.0990  203.7010  147.8130 O   0  0  0  0  0  0  0  0  0  0  0  0
  161.0810  204.4020  148.8600 C   0  0  0  0  0  0  0  0  0  0  0  0
  161.5970  205.7480  148.8420 N   0  0  0  0  0  0  0  0  0  0  0  0
  160.5500  203.7950  150.1180 C   0  0  0  0  0  2  0  0  0  0  0  0
  161.1800  202.4330  150.3410 C   0  0  0  0  0  2  0  0  0  0  0  0
  159.2720  201.3290  149.4450 O   0  0  0  0  0  1  0  0  0  0  0  0
  160.5260  201.4290  149.4630 C   0  0  0  0  0  0  0  0  0  0  0  0
  161.3010  200.5760  148.6860 O   0  0  0  0  0  0  0  0  0  0  0  0
  162.3280  206.2270  147.6730 C   0  0  0  0  0  2  0  0  0  0  0  0
  163.0800  205.0790  147.0170 C   0  0  0  0  0  2  0  0  0  0  0  0
  163.0590  205.2350  145.5080 C   0  0  0  0  0  2  0  0  0  0  0  0
  162.0720  204.3360  144.9310 N   0  0  0  0  0  2  0  0  0  0  0  0
  160.3370  206.1050  144.8940 N   0  0  0  0  0  1  0  0  0  0  0  0
  160.7440  204.7650  144.6330 C   0  0  0  0  0  0  0  0  0  0  0  0
  159.9250  203.9510  144.1330 O   0  0  0  0  0  0  0  0  0  0  0  0
  1 10  1  0  0  0  0
  2  7  1  0  0  0  0
  2  6  1  0  0  0  0
  3  8  1  0  0  0  0
  4  1  2  0  0  0  0
  5  3  2  0  0  0  0
  8 15  1  0  0  0  0
  9  6  2  0  0  0  0
 10  2  2  0  0  0  0
 11  4  1  0  0  0  0
 11  8  2  0  0  0  0
 12 13  2  0  0  0  0
 12  5  1  0  0  0  0
 13 11  1  0  0  0  0
 14  9  1  0  0  0  0
 15 10  1  0  0  0  0
 15 14  2  0  0  0  0
 16 17  2  0  0  0  0
 17 19  1  0  0  0  0
 18 17  1  0  0  0  0
 18  4  1  0  0  0  0
 19 20  1  0  0  0  0
 21 22  1  0  0  0  0
 22 20  1  0  0  0  0
 23 22  2  0  0  0  0
 24 18  1  0  0  0  0
 25 24  1  0  0  0  0
 26 25  1  0  0  0  0
 27 26  1  0  0  0  0
 29 28  1  0  0  0  0
 29 27  1  0  0  0  0
 30 29  2  0  0  0  0
M  END
>  <MODEL>
5

>  <REMARK>
 VINA RESULT:      -8.3      3.193      6.406
  Name = 
  8 active torsions:
  status: ('A' for Active; 'I' for Inactive)
    1  A    between atoms: C_4  and  N_13
    2  A    between atoms: N_7  and  C_16
    3  A    between atoms: C_8  and  C_12
    4  A    between atoms: C_9  and  C_12
    5  A    between atoms: C_9  and  C_17
    6  A    between atoms: N_13  and  C_27
    7  A    between atoms: C_16  and  C_30
    8  A    between atoms: C_27  and  C_30
                            x       y       z     vdW  Elec       q    Type
                         _______ _______ _______ _____ _____    ______ ____

>  <TORSDO>
F 8

$$$$
=
 OpenBabel11052421563D

 30 32  0  0  0  0  0  0  0  0999 V2000
  161.4610  204.6100  148.5040 C   0  0  0  0  0  3  0  0  0  0  0  0
  161.2050  202.2920  147.8210 C   0  0  0  0  0  0  0  0  0  0  0  0
  160.7970  203.5610  152.5320 C   0  0  0  0  0  3  0  0  0  0  0  0
  161.4760  205.6020  149.4890 C   0  0  0  0  0  0  0  0  0  0  0  0
  160.8370  204.5440  153.5230 C   0  0  0  0  0  3  0  0  0  0  0  0
  160.9580  200.9570  148.1510 C   0  0  0  0  0  3  0  0  0  0  0  0
  161.4320  202.6330  146.4920 O   0  0  0  0  0  1  0  0  0  0  0  0
  161.0110  203.8940  151.1820 C   0  0  0  0  0  0  0  0  0  0  0  0
  160.7270  200.5890  149.4770 C   0  0  0  0  0  3  0  0  0  0  0  0
  161.2200  203.2720  148.8280 C   0  0  0  0  0  0  0  0  0  0  0  0
  161.2610  205.2470  150.8360 C   0  0  0  0  0  0  0  0  0  0  0  0
  161.0940  205.8710  153.1800 C   0  0  0  0  0  3  0  0  0  0  0  0
  161.3060  206.2210  151.8460 C   0  0  0  0  0  3  0  0  0  0  0  0
  160.7420  201.5570  150.4830 C   0  0  0  0  0  3  0  0  0  0  0  0
  160.9870  202.9060  150.1760 C   0  0  0  0  0  0  0  0  0  0  0  0
  161.4460  208.6710  147.5100 O   0  0  0  0  0  0  0  0  0  0  0  0
  161.2950  207.4550  147.8050 C   0  0  0  0  0  0  0  0  0  0  0  0
  161.7000  206.9680  149.1000 N   0  0  0  0  0  0  0  0  0  0  0  0
  160.7290  206.5340  146.7740 C   0  0  0  0  0  2  0  0  0  0  0  0
  161.7880  206.2010  145.7400 C   0  0  0  0  0  2  0  0  0  0  0  0
  161.5850  205.8270  143.3980 O   0  0  0  0  0  0  0  0  0  0  0  0
  161.1500  205.5780  144.5520 C   0  0  0  0  0  0  0  0  0  0  0  0
  160.0500  204.7440  144.7130 O   0  0  0  0  0  1  0  0  0  0  0  0
  162.4690  207.8300  149.9900 C   0  0  0  0  0  2  0  0  0  0  0  0
  161.6190  209.0050  150.4480 C   0  0  0  0  0  2  0  0  0  0  0  0
  162.2870  209.7150  151.6100 C   0  0  0  0  0  2  0  0  0  0  0  0
  161.3470  210.6270  152.2410 N   0  0  0  0  0  2  0  0  0  0  0  0
  161.5000  209.4410  154.4110 N   0  0  0  0  0  1  0  0  0  0  0  0
  160.9640  210.4890  153.6090 C   0  0  0  0  0  0  0  0  0  0  0  0
  160.1480  211.3040  154.1110 O   0  0  0  0  0  0  0  0  0  0  0  0
  1 10  2  0  0  0  0
  1  4  1  0  0  0  0
  2  6  2  0  0  0  0
  2 10  1  0  0  0  0
  3  5  2  0  0  0  0
  4 11  2  0  0  0  0
  6  9  1  0  0  0  0
  7  2  1  0  0  0  0
  8  3  1  0  0  0  0
  9 14  2  0  0  0  0
 10 15  1  0  0  0  0
 11  8  1  0  0  0  0
 11 13  1  0  0  0  0
 12  5  1  0  0  0  0
 13 12  2  0  0  0  0
 15 14  1  0  0  0  0
 15  8  2  0  0  0  0
 16 17  2  0  0  0  0
 17 18  1  0  0  0  0
 18  4  1  0  0  0  0
 18 24  1  0  0  0  0
 19 17  1  0  0  0  0
 20 19  1  0  0  0  0
 21 22  2  0  0  0  0
 22 23  1  0  0  0  0
 22 20  1  0  0  0  0
 24 25  1  0  0  0  0
 25 26  1  0  0  0  0
 26 27  1  0  0  0  0
 27 29  1  0  0  0  0
 29 30  2  0  0  0  0
 29 28  1  0  0  0  0
M  END
>  <MODEL>
6

>  <REMARK>
 VINA RESULT:      -8.3      2.968      5.604
  Name = 
  8 active torsions:
  status: ('A' for Active; 'I' for Inactive)
    1  A    between atoms: C_4  and  N_13
    2  A    between atoms: N_7  and  C_16
    3  A    between atoms: C_8  and  C_12
    4  A    between atoms: C_9  and  C_12
    5  A    between atoms: C_9  and  C_17
    6  A    between atoms: N_13  and  C_27
    7  A    between atoms: C_16  and  C_30
    8  A    between atoms: C_27  and  C_30
                            x       y       z     vdW  Elec       q    Type
                         _______ _______ _______ _____ _____    ______ ____

>  <TORSDO>
F 8

$$$$
=
 OpenBabel11052421563D

 30 32  0  0  0  0  0  0  0  0999 V2000
  161.6450  206.6110  148.6630 C   0  0  0  0  0  3  0  0  0  0  0  0
  161.6600  205.5000  146.5030 C   0  0  0  0  0  0  0  0  0  0  0  0
  160.8560  202.9560  150.6080 C   0  0  0  0  0  3  0  0  0  0  0  0
  161.5040  206.5840  150.0540 C   0  0  0  0  0  0  0  0  0  0  0  0
  160.7410  202.9180  151.9990 C   0  0  0  0  0  3  0  0  0  0  0  0
  161.5270  204.3340  145.7450 C   0  0  0  0  0  3  0  0  0  0  0  0
  161.9280  206.7020  145.8590 O   0  0  0  0  0  1  0  0  0  0  0  0
  161.1130  204.1680  149.9420 C   0  0  0  0  0  0  0  0  0  0  0  0
  161.2580  203.1150  146.3680 C   0  0  0  0  0  3  0  0  0  0  0  0
  161.5200  205.4480  147.9000 C   0  0  0  0  0  0  0  0  0  0  0  0
  161.2480  205.3590  150.7030 C   0  0  0  0  0  0  0  0  0  0  0  0
  160.8840  204.0880  152.7440 C   0  0  0  0  0  3  0  0  0  0  0  0
  161.1370  205.3010  152.1010 C   0  0  0  0  0  3  0  0  0  0  0  0
  161.1180  203.0540  147.7560 C   0  0  0  0  0  3  0  0  0  0  0  0
  161.2460  204.2140  148.5390 C   0  0  0  0  0  0  0  0  0  0  0  0
  161.8130  210.1490  150.7840 O   0  0  0  0  0  0  0  0  0  0  0  0
  161.7820  209.0780  150.1200 C   0  0  0  0  0  0  0  0  0  0  0  0
  161.6140  207.8130  150.7920 N   0  0  0  0  0  0  0  0  0  0  0  0
  161.9610  209.1490  148.6390 C   0  0  0  0  0  2  0  0  0  0  0  0
  162.5660  210.4870  148.2550 C   0  0  0  0  0  2  0  0  0  0  0  0
  160.7590  211.5210  147.1010 O   0  0  0  0  0  0  0  0  0  0  0  0
  161.4900  211.5040  148.1240 C   0  0  0  0  0  0  0  0  0  0  0  0
  161.3140  212.4570  149.1190 O   0  0  0  0  0  1  0  0  0  0  0  0
  161.6870  207.7510  152.2470 C   0  0  0  0  0  2  0  0  0  0  0  0
  160.5790  208.5890  152.8650 C   0  0  0  0  0  2  0  0  0  0  0  0
  160.9220  208.9310  154.3030 C   0  0  0  0  0  2  0  0  0  0  0  0
  160.2510  208.0090  155.2050 N   0  0  0  0  0  2  0  0  0  0  0  0
  161.9650  208.3260  156.9650 N   0  0  0  0  0  1  0  0  0  0  0  0
  160.7640  207.7150  156.5040 C   0  0  0  0  0  0  0  0  0  0  0  0
  160.1470  206.9110  157.2490 O   0  0  0  0  0  0  0  0  0  0  0  0
  1  4  1  0  0  0  0
  2 10  1  0  0  0  0
  3  5  2  0  0  0  0
  4 11  2  0  0  0  0
  4 18  1  0  0  0  0
  5 12  1  0  0  0  0
  6  9  1  0  0  0  0
  6  2  2  0  0  0  0
  7  2  1  0  0  0  0
  8  3  1  0  0  0  0
  8 11  1  0  0  0  0
  9 14  2  0  0  0  0
 10 15  1  0  0  0  0
 10  1  2  0  0  0  0
 11 13  1  0  0  0  0
 13 12  2  0  0  0  0
 14 15  1  0  0  0  0
 15  8  2  0  0  0  0
 17 16  2  0  0  0  0
 17 18  1  0  0  0  0
 18 24  1  0  0  0  0
 19 17  1  0  0  0  0
 20 19  1  0  0  0  0
 21 22  2  0  0  0  0
 22 20  1  0  0  0  0
 22 23  1  0  0  0  0
 24 25  1  0  0  0  0
 25 26  1  0  0  0  0
 26 27  1  0  0  0  0
 27 29  1  0  0  0  0
 29 28  1  0  0  0  0
 29 30  2  0  0  0  0
M  END
>  <MODEL>
7

>  <REMARK>
 VINA RESULT:      -8.2      2.493      5.995
  Name = 
  8 active torsions:
  status: ('A' for Active; 'I' for Inactive)
    1  A    between atoms: C_4  and  N_13
    2  A    between atoms: N_7  and  C_16
    3  A    between atoms: C_8  and  C_12
    4  A    between atoms: C_9  and  C_12
    5  A    between atoms: C_9  and  C_17
    6  A    between atoms: N_13  and  C_27
    7  A    between atoms: C_16  and  C_30
    8  A    between atoms: C_27  and  C_30
                            x       y       z     vdW  Elec       q    Type
                         _______ _______ _______ _____ _____    ______ ____

>  <TORSDO>
F 8

$$$$
=
 OpenBabel11052421563D

 30 32  0  0  0  0  0  0  0  0999 V2000
  161.3730  204.6000  148.5570 C   0  0  0  0  0  3  0  0  0  0  0  0
  161.1080  202.1900  148.3990 C   0  0  0  0  0  0  0  0  0  0  0  0
  161.0990  204.4160  152.7590 C   0  0  0  0  0  3  0  0  0  0  0  0
  161.4540  205.7760  149.3090 C   0  0  0  0  0  0  0  0  0  0  0  0
  161.2060  205.5840  153.5160 C   0  0  0  0  0  3  0  0  0  0  0  0
  160.9220  200.9530  149.0200 C   0  0  0  0  0  3  0  0  0  0  0  0
  161.2070  202.2460  147.0130 O   0  0  0  0  0  1  0  0  0  0  0  0
  161.1820  204.4590  151.3560 C   0  0  0  0  0  0  0  0  0  0  0  0
  160.8200  200.8700  150.4090 C   0  0  0  0  0  3  0  0  0  0  0  0
  161.1920  203.3590  149.1730 C   0  0  0  0  0  0  0  0  0  0  0  0
  161.3690  205.7110  150.7140 C   0  0  0  0  0  0  0  0  0  0  0  0
  161.4010  206.8110  152.8830 C   0  0  0  0  0  3  0  0  0  0  0  0
  161.4840  206.8740  151.4910 C   0  0  0  0  0  3  0  0  0  0  0  0
  160.9040  202.0270  151.1870 C   0  0  0  0  0  3  0  0  0  0  0  0
  161.0900  203.2830  150.5840 C   0  0  0  0  0  0  0  0  0  0  0  0
  161.0300  208.4320  146.8370 O   0  0  0  0  0  0  0  0  0  0  0  0
  160.9260  207.3020  147.3850 C   0  0  0  0  0  0  0  0  0  0  0  0
  161.6110  207.0320  148.6250 N   0  0  0  0  0  0  0  0  0  0  0  0
  160.1140  206.2480  146.7060 C   0  0  0  0  0  2  0  0  0  0  0  0
  160.4570  206.2040  145.2280 C   0  0  0  0  0  2  0  0  0  0  0  0
  160.4040  203.9470  144.4760 O   0  0  0  0  0  0  0  0  0  0  0  0
  161.1000  204.9050  144.9020 C   0  0  0  0  0  0  0  0  0  0  0  0
  162.4650  204.7370  145.0990 O   0  0  0  0  0  1  0  0  0  0  0  0
  162.5860  207.9880  149.1360 C   0  0  0  0  0  2  0  0  0  0  0  0
  161.8840  209.2480  149.6180 C   0  0  0  0  0  2  0  0  0  0  0  0
  162.3300  210.4430  148.7960 C   0  0  0  0  0  2  0  0  0  0  0  0
  161.7870  211.6660  149.3650 N   0  0  0  0  0  2  0  0  0  0  0  0
  161.5840  212.7310  147.1370 N   0  0  0  0  0  1  0  0  0  0  0  0
  161.4240  212.7810  148.5520 C   0  0  0  0  0  0  0  0  0  0  0  0
  160.9580  213.8180  149.0900 O   0  0  0  0  0  0  0  0  0  0  0  0
  1 10  2  0  0  0  0
  1  4  1  0  0  0  0
  2  6  2  0  0  0  0
  2 10  1  0  0  0  0
  3  5  2  0  0  0  0
  4 11  2  0  0  0  0
  6  9  1  0  0  0  0
  7  2  1  0  0  0  0
  8  3  1  0  0  0  0
  9 14  2  0  0  0  0
 10 15  1  0  0  0  0
 11  8  1  0  0  0  0
 11 13  1  0  0  0  0
 12  5  1  0  0  0  0
 13 12  2  0  0  0  0
 15 14  1  0  0  0  0
 15  8  2  0  0  0  0
 16 17  2  0  0  0  0
 17 18  1  0  0  0  0
 18 24  1  0  0  0  0
 18  4  1  0  0  0  0
 19 17  1  0  0  0  0
 20 19  1  0  0  0  0
 21 22  2  0  0  0  0
 22 23  1  0  0  0  0
 22 20  1  0  0  0  0
 24 25  1  0  0  0  0
 26 27  1  0  0  0  0
 26 25  1  0  0  0  0
 28 29  1  0  0  0  0
 29 30  2  0  0  0  0
 29 27  1  0  0  0  0
M  END
>  <MODEL>
8

>  <REMARK>
 VINA RESULT:      -8.2      2.607      4.914
  Name = 
  8 active torsions:
  status: ('A' for Active; 'I' for Inactive)
    1  A    between atoms: C_4  and  N_13
    2  A    between atoms: N_7  and  C_16
    3  A    between atoms: C_8  and  C_12
    4  A    between atoms: C_9  and  C_12
    5  A    between atoms: C_9  and  C_17
    6  A    between atoms: N_13  and  C_27
    7  A    between atoms: C_16  and  C_30
    8  A    between atoms: C_27  and  C_30
                            x       y       z     vdW  Elec       q    Type
                         _______ _______ _______ _____ _____    ______ ____

>  <TORSDO>
F 8

$$$$
=
 OpenBabel11052421563D

 30 32  0  0  0  0  0  0  0  0999 V2000
  161.2300  207.7560  153.0590 C   0  0  0  0  0  3  0  0  0  0  0  0
  161.0360  205.3900  152.5420 C   0  0  0  0  0  0  0  0  0  0  0  0
  161.8280  208.6600  148.9860 C   0  0  0  0  0  3  0  0  0  0  0  0
  161.4290  209.0830  152.6660 C   0  0  0  0  0  0  0  0  0  0  0  0
  162.0010  209.9860  148.5850 C   0  0  0  0  0  3  0  0  0  0  0  0
  161.0470  204.3550  151.6040 C   0  0  0  0  0  3  0  0  0  0  0  0
  160.8300  205.0880  153.8840 O   0  0  0  0  0  1  0  0  0  0  0  0
  161.6330  208.3400  150.3410 C   0  0  0  0  0  0  0  0  0  0  0  0
  161.2520  204.6310  150.2520 C   0  0  0  0  0  3  0  0  0  0  0  0
  161.2340  206.7170  152.1250 C   0  0  0  0  0  0  0  0  0  0  0  0
  161.6220  209.3830  151.3030 C   0  0  0  0  0  0  0  0  0  0  0  0
  161.9790  211.0100  149.5310 C   0  0  0  0  0  3  0  0  0  0  0  0
  161.7890  210.7110  150.8810 C   0  0  0  0  0  3  0  0  0  0  0  0
  161.4470  205.9470  149.8290 C   0  0  0  0  0  3  0  0  0  0  0  0
  161.4420  207.0040  150.7540 C   0  0  0  0  0  0  0  0  0  0  0  0
  160.3410  211.8650  154.7680 O   0  0  0  0  0  0  0  0  0  0  0  0
  160.3310  211.0120  153.8410 C   0  0  0  0  0  0  0  0  0  0  0  0
  161.4450  210.1130  153.6700 N   0  0  0  0  0  0  0  0  0  0  0  0
  159.1630  210.9810  152.9090 C   0  0  0  0  0  2  0  0  0  0  0  0
  158.3080  212.2170  153.1110 C   0  0  0  0  0  2  0  0  0  0  0  0
  157.4360  213.5880  151.3720 O   0  0  0  0  0  0  0  0  0  0  0  0
  158.4560  213.1250  151.9440 C   0  0  0  0  0  0  0  0  0  0  0  0
  159.7220  213.4370  151.4650 O   0  0  0  0  0  1  0  0  0  0  0  0
  162.6700  210.3250  154.4340 C   0  0  0  0  0  2  0  0  0  0  0  0
  162.3370  210.7920  155.8420 C   0  0  0  0  0  2  0  0  0  0  0  0
  162.6710  209.7050  156.8470 C   0  0  0  0  0  2  0  0  0  0  0  0
  161.9580  208.4830  156.5090 N   0  0  0  0  0  2  0  0  0  0  0  0
  159.7910  209.4210  157.2610 N   0  0  0  0  0  1  0  0  0  0  0  0
  160.5520  208.3480  156.7130 C   0  0  0  0  0  0  0  0  0  0  0  0
  159.9790  207.2710  156.4050 O   0  0  0  0  0  0  0  0  0  0  0  0
  2  7  1  0  0  0  0
  3  8  1  0  0  0  0
  4  1  1  0  0  0  0
  4 18  1  0  0  0  0
  5  3  2  0  0  0  0
  5 12  1  0  0  0  0
  6  2  2  0  0  0  0
  8 15  2  0  0  0  0
  8 11  1  0  0  0  0
  9  6  1  0  0  0  0
 10  2  1  0  0  0  0
 10  1  2  0  0  0  0
 11  4  2  0  0  0  0
 12 13  2  0  0  0  0
 13 11  1  0  0  0  0
 14  9  2  0  0  0  0
 14 15  1  0  0  0  0
 15 10  1  0  0  0  0
 17 16  2  0  0  0  0
 18 17  1  0  0  0  0
 18 24  1  0  0  0  0
 19 20  1  0  0  0  0
 19 17  1  0  0  0  0
 21 22  2  0  0  0  0
 22 20  1  0  0  0  0
 23 22  1  0  0  0  0
 24 25  1  0  0  0  0
 25 26  1  0  0  0  0
 27 29  1  0  0  0  0
 27 26  1  0  0  0  0
 29 28  1  0  0  0  0
 30 29  2  0  0  0  0
M  END
>  <MODEL>
9

>  <REMARK>
 VINA RESULT:      -8.2      3.542      6.371
  Name = 
  8 active torsions:
  status: ('A' for Active; 'I' for Inactive)
    1  A    between atoms: C_4  and  N_13
    2  A    between atoms: N_7  and  C_16
    3  A    between atoms: C_8  and  C_12
    4  A    between atoms: C_9  and  C_12
    5  A    between atoms: C_9  and  C_17
    6  A    between atoms: N_13  and  C_27
    7  A    between atoms: C_16  and  C_30
    8  A    between atoms: C_27  and  C_30
                            x       y       z     vdW  Elec       q    Type
                         _______ _______ _______ _____ _____    ______ ____

>  <TORSDO>
F 8

$$$$
