=
 OpenBabel11062410543D

 32 36  0  0  1  0  0  0  0  0999 V2000
  160.4430  209.1560  154.8550 C   0  0  0  0  0  0  0  0  0  0  0  0
  161.6650  206.4110  150.8190 C   0  0  0  0  0  0  0  0  0  0  0  0
  160.9950  204.1970  149.8040 C   0  0  0  0  0  0  0  0  0  0  0  0
  160.9620  203.2950  148.6380 C   0  0  0  0  0  0  0  0  0  0  0  0
  161.2750  207.1510  153.0910 C   0  0  0  0  0  0  0  0  0  0  0  0
  160.8500  208.6280  151.2520 N   0  0  0  0  0  0  0  0  0  0  0  0
  160.9860  201.5570  146.4390 C   0  0  0  0  0  3  0  0  0  0  0  0
  160.4300  209.3950  153.4770 C   0  0  0  0  0  3  0  0  0  0  0  0
  161.2450  207.6820  150.3570 C   0  0  0  0  0  0  0  0  0  0  0  0
  161.3180  208.0620  148.8960 C   0  0  2  0  0  3  0  0  0  0  0  0
  162.4080  205.8280  148.4750 C   0  0  2  0  0  3  0  0  0  0  0  0
  160.1570  201.2900  147.5310 C   0  0  0  0  0  3  0  0  0  0  0  0
  160.8610  207.9150  155.3480 C   0  0  0  0  0  3  0  0  0  0  0  0
  160.8460  208.3970  152.5910 C   0  0  0  0  0  0  0  0  0  0  0  0
  160.1460  202.1550  148.6300 C   0  0  0  0  0  3  0  0  0  0  0  0
  161.2800  206.9120  154.4680 C   0  0  0  0  0  3  0  0  0  0  0  0
  161.3850  206.8520  147.9610 C   0  0  1  0  0  3  0  0  0  0  0  0
  162.5940  204.7450  147.5110 N   0  0  0  0  0  2  0  0  0  0  0  0
  161.6800  206.1640  152.1970 C   0  0  0  0  0  3  0  0  0  0  0  0
  160.2050  204.0030  150.7690 O   0  0  0  0  0  0  0  0  0  0  0  0
  161.7980  202.6950  146.4370 C   0  0  0  0  0  3  0  0  0  0  0  0
  162.0410  205.2930  149.8740 C   0  0  1  0  0  3  0  0  0  0  0  0
  161.7810  203.5690  147.5290 C   0  0  0  0  0  0  0  0  0  0  0  0
  162.1050  210.3080  148.6420 O   0  0  0  0  0  1  0  0  0  0  0  0
  162.5090  208.9730  148.6320 C   0  0  0  0  0  2  0  0  0  0  0  0
  159.8700  206.2800  146.4490 C   0  0  0  0  0  1  0  0  0  0  0  0
  160.1140  206.2840  147.8220 O   0  0  0  0  0  0  0  0  0  0  0  0
  159.9760  210.2100  155.7950 C   0  0  0  0  0  2  0  0  0  0  0  0
  158.5570  210.2750  155.7720 O   0  0  0  0  0  0  0  0  0  0  0  0
  157.8690  211.4330  155.4060 C   0  0  0  0  0  0  0  0  0  0  0  0
  157.3040  212.1210  156.2960 O   0  0  0  0  0  0  0  0  0  0  0  0
  157.7870  211.8780  153.9840 C   0  0  0  0  0  1  0  0  0  0  0  0
  1 13  1  0  0  0  0
  1 28  1  0  0  0  0
  2 19  1  0  0  0  0
  3 20  2  0  0  0  0
  4  3  1  0  0  0  0
  5 16  1  0  0  0  0
  6 14  2  0  0  0  0
  7 12  1  0  0  0  0
  8  1  2  0  0  0  0
  9  2  2  0  0  0  0
  9  6  1  0  0  0  0
 10 25  1  1  0  0  0
 10  9  1  0  0  0  0
 11 18  1  6  0  0  0
 11 22  1  0  0  0  0
 12 15  2  0  0  0  0
 14  5  1  0  0  0  0
 14  8  1  0  0  0  0
 15  4  1  0  0  0  0
 16 13  2  0  0  0  0
 17 27  1  1  0  0  0
 17 11  1  0  0  0  0
 17 10  1  0  0  0  0
 18 23  1  0  0  0  0
 19  5  2  0  0  0  0
 21  7  2  0  0  0  0
 21 23  1  0  0  0  0
 22  3  1  6  0  0  0
 22  2  1  0  0  0  0
 23  4  2  0  0  0  0
 25 24  1  0  0  0  0
 26 27  1  0  0  0  0
 29 28  1  0  0  0  0
 30 29  1  0  0  0  0
 30 31  2  0  0  0  0
 32 30  1  0  0  0  0
M  END
>  <MODEL>
1

>  <REMARK>
 VINA RESULT:      -7.1      0.000      0.000
  Name = 
  5 active torsions:
  status: ('A' for Active; 'I' for Inactive)
    1  A    between atoms: C_1  and  O_10
    2  A    between atoms: C_2  and  C_24
    3  A    between atoms: O_10  and  C_24
    4  A    between atoms: C_13  and  C_15
    5  A    between atoms: O_25  and  C_26
                            x       y       z     vdW  Elec       q    Type
                         _______ _______ _______ _____ _____    ______ ____

>  <TORSDO>
F 5

$$$$
=
 OpenBabel11062410543D

 32 36  0  0  1  0  0  0  0  0999 V2000
  161.3240  205.4920  149.4120 C   0  0  0  0  0  0  0  0  0  0  0  0
  161.1550  209.1130  152.9010 C   0  0  0  0  0  0  0  0  0  0  0  0
  159.9390  211.2980  153.2560 C   0  0  0  0  0  0  0  0  0  0  0  0
  159.5020  212.3730  154.1660 C   0  0  0  0  0  0  0  0  0  0  0  0
  161.4120  207.9090  150.8170 C   0  0  0  0  0  0  0  0  0  0  0  0
  160.8110  206.7380  152.8190 N   0  0  0  0  0  0  0  0  0  0  0  0
  158.7570  214.4530  155.8920 C   0  0  0  0  0  3  0  0  0  0  0  0
  161.0330  205.5110  150.7800 C   0  0  0  0  0  3  0  0  0  0  0  0
  160.8410  207.8900  153.5430 C   0  0  0  0  0  0  0  0  0  0  0  0
  160.6360  207.8050  155.0380 C   0  0  2  0  0  3  0  0  0  0  0  0
  161.2450  210.2480  155.1580 C   0  0  2  0  0  3  0  0  0  0  0  0
  158.1680  214.3480  154.6290 C   0  0  0  0  0  3  0  0  0  0  0  0
  161.6480  206.6810  148.7470 C   0  0  0  0  0  3  0  0  0  0  0  0
  161.0770  206.7160  151.4870 C   0  0  0  0  0  0  0  0  0  0  0  0
  158.5410  213.3120  153.7670 C   0  0  0  0  0  3  0  0  0  0  0  0
  161.6950  207.8900  149.4490 C   0  0  0  0  0  3  0  0  0  0  0  0
  160.3010  209.1540  155.6790 C   0  0  1  0  0  3  0  0  0  0  0  0
  161.0370  211.5040  155.8770 N   0  0  0  0  0  2  0  0  0  0  0  0
  161.4460  209.1030  151.5320 C   0  0  0  0  0  3  0  0  0  0  0  0
  159.3700  211.1540  152.1390 O   0  0  0  0  0  0  0  0  0  0  0  0
  159.7120  213.5170  156.2990 C   0  0  0  0  0  3  0  0  0  0  0  0
  161.1290  210.4370  153.6320 C   0  0  1  0  0  3  0  0  0  0  0  0
  160.0790  212.4730  155.4450 C   0  0  0  0  0  0  0  0  0  0  0  0
  161.7880  207.4070  157.0980 O   0  0  0  0  0  1  0  0  0  0  0  0
  161.8610  207.2100  155.7190 C   0  0  0  0  0  2  0  0  0  0  0  0
  158.4710  209.9070  156.6760 C   0  0  0  0  0  1  0  0  0  0  0  0
  158.9600  209.4760  155.4420 O   0  0  0  0  0  0  0  0  0  0  0  0
  161.2510  204.2130  148.6560 C   0  0  0  0  0  2  0  0  0  0  0  0
  162.1050  204.2800  147.5220 O   0  0  0  0  0  0  0  0  0  0  0  0
  161.6320  204.0990  146.2210 C   0  0  0  0  0  0  0  0  0  0  0  0
  161.1920  202.9720  145.8760 O   0  0  0  0  0  0  0  0  0  0  0  0
  161.6350  205.2120  145.2260 C   0  0  0  0  0  1  0  0  0  0  0  0
  1  8  1  0  0  0  0
  2  9  1  0  0  0  0
  3 22  1  0  0  0  0
  3  4  1  0  0  0  0
  4 23  1  0  0  0  0
  5 14  1  0  0  0  0
  5 19  1  0  0  0  0
  6  9  2  0  0  0  0
  7 21  1  0  0  0  0
  8 14  2  0  0  0  0
  9 10  1  0  0  0  0
 10 17  1  0  0  0  0
 10 25  1  1  0  0  0
 11 17  1  0  0  0  0
 11 18  1  1  0  0  0
 12  7  2  0  0  0  0
 13  1  2  0  0  0  0
 13 16  1  0  0  0  0
 14  6  1  0  0  0  0
 15  4  2  0  0  0  0
 15 12  1  0  0  0  0
 16  5  2  0  0  0  0
 17 27  1  6  0  0  0
 19  2  2  0  0  0  0
 20  3  2  0  0  0  0
 22  2  1  6  0  0  0
 22 11  1  0  0  0  0
 23 18  1  0  0  0  0
 23 21  2  0  0  0  0
 25 24  1  0  0  0  0
 27 26  1  0  0  0  0
 28  1  1  0  0  0  0
 29 28  1  0  0  0  0
 30 29  1  0  0  0  0
 31 30  2  0  0  0  0
 32 30  1  0  0  0  0
M  END
>  <MODEL>
2

>  <REMARK>
 VINA RESULT:      -6.3      2.249      9.310
  Name = 
  5 active torsions:
  status: ('A' for Active; 'I' for Inactive)
    1  A    between atoms: C_1  and  O_10
    2  A    between atoms: C_2  and  C_24
    3  A    between atoms: O_10  and  C_24
    4  A    between atoms: C_13  and  C_15
    5  A    between atoms: O_25  and  C_26
                            x       y       z     vdW  Elec       q    Type
                         _______ _______ _______ _____ _____    ______ ____

>  <TORSDO>
F 5

$$$$
=
 OpenBabel11062410543D

 32 36  0  0  1  0  0  0  0  0999 V2000
  162.3990  204.9290  146.9860 C   0  0  0  0  0  0  0  0  0  0  0  0
  160.9800  207.7370  150.9130 C   0  0  0  0  0  0  0  0  0  0  0  0
  160.9320  207.5260  153.4290 C   0  0  0  0  0  0  0  0  0  0  0  0
  160.8320  208.1670  154.7540 C   0  0  0  0  0  0  0  0  0  0  0  0
  161.2030  205.9430  149.3030 C   0  0  0  0  0  0  0  0  0  0  0  0
  162.4810  207.9550  149.0510 N   0  0  0  0  0  0  0  0  0  0  0  0
  160.5490  209.3900  157.2610 C   0  0  0  0  0  3  0  0  0  0  0  0
  162.7500  206.2020  147.4500 C   0  0  0  0  0  3  0  0  0  0  0  0
  161.9250  208.4890  150.1740 C   0  0  0  0  0  0  0  0  0  0  0  0
  162.2670  209.9150  150.5350 C   0  0  2  0  0  3  0  0  0  0  0  0
  160.5080  209.7730  152.3350 C   0  0  2  0  0  3  0  0  0  0  0  0
  161.0020  208.0710  157.1730 C   0  0  0  0  0  3  0  0  0  0  0  0
  161.4600  204.1620  147.6870 C   0  0  0  0  0  3  0  0  0  0  0  0
  162.1550  206.7140  148.6050 C   0  0  0  0  0  0  0  0  0  0  0  0
  161.1410  207.4600  155.9240 C   0  0  0  0  0  3  0  0  0  0  0  0
  160.8590  204.6690  148.8440 C   0  0  0  0  0  3  0  0  0  0  0  0
  161.9180  210.2720  151.9820 C   0  0  1  0  0  3  0  0  0  0  0  0
  160.1030  210.2420  153.6590 N   0  0  0  0  0  2  0  0  0  0  0  0
  160.6230  206.4630  150.4570 C   0  0  0  0  0  3  0  0  0  0  0  0
  161.4020  206.3590  153.3330 O   0  0  0  0  0  0  0  0  0  0  0  0
  160.2430  210.1030  156.0980 C   0  0  0  0  0  3  0  0  0  0  0  0
  160.3860  208.2410  152.2090 C   0  0  1  0  0  3  0  0  0  0  0  0
  160.3920  209.5000  154.8450 C   0  0  0  0  0  0  0  0  0  0  0  0
  162.5110  211.4560  148.7190 O   0  0  0  0  0  1  0  0  0  0  0  0
  161.5800  210.8930  149.5920 C   0  0  0  0  0  2  0  0  0  0  0  0
  163.2000  210.7970  153.7110 C   0  0  0  0  0  1  0  0  0  0  0  0
  162.8810  209.7460  152.8510 O   0  0  0  0  0  0  0  0  0  0  0  0
  163.0520  204.3750  145.7710 C   0  0  0  0  0  2  0  0  0  0  0  0
  162.0900  204.2290  144.7360 O   0  0  0  0  0  0  0  0  0  0  0  0
  161.3140  205.2980  144.2820 C   0  0  0  0  0  0  0  0  0  0  0  0
  161.5800  205.8250  143.1710 O   0  0  0  0  0  0  0  0  0  0  0  0
  160.1750  205.8330  145.0840 C   0  0  0  0  0  1  0  0  0  0  0  0
  1  8  2  0  0  0  0
  1 13  1  0  0  0  0
  3  4  1  0  0  0  0
  4 23  2  0  0  0  0
  4 15  1  0  0  0  0
  5 19  2  0  0  0  0
  6  9  1  0  0  0  0
  8 14  1  0  0  0  0
  9 10  1  0  0  0  0
  9  2  2  0  0  0  0
 10 25  1  6  0  0  0
 10 17  1  0  0  0  0
 11 18  1  1  0  0  0
 12  7  1  0  0  0  0
 13 16  2  0  0  0  0
 14  6  2  0  0  0  0
 14  5  1  0  0  0  0
 15 12  2  0  0  0  0
 16  5  1  0  0  0  0
 17 11  1  0  0  0  0
 17 27  1  1  0  0  0
 18 23  1  0  0  0  0
 19  2  1  0  0  0  0
 20  3  2  0  0  0  0
 21  7  2  0  0  0  0
 22  2  1  6  0  0  0
 22 11  1  0  0  0  0
 22  3  1  0  0  0  0
 23 21  1  0  0  0  0
 24 25  1  0  0  0  0
 27 26  1  0  0  0  0
 28  1  1  0  0  0  0
 29 28  1  0  0  0  0
 30 29  1  0  0  0  0
 30 32  1  0  0  0  0
 31 30  2  0  0  0  0
M  END
>  <MODEL>
3

>  <REMARK>
 VINA RESULT:      -6.2      2.523      8.243
  Name = 
  5 active torsions:
  status: ('A' for Active; 'I' for Inactive)
    1  A    between atoms: C_1  and  O_10
    2  A    between atoms: C_2  and  C_24
    3  A    between atoms: O_10  and  C_24
    4  A    between atoms: C_13  and  C_15
    5  A    between atoms: O_25  and  C_26
                            x       y       z     vdW  Elec       q    Type
                         _______ _______ _______ _____ _____    ______ ____

>  <TORSDO>
F 5

$$$$
=
 OpenBabel11062410543D

 32 36  0  0  1  0  0  0  0  0999 V2000
  161.2710  205.4160  149.3160 C   0  0  0  0  0  0  0  0  0  0  0  0
  161.1450  209.0840  152.7590 C   0  0  0  0  0  0  0  0  0  0  0  0
  159.9260  211.2680  153.1050 C   0  0  0  0  0  0  0  0  0  0  0  0
  159.5000  212.3530  154.0080 C   0  0  0  0  0  0  0  0  0  0  0  0
  161.3720  207.8530  150.6870 C   0  0  0  0  0  0  0  0  0  0  0  0
  160.8100  206.7060  152.7140 N   0  0  0  0  0  0  0  0  0  0  0  0
  158.7740  214.4530  155.7170 C   0  0  0  0  0  3  0  0  0  0  0  0
  161.0030  205.4530  150.6890 C   0  0  0  0  0  3  0  0  0  0  0  0
  160.8480  207.8680  153.4230 C   0  0  0  0  0  0  0  0  0  0  0  0
  160.6680  207.8020  154.9210 C   0  0  2  0  0  3  0  0  0  0  0  0
  161.2680  210.2490  154.9980 C   0  0  2  0  0  3  0  0  0  0  0  0
  158.1650  214.3280  154.4660 C   0  0  0  0  0  3  0  0  0  0  0  0
  161.5780  206.5970  148.6300 C   0  0  0  0  0  3  0  0  0  0  0  0
  161.0540  206.6670  151.3790 C   0  0  0  0  0  0  0  0  0  0  0  0
  158.5280  213.2830  153.6120 C   0  0  0  0  0  3  0  0  0  0  0  0
  161.6320  207.8160  149.3140 C   0  0  0  0  0  3  0  0  0  0  0  0
  160.3380  209.1580  155.5500 C   0  0  1  0  0  3  0  0  0  0  0  0
  161.0670  211.5140  155.7030 N   0  0  0  0  0  2  0  0  0  0  0  0
  161.4130  209.0560  151.3850 C   0  0  0  0  0  3  0  0  0  0  0  0
  159.3380  211.1060  152.0000 O   0  0  0  0  0  0  0  0  0  0  0  0
  159.7400  213.5270  156.1210 C   0  0  0  0  0  3  0  0  0  0  0  0
  161.1250  210.4160  153.4720 C   0  0  1  0  0  3  0  0  0  0  0  0
  160.0970  212.4730  155.2750 C   0  0  0  0  0  0  0  0  0  0  0  0
  162.0260  207.7100  156.8910 O   0  0  0  0  0  1  0  0  0  0  0  0
  161.9070  207.2220  155.5900 C   0  0  0  0  0  2  0  0  0  0  0  0
  158.5010  209.8370  156.5850 C   0  0  0  0  0  1  0  0  0  0  0  0
  158.9920  209.4720  155.3310 O   0  0  0  0  0  0  0  0  0  0  0  0
  161.1910  204.1270  148.5780 C   0  0  0  0  0  2  0  0  0  0  0  0
  160.9040  203.0740  149.4870 O   0  0  0  0  0  0  0  0  0  0  0  0
  160.4620  201.8200  149.0600 C   0  0  0  0  0  0  0  0  0  0  0  0
  159.3140  201.4250  149.3920 O   0  0  0  0  0  0  0  0  0  0  0  0
  161.3170  200.9350  148.2160 C   0  0  0  0  0  1  0  0  0  0  0  0
  1  8  1  0  0  0  0
  2  9  1  0  0  0  0
  3 22  1  0  0  0  0
  3  4  1  0  0  0  0
  4 23  1  0  0  0  0
  5 14  1  0  0  0  0
  5 19  1  0  0  0  0
  6  9  2  0  0  0  0
  7 21  1  0  0  0  0
  8 14  2  0  0  0  0
  9 10  1  0  0  0  0
 10 17  1  0  0  0  0
 10 25  1  1  0  0  0
 11 17  1  0  0  0  0
 11 18  1  1  0  0  0
 12  7  2  0  0  0  0
 13 16  1  0  0  0  0
 13  1  2  0  0  0  0
 14  6  1  0  0  0  0
 15  4  2  0  0  0  0
 15 12  1  0  0  0  0
 16  5  2  0  0  0  0
 17 27  1  6  0  0  0
 19  2  2  0  0  0  0
 20  3  2  0  0  0  0
 22  2  1  6  0  0  0
 22 11  1  0  0  0  0
 23 18  1  0  0  0  0
 23 21  2  0  0  0  0
 25 24  1  0  0  0  0
 27 26  1  0  0  0  0
 28  1  1  0  0  0  0
 28 29  1  0  0  0  0
 30 31  2  0  0  0  0
 30 29  1  0  0  0  0
 32 30  1  0  0  0  0
M  END
>  <MODEL>
4

>  <REMARK>
 VINA RESULT:      -6.1      2.108      9.179
  Name = 
  5 active torsions:
  status: ('A' for Active; 'I' for Inactive)
    1  A    between atoms: C_1  and  O_10
    2  A    between atoms: C_2  and  C_24
    3  A    between atoms: O_10  and  C_24
    4  A    between atoms: C_13  and  C_15
    5  A    between atoms: O_25  and  C_26
                            x       y       z     vdW  Elec       q    Type
                         _______ _______ _______ _____ _____    ______ ____

>  <TORSDO>
F 5

$$$$
=
 OpenBabel11062410543D

 32 36  0  0  1  0  0  0  0  0999 V2000
  161.8120  204.3180  147.5120 C   0  0  0  0  0  0  0  0  0  0  0  0
  160.9450  207.7370  151.1000 C   0  0  0  0  0  0  0  0  0  0  0  0
  161.1370  207.8830  153.6140 C   0  0  0  0  0  0  0  0  0  0  0  0
  161.2030  208.7080  154.8350 C   0  0  0  0  0  0  0  0  0  0  0  0
  160.9100  205.7250  149.7550 C   0  0  0  0  0  0  0  0  0  0  0  0
  162.2630  207.5900  149.0980 N   0  0  0  0  0  0  0  0  0  0  0  0
  161.2380  210.2850  157.1520 C   0  0  0  0  0  3  0  0  0  0  0  0
  162.2760  205.6160  147.7510 C   0  0  0  0  0  3  0  0  0  0  0  0
  161.8520  208.3120  150.1770 C   0  0  0  0  0  0  0  0  0  0  0  0
  162.3050  209.7480  150.2940 C   0  0  2  0  0  3  0  0  0  0  0  0
  160.7280  209.9790  152.2480 C   0  0  2  0  0  3  0  0  0  0  0  0
  161.6090  208.9400  157.2170 C   0  0  0  0  0  3  0  0  0  0  0  0
  160.9070  203.7220  148.3980 C   0  0  0  0  0  3  0  0  0  0  0  0
  161.8270  206.3240  148.8690 C   0  0  0  0  0  0  0  0  0  0  0  0
  161.5890  208.1520  156.0620 C   0  0  0  0  0  3  0  0  0  0  0  0
  160.4530  204.4250  149.5190 C   0  0  0  0  0  3  0  0  0  0  0  0
  162.1200  210.3260  151.6990 C   0  0  1  0  0  3  0  0  0  0  0  0
  160.4830  210.6540  153.5200 N   0  0  0  0  0  2  0  0  0  0  0  0
  160.4760  206.4390  150.8690 C   0  0  0  0  0  3  0  0  0  0  0  0
  161.5300  206.6850  153.6460 O   0  0  0  0  0  0  0  0  0  0  0  0
  160.8580  210.8490  155.9310 C   0  0  0  0  0  3  0  0  0  0  0  0
  160.5110  208.4560  152.3570 C   0  0  1  0  0  3  0  0  0  0  0  0
  160.8480  210.0670  154.7710 C   0  0  0  0  0  0  0  0  0  0  0  0
  162.2780  211.8220  149.1000 O   0  0  0  0  0  1  0  0  0  0  0  0
  161.5800  210.6290  149.2850 C   0  0  0  0  0  2  0  0  0  0  0  0
  163.9260  210.9830  152.8020 C   0  0  0  0  0  1  0  0  0  0  0  0
  163.1360  209.8630  152.5440 O   0  0  0  0  0  0  0  0  0  0  0  0
  162.3100  203.5570  146.3350 C   0  0  0  0  0  2  0  0  0  0  0  0
  161.2110  203.1200  145.5490 O   0  0  0  0  0  0  0  0  0  0  0  0
  160.7000  201.8230  145.6370 C   0  0  0  0  0  0  0  0  0  0  0  0
  159.7920  201.4640  144.8440 O   0  0  0  0  0  0  0  0  0  0  0  0
  161.2060  200.8500  146.6490 C   0  0  0  0  0  1  0  0  0  0  0  0
  1  8  2  0  0  0  0
  1 13  1  0  0  0  0
  3 20  2  0  0  0  0
  3  4  1  0  0  0  0
  4 15  1  0  0  0  0
  5 19  2  0  0  0  0
  6  9  1  0  0  0  0
  7 12  1  0  0  0  0
  8 14  1  0  0  0  0
  9 10  1  0  0  0  0
  9  2  2  0  0  0  0
 10 25  1  6  0  0  0
 10 17  1  0  0  0  0
 11 22  1  0  0  0  0
 11 18  1  1  0  0  0
 13 16  2  0  0  0  0
 14  6  2  0  0  0  0
 14  5  1  0  0  0  0
 15 12  2  0  0  0  0
 16  5  1  0  0  0  0
 17 11  1  0  0  0  0
 17 27  1  1  0  0  0
 18 23  1  0  0  0  0
 19  2  1  0  0  0  0
 21  7  2  0  0  0  0
 22  2  1  6  0  0  0
 22  3  1  0  0  0  0
 23  4  2  0  0  0  0
 23 21  1  0  0  0  0
 24 25  1  0  0  0  0
 27 26  1  0  0  0  0
 28  1  1  0  0  0  0
 29 30  1  0  0  0  0
 29 28  1  0  0  0  0
 30 32  1  0  0  0  0
 31 30  2  0  0  0  0
M  END
>  <MODEL>
5

>  <REMARK>
 VINA RESULT:      -4.9      2.464      8.486
  Name = 
  5 active torsions:
  status: ('A' for Active; 'I' for Inactive)
    1  A    between atoms: C_1  and  O_10
    2  A    between atoms: C_2  and  C_24
    3  A    between atoms: O_10  and  C_24
    4  A    between atoms: C_13  and  C_15
    5  A    between atoms: O_25  and  C_26
                            x       y       z     vdW  Elec       q    Type
                         _______ _______ _______ _____ _____    ______ ____

>  <TORSDO>
F 5

$$$$
=
 OpenBabel11062410543D

 32 36  0  0  1  0  0  0  0  0999 V2000
  161.2250  206.6900  147.6530 C   0  0  0  0  0  0  0  0  0  0  0  0
  161.6660  208.8340  152.1840 C   0  0  0  0  0  0  0  0  0  0  0  0
  160.7820  210.8830  153.3650 C   0  0  0  0  0  0  0  0  0  0  0  0
  160.5270  211.6110  154.6220 C   0  0  0  0  0  0  0  0  0  0  0  0
  161.6930  208.4240  149.7980 C   0  0  0  0  0  0  0  0  0  0  0  0
  160.9890  206.7030  151.3090 N   0  0  0  0  0  0  0  0  0  0  0  0
  160.1300  213.0200  157.0130 C   0  0  0  0  0  3  0  0  0  0  0  0
  160.9780  206.2590  148.9610 C   0  0  0  0  0  3  0  0  0  0  0  0
  161.2020  207.5110  152.3840 C   0  0  0  0  0  0  0  0  0  0  0  0
  161.0290  206.9280  153.7670 C   0  0  2  0  0  3  0  0  0  0  0  0
  161.9790  209.0770  154.6800 C   0  0  2  0  0  3  0  0  0  0  0  0
  159.4980  213.4410  155.8410 C   0  0  0  0  0  3  0  0  0  0  0  0
  161.6940  207.9880  147.4190 C   0  0  0  0  0  3  0  0  0  0  0  0
  161.2120  207.1210  150.0360 C   0  0  0  0  0  0  0  0  0  0  0  0
  159.6970  212.7410  154.6470 C   0  0  0  0  0  3  0  0  0  0  0  0
  161.9310  208.8550  148.4910 C   0  0  0  0  0  3  0  0  0  0  0  0
  160.9050  207.9930  154.8590 C   0  0  1  0  0  3  0  0  0  0  0  0
  161.9710  210.0120  155.8030 N   0  0  0  0  0  2  0  0  0  0  0  0
  161.9150  209.2740  150.8780 C   0  0  0  0  0  3  0  0  0  0  0  0
  160.1660  211.2140  152.3140 O   0  0  0  0  0  0  0  0  0  0  0  0
  160.9550  211.8910  156.9970 C   0  0  0  0  0  3  0  0  0  0  0  0
  161.8480  209.8060  153.3270 C   0  0  1  0  0  3  0  0  0  0  0  0
  161.1470  211.1810  155.8080 C   0  0  0  0  0  0  0  0  0  0  0  0
  162.7280  205.4620  152.9360 O   0  0  0  0  0  1  0  0  0  0  0  0
  162.1760  205.9860  154.1040 C   0  0  0  0  0  2  0  0  0  0  0  0
  159.0400  208.1140  156.0480 C   0  0  0  0  0  1  0  0  0  0  0  0
  159.6170  208.5400  154.8510 O   0  0  0  0  0  0  0  0  0  0  0  0
  160.9510  205.7810  146.5080 C   0  0  0  0  0  2  0  0  0  0  0  0
  161.3730  204.4640  146.8330 O   0  0  0  0  0  0  0  0  0  0  0  0
  161.4630  203.4520  145.8740 C   0  0  0  0  0  0  0  0  0  0  0  0
  162.2500  203.5930  144.9030 O   0  0  0  0  0  0  0  0  0  0  0  0
  160.6500  202.2050  145.9740 C   0  0  0  0  0  1  0  0  0  0  0  0
  1  8  1  0  0  0  0
  2  9  1  0  0  0  0
  3  4  1  0  0  0  0
  4 15  2  0  0  0  0
  4 23  1  0  0  0  0
  5 14  1  0  0  0  0
  5 19  1  0  0  0  0
  6  9  2  0  0  0  0
  8 14  2  0  0  0  0
  9 10  1  0  0  0  0
 10 25  1  1  0  0  0
 10 17  1  0  0  0  0
 11 17  1  0  0  0  0
 11 18  1  1  0  0  0
 12  7  2  0  0  0  0
 13  1  2  0  0  0  0
 13 16  1  0  0  0  0
 14  6  1  0  0  0  0
 15 12  1  0  0  0  0
 16  5  2  0  0  0  0
 17 27  1  6  0  0  0
 18 23  1  0  0  0  0
 19  2  2  0  0  0  0
 20  3  2  0  0  0  0
 21  7  1  0  0  0  0
 22  2  1  6  0  0  0
 22  3  1  0  0  0  0
 22 11  1  0  0  0  0
 23 21  2  0  0  0  0
 24 25  1  0  0  0  0
 27 26  1  0  0  0  0
 28 29  1  0  0  0  0
 28  1  1  0  0  0  0
 30 32  1  0  0  0  0
 30 29  1  0  0  0  0
 31 30  2  0  0  0  0
M  END
>  <MODEL>
6

>  <REMARK>
 VINA RESULT:      -4.6      2.139      9.125
  Name = 
  5 active torsions:
  status: ('A' for Active; 'I' for Inactive)
    1  A    between atoms: C_1  and  O_10
    2  A    between atoms: C_2  and  C_24
    3  A    between atoms: O_10  and  C_24
    4  A    between atoms: C_13  and  C_15
    5  A    between atoms: O_25  and  C_26
                            x       y       z     vdW  Elec       q    Type
                         _______ _______ _______ _____ _____    ______ ____

>  <TORSDO>
F 5

$$$$
