=
 OpenBabel11062408523D

 55 60  0  0  1  0  0  0  0  0999 V2000
  160.9110  211.0190  150.3600 C   0  0  0  0  0  3  0  0  0  0  0  0
  159.6430  214.1570  150.5730 S   0  0  0  0  0  0  0  0  0  0  0  0
  159.2020  213.3530  153.8870 C   0  0  0  0  0  1  0  0  0  0  0  0
  160.3920  211.0270  155.7730 C   0  0  0  0  0  2  0  0  0  0  0  0
  160.3730  210.3420  157.1420 C   0  0  0  0  0  2  0  0  0  0  0  0
  161.3760  208.8910  154.9370 C   0  0  2  0  0  3  0  0  0  0  0  0
  161.2460  208.4000  156.3760 C   0  0  0  0  0  2  0  0  0  0  0  0
  159.3060  211.1180  153.0320 O   0  0  0  0  0  0  0  0  0  0  0  0
  161.4790  209.4720  157.2610 O   0  0  0  0  0  0  0  0  0  0  0  0
  162.8390  211.3110  148.8040 C   0  0  0  0  0  3  0  0  0  0  0  0
  160.3210  209.9560  154.6780 C   0  0  2  0  0  3  0  0  0  0  0  0
  161.4690  213.3480  147.4300 C   0  0  0  0  0  0  0  0  0  0  0  0
  161.5130  210.1570  151.1670 C   0  0  0  0  0  3  0  0  0  0  0  0
  160.8930  212.7560  148.5820 C   0  0  0  0  0  0  0  0  0  0  0  0
  161.5800  208.3050  152.7940 C   0  0  2  0  0  3  0  0  0  0  0  0
  159.6790  213.2280  149.0960 O   0  0  0  0  0  0  0  0  0  0  0  0
  161.1480  207.8460  154.0470 O   0  0  0  0  0  0  0  0  0  0  0  0
  158.7570  212.8610  151.4960 C   0  0  0  0  0  2  0  0  0  0  0  0
  159.5730  212.4560  152.7180 C   0  0  1  0  0  3  0  0  0  0  0  0
  163.4340  211.9460  147.7150 C   0  0  0  0  0  3  0  0  0  0  0  0
  161.5720  211.7170  149.2500 C   0  0  0  0  0  0  0  0  0  0  0  0
  160.5020  210.5530  153.3450 N   0  0  1  0  0  0  0  0  0  0  0  0
  160.7590  209.5250  152.2960 C   0  0  1  0  0  3  0  0  0  0  0  0
  162.7510  212.9600  147.0380 C   0  0  0  0  0  3  0  0  0  0  0  0
  160.9590  207.4150  150.5240 C   0  0  0  0  0  3  0  0  0  0  0  0
  161.2490  205.0650  149.9670 C   0  0  0  0  0  0  0  0  0  0  0  0
  161.8720  205.8820  152.1670 C   0  0  0  0  0  3  0  0  0  0  0  0
  161.7620  204.8320  151.2550 C   0  0  0  0  0  3  0  0  0  0  0  0
  160.8430  206.3590  149.6110 C   0  0  0  0  0  3  0  0  0  0  0  0
  161.4790  207.1810  151.8050 C   0  0  0  0  0  0  0  0  0  0  0  0
  161.1250  204.0320  149.0330 O   0  0  0  0  0  0  0  0  0  0  0  0
  160.5800  202.7870  149.3540 C   0  0  0  0  0  3  0  0  0  0  0  0
  160.8810  201.7230  148.6340 C   0  0  0  0  0  2  0  0  0  0  0  0
  160.8200  214.3010  146.6350 O   0  0  0  0  0  0  0  0  0  0  0  0
  160.9980  214.4490  145.2300 C   0  0  0  0  0  2  0  0  0  0  0  0
  159.7870  213.9180  144.4640 C   0  0  2  0  0  3  0  0  0  0  0  0
  158.2980  212.3050  145.3680 O   0  0  0  0  0  0  0  0  0  0  0  0
  159.4060  212.5370  144.9160 C   0  0  0  0  0  3  0  0  0  0  0  0
  159.9020  214.0350  142.9340 C   0  0  0  0  0  2  0  0  0  0  0  0
  159.9490  212.6770  142.2350 C   0  0  1  0  0  3  0  0  0  0  0  0
  158.9520  212.5880  141.2580 O   0  0  0  0  0  1  0  0  0  0  0  0
  161.7290  209.9870  137.9510 C   0  0  0  0  0  2  0  0  0  0  0  0
  164.0580  214.4530  140.8460 O   0  0  0  0  0  1  0  0  0  0  0  0
  161.3440  212.3370  141.6670 C   0  0  1  0  0  0  0  0  0  0  0  0
  161.1690  214.2840  140.2730 O   0  0  0  0  0  0  0  0  0  0  0  0
  161.8910  213.4110  140.7410 C   0  0  0  0  0  0  0  0  0  0  0  0
  162.3460  210.7250  140.0870 O   0  0  0  0  0  0  0  0  0  0  0  0
  163.6320  213.0820  138.8640 C   0  0  1  0  0  3  0  0  0  0  0  0
  162.2390  210.9380  138.7190 C   0  0  0  0  0  0  0  0  0  0  0  0
  163.3450  213.3500  140.3600 C   0  0  1  0  0  3  0  0  0  0  0  0
  162.2280  212.1890  142.7400 O   0  0  0  0  0  1  0  0  0  0  0  0
  162.5420  212.2820  138.1210 C   0  0  0  0  0  2  0  0  0  0  0  0
  161.2330  210.9810  140.9510 C   0  0  0  0  0  2  0  0  0  0  0  0
  163.8860  214.2790  138.1860 O   0  0  0  0  0  0  0  0  0  0  0  0
  165.2340  214.1960  137.8380 C   0  0  0  0  0  1  0  0  0  0  0  0
  1 13  2  0  0  0  0
  2 18  1  0  0  0  0
  4  5  1  0  0  0  0
  5  9  1  0  0  0  0
  6  7  1  1  0  0  0
  7  9  1  0  0  0  0
 10 21  1  0  0  0  0
 11  6  1  0  0  0  0
 11  4  1  1  0  0  0
 12 14  1  0  0  0  0
 14 16  1  0  0  0  0
 14 21  2  0  0  0  0
 15 30  1  6  0  0  0
 15 17  1  0  0  0  0
 16  2  1  0  0  0  0
 17  6  1  0  0  0  0
 18 19  1  0  0  0  0
 19  8  1  0  0  0  0
 19  3  1  1  0  0  0
 20 10  2  0  0  0  0
 21  1  1  0  0  0  0
 22  8  1  6  0  0  0
 22 11  1  0  0  0  0
 23 13  1  6  0  0  0
 23 15  1  0  0  0  0
 23 22  1  0  0  0  0
 24 12  2  0  0  0  0
 24 20  1  0  0  0  0
 25 30  1  0  0  0  0
 26 28  2  0  0  0  0
 28 27  1  0  0  0  0
 29 26  1  0  0  0  0
 29 25  2  0  0  0  0
 30 27  2  0  0  0  0
 31 32  1  0  0  0  0
 31 26  1  0  0  0  0
 33 32  2  0  0  0  0
 34 12  1  0  0  0  0
 35 34  1  0  0  0  0
 36 39  1  6  0  0  0
 36 38  1  0  0  0  0
 36 35  1  0  0  0  0
 38 37  2  0  0  0  0
 40 41  1  6  0  0  0
 40 39  1  0  0  0  0
 42 49  2  0  0  0  0
 44 40  1  0  0  0  0
 44 51  1  1  0  0  0
 45 46  2  0  0  0  0
 46 44  1  0  0  0  0
 47 53  1  0  0  0  0
 48 54  1  6  0  0  0
 48 50  1  0  0  0  0
 49 47  1  0  0  0  0
 50 46  1  0  0  0  0
 50 43  1  6  0  0  0
 52 49  1  0  0  0  0
 52 48  1  0  0  0  0
 53 44  1  0  0  0  0
 55 54  1  0  0  0  0
M  END
>  <MODEL>
1

>  <REMARK>
 VINA RESULT:      -8.3      0.000      0.000
  Name = 
  11 active torsions:
  status: ('A' for Active; 'I' for Inactive)
    1  A    between atoms: C_6  and  C_20
    2  A    between atoms: C_8  and  C_43
    3  A    between atoms: O_10  and  C_18
    4  A    between atoms: O_10  and  C_32
    5  A    between atoms: O_11  and  C_29
    6  A    between atoms: C_20  and  C_22
    7  A    between atoms: C_22  and  C_43
    8  A    between atoms: C_27  and  O_54
    9  A    between atoms: C_33  and  C_52
   10  A    between atoms: C_43  and  C_51
   11  A    between atoms: C_51  and  O_54
                            x       y       z     vdW  Elec       q    Type
                         _______ _______ _______ _____ _____    ______ ____

>  <TORSDO>
F 11

$$$$
=
 OpenBabel11062408523D

 55 60  0  0  1  0  0  0  0  0999 V2000
  160.6090  211.4300  150.1820 C   0  0  0  0  0  3  0  0  0  0  0  0
  159.1420  214.4400  149.6530 S   0  0  0  0  0  0  0  0  0  0  0  0
  158.2650  214.1780  152.9680 C   0  0  0  0  0  1  0  0  0  0  0  0
  159.2980  212.3140  155.3850 C   0  0  0  0  0  2  0  0  0  0  0  0
  159.1180  211.8730  156.8390 C   0  0  0  0  0  2  0  0  0  0  0  0
  160.5190  210.1580  155.0870 C   0  0  2  0  0  3  0  0  0  0  0  0
  160.2060  209.9090  156.5600 C   0  0  0  0  0  2  0  0  0  0  0  0
  158.6240  211.8470  152.5510 O   0  0  0  0  0  0  0  0  0  0  0  0
  160.2430  211.1320  157.2610 O   0  0  0  0  0  0  0  0  0  0  0  0
  162.7250  211.6130  148.8730 C   0  0  0  0  0  3  0  0  0  0  0  0
  159.4520  211.0710  154.5010 C   0  0  2  0  0  3  0  0  0  0  0  0
  161.4560  213.2650  146.9830 C   0  0  0  0  0  0  0  0  0  0  0  0
  161.1360  210.7710  151.2040 C   0  0  0  0  0  3  0  0  0  0  0  0
  160.7520  212.8310  148.1340 C   0  0  0  0  0  0  0  0  0  0  0  0
  161.0700  209.2350  153.1320 C   0  0  2  0  0  3  0  0  0  0  0  0
  159.4490  213.2800  148.3860 O   0  0  0  0  0  0  0  0  0  0  0  0
  160.4860  208.9610  154.3780 O   0  0  0  0  0  0  0  0  0  0  0  0
  158.2070  213.2510  150.6660 C   0  0  0  0  0  2  0  0  0  0  0  0
  158.8560  213.1290  152.0390 C   0  0  1  0  0  3  0  0  0  0  0  0
  163.4360  212.1020  147.7770 C   0  0  0  0  0  3  0  0  0  0  0  0
  161.3840  211.9810  149.0640 C   0  0  0  0  0  0  0  0  0  0  0  0
  159.7920  211.4450  153.1190 N   0  0  1  0  0  0  0  0  0  0  0  0
  160.2620  210.2800  152.3170 C   0  0  1  0  0  3  0  0  0  0  0  0
  162.8020  212.9250  146.8430 C   0  0  0  0  0  3  0  0  0  0  0  0
  161.2910  207.9850  150.9600 C   0  0  0  0  0  3  0  0  0  0  0  0
  161.3490  205.5540  150.9030 C   0  0  0  0  0  0  0  0  0  0  0  0
  161.1450  206.7180  153.0240 C   0  0  0  0  0  3  0  0  0  0  0  0
  161.2310  205.5270  152.3040 C   0  0  0  0  0  3  0  0  0  0  0  0
  161.3710  206.7880  150.2370 C   0  0  0  0  0  3  0  0  0  0  0  0
  161.1830  207.9550  152.3580 C   0  0  0  0  0  0  0  0  0  0  0  0
  161.4350  204.3760  150.1540 O   0  0  0  0  0  0  0  0  0  0  0  0
  160.9710  204.2820  148.8410 C   0  0  0  0  0  3  0  0  0  0  0  0
  161.6540  203.6000  147.9410 C   0  0  0  0  0  2  0  0  0  0  0  0
  160.8760  214.0110  145.9480 O   0  0  0  0  0  0  0  0  0  0  0  0
  161.3180  214.0110  144.5950 C   0  0  0  0  0  2  0  0  0  0  0  0
  160.1660  213.6980  143.6410 C   0  0  2  0  0  3  0  0  0  0  0  0
  158.4300  212.5820  144.8130 O   0  0  0  0  0  0  0  0  0  0  0  0
  159.3980  212.4840  144.0780 C   0  0  0  0  0  3  0  0  0  0  0  0
  160.5660  213.6490  142.1560 C   0  0  0  0  0  2  0  0  0  0  0  0
  159.3820  213.3830  141.2280 C   0  0  1  0  0  3  0  0  0  0  0  0
  158.4810  214.4520  141.2560 O   0  0  0  0  0  1  0  0  0  0  0  0
  163.9810  211.8760  138.9170 C   0  0  0  0  0  2  0  0  0  0  0  0
  158.4730  210.6580  137.5250 O   0  0  0  0  0  1  0  0  0  0  0  0
  159.8090  213.0270  139.7880 C   0  0  1  0  0  0  0  0  0  0  0  0
  159.4130  210.7190  140.3210 O   0  0  0  0  0  0  0  0  0  0  0  0
  159.6040  211.5590  139.4490 C   0  0  0  0  0  0  0  0  0  0  0  0
  161.8950  212.8470  138.4770 O   0  0  0  0  0  0  0  0  0  0  0  0
  160.8740  210.2030  137.6580 C   0  0  1  0  0  3  0  0  0  0  0  0
  162.7010  211.7240  138.6090 C   0  0  0  0  0  0  0  0  0  0  0  0
  159.6970  211.1420  138.0070 C   0  0  1  0  0  3  0  0  0  0  0  0
  159.0460  213.7930  138.9040 O   0  0  0  0  0  1  0  0  0  0  0  0
  162.1140  210.3430  138.5650 C   0  0  0  0  0  2  0  0  0  0  0  0
  161.2820  213.4400  139.6270 C   0  0  0  0  0  2  0  0  0  0  0  0
  160.4550  208.8690  137.6330 O   0  0  0  0  0  0  0  0  0  0  0  0
  161.2620  208.2380  138.5800 C   0  0  0  0  0  1  0  0  0  0  0  0
  1 13  2  0  0  0  0
  2 18  1  0  0  0  0
  4  5  1  0  0  0  0
  5  9  1  0  0  0  0
  6  7  1  1  0  0  0
  7  9  1  0  0  0  0
 10 21  1  0  0  0  0
 11  6  1  0  0  0  0
 11  4  1  1  0  0  0
 12 14  1  0  0  0  0
 14 16  1  0  0  0  0
 14 21  2  0  0  0  0
 15 30  1  6  0  0  0
 15 17  1  0  0  0  0
 16  2  1  0  0  0  0
 17  6  1  0  0  0  0
 18 19  1  0  0  0  0
 19  8  1  0  0  0  0
 19  3  1  1  0  0  0
 20 10  2  0  0  0  0
 21  1  1  0  0  0  0
 22  8  1  6  0  0  0
 22 11  1  0  0  0  0
 23 13  1  6  0  0  0
 23 22  1  0  0  0  0
 23 15  1  0  0  0  0
 24 12  2  0  0  0  0
 24 20  1  0  0  0  0
 25 30  1  0  0  0  0
 26 28  2  0  0  0  0
 28 27  1  0  0  0  0
 29 26  1  0  0  0  0
 29 25  2  0  0  0  0
 30 27  2  0  0  0  0
 31 26  1  0  0  0  0
 32 31  1  0  0  0  0
 33 32  2  0  0  0  0
 34 12  1  0  0  0  0
 35 34  1  0  0  0  0
 36 39  1  6  0  0  0
 36 38  1  0  0  0  0
 36 35  1  0  0  0  0
 38 37  2  0  0  0  0
 40 41  1  6  0  0  0
 40 39  1  0  0  0  0
 44 51  1  6  0  0  0
 44 40  1  0  0  0  0
 46 44  1  0  0  0  0
 46 45  2  0  0  0  0
 47 49  1  0  0  0  0
 47 53  1  0  0  0  0
 48 54  1  1  0  0  0
 48 50  1  0  0  0  0
 48 52  1  0  0  0  0
 49 42  2  0  0  0  0
 50 43  1  1  0  0  0
 50 46  1  0  0  0  0
 52 49  1  0  0  0  0
 53 44  1  0  0  0  0
 54 55  1  0  0  0  0
M  END
>  <MODEL>
2

>  <REMARK>
 VINA RESULT:      -7.7      1.487      2.487
  Name = 
  11 active torsions:
  status: ('A' for Active; 'I' for Inactive)
    1  A    between atoms: C_6  and  C_20
    2  A    between atoms: C_8  and  C_43
    3  A    between atoms: O_10  and  C_18
    4  A    between atoms: O_10  and  C_32
    5  A    between atoms: O_11  and  C_29
    6  A    between atoms: C_20  and  C_22
    7  A    between atoms: C_22  and  C_43
    8  A    between atoms: C_27  and  O_54
    9  A    between atoms: C_33  and  C_52
   10  A    between atoms: C_43  and  C_51
   11  A    between atoms: C_51  and  O_54
                            x       y       z     vdW  Elec       q    Type
                         _______ _______ _______ _____ _____    ______ ____

>  <TORSDO>
F 11

$$$$
=
 OpenBabel11062408523D

 55 60  0  0  1  0  0  0  0  0999 V2000
  161.2180  211.0540  149.9900 C   0  0  0  0  0  3  0  0  0  0  0  0
  159.9100  214.1750  150.1880 S   0  0  0  0  0  0  0  0  0  0  0  0
  159.2110  213.2730  153.4320 C   0  0  0  0  0  1  0  0  0  0  0  0
  160.2660  210.9020  155.3420 C   0  0  0  0  0  2  0  0  0  0  0  0
  160.1430  210.1780  156.6850 C   0  0  0  0  0  2  0  0  0  0  0  0
  161.3340  208.7990  154.5280 C   0  0  2  0  0  3  0  0  0  0  0  0
  161.0930  208.2650  155.9370 C   0  0  0  0  0  2  0  0  0  0  0  0
  159.4030  211.0650  152.5260 O   0  0  0  0  0  0  0  0  0  0  0  0
  161.2440  209.3130  156.8680 O   0  0  0  0  0  0  0  0  0  0  0  0
  163.2630  211.4040  148.6030 C   0  0  0  0  0  3  0  0  0  0  0  0
  160.2930  209.8630  154.2140 C   0  0  2  0  0  3  0  0  0  0  0  0
  161.9900  213.4700  147.1820 C   0  0  0  0  0  0  0  0  0  0  0  0
  161.7620  210.1730  150.8180 C   0  0  0  0  0  3  0  0  0  0  0  0
  161.3280  212.8410  148.2660 C   0  0  0  0  0  0  0  0  0  0  0  0
  161.7140  208.2760  152.3920 C   0  0  2  0  0  3  0  0  0  0  0  0
  160.0720  213.2900  148.6930 O   0  0  0  0  0  0  0  0  0  0  0  0
  161.1880  207.7780  153.5930 O   0  0  0  0  0  0  0  0  0  0  0  0
  158.9640  212.8480  151.0000 C   0  0  0  0  0  2  0  0  0  0  0  0
  159.6820  212.4140  152.2720 C   0  0  1  0  0  3  0  0  0  0  0  0
  163.9380  212.0740  147.5840 C   0  0  0  0  0  3  0  0  0  0  0  0
  161.9610  211.7880  148.9570 C   0  0  0  0  0  0  0  0  0  0  0  0
  160.5750  210.5000  152.9180 N   0  0  1  0  0  0  0  0  0  0  0  0
  160.9260  209.5040  151.8650 C   0  0  1  0  0  3  0  0  0  0  0  0
  163.3030  213.1020  146.8830 C   0  0  0  0  0  3  0  0  0  0  0  0
  161.4290  207.4750  150.0240 C   0  0  0  0  0  3  0  0  0  0  0  0
  161.6410  205.1200  149.4550 C   0  0  0  0  0  0  0  0  0  0  0  0
  161.9350  205.8490  151.7520 C   0  0  0  0  0  3  0  0  0  0  0  0
  161.9070  204.8260  150.8030 C   0  0  0  0  0  3  0  0  0  0  0  0
  161.3950  206.4470  149.0740 C   0  0  0  0  0  3  0  0  0  0  0  0
  161.7040  207.1800  151.3680 C   0  0  0  0  0  0  0  0  0  0  0  0
  161.6050  204.1160  148.4820 O   0  0  0  0  0  0  0  0  0  0  0  0
  161.5710  202.7570  148.8030 C   0  0  0  0  0  3  0  0  0  0  0  0
  160.5500  202.0100  148.4290 C   0  0  0  0  0  2  0  0  0  0  0  0
  161.3980  214.4410  146.3630 O   0  0  0  0  0  0  0  0  0  0  0  0
  161.4060  214.4240  144.9400 C   0  0  0  0  0  2  0  0  0  0  0  0
  159.9880  214.3020  144.3830 C   0  0  2  0  0  3  0  0  0  0  0  0
  158.3840  212.5660  144.6090 O   0  0  0  0  0  0  0  0  0  0  0  0
  159.1690  213.3150  145.1660 C   0  0  0  0  0  3  0  0  0  0  0  0
  159.9200  214.0640  142.8650 C   0  0  0  0  0  2  0  0  0  0  0  0
  161.0140  213.1250  142.3590 C   0  0  1  0  0  3  0  0  0  0  0  0
  161.7860  212.6460  143.4220 O   0  0  0  0  0  1  0  0  0  0  0  0
  158.7010  212.8400  137.5300 C   0  0  0  0  0  2  0  0  0  0  0  0
  162.0410  209.0160  140.3530 O   0  0  0  0  0  1  0  0  0  0  0  0
  160.4690  211.9780  141.4810 C   0  0  1  0  0  0  0  0  0  0  0  0
  162.6010  211.9120  140.3760 O   0  0  0  0  0  0  0  0  0  0  0  0
  161.5280  211.3560  140.5850 C   0  0  0  0  0  0  0  0  0  0  0  0
  158.9430  211.6950  139.5590 O   0  0  0  0  0  0  0  0  0  0  0  0
  161.1230  210.1060  138.3640 C   0  0  1  0  0  3  0  0  0  0  0  0
  159.3860  211.9860  138.2750 C   0  0  0  0  0  0  0  0  0  0  0  0
  161.2100  210.0520  139.9060 C   0  0  1  0  0  3  0  0  0  0  0  0
  159.9660  210.9830  142.3230 O   0  0  0  0  0  1  0  0  0  0  0  0
  160.7070  211.4720  137.7790 C   0  0  0  0  0  2  0  0  0  0  0  0
  159.2990  212.5420  140.6580 C   0  0  0  0  0  2  0  0  0  0  0  0
  162.3260  209.6900  137.7830 O   0  0  0  0  0  0  0  0  0  0  0  0
  161.9740  208.5680  137.0330 C   0  0  0  0  0  1  0  0  0  0  0  0
  1 13  2  0  0  0  0
  2 18  1  0  0  0  0
  4  5  1  0  0  0  0
  5  9  1  0  0  0  0
  6  7  1  1  0  0  0
  7  9  1  0  0  0  0
 10 21  1  0  0  0  0
 11  6  1  0  0  0  0
 11  4  1  1  0  0  0
 12 14  1  0  0  0  0
 14 16  1  0  0  0  0
 14 21  2  0  0  0  0
 15 30  1  6  0  0  0
 15 17  1  0  0  0  0
 16  2  1  0  0  0  0
 17  6  1  0  0  0  0
 18 19  1  0  0  0  0
 19  8  1  0  0  0  0
 19  3  1  1  0  0  0
 20 10  2  0  0  0  0
 21  1  1  0  0  0  0
 22  8  1  6  0  0  0
 22 11  1  0  0  0  0
 23 13  1  6  0  0  0
 23 15  1  0  0  0  0
 23 22  1  0  0  0  0
 24 12  2  0  0  0  0
 24 20  1  0  0  0  0
 25 30  1  0  0  0  0
 26 28  2  0  0  0  0
 28 27  1  0  0  0  0
 29 26  1  0  0  0  0
 29 25  2  0  0  0  0
 30 27  2  0  0  0  0
 31 32  1  0  0  0  0
 31 26  1  0  0  0  0
 33 32  2  0  0  0  0
 34 12  1  0  0  0  0
 35 34  1  0  0  0  0
 36 39  1  6  0  0  0
 36 35  1  0  0  0  0
 36 38  1  0  0  0  0
 37 38  2  0  0  0  0
 40 39  1  0  0  0  0
 40 41  1  1  0  0  0
 42 49  2  0  0  0  0
 44 51  1  1  0  0  0
 44 40  1  0  0  0  0
 45 46  2  0  0  0  0
 46 44  1  0  0  0  0
 47 53  1  0  0  0  0
 48 54  1  6  0  0  0
 48 50  1  0  0  0  0
 49 47  1  0  0  0  0
 50 43  1  6  0  0  0
 50 46  1  0  0  0  0
 52 49  1  0  0  0  0
 52 48  1  0  0  0  0
 53 44  1  0  0  0  0
 55 54  1  0  0  0  0
M  END
>  <MODEL>
3

>  <REMARK>
 VINA RESULT:      -6.4      1.384      2.035
  Name = 
  11 active torsions:
  status: ('A' for Active; 'I' for Inactive)
    1  A    between atoms: C_6  and  C_20
    2  A    between atoms: C_8  and  C_43
    3  A    between atoms: O_10  and  C_18
    4  A    between atoms: O_10  and  C_32
    5  A    between atoms: O_11  and  C_29
    6  A    between atoms: C_20  and  C_22
    7  A    between atoms: C_22  and  C_43
    8  A    between atoms: C_27  and  O_54
    9  A    between atoms: C_33  and  C_52
   10  A    between atoms: C_43  and  C_51
   11  A    between atoms: C_51  and  O_54
                            x       y       z     vdW  Elec       q    Type
                         _______ _______ _______ _____ _____    ______ ____

>  <TORSDO>
F 11

$$$$
