=
 OpenBabel11062408363D

 55 60  0  0  1  0  0  0  0  0999 V2000
  160.5450  211.8670  153.0070 N   0  0  0  0  0  0  0  0  0  0  0  0
  161.6980  207.4140  151.7410 C   0  0  0  0  0  2  0  0  0  0  0  0
  162.0030  207.6030  148.7270 O   0  0  0  0  0  1  0  0  0  0  0  0
  163.3030  212.1420  147.6640 C   0  0  0  0  0  3  0  0  0  0  0  0
  163.5540  213.1280  146.7040 C   0  0  0  0  0  3  0  0  0  0  0  0
  161.4450  213.4570  148.5240 C   0  0  0  0  0  0  0  0  0  0  0  0
  161.7170  214.4430  147.5660 C   0  0  0  0  0  3  0  0  0  0  0  0
  161.5150  209.9240  148.8780 C   0  0  0  0  0  2  0  0  0  0  0  0
  162.7630  214.2760  146.6560 C   0  0  0  0  0  3  0  0  0  0  0  0
  159.7350  211.8550  155.2790 C   0  0  0  0  0  2  0  0  0  0  0  0
  162.2550  212.2920  148.5820 C   0  0  0  0  0  0  0  0  0  0  0  0
  160.8220  209.1160  154.9850 C   0  0  1  0  0  3  0  0  0  0  0  0
  161.3380  211.4070  151.9110 C   0  0  0  0  0  3  0  0  0  0  0  0
  161.6460  210.3290  154.5630 C   0  0  0  0  0  2  0  0  0  0  0  0
  159.8290  212.4010  150.1180 C   0  0  1  0  0  3  0  0  0  0  0  0
  160.7760  206.9910  152.7030 O   0  0  0  0  0  0  0  0  0  0  0  0
  160.3500  213.7110  149.5280 C   0  0  0  0  0  2  0  0  0  0  0  0
  161.0170  208.3480  150.7570 C   0  0  0  0  0  2  0  0  0  0  0  0
  161.9680  208.6750  149.6170 C   0  0  1  0  0  3  0  0  0  0  0  0
  158.9390  210.6260  155.7210 C   0  0  0  0  0  2  0  0  0  0  0  0
  161.5290  206.2600  153.6260 C   0  0  1  0  0  3  0  0  0  0  0  0
  160.7020  211.4430  154.2220 C   0  0  0  0  0  0  0  0  0  0  0  0
  162.0030  211.1860  149.5850 C   0  0  1  0  0  3  0  0  0  0  0  0
  161.0180  211.6160  150.6300 C   0  0  0  0  0  0  0  0  0  0  0  0
  161.1500  206.6450  155.0470 C   0  0  0  0  0  2  0  0  0  0  0  0
  161.7500  207.9940  155.4130 C   0  0  0  0  0  2  0  0  0  0  0  0
  159.8720  209.4830  156.1330 C   0  0  0  0  0  2  0  0  0  0  0  0
  158.9150  213.6630  152.1180 C   0  0  0  0  0  2  0  0  0  0  0  0
  156.6050  214.2090  152.3090 C   0  0  2  0  0  3  0  0  0  0  0  0
  157.3860  212.9680  150.2950 C   0  0  0  0  0  2  0  0  0  0  0  0
  156.2210  213.1690  151.2540 C   0  0  0  0  0  2  0  0  0  0  0  0
  157.7870  213.7580  153.0470 N   0  0  0  0  0  2  0  0  0  0  0  0
  158.6430  212.5810  151.0750 C   0  0  1  0  0  3  0  0  0  0  0  0
  155.4460  214.4010  153.2740 C   0  0  0  0  0  3  0  0  0  0  0  0
  155.9510  214.2610  154.6970 C   0  0  0  0  0  2  0  0  0  0  0  0
  155.2020  213.1190  154.0460 C   0  0  0  0  0  2  0  0  0  0  0  0
  161.2950  204.7700  153.4310 C   0  0  0  0  0  2  0  0  0  0  0  0
  159.7610  204.4200  151.0540 O   0  0  0  0  0  0  0  0  0  0  0  0
  160.9890  204.1290  151.0010 C   0  0  0  0  0  0  0  0  0  0  0  0
  161.8280  204.3520  152.1400 N   0  0  0  0  0  2  0  0  0  0  0  0
  161.5490  203.5830  149.8390 O   0  0  0  0  0  0  0  0  0  0  0  0
  160.8070  202.9430  148.7910 C   0  0  2  0  0  3  0  0  0  0  0  0
  160.5810  201.4430  149.0540 C   0  0  0  0  0  3  0  0  0  0  0  0
  161.5540  200.9640  149.9330 O   0  0  0  0  0  1  0  0  0  0  0  0
  159.3220  201.2190  149.6070 O   0  0  0  0  0  1  0  0  0  0  0  0
  162.8100  202.9870  147.2560 C   0  0  0  0  0  1  0  0  0  0  0  0
  161.3190  203.3220  147.3700 C   0  0  2  0  0  0  0  0  0  0  0  0
  160.2950  205.4150  148.0870 O   0  0  0  0  0  1  0  0  0  0  0  0
  161.1350  204.8390  147.1260 C   0  0  2  0  0  3  0  0  0  0  0  0
  160.6660  205.1940  145.7070 C   0  0  1  0  0  3  0  0  0  0  0  0
  160.2350  206.5240  145.6300 O   0  0  0  0  0  1  0  0  0  0  0  0
  161.7540  204.9270  144.6760 C   0  0  0  0  0  2  0  0  0  0  0  0
  161.6470  205.8060  143.5960 O   0  0  0  0  0  1  0  0  0  0  0  0
  160.5280  202.5820  146.2760 C   0  0  0  0  0  2  0  0  0  0  0  0
  160.8950  201.2380  146.1720 O   0  0  0  0  0  1  0  0  0  0  0  0
  1 22  2  0  0  0  0
  2 16  1  0  0  0  0
  4 11  1  0  0  0  0
  5  4  2  0  0  0  0
  6 11  2  0  0  0  0
  6 17  1  0  0  0  0
  7  6  1  0  0  0  0
  8 19  1  0  0  0  0
  9  5  1  0  0  0  0
  9  7  2  0  0  0  0
 10 20  1  0  0  0  0
 11 23  1  0  0  0  0
 12 14  1  1  0  0  0
 12 26  1  0  0  0  0
 12 27  1  0  0  0  0
 13  1  1  0  0  0  0
 15 17  1  1  0  0  0
 15 24  1  0  0  0  0
 15 33  1  0  0  0  0
 16 21  1  0  0  0  0
 18  2  1  0  0  0  0
 19  3  1  6  0  0  0
 19 18  1  0  0  0  0
 20 27  1  0  0  0  0
 21 37  1  1  0  0  0
 21 25  1  0  0  0  0
 22 14  1  0  0  0  0
 22 10  1  0  0  0  0
 23  8  1  6  0  0  0
 23 24  1  0  0  0  0
 24 13  2  0  0  0  0
 25 26  1  0  0  0  0
 28 32  1  0  0  0  0
 29 32  1  0  0  0  0
 29 34  1  1  0  0  0
 30 31  1  0  0  0  0
 31 29  1  0  0  0  0
 33 30  1  6  0  0  0
 33 28  1  0  0  0  0
 34 36  1  0  0  0  0
 34 35  1  0  0  0  0
 36 35  1  0  0  0  0
 39 38  2  0  0  0  0
 39 40  1  0  0  0  0
 40 37  1  0  0  0  0
 41 39  1  0  0  0  0
 42 43  1  1  0  0  0
 42 41  1  0  0  0  0
 43 45  1  0  0  0  0
 43 44  1  0  0  0  0
 47 46  1  6  0  0  0
 47 42  1  0  0  0  0
 49 47  1  0  0  0  0
 49 48  1  1  0  0  0
 50 51  1  1  0  0  0
 50 49  1  0  0  0  0
 52 50  1  0  0  0  0
 53 52  1  0  0  0  0
 54 47  1  0  0  0  0
 55 54  1  0  0  0  0
M  END
>  <MODEL>
1

>  <REMARK>
 VINA RESULT:      -4.0      0.000      0.000
  Name = 
  12 active torsions:
  status: ('A' for Active; 'I' for Inactive)
    1  A    between atoms: C_1  and  C_53
    2  A    between atoms: C_6  and  C_14
    3  A    between atoms: C_8  and  N_22
    4  A    between atoms: C_8  and  C_43
    5  A    between atoms: C_10  and  C_32
    6  A    between atoms: C_11  and  C_29
    7  A    between atoms: C_14  and  C_38
    8  A    between atoms: C_14  and  C_53
    9  A    between atoms: C_20  and  O_42
   10  A    between atoms: C_29  and  C_38
   11  A    between atoms: C_33  and  C_52
   12  A    between atoms: O_42  and  C_53
                            x       y       z     vdW  Elec       q    Type
                         _______ _______ _______ _____ _____    ______ ____

>  <TORSDO>
F 12

$$$$
