=
 OpenBabel11062410113D

 43 49  0  0  1  0  0  0  0  0999 V2000
  161.0190  201.5460  148.2990 C   0  0  0  0  0  0  0  0  0  0  0  0
  161.3100  205.2710  151.7100 C   0  0  0  0  0  0  0  0  0  0  0  0
  161.7040  207.5970  150.2340 C   0  0  0  0  0  0  0  0  0  0  0  0
  161.0660  202.8210  150.3540 C   0  0  0  0  0  0  0  0  0  0  0  0
  161.2050  202.7210  147.5630 C   0  0  0  0  0  3  0  0  0  0  0  0
  160.9060  200.3290  147.6450 O   0  0  0  0  0  1  0  0  0  0  0  0
  161.2560  204.0140  149.6170 C   0  0  0  0  0  0  0  0  0  0  0  0
  160.9490  201.5970  149.6920 C   0  0  0  0  0  3  0  0  0  0  0  0
  161.3230  203.9490  148.2180 C   0  0  0  0  0  3  0  0  0  0  0  0
  161.5700  206.4000  149.6060 N   0  0  0  0  0  0  0  0  0  0  0  0
  161.3790  205.2400  150.2950 C   0  0  0  0  0  0  0  0  0  0  0  0
  161.1170  204.0780  152.4210 C   0  0  0  0  0  3  0  0  0  0  0  0
  161.4360  206.5060  152.3710 C   0  0  0  0  0  0  0  0  0  0  0  0
  161.6380  207.6690  151.6260 C   0  0  0  0  0  3  0  0  0  0  0  0
  160.9960  202.8620  151.7470 C   0  0  0  0  0  3  0  0  0  0  0  0
  161.4020  206.6110  153.8630 C   0  0  0  0  0  2  0  0  0  0  0  0
  161.0250  207.6310  156.6350 C   0  0  0  0  0  2  0  0  0  0  0  0
  161.3590  209.0400  156.4010 N   0  0  0  0  0  0  0  0  0  0  0  0
  160.4720  208.8150  154.0760 C   0  0  0  0  0  2  0  0  0  0  0  0
  159.9320  207.1160  155.6900 C   0  0  0  0  0  2  0  0  0  0  0  0
  160.2360  207.3840  154.2830 N   0  0  0  0  0  0  0  0  0  0  0  0
  161.5790  209.3640  154.9870 C   0  0  0  0  0  2  0  0  0  0  0  0
  160.7790  211.4440  156.8310 C   0  0  0  0  0  1  0  0  0  0  0  0
  160.4510  209.9750  157.0800 C   0  0  0  0  0  2  0  0  0  0  0  0
  161.8990  208.8350  149.4350 C   0  0  0  0  0  2  0  0  0  0  0  0
  162.3320  209.9160  150.3040 N   0  0  0  0  0  2  0  0  0  0  0  0
  161.7590  211.1430  149.7740 C   0  0  0  0  0  2  0  0  0  0  0  0
  163.1820  212.4430  148.3850 F   0  0  0  0  0  0  0  0  0  0  0  0
  162.2810  211.3950  148.3670 C   0  0  2  0  0  3  0  0  0  0  0  0
  161.1290  211.7460  147.4410 C   0  0  0  0  0  2  0  0  0  0  0  0
  160.8890  213.1850  147.4520 N   0  0  0  0  0  0  0  0  0  0  0  0
  159.7270  214.4530  145.7330 C   0  0  2  0  0  3  0  0  0  0  0  0
  160.0200  213.1310  145.0240 C   0  0  2  0  0  3  0  0  0  0  0  0
  159.5270  213.4110  147.9250 C   0  0  0  0  0  3  0  0  0  0  0  0
  160.9790  213.6900  146.0810 C   0  0  2  0  0  0  0  0  0  0  0  0
  162.2410  214.4530  145.7050 C   0  0  0  0  0  1  0  0  0  0  0  0
  158.7770  214.2210  146.8840 C   0  0  0  0  0  3  0  0  0  0  0  0
  160.5070  213.3880  143.6750 N   0  0  2  0  0  0  0  0  0  0  0  0
  161.4460  212.2550  141.7260 C   0  0  0  0  0  3  0  0  0  0  0  0
  159.8180  214.0160  141.4280 C   0  0  0  0  0  2  0  0  0  0  0  0
  160.8210  213.0790  140.9510 N   0  0  0  0  0  0  0  0  0  0  0  0
  159.3430  213.6650  142.8380 C   0  0  0  0  0  2  0  0  0  0  0  0
  161.1000  212.1420  143.1870 C   0  0  0  0  0  2  0  0  0  0  0  0
  1  8  1  0  0  0  0
  2 13  1  0  0  0  0
  2 12  1  0  0  0  0
  3 14  1  0  0  0  0
  4 15  1  0  0  0  0
  5  9  1  0  0  0  0
  5  1  2  0  0  0  0
  6  1  1  0  0  0  0
  7 11  1  0  0  0  0
  7  4  1  0  0  0  0
  8  4  2  0  0  0  0
  9  7  2  0  0  0  0
 10  3  2  0  0  0  0
 10 11  1  0  0  0  0
 11  2  2  0  0  0  0
 13 16  1  0  0  0  0
 14 13  2  0  0  0  0
 15 12  2  0  0  0  0
 16 21  1  0  0  0  0
 18 17  1  0  0  0  0
 18 24  1  0  0  0  0
 19 21  1  0  0  0  0
 19 22  1  0  0  0  0
 20 17  1  0  0  0  0
 21 20  1  0  0  0  0
 22 18  1  0  0  0  0
 23 24  1  0  0  0  0
 25  3  1  0  0  0  0
 25 26  1  0  0  0  0
 27 26  1  0  0  0  0
 29 28  1  1  0  0  0
 29 27  1  0  0  0  0
 30 31  1  0  0  0  0
 30 29  1  0  0  0  0
 31 34  1  0  0  0  0
 32 35  1  0  0  0  0
 32 37  1  1  0  0  0
 33 38  1  6  0  0  0
 33 32  1  0  0  0  0
 33 35  1  0  0  0  0
 35 36  1  6  0  0  0
 35 31  1  0  0  0  0
 37 34  2  0  0  0  0
 38 42  1  6  0  0  0
 39 43  1  0  0  0  0
 40 42  1  0  0  0  0
 41 40  1  0  0  0  0
 41 39  2  0  0  0  0
 43 38  1  0  0  0  0
M  END
>  <MODEL>
1

>  <REMARK>
 VINA RESULT:      -9.2      0.000      0.000
  Name = 
  10 active torsions:
  status: ('A' for Active; 'I' for Inactive)
    1  A    between atoms: C_1  and  C_34
    2  A    between atoms: C_1  and  N_35
    3  A    between atoms: C_2  and  N_7
    4  A    between atoms: C_2  and  C_13
    5  A    between atoms: C_3  and  N_4
    6  A    between atoms: C_3  and  C_12
    7  A    between atoms: N_7  and  C_17
    8  A    between atoms: N_11  and  C_14
    9  A    between atoms: C_12  and  C_17
   10  A    between atoms: N_19  and  C_37
                            x       y       z     vdW  Elec       q    Type
                         _______ _______ _______ _____ _____    ______ ____

>  <TORSDO>
F 10

$$$$
=
 OpenBabel11062410113D

 43 49  0  0  1  0  0  0  0  0999 V2000
  160.4650  208.0040  155.4660 C   0  0  0  0  0  0  0  0  0  0  0  0
  161.7330  207.5990  150.5850 C   0  0  0  0  0  0  0  0  0  0  0  0
  161.8520  210.2100  149.6320 C   0  0  0  0  0  0  0  0  0  0  0  0
  161.0650  207.1590  153.2800 C   0  0  0  0  0  0  0  0  0  0  0  0
  160.5390  209.3140  154.9840 C   0  0  0  0  0  3  0  0  0  0  0  0
  160.1290  207.7700  156.7910 O   0  0  0  0  0  1  0  0  0  0  0  0
  161.1400  208.4830  152.7830 C   0  0  0  0  0  0  0  0  0  0  0  0
  160.7290  206.9280  154.6160 C   0  0  0  0  0  3  0  0  0  0  0  0
  160.8750  209.5530  153.6480 C   0  0  0  0  0  3  0  0  0  0  0  0
  161.5440  209.9680  150.9330 N   0  0  0  0  0  0  0  0  0  0  0  0
  161.4730  208.7020  151.4340 C   0  0  0  0  0  0  0  0  0  0  0  0
  161.6570  206.2950  151.0990 C   0  0  0  0  0  3  0  0  0  0  0  0
  162.0640  207.8380  149.2390 C   0  0  0  0  0  0  0  0  0  0  0  0
  162.1180  209.1500  148.7660 C   0  0  0  0  0  3  0  0  0  0  0  0
  161.3260  206.0780  152.4370 C   0  0  0  0  0  3  0  0  0  0  0  0
  162.3210  206.7210  148.2780 C   0  0  0  0  0  2  0  0  0  0  0  0
  161.7820  205.6180  145.5650 C   0  0  0  0  0  2  0  0  0  0  0  0
  161.9390  204.1920  145.8690 N   0  0  0  0  0  0  0  0  0  0  0  0
  161.1190  204.6440  148.1850 C   0  0  0  0  0  2  0  0  0  0  0  0
  160.7740  206.3140  146.4900 C   0  0  0  0  0  2  0  0  0  0  0  0
  161.0610  206.0810  147.9070 N   0  0  0  0  0  0  0  0  0  0  0  0
  162.1360  203.9150  147.2970 C   0  0  0  0  0  2  0  0  0  0  0  0
  160.7770  201.9670  145.8850 C   0  0  0  0  0  1  0  0  0  0  0  0
  160.9120  203.3460  145.2460 C   0  0  0  0  0  2  0  0  0  0  0  0
  161.9270  211.6100  149.1380 C   0  0  0  0  0  2  0  0  0  0  0  0
  161.6800  211.6380  147.7060 N   0  0  0  0  0  2  0  0  0  0  0  0
  161.5680  213.0360  147.3210 C   0  0  0  0  0  2  0  0  0  0  0  0
  159.9560  211.9690  145.9400 F   0  0  0  0  0  0  0  0  0  0  0  0
  160.4480  213.2070  146.3060 C   0  0  2  0  0  3  0  0  0  0  0  0
  160.9720  213.9200  145.0710 C   0  0  0  0  0  2  0  0  0  0  0  0
  161.6890  212.9850  144.2110 N   0  0  0  0  0  0  0  0  0  0  0  0
  161.7870  213.0640  141.7830 C   0  0  2  0  0  3  0  0  0  0  0  0
  160.6200  213.9980  142.0950 C   0  0  2  0  0  3  0  0  0  0  0  0
  162.9640  213.5930  143.8480 C   0  0  0  0  0  3  0  0  0  0  0  0
  160.9180  212.7850  142.9820 C   0  0  2  0  0  0  0  0  0  0  0  0
  160.1540  211.4770  142.8480 C   0  0  0  0  0  1  0  0  0  0  0  0
  163.0700  213.6380  142.3350 C   0  0  0  0  0  3  0  0  0  0  0  0
  159.5120  213.7320  141.1850 N   0  0  2  0  0  0  0  0  0  0  0  0
  157.2080  214.3920  140.7210 C   0  0  0  0  0  3  0  0  0  0  0  0
  158.7440  214.0180  138.8950 C   0  0  0  0  0  2  0  0  0  0  0  0
  157.4230  214.2410  139.4560 N   0  0  0  0  0  0  0  0  0  0  0  0
  159.8480  214.3420  139.9020 C   0  0  0  0  0  2  0  0  0  0  0  0
  158.3460  214.4440  141.7070 C   0  0  0  0  0  2  0  0  0  0  0  0
  1  6  1  0  0  0  0
  2 12  1  0  0  0  0
  2 11  1  0  0  0  0
  3 10  1  0  0  0  0
  4  8  1  0  0  0  0
  5  1  1  0  0  0  0
  7  4  2  0  0  0  0
  7  9  1  0  0  0  0
  8  1  2  0  0  0  0
  9  5  2  0  0  0  0
 10 11  2  0  0  0  0
 11  7  1  0  0  0  0
 12 15  2  0  0  0  0
 13  2  2  0  0  0  0
 14 13  1  0  0  0  0
 14  3  2  0  0  0  0
 15  4  1  0  0  0  0
 16 13  1  0  0  0  0
 17 18  1  0  0  0  0
 17 20  1  0  0  0  0
 18 22  1  0  0  0  0
 20 21  1  0  0  0  0
 21 19  1  0  0  0  0
 21 16  1  0  0  0  0
 22 19  1  0  0  0  0
 24 18  1  0  0  0  0
 24 23  1  0  0  0  0
 25  3  1  0  0  0  0
 26 25  1  0  0  0  0
 27 26  1  0  0  0  0
 29 28  1  6  0  0  0
 29 27  1  0  0  0  0
 30 29  1  0  0  0  0
 31 30  1  0  0  0  0
 32 33  1  0  0  0  0
 32 37  1  1  0  0  0
 32 35  1  0  0  0  0
 33 38  1  6  0  0  0
 33 35  1  0  0  0  0
 34 31  1  0  0  0  0
 35 36  1  6  0  0  0
 35 31  1  0  0  0  0
 37 34  2  0  0  0  0
 38 42  1  6  0  0  0
 38 43  1  0  0  0  0
 39 43  1  0  0  0  0
 40 41  1  0  0  0  0
 40 42  1  0  0  0  0
 41 39  2  0  0  0  0
M  END
>  <MODEL>
2

>  <REMARK>
 VINA RESULT:      -8.9      2.684      6.523
  Name = 
  10 active torsions:
  status: ('A' for Active; 'I' for Inactive)
    1  A    between atoms: C_1  and  C_34
    2  A    between atoms: C_1  and  N_35
    3  A    between atoms: C_2  and  N_7
    4  A    between atoms: C_2  and  C_13
    5  A    between atoms: C_3  and  N_4
    6  A    between atoms: C_3  and  C_12
    7  A    between atoms: N_7  and  C_17
    8  A    between atoms: N_11  and  C_14
    9  A    between atoms: C_12  and  C_17
   10  A    between atoms: N_19  and  C_37
                            x       y       z     vdW  Elec       q    Type
                         _______ _______ _______ _____ _____    ______ ____

>  <TORSDO>
F 10

$$$$
=
 OpenBabel11062410113D

 43 49  0  0  1  0  0  0  0  0999 V2000
  160.4790  207.9000  155.5400 C   0  0  0  0  0  0  0  0  0  0  0  0
  161.6960  207.3300  150.6630 C   0  0  0  0  0  0  0  0  0  0  0  0
  161.9110  209.9110  149.6470 C   0  0  0  0  0  0  0  0  0  0  0  0
  161.0310  206.9810  153.3710 C   0  0  0  0  0  0  0  0  0  0  0  0
  160.6010  209.1940  155.0250 C   0  0  0  0  0  3  0  0  0  0  0  0
  160.1430  207.7110  156.8720 O   0  0  0  0  0  1  0  0  0  0  0  0
  161.1540  208.2880  152.8420 C   0  0  0  0  0  0  0  0  0  0  0  0
  160.6950  206.7950  154.7140 C   0  0  0  0  0  3  0  0  0  0  0  0
  160.9370  209.3880  153.6830 C   0  0  0  0  0  3  0  0  0  0  0  0
  161.6020  209.7120  150.9540 N   0  0  0  0  0  0  0  0  0  0  0  0
  161.4860  208.4620  151.4870 C   0  0  0  0  0  0  0  0  0  0  0  0
  161.5740  206.0430  151.2080 C   0  0  0  0  0  3  0  0  0  0  0  0
  162.0270  207.5240  149.3090 C   0  0  0  0  0  0  0  0  0  0  0  0
  162.1290  208.8210  148.8040 C   0  0  0  0  0  3  0  0  0  0  0  0
  161.2430  205.8710  152.5520 C   0  0  0  0  0  3  0  0  0  0  0  0
  162.2350  206.3750  148.3730 C   0  0  0  0  0  2  0  0  0  0  0  0
  161.5030  205.6560  145.5780 C   0  0  0  0  0  2  0  0  0  0  0  0
  161.6660  204.2010  145.6720 N   0  0  0  0  0  0  0  0  0  0  0  0
  161.0080  204.3320  148.0790 C   0  0  0  0  0  2  0  0  0  0  0  0
  160.5670  206.2180  146.6560 C   0  0  0  0  0  2  0  0  0  0  0  0
  160.9460  205.7930  148.0050 N   0  0  0  0  0  0  0  0  0  0  0  0
  161.9560  203.7310  147.0320 C   0  0  0  0  0  2  0  0  0  0  0  0
  160.5450  201.9730  145.3930 C   0  0  0  0  0  1  0  0  0  0  0  0
  160.5920  203.4500  145.0100 C   0  0  0  0  0  2  0  0  0  0  0  0
  162.0370  211.2950  149.1180 C   0  0  0  0  0  2  0  0  0  0  0  0
  161.3120  211.4090  147.8640 N   0  0  0  0  0  2  0  0  0  0  0  0
  161.2590  212.8230  147.5300 C   0  0  0  0  0  2  0  0  0  0  0  0
  159.7830  211.9190  145.9030 F   0  0  0  0  0  0  0  0  0  0  0  0
  160.5790  213.0140  146.1830 C   0  0  2  0  0  3  0  0  0  0  0  0
  161.6240  213.1630  145.0900 C   0  0  0  0  0  2  0  0  0  0  0  0
  161.2470  214.2320  144.1710 N   0  0  0  0  0  0  0  0  0  0  0  0
  160.3470  213.9400  141.9320 C   0  0  2  0  0  3  0  0  0  0  0  0
  160.9070  212.5530  142.2430 C   0  0  2  0  0  3  0  0  0  0  0  0
  159.8020  214.4130  144.2570 C   0  0  0  0  0  3  0  0  0  0  0  0
  161.5690  213.8160  142.8040 C   0  0  2  0  0  0  0  0  0  0  0  0
  162.8000  214.4370  142.1620 C   0  0  0  0  0  1  0  0  0  0  0  0
  159.2070  214.2590  142.8700 C   0  0  0  0  0  3  0  0  0  0  0  0
  161.6340  212.0390  141.0900 N   0  0  2  0  0  0  0  0  0  0  0  0
  161.8730  210.0420  139.7050 C   0  0  0  0  0  3  0  0  0  0  0  0
  161.8670  212.2280  138.6750 C   0  0  0  0  0  2  0  0  0  0  0  0
  162.0650  210.7890  138.6670 N   0  0  0  0  0  0  0  0  0  0  0  0
  161.0770  212.6830  139.9030 C   0  0  0  0  0  2  0  0  0  0  0  0
  161.3270  210.6120  140.9870 C   0  0  0  0  0  2  0  0  0  0  0  0
  1  6  1  0  0  0  0
  2 12  1  0  0  0  0
  2 11  1  0  0  0  0
  3 10  1  0  0  0  0
  4  8  1  0  0  0  0
  5  1  1  0  0  0  0
  7  4  2  0  0  0  0
  7  9  1  0  0  0  0
  8  1  2  0  0  0  0
  9  5  2  0  0  0  0
 10 11  2  0  0  0  0
 11  7  1  0  0  0  0
 12 15  2  0  0  0  0
 13  2  2  0  0  0  0
 14 13  1  0  0  0  0
 14  3  2  0  0  0  0
 15  4  1  0  0  0  0
 16 13  1  0  0  0  0
 17 18  1  0  0  0  0
 17 20  1  0  0  0  0
 18 22  1  0  0  0  0
 20 21  1  0  0  0  0
 21 19  1  0  0  0  0
 21 16  1  0  0  0  0
 22 19  1  0  0  0  0
 24 23  1  0  0  0  0
 24 18  1  0  0  0  0
 25  3  1  0  0  0  0
 26 25  1  0  0  0  0
 27 26  1  0  0  0  0
 29 28  1  6  0  0  0
 29 27  1  0  0  0  0
 30 29  1  0  0  0  0
 31 34  1  0  0  0  0
 31 30  1  0  0  0  0
 32 33  1  0  0  0  0
 32 35  1  0  0  0  0
 32 37  1  1  0  0  0
 33 38  1  6  0  0  0
 33 35  1  0  0  0  0
 35 36  1  6  0  0  0
 35 31  1  0  0  0  0
 37 34  2  0  0  0  0
 38 42  1  6  0  0  0
 39 43  1  0  0  0  0
 40 42  1  0  0  0  0
 41 40  1  0  0  0  0
 41 39  2  0  0  0  0
 43 38  1  0  0  0  0
M  END
>  <MODEL>
3

>  <REMARK>
 VINA RESULT:      -8.8      2.655      6.411
  Name = 
  10 active torsions:
  status: ('A' for Active; 'I' for Inactive)
    1  A    between atoms: C_1  and  C_34
    2  A    between atoms: C_1  and  N_35
    3  A    between atoms: C_2  and  N_7
    4  A    between atoms: C_2  and  C_13
    5  A    between atoms: C_3  and  N_4
    6  A    between atoms: C_3  and  C_12
    7  A    between atoms: N_7  and  C_17
    8  A    between atoms: N_11  and  C_14
    9  A    between atoms: C_12  and  C_17
   10  A    between atoms: N_19  and  C_37
                            x       y       z     vdW  Elec       q    Type
                         _______ _______ _______ _____ _____    ______ ____

>  <TORSDO>
F 10

$$$$
=
 OpenBabel11062410113D

 43 49  0  0  1  0  0  0  0  0999 V2000
  160.9650  203.3220  149.0810 C   0  0  0  0  0  0  0  0  0  0  0  0
  161.5310  207.7890  151.3870 C   0  0  0  0  0  0  0  0  0  0  0  0
  162.0130  209.6190  149.3480 C   0  0  0  0  0  0  0  0  0  0  0  0
  161.1260  205.0870  150.7280 C   0  0  0  0  0  0  0  0  0  0  0  0
  161.1950  204.2490  148.0610 C   0  0  0  0  0  3  0  0  0  0  0  0
  160.7720  201.9840  148.7730 O   0  0  0  0  0  1  0  0  0  0  0  0
  161.3620  206.0310  149.7000 C   0  0  0  0  0  0  0  0  0  0  0  0
  160.9300  203.7400  150.4130 C   0  0  0  0  0  3  0  0  0  0  0  0
  161.3930  205.5980  148.3680 C   0  0  0  0  0  3  0  0  0  0  0  0
  161.8020  208.3090  149.0580 N   0  0  0  0  0  0  0  0  0  0  0  0
  161.5650  207.3830  150.0310 C   0  0  0  0  0  0  0  0  0  0  0  0
  161.2910  206.8370  152.3900 C   0  0  0  0  0  3  0  0  0  0  0  0
  161.7370  209.1450  151.6990 C   0  0  0  0  0  0  0  0  0  0  0  0
  161.9830  210.0580  150.6710 C   0  0  0  0  0  3  0  0  0  0  0  0
  161.0910  205.4960  152.0610 C   0  0  0  0  0  3  0  0  0  0  0  0
  161.7440  209.6400  153.1110 C   0  0  0  0  0  2  0  0  0  0  0  0
  160.9450  211.0550  155.6060 C   0  0  0  0  0  2  0  0  0  0  0  0
  160.2170  212.1770  155.0020 N   0  0  0  0  0  0  0  0  0  0  0  0
  159.5800  210.6810  153.1060 C   0  0  0  0  0  2  0  0  0  0  0  0
  160.4370  209.6910  155.1220 C   0  0  0  0  0  2  0  0  0  0  0  0
  160.3910  209.5960  153.6610 N   0  0  0  0  0  0  0  0  0  0  0  0
  160.0720  212.0660  153.5460 C   0  0  0  0  0  2  0  0  0  0  0  0
  158.4070  213.8780  155.3590 C   0  0  0  0  0  1  0  0  0  0  0  0
  158.9610  212.4960  155.6920 C   0  0  0  0  0  2  0  0  0  0  0  0
  162.2550  210.5900  148.2490 C   0  0  0  0  0  2  0  0  0  0  0  0
  161.7070  211.8870  148.6110 N   0  0  0  0  0  2  0  0  0  0  0  0
  160.7970  212.2760  147.5460 C   0  0  0  0  0  2  0  0  0  0  0  0
  161.6400  214.3110  146.6540 F   0  0  0  0  0  0  0  0  0  0  0  0
  161.5700  212.9500  146.4220 C   0  0  2  0  0  3  0  0  0  0  0  0
  160.8730  212.7070  145.0940 C   0  0  0  0  0  2  0  0  0  0  0  0
  160.8280  213.9380  144.3120 N   0  0  0  0  0  0  0  0  0  0  0  0
  160.3870  214.0990  141.9270 C   0  0  2  0  0  3  0  0  0  0  0  0
  160.6990  212.6140  142.1020 C   0  0  2  0  0  3  0  0  0  0  0  0
  159.4290  214.3200  144.1540 C   0  0  0  0  0  3  0  0  0  0  0  0
  161.3760  213.6730  142.9800 C   0  0  2  0  0  0  0  0  0  0  0  0
  162.7800  214.1850  142.6940 C   0  0  0  0  0  1  0  0  0  0  0  0
  159.1230  214.4530  142.6740 C   0  0  0  0  0  3  0  0  0  0  0  0
  161.5850  212.1620  141.0370 N   0  0  2  0  0  0  0  0  0  0  0  0
  162.0870  210.2120  139.6550 C   0  0  0  0  0  3  0  0  0  0  0  0
  162.0980  212.4200  138.6730 C   0  0  0  0  0  2  0  0  0  0  0  0
  162.3660  210.9920  138.6630 N   0  0  0  0  0  0  0  0  0  0  0  0
  161.1450  212.8080  139.8030 C   0  0  0  0  0  2  0  0  0  0  0  0
  161.3630  210.7260  140.8720 C   0  0  0  0  0  2  0  0  0  0  0  0
  1  8  1  0  0  0  0
  2 13  1  0  0  0  0
  2 12  1  0  0  0  0
  3 14  1  0  0  0  0
  4 15  1  0  0  0  0
  5  9  1  0  0  0  0
  5  1  2  0  0  0  0
  6  1  1  0  0  0  0
  7 11  1  0  0  0  0
  7  4  1  0  0  0  0
  8  4  2  0  0  0  0
  9  7  2  0  0  0  0
 10  3  2  0  0  0  0
 10 11  1  0  0  0  0
 11  2  2  0  0  0  0
 13 16  1  0  0  0  0
 14 13  2  0  0  0  0
 15 12  2  0  0  0  0
 16 21  1  0  0  0  0
 18 17  1  0  0  0  0
 18 24  1  0  0  0  0
 19 22  1  0  0  0  0
 19 21  1  0  0  0  0
 20 17  1  0  0  0  0
 21 20  1  0  0  0  0
 22 18  1  0  0  0  0
 23 24  1  0  0  0  0
 25 26  1  0  0  0  0
 25  3  1  0  0  0  0
 27 26  1  0  0  0  0
 29 28  1  1  0  0  0
 29 27  1  0  0  0  0
 30 29  1  0  0  0  0
 31 30  1  0  0  0  0
 32 33  1  0  0  0  0
 32 37  1  1  0  0  0
 32 35  1  0  0  0  0
 33 38  1  6  0  0  0
 33 35  1  0  0  0  0
 34 31  1  0  0  0  0
 35 36  1  6  0  0  0
 35 31  1  0  0  0  0
 37 34  2  0  0  0  0
 38 42  1  6  0  0  0
 39 43  1  0  0  0  0
 40 42  1  0  0  0  0
 41 40  1  0  0  0  0
 41 39  2  0  0  0  0
 43 38  1  0  0  0  0
M  END
>  <MODEL>
4

>  <REMARK>
 VINA RESULT:      -8.7      1.858      2.895
  Name = 
  10 active torsions:
  status: ('A' for Active; 'I' for Inactive)
    1  A    between atoms: C_1  and  C_34
    2  A    between atoms: C_1  and  N_35
    3  A    between atoms: C_2  and  N_7
    4  A    between atoms: C_2  and  C_13
    5  A    between atoms: C_3  and  N_4
    6  A    between atoms: C_3  and  C_12
    7  A    between atoms: N_7  and  C_17
    8  A    between atoms: N_11  and  C_14
    9  A    between atoms: C_12  and  C_17
   10  A    between atoms: N_19  and  C_37
                            x       y       z     vdW  Elec       q    Type
                         _______ _______ _______ _____ _____    ______ ____

>  <TORSDO>
F 10

$$$$
=
 OpenBabel11062410113D

 43 49  0  0  1  0  0  0  0  0999 V2000
  161.2350  204.3180  146.5520 C   0  0  0  0  0  0  0  0  0  0  0  0
  161.8270  207.7030  150.2650 C   0  0  0  0  0  0  0  0  0  0  0  0
  161.9820  210.1740  148.9960 C   0  0  0  0  0  0  0  0  0  0  0  0
  161.4900  205.3880  148.7070 C   0  0  0  0  0  0  0  0  0  0  0  0
  161.3010  205.5650  145.9220 C   0  0  0  0  0  3  0  0  0  0  0  0
  161.0780  203.1660  145.7960 O   0  0  0  0  0  1  0  0  0  0  0  0
  161.5600  206.6530  148.0760 C   0  0  0  0  0  0  0  0  0  0  0  0
  161.3280  204.2300  147.9430 C   0  0  0  0  0  3  0  0  0  0  0  0
  161.4630  206.7270  146.6800 C   0  0  0  0  0  3  0  0  0  0  0  0
  161.8080  209.0390  148.2700 N   0  0  0  0  0  0  0  0  0  0  0  0
  161.7300  207.8110  148.8570 C   0  0  0  0  0  0  0  0  0  0  0  0
  161.7510  206.4390  150.8700 C   0  0  0  0  0  3  0  0  0  0  0  0
  161.9970  208.8720  151.0290 C   0  0  0  0  0  0  0  0  0  0  0  0
  162.0790  210.1080  150.3860 C   0  0  0  0  0  3  0  0  0  0  0  0
  161.5830  205.2910  150.0960 C   0  0  0  0  0  3  0  0  0  0  0  0
  162.1370  208.8300  152.5180 C   0  0  0  0  0  2  0  0  0  0  0  0
  161.3260  207.2880  154.9330 C   0  0  0  0  0  2  0  0  0  0  0  0
  161.4450  208.3580  155.9300 N   0  0  0  0  0  0  0  0  0  0  0  0
  160.8400  210.0120  154.1580 C   0  0  0  0  0  2  0  0  0  0  0  0
  160.4310  207.6780  153.7490 C   0  0  0  0  0  2  0  0  0  0  0  0
  160.8240  208.9530  153.1460 N   0  0  0  0  0  0  0  0  0  0  0  0
  161.7470  209.6710  155.3480 C   0  0  0  0  0  2  0  0  0  0  0  0
  159.7890  207.0040  157.2420 C   0  0  0  0  0  1  0  0  0  0  0  0
  160.3340  208.3850  156.8900 C   0  0  0  0  0  2  0  0  0  0  0  0
  162.0490  211.4900  148.3090 C   0  0  0  0  0  2  0  0  0  0  0  0
  160.8800  212.2820  148.6500 N   0  0  0  0  0  2  0  0  0  0  0  0
  160.4090  212.8970  147.4200 C   0  0  0  0  0  2  0  0  0  0  0  0
  162.2390  214.3690  147.0640 F   0  0  0  0  0  0  0  0  0  0  0  0
  161.5910  213.2670  146.5370 C   0  0  2  0  0  3  0  0  0  0  0  0
  161.1100  213.5960  145.1340 C   0  0  0  0  0  2  0  0  0  0  0  0
  161.9520  212.9370  144.1410 N   0  0  0  0  0  0  0  0  0  0  0  0
  161.9930  213.4170  141.7590 C   0  0  2  0  0  3  0  0  0  0  0  0
  160.6970  214.0910  142.2060 C   0  0  2  0  0  3  0  0  0  0  0  0
  163.1070  213.7920  143.8910 C   0  0  0  0  0  3  0  0  0  0  0  0
  161.2000  212.8150  142.8900 C   0  0  2  0  0  0  0  0  0  0  0  0
  160.6520  211.4400  142.5420 C   0  0  0  0  0  1  0  0  0  0  0  0
  163.1770  214.0950  142.4060 C   0  0  0  0  0  3  0  0  0  0  0  0
  159.6300  213.7990  141.2570 N   0  0  2  0  0  0  0  0  0  0  0  0
  157.3150  214.3760  140.7340 C   0  0  0  0  0  3  0  0  0  0  0  0
  158.9220  214.1030  138.9500 C   0  0  0  0  0  2  0  0  0  0  0  0
  157.5760  214.2610  139.4730 N   0  0  0  0  0  0  0  0  0  0  0  0
  159.9800  214.4500  139.9970 C   0  0  0  0  0  2  0  0  0  0  0  0
  158.4190  214.4520  141.7560 C   0  0  0  0  0  2  0  0  0  0  0  0
  1  8  1  0  0  0  0
  2 12  1  0  0  0  0
  2 13  1  0  0  0  0
  3 14  1  0  0  0  0
  4 15  1  0  0  0  0
  5  1  2  0  0  0  0
  5  9  1  0  0  0  0
  6  1  1  0  0  0  0
  7  4  1  0  0  0  0
  7 11  1  0  0  0  0
  8  4  2  0  0  0  0
  9  7  2  0  0  0  0
 10 11  1  0  0  0  0
 10  3  2  0  0  0  0
 11  2  2  0  0  0  0
 13 16  1  0  0  0  0
 14 13  2  0  0  0  0
 15 12  2  0  0  0  0
 16 21  1  0  0  0  0
 17 18  1  0  0  0  0
 18 24  1  0  0  0  0
 19 22  1  0  0  0  0
 20 17  1  0  0  0  0
 21 20  1  0  0  0  0
 21 19  1  0  0  0  0
 22 18  1  0  0  0  0
 24 23  1  0  0  0  0
 25 26  1  0  0  0  0
 25  3  1  0  0  0  0
 27 26  1  0  0  0  0
 29 28  1  1  0  0  0
 29 27  1  0  0  0  0
 30 29  1  0  0  0  0
 31 30  1  0  0  0  0
 32 33  1  0  0  0  0
 32 37  1  1  0  0  0
 32 35  1  0  0  0  0
 33 38  1  6  0  0  0
 33 35  1  0  0  0  0
 34 31  1  0  0  0  0
 35 36  1  6  0  0  0
 35 31  1  0  0  0  0
 37 34  2  0  0  0  0
 38 42  1  6  0  0  0
 38 43  1  0  0  0  0
 39 43  1  0  0  0  0
 40 41  1  0  0  0  0
 40 42  1  0  0  0  0
 41 39  2  0  0  0  0
M  END
>  <MODEL>
5

>  <REMARK>
 VINA RESULT:      -7.7      1.769      3.251
  Name = 
  10 active torsions:
  status: ('A' for Active; 'I' for Inactive)
    1  A    between atoms: C_1  and  C_34
    2  A    between atoms: C_1  and  N_35
    3  A    between atoms: C_2  and  N_7
    4  A    between atoms: C_2  and  C_13
    5  A    between atoms: C_3  and  N_4
    6  A    between atoms: C_3  and  C_12
    7  A    between atoms: N_7  and  C_17
    8  A    between atoms: N_11  and  C_14
    9  A    between atoms: C_12  and  C_17
   10  A    between atoms: N_19  and  C_37
                            x       y       z     vdW  Elec       q    Type
                         _______ _______ _______ _____ _____    ______ ____

>  <TORSDO>
F 10

$$$$
=
 OpenBabel11062410113D

 43 49  0  0  1  0  0  0  0  0999 V2000
  161.2050  200.9910  147.2710 C   0  0  0  0  0  0  0  0  0  0  0  0
  161.0870  205.6370  149.2700 C   0  0  0  0  0  0  0  0  0  0  0  0
  161.1560  205.2590  152.0260 C   0  0  0  0  0  0  0  0  0  0  0  0
  161.1300  203.3890  147.5830 C   0  0  0  0  0  0  0  0  0  0  0  0
  161.2520  200.8090  148.6570 C   0  0  0  0  0  3  0  0  0  0  0  0
  161.2170  199.8910  146.4260 O   0  0  0  0  0  1  0  0  0  0  0  0
  161.1750  203.2130  148.9870 C   0  0  0  0  0  0  0  0  0  0  0  0
  161.1450  202.2790  146.7360 C   0  0  0  0  0  3  0  0  0  0  0  0
  161.2370  201.9140  149.5110 C   0  0  0  0  0  3  0  0  0  0  0  0
  161.1870  204.1910  151.1860 N   0  0  0  0  0  0  0  0  0  0  0  0
  161.1530  204.3380  149.8310 C   0  0  0  0  0  0  0  0  0  0  0  0
  161.0470  205.7890  147.8760 C   0  0  0  0  0  3  0  0  0  0  0  0
  161.0640  206.7500  150.1300 C   0  0  0  0  0  0  0  0  0  0  0  0
  161.0950  206.5540  151.5110 C   0  0  0  0  0  3  0  0  0  0  0  0
  161.0680  204.6720  147.0400 C   0  0  0  0  0  3  0  0  0  0  0  0
  160.9660  208.1490  149.6090 C   0  0  0  0  0  2  0  0  0  0  0  0
  161.7050  210.3920  147.7960 C   0  0  0  0  0  2  0  0  0  0  0  0
  161.6490  211.4910  148.7660 N   0  0  0  0  0  0  0  0  0  0  0  0
  162.3330  209.8830  150.5530 C   0  0  0  0  0  2  0  0  0  0  0  0
  162.6140  209.2430  148.2520 C   0  0  0  0  0  2  0  0  0  0  0  0
  162.2870  208.7720  149.6000 N   0  0  0  0  0  0  0  0  0  0  0  0
  161.4160  211.0440  150.1440 C   0  0  0  0  0  2  0  0  0  0  0  0
  162.7270  213.2680  147.3610 C   0  0  0  0  0  1  0  0  0  0  0  0
  162.7650  212.4370  148.6400 C   0  0  0  0  0  2  0  0  0  0  0  0
  161.2080  205.0450  153.4960 C   0  0  0  0  0  2  0  0  0  0  0  0
  161.5770  206.2850  154.1590 N   0  0  0  0  0  2  0  0  0  0  0  0
  160.5050  206.6060  155.0870 C   0  0  0  0  0  2  0  0  0  0  0  0
  159.7060  208.3090  156.5370 F   0  0  0  0  0  0  0  0  0  0  0  0
  160.6220  208.0560  155.5340 C   0  0  2  0  0  3  0  0  0  0  0  0
  160.3490  208.9840  154.3630 C   0  0  0  0  0  2  0  0  0  0  0  0
  161.1080  210.2220  154.5100 N   0  0  0  0  0  0  0  0  0  0  0  0
  160.4090  212.1850  155.7620 C   0  0  2  0  0  3  0  0  0  0  0  0
  159.1050  211.4010  155.6280 C   0  0  2  0  0  3  0  0  0  0  0  0
  161.7910  210.1820  155.7990 C   0  0  0  0  0  3  0  0  0  0  0  0
  160.1730  211.3500  154.5300 C   0  0  2  0  0  0  0  0  0  0  0  0
  160.0800  212.1950  153.2700 C   0  0  0  0  0  1  0  0  0  0  0  0
  161.3950  211.4070  156.6000 C   0  0  0  0  0  3  0  0  0  0  0  0
  158.0170  212.3020  155.2680 N   0  0  2  0  0  0  0  0  0  0  0  0
  155.6080  212.3390  154.8680 C   0  0  0  0  0  3  0  0  0  0  0  0
  156.6580  214.1530  156.0700 C   0  0  0  0  0  2  0  0  0  0  0  0
  155.5450  213.5250  155.3780 N   0  0  0  0  0  0  0  0  0  0  0  0
  157.7440  213.1400  156.4320 C   0  0  0  0  0  2  0  0  0  0  0  0
  156.8300  211.4760  155.0450 C   0  0  0  0  0  2  0  0  0  0  0  0
  1  5  1  0  0  0  0
  2 11  1  0  0  0  0
  2 13  1  0  0  0  0
  3 25  1  0  0  0  0
  4  7  1  0  0  0  0
  5  9  2  0  0  0  0
  6  1  1  0  0  0  0
  7  9  1  0  0  0  0
  7 11  2  0  0  0  0
  8  1  2  0  0  0  0
  8  4  1  0  0  0  0
 10  3  2  0  0  0  0
 11 10  1  0  0  0  0
 12  2  2  0  0  0  0
 13 14  2  0  0  0  0
 14  3  1  0  0  0  0
 15  4  2  0  0  0  0
 15 12  1  0  0  0  0
 16 13  1  0  0  0  0
 17 20  1  0  0  0  0
 17 18  1  0  0  0  0
 18 22  1  0  0  0  0
 20 21  1  0  0  0  0
 21 16  1  0  0  0  0
 21 19  1  0  0  0  0
 22 19  1  0  0  0  0
 23 24  1  0  0  0  0
 24 18  1  0  0  0  0
 25 26  1  0  0  0  0
 26 27  1  0  0  0  0
 27 29  1  0  0  0  0
 29 28  1  1  0  0  0
 30 31  1  0  0  0  0
 30 29  1  0  0  0  0
 31 35  1  0  0  0  0
 31 34  1  0  0  0  0
 32 37  1  1  0  0  0
 33 38  1  6  0  0  0
 33 32  1  0  0  0  0
 34 37  2  0  0  0  0
 35 36  1  6  0  0  0
 35 33  1  0  0  0  0
 35 32  1  0  0  0  0
 38 43  1  1  0  0  0
 38 42  1  0  0  0  0
 39 43  1  0  0  0  0
 39 41  2  0  0  0  0
 40 42  1  0  0  0  0
 41 40  1  0  0  0  0
M  END
>  <MODEL>
6

>  <REMARK>
 VINA RESULT:      -7.4      3.197      7.919
  Name = 
  10 active torsions:
  status: ('A' for Active; 'I' for Inactive)
    1  A    between atoms: C_1  and  C_34
    2  A    between atoms: C_1  and  N_35
    3  A    between atoms: C_2  and  N_7
    4  A    between atoms: C_2  and  C_13
    5  A    between atoms: C_3  and  N_4
    6  A    between atoms: C_3  and  C_12
    7  A    between atoms: N_7  and  C_17
    8  A    between atoms: N_11  and  C_14
    9  A    between atoms: C_12  and  C_17
   10  A    between atoms: N_19  and  C_37
                            x       y       z     vdW  Elec       q    Type
                         _______ _______ _______ _____ _____    ______ ____

>  <TORSDO>
F 10

$$$$
=
 OpenBabel11062410113D

 43 49  0  0  1  0  0  0  0  0999 V2000
  160.9720  202.0710  147.5090 C   0  0  0  0  0  0  0  0  0  0  0  0
  161.4530  205.6640  151.0380 C   0  0  0  0  0  0  0  0  0  0  0  0
  161.8000  208.0410  149.6330 C   0  0  0  0  0  0  0  0  0  0  0  0
  161.1240  203.2680  149.6060 C   0  0  0  0  0  0  0  0  0  0  0  0
  161.1340  203.2710  146.8100 C   0  0  0  0  0  3  0  0  0  0  0  0
  160.8170  200.8800  146.8170 O   0  0  0  0  0  1  0  0  0  0  0  0
  161.2920  204.4870  148.9050 C   0  0  0  0  0  0  0  0  0  0  0  0
  160.9660  202.0710  148.9060 C   0  0  0  0  0  3  0  0  0  0  0  0
  161.2930  204.4740  147.5030 C   0  0  0  0  0  3  0  0  0  0  0  0
  161.6270  206.8690  148.9680 N   0  0  0  0  0  0  0  0  0  0  0  0
  161.4570  205.6850  149.6220 C   0  0  0  0  0  0  0  0  0  0  0  0
  161.2810  204.4470  151.7140 C   0  0  0  0  0  3  0  0  0  0  0  0
  161.6200  206.8730  151.7380 C   0  0  0  0  0  0  0  0  0  0  0  0
  161.7980  208.0610  151.0270 C   0  0  0  0  0  3  0  0  0  0  0  0
  161.1190  203.2580  151.0010 C   0  0  0  0  0  3  0  0  0  0  0  0
  161.6560  206.9230  153.2330 C   0  0  0  0  0  2  0  0  0  0  0  0
  161.3050  207.7450  156.0730 C   0  0  0  0  0  2  0  0  0  0  0  0
  161.5060  209.1900  155.9130 N   0  0  0  0  0  0  0  0  0  0  0  0
  160.5470  209.0190  153.6120 C   0  0  0  0  0  2  0  0  0  0  0  0
  160.2230  207.1900  155.1380 C   0  0  0  0  0  2  0  0  0  0  0  0
  160.4450  207.5640  153.7400 N   0  0  0  0  0  0  0  0  0  0  0  0
  161.6390  209.6110  154.5140 C   0  0  0  0  0  2  0  0  0  0  0  0
  160.6690  211.4990  156.4270 C   0  0  0  0  0  1  0  0  0  0  0  0
  160.5490  209.9990  156.6790 C   0  0  0  0  0  2  0  0  0  0  0  0
  161.9700  209.3060  148.8720 C   0  0  0  0  0  2  0  0  0  0  0  0
  161.5160  210.4270  149.6760 N   0  0  0  0  0  2  0  0  0  0  0  0
  162.1550  211.6200  149.1430 C   0  0  0  0  0  2  0  0  0  0  0  0
  161.9460  213.9860  149.1200 F   0  0  0  0  0  0  0  0  0  0  0  0
  161.2290  212.8170  149.2950 C   0  0  2  0  0  3  0  0  0  0  0  0
  160.6050  212.8190  150.6810 C   0  0  0  0  0  2  0  0  0  0  0  0
  159.1740  212.5440  150.5930 N   0  0  0  0  0  0  0  0  0  0  0  0
  157.4510  213.4710  152.0360 C   0  0  2  0  0  3  0  0  0  0  0  0
  158.7300  213.7730  152.8170 C   0  0  2  0  0  3  0  0  0  0  0  0
  158.5480  213.6460  149.8700 C   0  0  0  0  0  3  0  0  0  0  0  0
  158.6150  212.5170  151.9460 C   0  0  2  0  0  0  0  0  0  0  0  0
  158.2870  211.1520  152.5330 C   0  0  0  0  0  1  0  0  0  0  0  0
  157.4490  214.2350  150.7340 C   0  0  0  0  0  3  0  0  0  0  0  0
  158.5380  213.4610  154.2270 N   0  0  2  0  0  0  0  0  0  0  0  0
  158.9880  214.3310  156.4640 C   0  0  0  0  0  3  0  0  0  0  0  0
  156.8650  213.2800  155.9850 C   0  0  0  0  0  2  0  0  0  0  0  0
  157.8670  213.8370  156.8780 N   0  0  0  0  0  0  0  0  0  0  0  0
  157.1250  213.6720  154.5300 C   0  0  0  0  0  2  0  0  0  0  0  0
  159.2940  214.4510  154.9940 C   0  0  0  0  0  2  0  0  0  0  0  0
  1  8  1  0  0  0  0
  2 12  1  0  0  0  0
  2 13  1  0  0  0  0
  3 14  1  0  0  0  0
  4 15  1  0  0  0  0
  5  9  1  0  0  0  0
  5  1  2  0  0  0  0
  6  1  1  0  0  0  0
  7  4  1  0  0  0  0
  7 11  1  0  0  0  0
  8  4  2  0  0  0  0
  9  7  2  0  0  0  0
 10 11  1  0  0  0  0
 10  3  2  0  0  0  0
 11  2  2  0  0  0  0
 13 16  1  0  0  0  0
 14 13  2  0  0  0  0
 15 12  2  0  0  0  0
 16 21  1  0  0  0  0
 18 17  1  0  0  0  0
 18 24  1  0  0  0  0
 19 21  1  0  0  0  0
 19 22  1  0  0  0  0
 20 17  1  0  0  0  0
 21 20  1  0  0  0  0
 22 18  1  0  0  0  0
 23 24  1  0  0  0  0
 25  3  1  0  0  0  0
 25 26  1  0  0  0  0
 27 29  1  0  0  0  0
 27 26  1  0  0  0  0
 29 28  1  1  0  0  0
 29 30  1  0  0  0  0
 31 30  1  0  0  0  0
 31 35  1  0  0  0  0
 32 37  1  6  0  0  0
 32 33  1  0  0  0  0
 33 38  1  1  0  0  0
 34 31  1  0  0  0  0
 34 37  2  0  0  0  0
 35 32  1  0  0  0  0
 35 36  1  1  0  0  0
 35 33  1  0  0  0  0
 38 42  1  1  0  0  0
 38 43  1  0  0  0  0
 39 41  2  0  0  0  0
 40 41  1  0  0  0  0
 42 40  1  0  0  0  0
 43 39  1  0  0  0  0
M  END
>  <MODEL>
7

>  <REMARK>
 VINA RESULT:      -7.3      3.236      5.729
  Name = 
  10 active torsions:
  status: ('A' for Active; 'I' for Inactive)
    1  A    between atoms: C_1  and  C_34
    2  A    between atoms: C_1  and  N_35
    3  A    between atoms: C_2  and  N_7
    4  A    between atoms: C_2  and  C_13
    5  A    between atoms: C_3  and  N_4
    6  A    between atoms: C_3  and  C_12
    7  A    between atoms: N_7  and  C_17
    8  A    between atoms: N_11  and  C_14
    9  A    between atoms: C_12  and  C_17
   10  A    between atoms: N_19  and  C_37
                            x       y       z     vdW  Elec       q    Type
                         _______ _______ _______ _____ _____    ______ ____

>  <TORSDO>
F 10

$$$$
=
 OpenBabel11062410113D

 43 49  0  0  1  0  0  0  0  0999 V2000
  162.0280  213.7680  146.7650 C   0  0  0  0  0  0  0  0  0  0  0  0
  160.4130  212.4060  151.3610 C   0  0  0  0  0  0  0  0  0  0  0  0
  161.2870  209.7870  151.7070 C   0  0  0  0  0  0  0  0  0  0  0  0
  161.0120  213.7380  148.9600 C   0  0  0  0  0  0  0  0  0  0  0  0
  162.4750  212.4560  146.9510 C   0  0  0  0  0  3  0  0  0  0  0  0
  162.3080  214.4350  145.5820 O   0  0  0  0  0  1  0  0  0  0  0  0
  161.4590  212.4090  149.1550 C   0  0  0  0  0  0  0  0  0  0  0  0
  161.2990  214.4080  147.7690 C   0  0  0  0  0  3  0  0  0  0  0  0
  162.1920  211.7790  148.1400 C   0  0  0  0  0  3  0  0  0  0  0  0
  161.5720  210.4600  150.5620 N   0  0  0  0  0  0  0  0  0  0  0  0
  161.1580  211.7420  150.3560 C   0  0  0  0  0  0  0  0  0  0  0  0
  159.9830  213.7240  151.1500 C   0  0  0  0  0  3  0  0  0  0  0  0
  160.1210  211.7230  152.5560 C   0  0  0  0  0  0  0  0  0  0  0  0
  160.5580  210.4080  152.7220 C   0  0  0  0  0  3  0  0  0  0  0  0
  160.2810  214.3850  149.9570 C   0  0  0  0  0  3  0  0  0  0  0  0
  159.3140  212.3500  153.6490 C   0  0  0  0  0  2  0  0  0  0  0  0
  158.3230  212.9350  156.3960 C   0  0  0  0  0  2  0  0  0  0  0  0
  156.8830  212.8100  156.1440 N   0  0  0  0  0  0  0  0  0  0  0  0
  157.3870  211.1160  154.3780 C   0  0  0  0  0  2  0  0  0  0  0  0
  159.1120  211.6960  155.9480 C   0  0  0  0  0  2  0  0  0  0  0  0
  158.8250  211.3200  154.5620 N   0  0  0  0  0  0  0  0  0  0  0  0
  156.5630  212.3440  154.7900 C   0  0  0  0  0  2  0  0  0  0  0  0
  155.0500  211.1820  156.6770 C   0  0  0  0  0  1  0  0  0  0  0  0
  156.1690  212.0790  157.1980 C   0  0  0  0  0  2  0  0  0  0  0  0
  161.7710  208.3930  151.8870 C   0  0  0  0  0  2  0  0  0  0  0  0
  162.4470  207.9490  150.6800 N   0  0  0  0  0  2  0  0  0  0  0  0
  161.4160  207.5440  149.7390 C   0  0  0  0  0  2  0  0  0  0  0  0
  162.6170  208.5250  147.9390 F   0  0  0  0  0  0  0  0  0  0  0  0
  162.0210  207.3500  148.3570 C   0  0  2  0  0  3  0  0  0  0  0  0
  160.9360  206.9630  147.3650 C   0  0  0  0  0  2  0  0  0  0  0  0
  161.5250  206.3100  146.2000 N   0  0  0  0  0  0  0  0  0  0  0  0
  161.2570  203.9740  145.5850 C   0  0  2  0  0  3  0  0  0  0  0  0
  160.7810  203.9870  147.0360 C   0  0  2  0  0  3  0  0  0  0  0  0
  160.5070  206.2500  145.1560 C   0  0  0  0  0  3  0  0  0  0  0  0
  161.8850  204.9370  146.5580 C   0  0  2  0  0  0  0  0  0  0  0  0
  163.3600  204.6450  146.7880 C   0  0  0  0  0  1  0  0  0  0  0  0
  160.3290  204.8050  144.7300 C   0  0  0  0  0  3  0  0  0  0  0  0
  161.3370  202.8450  147.7530 N   0  0  2  0  0  0  0  0  0  0  0  0
  161.1720  201.6440  149.8720 C   0  0  0  0  0  3  0  0  0  0  0  0
  161.4150  200.4140  147.8060 C   0  0  0  0  0  2  0  0  0  0  0  0
  161.3960  200.5310  149.2540 N   0  0  0  0  0  0  0  0  0  0  0  0
  160.7960  201.6390  147.1320 C   0  0  0  0  0  2  0  0  0  0  0  0
  160.8140  202.8980  149.1180 C   0  0  0  0  0  2  0  0  0  0  0  0
  1  5  2  0  0  0  0
  1  8  1  0  0  0  0
  2 13  1  0  0  0  0
  3 25  1  0  0  0  0
  3 14  1  0  0  0  0
  4  7  1  0  0  0  0
  4 15  1  0  0  0  0
  5  9  1  0  0  0  0
  6  1  1  0  0  0  0
  7 11  1  0  0  0  0
  8  4  2  0  0  0  0
  9  7  2  0  0  0  0
 10  3  2  0  0  0  0
 11 10  1  0  0  0  0
 11  2  2  0  0  0  0
 12  2  1  0  0  0  0
 13 14  2  0  0  0  0
 13 16  1  0  0  0  0
 15 12  2  0  0  0  0
 16 21  1  0  0  0  0
 18 17  1  0  0  0  0
 18 24  1  0  0  0  0
 19 21  1  0  0  0  0
 19 22  1  0  0  0  0
 20 17  1  0  0  0  0
 21 20  1  0  0  0  0
 22 18  1  0  0  0  0
 23 24  1  0  0  0  0
 26 25  1  0  0  0  0
 27 26  1  0  0  0  0
 29 28  1  6  0  0  0
 29 27  1  0  0  0  0
 30 29  1  0  0  0  0
 31 35  1  0  0  0  0
 31 30  1  0  0  0  0
 32 37  1  6  0  0  0
 32 35  1  0  0  0  0
 32 33  1  0  0  0  0
 33 38  1  1  0  0  0
 34 31  1  0  0  0  0
 35 36  1  1  0  0  0
 35 33  1  0  0  0  0
 37 34  2  0  0  0  0
 38 42  1  6  0  0  0
 38 43  1  0  0  0  0
 40 41  1  0  0  0  0
 41 39  2  0  0  0  0
 42 40  1  0  0  0  0
 43 39  1  0  0  0  0
M  END
>  <MODEL>
8

>  <REMARK>
 VINA RESULT:      -7.2      3.900      8.662
  Name = 
  10 active torsions:
  status: ('A' for Active; 'I' for Inactive)
    1  A    between atoms: C_1  and  C_34
    2  A    between atoms: C_1  and  N_35
    3  A    between atoms: C_2  and  N_7
    4  A    between atoms: C_2  and  C_13
    5  A    between atoms: C_3  and  N_4
    6  A    between atoms: C_3  and  C_12
    7  A    between atoms: N_7  and  C_17
    8  A    between atoms: N_11  and  C_14
    9  A    between atoms: C_12  and  C_17
   10  A    between atoms: N_19  and  C_37
                            x       y       z     vdW  Elec       q    Type
                         _______ _______ _______ _____ _____    ______ ____

>  <TORSDO>
F 10

$$$$
=
 OpenBabel11062410113D

 43 49  0  0  1  0  0  0  0  0999 V2000
  161.0260  202.0140  147.3700 C   0  0  0  0  0  0  0  0  0  0  0  0
  161.8240  206.8510  148.6180 C   0  0  0  0  0  0  0  0  0  0  0  0
  161.4090  206.9840  151.3670 C   0  0  0  0  0  0  0  0  0  0  0  0
  161.5240  204.3810  147.3120 C   0  0  0  0  0  0  0  0  0  0  0  0
  160.8320  202.0860  148.7520 C   0  0  0  0  0  3  0  0  0  0  0  0
  160.8740  200.8040  146.7100 O   0  0  0  0  0  1  0  0  0  0  0  0
  161.3270  204.4620  148.7110 C   0  0  0  0  0  0  0  0  0  0  0  0
  161.3730  203.1600  146.6510 C   0  0  0  0  0  3  0  0  0  0  0  0
  160.9820  203.3030  149.4210 C   0  0  0  0  0  3  0  0  0  0  0  0
  161.2840  205.8010  150.7100 N   0  0  0  0  0  0  0  0  0  0  0  0
  161.4760  205.6980  149.3650 C   0  0  0  0  0  0  0  0  0  0  0  0
  162.0190  206.7480  147.2330 C   0  0  0  0  0  3  0  0  0  0  0  0
  161.9670  208.0790  149.2890 C   0  0  0  0  0  0  0  0  0  0  0  0
  161.7540  208.1400  150.6670 C   0  0  0  0  0  3  0  0  0  0  0  0
  161.8700  205.5210  146.5850 C   0  0  0  0  0  3  0  0  0  0  0  0
  162.3040  209.3430  148.5620 C   0  0  0  0  0  2  0  0  0  0  0  0
  163.2950  212.1330  148.2470 C   0  0  0  0  0  2  0  0  0  0  0  0
  162.2410  212.6450  147.3650 N   0  0  0  0  0  0  0  0  0  0  0  0
  160.6350  211.0650  148.4450 C   0  0  0  0  0  2  0  0  0  0  0  0
  162.7380  211.4950  149.5270 C   0  0  0  0  0  2  0  0  0  0  0  0
  161.7120  210.4870  149.2510 N   0  0  0  0  0  0  0  0  0  0  0  0
  161.1480  211.6920  147.1410 C   0  0  0  0  0  2  0  0  0  0  0  0
  160.5500  214.4530  146.9510 C   0  0  0  0  0  1  0  0  0  0  0  0
  161.7770  213.9900  147.7310 C   0  0  0  0  0  2  0  0  0  0  0  0
  161.2000  207.0400  152.8370 C   0  0  0  0  0  2  0  0  0  0  0  0
  160.8630  208.3970  153.2330 N   0  0  0  0  0  2  0  0  0  0  0  0
  161.5680  208.6650  154.4760 C   0  0  0  0  0  2  0  0  0  0  0  0
  159.8640  207.3660  155.5030 F   0  0  0  0  0  0  0  0  0  0  0  0
  160.6180  208.5140  155.6550 C   0  0  2  0  0  3  0  0  0  0  0  0
  159.6890  209.7140  155.7300 C   0  0  0  0  0  2  0  0  0  0  0  0
  160.4020  210.9320  155.3610 N   0  0  0  0  0  0  0  0  0  0  0  0
  159.4130  213.1340  155.0720 C   0  0  2  0  0  3  0  0  0  0  0  0
  158.1890  212.2200  155.0540 C   0  0  2  0  0  3  0  0  0  0  0  0
  160.6630  211.6890  156.5810 C   0  0  0  0  0  3  0  0  0  0  0  0
  159.5380  211.7440  154.5020 C   0  0  2  0  0  0  0  0  0  0  0  0
  159.8540  211.7580  153.0150 C   0  0  0  0  0  1  0  0  0  0  0  0
  160.0770  213.0800  156.4270 C   0  0  0  0  0  3  0  0  0  0  0  0
  157.2870  212.6180  153.9800 N   0  0  2  0  0  0  0  0  0  0  0  0
  154.9470  213.1600  153.5410 C   0  0  0  0  0  3  0  0  0  0  0  0
  156.6990  214.4500  152.4910 C   0  0  0  0  0  2  0  0  0  0  0  0
  155.3170  214.0360  152.6670 N   0  0  0  0  0  0  0  0  0  0  0  0
  157.5730  214.0150  153.6680 C   0  0  0  0  0  2  0  0  0  0  0  0
  155.9280  212.5680  154.5190 C   0  0  0  0  0  2  0  0  0  0  0  0
  1  5  1  0  0  0  0
  2 13  2  0  0  0  0
  2 11  1  0  0  0  0
  3 25  1  0  0  0  0
  4  7  2  0  0  0  0
  5  9  2  0  0  0  0
  6  1  1  0  0  0  0
  7 11  1  0  0  0  0
  7  9  1  0  0  0  0
  8  4  1  0  0  0  0
  8  1  2  0  0  0  0
 10  3  1  0  0  0  0
 11 10  2  0  0  0  0
 12  2  1  0  0  0  0
 13 14  1  0  0  0  0
 14  3  2  0  0  0  0
 15 12  2  0  0  0  0
 15  4  1  0  0  0  0
 16 21  1  0  0  0  0
 16 13  1  0  0  0  0
 17 20  1  0  0  0  0
 18 24  1  0  0  0  0
 18 17  1  0  0  0  0
 19 21  1  0  0  0  0
 21 20  1  0  0  0  0
 22 18  1  0  0  0  0
 22 19  1  0  0  0  0
 23 24  1  0  0  0  0
 25 26  1  0  0  0  0
 26 27  1  0  0  0  0
 27 29  1  0  0  0  0
 29 28  1  6  0  0  0
 29 30  1  0  0  0  0
 31 30  1  0  0  0  0
 31 34  1  0  0  0  0
 32 37  1  1  0  0  0
 33 38  1  6  0  0  0
 33 32  1  0  0  0  0
 35 36  1  6  0  0  0
 35 33  1  0  0  0  0
 35 32  1  0  0  0  0
 35 31  1  0  0  0  0
 37 34  2  0  0  0  0
 38 42  1  1  0  0  0
 38 43  1  0  0  0  0
 39 43  1  0  0  0  0
 40 41  1  0  0  0  0
 40 42  1  0  0  0  0
 41 39  2  0  0  0  0
M  END
>  <MODEL>
9

>  <REMARK>
 VINA RESULT:      -6.9      3.093      7.646
  Name = 
  10 active torsions:
  status: ('A' for Active; 'I' for Inactive)
    1  A    between atoms: C_1  and  C_34
    2  A    between atoms: C_1  and  N_35
    3  A    between atoms: C_2  and  N_7
    4  A    between atoms: C_2  and  C_13
    5  A    between atoms: C_3  and  N_4
    6  A    between atoms: C_3  and  C_12
    7  A    between atoms: N_7  and  C_17
    8  A    between atoms: N_11  and  C_14
    9  A    between atoms: C_12  and  C_17
   10  A    between atoms: N_19  and  C_37
                            x       y       z     vdW  Elec       q    Type
                         _______ _______ _______ _____ _____    ______ ____

>  <TORSDO>
F 10

$$$$
