=
 OpenBabel11062409213D

 37 40  0  0  1  0  0  0  0  0999 V2000
  159.0100  213.2430  151.2420 C   0  0  0  0  0  3  0  0  0  0  0  0
  160.6020  210.0460  153.0880 C   0  0  1  0  0  0  0  0  0  0  0  0
  158.3800  209.9250  154.4040 C   0  0  0  0  0  1  0  0  0  0  0  0
  159.7520  210.5480  154.1420 C   0  0  2  0  0  0  0  0  0  0  0  0
  159.7740  211.3090  152.8100 C   0  0  0  0  0  0  0  0  0  0  0  0
  159.3880  212.2780  152.0310 C   0  0  0  0  0  0  0  0  0  0  0  0
  160.3540  213.8820  157.1110 C   0  0  0  0  0  1  0  0  0  0  0  0
  161.2460  210.3390  157.2610 C   0  0  0  0  0  1  0  0  0  0  0  0
  160.0030  210.7650  156.5020 C   0  0  2  0  0  3  0  0  0  0  0  0
  159.4040  212.8910  156.4610 C   0  0  0  0  0  0  0  0  0  0  0  0
  160.3750  211.3340  155.2180 N   0  0  2  0  0  0  0  0  0  0  0  0
  158.0280  213.5210  156.3720 C   0  0  0  0  0  1  0  0  0  0  0  0
  159.3260  211.7320  157.2380 O   0  0  0  0  0  0  0  0  0  0  0  0
  159.8530  212.5900  155.1660 O   0  0  0  0  0  0  0  0  0  0  0  0
  162.0880  210.2890  153.1490 C   0  0  0  0  0  0  0  0  0  0  0  0
  162.7550  210.6550  152.0520 C   0  0  0  0  0  2  0  0  0  0  0  0
  162.7580  210.0380  154.3510 O   0  0  0  0  0  0  0  0  0  0  0  0
  163.7890  210.8780  154.8580 C   0  0  0  0  0  1  0  0  0  0  0  0
  159.8910  213.6650  150.1200 C   0  0  2  0  0  3  0  0  0  0  0  0
  157.6690  213.8540  149.0130 C   0  0  0  0  0  1  0  0  0  0  0  0
  159.0720  214.4230  149.0900 C   0  0  0  0  0  2  0  0  0  0  0  0
  160.4710  212.5370  149.5330 O   0  0  0  0  0  0  0  0  0  0  0  0
  162.3190  211.8330  148.4200 C   0  0  1  0  0  3  0  0  0  0  0  0
  161.5700  213.0090  148.8900 N   0  0  0  0  0  0  0  0  0  0  0  0
  161.5570  212.6180  147.4560 C   0  0  2  0  0  3  0  0  0  0  0  0
  163.6700  212.1600  148.3210 O   0  0  0  0  0  1  0  0  0  0  0  0
  160.3110  211.8470  147.0250 C   0  0  0  0  0  2  0  0  0  0  0  0
  159.5960  212.6010  146.0960 O   0  0  0  0  0  1  0  0  0  0  0  0
  160.1230  208.8610  152.2560 C   0  0  0  0  0  2  0  0  0  0  0  0
  161.1640  207.7540  152.2510 C   0  0  0  0  0  2  0  0  0  0  0  0
  161.6570  207.9110  149.8030 C   0  0  0  0  0  3  0  0  0  0  0  0
  161.2480  207.1400  150.8990 C   0  0  0  0  0  0  0  0  0  0  0  0
  160.9500  205.7840  150.7240 C   0  0  0  0  0  3  0  0  0  0  0  0
  160.7560  203.8910  149.2890 F   0  0  0  0  0  0  0  0  0  0  0  0
  161.4520  205.9750  148.3630 C   0  0  0  0  0  3  0  0  0  0  0  0
  161.0490  205.2020  149.4560 C   0  0  0  0  0  0  0  0  0  0  0  0
  161.7550  207.3290  148.5370 C   0  0  0  0  0  3  0  0  0  0  0  0
  1  6  2  0  0  0  0
  2 29  1  6  0  0  0
  2 15  1  0  0  0  0
  2  4  1  0  0  0  0
  4  3  1  1  0  0  0
  4 11  1  0  0  0  0
  5  2  1  0  0  0  0
  5  4  1  0  0  0  0
  6  5  2  0  0  0  0
  9 13  1  0  0  0  0
  9  8  1  1  0  0  0
 10  7  1  0  0  0  0
 10 13  1  0  0  0  0
 11 14  1  1  0  0  0
 11  9  1  0  0  0  0
 12 10  1  0  0  0  0
 14 10  1  0  0  0  0
 15 17  1  0  0  0  0
 16 15  2  0  0  0  0
 17 18  1  0  0  0  0
 19 21  1  6  0  0  0
 19  1  1  0  0  0  0
 20 21  1  0  0  0  0
 22 19  1  0  0  0  0
 23 26  1  6  0  0  0
 23 24  1  0  0  0  0
 24 22  1  0  0  0  0
 25 27  1  1  0  0  0
 25 23  1  0  0  0  0
 25 24  1  0  0  0  0
 28 27  1  0  0  0  0
 30 29  1  0  0  0  0
 31 32  1  0  0  0  0
 32 30  1  0  0  0  0
 33 32  2  0  0  0  0
 34 36  1  0  0  0  0
 35 37  1  0  0  0  0
 35 36  2  0  0  0  0
 36 33  1  0  0  0  0
 37 31  2  0  0  0  0
M  END
>  <MODEL>
1

>  <REMARK>
 VINA RESULT:      -3.6      0.000      0.000
  Name = 
  11 active torsions:
  status: ('A' for Active; 'I' for Inactive)
    1  A    between atoms: C_1  and  C_5
    2  A    between atoms: C_4  and  C_10
    3  A    between atoms: C_4  and  O_22
    4  A    between atoms: C_5  and  O_17
    5  A    between atoms: C_5  and  C_23
    6  A    between atoms: C_6  and  C_31
    7  A    between atoms: C_7  and  C_33
    8  A    between atoms: C_10  and  C_14
    9  A    between atoms: C_14  and  C_31
   10  A    between atoms: O_17  and  N_26
   11  A    between atoms: C_20  and  N_24
                            x       y       z     vdW  Elec       q    Type
                         _______ _______ _______ _____ _____    ______ ____

>  <TORSDO>
F 11

$$$$
=
 OpenBabel11062409213D

 37 40  0  0  1  0  0  0  0  0999 V2000
  160.2230  213.2050  150.8600 C   0  0  0  0  0  3  0  0  0  0  0  0
  159.3690  211.6630  154.4740 C   0  0  1  0  0  0  0  0  0  0  0  0
  161.8860  211.0890  154.6250 C   0  0  0  0  0  1  0  0  0  0  0  0
  160.4760  210.8170  154.0950 C   0  0  2  0  0  0  0  0  0  0  0  0
  160.0310  211.9060  153.1100 C   0  0  0  0  0  0  0  0  0  0  0  0
  160.1320  212.5510  151.9830 C   0  0  0  0  0  0  0  0  0  0  0  0
  160.4640  207.2910  151.2930 C   0  0  0  0  0  1  0  0  0  0  0  0
  160.3160  207.4620  154.9420 C   0  0  0  0  0  1  0  0  0  0  0  0
  161.0930  208.5160  154.1760 C   0  0  2  0  0  3  0  0  0  0  0  0
  161.2580  208.3910  151.9760 C   0  0  0  0  0  0  0  0  0  0  0  0
  160.1760  209.4730  153.5790 N   0  0  2  0  0  0  0  0  0  0  0  0
  162.3700  208.8380  151.0480 C   0  0  0  0  0  1  0  0  0  0  0  0
  161.8180  207.9030  153.1600 O   0  0  0  0  0  0  0  0  0  0  0  0
  160.4160  209.4820  152.2390 O   0  0  0  0  0  0  0  0  0  0  0  0
  157.9620  211.1330  154.3860 C   0  0  0  0  0  0  0  0  0  0  0  0
  157.3200  211.1200  153.2160 C   0  0  0  0  0  2  0  0  0  0  0  0
  157.3200  210.7410  155.5660 O   0  0  0  0  0  0  0  0  0  0  0  0
  155.9050  210.7340  155.7170 C   0  0  0  0  0  1  0  0  0  0  0  0
  159.0330  213.9190  150.3250 C   0  0  2  0  0  3  0  0  0  0  0  0
  156.5640  213.7690  150.6090 C   0  0  0  0  0  1  0  0  0  0  0  0
  157.8350  212.9870  150.3380 C   0  0  0  0  0  2  0  0  0  0  0  0
  159.2940  214.3430  149.0190 O   0  0  0  0  0  0  0  0  0  0  0  0
  158.9910  213.6230  146.8880 C   0  0  1  0  0  3  0  0  0  0  0  0
  159.2570  213.2070  148.2740 N   0  0  0  0  0  0  0  0  0  0  0  0
  160.3380  213.2040  147.2540 C   0  0  2  0  0  3  0  0  0  0  0  0
  158.3490  212.5860  146.2130 O   0  0  0  0  0  1  0  0  0  0  0  0
  161.2630  214.4180  147.3140 C   0  0  0  0  0  2  0  0  0  0  0  0
  162.3830  214.1900  146.5150 O   0  0  0  0  0  1  0  0  0  0  0  0
  159.6200  212.8180  155.4380 C   0  0  0  0  0  2  0  0  0  0  0  0
  158.9960  214.1000  154.9130 C   0  0  0  0  0  2  0  0  0  0  0  0
  157.3020  214.3340  156.7390 C   0  0  0  0  0  3  0  0  0  0  0  0
  157.5860  214.2060  155.3740 C   0  0  0  0  0  0  0  0  0  0  0  0
  156.5420  214.2080  154.4420 C   0  0  0  0  0  3  0  0  0  0  0  0
  154.2080  214.3260  153.9720 F   0  0  0  0  0  0  0  0  0  0  0  0
  154.9350  214.4510  156.2380 C   0  0  0  0  0  3  0  0  0  0  0  0
  155.2170  214.3280  154.8740 C   0  0  0  0  0  0  0  0  0  0  0  0
  155.9780  214.4530  157.1700 C   0  0  0  0  0  3  0  0  0  0  0  0
  1  6  2  0  0  0  0
  2 29  1  1  0  0  0
  4  2  1  0  0  0  0
  4  3  1  1  0  0  0
  5  4  1  0  0  0  0
  5  2  1  0  0  0  0
  6  5  2  0  0  0  0
  7 10  1  0  0  0  0
  9  8  1  6  0  0  0
 10 14  1  0  0  0  0
 10 13  1  0  0  0  0
 11 14  1  6  0  0  0
 11  4  1  0  0  0  0
 11  9  1  0  0  0  0
 12 10  1  0  0  0  0
 13  9  1  0  0  0  0
 15  2  1  0  0  0  0
 15 17  1  0  0  0  0
 16 15  2  0  0  0  0
 17 18  1  0  0  0  0
 19 21  1  6  0  0  0
 19  1  1  0  0  0  0
 21 20  1  0  0  0  0
 22 19  1  0  0  0  0
 23 26  1  6  0  0  0
 23 25  1  0  0  0  0
 23 24  1  0  0  0  0
 24 22  1  0  0  0  0
 25 27  1  1  0  0  0
 25 24  1  0  0  0  0
 28 27  1  0  0  0  0
 30 32  1  0  0  0  0
 30 29  1  0  0  0  0
 31 37  1  0  0  0  0
 32 31  2  0  0  0  0
 33 36  2  0  0  0  0
 33 32  1  0  0  0  0
 34 36  1  0  0  0  0
 35 37  2  0  0  0  0
 36 35  1  0  0  0  0
M  END
>  <MODEL>
2

>  <REMARK>
 VINA RESULT:      -3.2      2.946      6.505
  Name = 
  11 active torsions:
  status: ('A' for Active; 'I' for Inactive)
    1  A    between atoms: C_1  and  C_5
    2  A    between atoms: C_4  and  C_10
    3  A    between atoms: C_4  and  O_22
    4  A    between atoms: C_5  and  O_17
    5  A    between atoms: C_5  and  C_23
    6  A    between atoms: C_6  and  C_31
    7  A    between atoms: C_7  and  C_33
    8  A    between atoms: C_10  and  C_14
    9  A    between atoms: C_14  and  C_31
   10  A    between atoms: O_17  and  N_26
   11  A    between atoms: C_20  and  N_24
                            x       y       z     vdW  Elec       q    Type
                         _______ _______ _______ _____ _____    ______ ____

>  <TORSDO>
F 11

$$$$
=
 OpenBabel11062409213D

 37 40  0  0  1  0  0  0  0  0999 V2000
  160.7130  209.2820  151.1680 C   0  0  0  0  0  3  0  0  0  0  0  0
  161.3580  209.4300  155.1330 C   0  0  1  0  0  0  0  0  0  0  0  0
  158.7860  209.3240  155.3750 C   0  0  0  0  0  1  0  0  0  0  0  0
  160.0750  210.0890  155.0630 C   0  0  2  0  0  0  0  0  0  0  0  0
  160.7080  209.6010  153.7530 C   0  0  0  0  0  0  0  0  0  0  0  0
  160.7040  209.4460  152.4600 C   0  0  0  0  0  0  0  0  0  0  0  0
  158.6390  214.3030  154.3860 C   0  0  0  0  0  1  0  0  0  0  0  0
  160.4640  212.8050  157.1770 C   0  0  0  0  0  1  0  0  0  0  0  0
  159.4670  211.9660  156.3990 C   0  0  2  0  0  3  0  0  0  0  0  0
  158.2990  212.8710  154.7570 C   0  0  0  0  0  0  0  0  0  0  0  0
  160.0450  211.5570  155.1300 N   0  0  2  0  0  0  0  0  0  0  0  0
  156.9050  212.5540  154.2550 C   0  0  0  0  0  1  0  0  0  0  0  0
  158.3290  212.7230  156.1460 O   0  0  0  0  0  0  0  0  0  0  0  0
  159.2130  211.9980  154.1470 O   0  0  0  0  0  0  0  0  0  0  0  0
  162.6070  210.2510  155.3290 C   0  0  0  0  0  0  0  0  0  0  0  0
  163.3650  210.5810  154.2810 C   0  0  0  0  0  2  0  0  0  0  0  0
  162.9930  210.5800  156.6330 O   0  0  0  0  0  0  0  0  0  0  0  0
  164.1240  211.3920  156.9280 C   0  0  0  0  0  1  0  0  0  0  0  0
  162.0080  209.1200  150.4540 C   0  0  2  0  0  3  0  0  0  0  0  0
  161.9960  211.5200  149.7960 C   0  0  0  0  0  1  0  0  0  0  0  0
  162.0710  210.0930  149.2910 C   0  0  0  0  0  2  0  0  0  0  0  0
  162.1180  207.8070  149.9850 O   0  0  0  0  0  0  0  0  0  0  0  0
  162.1620  206.6280  148.0470 C   0  0  1  0  0  3  0  0  0  0  0  0
  161.7030  207.8670  148.6940 N   0  0  0  0  0  0  0  0  0  0  0  0
  160.7520  206.7660  148.3890 C   0  0  2  0  0  3  0  0  0  0  0  0
  162.3350  206.8590  146.6830 O   0  0  0  0  0  1  0  0  0  0  0  0
  160.4160  205.8760  149.5840 C   0  0  0  0  0  2  0  0  0  0  0  0
  160.5460  204.5370  149.2190 O   0  0  0  0  0  1  0  0  0  0  0  0
  161.4140  207.9650  155.5550 C   0  0  0  0  0  2  0  0  0  0  0  0
  160.3740  207.1520  154.8040 C   0  0  0  0  0  2  0  0  0  0  0  0
  162.2420  206.6380  153.2210 C   0  0  0  0  0  3  0  0  0  0  0  0
  161.0410  206.2500  153.8270 C   0  0  0  0  0  0  0  0  0  0  0  0
  160.4850  204.9990  153.5350 C   0  0  0  0  0  3  0  0  0  0  0  0
  160.5820  202.9340  152.3480 F   0  0  0  0  0  0  0  0  0  0  0  0
  162.3200  204.5340  152.0240 C   0  0  0  0  0  3  0  0  0  0  0  0
  161.1230  204.1420  152.6320 C   0  0  0  0  0  0  0  0  0  0  0  0
  162.8780  205.7820  152.3190 C   0  0  0  0  0  3  0  0  0  0  0  0
  1  6  2  0  0  0  0
  2 15  1  0  0  0  0
  2 29  1  1  0  0  0
  4 11  1  0  0  0  0
  4  2  1  0  0  0  0
  4  3  1  1  0  0  0
  5  4  1  0  0  0  0
  5  2  1  0  0  0  0
  6  5  2  0  0  0  0
  7 10  1  0  0  0  0
  9  8  1  6  0  0  0
 10 13  1  0  0  0  0
 11 14  1  6  0  0  0
 11  9  1  0  0  0  0
 12 10  1  0  0  0  0
 13  9  1  0  0  0  0
 14 10  1  0  0  0  0
 15 17  1  0  0  0  0
 16 15  2  0  0  0  0
 17 18  1  0  0  0  0
 19 21  1  6  0  0  0
 19  1  1  0  0  0  0
 21 20  1  0  0  0  0
 22 19  1  0  0  0  0
 23 26  1  6  0  0  0
 23 25  1  0  0  0  0
 23 24  1  0  0  0  0
 24 22  1  0  0  0  0
 25 24  1  0  0  0  0
 25 27  1  1  0  0  0
 28 27  1  0  0  0  0
 30 29  1  0  0  0  0
 31 32  1  0  0  0  0
 32 30  1  0  0  0  0
 33 32  2  0  0  0  0
 34 36  1  0  0  0  0
 35 37  1  0  0  0  0
 35 36  2  0  0  0  0
 36 33  1  0  0  0  0
 37 31  2  0  0  0  0
M  END
>  <MODEL>
3

>  <REMARK>
 VINA RESULT:      -2.9      2.700      3.848
  Name = 
  11 active torsions:
  status: ('A' for Active; 'I' for Inactive)
    1  A    between atoms: C_1  and  C_5
    2  A    between atoms: C_4  and  C_10
    3  A    between atoms: C_4  and  O_22
    4  A    between atoms: C_5  and  O_17
    5  A    between atoms: C_5  and  C_23
    6  A    between atoms: C_6  and  C_31
    7  A    between atoms: C_7  and  C_33
    8  A    between atoms: C_10  and  C_14
    9  A    between atoms: C_14  and  C_31
   10  A    between atoms: O_17  and  N_26
   11  A    between atoms: C_20  and  N_24
                            x       y       z     vdW  Elec       q    Type
                         _______ _______ _______ _____ _____    ______ ____

>  <TORSDO>
F 11

$$$$
=
 OpenBabel11062409213D

 37 40  0  0  1  0  0  0  0  0999 V2000
  161.7370  207.1920  150.8590 C   0  0  0  0  0  3  0  0  0  0  0  0
  160.9570  210.8210  152.4020 C   0  0  1  0  0  0  0  0  0  0  0  0
  163.1810  210.5520  153.6930 C   0  0  0  0  0  1  0  0  0  0  0  0
  161.6960  210.2360  153.4960 C   0  0  2  0  0  0  0  0  0  0  0  0
  161.4700  209.3830  152.2410 C   0  0  0  0  0  0  0  0  0  0  0  0
  161.6070  208.2840  151.5560 C   0  0  0  0  0  0  0  0  0  0  0  0
  159.6240  207.2590  156.1660 C   0  0  0  0  0  1  0  0  0  0  0  0
  161.3910  210.3640  156.9440 C   0  0  0  0  0  1  0  0  0  0  0  0
  161.8430  209.5230  155.7650 C   0  0  2  0  0  3  0  0  0  0  0  0
  160.8380  207.6060  155.3210 C   0  0  0  0  0  0  0  0  0  0  0  0
  160.9390  209.7140  154.6430 N   0  0  2  0  0  0  0  0  0  0  0  0
  161.3810  206.3340  154.7020 C   0  0  0  0  0  1  0  0  0  0  0  0
  161.8250  208.1800  156.1270 O   0  0  0  0  0  0  0  0  0  0  0  0
  160.4600  208.4880  154.2970 O   0  0  0  0  0  0  0  0  0  0  0  0
  159.4560  210.9290  152.4910 C   0  0  0  0  0  0  0  0  0  0  0  0
  158.7760  211.6120  151.5670 C   0  0  0  0  0  2  0  0  0  0  0  0
  158.8100  210.3780  153.6020 O   0  0  0  0  0  0  0  0  0  0  0  0
  157.9430  211.1230  154.4480 C   0  0  0  0  0  1  0  0  0  0  0  0
  160.7560  206.8800  149.7850 C   0  0  2  0  0  3  0  0  0  0  0  0
  160.9820  204.6680  150.9030 C   0  0  0  0  0  1  0  0  0  0  0  0
  160.0650  205.5650  150.0960 C   0  0  0  0  0  2  0  0  0  0  0  0
  161.4210  206.7930  148.5590 O   0  0  0  0  0  0  0  0  0  0  0  0
  161.0370  206.3820  146.3600 C   0  0  1  0  0  3  0  0  0  0  0  0
  160.5340  206.1850  147.7290 N   0  0  0  0  0  0  0  0  0  0  0  0
  161.1780  205.0720  146.9840 C   0  0  2  0  0  3  0  0  0  0  0  0
  159.9640  206.3590  145.4700 O   0  0  0  0  0  1  0  0  0  0  0  0
  162.6390  204.8280  147.3570 C   0  0  0  0  0  2  0  0  0  0  0  0
  163.4270  204.8740  146.2080 O   0  0  0  0  0  1  0  0  0  0  0  0
  161.6710  211.7850  151.4600 C   0  0  0  0  0  2  0  0  0  0  0  0
  161.8440  211.1630  150.0860 C   0  0  0  0  0  2  0  0  0  0  0  0
  160.8910  213.3180  149.2460 C   0  0  0  0  0  3  0  0  0  0  0  0
  161.7150  212.2070  149.0340 C   0  0  0  0  0  0  0  0  0  0  0  0
  162.4430  212.0950  147.8430 C   0  0  0  0  0  3  0  0  0  0  0  0
  163.0380  212.9760  145.7100 F   0  0  0  0  0  0  0  0  0  0  0  0
  161.5090  214.1940  147.0740 C   0  0  0  0  0  3  0  0  0  0  0  0
  162.3370  213.0870  146.8630 C   0  0  0  0  0  0  0  0  0  0  0  0
  160.7860  214.3090  148.2660 C   0  0  0  0  0  3  0  0  0  0  0  0
  1  6  2  0  0  0  0
  2 29  1  6  0  0  0
  2 15  1  0  0  0  0
  2  4  1  0  0  0  0
  4  3  1  1  0  0  0
  4 11  1  0  0  0  0
  5  2  1  0  0  0  0
  5  4  1  0  0  0  0
  6  5  2  0  0  0  0
  9 13  1  0  0  0  0
  9  8  1  1  0  0  0
 10 13  1  0  0  0  0
 10  7  1  0  0  0  0
 11 14  1  6  0  0  0
 11  9  1  0  0  0  0
 12 10  1  0  0  0  0
 14 10  1  0  0  0  0
 15 17  1  0  0  0  0
 16 15  2  0  0  0  0
 17 18  1  0  0  0  0
 19 21  1  1  0  0  0
 19  1  1  0  0  0  0
 21 20  1  0  0  0  0
 22 19  1  0  0  0  0
 23 26  1  6  0  0  0
 23 25  1  0  0  0  0
 23 24  1  0  0  0  0
 24 22  1  0  0  0  0
 25 27  1  1  0  0  0
 25 24  1  0  0  0  0
 28 27  1  0  0  0  0
 30 29  1  0  0  0  0
 32 31  1  0  0  0  0
 32 30  1  0  0  0  0
 33 32  2  0  0  0  0
 34 36  1  0  0  0  0
 35 37  1  0  0  0  0
 36 35  2  0  0  0  0
 36 33  1  0  0  0  0
 37 31  2  0  0  0  0
M  END
>  <MODEL>
4

>  <REMARK>
 VINA RESULT:      -2.8      3.210      6.112
  Name = 
  11 active torsions:
  status: ('A' for Active; 'I' for Inactive)
    1  A    between atoms: C_1  and  C_5
    2  A    between atoms: C_4  and  C_10
    3  A    between atoms: C_4  and  O_22
    4  A    between atoms: C_5  and  O_17
    5  A    between atoms: C_5  and  C_23
    6  A    between atoms: C_6  and  C_31
    7  A    between atoms: C_7  and  C_33
    8  A    between atoms: C_10  and  C_14
    9  A    between atoms: C_14  and  C_31
   10  A    between atoms: O_17  and  N_26
   11  A    between atoms: C_20  and  N_24
                            x       y       z     vdW  Elec       q    Type
                         _______ _______ _______ _____ _____    ______ ____

>  <TORSDO>
F 11

$$$$
=
 OpenBabel11062409213D

 37 40  0  0  1  0  0  0  0  0999 V2000
  160.6600  209.3850  151.2080 C   0  0  0  0  0  3  0  0  0  0  0  0
  161.2880  209.3410  155.1780 C   0  0  1  0  0  0  0  0  0  0  0  0
  158.7630  208.8260  155.3910 C   0  0  0  0  0  1  0  0  0  0  0  0
  159.9180  209.7990  155.1450 C   0  0  2  0  0  0  0  0  0  0  0  0
  160.6150  209.5110  153.8090 C   0  0  0  0  0  0  0  0  0  0  0  0
  160.6310  209.4510  152.5080 C   0  0  0  0  0  0  0  0  0  0  0  0
  158.9620  214.0640  154.0580 C   0  0  0  0  0  1  0  0  0  0  0  0
  158.2480  212.1360  157.0810 C   0  0  0  0  0  1  0  0  0  0  0  0
  158.2870  211.4320  155.7380 C   0  0  2  0  0  3  0  0  0  0  0  0
  158.6430  212.5890  153.8890 C   0  0  0  0  0  0  0  0  0  0  0  0
  159.6650  211.2370  155.3180 N   0  0  2  0  0  0  0  0  0  0  0  0
  158.1510  212.3540  152.4750 C   0  0  0  0  0  1  0  0  0  0  0  0
  157.6400  212.2170  154.7900 O   0  0  0  0  0  0  0  0  0  0  0  0
  159.8040  211.8300  154.1010 O   0  0  0  0  0  0  0  0  0  0  0  0
  162.3970  210.3270  155.4420 C   0  0  0  0  0  0  0  0  0  0  0  0
  163.2130  210.7010  154.4550 C   0  0  0  0  0  2  0  0  0  0  0  0
  162.6010  210.7670  156.7540 O   0  0  0  0  0  0  0  0  0  0  0  0
  163.8750  211.1530  157.2570 C   0  0  0  0  0  1  0  0  0  0  0  0
  161.9620  209.4750  150.4940 C   0  0  2  0  0  3  0  0  0  0  0  0
  161.9780  211.1400  148.6440 C   0  0  0  0  0  1  0  0  0  0  0  0
  162.2370  210.9200  150.1210 C   0  0  0  0  0  2  0  0  0  0  0  0
  161.9160  208.6840  149.3420 O   0  0  0  0  0  0  0  0  0  0  0  0
  160.6380  206.8240  149.0980 C   0  0  1  0  0  3  0  0  0  0  0  0
  161.7880  207.4120  149.8020 N   0  0  0  0  0  0  0  0  0  0  0  0
  161.9850  206.4280  148.7060 C   0  0  2  0  0  3  0  0  0  0  0  0
  160.0730  205.8290  149.8940 O   0  0  0  0  0  1  0  0  0  0  0  0
  162.3400  207.0500  147.3570 C   0  0  0  0  0  2  0  0  0  0  0  0
  161.7640  206.3010  146.3330 O   0  0  0  0  0  1  0  0  0  0  0  0
  161.5680  207.8750  155.4930 C   0  0  0  0  0  2  0  0  0  0  0  0
  160.5170  206.9810  154.8590 C   0  0  0  0  0  2  0  0  0  0  0  0
  162.3110  206.5590  153.1670 C   0  0  0  0  0  3  0  0  0  0  0  0
  161.1360  206.1380  153.8010 C   0  0  0  0  0  0  0  0  0  0  0  0
  160.5630  204.9070  153.4600 C   0  0  0  0  0  3  0  0  0  0  0  0
  160.5990  202.9170  152.1480 F   0  0  0  0  0  0  0  0  0  0  0  0
  162.3270  204.5310  151.8440 C   0  0  0  0  0  3  0  0  0  0  0  0
  161.1570  204.1060  152.4800 C   0  0  0  0  0  0  0  0  0  0  0  0
  162.9040  205.7580  152.1870 C   0  0  0  0  0  3  0  0  0  0  0  0
  1  6  2  0  0  0  0
  2 15  1  0  0  0  0
  2 29  1  1  0  0  0
  4  2  1  0  0  0  0
  4 11  1  0  0  0  0
  4  3  1  1  0  0  0
  5  4  1  0  0  0  0
  5  2  1  0  0  0  0
  6  5  2  0  0  0  0
  9  8  1  1  0  0  0
 10  7  1  0  0  0  0
 10 14  1  0  0  0  0
 10 13  1  0  0  0  0
 11 14  1  6  0  0  0
 11  9  1  0  0  0  0
 12 10  1  0  0  0  0
 13  9  1  0  0  0  0
 15 17  1  0  0  0  0
 16 15  2  0  0  0  0
 17 18  1  0  0  0  0
 19 21  1  6  0  0  0
 19  1  1  0  0  0  0
 20 21  1  0  0  0  0
 22 24  1  0  0  0  0
 22 19  1  0  0  0  0
 23 24  1  0  0  0  0
 23 26  1  1  0  0  0
 25 27  1  6  0  0  0
 25 23  1  0  0  0  0
 25 24  1  0  0  0  0
 28 27  1  0  0  0  0
 30 29  1  0  0  0  0
 31 32  1  0  0  0  0
 32 30  1  0  0  0  0
 33 32  2  0  0  0  0
 34 36  1  0  0  0  0
 35 37  1  0  0  0  0
 35 36  2  0  0  0  0
 36 33  1  0  0  0  0
 37 31  2  0  0  0  0
M  END
>  <MODEL>
5

>  <REMARK>
 VINA RESULT:      -2.8      2.650      3.850
  Name = 
  11 active torsions:
  status: ('A' for Active; 'I' for Inactive)
    1  A    between atoms: C_1  and  C_5
    2  A    between atoms: C_4  and  C_10
    3  A    between atoms: C_4  and  O_22
    4  A    between atoms: C_5  and  O_17
    5  A    between atoms: C_5  and  C_23
    6  A    between atoms: C_6  and  C_31
    7  A    between atoms: C_7  and  C_33
    8  A    between atoms: C_10  and  C_14
    9  A    between atoms: C_14  and  C_31
   10  A    between atoms: O_17  and  N_26
   11  A    between atoms: C_20  and  N_24
                            x       y       z     vdW  Elec       q    Type
                         _______ _______ _______ _____ _____    ______ ____

>  <TORSDO>
F 11

$$$$
=
 OpenBabel11062409213D

 37 40  0  0  1  0  0  0  0  0999 V2000
  161.5800  206.9630  151.8380 C   0  0  0  0  0  3  0  0  0  0  0  0
  160.8450  210.7830  152.8480 C   0  0  1  0  0  0  0  0  0  0  0  0
  163.2750  210.8300  153.7300 C   0  0  0  0  0  1  0  0  0  0  0  0
  161.8040  210.4330  153.8700 C   0  0  2  0  0  0  0  0  0  0  0  0
  161.4160  209.3590  152.8450 C   0  0  0  0  0  0  0  0  0  0  0  0
  161.5030  208.1590  152.3470 C   0  0  0  0  0  0  0  0  0  0  0  0
  160.1370  207.9650  157.2480 C   0  0  0  0  0  1  0  0  0  0  0  0
  162.3670  210.8620  157.2600 C   0  0  0  0  0  1  0  0  0  0  0  0
  162.4220  209.8810  156.1040 C   0  0  2  0  0  3  0  0  0  0  0  0
  161.1360  208.0850  156.1110 C   0  0  0  0  0  0  0  0  0  0  0  0
  161.2980  210.1030  155.2100 N   0  0  2  0  0  0  0  0  0  0  0  0
  161.3700  206.7090  155.5190 C   0  0  0  0  0  1  0  0  0  0  0  0
  162.3470  208.5840  156.5990 O   0  0  0  0  0  0  0  0  0  0  0  0
  160.6180  208.9280  155.1170 O   0  0  0  0  0  0  0  0  0  0  0  0
  159.3800  210.8560  153.1940 C   0  0  0  0  0  0  0  0  0  0  0  0
  158.4750  210.2650  152.4120 C   0  0  0  0  0  2  0  0  0  0  0  0
  158.9910  211.6240  154.2960 O   0  0  0  0  0  0  0  0  0  0  0  0
  157.8520  211.3210  155.0930 C   0  0  0  0  0  1  0  0  0  0  0  0
  160.4470  206.4280  151.0360 C   0  0  2  0  0  3  0  0  0  0  0  0
  161.1510  204.3720  152.2500 C   0  0  0  0  0  1  0  0  0  0  0  0
  160.5410  204.9140  150.9730 C   0  0  0  0  0  2  0  0  0  0  0  0
  160.4970  206.9640  149.7460 O   0  0  0  0  0  0  0  0  0  0  0  0
  161.2940  206.3690  147.7060 C   0  0  1  0  0  3  0  0  0  0  0  0
  161.5490  206.3410  149.1550 N   0  0  0  0  0  0  0  0  0  0  0  0
  162.2890  207.2750  148.2650 C   0  0  2  0  0  3  0  0  0  0  0  0
  161.9350  205.2860  147.1060 O   0  0  0  0  0  1  0  0  0  0  0  0
  161.7510  208.7040  148.2660 C   0  0  0  0  0  2  0  0  0  0  0  0
  162.3930  209.4430  149.2580 O   0  0  0  0  0  1  0  0  0  0  0  0
  161.3160  211.5840  151.6370 C   0  0  0  0  0  2  0  0  0  0  0  0
  160.4450  212.8120  151.4360 C   0  0  0  0  0  2  0  0  0  0  0  0
  159.2650  213.9010  149.5170 C   0  0  0  0  0  3  0  0  0  0  0  0
  160.3320  213.1250  149.9860 C   0  0  0  0  0  0  0  0  0  0  0  0
  161.3090  212.6700  149.0930 C   0  0  0  0  0  3  0  0  0  0  0  0
  162.1580  212.5380  146.8700 F   0  0  0  0  0  0  0  0  0  0  0  0
  160.1450  213.7520  147.2660 C   0  0  0  0  0  3  0  0  0  0  0  0
  161.2140  212.9810  147.7330 C   0  0  0  0  0  0  0  0  0  0  0  0
  159.1710  214.2110  148.1580 C   0  0  0  0  0  3  0  0  0  0  0  0
  1  6  2  0  0  0  0
  2 29  1  6  0  0  0
  2 15  1  0  0  0  0
  2  4  1  0  0  0  0
  4  3  1  6  0  0  0
  4 11  1  0  0  0  0
  5  2  1  0  0  0  0
  5  4  1  0  0  0  0
  6  5  2  0  0  0  0
  9 13  1  0  0  0  0
  9  8  1  1  0  0  0
 10 13  1  0  0  0  0
 10  7  1  0  0  0  0
 11 14  1  6  0  0  0
 11  9  1  0  0  0  0
 12 10  1  0  0  0  0
 14 10  1  0  0  0  0
 15 17  1  0  0  0  0
 16 15  2  0  0  0  0
 17 18  1  0  0  0  0
 19 21  1  6  0  0  0
 19  1  1  0  0  0  0
 21 20  1  0  0  0  0
 22 19  1  0  0  0  0
 23 26  1  6  0  0  0
 23 25  1  0  0  0  0
 23 24  1  0  0  0  0
 24 22  1  0  0  0  0
 25 27  1  1  0  0  0
 25 24  1  0  0  0  0
 27 28  1  0  0  0  0
 30 29  1  0  0  0  0
 31 32  1  0  0  0  0
 32 30  1  0  0  0  0
 33 32  2  0  0  0  0
 34 36  1  0  0  0  0
 35 36  2  0  0  0  0
 35 37  1  0  0  0  0
 36 33  1  0  0  0  0
 37 31  2  0  0  0  0
M  END
>  <MODEL>
6

>  <REMARK>
 VINA RESULT:      -2.7      2.852      5.854
  Name = 
  11 active torsions:
  status: ('A' for Active; 'I' for Inactive)
    1  A    between atoms: C_1  and  C_5
    2  A    between atoms: C_4  and  C_10
    3  A    between atoms: C_4  and  O_22
    4  A    between atoms: C_5  and  O_17
    5  A    between atoms: C_5  and  C_23
    6  A    between atoms: C_6  and  C_31
    7  A    between atoms: C_7  and  C_33
    8  A    between atoms: C_10  and  C_14
    9  A    between atoms: C_14  and  C_31
   10  A    between atoms: O_17  and  N_26
   11  A    between atoms: C_20  and  N_24
                            x       y       z     vdW  Elec       q    Type
                         _______ _______ _______ _____ _____    ______ ____

>  <TORSDO>
F 11

$$$$
=
 OpenBabel11062409213D

 37 40  0  0  1  0  0  0  0  0999 V2000
  160.5050  212.9750  150.0090 C   0  0  0  0  0  3  0  0  0  0  0  0
  159.9690  211.3980  153.6670 C   0  0  1  0  0  0  0  0  0  0  0  0
  162.4320  210.6290  153.5010 C   0  0  0  0  0  1  0  0  0  0  0  0
  160.9520  210.4810  153.1400 C   0  0  2  0  0  0  0  0  0  0  0  0
  160.4800  211.6290  152.2390 C   0  0  0  0  0  0  0  0  0  0  0  0
  160.4980  212.2970  151.1210 C   0  0  0  0  0  0  0  0  0  0  0  0
  160.4440  206.9870  150.3430 C   0  0  0  0  0  1  0  0  0  0  0  0
  160.4620  207.1600  153.9950 C   0  0  0  0  0  1  0  0  0  0  0  0
  161.3170  208.1260  153.1970 C   0  0  2  0  0  3  0  0  0  0  0  0
  161.3790  207.9920  150.9930 C   0  0  0  0  0  0  0  0  0  0  0  0
  160.4860  209.1800  152.6380 N   0  0  2  0  0  0  0  0  0  0  0  0
  162.4950  208.3190  150.0210 C   0  0  0  0  0  1  0  0  0  0  0  0
  161.9300  207.4420  152.1530 O   0  0  0  0  0  0  0  0  0  0  0  0
  160.6720  209.1670  151.2900 O   0  0  0  0  0  0  0  0  0  0  0  0
  158.5230  210.9790  153.7400 C   0  0  0  0  0  0  0  0  0  0  0  0
  158.1830  209.8380  154.3430 C   0  0  0  0  0  2  0  0  0  0  0  0
  157.5660  211.7650  153.0890 O   0  0  0  0  0  0  0  0  0  0  0  0
  157.1860  213.0610  153.5380 C   0  0  0  0  0  1  0  0  0  0  0  0
  159.3200  213.7930  149.6360 C   0  0  2  0  0  3  0  0  0  0  0  0
  156.8370  213.7970  149.4720 C   0  0  0  0  0  1  0  0  0  0  0  0
  158.0590  212.9680  149.8130 C   0  0  0  0  0  2  0  0  0  0  0  0
  159.4400  214.2040  148.3050 O   0  0  0  0  0  0  0  0  0  0  0  0
  159.2060  213.3890  146.1990 C   0  0  1  0  0  3  0  0  0  0  0  0
  159.5270  213.0490  147.5950 N   0  0  0  0  0  0  0  0  0  0  0  0
  160.5950  213.1380  146.5650 C   0  0  2  0  0  3  0  0  0  0  0  0
  158.6830  212.2650  145.5630 O   0  0  0  0  0  1  0  0  0  0  0  0
  161.3760  214.4510  146.5790 C   0  0  0  0  0  2  0  0  0  0  0  0
  162.6070  214.2540  147.2010 O   0  0  0  0  0  1  0  0  0  0  0  0
  160.4230  212.5010  154.6170 C   0  0  0  0  0  2  0  0  0  0  0  0
  160.0900  212.1410  156.0550 C   0  0  0  0  0  2  0  0  0  0  0  0
  162.2140  210.9650  156.6600 C   0  0  0  0  0  3  0  0  0  0  0  0
  160.8290  210.9150  156.4580 C   0  0  0  0  0  0  0  0  0  0  0  0
  160.1380  209.7160  156.6650 C   0  0  0  0  0  3  0  0  0  0  0  0
  160.1610  207.4080  157.2600 F   0  0  0  0  0  0  0  0  0  0  0  0
  162.2140  208.6190  157.2590 C   0  0  0  0  0  3  0  0  0  0  0  0
  160.8300  208.5680  157.0630 C   0  0  0  0  0  0  0  0  0  0  0  0
  162.9050  209.8180  157.0570 C   0  0  0  0  0  3  0  0  0  0  0  0
  1  6  2  0  0  0  0
  2 15  1  0  0  0  0
  2 29  1  1  0  0  0
  4  3  1  1  0  0  0
  4  2  1  0  0  0  0
  5  4  1  0  0  0  0
  5  2  1  0  0  0  0
  6  5  2  0  0  0  0
  7 10  1  0  0  0  0
  9  8  1  6  0  0  0
 10 14  1  0  0  0  0
 10 13  1  0  0  0  0
 11 14  1  6  0  0  0
 11  4  1  0  0  0  0
 11  9  1  0  0  0  0
 12 10  1  0  0  0  0
 13  9  1  0  0  0  0
 15 16  2  0  0  0  0
 17 18  1  0  0  0  0
 17 15  1  0  0  0  0
 19 21  1  6  0  0  0
 19  1  1  0  0  0  0
 20 21  1  0  0  0  0
 22 19  1  0  0  0  0
 23 26  1  6  0  0  0
 23 25  1  0  0  0  0
 23 24  1  0  0  0  0
 24 22  1  0  0  0  0
 25 27  1  1  0  0  0
 25 24  1  0  0  0  0
 27 28  1  0  0  0  0
 29 30  1  0  0  0  0
 30 32  1  0  0  0  0
 31 37  1  0  0  0  0
 32 31  2  0  0  0  0
 32 33  1  0  0  0  0
 33 36  2  0  0  0  0
 36 35  1  0  0  0  0
 36 34  1  0  0  0  0
 37 35  2  0  0  0  0
M  END
>  <MODEL>
7

>  <REMARK>
 VINA RESULT:      -2.5      2.388      5.525
  Name = 
  11 active torsions:
  status: ('A' for Active; 'I' for Inactive)
    1  A    between atoms: C_1  and  C_5
    2  A    between atoms: C_4  and  C_10
    3  A    between atoms: C_4  and  O_22
    4  A    between atoms: C_5  and  O_17
    5  A    between atoms: C_5  and  C_23
    6  A    between atoms: C_6  and  C_31
    7  A    between atoms: C_7  and  C_33
    8  A    between atoms: C_10  and  C_14
    9  A    between atoms: C_14  and  C_31
   10  A    between atoms: O_17  and  N_26
   11  A    between atoms: C_20  and  N_24
                            x       y       z     vdW  Elec       q    Type
                         _______ _______ _______ _____ _____    ______ ____

>  <TORSDO>
F 11

$$$$
=
 OpenBabel11062409213D

 37 40  0  0  1  0  0  0  0  0999 V2000
  161.0510  208.4070  150.7970 C   0  0  0  0  0  3  0  0  0  0  0  0
  160.4010  210.2810  154.2930 C   0  0  1  0  0  0  0  0  0  0  0  0
  158.0330  210.7790  153.3810 C   0  0  0  0  0  1  0  0  0  0  0  0
  159.5380  211.0530  153.4300 C   0  0  2  0  0  0  0  0  0  0  0  0
  160.3350  209.8990  152.8080 C   0  0  0  0  0  0  0  0  0  0  0  0
  160.6890  209.1570  151.7980 C   0  0  0  0  0  0  0  0  0  0  0  0
  160.3700  214.4530  150.5970 C   0  0  0  0  0  1  0  0  0  0  0  0
  159.7030  214.4280  154.1910 C   0  0  0  0  0  1  0  0  0  0  0  0
  159.0540  213.3830  153.3030 C   0  0  2  0  0  3  0  0  0  0  0  0
  159.3830  213.4240  151.1190 C   0  0  0  0  0  0  0  0  0  0  0  0
  160.0220  212.3570  152.9540 N   0  0  2  0  0  0  0  0  0  0  0  0
  158.4780  212.9950  149.9820 C   0  0  0  0  0  1  0  0  0  0  0  0
  158.6060  213.9880  152.1340 O   0  0  0  0  0  0  0  0  0  0  0  0
  160.0810  212.3040  151.5950 O   0  0  0  0  0  0  0  0  0  0  0  0
  161.7280  210.8500  154.7220 C   0  0  0  0  0  0  0  0  0  0  0  0
  162.8200  210.6400  153.9830 C   0  0  0  0  0  2  0  0  0  0  0  0
  161.8040  211.5220  155.9460 O   0  0  0  0  0  0  0  0  0  0  0  0
  162.8870  211.3650  156.8550 C   0  0  0  0  0  1  0  0  0  0  0  0
  162.3540  207.6910  150.8450 C   0  0  2  0  0  3  0  0  0  0  0  0
  162.3950  208.1180  148.3930 C   0  0  0  0  0  1  0  0  0  0  0  0
  162.6560  207.0960  149.4810 C   0  0  0  0  0  2  0  0  0  0  0  0
  162.2920  206.6770  151.8050 O   0  0  0  0  0  0  0  0  0  0  0  0
  161.7520  204.4740  151.7140 C   0  0  1  0  0  3  0  0  0  0  0  0
  161.3250  205.8360  151.3570 N   0  0  0  0  0  0  0  0  0  0  0  0
  160.6890  205.1060  152.4850 C   0  0  2  0  0  3  0  0  0  0  0  0
  161.1980  203.5670  150.8130 O   0  0  0  0  0  1  0  0  0  0  0  0
  161.2090  205.5040  153.8650 C   0  0  0  0  0  2  0  0  0  0  0  0
  160.2850  206.3400  154.4880 O   0  0  0  0  0  1  0  0  0  0  0  0
  159.7840  209.2050  155.1810 C   0  0  0  0  0  2  0  0  0  0  0  0
  159.7000  209.6820  156.6210 C   0  0  0  0  0  2  0  0  0  0  0  0
  158.9880  212.0210  157.1520 C   0  0  0  0  0  3  0  0  0  0  0  0
  158.6460  210.7240  156.7520 C   0  0  0  0  0  0  0  0  0  0  0  0
  157.3160  210.4170  156.4440 C   0  0  0  0  0  3  0  0  0  0  0  0
  155.0400  211.1020  156.2540 F   0  0  0  0  0  0  0  0  0  0  0  0
  156.6700  212.6950  156.9530 C   0  0  0  0  0  3  0  0  0  0  0  0
  156.3280  211.4010  156.5480 C   0  0  0  0  0  0  0  0  0  0  0  0
  158.0000  213.0040  157.2550 C   0  0  0  0  0  3  0  0  0  0  0  0
  1 19  1  0  0  0  0
  1  6  2  0  0  0  0
  2 15  1  0  0  0  0
  2 29  1  1  0  0  0
  4  3  1  1  0  0  0
  4  2  1  0  0  0  0
  5  4  1  0  0  0  0
  5  2  1  0  0  0  0
  6  5  2  0  0  0  0
  7 10  1  0  0  0  0
  9  8  1  1  0  0  0
 10 14  1  0  0  0  0
 10 13  1  0  0  0  0
 11 14  1  6  0  0  0
 11  9  1  0  0  0  0
 11  4  1  0  0  0  0
 12 10  1  0  0  0  0
 13  9  1  0  0  0  0
 15 17  1  0  0  0  0
 16 15  2  0  0  0  0
 17 18  1  0  0  0  0
 19 21  1  6  0  0  0
 19 22  1  0  0  0  0
 20 21  1  0  0  0  0
 23 26  1  6  0  0  0
 23 25  1  0  0  0  0
 24 23  1  0  0  0  0
 24 22  1  0  0  0  0
 24 25  1  0  0  0  0
 25 27  1  1  0  0  0
 27 28  1  0  0  0  0
 29 30  1  0  0  0  0
 30 32  1  0  0  0  0
 31 37  1  0  0  0  0
 32 31  2  0  0  0  0
 33 36  2  0  0  0  0
 33 32  1  0  0  0  0
 34 36  1  0  0  0  0
 35 37  2  0  0  0  0
 36 35  1  0  0  0  0
M  END
>  <MODEL>
8

>  <REMARK>
 VINA RESULT:      -2.1      3.175      6.801
  Name = 
  11 active torsions:
  status: ('A' for Active; 'I' for Inactive)
    1  A    between atoms: C_1  and  C_5
    2  A    between atoms: C_4  and  C_10
    3  A    between atoms: C_4  and  O_22
    4  A    between atoms: C_5  and  O_17
    5  A    between atoms: C_5  and  C_23
    6  A    between atoms: C_6  and  C_31
    7  A    between atoms: C_7  and  C_33
    8  A    between atoms: C_10  and  C_14
    9  A    between atoms: C_14  and  C_31
   10  A    between atoms: O_17  and  N_26
   11  A    between atoms: C_20  and  N_24
                            x       y       z     vdW  Elec       q    Type
                         _______ _______ _______ _____ _____    ______ ____

>  <TORSDO>
F 11

$$$$
=
 OpenBabel11062409213D

 37 40  0  0  1  0  0  0  0  0999 V2000
  159.5170  212.1740  151.5220 C   0  0  0  0  0  3  0  0  0  0  0  0
  159.8130  210.8540  155.3080 C   0  0  1  0  0  0  0  0  0  0  0  0
  157.7510  209.3900  154.7680 C   0  0  0  0  0  1  0  0  0  0  0  0
  158.3860  210.7380  155.1120 C   0  0  2  0  0  0  0  0  0  0  0  0
  159.2340  211.2680  153.9480 C   0  0  0  0  0  0  0  0  0  0  0  0
  159.3680  211.7210  152.7340 C   0  0  0  0  0  0  0  0  0  0  0  0
  155.7630  214.3970  155.2440 C   0  0  0  0  0  1  0  0  0  0  0  0
  155.7320  211.3430  157.2540 C   0  0  0  0  0  1  0  0  0  0  0  0
  156.1700  211.2780  155.8030 C   0  0  2  0  0  3  0  0  0  0  0  0
  156.1260  213.0960  154.5490 C   0  0  0  0  0  0  0  0  0  0  0  0
  157.5240  211.7910  155.6690 N   0  0  2  0  0  0  0  0  0  0  0  0
  155.8890  213.2560  153.0610 C   0  0  0  0  0  1  0  0  0  0  0  0
  155.3190  212.0620  155.0320 O   0  0  0  0  0  0  0  0  0  0  0  0
  157.4820  212.8100  154.7680 O   0  0  0  0  0  0  0  0  0  0  0  0
  160.3640  212.0010  156.1140 C   0  0  0  0  0  0  0  0  0  0  0  0
  161.5320  211.8770  156.7480 C   0  0  0  0  0  2  0  0  0  0  0  0
  159.5860  213.1560  156.2530 O   0  0  0  0  0  0  0  0  0  0  0  0
  160.0330  214.3170  156.9430 C   0  0  0  0  0  1  0  0  0  0  0  0
  160.7000  213.0120  151.1880 C   0  0  2  0  0  3  0  0  0  0  0  0
  158.8620  214.0820  149.8950 C   0  0  0  0  0  1  0  0  0  0  0  0
  160.2430  214.2780  150.4880 C   0  0  0  0  0  2  0  0  0  0  0  0
  161.5610  212.2900  150.3570 O   0  0  0  0  0  0  0  0  0  0  0  0
  162.2010  212.5700  148.1970 C   0  0  1  0  0  3  0  0  0  0  0  0
  161.0510  212.4540  149.1080 N   0  0  0  0  0  0  0  0  0  0  0  0
  161.4410  211.3260  148.2220 C   0  0  2  0  0  3  0  0  0  0  0  0
  161.8290  213.3200  147.0830 O   0  0  0  0  0  1  0  0  0  0  0  0
  162.2530  210.2330  148.9140 C   0  0  0  0  0  2  0  0  0  0  0  0
  161.7510  208.9830  148.5550 O   0  0  0  0  0  1  0  0  0  0  0  0
  160.6760  209.6010  155.1970 C   0  0  0  0  0  2  0  0  0  0  0  0
  161.3150  209.5110  153.8220 C   0  0  0  0  0  2  0  0  0  0  0  0
  161.2630  207.0450  154.2450 C   0  0  0  0  0  3  0  0  0  0  0  0
  161.2730  208.1060  153.3320 C   0  0  0  0  0  0  0  0  0  0  0  0
  161.2120  207.8450  151.9590 C   0  0  0  0  0  3  0  0  0  0  0  0
  161.0970  206.2730  150.1700 F   0  0  0  0  0  0  0  0  0  0  0  0
  161.1480  205.4670  152.4120 C   0  0  0  0  0  3  0  0  0  0  0  0
  161.1520  206.5250  151.4990 C   0  0  0  0  0  0  0  0  0  0  0  0
  161.2040  205.7270  153.7850 C   0  0  0  0  0  3  0  0  0  0  0  0
  1  6  2  0  0  0  0
  2 29  1  1  0  0  0
  2 15  1  0  0  0  0
  4  3  1  6  0  0  0
  4  2  1  0  0  0  0
  4 11  1  0  0  0  0
  5  4  1  0  0  0  0
  5  2  1  0  0  0  0
  6  5  2  0  0  0  0
  9  8  1  1  0  0  0
 10 14  1  0  0  0  0
 10 13  1  0  0  0  0
 10  7  1  0  0  0  0
 11 14  1  6  0  0  0
 11  9  1  0  0  0  0
 12 10  1  0  0  0  0
 13  9  1  0  0  0  0
 15 17  1  0  0  0  0
 15 16  2  0  0  0  0
 17 18  1  0  0  0  0
 19 21  1  6  0  0  0
 19  1  1  0  0  0  0
 20 21  1  0  0  0  0
 22 19  1  0  0  0  0
 23 26  1  6  0  0  0
 23 25  1  0  0  0  0
 23 24  1  0  0  0  0
 24 22  1  0  0  0  0
 25 27  1  1  0  0  0
 25 24  1  0  0  0  0
 28 27  1  0  0  0  0
 30 29  1  0  0  0  0
 32 30  1  0  0  0  0
 32 31  2  0  0  0  0
 33 32  1  0  0  0  0
 34 36  1  0  0  0  0
 35 37  2  0  0  0  0
 36 33  2  0  0  0  0
 36 35  1  0  0  0  0
 37 31  1  0  0  0  0
M  END
>  <MODEL>
9

>  <REMARK>
 VINA RESULT:      -1.8      2.020      3.311
  Name = 
  11 active torsions:
  status: ('A' for Active; 'I' for Inactive)
    1  A    between atoms: C_1  and  C_5
    2  A    between atoms: C_4  and  C_10
    3  A    between atoms: C_4  and  O_22
    4  A    between atoms: C_5  and  O_17
    5  A    between atoms: C_5  and  C_23
    6  A    between atoms: C_6  and  C_31
    7  A    between atoms: C_7  and  C_33
    8  A    between atoms: C_10  and  C_14
    9  A    between atoms: C_14  and  C_31
   10  A    between atoms: O_17  and  N_26
   11  A    between atoms: C_20  and  N_24
                            x       y       z     vdW  Elec       q    Type
                         _______ _______ _______ _____ _____    ______ ____

>  <TORSDO>
F 11

$$$$
