=
 OpenBabel11052422503D

 28 31  0  0  1  0  0  0  0  0999 V2000
  161.2580  210.2010  152.6440 C   0  0  2  0  0  3  0  0  0  0  0  0
  161.3310  212.2090  148.9980 O   0  0  0  0  0  0  0  0  0  0  0  0
  161.6300  207.3890  150.0600 N   0  0  0  0  0  0  0  0  0  0  0  0
  161.6470  210.1910  150.1480 N   0  0  0  0  0  0  0  0  0  0  0  0
  161.0570  208.0730  151.2230 C   0  0  0  0  0  2  0  0  0  0  0  0
  160.6700  212.2800  151.2720 C   0  0  0  0  0  2  0  0  0  0  0  0
  161.9430  209.4970  148.9240 C   0  0  0  0  0  3  0  0  0  0  0  0
  161.2260  211.5690  150.0800 C   0  0  0  0  0  0  0  0  0  0  0  0
  161.9560  208.1620  148.8880 C   0  0  0  0  0  3  0  0  0  0  0  0
  159.7330  211.1350  152.3240 S   0  0  0  0  0  0  0  0  0  0  0  0
  161.7390  209.4270  151.4060 C   0  0  2  0  0  3  0  0  0  0  0  0
  161.5190  205.3170  148.8620 C   0  0  0  0  0  3  0  0  0  0  0  0
  161.3640  204.0430  151.6380 C   0  0  0  0  0  3  0  0  0  0  0  0
  160.4920  203.1760  149.4750 C   0  0  0  0  0  0  0  0  0  0  0  0
  161.6880  205.9470  150.0340 C   0  0  0  0  0  0  0  0  0  0  0  0
  162.8750  205.7960  152.3110 C   0  0  0  0  0  1  0  0  0  0  0  0
  160.4470  203.2410  150.8050 C   0  0  0  0  0  3  0  0  0  0  0  0
  161.9570  205.1970  151.2990 C   0  0  0  0  0  0  0  0  0  0  0  0
  159.5830  202.4170  148.8200 F   0  0  0  0  0  0  0  0  0  0  0  0
  161.5810  203.8350  148.6950 C   0  0  0  0  0  2  0  0  0  0  0  0
  161.2080  209.3790  153.9020 C   0  0  0  0  0  0  0  0  0  0  0  0
  160.4560  208.1950  153.9590 C   0  0  0  0  0  3  0  0  0  0  0  0
  161.9560  208.9880  156.1800 C   0  0  0  0  0  0  0  0  0  0  0  0
  160.4490  207.4180  155.1190 C   0  0  0  0  0  3  0  0  0  0  0  0
  162.7140  210.9010  154.9770 F   0  0  0  0  0  0  0  0  0  0  0  0
  161.9660  209.7690  155.0180 C   0  0  0  0  0  0  0  0  0  0  0  0
  162.6840  209.3620  157.2600 F   0  0  0  0  0  0  0  0  0  0  0  0
  161.1980  207.8140  156.2290 C   0  0  0  0  0  3  0  0  0  0  0  0
  1 21  1  1  0  0  0
  2  8  2  0  0  0  0
  3  5  1  0  0  0  0
  4 11  1  0  0  0  0
  6 10  1  0  0  0  0
  7  4  1  0  0  0  0
  8  4  1  0  0  0  0
  8  6  1  0  0  0  0
  9  7  2  0  0  0  0
  9  3  1  0  0  0  0
 10  1  1  0  0  0  0
 11  5  1  6  0  0  0
 11  1  1  0  0  0  0
 12 15  2  0  0  0  0
 14 17  2  0  0  0  0
 15  3  1  0  0  0  0
 15 18  1  0  0  0  0
 17 13  1  0  0  0  0
 18 13  2  0  0  0  0
 18 16  1  0  0  0  0
 19 14  1  0  0  0  0
 20 12  1  0  0  0  0
 20 14  1  0  0  0  0
 21 22  2  0  0  0  0
 21 26  1  0  0  0  0
 22 24  1  0  0  0  0
 23 28  1  0  0  0  0
 23 27  1  0  0  0  0
 24 28  2  0  0  0  0
 25 26  1  0  0  0  0
 26 23  2  0  0  0  0
M  END
>  <MODEL>
1

>  <REMARK>
 VINA RESULT:      -7.3      0.000      0.000
  Name = 
  2 active torsions:
  status: ('A' for Active; 'I' for Inactive)
    1  A    between atoms: C_1  and  C_2
    2  A    between atoms: N_10  and  C_13
                            x       y       z     vdW  Elec       q    Type
                         _______ _______ _______ _____ _____    ______ ____

>  <TORSDO>
F 2

$$$$
=
 OpenBabel11052422503D

 28 31  0  0  1  0  0  0  0  0999 V2000
  160.1250  210.4350  154.3790 C   0  0  2  0  0  3  0  0  0  0  0  0
  161.7090  207.4210  156.7730 O   0  0  0  0  0  0  0  0  0  0  0  0
  161.0960  207.6950  151.8740 N   0  0  0  0  0  0  0  0  0  0  0  0
  160.9530  208.0640  154.6500 N   0  0  0  0  0  0  0  0  0  0  0  0
  161.0340  209.0560  152.4140 C   0  0  0  0  0  2  0  0  0  0  0  0
  161.2230  209.7320  156.5810 C   0  0  0  0  0  2  0  0  0  0  0  0
  161.2870  206.7780  154.1000 C   0  0  0  0  0  3  0  0  0  0  0  0
  161.3150  208.3500  156.0170 C   0  0  0  0  0  0  0  0  0  0  0  0
  161.3340  206.5970  152.7780 C   0  0  0  0  0  3  0  0  0  0  0  0
  161.5920  210.9710  155.3070 S   0  0  0  0  0  0  0  0  0  0  0  0
  160.3050  209.0420  153.7560 C   0  0  2  0  0  3  0  0  0  0  0  0
  160.3570  206.4990  149.9340 C   0  0  0  0  0  3  0  0  0  0  0  0
  162.6050  207.9950  148.5000 C   0  0  0  0  0  3  0  0  0  0  0  0
  161.5860  205.7970  147.9320 C   0  0  0  0  0  0  0  0  0  0  0  0
  161.1010  207.4910  150.4460 C   0  0  0  0  0  0  0  0  0  0  0  0
  162.0440  209.8320  149.9550 C   0  0  0  0  0  1  0  0  0  0  0  0
  162.6150  206.6430  147.9070 C   0  0  0  0  0  3  0  0  0  0  0  0
  161.9110  208.3970  149.5740 C   0  0  0  0  0  0  0  0  0  0  0  0
  161.7220  204.5750  147.3670 F   0  0  0  0  0  0  0  0  0  0  0  0
  160.2550  206.1990  148.4760 C   0  0  0  0  0  2  0  0  0  0  0  0
  159.6030  211.4730  153.4240 C   0  0  0  0  0  0  0  0  0  0  0  0
  160.3840  211.9150  152.3450 C   0  0  0  0  0  3  0  0  0  0  0  0
  157.7910  212.9040  152.6710 C   0  0  0  0  0  0  0  0  0  0  0  0
  159.8750  212.8500  151.4410 C   0  0  0  0  0  3  0  0  0  0  0  0
  157.5200  211.5390  154.6050 F   0  0  0  0  0  0  0  0  0  0  0  0
  158.2980  211.9670  153.5790 C   0  0  0  0  0  0  0  0  0  0  0  0
  156.5320  213.3860  152.8180 F   0  0  0  0  0  0  0  0  0  0  0  0
  158.5790  213.3440  151.6040 C   0  0  0  0  0  3  0  0  0  0  0  0
  1 21  1  6  0  0  0
  1 10  1  0  0  0  0
  3  5  1  0  0  0  0
  3  9  1  0  0  0  0
  4  8  1  0  0  0  0
  7  4  1  0  0  0  0
  8  6  1  0  0  0  0
  8  2  2  0  0  0  0
  9  7  2  0  0  0  0
 10  6  1  0  0  0  0
 11  5  1  6  0  0  0
 11  1  1  0  0  0  0
 11  4  1  0  0  0  0
 12 15  2  0  0  0  0
 13 18  2  0  0  0  0
 14 20  1  0  0  0  0
 15  3  1  0  0  0  0
 17 14  2  0  0  0  0
 17 13  1  0  0  0  0
 18 16  1  0  0  0  0
 18 15  1  0  0  0  0
 19 14  1  0  0  0  0
 20 12  1  0  0  0  0
 21 26  1  0  0  0  0
 22 21  2  0  0  0  0
 23 27  1  0  0  0  0
 23 26  2  0  0  0  0
 24 28  2  0  0  0  0
 24 22  1  0  0  0  0
 26 25  1  0  0  0  0
 28 23  1  0  0  0  0
M  END
>  <MODEL>
2

>  <REMARK>
 VINA RESULT:      -7.0      3.096      4.958
  Name = 
  2 active torsions:
  status: ('A' for Active; 'I' for Inactive)
    1  A    between atoms: C_1  and  C_2
    2  A    between atoms: N_10  and  C_13
                            x       y       z     vdW  Elec       q    Type
                         _______ _______ _______ _____ _____    ______ ____

>  <TORSDO>
F 2

$$$$
=
 OpenBabel11052422503D

 28 31  0  0  1  0  0  0  0  0999 V2000
  160.0160  210.4880  154.1330 C   0  0  2  0  0  3  0  0  0  0  0  0
  160.7050  207.8280  157.2590 O   0  0  0  0  0  0  0  0  0  0  0  0
  161.2610  207.3150  152.3730 N   0  0  0  0  0  0  0  0  0  0  0  0
  160.5220  208.1500  154.9450 N   0  0  0  0  0  0  0  0  0  0  0  0
  161.2110  208.7480  152.6740 C   0  0  0  0  0  2  0  0  0  0  0  0
  160.5050  210.0990  156.6150 C   0  0  0  0  0  2  0  0  0  0  0  0
  160.8460  206.7730  154.6900 C   0  0  0  0  0  3  0  0  0  0  0  0
  160.5870  208.6390  156.3010 C   0  0  0  0  0  0  0  0  0  0  0  0
  161.1770  206.3710  153.4600 C   0  0  0  0  0  3  0  0  0  0  0  0
  161.2760  211.0830  155.2990 S   0  0  0  0  0  0  0  0  0  0  0  0
  160.1960  209.0020  153.7860 C   0  0  2  0  0  3  0  0  0  0  0  0
  162.0560  207.7670  150.1590 C   0  0  0  0  0  3  0  0  0  0  0  0
  160.9030  205.0160  149.4850 C   0  0  0  0  0  3  0  0  0  0  0  0
  161.2520  206.9700  147.9840 C   0  0  0  0  0  0  0  0  0  0  0  0
  161.5730  206.8740  151.0350 C   0  0  0  0  0  0  0  0  0  0  0  0
  161.6260  204.3890  151.6970 C   0  0  0  0  0  1  0  0  0  0  0  0
  160.6070  205.8470  148.3020 C   0  0  0  0  0  3  0  0  0  0  0  0
  161.3740  205.4380  150.6670 C   0  0  0  0  0  0  0  0  0  0  0  0
  160.8760  207.6560  146.8790 F   0  0  0  0  0  0  0  0  0  0  0  0
  162.4410  207.4350  148.7560 C   0  0  0  0  0  2  0  0  0  0  0  0
  159.8320  211.3810  152.9370 C   0  0  0  0  0  0  0  0  0  0  0  0
  160.8360  211.4970  151.9650 C   0  0  0  0  0  3  0  0  0  0  0  0
  158.4240  212.8680  151.6300 C   0  0  0  0  0  0  0  0  0  0  0  0
  160.6390  212.2980  150.8380 C   0  0  0  0  0  3  0  0  0  0  0  0
  157.6260  211.9520  153.6810 F   0  0  0  0  0  0  0  0  0  0  0  0
  158.6180  212.0650  152.7610 C   0  0  0  0  0  0  0  0  0  0  0  0
  157.2550  213.5320  151.4570 F   0  0  0  0  0  0  0  0  0  0  0  0
  159.4340  212.9830  150.6700 C   0  0  0  0  0  3  0  0  0  0  0  0
  1 21  1  6  0  0  0
  1 10  1  0  0  0  0
  3  5  1  0  0  0  0
  3  9  1  0  0  0  0
  4  8  1  0  0  0  0
  7  4  1  0  0  0  0
  8  6  1  0  0  0  0
  8  2  2  0  0  0  0
  9  7  2  0  0  0  0
 10  6  1  0  0  0  0
 11  5  1  6  0  0  0
 11  1  1  0  0  0  0
 11  4  1  0  0  0  0
 12 15  2  0  0  0  0
 13 18  2  0  0  0  0
 14 17  2  0  0  0  0
 14 20  1  0  0  0  0
 15  3  1  0  0  0  0
 17 13  1  0  0  0  0
 18 15  1  0  0  0  0
 18 16  1  0  0  0  0
 19 14  1  0  0  0  0
 20 12  1  0  0  0  0
 22 21  2  0  0  0  0
 23 26  2  0  0  0  0
 24 22  1  0  0  0  0
 26 21  1  0  0  0  0
 26 25  1  0  0  0  0
 27 23  1  0  0  0  0
 28 24  2  0  0  0  0
 28 23  1  0  0  0  0
M  END
>  <MODEL>
3

>  <REMARK>
 VINA RESULT:      -6.8      3.191      4.987
  Name = 
  2 active torsions:
  status: ('A' for Active; 'I' for Inactive)
    1  A    between atoms: C_1  and  C_2
    2  A    between atoms: N_10  and  C_13
                            x       y       z     vdW  Elec       q    Type
                         _______ _______ _______ _____ _____    ______ ____

>  <TORSDO>
F 2

$$$$
=
 OpenBabel11052422503D

 28 31  0  0  1  0  0  0  0  0999 V2000
  161.4900  208.8420  152.9850 C   0  0  2  0  0  3  0  0  0  0  0  0
  161.2600  209.9160  157.0000 O   0  0  0  0  0  0  0  0  0  0  0  0
  159.4590  212.0970  152.9450 N   0  0  0  0  0  0  0  0  0  0  0  0
  160.9070  210.5350  154.7670 N   0  0  0  0  0  0  0  0  0  0  0  0
  159.7620  210.7020  152.6110 C   0  0  0  0  0  2  0  0  0  0  0  0
  161.5800  208.1540  155.4480 C   0  0  0  0  0  2  0  0  0  0  0  0
  160.3590  211.8020  155.1660 C   0  0  0  0  0  3  0  0  0  0  0  0
  161.2400  209.5700  155.7880 C   0  0  0  0  0  0  0  0  0  0  0  0
  159.6880  212.5560  154.2920 C   0  0  0  0  0  3  0  0  0  0  0  0
  160.6400  207.5970  153.9990 S   0  0  0  0  0  0  0  0  0  0  0  0
  161.0430  210.2730  153.3220 C   0  0  2  0  0  3  0  0  0  0  0  0
  157.6430  213.5460  152.3610 C   0  0  0  0  0  3  0  0  0  0  0  0
  158.6230  213.1570  149.4910 C   0  0  0  0  0  3  0  0  0  0  0  0
  156.3330  213.7050  150.2940 C   0  0  0  0  0  0  0  0  0  0  0  0
  158.7740  212.9300  151.9870 C   0  0  0  0  0  0  0  0  0  0  0  0
  160.8310  213.1350  150.4560 C   0  0  0  0  0  1  0  0  0  0  0  0
  157.1510  213.1760  149.3860 C   0  0  0  0  0  3  0  0  0  0  0  0
  159.3480  213.1050  150.6170 C   0  0  0  0  0  0  0  0  0  0  0  0
  154.9950  213.6450  150.0940 F   0  0  0  0  0  0  0  0  0  0  0  0
  156.8540  214.4530  151.4760 C   0  0  0  0  0  2  0  0  0  0  0  0
  161.4850  208.5260  151.5150 C   0  0  0  0  0  0  0  0  0  0  0  0
  160.8640  207.3650  151.0300 C   0  0  0  0  0  3  0  0  0  0  0  0
  162.0250  209.1640  149.2340 C   0  0  0  0  0  0  0  0  0  0  0  0
  160.8310  207.1020  149.6590 C   0  0  0  0  0  3  0  0  0  0  0  0
  162.6490  210.5700  151.0550 F   0  0  0  0  0  0  0  0  0  0  0  0
  162.0600  209.4320  150.6080 C   0  0  0  0  0  0  0  0  0  0  0  0
  162.5810  210.0340  148.3550 F   0  0  0  0  0  0  0  0  0  0  0  0
  161.4110  208.0010  148.7610 C   0  0  0  0  0  3  0  0  0  0  0  0
  1 21  1  6  0  0  0
  1 11  1  0  0  0  0
  1 10  1  0  0  0  0
  3  9  1  0  0  0  0
  4  7  1  0  0  0  0
  4  8  1  0  0  0  0
  5  3  1  0  0  0  0
  6  8  1  0  0  0  0
  8  2  2  0  0  0  0
  9  7  2  0  0  0  0
 10  6  1  0  0  0  0
 11  5  1  6  0  0  0
 11  4  1  0  0  0  0
 13 18  2  0  0  0  0
 14 20  1  0  0  0  0
 15 12  2  0  0  0  0
 15  3  1  0  0  0  0
 16 18  1  0  0  0  0
 17 13  1  0  0  0  0
 17 14  2  0  0  0  0
 18 15  1  0  0  0  0
 19 14  1  0  0  0  0
 20 12  1  0  0  0  0
 22 21  1  0  0  0  0
 23 26  1  0  0  0  0
 24 22  2  0  0  0  0
 26 25  1  0  0  0  0
 26 21  2  0  0  0  0
 27 23  1  0  0  0  0
 28 23  2  0  0  0  0
 28 24  1  0  0  0  0
M  END
>  <MODEL>
4

>  <REMARK>
 VINA RESULT:      -6.7      3.728      7.348
  Name = 
  2 active torsions:
  status: ('A' for Active; 'I' for Inactive)
    1  A    between atoms: C_1  and  C_2
    2  A    between atoms: N_10  and  C_13
                            x       y       z     vdW  Elec       q    Type
                         _______ _______ _______ _____ _____    ______ ____

>  <TORSDO>
F 2

$$$$
=
 OpenBabel11052422503D

 28 31  0  0  1  0  0  0  0  0999 V2000
  161.4190  209.4570  152.2970 C   0  0  2  0  0  3  0  0  0  0  0  0
  162.3810  211.5940  148.8570 O   0  0  0  0  0  0  0  0  0  0  0  0
  161.2460  206.8260  149.5100 N   0  0  0  0  0  0  0  0  0  0  0  0
  162.0230  209.4990  149.8450 N   0  0  0  0  0  0  0  0  0  0  0  0
  160.7770  207.5670  150.6840 C   0  0  0  0  0  2  0  0  0  0  0  0
  161.5550  211.7010  151.0750 C   0  0  0  0  0  2  0  0  0  0  0  0
  162.2300  208.8300  148.5890 C   0  0  0  0  0  3  0  0  0  0  0  0
  162.0040  210.9410  149.8680 C   0  0  0  0  0  0  0  0  0  0  0  0
  161.8800  207.5500  148.4370 C   0  0  0  0  0  3  0  0  0  0  0  0
  160.2460  210.8000  151.9520 S   0  0  0  0  0  0  0  0  0  0  0  0
  161.7830  208.6610  151.0340 C   0  0  2  0  0  3  0  0  0  0  0  0
  160.4940  204.7500  150.4390 C   0  0  0  0  0  3  0  0  0  0  0  0
  161.4540  203.5420  147.7990 C   0  0  0  0  0  3  0  0  0  0  0  0
  161.2490  202.4540  150.0280 C   0  0  0  0  0  0  0  0  0  0  0  0
  160.9090  205.4310  149.3610 C   0  0  0  0  0  0  0  0  0  0  0  0
  160.6790  205.5960  146.8050 C   0  0  0  0  0  1  0  0  0  0  0  0
  161.8120  202.5410  148.8230 C   0  0  0  0  0  3  0  0  0  0  0  0
  161.0080  204.7880  148.0150 C   0  0  0  0  0  0  0  0  0  0  0  0
  161.6760  201.5000  150.8890 F   0  0  0  0  0  0  0  0  0  0  0  0
  160.0910  203.3130  150.4150 C   0  0  0  0  0  2  0  0  0  0  0  0
  161.0280  208.6020  153.4720 C   0  0  0  0  0  0  0  0  0  0  0  0
  161.0240  207.2030  153.3730 C   0  0  0  0  0  3  0  0  0  0  0  0
  160.3900  208.4190  155.8080 C   0  0  0  0  0  0  0  0  0  0  0  0
  160.6980  206.4180  154.4810 C   0  0  0  0  0  3  0  0  0  0  0  0
  160.7330  210.5610  154.8200 F   0  0  0  0  0  0  0  0  0  0  0  0
  160.7170  209.2090  154.6990 C   0  0  0  0  0  0  0  0  0  0  0  0
  160.0870  209.0000  156.9950 F   0  0  0  0  0  0  0  0  0  0  0  0
  160.3820  207.0260  155.6980 C   0  0  0  0  0  3  0  0  0  0  0  0
  1 21  1  1  0  0  0
  2  8  2  0  0  0  0
  3  5  1  0  0  0  0
  4  8  1  0  0  0  0
  4 11  1  0  0  0  0
  6 10  1  0  0  0  0
  7  4  1  0  0  0  0
  8  6  1  0  0  0  0
  9  7  2  0  0  0  0
  9  3  1  0  0  0  0
 10  1  1  0  0  0  0
 11  5  1  6  0  0  0
 11  1  1  0  0  0  0
 13 18  2  0  0  0  0
 13 17  1  0  0  0  0
 14 20  1  0  0  0  0
 14 19  1  0  0  0  0
 15  3  1  0  0  0  0
 15 12  2  0  0  0  0
 16 18  1  0  0  0  0
 17 14  2  0  0  0  0
 18 15  1  0  0  0  0
 20 12  1  0  0  0  0
 21 26  1  0  0  0  0
 22 21  2  0  0  0  0
 22 24  1  0  0  0  0
 23 27  1  0  0  0  0
 24 28  2  0  0  0  0
 26 25  1  0  0  0  0
 26 23  2  0  0  0  0
 28 23  1  0  0  0  0
M  END
>  <MODEL>
5

>  <REMARK>
 VINA RESULT:      -6.7      1.390      2.072
  Name = 
  2 active torsions:
  status: ('A' for Active; 'I' for Inactive)
    1  A    between atoms: C_1  and  C_2
    2  A    between atoms: N_10  and  C_13
                            x       y       z     vdW  Elec       q    Type
                         _______ _______ _______ _____ _____    ______ ____

>  <TORSDO>
F 2

$$$$
=
 OpenBabel11052422503D

 28 31  0  0  1  0  0  0  0  0999 V2000
  161.5020  208.9910  152.9210 C   0  0  2  0  0  3  0  0  0  0  0  0
  161.1660  209.9080  156.9670 O   0  0  0  0  0  0  0  0  0  0  0  0
  159.3470  212.1650  152.9610 N   0  0  0  0  0  0  0  0  0  0  0  0
  160.8250  210.5940  154.7520 N   0  0  0  0  0  0  0  0  0  0  0  0
  159.7090  210.7960  152.5830 C   0  0  0  0  0  2  0  0  0  0  0  0
  161.5790  208.2180  155.3590 C   0  0  0  0  0  2  0  0  0  0  0  0
  160.2220  211.8240  155.1860 C   0  0  0  0  0  3  0  0  0  0  0  0
  161.1790  209.6060  155.7430 C   0  0  0  0  0  0  0  0  0  0  0  0
  159.5360  212.5830  154.3280 C   0  0  0  0  0  3  0  0  0  0  0  0
  160.6850  207.6780  153.8740 S   0  0  0  0  0  0  0  0  0  0  0  0
  160.9950  210.3900  153.3010 C   0  0  2  0  0  3  0  0  0  0  0  0
  157.4750  213.5470  152.3900 C   0  0  0  0  0  3  0  0  0  0  0  0
  158.5500  213.3390  149.5350 C   0  0  0  0  0  3  0  0  0  0  0  0
  156.2140  213.7350  150.2960 C   0  0  0  0  0  0  0  0  0  0  0  0
  158.6460  213.0060  152.0220 C   0  0  0  0  0  0  0  0  0  0  0  0
  160.7290  213.3830  150.5620 C   0  0  0  0  0  1  0  0  0  0  0  0
  157.0820  213.2890  149.3890 C   0  0  0  0  0  3  0  0  0  0  0  0
  159.2470  213.2710  150.6780 C   0  0  0  0  0  0  0  0  0  0  0  0
  154.8870  213.6170  150.0540 F   0  0  0  0  0  0  0  0  0  0  0  0
  156.6650  214.4530  151.5240 C   0  0  0  0  0  2  0  0  0  0  0  0
  161.5330  208.7290  151.4400 C   0  0  0  0  0  0  0  0  0  0  0  0
  161.9380  209.7280  150.5410 C   0  0  0  0  0  3  0  0  0  0  0  0
  161.2710  207.1910  149.5790 C   0  0  0  0  0  0  0  0  0  0  0  0
  162.0020  209.4630  149.1720 C   0  0  0  0  0  3  0  0  0  0  0  0
  160.8300  206.4680  151.8070 F   0  0  0  0  0  0  0  0  0  0  0  0
  161.2070  207.4530  150.9520 C   0  0  0  0  0  0  0  0  0  0  0  0
  160.9550  205.9610  149.1030 F   0  0  0  0  0  0  0  0  0  0  0  0
  161.6690  208.1940  148.6910 C   0  0  0  0  0  3  0  0  0  0  0  0
  1 21  1  6  0  0  0
  1 11  1  0  0  0  0
  1 10  1  0  0  0  0
  3  9  1  0  0  0  0
  4  7  1  0  0  0  0
  4  8  1  0  0  0  0
  5  3  1  0  0  0  0
  6  8  1  0  0  0  0
  8  2  2  0  0  0  0
  9  7  2  0  0  0  0
 10  6  1  0  0  0  0
 11  5  1  6  0  0  0
 11  4  1  0  0  0  0
 13 18  2  0  0  0  0
 14 20  1  0  0  0  0
 15 12  2  0  0  0  0
 15  3  1  0  0  0  0
 16 18  1  0  0  0  0
 17 13  1  0  0  0  0
 17 14  2  0  0  0  0
 18 15  1  0  0  0  0
 19 14  1  0  0  0  0
 20 12  1  0  0  0  0
 22 21  2  0  0  0  0
 23 26  2  0  0  0  0
 24 22  1  0  0  0  0
 26 21  1  0  0  0  0
 26 25  1  0  0  0  0
 27 23  1  0  0  0  0
 28 24  2  0  0  0  0
 28 23  1  0  0  0  0
M  END
>  <MODEL>
6

>  <REMARK>
 VINA RESULT:      -6.4      3.681      7.498
  Name = 
  2 active torsions:
  status: ('A' for Active; 'I' for Inactive)
    1  A    between atoms: C_1  and  C_2
    2  A    between atoms: N_10  and  C_13
                            x       y       z     vdW  Elec       q    Type
                         _______ _______ _______ _____ _____    ______ ____

>  <TORSDO>
F 2

$$$$
=
 OpenBabel11052422503D

 28 31  0  0  1  0  0  0  0  0999 V2000
  161.1940  206.5330  151.2750 C   0  0  2  0  0  3  0  0  0  0  0  0
  160.4800  202.8720  153.1240 O   0  0  0  0  0  0  0  0  0  0  0  0
  161.2770  204.0160  148.3800 N   0  0  0  0  0  0  0  0  0  0  0  0
  160.6690  204.0670  151.1160 N   0  0  0  0  0  0  0  0  0  0  0  0
  161.7580  205.1310  149.2000 C   0  0  0  0  0  2  0  0  0  0  0  0
  161.2440  205.0990  153.3940 C   0  0  0  0  0  2  0  0  0  0  0  0
  160.4560  202.8740  150.3430 C   0  0  0  0  0  3  0  0  0  0  0  0
  160.7830  203.9540  152.5500 C   0  0  0  0  0  0  0  0  0  0  0  0
  160.7250  202.8570  149.0350 C   0  0  0  0  0  3  0  0  0  0  0  0
  162.4630  206.1050  152.5020 S   0  0  0  0  0  0  0  0  0  0  0  0
  160.8160  205.3390  150.3840 C   0  0  2  0  0  3  0  0  0  0  0  0
  162.2740  204.9940  146.4330 C   0  0  0  0  0  3  0  0  0  0  0  0
  160.4560  203.0840  144.8860 C   0  0  0  0  0  3  0  0  0  0  0  0
  161.3950  205.2720  144.1610 C   0  0  0  0  0  0  0  0  0  0  0  0
  161.5250  204.0140  146.9580 C   0  0  0  0  0  0  0  0  0  0  0  0
  160.8710  201.5410  146.6890 C   0  0  0  0  0  1  0  0  0  0  0  0
  160.4560  204.3280  144.0920 C   0  0  0  0  0  3  0  0  0  0  0  0
  160.9650  202.9130  146.1150 C   0  0  0  0  0  0  0  0  0  0  0  0
  161.2750  206.3800  143.3940 F   0  0  0  0  0  0  0  0  0  0  0  0
  162.6260  205.0920  144.9860 C   0  0  0  0  0  2  0  0  0  0  0  0
  161.4910  207.7970  150.5160 C   0  0  0  0  0  0  0  0  0  0  0  0
  161.7910  207.7590  149.1460 C   0  0  0  0  0  3  0  0  0  0  0  0
  161.6510  210.2200  150.4630 C   0  0  0  0  0  0  0  0  0  0  0  0
  162.0260  208.9420  148.4410 C   0  0  0  0  0  3  0  0  0  0  0  0
  161.1080  209.0950  152.4930 F   0  0  0  0  0  0  0  0  0  0  0  0
  161.4140  209.0360  151.1720 C   0  0  0  0  0  0  0  0  0  0  0  0
  161.5800  211.4190  151.0930 F   0  0  0  0  0  0  0  0  0  0  0  0
  161.9560  210.1720  149.1000 C   0  0  0  0  0  3  0  0  0  0  0  0
  1 21  1  6  0  0  0
  1 10  1  0  0  0  0
  3  9  1  0  0  0  0
  3  5  1  0  0  0  0
  4  8  1  0  0  0  0
  7  4  1  0  0  0  0
  8  2  2  0  0  0  0
  8  6  1  0  0  0  0
  9  7  2  0  0  0  0
 10  6  1  0  0  0  0
 11  5  1  6  0  0  0
 11  4  1  0  0  0  0
 11  1  1  0  0  0  0
 12 15  2  0  0  0  0
 13 18  2  0  0  0  0
 14 20  1  0  0  0  0
 15  3  1  0  0  0  0
 17 14  2  0  0  0  0
 17 13  1  0  0  0  0
 18 16  1  0  0  0  0
 18 15  1  0  0  0  0
 19 14  1  0  0  0  0
 20 12  1  0  0  0  0
 21 26  1  0  0  0  0
 22 21  2  0  0  0  0
 23 27  1  0  0  0  0
 23 26  2  0  0  0  0
 24 28  2  0  0  0  0
 24 22  1  0  0  0  0
 26 25  1  0  0  0  0
 28 23  1  0  0  0  0
M  END
>  <MODEL>
7

>  <REMARK>
 VINA RESULT:      -6.3      3.688      5.934
  Name = 
  2 active torsions:
  status: ('A' for Active; 'I' for Inactive)
    1  A    between atoms: C_1  and  C_2
    2  A    between atoms: N_10  and  C_13
                            x       y       z     vdW  Elec       q    Type
                         _______ _______ _______ _____ _____    ______ ____

>  <TORSDO>
F 2

$$$$
=
 OpenBabel11052422503D

 28 31  0  0  1  0  0  0  0  0999 V2000
  161.4280  206.7520  149.5360 C   0  0  2  0  0  3  0  0  0  0  0  0
  162.1340  210.6910  148.3910 O   0  0  0  0  0  0  0  0  0  0  0  0
  161.4850  208.6720  152.8580 N   0  0  0  0  0  0  0  0  0  0  0  0
  161.5360  209.2100  150.1070 N   0  0  0  0  0  0  0  0  0  0  0  0
  161.8390  207.5990  151.9240 C   0  0  0  0  0  2  0  0  0  0  0  0
  162.3370  208.4040  147.8070 C   0  0  0  0  0  2  0  0  0  0  0  0
  161.4650  210.2840  151.0600 C   0  0  0  0  0  3  0  0  0  0  0  0
  162.0050  209.4960  148.7730 C   0  0  0  0  0  0  0  0  0  0  0  0
  161.4190  210.0270  152.3690 C   0  0  0  0  0  3  0  0  0  0  0  0
  163.0140  206.9610  148.6750 S   0  0  0  0  0  0  0  0  0  0  0  0
  161.1760  207.8580  150.5730 C   0  0  2  0  0  3  0  0  0  0  0  0
  161.2450  207.1160  154.6640 C   0  0  0  0  0  3  0  0  0  0  0  0
  160.7350  209.6040  156.3680 C   0  0  0  0  0  3  0  0  0  0  0  0
  159.9480  207.2720  156.7390 C   0  0  0  0  0  0  0  0  0  0  0  0
  161.3890  208.3900  154.2700 C   0  0  0  0  0  0  0  0  0  0  0  0
  162.3690  210.6680  154.9520 C   0  0  0  0  0  1  0  0  0  0  0  0
  159.8050  208.5880  156.8990 C   0  0  0  0  0  3  0  0  0  0  0  0
  161.4740  209.5130  155.2530 C   0  0  0  0  0  0  0  0  0  0  0  0
  159.0160  206.4390  157.2590 F   0  0  0  0  0  0  0  0  0  0  0  0
  161.1600  206.6890  156.0920 C   0  0  0  0  0  2  0  0  0  0  0  0
  161.2050  205.3590  150.0570 C   0  0  0  0  0  0  0  0  0  0  0  0
  161.1600  205.1050  151.4360 C   0  0  0  0  0  3  0  0  0  0  0  0
  160.7350  203.0140  149.6320 C   0  0  0  0  0  0  0  0  0  0  0  0
  160.9120  203.8140  151.9090 C   0  0  0  0  0  3  0  0  0  0  0  0
  161.0050  204.5340  147.8160 F   0  0  0  0  0  0  0  0  0  0  0  0
  160.9830  204.3060  149.1540 C   0  0  0  0  0  0  0  0  0  0  0  0
  160.5230  201.9940  148.7630 F   0  0  0  0  0  0  0  0  0  0  0  0
  160.7000  202.7690  151.0070 C   0  0  0  0  0  3  0  0  0  0  0  0
  1 21  1  1  0  0  0
  1 11  1  0  0  0  0
  2  8  2  0  0  0  0
  3 15  1  0  0  0  0
  4 11  1  0  0  0  0
  4  7  1  0  0  0  0
  5  3  1  0  0  0  0
  6 10  1  0  0  0  0
  6  8  1  0  0  0  0
  7  9  2  0  0  0  0
  8  4  1  0  0  0  0
  9  3  1  0  0  0  0
 10  1  1  0  0  0  0
 11  5  1  1  0  0  0
 12 20  1  0  0  0  0
 13 17  1  0  0  0  0
 14 17  2  0  0  0  0
 14 19  1  0  0  0  0
 15 12  2  0  0  0  0
 15 18  1  0  0  0  0
 16 18  1  0  0  0  0
 18 13  2  0  0  0  0
 20 14  1  0  0  0  0
 21 22  1  0  0  0  0
 22 24  2  0  0  0  0
 23 28  2  0  0  0  0
 25 26  1  0  0  0  0
 26 23  1  0  0  0  0
 26 21  2  0  0  0  0
 27 23  1  0  0  0  0
 28 24  1  0  0  0  0
M  END
>  <MODEL>
8

>  <REMARK>
 VINA RESULT:      -6.1      2.202      6.271
  Name = 
  2 active torsions:
  status: ('A' for Active; 'I' for Inactive)
    1  A    between atoms: C_1  and  C_2
    2  A    between atoms: N_10  and  C_13
                            x       y       z     vdW  Elec       q    Type
                         _______ _______ _______ _____ _____    ______ ____

>  <TORSDO>
F 2

$$$$
=
 OpenBabel11052422503D

 28 31  0  0  1  0  0  0  0  0999 V2000
  158.0700  213.1640  153.1890 C   0  0  2  0  0  3  0  0  0  0  0  0
  157.4950  212.2860  157.2170 O   0  0  0  0  0  0  0  0  0  0  0  0
  160.0230  209.9010  153.7000 N   0  0  0  0  0  0  0  0  0  0  0  0
  158.2690  211.5570  155.1280 N   0  0  0  0  0  0  0  0  0  0  0  0
  159.8110  211.2790  153.2490 C   0  0  0  0  0  2  0  0  0  0  0  0
  157.5100  213.9710  155.5520 C   0  0  0  0  0  2  0  0  0  0  0  0
  158.7100  210.3080  155.6860 C   0  0  0  0  0  3  0  0  0  0  0  0
  157.7560  212.5720  156.0170 C   0  0  0  0  0  0  0  0  0  0  0  0
  159.5280  209.5090  154.9970 C   0  0  0  0  0  3  0  0  0  0  0  0
  158.7230  214.4530  154.2900 S   0  0  0  0  0  0  0  0  0  0  0  0
  158.4220  211.7490  153.6740 C   0  0  2  0  0  3  0  0  0  0  0  0
  161.4320  209.4800  151.8090 C   0  0  0  0  0  3  0  0  0  0  0  0
  161.1910  206.5470  152.6350 C   0  0  0  0  0  3  0  0  0  0  0  0
  161.6290  207.4990  150.3780 C   0  0  0  0  0  0  0  0  0  0  0  0
  160.8700  209.0180  152.9350 C   0  0  0  0  0  0  0  0  0  0  0  0
  161.2060  207.3850  154.8940 C   0  0  0  0  0  1  0  0  0  0  0  0
  161.1640  206.5250  151.1590 C   0  0  0  0  0  3  0  0  0  0  0  0
  161.1180  207.6270  153.4250 C   0  0  0  0  0  0  0  0  0  0  0  0
  161.5310  207.3710  149.0340 F   0  0  0  0  0  0  0  0  0  0  0  0
  162.3460  208.6800  150.9430 C   0  0  0  0  0  2  0  0  0  0  0  0
  158.3670  213.4070  151.7350 C   0  0  0  0  0  0  0  0  0  0  0  0
  159.6810  213.3400  151.2480 C   0  0  0  0  0  3  0  0  0  0  0  0
  157.5760  213.8380  149.4790 C   0  0  0  0  0  0  0  0  0  0  0  0
  159.9410  213.5280  149.8890 C   0  0  0  0  0  3  0  0  0  0  0  0
  156.0310  213.7000  151.2890 F   0  0  0  0  0  0  0  0  0  0  0  0
  157.3110  213.6500  150.8410 C   0  0  0  0  0  0  0  0  0  0  0  0
  156.5600  214.0750  148.6130 F   0  0  0  0  0  0  0  0  0  0  0  0
  158.8890  213.7770  149.0050 C   0  0  0  0  0  3  0  0  0  0  0  0
  1 21  1  6  0  0  0
  1 11  1  0  0  0  0
  1 10  1  0  0  0  0
  3  9  1  0  0  0  0
  4  7  1  0  0  0  0
  4  8  1  0  0  0  0
  5  3  1  0  0  0  0
  6  8  1  0  0  0  0
  8  2  2  0  0  0  0
  9  7  2  0  0  0  0
 10  6  1  0  0  0  0
 11  5  1  1  0  0  0
 11  4  1  0  0  0  0
 12 15  2  0  0  0  0
 13 18  2  0  0  0  0
 14 20  1  0  0  0  0
 14 17  2  0  0  0  0
 15 18  1  0  0  0  0
 15  3  1  0  0  0  0
 17 13  1  0  0  0  0
 18 16  1  0  0  0  0
 19 14  1  0  0  0  0
 20 12  1  0  0  0  0
 22 21  1  0  0  0  0
 23 26  1  0  0  0  0
 24 22  2  0  0  0  0
 26 25  1  0  0  0  0
 26 21  2  0  0  0  0
 27 23  1  0  0  0  0
 28 23  2  0  0  0  0
 28 24  1  0  0  0  0
M  END
>  <MODEL>
9

>  <REMARK>
 VINA RESULT:      -5.9      4.205      6.338
  Name = 
  2 active torsions:
  status: ('A' for Active; 'I' for Inactive)
    1  A    between atoms: C_1  and  C_2
    2  A    between atoms: N_10  and  C_13
                            x       y       z     vdW  Elec       q    Type
                         _______ _______ _______ _____ _____    ______ ____

>  <TORSDO>
F 2

$$$$
