=
 OpenBabel11062410183D

 43 47  0  0  1  0  0  0  0  0999 V2000
  162.1060  210.5270  148.7160 N   0  0  0  0  0  2  0  0  0  0  0  0
  160.5840  202.7660  149.5590 C   0  0  0  0  0  0  0  0  0  0  0  0
  162.5570  211.1520  150.9160 O   0  0  0  0  0  0  0  0  0  0  0  0
  161.4720  207.1320  151.9410 C   0  0  0  0  0  0  0  0  0  0  0  0
  162.1700  210.2570  150.1160 C   0  0  0  0  0  0  0  0  0  0  0  0
  161.2520  204.4390  151.2800 C   0  0  0  0  0  0  0  0  0  0  0  0
  160.7200  203.6860  148.5910 C   0  0  0  0  0  3  0  0  0  0  0  0
  159.8620  201.4980  149.2650 C   0  0  0  0  0  1  0  0  0  0  0  0
  161.3900  205.4000  150.2540 C   0  0  0  0  0  0  0  0  0  0  0  0
  161.1700  202.9790  150.9330 C   0  0  0  0  0  2  0  0  0  0  0  0
  161.4790  204.9680  148.8190 C   0  0  0  0  0  2  0  0  0  0  0  0
  161.6900  207.8490  149.7680 N   0  0  0  0  0  2  0  0  0  0  0  0
  161.5030  206.7410  150.6230 C   0  0  0  0  0  0  0  0  0  0  0  0
  161.3410  206.2000  152.9720 C   0  0  0  0  0  3  0  0  0  0  0  0
  161.6140  208.6160  152.0240 C   0  0  1  0  0  3  0  0  0  0  0  0
  161.7830  208.9700  150.6060 N   0  0  0  0  0  0  0  0  0  0  0  0
  161.2330  204.8410  152.6300 C   0  0  0  0  0  3  0  0  0  0  0  0
  160.3130  209.2030  152.5560 C   0  0  0  0  0  2  0  0  0  0  0  0
  160.5270  209.8340  153.9200 C   0  0  0  0  0  2  0  0  0  0  0  0
  158.6810  212.8400  152.6800 O   0  0  0  0  0  0  0  0  0  0  0  0
  158.0310  212.5460  154.9760 C   0  0  0  0  0  2  0  0  0  0  0  0
  157.5670  212.7570  153.5350 C   0  0  1  0  0  3  0  0  0  0  0  0
  159.2490  211.5550  152.6240 C   0  0  0  0  0  2  0  0  0  0  0  0
  159.9010  211.2160  153.9670 C   0  0  1  0  0  3  0  0  0  0  0  0
  156.7650  214.0390  153.4470 C   0  0  0  0  0  1  0  0  0  0  0  0
  158.8310  211.2470  155.0560 C   0  0  0  0  0  2  0  0  0  0  0  0
  162.4280  211.8350  148.1690 C   0  0  0  0  0  2  0  0  0  0  0  0
  161.1520  212.6710  148.0030 C   0  0  2  0  0  3  0  0  0  0  0  0
  160.3000  212.6230  149.1280 O   0  0  0  0  0  0  0  0  0  0  0  0
  160.3980  213.8350  149.8270 C   0  0  0  0  0  1  0  0  0  0  0  0
  160.4020  212.5150  146.6620 C   0  0  1  0  0  3  0  0  0  0  0  0
  158.8920  212.5840  146.8780 C   0  0  0  0  0  2  0  0  0  0  0  0
  156.7650  213.4970  145.9520 C   0  0  0  0  0  1  0  0  0  0  0  0
  158.1770  213.0540  145.6210 C   0  0  0  0  0  2  0  0  0  0  0  0
  160.8360  213.5580  145.6340 C   0  0  0  0  0  2  0  0  0  0  0  0
  161.9080  213.0060  144.7050 C   0  0  2  0  0  3  0  0  0  0  0  0
  163.0250  213.8440  144.7480 O   0  0  0  0  0  1  0  0  0  0  0  0
  161.3700  212.9270  143.2810 C   0  0  2  0  0  3  0  0  0  0  0  0
  162.3560  211.6950  141.4180 O   0  0  0  0  0  0  0  0  0  0  0  0
  159.9710  211.8610  141.8410 C   0  0  0  0  0  2  0  0  0  0  0  0
  161.0990  211.8240  140.7940 C   0  0  0  0  0  2  0  0  0  0  0  0
  160.4960  211.8260  143.1500 O   0  0  0  0  0  0  0  0  0  0  0  0
  162.5280  212.8100  142.2670 C   0  0  0  0  0  2  0  0  0  0  0  0
  1  5  1  0  0  0  0
  2 10  1  0  0  0  0
  4 15  1  0  0  0  0
  4 14  1  0  0  0  0
  5 16  1  0  0  0  0
  5  3  2  0  0  0  0
  6 17  1  0  0  0  0
  7 11  1  0  0  0  0
  7  2  2  0  0  0  0
  8  2  1  0  0  0  0
  9 13  1  0  0  0  0
  9  6  2  0  0  0  0
 10  6  1  0  0  0  0
 11  9  1  0  0  0  0
 12 16  1  0  0  0  0
 12 13  1  0  0  0  0
 13  4  2  0  0  0  0
 15 18  1  6  0  0  0
 16 15  1  0  0  0  0
 17 14  2  0  0  0  0
 18 19  1  0  0  0  0
 20 22  1  0  0  0  0
 21 26  1  0  0  0  0
 22 25  1  1  0  0  0
 22 21  1  0  0  0  0
 23 20  1  0  0  0  0
 23 24  1  0  0  0  0
 24 19  1  6  0  0  0
 24 26  1  0  0  0  0
 27  1  1  0  0  0  0
 28 27  1  1  0  0  0
 28 29  1  0  0  0  0
 29 30  1  0  0  0  0
 31 35  1  6  0  0  0
 31 32  1  0  0  0  0
 31 28  1  0  0  0  0
 34 33  1  0  0  0  0
 34 32  1  0  0  0  0
 36 37  1  6  0  0  0
 36 35  1  0  0  0  0
 38 36  1  1  0  0  0
 39 43  1  0  0  0  0
 40 42  1  0  0  0  0
 41 39  1  0  0  0  0
 41 40  1  0  0  0  0
 42 38  1  0  0  0  0
 43 38  1  0  0  0  0
M  END
>  <MODEL>
1

>  <REMARK>
 VINA RESULT:      -8.3      0.000      0.000
  Name = 
  12 active torsions:
  status: ('A' for Active; 'I' for Inactive)
    1  A    between atoms: C_1  and  C_28
    2  A    between atoms: C_1  and  C_34
    3  A    between atoms: N_2  and  C_6
    4  A    between atoms: C_3  and  C_4
    5  A    between atoms: C_3  and  C_6
    6  A    between atoms: C_3  and  O_12
    7  A    between atoms: C_4  and  C_15
    8  A    between atoms: C_4  and  C_22
    9  A    between atoms: C_11  and  C_14
   10  A    between atoms: C_14  and  C_22
   11  A    between atoms: C_15  and  C_42
   12  A    between atoms: C_28  and  C_35
                            x       y       z     vdW  Elec       q    Type
                         _______ _______ _______ _____ _____    ______ ____

>  <TORSDO>
F 12

$$$$
=
 OpenBabel11062410183D

 43 47  0  0  1  0  0  0  0  0999 V2000
  161.8970  210.5650  148.3080 N   0  0  0  0  0  2  0  0  0  0  0  0
  160.7010  203.1630  145.6540 C   0  0  0  0  0  0  0  0  0  0  0  0
  162.5270  210.1690  150.5170 O   0  0  0  0  0  0  0  0  0  0  0  0
  161.6670  206.0510  149.6850 C   0  0  0  0  0  0  0  0  0  0  0  0
  162.0970  209.7030  149.4270 C   0  0  0  0  0  0  0  0  0  0  0  0
  161.4710  203.9300  147.8960 C   0  0  0  0  0  0  0  0  0  0  0  0
  160.7190  204.4260  145.2000 C   0  0  0  0  0  3  0  0  0  0  0  0
  159.9950  202.1140  144.8690 C   0  0  0  0  0  1  0  0  0  0  0  0
  161.4850  205.2560  147.4080 C   0  0  0  0  0  0  0  0  0  0  0  0
  161.4040  202.7790  146.9340 C   0  0  0  0  0  2  0  0  0  0  0  0
  161.4560  205.5200  145.9310 C   0  0  0  0  0  2  0  0  0  0  0  0
  161.6630  207.6780  148.0620 N   0  0  0  0  0  2  0  0  0  0  0  0
  161.5890  206.2950  148.3350 C   0  0  0  0  0  0  0  0  0  0  0  0
  161.6600  204.7500  150.1910 C   0  0  0  0  0  3  0  0  0  0  0  0
  161.7690  207.3470  150.4200 C   0  0  1  0  0  3  0  0  0  0  0  0
  161.7970  208.3090  149.3080 N   0  0  0  0  0  0  0  0  0  0  0  0
  161.5640  203.6840  149.2800 C   0  0  0  0  0  3  0  0  0  0  0  0
  160.5050  207.5420  151.2470 C   0  0  0  0  0  2  0  0  0  0  0  0
  160.7970  207.3650  152.7260 C   0  0  0  0  0  2  0  0  0  0  0  0
  160.4770  211.0300  153.3930 O   0  0  0  0  0  0  0  0  0  0  0  0
  160.9250  209.9930  155.5150 C   0  0  0  0  0  2  0  0  0  0  0  0
  160.0350  210.9530  154.7260 C   0  0  1  0  0  3  0  0  0  0  0  0
  160.1830  209.7930  152.7930 C   0  0  0  0  0  2  0  0  0  0  0  0
  161.0950  208.7060  153.3700 C   0  0  1  0  0  3  0  0  0  0  0  0
  160.0930  212.3280  155.3590 C   0  0  0  0  0  1  0  0  0  0  0  0
  160.8530  208.6080  154.8740 C   0  0  0  0  0  2  0  0  0  0  0  0
  162.1270  211.9980  148.3900 C   0  0  0  0  0  2  0  0  0  0  0  0
  161.7510  212.6740  147.0640 C   0  0  2  0  0  3  0  0  0  0  0  0
  162.6370  213.7070  146.6900 O   0  0  0  0  0  0  0  0  0  0  0  0
  162.9800  214.4500  147.8300 C   0  0  0  0  0  1  0  0  0  0  0  0
  160.2630  213.0500  146.8860 C   0  0  1  0  0  3  0  0  0  0  0  0
  159.7130  213.6870  148.1590 C   0  0  0  0  0  2  0  0  0  0  0  0
  157.3000  213.0660  148.2370 C   0  0  0  0  0  1  0  0  0  0  0  0
  158.2890  214.1800  147.9570 C   0  0  0  0  0  2  0  0  0  0  0  0
  160.0420  213.9770  145.6930 C   0  0  0  0  0  2  0  0  0  0  0  0
  159.1660  213.3200  144.6360 C   0  0  2  0  0  3  0  0  0  0  0  0
  158.6750  212.1120  145.1360 O   0  0  0  0  0  1  0  0  0  0  0  0
  159.9790  213.0690  143.3710 C   0  0  2  0  0  3  0  0  0  0  0  0
  162.3990  212.7800  143.2300 O   0  0  0  0  0  0  0  0  0  0  0  0
  160.7910  211.5230  141.9160 C   0  0  0  0  0  2  0  0  0  0  0  0
  162.1610  212.2240  141.9570 C   0  0  0  0  0  2  0  0  0  0  0  0
  160.1050  211.6830  143.1380 O   0  0  0  0  0  0  0  0  0  0  0  0
  161.3750  213.7180  143.4840 C   0  0  0  0  0  2  0  0  0  0  0  0
  1 27  1  0  0  0  0
  1  5  1  0  0  0  0
  2 10  1  0  0  0  0
  4 14  1  0  0  0  0
  4 15  1  0  0  0  0
  5  3  2  0  0  0  0
  6 17  1  0  0  0  0
  7  2  2  0  0  0  0
  7 11  1  0  0  0  0
  8  2  1  0  0  0  0
  9  6  2  0  0  0  0
  9 13  1  0  0  0  0
 10  6  1  0  0  0  0
 11  9  1  0  0  0  0
 12 13  1  0  0  0  0
 12 16  1  0  0  0  0
 13  4  2  0  0  0  0
 15 18  1  1  0  0  0
 16  5  1  0  0  0  0
 16 15  1  0  0  0  0
 17 14  2  0  0  0  0
 18 19  1  0  0  0  0
 20 22  1  0  0  0  0
 22 25  1  1  0  0  0
 22 21  1  0  0  0  0
 23 24  1  0  0  0  0
 23 20  1  0  0  0  0
 24 19  1  6  0  0  0
 24 26  1  0  0  0  0
 26 21  1  0  0  0  0
 28 27  1  1  0  0  0
 29 28  1  0  0  0  0
 29 30  1  0  0  0  0
 31 35  1  6  0  0  0
 31 28  1  0  0  0  0
 31 32  1  0  0  0  0
 34 32  1  0  0  0  0
 34 33  1  0  0  0  0
 36 37  1  1  0  0  0
 36 35  1  0  0  0  0
 38 43  1  0  0  0  0
 38 36  1  1  0  0  0
 39 43  1  0  0  0  0
 40 41  1  0  0  0  0
 40 42  1  0  0  0  0
 41 39  1  0  0  0  0
 42 38  1  0  0  0  0
M  END
>  <MODEL>
2

>  <REMARK>
 VINA RESULT:      -8.1      1.717      2.681
  Name = 
  12 active torsions:
  status: ('A' for Active; 'I' for Inactive)
    1  A    between atoms: C_1  and  C_28
    2  A    between atoms: C_1  and  C_34
    3  A    between atoms: N_2  and  C_6
    4  A    between atoms: C_3  and  C_4
    5  A    between atoms: C_3  and  C_6
    6  A    between atoms: C_3  and  O_12
    7  A    between atoms: C_4  and  C_15
    8  A    between atoms: C_4  and  C_22
    9  A    between atoms: C_11  and  C_14
   10  A    between atoms: C_14  and  C_22
   11  A    between atoms: C_15  and  C_42
   12  A    between atoms: C_28  and  C_35
                            x       y       z     vdW  Elec       q    Type
                         _______ _______ _______ _____ _____    ______ ____

>  <TORSDO>
F 12

$$$$
=
 OpenBabel11062410183D

 43 47  0  0  1  0  0  0  0  0999 V2000
  161.9610  210.0070  149.0560 N   0  0  0  0  0  2  0  0  0  0  0  0
  160.6970  202.7520  146.0530 C   0  0  0  0  0  0  0  0  0  0  0  0
  162.5510  209.5020  151.2540 O   0  0  0  0  0  0  0  0  0  0  0  0
  161.6420  205.4400  150.2250 C   0  0  0  0  0  0  0  0  0  0  0  0
  162.1310  209.0920  150.1380 C   0  0  0  0  0  0  0  0  0  0  0  0
  161.4420  203.4050  148.3380 C   0  0  0  0  0  0  0  0  0  0  0  0
  160.7400  204.0330  145.6560 C   0  0  0  0  0  3  0  0  0  0  0  0
  159.9870  201.7500  145.2110 C   0  0  0  0  0  1  0  0  0  0  0  0
  161.4840  204.7510  147.9120 C   0  0  0  0  0  0  0  0  0  0  0  0
  161.3730  202.2990  147.3240 C   0  0  0  0  0  2  0  0  0  0  0  0
  161.4820  205.0810  146.4470 C   0  0  0  0  0  2  0  0  0  0  0  0
  161.6870  207.1380  148.6770 N   0  0  0  0  0  2  0  0  0  0  0  0
  161.5890  205.7450  148.8850 C   0  0  0  0  0  0  0  0  0  0  0  0
  161.6080  204.1180  150.6710 C   0  0  0  0  0  3  0  0  0  0  0  0
  161.7520  206.7000  151.0190 C   0  0  1  0  0  3  0  0  0  0  0  0
  161.8120  207.7110  149.9510 N   0  0  0  0  0  0  0  0  0  0  0  0
  161.5100  203.0950  149.7110 C   0  0  0  0  0  3  0  0  0  0  0  0
  160.4780  206.8770  151.8350 C   0  0  0  0  0  2  0  0  0  0  0  0
  160.5900  206.1600  153.1680 C   0  0  0  0  0  2  0  0  0  0  0  0
  161.3410  209.4430  154.7920 O   0  0  0  0  0  0  0  0  0  0  0  0
  160.5390  207.9940  156.5350 C   0  0  0  0  0  2  0  0  0  0  0  0
  160.4210  209.3570  155.8520 C   0  0  1  0  0  3  0  0  0  0  0  0
  160.8890  208.5690  153.7870 C   0  0  0  0  0  2  0  0  0  0  0  0
  161.0640  207.1180  154.2450 C   0  0  1  0  0  3  0  0  0  0  0  0
  160.7060  210.4510  156.8600 C   0  0  0  0  0  1  0  0  0  0  0  0
  160.2410  206.8990  155.5120 C   0  0  0  0  0  2  0  0  0  0  0  0
  162.2110  211.4310  149.2070 C   0  0  0  0  0  2  0  0  0  0  0  0
  161.8720  212.1710  147.9050 C   0  0  2  0  0  3  0  0  0  0  0  0
  163.0110  212.6330  147.2100 O   0  0  0  0  0  0  0  0  0  0  0  0
  162.5960  213.4350  146.1360 C   0  0  0  0  0  1  0  0  0  0  0  0
  160.7410  213.2190  147.9880 C   0  0  1  0  0  3  0  0  0  0  0  0
  159.4080  212.6070  147.5640 C   0  0  0  0  0  2  0  0  0  0  0  0
  157.4960  212.7210  145.9680 C   0  0  0  0  0  1  0  0  0  0  0  0
  158.8310  213.3270  146.3560 C   0  0  0  0  0  2  0  0  0  0  0  0
  160.6210  213.8290  149.3830 C   0  0  0  0  0  2  0  0  0  0  0  0
  159.2900  213.4740  150.0300 C   0  0  2  0  0  3  0  0  0  0  0  0
  158.3480  214.4530  149.7050 O   0  0  0  0  0  1  0  0  0  0  0  0
  159.4550  213.3910  151.5440 C   0  0  2  0  0  3  0  0  0  0  0  0
  157.7340  212.7830  153.1640 O   0  0  0  0  0  0  0  0  0  0  0  0
  160.0590  212.1030  153.3160 C   0  0  0  0  0  2  0  0  0  0  0  0
  158.7960  212.5650  154.0650 C   0  0  0  0  0  2  0  0  0  0  0  0
  159.8430  212.0880  151.9220 O   0  0  0  0  0  0  0  0  0  0  0  0
  158.1430  213.7830  152.2560 C   0  0  0  0  0  2  0  0  0  0  0  0
  1 27  1  0  0  0  0
  1  5  1  0  0  0  0
  2 10  1  0  0  0  0
  4 14  1  0  0  0  0
  4 15  1  0  0  0  0
  5  3  2  0  0  0  0
  6 17  1  0  0  0  0
  7  2  2  0  0  0  0
  7 11  1  0  0  0  0
  8  2  1  0  0  0  0
  9  6  2  0  0  0  0
  9 13  1  0  0  0  0
 10  6  1  0  0  0  0
 11  9  1  0  0  0  0
 12 13  1  0  0  0  0
 12 16  1  0  0  0  0
 13  4  2  0  0  0  0
 15 18  1  1  0  0  0
 16  5  1  0  0  0  0
 16 15  1  0  0  0  0
 17 14  2  0  0  0  0
 18 19  1  0  0  0  0
 20 22  1  0  0  0  0
 22 21  1  0  0  0  0
 22 25  1  1  0  0  0
 23 24  1  0  0  0  0
 23 20  1  0  0  0  0
 24 19  1  6  0  0  0
 24 26  1  0  0  0  0
 26 21  1  0  0  0  0
 28 31  1  0  0  0  0
 28 27  1  1  0  0  0
 29 28  1  0  0  0  0
 30 29  1  0  0  0  0
 31 32  1  1  0  0  0
 31 35  1  0  0  0  0
 33 34  1  0  0  0  0
 34 32  1  0  0  0  0
 35 36  1  0  0  0  0
 36 37  1  1  0  0  0
 38 36  1  6  0  0  0
 38 42  1  0  0  0  0
 38 43  1  0  0  0  0
 39 41  1  0  0  0  0
 40 41  1  0  0  0  0
 42 40  1  0  0  0  0
 43 39  1  0  0  0  0
M  END
>  <MODEL>
3

>  <REMARK>
 VINA RESULT:      -7.6      2.206      5.247
  Name = 
  12 active torsions:
  status: ('A' for Active; 'I' for Inactive)
    1  A    between atoms: C_1  and  C_28
    2  A    between atoms: C_1  and  C_34
    3  A    between atoms: N_2  and  C_6
    4  A    between atoms: C_3  and  C_4
    5  A    between atoms: C_3  and  C_6
    6  A    between atoms: C_3  and  O_12
    7  A    between atoms: C_4  and  C_15
    8  A    between atoms: C_4  and  C_22
    9  A    between atoms: C_11  and  C_14
   10  A    between atoms: C_14  and  C_22
   11  A    between atoms: C_15  and  C_42
   12  A    between atoms: C_28  and  C_35
                            x       y       z     vdW  Elec       q    Type
                         _______ _______ _______ _____ _____    ______ ____

>  <TORSDO>
F 12

$$$$
=
 OpenBabel11062410183D

 43 47  0  0  1  0  0  0  0  0999 V2000
  161.0680  208.7890  151.9060 N   0  0  0  0  0  2  0  0  0  0  0  0
  155.7210  212.3130  156.6240 C   0  0  0  0  0  0  0  0  0  0  0  0
  162.1790  210.6320  151.0100 O   0  0  0  0  0  0  0  0  0  0  0  0
  159.2750  212.9950  153.0990 C   0  0  0  0  0  0  0  0  0  0  0  0
  161.2270  210.1940  151.7110 C   0  0  0  0  0  0  0  0  0  0  0  0
  157.4970  213.3390  155.2110 C   0  0  0  0  0  0  0  0  0  0  0  0
  156.1600  211.0840  156.3100 C   0  0  0  0  0  3  0  0  0  0  0  0
  154.3820  212.4700  157.2560 C   0  0  0  0  0  1  0  0  0  0  0  0
  157.9510  212.0420  154.8840 C   0  0  0  0  0  0  0  0  0  0  0  0
  156.5670  213.5370  156.3730 C   0  0  0  0  0  2  0  0  0  0  0  0
  157.5250  210.8610  155.7090 C   0  0  0  0  0  2  0  0  0  0  0  0
  159.4510  210.7180  153.3600 N   0  0  0  0  0  2  0  0  0  0  0  0
  158.8450  211.9080  153.8220 C   0  0  0  0  0  0  0  0  0  0  0  0
  158.8440  214.2870  153.4050 C   0  0  0  0  0  3  0  0  0  0  0  0
  160.2200  212.5440  152.0350 C   0  0  1  0  0  3  0  0  0  0  0  0
  160.2940  211.1000  152.3060 N   0  0  0  0  0  0  0  0  0  0  0  0
  157.9490  214.4530  154.4760 C   0  0  0  0  0  3  0  0  0  0  0  0
  159.5780  212.7860  150.6750 C   0  0  0  0  0  2  0  0  0  0  0  0
  160.1280  214.0500  150.0370 C   0  0  0  0  0  2  0  0  0  0  0  0
  160.7200  213.2750  146.4280 O   0  0  0  0  0  0  0  0  0  0  0  0
  158.3430  213.1490  146.7660 C   0  0  0  0  0  2  0  0  0  0  0  0
  159.5910  212.4640  146.2100 C   0  0  1  0  0  3  0  0  0  0  0  0
  160.9690  213.2650  147.8120 C   0  0  0  0  0  2  0  0  0  0  0  0
  159.8700  214.0430  148.5420 C   0  0  1  0  0  3  0  0  0  0  0  0
  159.4170  212.2300  144.7240 C   0  0  0  0  0  1  0  0  0  0  0  0
  158.5260  213.3740  148.2660 C   0  0  0  0  0  2  0  0  0  0  0  0
  161.9490  207.8200  151.2760 C   0  0  0  0  0  2  0  0  0  0  0  0
  161.3720  206.4050  151.4210 C   0  0  2  0  0  3  0  0  0  0  0  0
  161.9260  205.6810  152.4990 O   0  0  0  0  0  0  0  0  0  0  0  0
  161.1720  205.9340  153.6550 C   0  0  0  0  0  1  0  0  0  0  0  0
  161.2600  205.5760  150.1220 C   0  0  1  0  0  3  0  0  0  0  0  0
  160.4090  204.3290  150.3520 C   0  0  0  0  0  2  0  0  0  0  0  0
  160.4190  201.9840  149.5040 C   0  0  0  0  0  1  0  0  0  0  0  0
  161.2350  203.0620  150.1920 C   0  0  0  0  0  2  0  0  0  0  0  0
  160.6950  206.3940  148.9630 C   0  0  0  0  0  2  0  0  0  0  0  0
  161.8070  206.9670  148.0970 C   0  0  2  0  0  3  0  0  0  0  0  0
  161.6200  208.3450  147.9640 O   0  0  0  0  0  1  0  0  0  0  0  0
  161.7900  206.3040  146.7240 C   0  0  2  0  0  3  0  0  0  0  0  0
  161.4250  203.9360  146.2560 O   0  0  0  0  0  0  0  0  0  0  0  0
  160.5490  205.7500  144.9030 C   0  0  0  0  0  2  0  0  0  0  0  0
  161.1600  204.3380  144.9320 C   0  0  0  0  0  2  0  0  0  0  0  0
  160.4790  206.2970  146.2010 O   0  0  0  0  0  0  0  0  0  0  0  0
  162.3350  204.8620  146.8100 C   0  0  0  0  0  2  0  0  0  0  0  0
  2  8  1  0  0  0  0
  3  5  2  0  0  0  0
  4 14  2  0  0  0  0
  4 13  1  0  0  0  0
  5  1  1  0  0  0  0
  5 16  1  0  0  0  0
  6 10  1  0  0  0  0
  7  2  2  0  0  0  0
  9  6  1  0  0  0  0
  9 11  1  0  0  0  0
 10  2  1  0  0  0  0
 11  7  1  0  0  0  0
 12 13  1  0  0  0  0
 13  9  2  0  0  0  0
 14 17  1  0  0  0  0
 15 18  1  6  0  0  0
 15 16  1  0  0  0  0
 15  4  1  0  0  0  0
 16 12  1  0  0  0  0
 17  6  2  0  0  0  0
 19 18  1  0  0  0  0
 20 23  1  0  0  0  0
 21 26  1  0  0  0  0
 22 25  1  6  0  0  0
 22 20  1  0  0  0  0
 22 21  1  0  0  0  0
 23 24  1  0  0  0  0
 24 19  1  1  0  0  0
 26 24  1  0  0  0  0
 27  1  1  0  0  0  0
 28 27  1  6  0  0  0
 28 29  1  0  0  0  0
 29 30  1  0  0  0  0
 31 35  1  6  0  0  0
 31 32  1  0  0  0  0
 31 28  1  0  0  0  0
 33 34  1  0  0  0  0
 34 32  1  0  0  0  0
 36 37  1  6  0  0  0
 36 35  1  0  0  0  0
 38 43  1  0  0  0  0
 38 36  1  1  0  0  0
 39 43  1  0  0  0  0
 40 41  1  0  0  0  0
 40 42  1  0  0  0  0
 41 39  1  0  0  0  0
 42 38  1  0  0  0  0
M  END
>  <MODEL>
4

>  <REMARK>
 VINA RESULT:      -7.4      2.745      8.217
  Name = 
  12 active torsions:
  status: ('A' for Active; 'I' for Inactive)
    1  A    between atoms: C_1  and  C_28
    2  A    between atoms: C_1  and  C_34
    3  A    between atoms: N_2  and  C_6
    4  A    between atoms: C_3  and  C_4
    5  A    between atoms: C_3  and  C_6
    6  A    between atoms: C_3  and  O_12
    7  A    between atoms: C_4  and  C_15
    8  A    between atoms: C_4  and  C_22
    9  A    between atoms: C_11  and  C_14
   10  A    between atoms: C_14  and  C_22
   11  A    between atoms: C_15  and  C_42
   12  A    between atoms: C_28  and  C_35
                            x       y       z     vdW  Elec       q    Type
                         _______ _______ _______ _____ _____    ______ ____

>  <TORSDO>
F 12

$$$$
=
 OpenBabel11062410183D

 43 47  0  0  1  0  0  0  0  0999 V2000
  161.7260  210.3110  149.2450 N   0  0  0  0  0  2  0  0  0  0  0  0
  160.7810  202.4690  148.3130 C   0  0  0  0  0  0  0  0  0  0  0  0
  162.3810  210.4360  151.4790 O   0  0  0  0  0  0  0  0  0  0  0  0
  161.6630  206.2100  151.5910 C   0  0  0  0  0  0  0  0  0  0  0  0
  161.9630  209.7260  150.5250 C   0  0  0  0  0  0  0  0  0  0  0  0
  161.5330  203.7400  150.3190 C   0  0  0  0  0  0  0  0  0  0  0  0
  160.7520  203.5990  147.5900 C   0  0  0  0  0  3  0  0  0  0  0  0
  160.1080  201.2490  147.7880 C   0  0  0  0  0  1  0  0  0  0  0  0
  161.4980  204.9240  149.5500 C   0  0  0  0  0  0  0  0  0  0  0  0
  161.5020  202.4020  149.6370 C   0  0  0  0  0  2  0  0  0  0  0  0
  161.4530  204.8520  148.0510 C   0  0  0  0  0  2  0  0  0  0  0  0
  161.5930  207.4350  149.6480 N   0  0  0  0  0  2  0  0  0  0  0  0
  161.5700  206.1450  150.2210 C   0  0  0  0  0  0  0  0  0  0  0  0
  161.7040  205.0540  152.3730 C   0  0  0  0  0  3  0  0  0  0  0  0
  161.7230  207.6390  152.0190 C   0  0  1  0  0  3  0  0  0  0  0  0
  161.7110  208.3310  150.7210 N   0  0  0  0  0  0  0  0  0  0  0  0
  161.6410  203.8100  151.7220 C   0  0  0  0  0  3  0  0  0  0  0  0
  160.4560  207.9710  152.7980 C   0  0  0  0  0  2  0  0  0  0  0  0
  160.7800  208.2600  154.2530 C   0  0  0  0  0  2  0  0  0  0  0  0
  159.6330  211.7720  153.6820 O   0  0  0  0  0  0  0  0  0  0  0  0
  158.8730  211.1610  155.8800 C   0  0  0  0  0  2  0  0  0  0  0  0
  158.5030  211.7520  154.5200 C   0  0  1  0  0  3  0  0  0  0  0  0
  159.9220  210.4350  153.3550 C   0  0  0  0  0  2  0  0  0  0  0  0
  160.4530  209.7030  154.5910 C   0  0  1  0  0  3  0  0  0  0  0  0
  157.9870  213.1640  154.7080 C   0  0  0  0  0  1  0  0  0  0  0  0
  159.3840  209.7360  155.6800 C   0  0  0  0  0  2  0  0  0  0  0  0
  161.9060  211.7330  149.0050 C   0  0  0  0  0  2  0  0  0  0  0  0
  161.7930  212.0370  147.5040 C   0  0  2  0  0  3  0  0  0  0  0  0
  162.9700  212.5910  146.9540 O   0  0  0  0  0  0  0  0  0  0  0  0
  163.0130  213.9610  147.2540 C   0  0  0  0  0  1  0  0  0  0  0  0
  160.5070  212.7600  147.0480 C   0  0  1  0  0  3  0  0  0  0  0  0
  159.9370  212.1030  145.7920 C   0  0  0  0  0  2  0  0  0  0  0  0
  159.9900  214.2540  144.5330 C   0  0  0  0  0  1  0  0  0  0  0  0
  160.4270  212.8020  144.5350 C   0  0  0  0  0  2  0  0  0  0  0  0
  159.4480  212.8030  148.1470 C   0  0  0  0  0  2  0  0  0  0  0  0
  159.5250  214.1010  148.9380 C   0  0  2  0  0  3  0  0  0  0  0  0
  160.4370  213.9460  149.9840 O   0  0  0  0  0  1  0  0  0  0  0  0
  158.1490  214.4530  149.4930 C   0  0  2  0  0  3  0  0  0  0  0  0
  156.0550  213.2850  149.0380 O   0  0  0  0  0  0  0  0  0  0  0  0
  156.6730  214.1940  151.2010 C   0  0  0  0  0  2  0  0  0  0  0  0
  155.5510  213.9440  150.1770 C   0  0  0  0  0  2  0  0  0  0  0  0
  157.9190  213.7620  150.7020 O   0  0  0  0  0  0  0  0  0  0  0  0
  157.0460  214.1120  148.4680 C   0  0  0  0  0  2  0  0  0  0  0  0
  1  5  1  0  0  0  0
  2 10  1  0  0  0  0
  4 15  1  0  0  0  0
  4 14  1  0  0  0  0
  5 16  1  0  0  0  0
  5  3  2  0  0  0  0
  6 17  1  0  0  0  0
  7 11  1  0  0  0  0
  7  2  2  0  0  0  0
  8  2  1  0  0  0  0
  9 13  1  0  0  0  0
  9  6  2  0  0  0  0
 10  6  1  0  0  0  0
 11  9  1  0  0  0  0
 12 13  1  0  0  0  0
 12 16  1  0  0  0  0
 13  4  2  0  0  0  0
 15 18  1  1  0  0  0
 16 15  1  0  0  0  0
 17 14  2  0  0  0  0
 18 19  1  0  0  0  0
 20 22  1  0  0  0  0
 22 25  1  1  0  0  0
 22 21  1  0  0  0  0
 23 20  1  0  0  0  0
 23 24  1  0  0  0  0
 24 19  1  6  0  0  0
 24 26  1  0  0  0  0
 26 21  1  0  0  0  0
 27  1  1  0  0  0  0
 28 27  1  1  0  0  0
 29 30  1  0  0  0  0
 29 28  1  0  0  0  0
 31 32  1  6  0  0  0
 31 28  1  0  0  0  0
 31 35  1  0  0  0  0
 33 34  1  0  0  0  0
 34 32  1  0  0  0  0
 35 36  1  0  0  0  0
 36 37  1  1  0  0  0
 38 36  1  6  0  0  0
 38 42  1  0  0  0  0
 39 41  1  0  0  0  0
 41 40  1  0  0  0  0
 42 40  1  0  0  0  0
 43 39  1  0  0  0  0
 43 38  1  0  0  0  0
M  END
>  <MODEL>
5

>  <REMARK>
 VINA RESULT:      -6.4      1.850      3.971
  Name = 
  12 active torsions:
  status: ('A' for Active; 'I' for Inactive)
    1  A    between atoms: C_1  and  C_28
    2  A    between atoms: C_1  and  C_34
    3  A    between atoms: N_2  and  C_6
    4  A    between atoms: C_3  and  C_4
    5  A    between atoms: C_3  and  C_6
    6  A    between atoms: C_3  and  O_12
    7  A    between atoms: C_4  and  C_15
    8  A    between atoms: C_4  and  C_22
    9  A    between atoms: C_11  and  C_14
   10  A    between atoms: C_14  and  C_22
   11  A    between atoms: C_15  and  C_42
   12  A    between atoms: C_28  and  C_35
                            x       y       z     vdW  Elec       q    Type
                         _______ _______ _______ _____ _____    ______ ____

>  <TORSDO>
F 12

$$$$
=
 OpenBabel11062410183D

 43 47  0  0  1  0  0  0  0  0999 V2000
  161.5880  209.3290  151.2160 N   0  0  0  0  0  2  0  0  0  0  0  0
  156.2670  212.0560  156.4610 C   0  0  0  0  0  0  0  0  0  0  0  0
  162.2050  211.2920  150.1200 O   0  0  0  0  0  0  0  0  0  0  0  0
  159.1710  213.1860  152.4850 C   0  0  0  0  0  0  0  0  0  0  0  0
  161.4470  210.7240  150.9530 C   0  0  0  0  0  0  0  0  0  0  0  0
  157.6270  213.3130  154.7950 C   0  0  0  0  0  0  0  0  0  0  0  0
  156.8950  210.9160  156.1360 C   0  0  0  0  0  3  0  0  0  0  0  0
  155.0100  211.9960  157.2550 C   0  0  0  0  0  1  0  0  0  0  0  0
  158.2810  212.1070  154.4580 C   0  0  0  0  0  0  0  0  0  0  0  0
  156.8230  213.4010  156.0610 C   0  0  0  0  0  2  0  0  0  0  0  0
  158.1950  210.9180  155.3710 C   0  0  0  0  0  2  0  0  0  0  0  0
  159.8150  211.0020  152.7990 N   0  0  0  0  0  2  0  0  0  0  0  0
  159.0500  212.0810  153.2940 C   0  0  0  0  0  0  0  0  0  0  0  0
  158.5380  214.3890  152.7990 C   0  0  0  0  0  3  0  0  0  0  0  0
  160.0500  212.8580  151.3230 C   0  0  1  0  0  3  0  0  0  0  0  0
  160.4350  211.4730  151.6320 N   0  0  0  0  0  0  0  0  0  0  0  0
  157.7630  214.4470  153.9700 C   0  0  0  0  0  3  0  0  0  0  0  0
  159.2140  212.8950  150.0500 C   0  0  0  0  0  2  0  0  0  0  0  0
  159.2390  214.2810  149.4310 C   0  0  0  0  0  2  0  0  0  0  0  0
  160.6440  213.0190  146.2040 O   0  0  0  0  0  0  0  0  0  0  0  0
  158.3300  213.5210  145.7840 C   0  0  0  0  0  2  0  0  0  0  0  0
  159.4570  212.4950  145.6600 C   0  0  1  0  0  3  0  0  0  0  0  0
  160.4590  213.0890  147.5960 C   0  0  0  0  0  2  0  0  0  0  0  0
  159.4430  214.1850  147.9300 C   0  0  1  0  0  3  0  0  0  0  0  0
  159.6740  212.1600  144.1990 C   0  0  0  0  0  1  0  0  0  0  0  0
  158.1140  213.8460  147.2610 C   0  0  0  0  0  2  0  0  0  0  0  0
  162.5570  208.5070  150.5110 C   0  0  0  0  0  2  0  0  0  0  0  0
  162.0140  207.0830  150.3280 C   0  0  2  0  0  3  0  0  0  0  0  0
  160.8110  207.0320  149.5910 O   0  0  0  0  0  0  0  0  0  0  0  0
  161.1030  207.1860  148.2280 C   0  0  0  0  0  1  0  0  0  0  0  0
  161.9980  206.1900  151.5880 C   0  0  1  0  0  3  0  0  0  0  0  0
  160.7830  206.5070  152.4560 C   0  0  0  0  0  2  0  0  0  0  0  0
  160.6720  206.6570  154.9420 C   0  0  0  0  0  1  0  0  0  0  0  0
  161.1770  207.3240  153.6770 C   0  0  0  0  0  2  0  0  0  0  0  0
  162.0250  204.7030  151.2410 C   0  0  0  0  0  2  0  0  0  0  0  0
  160.6500  204.0720  151.4030 C   0  0  2  0  0  3  0  0  0  0  0  0
  160.5960  203.4010  152.6270 O   0  0  0  0  0  1  0  0  0  0  0  0
  160.3900  203.0950  150.2610 C   0  0  2  0  0  3  0  0  0  0  0  0
  161.6810  202.8900  148.2000 O   0  0  0  0  0  0  0  0  0  0  0  0
  160.7580  201.0120  149.4300 C   0  0  0  0  0  2  0  0  0  0  0  0
  161.0660  201.6300  148.0540 C   0  0  0  0  0  2  0  0  0  0  0  0
  161.1070  201.8970  150.4710 O   0  0  0  0  0  0  0  0  0  0  0  0
  160.7870  203.7220  148.9080 C   0  0  0  0  0  2  0  0  0  0  0  0
  2  8  1  0  0  0  0
  3  5  2  0  0  0  0
  4 14  2  0  0  0  0
  4 13  1  0  0  0  0
  5  1  1  0  0  0  0
  5 16  1  0  0  0  0
  6 10  1  0  0  0  0
  7  2  2  0  0  0  0
  9  6  1  0  0  0  0
  9 11  1  0  0  0  0
 10  2  1  0  0  0  0
 11  7  1  0  0  0  0
 12 13  1  0  0  0  0
 13  9  2  0  0  0  0
 14 17  1  0  0  0  0
 15 18  1  6  0  0  0
 15 16  1  0  0  0  0
 15  4  1  0  0  0  0
 16 12  1  0  0  0  0
 17  6  2  0  0  0  0
 19 18  1  0  0  0  0
 20 23  1  0  0  0  0
 21 26  1  0  0  0  0
 22 25  1  6  0  0  0
 22 21  1  0  0  0  0
 22 20  1  0  0  0  0
 23 24  1  0  0  0  0
 24 19  1  1  0  0  0
 26 24  1  0  0  0  0
 27  1  1  0  0  0  0
 28 27  1  1  0  0  0
 28 31  1  0  0  0  0
 29 28  1  0  0  0  0
 30 29  1  0  0  0  0
 31 35  1  6  0  0  0
 31 32  1  0  0  0  0
 32 34  1  0  0  0  0
 34 33  1  0  0  0  0
 35 36  1  0  0  0  0
 36 37  1  1  0  0  0
 38 42  1  0  0  0  0
 38 36  1  1  0  0  0
 39 43  1  0  0  0  0
 40 42  1  0  0  0  0
 41 39  1  0  0  0  0
 41 40  1  0  0  0  0
 43 38  1  0  0  0  0
M  END
>  <MODEL>
6

>  <REMARK>
 VINA RESULT:      -6.1      2.931      9.076
  Name = 
  12 active torsions:
  status: ('A' for Active; 'I' for Inactive)
    1  A    between atoms: C_1  and  C_28
    2  A    between atoms: C_1  and  C_34
    3  A    between atoms: N_2  and  C_6
    4  A    between atoms: C_3  and  C_4
    5  A    between atoms: C_3  and  C_6
    6  A    between atoms: C_3  and  O_12
    7  A    between atoms: C_4  and  C_15
    8  A    between atoms: C_4  and  C_22
    9  A    between atoms: C_11  and  C_14
   10  A    between atoms: C_14  and  C_22
   11  A    between atoms: C_15  and  C_42
   12  A    between atoms: C_28  and  C_35
                            x       y       z     vdW  Elec       q    Type
                         _______ _______ _______ _____ _____    ______ ____

>  <TORSDO>
F 12

$$$$
=
 OpenBabel11062410183D

 43 47  0  0  1  0  0  0  0  0999 V2000
  161.1560  208.7390  151.5520 N   0  0  0  0  0  2  0  0  0  0  0  0
  156.1260  212.3510  156.5440 C   0  0  0  0  0  0  0  0  0  0  0  0
  162.2240  210.5650  150.5710 O   0  0  0  0  0  0  0  0  0  0  0  0
  159.4670  212.9710  152.8060 C   0  0  0  0  0  0  0  0  0  0  0  0
  161.3130  210.1410  151.3330 C   0  0  0  0  0  0  0  0  0  0  0  0
  157.8210  213.3490  155.0160 C   0  0  0  0  0  0  0  0  0  0  0  0
  156.5370  211.1160  156.2170 C   0  0  0  0  0  3  0  0  0  0  0  0
  154.8280  212.5240  157.2530 C   0  0  0  0  0  1  0  0  0  0  0  0
  158.2450  212.0450  154.6770 C   0  0  0  0  0  0  0  0  0  0  0  0
  156.9630  213.5660  156.2300 C   0  0  0  0  0  2  0  0  0  0  0  0
  157.8610  210.8770  155.5380 C   0  0  0  0  0  2  0  0  0  0  0  0
  159.6420  210.6950  153.0800 N   0  0  0  0  0  2  0  0  0  0  0  0
  159.0740  211.8940  153.5650 C   0  0  0  0  0  0  0  0  0  0  0  0
  159.0640  214.2690  153.1230 C   0  0  0  0  0  3  0  0  0  0  0  0
  160.3430  212.5020  151.6910 C   0  0  1  0  0  3  0  0  0  0  0  0
  160.4240  211.0600  151.9730 N   0  0  0  0  0  0  0  0  0  0  0  0
  158.2350  214.4520  154.2440 C   0  0  0  0  0  3  0  0  0  0  0  0
  159.6220  212.7350  150.3700 C   0  0  0  0  0  2  0  0  0  0  0  0
  160.0490  214.0540  149.7500 C   0  0  0  0  0  2  0  0  0  0  0  0
  160.8370  213.2520  146.1840 O   0  0  0  0  0  0  0  0  0  0  0  0
  158.4530  213.0390  146.4160 C   0  0  0  0  0  2  0  0  0  0  0  0
  159.7510  212.3950  145.9280 C   0  0  1  0  0  3  0  0  0  0  0  0
  161.0210  213.2710  147.5780 C   0  0  0  0  0  2  0  0  0  0  0  0
  159.8610  214.0160  148.2450 C   0  0  1  0  0  3  0  0  0  0  0  0
  159.6540  212.1320  144.4390 C   0  0  0  0  0  1  0  0  0  0  0  0
  158.5580  213.2910  147.9180 C   0  0  0  0  0  2  0  0  0  0  0  0
  161.9900  207.7570  150.8800 C   0  0  0  0  0  2  0  0  0  0  0  0
  161.3590  206.3620  150.9850 C   0  0  2  0  0  3  0  0  0  0  0  0
  162.1050  205.4670  151.7800 O   0  0  0  0  0  0  0  0  0  0  0  0
  161.5940  205.4810  153.0870 C   0  0  0  0  0  1  0  0  0  0  0  0
  160.8610  205.7360  149.6640 C   0  0  1  0  0  3  0  0  0  0  0  0
  161.1580  206.6600  148.4850 C   0  0  0  0  0  2  0  0  0  0  0  0
  162.1070  205.9120  146.3040 C   0  0  0  0  0  1  0  0  0  0  0  0
  160.8570  205.9770  147.1600 C   0  0  0  0  0  2  0  0  0  0  0  0
  161.4630  204.3550  149.4170 C   0  0  0  0  0  2  0  0  0  0  0  0
  160.5480  203.2520  149.9290 C   0  0  2  0  0  3  0  0  0  0  0  0
  161.0660  202.7470  151.1240 O   0  0  0  0  0  1  0  0  0  0  0  0
  160.4450  202.1390  148.8920 C   0  0  2  0  0  3  0  0  0  0  0  0
  161.3060  202.1930  146.6090 O   0  0  0  0  0  0  0  0  0  0  0  0
  161.3720  200.2430  148.0510 C   0  0  0  0  0  2  0  0  0  0  0  0
  161.1700  200.7910  146.6270 C   0  0  0  0  0  2  0  0  0  0  0  0
  161.5710  201.2910  148.9730 O   0  0  0  0  0  0  0  0  0  0  0  0
  160.3250  202.7290  147.4710 C   0  0  0  0  0  2  0  0  0  0  0  0
  2  8  1  0  0  0  0
  3  5  2  0  0  0  0
  4 14  2  0  0  0  0
  4 13  1  0  0  0  0
  5  1  1  0  0  0  0
  5 16  1  0  0  0  0
  6 10  1  0  0  0  0
  7  2  2  0  0  0  0
  9  6  1  0  0  0  0
  9 11  1  0  0  0  0
 10  2  1  0  0  0  0
 11  7  1  0  0  0  0
 12 13  1  0  0  0  0
 13  9  2  0  0  0  0
 14 17  1  0  0  0  0
 15 18  1  6  0  0  0
 15 16  1  0  0  0  0
 15  4  1  0  0  0  0
 16 12  1  0  0  0  0
 17  6  2  0  0  0  0
 19 18  1  0  0  0  0
 20 23  1  0  0  0  0
 21 26  1  0  0  0  0
 22 25  1  6  0  0  0
 22 20  1  0  0  0  0
 22 21  1  0  0  0  0
 23 24  1  0  0  0  0
 24 19  1  1  0  0  0
 26 24  1  0  0  0  0
 27  1  1  0  0  0  0
 28 27  1  6  0  0  0
 28 29  1  0  0  0  0
 29 30  1  0  0  0  0
 31 32  1  6  0  0  0
 31 28  1  0  0  0  0
 33 34  1  0  0  0  0
 34 32  1  0  0  0  0
 35 31  1  0  0  0  0
 35 36  1  0  0  0  0
 36 37  1  1  0  0  0
 38 42  1  0  0  0  0
 38 36  1  1  0  0  0
 39 41  1  0  0  0  0
 39 43  1  0  0  0  0
 40 42  1  0  0  0  0
 41 40  1  0  0  0  0
 43 38  1  0  0  0  0
M  END
>  <MODEL>
7

>  <REMARK>
 VINA RESULT:      -6.1      3.195      8.939
  Name = 
  12 active torsions:
  status: ('A' for Active; 'I' for Inactive)
    1  A    between atoms: C_1  and  C_28
    2  A    between atoms: C_1  and  C_34
    3  A    between atoms: N_2  and  C_6
    4  A    between atoms: C_3  and  C_4
    5  A    between atoms: C_3  and  C_6
    6  A    between atoms: C_3  and  O_12
    7  A    between atoms: C_4  and  C_15
    8  A    between atoms: C_4  and  C_22
    9  A    between atoms: C_11  and  C_14
   10  A    between atoms: C_14  and  C_22
   11  A    between atoms: C_15  and  C_42
   12  A    between atoms: C_28  and  C_35
                            x       y       z     vdW  Elec       q    Type
                         _______ _______ _______ _____ _____    ______ ____

>  <TORSDO>
F 12

$$$$
=
 OpenBabel11062410183D

 43 47  0  0  1  0  0  0  0  0999 V2000
  161.4920  210.3150  148.1340 N   0  0  0  0  0  2  0  0  0  0  0  0
  160.4450  202.6670  150.0510 C   0  0  0  0  0  0  0  0  0  0  0  0
  162.3050  211.1870  150.1380 O   0  0  0  0  0  0  0  0  0  0  0  0
  161.5770  207.2850  151.7590 C   0  0  0  0  0  0  0  0  0  0  0  0
  161.8160  210.2030  149.5190 C   0  0  0  0  0  0  0  0  0  0  0  0
  161.3450  204.5320  151.4360 C   0  0  0  0  0  0  0  0  0  0  0  0
  160.3690  203.4770  148.9840 C   0  0  0  0  0  3  0  0  0  0  0  0
  159.7310  201.3610  150.0280 C   0  0  0  0  0  1  0  0  0  0  0  0
  161.2610  205.3770  150.3070 C   0  0  0  0  0  0  0  0  0  0  0  0
  161.2590  203.0420  151.2650 C   0  0  0  0  0  2  0  0  0  0  0  0
  161.1080  204.7910  148.9330 C   0  0  0  0  0  2  0  0  0  0  0  0
  161.3740  207.7620  149.5200 N   0  0  0  0  0  2  0  0  0  0  0  0
  161.3860  206.7520  150.5060 C   0  0  0  0  0  0  0  0  0  0  0  0
  161.6680  206.4710  152.8890 C   0  0  0  0  0  3  0  0  0  0  0  0
  161.6740  208.7720  151.6580 C   0  0  1  0  0  3  0  0  0  0  0  0
  161.5730  208.9710  150.2040 N   0  0  0  0  0  0  0  0  0  0  0  0
  161.5530  205.0800  152.7170 C   0  0  0  0  0  3  0  0  0  0  0  0
  160.4680  209.3890  152.3540 C   0  0  0  0  0  2  0  0  0  0  0  0
  160.7270  209.5450  153.8420 C   0  0  0  0  0  2  0  0  0  0  0  0
  159.1820  212.4750  155.5770 O   0  0  0  0  0  0  0  0  0  0  0  0
  157.5490  211.6840  153.9990 C   0  0  0  0  0  2  0  0  0  0  0  0
  158.3200  212.8870  154.5450 C   0  0  1  0  0  3  0  0  0  0  0  0
  160.2030  211.7160  154.9780 C   0  0  0  0  0  2  0  0  0  0  0  0
  159.6360  210.3820  154.4840 C   0  0  1  0  0  3  0  0  0  0  0  0
  157.3410  213.9110  155.0810 C   0  0  0  0  0  1  0  0  0  0  0  0
  158.5440  210.6620  153.4540 C   0  0  0  0  0  2  0  0  0  0  0  0
  161.6610  211.5600  147.4030 C   0  0  0  0  0  2  0  0  0  0  0  0
  160.2990  212.0920  146.9370 C   0  0  2  0  0  3  0  0  0  0  0  0
  160.1220  212.0310  145.5370 O   0  0  0  0  0  0  0  0  0  0  0  0
  160.8830  213.0460  144.9370 C   0  0  0  0  0  1  0  0  0  0  0  0
  159.8400  213.4310  147.5530 C   0  0  1  0  0  3  0  0  0  0  0  0
  161.0020  214.4190  147.6210 C   0  0  0  0  0  2  0  0  0  0  0  0
  160.7260  213.7230  149.9990 C   0  0  0  0  0  1  0  0  0  0  0  0
  161.6160  214.4520  149.0110 C   0  0  0  0  0  2  0  0  0  0  0  0
  158.6680  214.0460  146.7900 C   0  0  0  0  0  2  0  0  0  0  0  0
  157.3340  213.5850  147.3600 C   0  0  2  0  0  3  0  0  0  0  0  0
  156.3130  213.9350  146.4730 O   0  0  0  0  0  1  0  0  0  0  0  0
  157.0950  214.2400  148.7160 C   0  0  2  0  0  3  0  0  0  0  0  0
  155.1850  213.8760  150.1910 O   0  0  0  0  0  0  0  0  0  0  0  0
  157.4720  214.1520  150.9550 C   0  0  0  0  0  2  0  0  0  0  0  0
  155.9820  214.4470  151.2040 C   0  0  0  0  0  2  0  0  0  0  0  0
  157.6530  213.4520  149.7440 O   0  0  0  0  0  0  0  0  0  0  0  0
  155.5850  214.4450  148.9630 C   0  0  0  0  0  2  0  0  0  0  0  0
  1  5  1  0  0  0  0
  2 10  1  0  0  0  0
  4 14  1  0  0  0  0
  5  3  2  0  0  0  0
  5 16  1  0  0  0  0
  6 17  1  0  0  0  0
  7  2  2  0  0  0  0
  8  2  1  0  0  0  0
  9 13  1  0  0  0  0
  9  6  2  0  0  0  0
 10  6  1  0  0  0  0
 11  7  1  0  0  0  0
 11  9  1  0  0  0  0
 12 16  1  0  0  0  0
 12 13  1  0  0  0  0
 13  4  2  0  0  0  0
 15  4  1  0  0  0  0
 15 18  1  1  0  0  0
 16 15  1  0  0  0  0
 17 14  2  0  0  0  0
 18 19  1  0  0  0  0
 21 22  1  0  0  0  0
 22 25  1  1  0  0  0
 22 20  1  0  0  0  0
 23 20  1  0  0  0  0
 24 19  1  6  0  0  0
 24 23  1  0  0  0  0
 26 21  1  0  0  0  0
 26 24  1  0  0  0  0
 27  1  1  0  0  0  0
 28 27  1  6  0  0  0
 28 31  1  0  0  0  0
 29 28  1  0  0  0  0
 30 29  1  0  0  0  0
 31 35  1  6  0  0  0
 31 32  1  0  0  0  0
 32 34  1  0  0  0  0
 34 33  1  0  0  0  0
 35 36  1  0  0  0  0
 36 37  1  6  0  0  0
 38 36  1  6  0  0  0
 38 43  1  0  0  0  0
 38 42  1  0  0  0  0
 39 41  1  0  0  0  0
 40 41  1  0  0  0  0
 42 40  1  0  0  0  0
 43 39  1  0  0  0  0
M  END
>  <MODEL>
8

>  <REMARK>
 VINA RESULT:      -5.8      1.718      4.289
  Name = 
  12 active torsions:
  status: ('A' for Active; 'I' for Inactive)
    1  A    between atoms: C_1  and  C_28
    2  A    between atoms: C_1  and  C_34
    3  A    between atoms: N_2  and  C_6
    4  A    between atoms: C_3  and  C_4
    5  A    between atoms: C_3  and  C_6
    6  A    between atoms: C_3  and  O_12
    7  A    between atoms: C_4  and  C_15
    8  A    between atoms: C_4  and  C_22
    9  A    between atoms: C_11  and  C_14
   10  A    between atoms: C_14  and  C_22
   11  A    between atoms: C_15  and  C_42
   12  A    between atoms: C_28  and  C_35
                            x       y       z     vdW  Elec       q    Type
                         _______ _______ _______ _____ _____    ______ ____

>  <TORSDO>
F 12

$$$$
=
 OpenBabel11062410183D

 43 47  0  0  1  0  0  0  0  0999 V2000
  161.2870  208.5210  153.0310 N   0  0  0  0  0  2  0  0  0  0  0  0
  161.2100  201.6240  149.0700 C   0  0  0  0  0  0  0  0  0  0  0  0
  160.8180  210.0390  151.3250 O   0  0  0  0  0  0  0  0  0  0  0  0
  161.0290  206.6590  148.6960 C   0  0  0  0  0  0  0  0  0  0  0  0
  161.0770  208.8510  151.6580 C   0  0  0  0  0  0  0  0  0  0  0  0
  160.7660  203.9280  148.2340 C   0  0  0  0  0  0  0  0  0  0  0  0
  161.3220  202.0850  150.3260 C   0  0  0  0  0  3  0  0  0  0  0  0
  161.6900  200.2520  148.7510 C   0  0  0  0  0  1  0  0  0  0  0  0
  160.8860  204.4040  149.5590 C   0  0  0  0  0  0  0  0  0  0  0  0
  160.5850  202.4590  147.9800 C   0  0  0  0  0  2  0  0  0  0  0  0
  160.8130  203.4500  150.7160 C   0  0  0  0  0  2  0  0  0  0  0  0
  161.1020  206.4640  150.9850 N   0  0  0  0  0  2  0  0  0  0  0  0
  161.0120  205.7800  149.7530 C   0  0  0  0  0  0  0  0  0  0  0  0
  160.9070  206.2130  147.3790 C   0  0  0  0  0  3  0  0  0  0  0  0
  161.1730  208.0530  149.2090 C   0  0  1  0  0  3  0  0  0  0  0  0
  161.1730  207.8280  150.6630 N   0  0  0  0  0  0  0  0  0  0  0  0
  160.7710  204.8320  147.1540 C   0  0  0  0  0  3  0  0  0  0  0  0
  162.5240  208.6010  148.7670 C   0  0  0  0  0  2  0  0  0  0  0  0
  162.6580  210.0670  149.1390 C   0  0  0  0  0  2  0  0  0  0  0  0
  160.5250  212.2150  146.9450 O   0  0  0  0  0  0  0  0  0  0  0  0
  162.7250  213.1830  146.9080 C   0  0  0  0  0  2  0  0  0  0  0  0
  161.2280  213.4230  147.1030 C   0  0  1  0  0  3  0  0  0  0  0  0
  160.8440  211.4090  148.0530 C   0  0  0  0  0  2  0  0  0  0  0  0
  162.3000  210.9460  147.9560 C   0  0  1  0  0  3  0  0  0  0  0  0
  160.7420  214.4300  146.0820 C   0  0  0  0  0  1  0  0  0  0  0  0
  163.2080  212.1740  147.9470 C   0  0  0  0  0  2  0  0  0  0  0  0
  161.2630  209.5300  154.0770 C   0  0  0  0  0  2  0  0  0  0  0  0
  160.6080  208.9650  155.3450 C   0  0  2  0  0  3  0  0  0  0  0  0
  160.1570  207.6350  155.1980 O   0  0  0  0  0  0  0  0  0  0  0  0
  160.5490  206.8930  156.3230 C   0  0  0  0  0  1  0  0  0  0  0  0
  159.5880  209.8820  156.0550 C   0  0  1  0  0  3  0  0  0  0  0  0
  160.2360  210.5930  157.2400 C   0  0  0  0  0  2  0  0  0  0  0  0
  162.6850  211.0610  157.1990 C   0  0  0  0  0  1  0  0  0  0  0  0
  161.3160  211.5590  156.7790 C   0  0  0  0  0  2  0  0  0  0  0  0
  158.9680  210.9010  155.1020 C   0  0  0  0  0  2  0  0  0  0  0  0
  157.9700  211.7970  155.8220 C   0  0  2  0  0  3  0  0  0  0  0  0
  156.7830  211.0890  156.0240 O   0  0  0  0  0  1  0  0  0  0  0  0
  157.6980  213.0450  154.9900 C   0  0  2  0  0  3  0  0  0  0  0  0
  157.8790  213.2440  152.5640 O   0  0  0  0  0  0  0  0  0  0  0  0
  156.1430  214.2920  153.8980 C   0  0  0  0  0  2  0  0  0  0  0  0
  157.1000  214.4110  152.6980 C   0  0  0  0  0  2  0  0  0  0  0  0
  156.3460  213.0780  154.5870 O   0  0  0  0  0  0  0  0  0  0  0  0
  158.6220  213.0860  153.7530 C   0  0  0  0  0  2  0  0  0  0  0  0
  1 27  1  0  0  0  0
  2  7  2  0  0  0  0
  3  5  2  0  0  0  0
  4 15  1  0  0  0  0
  4 13  1  0  0  0  0
  5  1  1  0  0  0  0
  6  9  1  0  0  0  0
  7 11  1  0  0  0  0
  8  2  1  0  0  0  0
  9 13  2  0  0  0  0
  9 11  1  0  0  0  0
 10  6  1  0  0  0  0
 10  2  1  0  0  0  0
 13 12  1  0  0  0  0
 14  4  2  0  0  0  0
 15 18  1  6  0  0  0
 15 16  1  0  0  0  0
 16 12  1  0  0  0  0
 16  5  1  0  0  0  0
 17 14  1  0  0  0  0
 17  6  2  0  0  0  0
 18 19  1  0  0  0  0
 20 22  1  0  0  0  0
 20 23  1  0  0  0  0
 21 22  1  0  0  0  0
 21 26  1  0  0  0  0
 22 25  1  6  0  0  0
 24 23  1  0  0  0  0
 24 19  1  1  0  0  0
 26 24  1  0  0  0  0
 28 27  1  6  0  0  0
 28 31  1  0  0  0  0
 29 28  1  0  0  0  0
 29 30  1  0  0  0  0
 31 35  1  6  0  0  0
 31 32  1  0  0  0  0
 34 33  1  0  0  0  0
 34 32  1  0  0  0  0
 35 36  1  0  0  0  0
 36 37  1  6  0  0  0
 38 36  1  6  0  0  0
 39 41  1  0  0  0  0
 39 43  1  0  0  0  0
 40 42  1  0  0  0  0
 41 40  1  0  0  0  0
 42 38  1  0  0  0  0
 43 38  1  0  0  0  0
M  END
>  <MODEL>
9

>  <REMARK>
 VINA RESULT:      -5.6      2.496      7.936
  Name = 
  12 active torsions:
  status: ('A' for Active; 'I' for Inactive)
    1  A    between atoms: C_1  and  C_28
    2  A    between atoms: C_1  and  C_34
    3  A    between atoms: N_2  and  C_6
    4  A    between atoms: C_3  and  C_4
    5  A    between atoms: C_3  and  C_6
    6  A    between atoms: C_3  and  O_12
    7  A    between atoms: C_4  and  C_15
    8  A    between atoms: C_4  and  C_22
    9  A    between atoms: C_11  and  C_14
   10  A    between atoms: C_14  and  C_22
   11  A    between atoms: C_15  and  C_42
   12  A    between atoms: C_28  and  C_35
                            x       y       z     vdW  Elec       q    Type
                         _______ _______ _______ _____ _____    ______ ____

>  <TORSDO>
F 12

$$$$
