=
 OpenBabel11052422393D

 31 34  0  0  1  0  0  0  0  0999 V2000
  161.9670  210.8720  149.5550 C   0  0  0  0  0  0  0  0  0  0  0  0
  161.1020  208.7800  152.5260 C   0  0  0  0  0  0  0  0  0  0  0  0
  160.7280  209.8270  153.5690 C   0  0  1  0  0  3  0  0  0  0  0  0
  158.7910  211.4410  153.9110 C   0  0  0  0  0  3  0  0  0  0  0  0
  161.4960  209.1670  151.2260 C   0  0  0  0  0  0  0  0  0  0  0  0
  162.2750  209.8800  148.6210 C   0  0  0  0  0  3  0  0  0  0  0  0
  159.4900  210.5830  153.1440 C   0  0  0  0  0  3  0  0  0  0  0  0
  161.4290  206.4540  151.8690 C   0  0  0  0  0  0  0  0  0  0  0  0
  162.0400  212.1780  149.2050 F   0  0  0  0  0  0  0  0  0  0  0  0
  161.2880  207.9820  155.2540 C   0  0  0  0  0  2  0  0  0  0  0  0
  159.0420  211.7380  155.3690 C   0  0  0  0  0  2  0  0  0  0  0  0
  161.7660  206.8600  150.6180 N   0  0  0  0  0  0  0  0  0  0  0  0
  161.1080  207.4050  152.8570 C   0  0  0  0  0  0  0  0  0  0  0  0
  161.5790  210.5180  150.8500 C   0  0  0  0  0  3  0  0  0  0  0  0
  160.5240  211.7550  155.7230 C   0  0  0  0  0  2  0  0  0  0  0  0
  161.8200  208.1720  150.2770 C   0  0  0  0  0  0  0  0  0  0  0  0
  162.2020  208.5330  148.9810 C   0  0  0  0  0  3  0  0  0  0  0  0
  160.7770  206.9630  154.2520 C   0  0  0  0  0  2  0  0  0  0  0  0
  160.5740  209.3010  155.0100 C   0  0  1  0  0  3  0  0  0  0  0  0
  161.0400  210.3450  156.0250 C   0  0  0  0  0  2  0  0  0  0  0  0
  161.3780  204.9870  152.1570 C   0  0  0  0  0  2  0  0  0  0  0  0
  159.6320  204.5630  150.6390 O   0  0  0  0  0  0  0  0  0  0  0  0
  160.7530  204.2550  151.0160 C   0  0  0  0  0  0  0  0  0  0  0  0
  161.8500  202.0560  151.3900 C   0  0  0  0  0  1  0  0  0  0  0  0
  161.4930  203.1230  150.3700 C   0  0  1  0  0  3  0  0  0  0  0  0
  159.8660  201.4640  149.4680 O   0  0  0  0  0  1  0  0  0  0  0  0
  160.7140  202.5390  149.2280 C   0  0  0  0  0  0  0  0  0  0  0  0
  160.7860  203.0230  147.9820 C   0  0  0  0  0  3  0  0  0  0  0  0
  161.6110  204.1550  147.5220 C   0  0  0  0  0  0  0  0  0  0  0  0
  161.0330  205.5220  147.5540 C   0  0  0  0  0  1  0  0  0  0  0  0
  162.7890  203.9940  147.1040 O   0  0  0  0  0  0  0  0  0  0  0  0
  1 14  1  0  0  0  0
  2 13  2  0  0  0  0
  2  3  1  0  0  0  0
  3  7  1  6  0  0  0
  3 19  1  0  0  0  0
  4 11  1  0  0  0  0
  5  2  1  0  0  0  0
  6 17  1  0  0  0  0
  6  1  2  0  0  0  0
  7  4  2  0  0  0  0
  8 21  1  0  0  0  0
  8 13  1  0  0  0  0
  9  1  1  0  0  0  0
 11 15  1  0  0  0  0
 12  8  2  0  0  0  0
 13 18  1  0  0  0  0
 14  5  2  0  0  0  0
 15 20  1  0  0  0  0
 16 12  1  0  0  0  0
 16  5  1  0  0  0  0
 17 16  2  0  0  0  0
 18 10  1  0  0  0  0
 19 10  1  6  0  0  0
 19 20  1  0  0  0  0
 22 23  2  0  0  0  0
 23 21  1  0  0  0  0
 25 23  1  0  0  0  0
 25 24  1  1  0  0  0
 27 26  1  0  0  0  0
 27 25  1  0  0  0  0
 28 27  2  0  0  0  0
 29 30  1  0  0  0  0
 29 28  1  0  0  0  0
 31 29  2  0  0  0  0
M  END
>  <MODEL>
1

>  <REMARK>
 VINA RESULT:      -8.3      0.000      0.000
  Name = 
  5 active torsions:
  status: ('A' for Active; 'I' for Inactive)
    1  A    between atoms: C_1  and  C_24
    2  A    between atoms: C_9  and  C_22
    3  A    between atoms: C_9  and  C_23
    4  A    between atoms: C_15  and  C_23
    5  A    between atoms: C_19  and  C_22
                            x       y       z     vdW  Elec       q    Type
                         _______ _______ _______ _____ _____    ______ ____

>  <TORSDO>
F 5

$$$$
=
 OpenBabel11052422393D

 31 34  0  0  1  0  0  0  0  0999 V2000
  161.2400  200.9770  148.9750 C   0  0  0  0  0  0  0  0  0  0  0  0
  161.1970  204.6810  148.4990 C   0  0  0  0  0  0  0  0  0  0  0  0
  161.5100  204.8270  147.0140 C   0  0  1  0  0  3  0  0  0  0  0  0
  160.2790  204.3470  144.8400 C   0  0  0  0  0  3  0  0  0  0  0  0
  161.1130  203.4040  149.0950 C   0  0  0  0  0  0  0  0  0  0  0  0
  160.9230  200.8870  150.3330 C   0  0  0  0  0  3  0  0  0  0  0  0
  160.4060  204.2260  146.1750 C   0  0  0  0  0  3  0  0  0  0  0  0
  160.7130  205.6660  150.6770 C   0  0  0  0  0  0  0  0  0  0  0  0
  161.4520  199.8510  148.2530 F   0  0  0  0  0  0  0  0  0  0  0  0
  162.2760  207.1820  147.6650 C   0  0  0  0  0  2  0  0  0  0  0  0
  161.1500  205.1850  143.9360 C   0  0  0  0  0  2  0  0  0  0  0  0
  160.6030  204.4220  151.2090 N   0  0  0  0  0  0  0  0  0  0  0  0
  161.0320  205.8240  149.3140 C   0  0  0  0  0  0  0  0  0  0  0  0
  161.3350  202.2280  148.3600 C   0  0  0  0  0  3  0  0  0  0  0  0
  162.6140  205.1840  144.3590 C   0  0  0  0  0  2  0  0  0  0  0  0
  160.8030  203.3020  150.4710 C   0  0  0  0  0  0  0  0  0  0  0  0
  160.7050  202.0470  151.0790 C   0  0  0  0  0  3  0  0  0  0  0  0
  161.1970  207.1980  148.7320 C   0  0  0  0  0  2  0  0  0  0  0  0
  161.8330  206.2580  146.5430 C   0  0  1  0  0  3  0  0  0  0  0  0
  162.8830  206.2430  145.4310 C   0  0  0  0  0  2  0  0  0  0  0  0
  160.4610  206.8480  151.5580 C   0  0  0  0  0  2  0  0  0  0  0  0
  162.5240  206.4050  152.5960 O   0  0  0  0  0  0  0  0  0  0  0  0
  161.7180  207.2560  152.2520 C   0  0  0  0  0  0  0  0  0  0  0  0
  162.4520  209.4420  151.3220 C   0  0  0  0  0  1  0  0  0  0  0  0
  161.9580  208.7050  152.5550 C   0  0  1  0  0  3  0  0  0  0  0  0
  159.9450  210.1510  152.2910 O   0  0  0  0  0  1  0  0  0  0  0  0
  160.7310  209.3580  153.1200 C   0  0  0  0  0  0  0  0  0  0  0  0
  160.3460  209.1960  154.3910 C   0  0  0  0  0  3  0  0  0  0  0  0
  161.0280  208.3940  155.4230 C   0  0  0  0  0  0  0  0  0  0  0  0
  160.5240  207.0290  155.7190 C   0  0  0  0  0  1  0  0  0  0  0  0
  162.0230  208.8340  156.0590 O   0  0  0  0  0  0  0  0  0  0  0  0
  1  6  1  0  0  0  0
  2  5  2  0  0  0  0
  2 13  1  0  0  0  0
  3  7  1  6  0  0  0
  3  2  1  0  0  0  0
  4  7  2  0  0  0  0
  5 16  1  0  0  0  0
  6 17  2  0  0  0  0
  8 12  1  0  0  0  0
  8 21  1  0  0  0  0
  9  1  1  0  0  0  0
 10 18  1  0  0  0  0
 11 15  1  0  0  0  0
 11  4  1  0  0  0  0
 13  8  2  0  0  0  0
 14  1  2  0  0  0  0
 14  5  1  0  0  0  0
 15 20  1  0  0  0  0
 16 17  1  0  0  0  0
 16 12  2  0  0  0  0
 18 13  1  0  0  0  0
 19 20  1  6  0  0  0
 19  3  1  0  0  0  0
 19 10  1  0  0  0  0
 21 23  1  0  0  0  0
 23 25  1  0  0  0  0
 23 22  2  0  0  0  0
 25 24  1  6  0  0  0
 25 27  1  0  0  0  0
 26 27  1  0  0  0  0
 27 28  2  0  0  0  0
 28 29  1  0  0  0  0
 29 30  1  0  0  0  0
 29 31  2  0  0  0  0
M  END
>  <MODEL>
2

>  <REMARK>
 VINA RESULT:      -7.4      3.324      8.302
  Name = 
  5 active torsions:
  status: ('A' for Active; 'I' for Inactive)
    1  A    between atoms: C_1  and  C_24
    2  A    between atoms: C_9  and  C_22
    3  A    between atoms: C_9  and  C_23
    4  A    between atoms: C_15  and  C_23
    5  A    between atoms: C_19  and  C_22
                            x       y       z     vdW  Elec       q    Type
                         _______ _______ _______ _____ _____    ______ ____

>  <TORSDO>
F 5

$$$$
=
 OpenBabel11052422393D

 31 34  0  0  1  0  0  0  0  0999 V2000
  161.1130  201.3920  149.7650 C   0  0  0  0  0  0  0  0  0  0  0  0
  161.3150  205.0240  148.9180 C   0  0  0  0  0  0  0  0  0  0  0  0
  161.5850  204.9990  147.4190 C   0  0  1  0  0  3  0  0  0  0  0  0
  160.2460  204.3990  145.3400 C   0  0  0  0  0  3  0  0  0  0  0  0
  161.1620  203.8210  149.6430 C   0  0  0  0  0  0  0  0  0  0  0  0
  160.8380  201.4600  151.1330 C   0  0  0  0  0  3  0  0  0  0  0  0
  160.4110  204.4020  146.6760 C   0  0  0  0  0  3  0  0  0  0  0  0
  160.9800  206.2520  150.9980 C   0  0  0  0  0  0  0  0  0  0  0  0
  161.2190  200.1880  149.1550 F   0  0  0  0  0  0  0  0  0  0  0  0
  162.5380  207.3430  147.8060 C   0  0  0  0  0  2  0  0  0  0  0  0
  161.1410  205.0770  144.3310 C   0  0  0  0  0  2  0  0  0  0  0  0
  160.8010  205.0780  151.6570 N   0  0  0  0  0  0  0  0  0  0  0  0
  161.2600  206.2510  149.6190 C   0  0  0  0  0  0  0  0  0  0  0  0
  161.2740  202.5660  149.0240 C   0  0  0  0  0  3  0  0  0  0  0  0
  162.6150  205.0100  144.7100 C   0  0  0  0  0  2  0  0  0  0  0  0
  160.8950  203.8790  151.0300 C   0  0  0  0  0  0  0  0  0  0  0  0
  160.7300  202.7010  151.7640 C   0  0  0  0  0  3  0  0  0  0  0  0
  161.5010  207.5450  148.8960 C   0  0  0  0  0  2  0  0  0  0  0  0
  161.9910  206.3490  146.7950 C   0  0  1  0  0  3  0  0  0  0  0  0
  162.9970  206.1470  145.6620 C   0  0  0  0  0  2  0  0  0  0  0  0
  160.8430  207.5310  151.7630 C   0  0  0  0  0  2  0  0  0  0  0  0
  162.1920  206.5930  153.4460 O   0  0  0  0  0  0  0  0  0  0  0  0
  161.2550  207.3320  153.1850 C   0  0  0  0  0  0  0  0  0  0  0  0
  160.0920  207.0230  155.3600 C   0  0  0  0  0  1  0  0  0  0  0  0
  160.4890  208.0130  154.2780 C   0  0  1  0  0  3  0  0  0  0  0  0
  162.0880  208.9400  155.9500 O   0  0  0  0  0  1  0  0  0  0  0  0
  161.2610  209.1630  154.8550 C   0  0  0  0  0  0  0  0  0  0  0  0
  161.2010  210.4000  154.3480 C   0  0  0  0  0  3  0  0  0  0  0  0
  160.3990  210.8420  153.1930 C   0  0  0  0  0  0  0  0  0  0  0  0
  158.9830  211.2340  153.4120 C   0  0  0  0  0  1  0  0  0  0  0  0
  160.8790  210.8950  152.0300 O   0  0  0  0  0  0  0  0  0  0  0  0
  1  6  1  0  0  0  0
  2 13  2  0  0  0  0
  2  5  1  0  0  0  0
  3  7  1  6  0  0  0
  3  2  1  0  0  0  0
  4  7  2  0  0  0  0
  5 16  2  0  0  0  0
  6 17  2  0  0  0  0
  8 12  2  0  0  0  0
  8 21  1  0  0  0  0
  9  1  1  0  0  0  0
 10 18  1  0  0  0  0
 11 15  1  0  0  0  0
 11  4  1  0  0  0  0
 13  8  1  0  0  0  0
 14  5  1  0  0  0  0
 14  1  2  0  0  0  0
 15 20  1  0  0  0  0
 16 12  1  0  0  0  0
 16 17  1  0  0  0  0
 18 13  1  0  0  0  0
 19 20  1  6  0  0  0
 19  3  1  0  0  0  0
 19 10  1  0  0  0  0
 21 23  1  0  0  0  0
 23 22  2  0  0  0  0
 23 25  1  0  0  0  0
 25 27  1  0  0  0  0
 25 24  1  1  0  0  0
 27 26  1  0  0  0  0
 28 27  2  0  0  0  0
 29 30  1  0  0  0  0
 29 28  1  0  0  0  0
 31 29  2  0  0  0  0
M  END
>  <MODEL>
3

>  <REMARK>
 VINA RESULT:      -6.9      3.267      8.127
  Name = 
  5 active torsions:
  status: ('A' for Active; 'I' for Inactive)
    1  A    between atoms: C_1  and  C_24
    2  A    between atoms: C_9  and  C_22
    3  A    between atoms: C_9  and  C_23
    4  A    between atoms: C_15  and  C_23
    5  A    between atoms: C_19  and  C_22
                            x       y       z     vdW  Elec       q    Type
                         _______ _______ _______ _____ _____    ______ ____

>  <TORSDO>
F 5

$$$$
=
 OpenBabel11052422393D

 31 34  0  0  1  0  0  0  0  0999 V2000
  160.8090  204.9490  149.2350 C   0  0  0  0  0  0  0  0  0  0  0  0
  161.3960  208.2440  150.8930 C   0  0  0  0  0  0  0  0  0  0  0  0
  160.9930  207.9640  152.3360 C   0  0  1  0  0  3  0  0  0  0  0  0
  161.9560  206.6140  154.2650 C   0  0  0  0  0  3  0  0  0  0  0  0
  161.3260  207.2270  149.9150 C   0  0  0  0  0  0  0  0  0  0  0  0
  161.2160  205.2400  147.9310 C   0  0  0  0  0  3  0  0  0  0  0  0
  161.9190  206.9460  152.9600 C   0  0  0  0  0  3  0  0  0  0  0  0
  162.2010  209.7680  149.1670 C   0  0  0  0  0  0  0  0  0  0  0  0
  160.3660  203.7080  149.5460 F   0  0  0  0  0  0  0  0  0  0  0  0
  160.6610  210.5000  152.4690 C   0  0  0  0  0  2  0  0  0  0  0  0
  161.1580  207.2600  155.3710 C   0  0  0  0  0  2  0  0  0  0  0  0
  162.1560  208.7570  148.2610 N   0  0  0  0  0  0  0  0  0  0  0  0
  161.8040  209.5390  150.4980 C   0  0  0  0  0  0  0  0  0  0  0  0
  160.8640  205.9370  150.2220 C   0  0  0  0  0  3  0  0  0  0  0  0
  159.7510  207.6490  154.9350 C   0  0  0  0  0  2  0  0  0  0  0  0
  161.7240  207.5140  148.5900 C   0  0  0  0  0  0  0  0  0  0  0  0
  161.6720  206.5190  147.6080 C   0  0  0  0  0  3  0  0  0  0  0  0
  161.8110  210.6650  151.4920 C   0  0  0  0  0  2  0  0  0  0  0  0
  160.8620  209.2060  153.2400 C   0  0  1  0  0  3  0  0  0  0  0  0
  159.7380  209.0240  154.2600 C   0  0  0  0  0  2  0  0  0  0  0  0
  162.7060  211.1050  148.7250 C   0  0  0  0  0  2  0  0  0  0  0  0
  160.7600  211.4270  147.4440 O   0  0  0  0  0  0  0  0  0  0  0  0
  161.5840  211.9330  148.1900 C   0  0  0  0  0  0  0  0  0  0  0  0
  162.6520  214.1610  147.9210 C   0  0  0  0  0  1  0  0  0  0  0  0
  161.5040  213.3870  148.5460 C   0  0  1  0  0  3  0  0  0  0  0  0
  159.9550  214.3100  146.8240 O   0  0  0  0  0  1  0  0  0  0  0  0
  160.1800  213.9750  148.1550 C   0  0  0  0  0  0  0  0  0  0  0  0
  159.1920  214.1770  149.0340 C   0  0  0  0  0  3  0  0  0  0  0  0
  159.2230  213.8830  150.4790 C   0  0  0  0  0  0  0  0  0  0  0  0
  158.2120  212.9540  151.0430 C   0  0  0  0  0  1  0  0  0  0  0  0
  160.0810  214.3980  151.2450 O   0  0  0  0  0  0  0  0  0  0  0  0
  1  9  1  0  0  0  0
  1 14  1  0  0  0  0
  2  3  1  0  0  0  0
  3  7  1  1  0  0  0
  3 19  1  0  0  0  0
  4 11  1  0  0  0  0
  5 14  2  0  0  0  0
  5  2  1  0  0  0  0
  6  1  2  0  0  0  0
  7  4  2  0  0  0  0
  8 13  1  0  0  0  0
 12 16  1  0  0  0  0
 12  8  2  0  0  0  0
 13  2  2  0  0  0  0
 13 18  1  0  0  0  0
 15 11  1  0  0  0  0
 16  5  1  0  0  0  0
 17  6  1  0  0  0  0
 17 16  2  0  0  0  0
 18 10  1  0  0  0  0
 19 10  1  6  0  0  0
 19 20  1  0  0  0  0
 20 15  1  0  0  0  0
 21  8  1  0  0  0  0
 22 23  2  0  0  0  0
 23 25  1  0  0  0  0
 23 21  1  0  0  0  0
 25 24  1  6  0  0  0
 26 27  1  0  0  0  0
 27 25  1  0  0  0  0
 27 28  2  0  0  0  0
 28 29  1  0  0  0  0
 29 30  1  0  0  0  0
 29 31  2  0  0  0  0
M  END
>  <MODEL>
4

>  <REMARK>
 VINA RESULT:      -6.8      3.848      7.081
  Name = 
  5 active torsions:
  status: ('A' for Active; 'I' for Inactive)
    1  A    between atoms: C_1  and  C_24
    2  A    between atoms: C_9  and  C_22
    3  A    between atoms: C_9  and  C_23
    4  A    between atoms: C_15  and  C_23
    5  A    between atoms: C_19  and  C_22
                            x       y       z     vdW  Elec       q    Type
                         _______ _______ _______ _____ _____    ______ ____

>  <TORSDO>
F 5

$$$$
=
 OpenBabel11052422393D

 31 34  0  0  1  0  0  0  0  0999 V2000
  160.8280  205.0700  149.0380 C   0  0  0  0  0  0  0  0  0  0  0  0
  161.3840  208.2340  150.9430 C   0  0  0  0  0  0  0  0  0  0  0  0
  160.9780  207.8420  152.3590 C   0  0  1  0  0  3  0  0  0  0  0  0
  161.9460  206.3560  154.1840 C   0  0  0  0  0  3  0  0  0  0  0  0
  161.3250  207.2940  149.8910 C   0  0  0  0  0  0  0  0  0  0  0  0
  161.2370  205.4620  147.7610 C   0  0  0  0  0  3  0  0  0  0  0  0
  161.9100  206.7860  152.9090 C   0  0  0  0  0  3  0  0  0  0  0  0
  162.1830  209.8900  149.3420 C   0  0  0  0  0  0  0  0  0  0  0  0
  160.3930  203.8050  149.2520 F   0  0  0  0  0  0  0  0  0  0  0  0
  160.6260  210.3580  152.6830 C   0  0  0  0  0  2  0  0  0  0  0  0
  161.1390  206.9110  155.3330 C   0  0  0  0  0  2  0  0  0  0  0  0
  162.1490  208.9510  148.3610 N   0  0  0  0  0  0  0  0  0  0  0  0
  161.7830  209.5580  150.6500 C   0  0  0  0  0  0  0  0  0  0  0  0
  160.8720  205.9810  150.0970 C   0  0  0  0  0  3  0  0  0  0  0  0
  159.7300  207.3210  154.9230 C   0  0  0  0  0  2  0  0  0  0  0  0
  161.7260  207.6840  148.5930 C   0  0  0  0  0  0  0  0  0  0  0  0
  161.6840  206.7660  147.5390 C   0  0  0  0  0  3  0  0  0  0  0  0
  161.7780  210.6050  151.7260 C   0  0  0  0  0  2  0  0  0  0  0  0
  160.8350  209.0110  153.3550 C   0  0  1  0  0  3  0  0  0  0  0  0
  159.7090  208.7430  154.3540 C   0  0  0  0  0  2  0  0  0  0  0  0
  162.6790  211.2600  149.0040 C   0  0  0  0  0  2  0  0  0  0  0  0
  160.7060  212.4970  149.3370 O   0  0  0  0  0  0  0  0  0  0  0  0
  161.5510  212.1210  148.5380 C   0  0  0  0  0  0  0  0  0  0  0  0
  159.9930  212.5950  146.6590 C   0  0  0  0  0  1  0  0  0  0  0  0
  161.4470  212.4810  147.0870 C   0  0  1  0  0  3  0  0  0  0  0  0
  162.7830  214.4530  147.8240 O   0  0  0  0  0  1  0  0  0  0  0  0
  162.2000  213.7420  146.7800 C   0  0  0  0  0  0  0  0  0  0  0  0
  162.3520  214.2070  145.5350 C   0  0  0  0  0  3  0  0  0  0  0  0
  161.8260  213.6030  144.2970 C   0  0  0  0  0  0  0  0  0  0  0  0
  160.6450  214.2240  143.6430 C   0  0  0  0  0  1  0  0  0  0  0  0
  162.3480  212.5790  143.7810 O   0  0  0  0  0  0  0  0  0  0  0  0
  1  9  1  0  0  0  0
  1 14  1  0  0  0  0
  2  3  1  0  0  0  0
  3  7  1  1  0  0  0
  3 19  1  0  0  0  0
  4 11  1  0  0  0  0
  5 14  2  0  0  0  0
  5  2  1  0  0  0  0
  6  1  2  0  0  0  0
  7  4  2  0  0  0  0
  8 13  1  0  0  0  0
 12 16  1  0  0  0  0
 12  8  2  0  0  0  0
 13  2  2  0  0  0  0
 13 18  1  0  0  0  0
 15 11  1  0  0  0  0
 16  5  1  0  0  0  0
 17  6  1  0  0  0  0
 17 16  2  0  0  0  0
 18 10  1  0  0  0  0
 19 10  1  6  0  0  0
 19 20  1  0  0  0  0
 20 15  1  0  0  0  0
 21  8  1  0  0  0  0
 23 21  1  0  0  0  0
 23 22  2  0  0  0  0
 25 24  1  1  0  0  0
 25 23  1  0  0  0  0
 27 25  1  0  0  0  0
 27 26  1  0  0  0  0
 28 27  2  0  0  0  0
 29 28  1  0  0  0  0
 30 29  1  0  0  0  0
 31 29  2  0  0  0  0
M  END
>  <MODEL>
5

>  <REMARK>
 VINA RESULT:      -6.6      4.079      6.964
  Name = 
  5 active torsions:
  status: ('A' for Active; 'I' for Inactive)
    1  A    between atoms: C_1  and  C_24
    2  A    between atoms: C_9  and  C_22
    3  A    between atoms: C_9  and  C_23
    4  A    between atoms: C_15  and  C_23
    5  A    between atoms: C_19  and  C_22
                            x       y       z     vdW  Elec       q    Type
                         _______ _______ _______ _____ _____    ______ ____

>  <TORSDO>
F 5

$$$$
=
 OpenBabel11052422393D

 31 34  0  0  1  0  0  0  0  0999 V2000
  161.0130  206.9980  146.9720 C   0  0  0  0  0  0  0  0  0  0  0  0
  161.1460  204.8680  150.0370 C   0  0  0  0  0  0  0  0  0  0  0  0
  160.8310  203.4810  149.4890 C   0  0  1  0  0  3  0  0  0  0  0  0
  162.0430  201.7830  148.0320 C   0  0  0  0  0  3  0  0  0  0  0  0
  161.2010  205.9870  149.1770 C   0  0  0  0  0  0  0  0  0  0  0  0
  161.3330  208.2470  147.5110 C   0  0  0  0  0  3  0  0  0  0  0  0
  161.9180  203.0230  148.5440 C   0  0  0  0  0  3  0  0  0  0  0  0
  161.6600  206.3510  151.9040 C   0  0  0  0  0  0  0  0  0  0  0  0
  160.7710  206.8750  145.6450 F   0  0  0  0  0  0  0  0  0  0  0  0
  160.1250  202.9670  151.8960 C   0  0  0  0  0  2  0  0  0  0  0  0
  161.1900  200.5880  148.3790 C   0  0  0  0  0  2  0  0  0  0  0  0
  161.7420  207.3980  151.0430 N   0  0  0  0  0  0  0  0  0  0  0  0
  161.3420  205.0660  151.4230 C   0  0  0  0  0  0  0  0  0  0  0  0
  160.9470  205.8750  147.8000 C   0  0  0  0  0  3  0  0  0  0  0  0
  159.7280  200.9510  148.6070 C   0  0  0  0  0  2  0  0  0  0  0  0
  161.5120  207.2570  149.7140 C   0  0  0  0  0  0  0  0  0  0  0  0
  161.5810  208.3760  148.8790 C   0  0  0  0  0  3  0  0  0  0  0  0
  161.2080  203.9150  152.3770 C   0  0  0  0  0  2  0  0  0  0  0  0
  160.5420  202.4000  150.5490 C   0  0  1  0  0  3  0  0  0  0  0  0
  159.4880  201.4120  150.0470 C   0  0  0  0  0  2  0  0  0  0  0  0
  161.9450  206.5900  153.3530 C   0  0  0  0  0  2  0  0  0  0  0  0
  161.7920  208.9330  153.2100 O   0  0  0  0  0  0  0  0  0  0  0  0
  161.4100  207.9190  153.7740 C   0  0  0  0  0  0  0  0  0  0  0  0
  160.0880  206.6100  155.4230 C   0  0  0  0  0  1  0  0  0  0  0  0
  160.4380  207.9970  154.9130 C   0  0  1  0  0  3  0  0  0  0  0  0
  161.9560  208.3660  156.8560 O   0  0  0  0  0  1  0  0  0  0  0  0
  160.9610  208.8640  156.0210 C   0  0  0  0  0  0  0  0  0  0  0  0
  160.5220  210.1100  156.2320 C   0  0  0  0  0  3  0  0  0  0  0  0
  159.4870  210.8230  155.4610 C   0  0  0  0  0  0  0  0  0  0  0  0
  159.9080  211.7060  154.3440 C   0  0  0  0  0  1  0  0  0  0  0  0
  158.2610  210.7040  155.7230 O   0  0  0  0  0  0  0  0  0  0  0  0
  1  6  2  0  0  0  0
  1 14  1  0  0  0  0
  2 13  2  0  0  0  0
  3  7  1  1  0  0  0
  3  2  1  0  0  0  0
  3 19  1  0  0  0  0
  4 11  1  0  0  0  0
  4  7  2  0  0  0  0
  5 16  1  0  0  0  0
  5  2  1  0  0  0  0
  6 17  1  0  0  0  0
  8 21  1  0  0  0  0
  9  1  1  0  0  0  0
 10 18  1  0  0  0  0
 11 15  1  0  0  0  0
 12  8  2  0  0  0  0
 13  8  1  0  0  0  0
 13 18  1  0  0  0  0
 14  5  2  0  0  0  0
 15 20  1  0  0  0  0
 16 12  1  0  0  0  0
 17 16  2  0  0  0  0
 19 20  1  6  0  0  0
 19 10  1  0  0  0  0
 21 23  1  0  0  0  0
 22 23  2  0  0  0  0
 23 25  1  0  0  0  0
 25 24  1  1  0  0  0
 25 27  1  0  0  0  0
 27 28  2  0  0  0  0
 27 26  1  0  0  0  0
 29 31  2  0  0  0  0
 29 28  1  0  0  0  0
 30 29  1  0  0  0  0
M  END
>  <MODEL>
6

>  <REMARK>
 VINA RESULT:      -5.9      2.925      7.617
  Name = 
  5 active torsions:
  status: ('A' for Active; 'I' for Inactive)
    1  A    between atoms: C_1  and  C_24
    2  A    between atoms: C_9  and  C_22
    3  A    between atoms: C_9  and  C_23
    4  A    between atoms: C_15  and  C_23
    5  A    between atoms: C_19  and  C_22
                            x       y       z     vdW  Elec       q    Type
                         _______ _______ _______ _____ _____    ______ ____

>  <TORSDO>
F 5

$$$$
=
 OpenBabel11052422393D

 31 34  0  0  1  0  0  0  0  0999 V2000
  161.8340  210.3570  148.5470 C   0  0  0  0  0  0  0  0  0  0  0  0
  161.7280  206.8480  149.8210 C   0  0  0  0  0  0  0  0  0  0  0  0
  161.6450  206.0330  148.5360 C   0  0  1  0  0  3  0  0  0  0  0  0
  163.2310  205.4860  146.6230 C   0  0  0  0  0  3  0  0  0  0  0  0
  161.7940  208.2580  149.7770 C   0  0  0  0  0  0  0  0  0  0  0  0
  161.9380  211.0650  149.7460 C   0  0  0  0  0  3  0  0  0  0  0  0
  162.9020  206.2030  147.7150 C   0  0  0  0  0  3  0  0  0  0  0  0
  161.8020  206.9800  152.2550 C   0  0  0  0  0  0  0  0  0  0  0  0
  161.8070  211.0230  147.3680 F   0  0  0  0  0  0  0  0  0  0  0  0
  160.6450  204.2240  150.0480 C   0  0  0  0  0  2  0  0  0  0  0  0
  162.4650  204.3110  146.0670 C   0  0  0  0  0  2  0  0  0  0  0  0
  161.9020  208.3320  152.1740 N   0  0  0  0  0  0  0  0  0  0  0  0
  161.6940  206.2090  151.0820 C   0  0  0  0  0  0  0  0  0  0  0  0
  161.7630  208.9620  148.5610 C   0  0  0  0  0  3  0  0  0  0  0  0
  160.9550  204.4770  146.1910 C   0  0  0  0  0  2  0  0  0  0  0  0
  161.8890  208.9850  150.9850 C   0  0  0  0  0  0  0  0  0  0  0  0
  161.9650  210.3810  150.9630 C   0  0  0  0  0  3  0  0  0  0  0  0
  161.5400  204.7180  151.1700 C   0  0  0  0  0  2  0  0  0  0  0  0
  161.3150  204.5380  148.7200 C   0  0  1  0  0  3  0  0  0  0  0  0
  160.4560  204.0220  147.5650 C   0  0  0  0  0  2  0  0  0  0  0  0
  161.8410  206.3390  153.6060 C   0  0  0  0  0  2  0  0  0  0  0  0
  159.8130  206.4660  154.7920 O   0  0  0  0  0  0  0  0  0  0  0  0
  160.8750  207.0090  154.5270 C   0  0  0  0  0  0  0  0  0  0  0  0
  160.1150  209.3660  154.7490 C   0  0  0  0  0  1  0  0  0  0  0  0
  161.2040  208.3610  155.0850 C   0  0  1  0  0  3  0  0  0  0  0  0
  161.0860  207.1490  157.2610 O   0  0  0  0  0  1  0  0  0  0  0  0
  161.4430  208.3000  156.5660 C   0  0  0  0  0  0  0  0  0  0  0  0
  162.0050  209.3030  157.2480 C   0  0  0  0  0  3  0  0  0  0  0  0
  162.4610  210.5950  156.7030 C   0  0  0  0  0  0  0  0  0  0  0  0
  161.7810  211.8390  157.1440 C   0  0  0  0  0  1  0  0  0  0  0  0
  163.4080  210.6710  155.8750 O   0  0  0  0  0  0  0  0  0  0  0  0
  1 14  2  0  0  0  0
  1  6  1  0  0  0  0
  2 13  1  0  0  0  0
  3  7  1  1  0  0  0
  3 19  1  0  0  0  0
  3  2  1  0  0  0  0
  4  7  2  0  0  0  0
  5  2  2  0  0  0  0
  5 16  1  0  0  0  0
  6 17  2  0  0  0  0
  8 21  1  0  0  0  0
  9  1  1  0  0  0  0
 10 18  1  0  0  0  0
 11 15  1  0  0  0  0
 11  4  1  0  0  0  0
 12  8  1  0  0  0  0
 13 18  1  0  0  0  0
 13  8  2  0  0  0  0
 14  5  1  0  0  0  0
 15 20  1  0  0  0  0
 16 12  2  0  0  0  0
 17 16  1  0  0  0  0
 19 20  1  6  0  0  0
 19 10  1  0  0  0  0
 21 23  1  0  0  0  0
 23 22  2  0  0  0  0
 23 25  1  0  0  0  0
 25 24  1  1  0  0  0
 25 27  1  0  0  0  0
 27 28  2  0  0  0  0
 27 26  1  0  0  0  0
 29 30  1  0  0  0  0
 29 28  1  0  0  0  0
 31 29  2  0  0  0  0
M  END
>  <MODEL>
7

>  <REMARK>
 VINA RESULT:      -5.9      2.603      7.273
  Name = 
  5 active torsions:
  status: ('A' for Active; 'I' for Inactive)
    1  A    between atoms: C_1  and  C_24
    2  A    between atoms: C_9  and  C_22
    3  A    between atoms: C_9  and  C_23
    4  A    between atoms: C_15  and  C_23
    5  A    between atoms: C_19  and  C_22
                            x       y       z     vdW  Elec       q    Type
                         _______ _______ _______ _____ _____    ______ ____

>  <TORSDO>
F 5

$$$$
=
 OpenBabel11052422393D

 31 34  0  0  1  0  0  0  0  0999 V2000
  160.9430  205.0070  151.5760 C   0  0  0  0  0  0  0  0  0  0  0  0
  161.1100  208.5990  152.5850 C   0  0  0  0  0  0  0  0  0  0  0  0
  160.6300  208.5580  154.0310 C   0  0  1  0  0  3  0  0  0  0  0  0
  161.5700  207.7040  156.2360 C   0  0  0  0  0  3  0  0  0  0  0  0
  161.2020  207.4130  151.8230 C   0  0  0  0  0  0  0  0  0  0  0  0
  161.4150  205.0840  150.2630 C   0  0  0  0  0  3  0  0  0  0  0  0
  161.5960  207.7770  154.8910 C   0  0  0  0  0  3  0  0  0  0  0  0
  161.8960  209.8410  150.6390 C   0  0  0  0  0  0  0  0  0  0  0  0
  160.5930  203.8080  152.0990 F   0  0  0  0  0  0  0  0  0  0  0  0
  160.0620  211.0250  153.6470 C   0  0  0  0  0  2  0  0  0  0  0  0
  160.6390  208.4640  157.1490 C   0  0  0  0  0  2  0  0  0  0  0  0
  162.0080  208.6780  149.9480 N   0  0  0  0  0  0  0  0  0  0  0  0
  161.4270  209.8300  151.9660 C   0  0  0  0  0  0  0  0  0  0  0  0
  160.8380  206.1640  152.3510 C   0  0  0  0  0  3  0  0  0  0  0  0
  159.2370  208.6170  156.5720 C   0  0  0  0  0  2  0  0  0  0  0  0
  161.6680  207.4830  150.4900 C   0  0  0  0  0  0  0  0  0  0  0  0
  161.7760  206.3190  149.7210 C   0  0  0  0  0  3  0  0  0  0  0  0
  161.2600  211.1190  152.7190 C   0  0  0  0  0  2  0  0  0  0  0  0
  160.3230  209.9290  154.6660 C   0  0  1  0  0  3  0  0  0  0  0  0
  159.1490  209.8290  155.6400 C   0  0  0  0  0  2  0  0  0  0  0  0
  162.3090  211.1150  149.9710 C   0  0  0  0  0  2  0  0  0  0  0  0
  161.5810  210.3460  147.8710 O   0  0  0  0  0  0  0  0  0  0  0  0
  161.5970  211.2720  148.6680 C   0  0  0  0  0  0  0  0  0  0  0  0
  160.5950  213.3480  149.6000 C   0  0  0  0  0  1  0  0  0  0  0  0
  160.9440  212.5800  148.3370 C   0  0  1  0  0  3  0  0  0  0  0  0
  163.0460  213.8370  147.8700 O   0  0  0  0  0  1  0  0  0  0  0  0
  161.8020  213.4050  147.4220 C   0  0  0  0  0  0  0  0  0  0  0  0
  161.4270  213.7320  146.1810 C   0  0  0  0  0  3  0  0  0  0  0  0
  160.1620  213.3690  145.5170 C   0  0  0  0  0  0  0  0  0  0  0  0
  160.1210  212.1510  144.6680 C   0  0  0  0  0  1  0  0  0  0  0  0
  159.1180  214.0630  145.6490 O   0  0  0  0  0  0  0  0  0  0  0  0
  1  9  1  0  0  0  0
  1 14  1  0  0  0  0
  2  3  1  0  0  0  0
  3 19  1  0  0  0  0
  3  7  1  1  0  0  0
  4 11  1  0  0  0  0
  5 14  2  0  0  0  0
  5  2  1  0  0  0  0
  6  1  2  0  0  0  0
  7  4  2  0  0  0  0
  8 13  1  0  0  0  0
 12 16  1  0  0  0  0
 12  8  2  0  0  0  0
 13  2  2  0  0  0  0
 13 18  1  0  0  0  0
 15 11  1  0  0  0  0
 16  5  1  0  0  0  0
 17  6  1  0  0  0  0
 17 16  2  0  0  0  0
 18 10  1  0  0  0  0
 19 10  1  6  0  0  0
 19 20  1  0  0  0  0
 20 15  1  0  0  0  0
 21  8  1  0  0  0  0
 22 23  2  0  0  0  0
 23 21  1  0  0  0  0
 25 23  1  0  0  0  0
 25 24  1  1  0  0  0
 27 26  1  0  0  0  0
 27 25  1  0  0  0  0
 28 27  2  0  0  0  0
 29 31  2  0  0  0  0
 29 28  1  0  0  0  0
 30 29  1  0  0  0  0
M  END
>  <MODEL>
8

>  <REMARK>
 VINA RESULT:      -5.8      3.873      6.599
  Name = 
  5 active torsions:
  status: ('A' for Active; 'I' for Inactive)
    1  A    between atoms: C_1  and  C_24
    2  A    between atoms: C_9  and  C_22
    3  A    between atoms: C_9  and  C_23
    4  A    between atoms: C_15  and  C_23
    5  A    between atoms: C_19  and  C_22
                            x       y       z     vdW  Elec       q    Type
                         _______ _______ _______ _____ _____    ______ ____

>  <TORSDO>
F 5

$$$$
=
 OpenBabel11052422393D

 31 34  0  0  1  0  0  0  0  0999 V2000
  161.2830  205.8290  153.5790 C   0  0  0  0  0  0  0  0  0  0  0  0
  161.3660  205.9160  149.8470 C   0  0  0  0  0  0  0  0  0  0  0  0
  161.2610  204.4400  149.4800 C   0  0  1  0  0  3  0  0  0  0  0  0
  159.4400  202.6660  149.5820 C   0  0  0  0  0  3  0  0  0  0  0  0
  161.3630  206.3240  151.1980 C   0  0  0  0  0  0  0  0  0  0  0  0
  161.3530  207.1930  153.8710 C   0  0  0  0  0  3  0  0  0  0  0  0
  159.9270  203.8770  149.9130 C   0  0  0  0  0  3  0  0  0  0  0  0
  161.5810  208.2570  149.2000 C   0  0  0  0  0  0  0  0  0  0  0  0
  161.2060  204.9240  154.5840 F   0  0  0  0  0  0  0  0  0  0  0  0
  162.3400  205.1710  147.2760 C   0  0  0  0  0  2  0  0  0  0  0  0
  160.0800  201.6780  148.6370 C   0  0  0  0  0  2  0  0  0  0  0  0
  161.5380  208.6170  150.5100 N   0  0  0  0  0  0  0  0  0  0  0  0
  161.5150  206.8980  148.8400 C   0  0  0  0  0  0  0  0  0  0  0  0
  161.2890  205.3960  152.2500 C   0  0  0  0  0  3  0  0  0  0  0  0
  161.6000  201.6580  148.7410 C   0  0  0  0  0  2  0  0  0  0  0  0
  161.4450  207.7010  151.5050 C   0  0  0  0  0  0  0  0  0  0  0  0
  161.4340  208.1270  152.8370 C   0  0  0  0  0  3  0  0  0  0  0  0
  161.6060  206.4940  147.3970 C   0  0  0  0  0  2  0  0  0  0  0  0
  161.5380  204.1030  148.0010 C   0  0  1  0  0  3  0  0  0  0  0  0
  162.2320  202.7470  147.8700 C   0  0  0  0  0  2  0  0  0  0  0  0
  161.6670  209.3330  148.1640 C   0  0  0  0  0  2  0  0  0  0  0  0
  162.6120  210.7240  149.8090 O   0  0  0  0  0  0  0  0  0  0  0  0
  161.9120  210.6570  148.8100 C   0  0  0  0  0  0  0  0  0  0  0  0
  160.8340  212.8300  149.3560 C   0  0  0  0  0  1  0  0  0  0  0  0
  161.2630  211.8850  148.2460 C   0  0  1  0  0  3  0  0  0  0  0  0
  163.5340  212.5780  147.4870 O   0  0  0  0  0  1  0  0  0  0  0  0
  162.1620  212.5780  147.2640 C   0  0  0  0  0  0  0  0  0  0  0  0
  161.6990  213.1860  146.1660 C   0  0  0  0  0  3  0  0  0  0  0  0
  160.2900  213.2910  145.7440 C   0  0  0  0  0  0  0  0  0  0  0  0
  159.7060  212.2040  144.9170 C   0  0  0  0  0  1  0  0  0  0  0  0
  159.5710  214.2750  146.0630 O   0  0  0  0  0  0  0  0  0  0  0  0
  1  6  1  0  0  0  0
  1  9  1  0  0  0  0
  2  5  1  0  0  0  0
  3  2  1  0  0  0  0
  3  7  1  6  0  0  0
  4  7  2  0  0  0  0
  5 16  2  0  0  0  0
  5 14  1  0  0  0  0
  8 12  2  0  0  0  0
 10 18  1  0  0  0  0
 11 15  1  0  0  0  0
 11  4  1  0  0  0  0
 12 16  1  0  0  0  0
 13  8  1  0  0  0  0
 13  2  2  0  0  0  0
 14  1  2  0  0  0  0
 16 17  1  0  0  0  0
 17  6  2  0  0  0  0
 18 13  1  0  0  0  0
 19 10  1  1  0  0  0
 19  3  1  0  0  0  0
 20 19  1  0  0  0  0
 20 15  1  0  0  0  0
 21 23  1  0  0  0  0
 21  8  1  0  0  0  0
 23 22  2  0  0  0  0
 25 23  1  0  0  0  0
 25 24  1  1  0  0  0
 27 26  1  0  0  0  0
 27 25  1  0  0  0  0
 28 27  2  0  0  0  0
 29 31  2  0  0  0  0
 29 28  1  0  0  0  0
 30 29  1  0  0  0  0
M  END
>  <MODEL>
9

>  <REMARK>
 VINA RESULT:      -5.6      3.746      8.084
  Name = 
  5 active torsions:
  status: ('A' for Active; 'I' for Inactive)
    1  A    between atoms: C_1  and  C_24
    2  A    between atoms: C_9  and  C_22
    3  A    between atoms: C_9  and  C_23
    4  A    between atoms: C_15  and  C_23
    5  A    between atoms: C_19  and  C_22
                            x       y       z     vdW  Elec       q    Type
                         _______ _______ _______ _____ _____    ______ ____

>  <TORSDO>
F 5

$$$$
