=
 OpenBabel11062409163D

 37 41  0  0  1  0  0  0  0  0999 V2000
  161.4090  207.9200  154.8240 C   0  0  0  0  0  2  0  0  0  0  0  0
  157.6860  210.4320  155.5210 C   0  0  0  0  0  3  0  0  0  0  0  0
  160.7880  208.0760  153.5110 N   0  0  0  0  0  0  0  0  0  0  0  0
  158.7100  209.6710  154.9470 C   0  0  0  0  0  0  0  0  0  0  0  0
  158.9080  208.3020  155.5240 C   0  0  0  0  0  2  0  0  0  0  0  0
  159.4240  210.1850  153.8250 C   0  0  0  0  0  0  0  0  0  0  0  0
  158.0370  212.1900  153.9100 C   0  0  0  0  0  3  0  0  0  0  0  0
  160.5200  207.0480  157.0230 C   0  0  0  0  0  2  0  0  0  0  0  0
  160.3550  208.0450  155.9030 C   0  0  0  0  0  0  0  0  0  0  0  0
  159.0580  211.4430  153.3230 C   0  0  0  0  0  3  0  0  0  0  0  0
  160.8140  208.5240  157.2610 C   0  0  0  0  0  2  0  0  0  0  0  0
  160.5750  209.4880  153.1130 C   0  0  1  0  0  3  0  0  0  0  0  0
  157.3490  211.6880  155.0200 C   0  0  0  0  0  0  0  0  0  0  0  0
  156.3240  212.4120  155.6370 O   0  0  0  0  0  0  0  0  0  0  0  0
  155.8370  212.1000  156.9350 C   0  0  0  0  0  1  0  0  0  0  0  0
  161.4160  207.2010  152.5060 C   0  0  1  0  0  3  0  0  0  0  0  0
  161.0950  204.8920  153.0460 O   0  0  0  0  0  1  0  0  0  0  0  0
  162.0080  205.9440  153.1350 C   0  0  0  0  0  2  0  0  0  0  0  0
  160.5020  206.8700  151.3310 C   0  0  0  0  0  2  0  0  0  0  0  0
  161.2270  207.0580  150.0060 C   0  0  0  0  0  2  0  0  0  0  0  0
  160.9440  204.6610  149.7860 C   0  0  0  0  0  3  0  0  0  0  0  0
  161.2840  205.8060  149.1850 C   0  0  0  0  0  0  0  0  0  0  0  0
  161.7100  205.8400  147.7290 C   0  0  0  0  0  2  0  0  0  0  0  0
  162.1290  204.3730  145.4910 S   0  0  0  0  0  0  0  0  0  0  0  0
  161.3140  203.2860  147.8010 C   0  0  0  0  0  3  0  0  0  0  0  0
  161.7000  204.4930  147.0610 C   0  0  0  0  0  0  0  0  0  0  0  0
  160.9590  203.3680  149.0820 C   0  0  0  0  0  3  0  0  0  0  0  0
  161.8180  210.4050  152.9750 C   0  0  1  0  0  3  0  0  0  0  0  0
  162.6570  210.6450  154.1940 C   0  0  0  0  0  0  0  0  0  0  0  0
  163.8720  210.5320  154.1490 O   0  0  0  0  0  0  0  0  0  0  0  0
  161.9970  211.0930  155.4540 C   0  0  0  0  0  2  0  0  0  0  0  0
  162.9050  211.0430  156.5100 O   0  0  0  0  0  1  0  0  0  0  0  0
  162.6230  210.2400  151.6910 C   0  0  0  0  0  2  0  0  0  0  0  0
  161.7430  210.4210  150.4650 C   0  0  0  0  0  2  0  0  0  0  0  0
  161.4570  212.3380  149.0030 C   0  0  0  0  0  2  0  0  0  0  0  0
  162.4120  211.3340  149.4560 C   0  0  2  0  0  3  0  0  0  0  0  0
  161.7490  211.1760  148.1530 N   0  0  0  0  0  2  0  0  0  0  0  0
  1  9  1  0  0  0  0
  3  1  1  0  0  0  0
  4  2  2  0  0  0  0
  4  5  1  0  0  0  0
  5  9  1  0  0  0  0
  6  4  1  0  0  0  0
  7 13  2  0  0  0  0
  8 11  1  0  0  0  0
  9  8  1  0  0  0  0
  9 11  1  0  0  0  0
 10  6  2  0  0  0  0
 10  7  1  0  0  0  0
 12 28  1  1  0  0  0
 12  3  1  0  0  0  0
 12  6  1  0  0  0  0
 13  2  1  0  0  0  0
 13 14  1  0  0  0  0
 14 15  1  0  0  0  0
 16 19  1  6  0  0  0
 16 18  1  0  0  0  0
 16  3  1  0  0  0  0
 17 18  1  0  0  0  0
 20 19  1  0  0  0  0
 22 21  2  0  0  0  0
 22 20  1  0  0  0  0
 23 22  1  0  0  0  0
 24 26  2  0  0  0  0
 25 27  2  0  0  0  0
 26 23  1  0  0  0  0
 26 25  1  0  0  0  0
 27 21  1  0  0  0  0
 28 33  1  6  0  0  0
 28 29  1  0  0  0  0
 29 31  1  0  0  0  0
 30 29  2  0  0  0  0
 31 32  1  0  0  0  0
 34 33  1  0  0  0  0
 35 36  1  0  0  0  0
 36 34  1  1  0  0  0
 37 35  1  0  0  0  0
 37 36  1  0  0  0  0
M  END
>  <MODEL>
1

>  <REMARK>
 VINA RESULT:      -4.9      0.000      0.000
  Name = 
  12 active torsions:
  status: ('A' for Active; 'I' for Inactive)
    1  A    between atoms: C_1  and  C_12
    2  A    between atoms: C_1  and  C_36
    3  A    between atoms: O_3  and  C_32
    4  A    between atoms: C_6  and  C_31
    5  A    between atoms: N_10  and  C_14
    6  A    between atoms: C_14  and  C_27
    7  A    between atoms: C_14  and  C_37
    8  A    between atoms: C_17  and  C_26
    9  A    between atoms: C_17  and  C_33
   10  A    between atoms: C_29  and  C_36
   11  A    between atoms: C_31  and  C_37
   12  A    between atoms: C_33  and  C_36
                            x       y       z     vdW  Elec       q    Type
                         _______ _______ _______ _____ _____    ______ ____

>  <TORSDO>
F 12

$$$$
=
 OpenBabel11062409163D

 37 41  0  0  1  0  0  0  0  0999 V2000
  162.0440  209.0280  154.5790 C   0  0  0  0  0  2  0  0  0  0  0  0
  158.6140  212.0080  154.4740 C   0  0  0  0  0  3  0  0  0  0  0  0
  161.0480  208.4510  153.6800 N   0  0  0  0  0  0  0  0  0  0  0  0
  159.4440  210.9010  154.2670 C   0  0  0  0  0  0  0  0  0  0  0  0
  159.8600  210.1580  155.4990 C   0  0  0  0  0  2  0  0  0  0  0  0
  159.7640  210.5020  152.9360 C   0  0  0  0  0  0  0  0  0  0  0  0
  158.3920  212.3360  152.0970 C   0  0  0  0  0  3  0  0  0  0  0  0
  161.8980  209.8350  156.9710 C   0  0  0  0  0  2  0  0  0  0  0  0
  161.3630  209.9540  155.5650 C   0  0  0  0  0  0  0  0  0  0  0  0
  159.2150  211.2320  151.8710 C   0  0  0  0  0  3  0  0  0  0  0  0
  162.1930  211.0770  156.1400 C   0  0  0  0  0  2  0  0  0  0  0  0
  160.6710  209.3400  152.5550 C   0  0  1  0  0  3  0  0  0  0  0  0
  158.0930  212.7340  153.4040 C   0  0  0  0  0  0  0  0  0  0  0  0
  157.2770  213.8380  153.6660 O   0  0  0  0  0  0  0  0  0  0  0  0
  156.1000  213.7520  154.4580 C   0  0  0  0  0  1  0  0  0  0  0  0
  161.3750  207.0580  153.3300 C   0  0  1  0  0  3  0  0  0  0  0  0
  160.2390  206.5560  155.3750 O   0  0  0  0  0  1  0  0  0  0  0  0
  161.2680  206.1280  154.5350 C   0  0  0  0  0  2  0  0  0  0  0  0
  160.5900  206.5300  152.1350 C   0  0  0  0  0  2  0  0  0  0  0  0
  160.5940  205.0080  152.1090 C   0  0  0  0  0  2  0  0  0  0  0  0
  160.9920  205.3150  149.7380 C   0  0  0  0  0  3  0  0  0  0  0  0
  160.8100  204.4450  150.7370 C   0  0  0  0  0  0  0  0  0  0  0  0
  160.8220  202.9480  150.4950 C   0  0  0  0  0  2  0  0  0  0  0  0
  161.1060  200.9870  148.6480 S   0  0  0  0  0  0  0  0  0  0  0  0
  161.2480  203.5900  148.0270 C   0  0  0  0  0  3  0  0  0  0  0  0
  161.0600  202.5650  149.0610 C   0  0  0  0  0  0  0  0  0  0  0  0
  161.2150  204.8820  148.3480 C   0  0  0  0  0  3  0  0  0  0  0  0
  161.7780  209.7660  151.5550 C   0  0  1  0  0  3  0  0  0  0  0  0
  162.2080  208.7750  150.5150 C   0  0  0  0  0  0  0  0  0  0  0  0
  163.0670  207.9430  150.7630 O   0  0  0  0  0  0  0  0  0  0  0  0
  161.5270  208.7700  149.1890 C   0  0  0  0  0  2  0  0  0  0  0  0
  162.3590  208.1960  148.2300 O   0  0  0  0  0  1  0  0  0  0  0  0
  161.6950  211.2010  151.0480 C   0  0  0  0  0  2  0  0  0  0  0  0
  162.1870  211.3050  149.6140 C   0  0  0  0  0  2  0  0  0  0  0  0
  161.2790  212.1420  147.5240 C   0  0  0  0  0  2  0  0  0  0  0  0
  161.5500  212.4890  148.9140 C   0  0  2  0  0  3  0  0  0  0  0  0
  162.4520  212.9630  147.8540 N   0  0  0  0  0  2  0  0  0  0  0  0
  1  9  1  0  0  0  0
  3  1  1  0  0  0  0
  4  2  1  0  0  0  0
  4  5  1  0  0  0  0
  5  9  1  0  0  0  0
  6  4  2  0  0  0  0
  7 13  1  0  0  0  0
  9 11  1  0  0  0  0
  9  8  1  0  0  0  0
 10  7  2  0  0  0  0
 10  6  1  0  0  0  0
 11  8  1  0  0  0  0
 12 28  1  1  0  0  0
 12  6  1  0  0  0  0
 12  3  1  0  0  0  0
 13 14  1  0  0  0  0
 13  2  2  0  0  0  0
 14 15  1  0  0  0  0
 16 19  1  6  0  0  0
 16  3  1  0  0  0  0
 16 18  1  0  0  0  0
 18 17  1  0  0  0  0
 20 19  1  0  0  0  0
 21 22  2  0  0  0  0
 22 20  1  0  0  0  0
 23 22  1  0  0  0  0
 24 26  2  0  0  0  0
 25 27  2  0  0  0  0
 25 26  1  0  0  0  0
 26 23  1  0  0  0  0
 27 21  1  0  0  0  0
 28 33  1  6  0  0  0
 29 30  2  0  0  0  0
 29 28  1  0  0  0  0
 31 29  1  0  0  0  0
 32 31  1  0  0  0  0
 34 33  1  0  0  0  0
 35 37  1  0  0  0  0
 35 36  1  0  0  0  0
 36 34  1  1  0  0  0
 37 36  1  0  0  0  0
M  END
>  <MODEL>
2

>  <REMARK>
 VINA RESULT:      -4.7      2.020      2.914
  Name = 
  12 active torsions:
  status: ('A' for Active; 'I' for Inactive)
    1  A    between atoms: C_1  and  C_12
    2  A    between atoms: C_1  and  C_36
    3  A    between atoms: O_3  and  C_32
    4  A    between atoms: C_6  and  C_31
    5  A    between atoms: N_10  and  C_14
    6  A    between atoms: C_14  and  C_27
    7  A    between atoms: C_14  and  C_37
    8  A    between atoms: C_17  and  C_26
    9  A    between atoms: C_17  and  C_33
   10  A    between atoms: C_29  and  C_36
   11  A    between atoms: C_31  and  C_37
   12  A    between atoms: C_33  and  C_36
                            x       y       z     vdW  Elec       q    Type
                         _______ _______ _______ _____ _____    ______ ____

>  <TORSDO>
F 12

$$$$
=
 OpenBabel11062409163D

 37 41  0  0  1  0  0  0  0  0999 V2000
  161.8280  209.9390  154.3760 C   0  0  0  0  0  2  0  0  0  0  0  0
  157.8580  211.1260  156.2450 C   0  0  0  0  0  3  0  0  0  0  0  0
  160.8070  209.2120  153.6270 N   0  0  0  0  0  0  0  0  0  0  0  0
  158.8540  210.5520  155.4470 C   0  0  0  0  0  0  0  0  0  0  0  0
  159.9230  209.8000  156.1780 C   0  0  0  0  0  2  0  0  0  0  0  0
  158.7520  210.6350  154.0270 C   0  0  0  0  0  0  0  0  0  0  0  0
  156.6540  211.8520  154.2880 C   0  0  0  0  0  3  0  0  0  0  0  0
  162.3550  210.0500  156.8460 C   0  0  0  0  0  2  0  0  0  0  0  0
  161.3160  210.2420  155.7690 C   0  0  0  0  0  0  0  0  0  0  0  0
  157.6350  211.2820  153.4760 C   0  0  0  0  0  3  0  0  0  0  0  0
  161.8950  211.4510  156.4660 C   0  0  0  0  0  2  0  0  0  0  0  0
  159.7650  210.0840  153.0340 C   0  0  1  0  0  3  0  0  0  0  0  0
  156.7660  211.7830  155.6800 C   0  0  0  0  0  0  0  0  0  0  0  0
  155.8040  212.3470  156.5230 O   0  0  0  0  0  0  0  0  0  0  0  0
  155.3370  213.6810  156.3710 C   0  0  0  0  0  1  0  0  0  0  0  0
  161.4030  208.2050  152.7320 C   0  0  1  0  0  3  0  0  0  0  0  0
  160.9430  206.4220  154.2580 O   0  0  0  0  0  1  0  0  0  0  0  0
  161.9580  207.0130  153.5050 C   0  0  0  0  0  2  0  0  0  0  0  0
  160.4760  207.7670  151.6040 C   0  0  0  0  0  2  0  0  0  0  0  0
  161.2470  207.5780  150.3060 C   0  0  0  0  0  2  0  0  0  0  0  0
  160.8790  205.2080  150.6580 C   0  0  0  0  0  3  0  0  0  0  0  0
  161.1840  206.1740  149.7840 C   0  0  0  0  0  0  0  0  0  0  0  0
  161.4530  205.8650  148.3240 C   0  0  0  0  0  2  0  0  0  0  0  0
  161.5930  203.9220  146.4410 S   0  0  0  0  0  0  0  0  0  0  0  0
  161.0000  203.4120  149.0050 C   0  0  0  0  0  3  0  0  0  0  0  0
  161.3370  204.4070  147.9790 C   0  0  0  0  0  0  0  0  0  0  0  0
  160.7860  203.7920  150.2630 C   0  0  0  0  0  3  0  0  0  0  0  0
  160.2060  211.1500  151.9970 C   0  0  1  0  0  3  0  0  0  0  0  0
  159.8000  212.5740  152.2330 C   0  0  0  0  0  0  0  0  0  0  0  0
  160.0750  213.1370  153.2830 O   0  0  0  0  0  0  0  0  0  0  0  0
  159.1140  213.3260  151.1440 C   0  0  0  0  0  2  0  0  0  0  0  0
  159.8600  214.4530  150.8010 O   0  0  0  0  0  1  0  0  0  0  0  0
  161.6170  210.9910  151.4420 C   0  0  0  0  0  2  0  0  0  0  0  0
  161.5960  210.8210  149.9320 C   0  0  0  0  0  2  0  0  0  0  0  0
  161.2710  212.2070  147.9660 C   0  0  0  0  0  2  0  0  0  0  0  0
  161.9690  212.1180  149.2420 C   0  0  2  0  0  3  0  0  0  0  0  0
  162.6850  211.8100  147.9950 N   0  0  0  0  0  2  0  0  0  0  0  0
  1  9  1  0  0  0  0
  3  1  1  0  0  0  0
  4  5  1  0  0  0  0
  4  2  2  0  0  0  0
  6  4  1  0  0  0  0
  7 13  2  0  0  0  0
  9  5  1  0  0  0  0
  9 11  1  0  0  0  0
  9  8  1  0  0  0  0
 10  6  2  0  0  0  0
 10  7  1  0  0  0  0
 11  8  1  0  0  0  0
 12 28  1  1  0  0  0
 12  3  1  0  0  0  0
 12  6  1  0  0  0  0
 13  2  1  0  0  0  0
 13 14  1  0  0  0  0
 15 14  1  0  0  0  0
 16 19  1  6  0  0  0
 16 18  1  0  0  0  0
 16  3  1  0  0  0  0
 18 17  1  0  0  0  0
 20 19  1  0  0  0  0
 22 20  1  0  0  0  0
 22 21  2  0  0  0  0
 23 22  1  0  0  0  0
 24 26  2  0  0  0  0
 25 27  2  0  0  0  0
 26 23  1  0  0  0  0
 26 25  1  0  0  0  0
 27 21  1  0  0  0  0
 28 33  1  1  0  0  0
 28 29  1  0  0  0  0
 29 30  2  0  0  0  0
 31 29  1  0  0  0  0
 32 31  1  0  0  0  0
 34 33  1  0  0  0  0
 35 37  1  0  0  0  0
 35 36  1  0  0  0  0
 36 34  1  1  0  0  0
 37 36  1  0  0  0  0
M  END
>  <MODEL>
3

>  <REMARK>
 VINA RESULT:      -4.5      1.754      2.316
  Name = 
  12 active torsions:
  status: ('A' for Active; 'I' for Inactive)
    1  A    between atoms: C_1  and  C_12
    2  A    between atoms: C_1  and  C_36
    3  A    between atoms: O_3  and  C_32
    4  A    between atoms: C_6  and  C_31
    5  A    between atoms: N_10  and  C_14
    6  A    between atoms: C_14  and  C_27
    7  A    between atoms: C_14  and  C_37
    8  A    between atoms: C_17  and  C_26
    9  A    between atoms: C_17  and  C_33
   10  A    between atoms: C_29  and  C_36
   11  A    between atoms: C_31  and  C_37
   12  A    between atoms: C_33  and  C_36
                            x       y       z     vdW  Elec       q    Type
                         _______ _______ _______ _____ _____    ______ ____

>  <TORSDO>
F 12

$$$$
=
 OpenBabel11062409163D

 37 41  0  0  1  0  0  0  0  0999 V2000
  162.0700  209.3810  154.3900 C   0  0  0  0  0  2  0  0  0  0  0  0
  158.2450  211.0160  156.2200 C   0  0  0  0  0  3  0  0  0  0  0  0
  160.9870  208.8890  153.5430 N   0  0  0  0  0  0  0  0  0  0  0  0
  159.1770  210.3620  155.4080 C   0  0  0  0  0  0  0  0  0  0  0  0
  160.0830  209.3920  156.1050 C   0  0  0  0  0  2  0  0  0  0  0  0
  159.1580  210.5780  153.9990 C   0  0  0  0  0  0  0  0  0  0  0  0
  157.2610  212.0840  154.2970 C   0  0  0  0  0  3  0  0  0  0  0  0
  162.4880  209.2000  156.8770 C   0  0  0  0  0  2  0  0  0  0  0  0
  161.5450  209.6430  155.7860 C   0  0  0  0  0  0  0  0  0  0  0  0
  158.1820  211.4370  153.4710 C   0  0  0  0  0  3  0  0  0  0  0  0
  162.2680  210.6830  156.6090 C   0  0  0  0  0  2  0  0  0  0  0  0
  160.1210  209.9610  152.9960 C   0  0  1  0  0  3  0  0  0  0  0  0
  157.2940  211.8810  155.6800 C   0  0  0  0  0  0  0  0  0  0  0  0
  156.3910  212.5160  156.5370 O   0  0  0  0  0  0  0  0  0  0  0  0
  155.1490  211.9360  156.9120 C   0  0  0  0  0  1  0  0  0  0  0  0
  161.4650  207.8800  152.5820 C   0  0  1  0  0  3  0  0  0  0  0  0
  160.9010  206.0870  154.0620 O   0  0  0  0  0  1  0  0  0  0  0  0
  161.9320  206.6060  153.2790 C   0  0  0  0  0  2  0  0  0  0  0  0
  160.4690  207.5820  151.4670 C   0  0  0  0  0  2  0  0  0  0  0  0
  161.1720  207.4810  150.1200 C   0  0  0  0  0  2  0  0  0  0  0  0
  161.4510  205.9450  148.2660 C   0  0  0  0  0  3  0  0  0  0  0  0
  161.1870  206.0870  149.5690 C   0  0  0  0  0  0  0  0  0  0  0  0
  160.9150  204.8880  150.4580 C   0  0  0  0  0  2  0  0  0  0  0  0
  160.7160  202.1890  150.5660 S   0  0  0  0  0  0  0  0  0  0  0  0
  161.2750  203.5080  148.3010 C   0  0  0  0  0  3  0  0  0  0  0  0
  160.9810  203.5700  149.7380 C   0  0  0  0  0  0  0  0  0  0  0  0
  161.4950  204.6260  147.6120 C   0  0  0  0  0  3  0  0  0  0  0  0
  160.7700  211.0280  152.0750 C   0  0  1  0  0  3  0  0  0  0  0  0
  161.9600  210.6240  151.2570 C   0  0  0  0  0  0  0  0  0  0  0  0
  163.0310  210.3800  151.7900 O   0  0  0  0  0  0  0  0  0  0  0  0
  161.8060  210.4560  149.7840 C   0  0  0  0  0  2  0  0  0  0  0  0
  162.3700  211.5450  149.1200 O   0  0  0  0  0  1  0  0  0  0  0  0
  159.8010  211.9520  151.3470 C   0  0  0  0  0  2  0  0  0  0  0  0
  160.2850  213.3930  151.3840 C   0  0  0  0  0  2  0  0  0  0  0  0
  158.3700  213.5870  149.9050 C   0  0  0  0  0  2  0  0  0  0  0  0
  159.2300  214.3250  150.8210 C   0  0  2  0  0  3  0  0  0  0  0  0
  159.4290  214.4530  149.3700 N   0  0  0  0  0  2  0  0  0  0  0  0
  1  9  1  0  0  0  0
  3  1  1  0  0  0  0
  4  5  1  0  0  0  0
  4  2  2  0  0  0  0
  6  4  1  0  0  0  0
  7 13  2  0  0  0  0
  9  5  1  0  0  0  0
  9 11  1  0  0  0  0
  9  8  1  0  0  0  0
 10  6  2  0  0  0  0
 10  7  1  0  0  0  0
 11  8  1  0  0  0  0
 12 28  1  1  0  0  0
 12  3  1  0  0  0  0
 12  6  1  0  0  0  0
 13  2  1  0  0  0  0
 13 14  1  0  0  0  0
 14 15  1  0  0  0  0
 16 19  1  6  0  0  0
 16 18  1  0  0  0  0
 16  3  1  0  0  0  0
 18 17  1  0  0  0  0
 20 19  1  0  0  0  0
 21 22  2  0  0  0  0
 22 20  1  0  0  0  0
 22 23  1  0  0  0  0
 25 26  1  0  0  0  0
 26 23  1  0  0  0  0
 26 24  2  0  0  0  0
 27 21  1  0  0  0  0
 27 25  2  0  0  0  0
 28 33  1  6  0  0  0
 29 30  2  0  0  0  0
 29 28  1  0  0  0  0
 31 29  1  0  0  0  0
 32 31  1  0  0  0  0
 33 34  1  0  0  0  0
 35 36  1  0  0  0  0
 36 34  1  1  0  0  0
 37 35  1  0  0  0  0
 37 36  1  0  0  0  0
M  END
>  <MODEL>
4

>  <REMARK>
 VINA RESULT:      -4.2      2.013      2.721
  Name = 
  12 active torsions:
  status: ('A' for Active; 'I' for Inactive)
    1  A    between atoms: C_1  and  C_12
    2  A    between atoms: C_1  and  C_36
    3  A    between atoms: O_3  and  C_32
    4  A    between atoms: C_6  and  C_31
    5  A    between atoms: N_10  and  C_14
    6  A    between atoms: C_14  and  C_27
    7  A    between atoms: C_14  and  C_37
    8  A    between atoms: C_17  and  C_26
    9  A    between atoms: C_17  and  C_33
   10  A    between atoms: C_29  and  C_36
   11  A    between atoms: C_31  and  C_37
   12  A    between atoms: C_33  and  C_36
                            x       y       z     vdW  Elec       q    Type
                         _______ _______ _______ _____ _____    ______ ____

>  <TORSDO>
F 12

$$$$
=
 OpenBabel11062409163D

 37 41  0  0  1  0  0  0  0  0999 V2000
  160.8360  211.3070  152.2630 C   0  0  0  0  0  2  0  0  0  0  0  0
  161.3840  206.8010  152.0420 C   0  0  0  0  0  3  0  0  0  0  0  0
  159.6100  210.7340  152.8130 N   0  0  0  0  0  0  0  0  0  0  0  0
  160.8800  208.0870  152.2600 C   0  0  0  0  0  0  0  0  0  0  0  0
  160.8160  208.9760  151.0560 C   0  0  0  0  0  2  0  0  0  0  0  0
  160.3900  208.4420  153.5520 C   0  0  0  0  0  0  0  0  0  0  0  0
  160.9250  206.1920  154.3280 C   0  0  0  0  0  3  0  0  0  0  0  0
  162.0170  210.9700  150.0540 C   0  0  0  0  0  2  0  0  0  0  0  0
  161.4690  210.3240  151.3030 C   0  0  0  0  0  0  0  0  0  0  0  0
  160.4160  207.4690  154.5630 C   0  0  0  0  0  3  0  0  0  0  0  0
  162.9650  210.4170  151.1100 C   0  0  0  0  0  2  0  0  0  0  0  0
  159.8390  209.8050  153.9460 C   0  0  1  0  0  3  0  0  0  0  0  0
  161.4190  205.8540  153.0640 C   0  0  0  0  0  0  0  0  0  0  0  0
  161.9410  204.5850  152.7960 O   0  0  0  0  0  0  0  0  0  0  0  0
  161.5870  203.8380  151.6400 C   0  0  0  0  0  1  0  0  0  0  0  0
  158.5710  211.7600  153.0100 C   0  0  1  0  0  3  0  0  0  0  0  0
  157.0540  212.4990  154.7060 O   0  0  0  0  0  1  0  0  0  0  0  0
  157.5720  211.3590  154.0910 C   0  0  0  0  0  2  0  0  0  0  0  0
  159.1330  213.1570  153.2490 C   0  0  0  0  0  2  0  0  0  0  0  0
  158.4090  214.1890  152.3960 C   0  0  0  0  0  2  0  0  0  0  0  0
  157.4360  213.5790  150.2610 C   0  0  0  0  0  3  0  0  0  0  0  0
  158.5420  213.9340  150.9250 C   0  0  0  0  0  0  0  0  0  0  0  0
  159.8780  214.0740  150.2210 C   0  0  0  0  0  2  0  0  0  0  0  0
  161.1820  213.9040  147.8530 S   0  0  0  0  0  0  0  0  0  0  0  0
  158.5610  213.4020  148.1000 C   0  0  0  0  0  3  0  0  0  0  0  0
  159.8210  213.7880  148.7460 C   0  0  0  0  0  0  0  0  0  0  0  0
  157.4420  213.3050  148.8140 C   0  0  0  0  0  3  0  0  0  0  0  0
  160.5190  210.3620  155.2240 C   0  0  1  0  0  3  0  0  0  0  0  0
  159.8900  210.0510  156.5500 C   0  0  0  0  0  0  0  0  0  0  0  0
  160.0540  208.9630  157.0800 O   0  0  0  0  0  0  0  0  0  0  0  0
  159.1130  211.1120  157.2530 C   0  0  0  0  0  2  0  0  0  0  0  0
  159.5300  212.3710  156.8230 O   0  0  0  0  0  1  0  0  0  0  0  0
  162.0420  210.3220  155.2360 C   0  0  0  0  0  2  0  0  0  0  0  0
  162.6030  211.1400  156.3880 C   0  0  0  0  0  2  0  0  0  0  0  0
  164.7590  211.8390  157.2570 C   0  0  0  0  0  2  0  0  0  0  0  0
  164.0210  210.7080  156.7090 C   0  0  2  0  0  3  0  0  0  0  0  0
  164.9550  211.4540  155.8530 N   0  0  0  0  0  2  0  0  0  0  0  0
  1  3  1  0  0  0  0
  2  4  2  0  0  0  0
  2 13  1  0  0  0  0
  3 16  1  0  0  0  0
  3 12  1  0  0  0  0
  4  6  1  0  0  0  0
  5  9  1  0  0  0  0
  5  4  1  0  0  0  0
  6 12  1  0  0  0  0
  6 10  2  0  0  0  0
  7 10  1  0  0  0  0
  8 11  1  0  0  0  0
  8  9  1  0  0  0  0
  9  1  1  0  0  0  0
 11  9  1  0  0  0  0
 12 28  1  1  0  0  0
 13  7  2  0  0  0  0
 14 13  1  0  0  0  0
 15 14  1  0  0  0  0
 16 19  1  1  0  0  0
 16 18  1  0  0  0  0
 18 17  1  0  0  0  0
 20 19  1  0  0  0  0
 21 22  2  0  0  0  0
 22 20  1  0  0  0  0
 23 22  1  0  0  0  0
 24 26  2  0  0  0  0
 25 26  1  0  0  0  0
 25 27  2  0  0  0  0
 26 23  1  0  0  0  0
 27 21  1  0  0  0  0
 28 33  1  1  0  0  0
 28 29  1  0  0  0  0
 29 30  2  0  0  0  0
 29 31  1  0  0  0  0
 32 31  1  0  0  0  0
 33 34  1  0  0  0  0
 36 34  1  6  0  0  0
 36 35  1  0  0  0  0
 37 36  1  0  0  0  0
 37 35  1  0  0  0  0
M  END
>  <MODEL>
5

>  <REMARK>
 VINA RESULT:      -3.4      2.866      7.063
  Name = 
  12 active torsions:
  status: ('A' for Active; 'I' for Inactive)
    1  A    between atoms: C_1  and  C_12
    2  A    between atoms: C_1  and  C_36
    3  A    between atoms: O_3  and  C_32
    4  A    between atoms: C_6  and  C_31
    5  A    between atoms: N_10  and  C_14
    6  A    between atoms: C_14  and  C_27
    7  A    between atoms: C_14  and  C_37
    8  A    between atoms: C_17  and  C_26
    9  A    between atoms: C_17  and  C_33
   10  A    between atoms: C_29  and  C_36
   11  A    between atoms: C_31  and  C_37
   12  A    between atoms: C_33  and  C_36
                            x       y       z     vdW  Elec       q    Type
                         _______ _______ _______ _____ _____    ______ ____

>  <TORSDO>
F 12

$$$$
=
 OpenBabel11062409163D

 37 41  0  0  1  0  0  0  0  0999 V2000
  160.8710  211.3700  152.1530 C   0  0  0  0  0  2  0  0  0  0  0  0
  161.3130  206.8460  152.1470 C   0  0  0  0  0  3  0  0  0  0  0  0
  159.6370  210.8530  152.7380 N   0  0  0  0  0  0  0  0  0  0  0  0
  160.8410  208.1540  152.3060 C   0  0  0  0  0  0  0  0  0  0  0  0
  160.7880  208.9840  151.0600 C   0  0  0  0  0  2  0  0  0  0  0  0
  160.3700  208.5820  153.5820 C   0  0  0  0  0  0  0  0  0  0  0  0
  160.8580  206.3600  154.4640 C   0  0  0  0  0  3  0  0  0  0  0  0
  162.0260  210.8980  149.9540 C   0  0  0  0  0  2  0  0  0  0  0  0
  161.4740  210.3260  151.2370 C   0  0  0  0  0  0  0  0  0  0  0  0
  160.3810  207.6590  154.6390 C   0  0  0  0  0  3  0  0  0  0  0  0
  162.9700  210.3750  151.0290 C   0  0  0  0  0  2  0  0  0  0  0  0
  159.8540  209.9750  153.9130 C   0  0  1  0  0  3  0  0  0  0  0  0
  161.3350  205.9500  153.2140 C   0  0  0  0  0  0  0  0  0  0  0  0
  161.8250  204.6570  153.0040 O   0  0  0  0  0  0  0  0  0  0  0  0
  161.8390  204.0390  151.7250 C   0  0  0  0  0  1  0  0  0  0  0  0
  158.6240  211.9110  152.8920 C   0  0  1  0  0  3  0  0  0  0  0  0
  156.5320  212.3990  153.9460 O   0  0  0  0  0  1  0  0  0  0  0  0
  157.7010  211.6480  154.0780 C   0  0  0  0  0  2  0  0  0  0  0  0
  159.2130  213.3170  152.9340 C   0  0  0  0  0  2  0  0  0  0  0  0
  158.3940  214.2770  152.0840 C   0  0  0  0  0  2  0  0  0  0  0  0
  157.2150  213.5640  150.0900 C   0  0  0  0  0  3  0  0  0  0  0  0
  158.3870  213.9150  150.6290 C   0  0  0  0  0  0  0  0  0  0  0  0
  159.6600  213.9470  149.8050 C   0  0  0  0  0  2  0  0  0  0  0  0
  160.7420  213.5560  147.3530 S   0  0  0  0  0  0  0  0  0  0  0  0
  158.1360  213.1870  147.8590 C   0  0  0  0  0  3  0  0  0  0  0  0
  159.4620  213.5620  148.3660 C   0  0  0  0  0  0  0  0  0  0  0  0
  157.0820  213.1880  148.6720 C   0  0  0  0  0  3  0  0  0  0  0  0
  160.5560  210.5770  155.1580 C   0  0  1  0  0  3  0  0  0  0  0  0
  161.9990  210.2390  155.3870 C   0  0  0  0  0  0  0  0  0  0  0  0
  162.8110  210.3190  154.4790 O   0  0  0  0  0  0  0  0  0  0  0  0
  162.4490  209.8660  156.7580 C   0  0  0  0  0  2  0  0  0  0  0  0
  161.6730  208.8150  157.2450 O   0  0  0  0  0  1  0  0  0  0  0  0
  160.1980  212.0220  155.4860 C   0  0  0  0  0  2  0  0  0  0  0  0
  159.3470  212.1050  156.7420 C   0  0  0  0  0  2  0  0  0  0  0  0
  158.1520  214.2090  156.5490 C   0  0  0  0  0  2  0  0  0  0  0  0
  159.2520  213.5370  157.2300 C   0  0  2  0  0  3  0  0  0  0  0  0
  159.5330  214.4450  156.1090 N   0  0  0  0  0  2  0  0  0  0  0  0
  1  3  1  0  0  0  0
  2  4  2  0  0  0  0
  2 13  1  0  0  0  0
  3 16  1  0  0  0  0
  3 12  1  0  0  0  0
  4  6  1  0  0  0  0
  5  9  1  0  0  0  0
  5  4  1  0  0  0  0
  6 12  1  0  0  0  0
  6 10  2  0  0  0  0
  7 10  1  0  0  0  0
  8 11  1  0  0  0  0
  8  9  1  0  0  0  0
  9  1  1  0  0  0  0
 11  9  1  0  0  0  0
 12 28  1  1  0  0  0
 13  7  2  0  0  0  0
 14 13  1  0  0  0  0
 15 14  1  0  0  0  0
 16 19  1  1  0  0  0
 16 18  1  0  0  0  0
 17 18  1  0  0  0  0
 20 19  1  0  0  0  0
 21 22  2  0  0  0  0
 22 20  1  0  0  0  0
 23 22  1  0  0  0  0
 24 26  2  0  0  0  0
 25 26  1  0  0  0  0
 25 27  2  0  0  0  0
 26 23  1  0  0  0  0
 27 21  1  0  0  0  0
 28 29  1  0  0  0  0
 28 33  1  6  0  0  0
 29 31  1  0  0  0  0
 30 29  2  0  0  0  0
 31 32  1  0  0  0  0
 33 34  1  0  0  0  0
 35 36  1  0  0  0  0
 36 34  1  6  0  0  0
 37 35  1  0  0  0  0
 37 36  1  0  0  0  0
M  END
>  <MODEL>
6

>  <REMARK>
 VINA RESULT:      -2.5      2.884      7.011
  Name = 
  12 active torsions:
  status: ('A' for Active; 'I' for Inactive)
    1  A    between atoms: C_1  and  C_12
    2  A    between atoms: C_1  and  C_36
    3  A    between atoms: O_3  and  C_32
    4  A    between atoms: C_6  and  C_31
    5  A    between atoms: N_10  and  C_14
    6  A    between atoms: C_14  and  C_27
    7  A    between atoms: C_14  and  C_37
    8  A    between atoms: C_17  and  C_26
    9  A    between atoms: C_17  and  C_33
   10  A    between atoms: C_29  and  C_36
   11  A    between atoms: C_31  and  C_37
   12  A    between atoms: C_33  and  C_36
                            x       y       z     vdW  Elec       q    Type
                         _______ _______ _______ _____ _____    ______ ____

>  <TORSDO>
F 12

$$$$
=
 OpenBabel11062409163D

 37 41  0  0  1  0  0  0  0  0999 V2000
  160.9490  211.9830  151.1080 C   0  0  0  0  0  2  0  0  0  0  0  0
  161.4100  207.4680  151.3570 C   0  0  0  0  0  3  0  0  0  0  0  0
  159.6900  211.4890  151.6600 N   0  0  0  0  0  0  0  0  0  0  0  0
  160.9250  208.7790  151.4250 C   0  0  0  0  0  0  0  0  0  0  0  0
  160.9290  209.5440  150.1370 C   0  0  0  0  0  2  0  0  0  0  0  0
  160.3910  209.2680  152.6530 C   0  0  0  0  0  0  0  0  0  0  0  0
  160.8460  207.0980  153.6700 C   0  0  0  0  0  3  0  0  0  0  0  0
  162.2110  211.4080  148.9950 C   0  0  0  0  0  2  0  0  0  0  0  0
  161.6000  210.8980  150.2770 C   0  0  0  0  0  0  0  0  0  0  0  0
  160.3550  208.4010  153.7560 C   0  0  0  0  0  3  0  0  0  0  0  0
  163.1040  210.9470  150.1400 C   0  0  0  0  0  2  0  0  0  0  0  0
  159.8530  210.6730  152.8870 C   0  0  1  0  0  3  0  0  0  0  0  0
  161.3830  206.6280  152.4680 C   0  0  0  0  0  0  0  0  0  0  0  0
  161.8890  205.3300  152.3490 O   0  0  0  0  0  0  0  0  0  0  0  0
  161.0560  204.1970  152.1440 C   0  0  0  0  0  1  0  0  0  0  0  0
  158.6660  212.5470  151.7100 C   0  0  1  0  0  3  0  0  0  0  0  0
  158.7410  214.4530  153.1530 O   0  0  0  0  0  1  0  0  0  0  0  0
  159.2770  213.9180  151.9810 C   0  0  0  0  0  2  0  0  0  0  0  0
  157.7500  212.5660  150.4910 C   0  0  0  0  0  2  0  0  0  0  0  0
  158.0530  213.7610  149.5990 C   0  0  0  0  0  2  0  0  0  0  0  0
  157.2020  213.0440  147.4460 C   0  0  0  0  0  3  0  0  0  0  0  0
  158.2770  213.3830  148.1660 C   0  0  0  0  0  0  0  0  0  0  0  0
  159.6670  213.3880  147.5600 C   0  0  0  0  0  2  0  0  0  0  0  0
  161.1280  212.9560  145.3200 S   0  0  0  0  0  0  0  0  0  0  0  0
  158.4690  212.6300  145.3980 C   0  0  0  0  0  3  0  0  0  0  0  0
  159.7010  212.9910  146.1110 C   0  0  0  0  0  0  0  0  0  0  0  0
  157.2960  212.6560  146.0280 C   0  0  0  0  0  3  0  0  0  0  0  0
  160.4920  211.3430  154.1320 C   0  0  1  0  0  3  0  0  0  0  0  0
  159.5810  211.8020  155.2310 C   0  0  0  0  0  0  0  0  0  0  0  0
  159.8360  212.8080  155.8760 O   0  0  0  0  0  0  0  0  0  0  0  0
  158.3170  211.0540  155.4880 C   0  0  0  0  0  2  0  0  0  0  0  0
  157.2210  211.8290  155.1140 O   0  0  0  0  0  1  0  0  0  0  0  0
  161.7940  210.7220  154.6240 C   0  0  0  0  0  2  0  0  0  0  0  0
  161.6170  210.0940  155.9960 C   0  0  0  0  0  2  0  0  0  0  0  0
  163.7820  211.1200  156.3860 C   0  0  0  0  0  2  0  0  0  0  0  0
  162.5140  210.7710  157.0140 C   0  0  2  0  0  3  0  0  0  0  0  0
  163.6980  209.9310  157.2450 N   0  0  0  0  0  2  0  0  0  0  0  0
  1  3  1  0  0  0  0
  2  4  2  0  0  0  0
  2 13  1  0  0  0  0
  3 16  1  0  0  0  0
  3 12  1  0  0  0  0
  4  6  1  0  0  0  0
  5  9  1  0  0  0  0
  5  4  1  0  0  0  0
  6 12  1  0  0  0  0
  6 10  2  0  0  0  0
  7 10  1  0  0  0  0
  8 11  1  0  0  0  0
  8  9  1  0  0  0  0
  9  1  1  0  0  0  0
 11  9  1  0  0  0  0
 12 28  1  1  0  0  0
 13  7  2  0  0  0  0
 14 13  1  0  0  0  0
 15 14  1  0  0  0  0
 16 19  1  6  0  0  0
 16 18  1  0  0  0  0
 18 17  1  0  0  0  0
 20 19  1  0  0  0  0
 21 22  2  0  0  0  0
 22 20  1  0  0  0  0
 23 22  1  0  0  0  0
 24 26  2  0  0  0  0
 25 27  2  0  0  0  0
 25 26  1  0  0  0  0
 26 23  1  0  0  0  0
 27 21  1  0  0  0  0
 28 33  1  1  0  0  0
 28 29  1  0  0  0  0
 29 31  1  0  0  0  0
 29 30  2  0  0  0  0
 32 31  1  0  0  0  0
 33 34  1  0  0  0  0
 35 36  1  0  0  0  0
 35 37  1  0  0  0  0
 36 34  1  6  0  0  0
 36 37  1  0  0  0  0
M  END
>  <MODEL>
7

>  <REMARK>
 VINA RESULT:      -2.4      2.953      7.072
  Name = 
  12 active torsions:
  status: ('A' for Active; 'I' for Inactive)
    1  A    between atoms: C_1  and  C_12
    2  A    between atoms: C_1  and  C_36
    3  A    between atoms: O_3  and  C_32
    4  A    between atoms: C_6  and  C_31
    5  A    between atoms: N_10  and  C_14
    6  A    between atoms: C_14  and  C_27
    7  A    between atoms: C_14  and  C_37
    8  A    between atoms: C_17  and  C_26
    9  A    between atoms: C_17  and  C_33
   10  A    between atoms: C_29  and  C_36
   11  A    between atoms: C_31  and  C_37
   12  A    between atoms: C_33  and  C_36
                            x       y       z     vdW  Elec       q    Type
                         _______ _______ _______ _____ _____    ______ ____

>  <TORSDO>
F 12

$$$$
=
 OpenBabel11062409163D

 37 41  0  0  1  0  0  0  0  0999 V2000
  160.2050  209.4850  152.7730 C   0  0  0  0  0  2  0  0  0  0  0  0
  162.4340  211.3720  149.2910 C   0  0  0  0  0  3  0  0  0  0  0  0
  160.5770  210.8240  153.2230 N   0  0  0  0  0  0  0  0  0  0  0  0
  161.8210  211.1280  150.5240 C   0  0  0  0  0  0  0  0  0  0  0  0
  162.3120  209.9240  151.2690 C   0  0  0  0  0  2  0  0  0  0  0  0
  160.8610  212.0530  151.0280 C   0  0  0  0  0  0  0  0  0  0  0  0
  161.1930  213.4230  149.0370 C   0  0  0  0  0  3  0  0  0  0  0  0
  161.5720  207.5710  151.8490 C   0  0  0  0  0  2  0  0  0  0  0  0
  161.1750  209.0200  151.7080 C   0  0  0  0  0  0  0  0  0  0  0  0
  160.5750  213.1970  150.2670 C   0  0  0  0  0  3  0  0  0  0  0  0
  160.6640  208.0090  150.7070 C   0  0  0  0  0  2  0  0  0  0  0  0
  160.0950  211.9100  152.3360 C   0  0  1  0  0  3  0  0  0  0  0  0
  162.1230  212.5040  148.5390 C   0  0  0  0  0  0  0  0  0  0  0  0
  162.7580  212.6970  147.3080 O   0  0  0  0  0  0  0  0  0  0  0  0
  162.0870  213.2240  146.1720 C   0  0  0  0  0  1  0  0  0  0  0  0
  160.3310  211.0010  154.6650 C   0  0  1  0  0  3  0  0  0  0  0  0
  160.8280  209.0950  156.0240 O   0  0  0  0  0  1  0  0  0  0  0  0
  161.3710  210.2750  155.5130 C   0  0  0  0  0  2  0  0  0  0  0  0
  160.1780  212.4590  155.0820 C   0  0  0  0  0  2  0  0  0  0  0  0
  159.8260  212.5700  156.5580 C   0  0  0  0  0  2  0  0  0  0  0  0
  157.9690  214.0870  156.9130 C   0  0  0  0  0  3  0  0  0  0  0  0
  158.3660  212.8160  156.7970 C   0  0  0  0  0  0  0  0  0  0  0  0
  157.3830  211.6660  156.9020 C   0  0  0  0  0  2  0  0  0  0  0  0
  154.7890  210.9720  157.2610 S   0  0  0  0  0  0  0  0  0  0  0  0
  155.6160  213.5210  157.2510 C   0  0  0  0  0  3  0  0  0  0  0  0
  155.9620  212.0990  157.1330 C   0  0  0  0  0  0  0  0  0  0  0  0
  156.5620  214.4530  157.1470 C   0  0  0  0  0  3  0  0  0  0  0  0
  158.5650  212.0670  152.1370 C   0  0  1  0  0  3  0  0  0  0  0  0
  157.8340  213.0320  153.0220 C   0  0  0  0  0  0  0  0  0  0  0  0
  158.2930  214.1400  153.2520 O   0  0  0  0  0  0  0  0  0  0  0  0
  156.5000  212.6510  153.5680 C   0  0  0  0  0  2  0  0  0  0  0  0
  155.5560  213.6210  153.2360 O   0  0  0  0  0  1  0  0  0  0  0  0
  158.0800  212.0620  150.6920 C   0  0  0  0  0  2  0  0  0  0  0  0
  157.3670  213.3600  150.3480 C   0  0  0  0  0  2  0  0  0  0  0  0
  157.0420  214.3790  148.1690 C   0  0  0  0  0  2  0  0  0  0  0  0
  156.6680  213.2470  149.0080 C   0  0  2  0  0  3  0  0  0  0  0  0
  155.7420  214.3780  148.8530 N   0  0  0  0  0  2  0  0  0  0  0  0
  1  3  1  0  0  0  0
  2  4  1  0  0  0  0
  3 16  1  0  0  0  0
  4  6  2  0  0  0  0
  4  5  1  0  0  0  0
  5  9  1  0  0  0  0
  6 12  1  0  0  0  0
  7 10  2  0  0  0  0
  9  8  1  0  0  0  0
  9  1  1  0  0  0  0
 10  6  1  0  0  0  0
 11  9  1  0  0  0  0
 11  8  1  0  0  0  0
 12 28  1  6  0  0  0
 12  3  1  0  0  0  0
 13  7  1  0  0  0  0
 13  2  2  0  0  0  0
 14 13  1  0  0  0  0
 15 14  1  0  0  0  0
 16 19  1  6  0  0  0
 16 18  1  0  0  0  0
 18 17  1  0  0  0  0
 19 20  1  0  0  0  0
 20 22  1  0  0  0  0
 21 27  1  0  0  0  0
 22 23  1  0  0  0  0
 22 21  2  0  0  0  0
 23 26  1  0  0  0  0
 26 25  1  0  0  0  0
 26 24  2  0  0  0  0
 27 25  2  0  0  0  0
 28 33  1  6  0  0  0
 28 29  1  0  0  0  0
 29 30  2  0  0  0  0
 29 31  1  0  0  0  0
 32 31  1  0  0  0  0
 34 33  1  0  0  0  0
 35 37  1  0  0  0  0
 35 36  1  0  0  0  0
 36 34  1  1  0  0  0
 37 36  1  0  0  0  0
M  END
>  <MODEL>
8

>  <REMARK>
 VINA RESULT:      -2.2      3.759      8.134
  Name = 
  12 active torsions:
  status: ('A' for Active; 'I' for Inactive)
    1  A    between atoms: C_1  and  C_12
    2  A    between atoms: C_1  and  C_36
    3  A    between atoms: O_3  and  C_32
    4  A    between atoms: C_6  and  C_31
    5  A    between atoms: N_10  and  C_14
    6  A    between atoms: C_14  and  C_27
    7  A    between atoms: C_14  and  C_37
    8  A    between atoms: C_17  and  C_26
    9  A    between atoms: C_17  and  C_33
   10  A    between atoms: C_29  and  C_36
   11  A    between atoms: C_31  and  C_37
   12  A    between atoms: C_33  and  C_36
                            x       y       z     vdW  Elec       q    Type
                         _______ _______ _______ _____ _____    ______ ____

>  <TORSDO>
F 12

$$$$
=
 OpenBabel11062409163D

 37 41  0  0  1  0  0  0  0  0999 V2000
  160.7270  206.6150  150.5390 C   0  0  0  0  0  2  0  0  0  0  0  0
  162.3370  210.1770  148.2200 C   0  0  0  0  0  3  0  0  0  0  0  0
  161.8620  207.1090  151.3140 N   0  0  0  0  0  0  0  0  0  0  0  0
  162.1260  209.1710  149.1690 C   0  0  0  0  0  0  0  0  0  0  0  0
  162.1320  207.7680  148.6440 C   0  0  0  0  0  2  0  0  0  0  0  0
  162.0100  209.5170  150.5470 C   0  0  0  0  0  0  0  0  0  0  0  0
  162.3370  211.8590  149.9470 C   0  0  0  0  0  3  0  0  0  0  0  0
  160.5150  205.8870  148.1280 C   0  0  0  0  0  2  0  0  0  0  0  0
  160.9060  206.9870  149.0820 C   0  0  0  0  0  0  0  0  0  0  0  0
  162.1300  210.8680  150.9070 C   0  0  0  0  0  3  0  0  0  0  0  0
  159.6530  207.1360  148.2520 C   0  0  0  0  0  2  0  0  0  0  0  0
  161.7550  208.5400  151.6860 C   0  0  1  0  0  3  0  0  0  0  0  0
  162.4340  211.5170  148.5940 C   0  0  0  0  0  0  0  0  0  0  0  0
  162.6350  212.4840  147.6050 O   0  0  0  0  0  0  0  0  0  0  0  0
  161.6100  212.8940  146.7110 C   0  0  0  0  0  1  0  0  0  0  0  0
  162.2280  206.1780  152.3960 C   0  0  1  0  0  3  0  0  0  0  0  0
  161.8450  206.3120  154.7530 O   0  0  0  0  0  1  0  0  0  0  0  0
  161.2000  206.1820  153.5230 C   0  0  0  0  0  2  0  0  0  0  0  0
  162.5260  204.7650  151.9070 C   0  0  0  0  0  2  0  0  0  0  0  0
  161.2570  203.9260  151.8560 C   0  0  0  0  0  2  0  0  0  0  0  0
  161.2060  201.6600  150.9960 C   0  0  0  0  0  3  0  0  0  0  0  0
  161.2330  202.9650  150.7060 C   0  0  0  0  0  0  0  0  0  0  0  0
  161.2390  203.4580  149.2710 C   0  0  0  0  0  2  0  0  0  0  0  0
  161.1980  202.7330  146.6610 S   0  0  0  0  0  0  0  0  0  0  0  0
  161.1780  200.9460  148.6590 C   0  0  0  0  0  3  0  0  0  0  0  0
  161.2030  202.3560  148.2490 C   0  0  0  0  0  0  0  0  0  0  0  0
  161.1800  200.6230  149.9510 C   0  0  0  0  0  3  0  0  0  0  0  0
  160.5620  208.9780  152.5760 C   0  0  1  0  0  3  0  0  0  0  0  0
  160.8320  209.2810  154.0190 C   0  0  0  0  0  0  0  0  0  0  0  0
  160.0750  208.8850  154.8930 O   0  0  0  0  0  0  0  0  0  0  0  0
  162.0760  210.0140  154.3880 C   0  0  0  0  0  2  0  0  0  0  0  0
  161.8080  210.9180  155.4160 O   0  0  0  0  0  1  0  0  0  0  0  0
  159.5590  209.9210  151.9210 C   0  0  0  0  0  2  0  0  0  0  0  0
  159.2050  211.0730  152.8470 C   0  0  0  0  0  2  0  0  0  0  0  0
  159.5070  213.3170  151.9720 C   0  0  0  0  0  2  0  0  0  0  0  0
  158.5670  212.2080  152.0690 C   0  0  2  0  0  3  0  0  0  0  0  0
  158.4170  213.3710  152.9550 N   0  0  0  0  0  2  0  0  0  0  0  0
  1  3  1  0  0  0  0
  2 13  2  0  0  0  0
  2  4  1  0  0  0  0
  3 12  1  0  0  0  0
  3 16  1  0  0  0  0
  4  6  2  0  0  0  0
  5  9  1  0  0  0  0
  5  4  1  0  0  0  0
  6 10  1  0  0  0  0
  6 12  1  0  0  0  0
  7 10  2  0  0  0  0
  8 11  1  0  0  0  0
  8  9  1  0  0  0  0
  9  1  1  0  0  0  0
 11  9  1  0  0  0  0
 12 28  1  6  0  0  0
 13  7  1  0  0  0  0
 14 13  1  0  0  0  0
 15 14  1  0  0  0  0
 16 19  1  6  0  0  0
 16 18  1  0  0  0  0
 18 17  1  0  0  0  0
 20 19  1  0  0  0  0
 22 21  2  0  0  0  0
 22 20  1  0  0  0  0
 23 22  1  0  0  0  0
 24 26  2  0  0  0  0
 25 27  2  0  0  0  0
 26 25  1  0  0  0  0
 26 23  1  0  0  0  0
 27 21  1  0  0  0  0
 28 33  1  6  0  0  0
 28 29  1  0  0  0  0
 29 31  1  0  0  0  0
 29 30  2  0  0  0  0
 31 32  1  0  0  0  0
 33 34  1  0  0  0  0
 35 36  1  0  0  0  0
 35 37  1  0  0  0  0
 36 34  1  1  0  0  0
 36 37  1  0  0  0  0
M  END
>  <MODEL>
9

>  <REMARK>
 VINA RESULT:      -2.1      2.338      5.236
  Name = 
  12 active torsions:
  status: ('A' for Active; 'I' for Inactive)
    1  A    between atoms: C_1  and  C_12
    2  A    between atoms: C_1  and  C_36
    3  A    between atoms: O_3  and  C_32
    4  A    between atoms: C_6  and  C_31
    5  A    between atoms: N_10  and  C_14
    6  A    between atoms: C_14  and  C_27
    7  A    between atoms: C_14  and  C_37
    8  A    between atoms: C_17  and  C_26
    9  A    between atoms: C_17  and  C_33
   10  A    between atoms: C_29  and  C_36
   11  A    between atoms: C_31  and  C_37
   12  A    between atoms: C_33  and  C_36
                            x       y       z     vdW  Elec       q    Type
                         _______ _______ _______ _____ _____    ______ ____

>  <TORSDO>
F 12

$$$$
