=
 OpenBabel11052422433D

 31 36  0  0  1  0  0  0  0  0999 V2000
  158.6200  211.8680  139.1270 O   0  0  0  0  0  0  0  0  0  0  0  0
  161.5220  214.1380  139.7310 C   0  0  1  0  0  3  0  0  0  0  0  0
  161.1080  209.8220  139.7510 C   0  0  0  0  0  1  0  0  0  0  0  0
  160.8230  210.9880  138.8130 C   0  0  2  0  0  3  0  0  0  0  0  0
  159.9790  212.1080  139.4280 C   0  0  2  0  0  0  0  0  0  0  0  0
  160.2180  213.8780  137.4490 C   0  0  0  0  0  2  0  0  0  0  0  0
  160.1860  212.2580  141.2390 S   0  0  0  0  0  0  0  0  0  0  0  0
  160.4550  213.4610  138.8900 C   0  0  0  0  0  0  0  0  0  0  0  0
  158.5800  211.0160  138.0040 C   0  0  1  0  0  3  0  0  0  0  0  0
  159.9630  210.4820  137.6980 C   0  0  0  0  0  2  0  0  0  0  0  0
  161.6360  213.3540  141.0410 C   0  0  2  0  0  3  0  0  0  0  0  0
  159.3440  214.4400  138.5570 C   0  0  0  0  0  2  0  0  0  0  0  0
  162.8430  214.2160  139.0220 C   0  0  0  0  0  0  0  0  0  0  0  0
  164.1760  214.3160  137.0110 C   0  0  0  0  0  3  0  0  0  0  0  0
  162.9250  214.2300  137.6220 C   0  0  0  0  0  3  0  0  0  0  0  0
  165.3040  214.3880  137.7690 N   0  0  0  0  0  0  0  0  0  0  0  0
  166.3100  214.4530  139.8000 O   0  0  0  0  0  0  0  0  0  0  0  0
  164.0140  214.2970  139.7780 C   0  0  0  0  0  2  0  0  0  0  0  0
  165.2480  214.3820  139.1290 C   0  0  0  0  0  0  0  0  0  0  0  0
  155.5170  211.2560  139.2560 C   0  0  0  0  0  2  0  0  0  0  0  0
  157.9750  208.7180  137.9440 O   0  0  0  0  0  0  0  0  0  0  0  0
  154.4010  210.3900  139.6140 C   0  0  0  0  0  2  0  0  0  0  0  0
  155.2000  209.3080  139.1240 N   0  0  0  0  0  2  0  0  0  0  0  0
  157.6160  209.8920  138.2180 C   0  0  0  0  0  0  0  0  0  0  0  0
  156.3150  210.1200  138.7660 N   0  0  0  0  0  0  0  0  0  0  0  0
  161.1770  214.2960  144.5920 O   0  0  0  0  0  0  0  0  0  0  0  0
  161.8160  214.2500  142.2670 C   0  0  1  0  0  3  0  0  0  0  0  0
  163.2880  213.1800  144.0670 C   0  0  0  0  0  2  0  0  0  0  0  0
  162.0210  213.2260  144.9400 C   0  0  0  0  0  2  0  0  0  0  0  0
  160.7090  214.0070  143.3000 C   0  0  0  0  0  2  0  0  0  0  0  0
  163.2220  214.1590  142.8870 C   0  0  0  0  0  2  0  0  0  0  0  0
  2 13  1  6  0  0  0
  2 11  1  0  0  0  0
  4  5  1  0  0  0  0
  4  3  1  1  0  0  0
  5  1  1  6  0  0  0
  5  7  1  0  0  0  0
  6 12  1  0  0  0  0
  6  8  1  0  0  0  0
  8  5  1  0  0  0  0
  8  2  1  0  0  0  0
  9 24  1  1  0  0  0
  9  1  1  0  0  0  0
 10  9  1  0  0  0  0
 10  4  1  0  0  0  0
 11  7  1  1  0  0  0
 11 27  1  0  0  0  0
 12  8  1  0  0  0  0
 13 18  1  0  0  0  0
 14 15  1  0  0  0  0
 14 16  2  0  0  0  0
 15 13  2  0  0  0  0
 16 19  1  0  0  0  0
 19 18  1  0  0  0  0
 19 17  2  0  0  0  0
 20 22  1  0  0  0  0
 21 24  2  0  0  0  0
 23 22  1  0  0  0  0
 24 25  1  0  0  0  0
 25 23  1  0  0  0  0
 25 20  1  0  0  0  0
 26 29  1  0  0  0  0
 27 31  1  1  0  0  0
 27 30  1  0  0  0  0
 28 29  1  0  0  0  0
 30 26  1  0  0  0  0
 31 28  1  0  0  0  0
M  END
>  <MODEL>
1

>  <REMARK>
 VINA RESULT:      -4.4      0.000      0.000
  Name = 
  3 active torsions:
  status: ('A' for Active; 'I' for Inactive)
    1  A    between atoms: C_4  and  C_5
    2  A    between atoms: C_12  and  C_27
    3  A    between atoms: C_19  and  C_22
                            x       y       z     vdW  Elec       q    Type
                         _______ _______ _______ _____ _____    ______ ____

>  <TORSDO>
F 3

$$$$
=
 OpenBabel11052422433D

 31 36  0  0  1  0  0  0  0  0999 V2000
  160.9810  207.5050  151.0280 O   0  0  0  0  0  0  0  0  0  0  0  0
  161.0400  204.7830  148.4740 C   0  0  1  0  0  3  0  0  0  0  0  0
  163.8230  205.9610  151.5820 C   0  0  0  0  0  1  0  0  0  0  0  0
  162.3510  205.5900  151.4540 C   0  0  2  0  0  3  0  0  0  0  0  0
  161.5820  206.3920  150.4000 C   0  0  2  0  0  0  0  0  0  0  0  0
  159.3120  204.9950  150.4610 C   0  0  0  0  0  2  0  0  0  0  0  0
  162.6330  206.9640  149.0180 S   0  0  0  0  0  0  0  0  0  0  0  0
  160.5470  205.4870  149.7250 C   0  0  0  0  0  0  0  0  0  0  0  0
  160.8860  207.2130  152.4050 C   0  0  1  0  0  3  0  0  0  0  0  0
  161.6700  205.9610  152.7340 C   0  0  0  0  0  2  0  0  0  0  0  0
  162.3950  205.3960  148.1110 C   0  0  2  0  0  3  0  0  0  0  0  0
  159.2010  206.1410  149.4680 C   0  0  0  0  0  2  0  0  0  0  0  0
  161.1410  203.2970  148.6580 C   0  0  0  0  0  0  0  0  0  0  0  0
  161.3030  201.3300  150.0510 C   0  0  0  0  0  3  0  0  0  0  0  0
  161.2230  202.7190  149.9330 C   0  0  0  0  0  3  0  0  0  0  0  0
  161.2990  200.5480  148.9380 N   0  0  0  0  0  0  0  0  0  0  0  0
  161.2090  200.3350  146.6820 O   0  0  0  0  0  0  0  0  0  0  0  0
  161.1320  202.4720  147.5310 C   0  0  0  0  0  2  0  0  0  0  0  0
  161.2140  201.0870  147.6910 C   0  0  0  0  0  0  0  0  0  0  0  0
  160.4830  207.6000  155.6750 C   0  0  0  0  0  2  0  0  0  0  0  0
  161.9490  209.3240  152.6620 O   0  0  0  0  0  0  0  0  0  0  0  0
  160.7760  208.5780  156.7150 C   0  0  0  0  0  2  0  0  0  0  0  0
  161.4040  209.3500  155.6860 N   0  0  0  0  0  2  0  0  0  0  0  0
  161.3630  208.3670  153.2300 C   0  0  0  0  0  0  0  0  0  0  0  0
  161.1320  208.4210  154.6400 N   0  0  0  0  0  0  0  0  0  0  0  0
  162.2190  204.3880  144.5520 O   0  0  0  0  0  0  0  0  0  0  0  0
  162.5810  205.5990  146.6060 C   0  0  1  0  0  3  0  0  0  0  0  0
  160.3600  205.7630  145.3460 C   0  0  0  0  0  2  0  0  0  0  0  0
  160.8180  204.4720  144.6420 C   0  0  0  0  0  2  0  0  0  0  0  0
  162.6780  204.2560  145.8730 C   0  0  0  0  0  2  0  0  0  0  0  0
  161.5280  206.5300  145.9810 C   0  0  0  0  0  2  0  0  0  0  0  0
  1  9  1  0  0  0  0
  2 13  1  1  0  0  0
  2  8  1  0  0  0  0
  4  3  1  1  0  0  0
  4 10  1  0  0  0  0
  5  7  1  6  0  0  0
  5  1  1  0  0  0  0
  5  4  1  0  0  0  0
  8  5  1  0  0  0  0
  8  6  1  0  0  0  0
  9 10  1  0  0  0  0
  9 24  1  1  0  0  0
 11  2  1  0  0  0  0
 11  7  1  1  0  0  0
 12  8  1  0  0  0  0
 12  6  1  0  0  0  0
 13 15  2  0  0  0  0
 15 14  1  0  0  0  0
 16 14  2  0  0  0  0
 17 19  2  0  0  0  0
 18 19  1  0  0  0  0
 18 13  1  0  0  0  0
 19 16  1  0  0  0  0
 20 22  1  0  0  0  0
 21 24  2  0  0  0  0
 23 22  1  0  0  0  0
 24 25  1  0  0  0  0
 25 20  1  0  0  0  0
 25 23  1  0  0  0  0
 26 29  1  0  0  0  0
 26 30  1  0  0  0  0
 27 30  1  6  0  0  0
 27 11  1  0  0  0  0
 28 31  1  0  0  0  0
 29 28  1  0  0  0  0
 31 27  1  0  0  0  0
M  END
>  <MODEL>
2

>  <REMARK>
 VINA RESULT:      -3.1     10.737     14.248
  Name = 
  3 active torsions:
  status: ('A' for Active; 'I' for Inactive)
    1  A    between atoms: C_4  and  C_5
    2  A    between atoms: C_12  and  C_27
    3  A    between atoms: C_19  and  C_22
                            x       y       z     vdW  Elec       q    Type
                         _______ _______ _______ _____ _____    ______ ____

>  <TORSDO>
F 3

$$$$
=
 OpenBabel11052422433D

 31 36  0  0  1  0  0  0  0  0999 V2000
  157.0830  212.4030  138.6770 O   0  0  0  0  0  0  0  0  0  0  0  0
  160.5290  213.6360  139.4100 C   0  0  1  0  0  3  0  0  0  0  0  0
  158.6200  209.7740  139.8980 C   0  0  0  0  0  1  0  0  0  0  0  0
  158.8530  210.7970  138.7930 C   0  0  2  0  0  3  0  0  0  0  0  0
  158.4050  212.2200  139.1390 C   0  0  2  0  0  0  0  0  0  0  0  0
  159.4350  213.4560  137.0130 C   0  0  0  0  0  2  0  0  0  0  0  0
  158.4830  212.5880  140.9280 S   0  0  0  0  0  0  0  0  0  0  0  0
  159.3750  213.2270  138.5140 C   0  0  0  0  0  0  0  0  0  0  0  0
  156.8490  211.4410  137.6720 C   0  0  1  0  0  3  0  0  0  0  0  0
  157.9760  210.4320  137.6360 C   0  0  0  0  0  2  0  0  0  0  0  0
  160.2370  213.0860  140.8090 C   0  0  2  0  0  3  0  0  0  0  0  0
  158.7160  214.4530  137.9070 C   0  0  0  0  0  2  0  0  0  0  0  0
  161.8520  213.1490  138.8940 C   0  0  0  0  0  0  0  0  0  0  0  0
  163.2860  211.4190  138.0100 C   0  0  0  0  0  3  0  0  0  0  0  0
  162.0400  211.8190  138.4940 C   0  0  0  0  0  3  0  0  0  0  0  0
  164.3070  212.3150  137.9260 N   0  0  0  0  0  0  0  0  0  0  0  0
  165.1090  214.4170  138.2090 O   0  0  0  0  0  0  0  0  0  0  0  0
  162.9130  214.0520  138.7930 C   0  0  0  0  0  2  0  0  0  0  0  0
  164.1450  213.6130  138.3030 C   0  0  0  0  0  0  0  0  0  0  0  0
  153.8410  212.7610  137.2080 C   0  0  0  0  0  2  0  0  0  0  0  0
  155.5230  209.5750  138.3110 O   0  0  0  0  0  0  0  0  0  0  0  0
  152.4390  212.3910  137.3570 C   0  0  0  0  0  2  0  0  0  0  0  0
  152.9150  211.1070  137.7720 N   0  0  0  0  0  2  0  0  0  0  0  0
  155.5350  210.7570  137.8820 C   0  0  0  0  0  0  0  0  0  0  0  0
  154.2970  211.4320  137.6440 N   0  0  0  0  0  0  0  0  0  0  0  0
  160.5630  214.1540  144.3390 O   0  0  0  0  0  0  0  0  0  0  0  0
  160.6080  214.0580  141.9290 C   0  0  1  0  0  3  0  0  0  0  0  0
  162.5950  213.2500  143.3250 C   0  0  0  0  0  2  0  0  0  0  0  0
  161.5870  213.2020  144.4880 C   0  0  0  0  0  2  0  0  0  0  0  0
  159.8270  213.7500  143.2130 C   0  0  0  0  0  2  0  0  0  0  0  0
  162.1240  214.1540  142.1780 C   0  0  0  0  0  2  0  0  0  0  0  0
  2 13  1  6  0  0  0
  2 11  1  0  0  0  0
  4  5  1  0  0  0  0
  4  3  1  1  0  0  0
  5  1  1  6  0  0  0
  5  7  1  0  0  0  0
  6 12  1  0  0  0  0
  6  8  1  0  0  0  0
  8  5  1  0  0  0  0
  8  2  1  0  0  0  0
  9 24  1  1  0  0  0
  9  1  1  0  0  0  0
 10  9  1  0  0  0  0
 10  4  1  0  0  0  0
 11  7  1  6  0  0  0
 11 27  1  0  0  0  0
 12  8  1  0  0  0  0
 14 15  1  0  0  0  0
 15 13  2  0  0  0  0
 16 14  2  0  0  0  0
 16 19  1  0  0  0  0
 17 19  2  0  0  0  0
 18 13  1  0  0  0  0
 19 18  1  0  0  0  0
 20 22  1  0  0  0  0
 20 25  1  0  0  0  0
 22 23  1  0  0  0  0
 24 21  2  0  0  0  0
 25 23  1  0  0  0  0
 25 24  1  0  0  0  0
 26 29  1  0  0  0  0
 27 31  1  1  0  0  0
 27 30  1  0  0  0  0
 28 29  1  0  0  0  0
 30 26  1  0  0  0  0
 31 28  1  0  0  0  0
M  END
>  <MODEL>
3

>  <REMARK>
 VINA RESULT:      -2.9      1.780      1.999
  Name = 
  3 active torsions:
  status: ('A' for Active; 'I' for Inactive)
    1  A    between atoms: C_4  and  C_5
    2  A    between atoms: C_12  and  C_27
    3  A    between atoms: C_19  and  C_22
                            x       y       z     vdW  Elec       q    Type
                         _______ _______ _______ _____ _____    ______ ____

>  <TORSDO>
F 3

$$$$
=
 OpenBabel11052422433D

 31 36  0  0  1  0  0  0  0  0999 V2000
  157.2690  213.3850  138.1270 O   0  0  0  0  0  0  0  0  0  0  0  0
  160.6980  213.2770  139.5970 C   0  0  1  0  0  3  0  0  0  0  0  0
  157.2770  210.6340  139.9140 C   0  0  0  0  0  1  0  0  0  0  0  0
  158.1310  211.2640  138.8210 C   0  0  2  0  0  3  0  0  0  0  0  0
  158.2710  212.7860  138.9200 C   0  0  2  0  0  0  0  0  0  0  0  0
  160.1190  213.1080  137.0260 C   0  0  0  0  0  2  0  0  0  0  0  0
  158.1480  213.4120  140.6340 S   0  0  0  0  0  0  0  0  0  0  0  0
  159.6780  213.1990  138.4770 C   0  0  0  0  0  0  0  0  0  0  0  0
  156.8490  212.4270  137.1810 C   0  0  1  0  0  3  0  0  0  0  0  0
  157.4250  211.0680  137.5160 C   0  0  0  0  0  2  0  0  0  0  0  0
  159.9350  213.1510  140.9180 C   0  0  2  0  0  3  0  0  0  0  0  0
  159.7330  214.4520  137.6220 C   0  0  0  0  0  2  0  0  0  0  0  0
  161.7620  212.2260  139.4750 C   0  0  0  0  0  0  0  0  0  0  0  0
  164.0570  211.5470  139.1530 C   0  0  0  0  0  3  0  0  0  0  0  0
  163.1040  212.5620  139.2480 C   0  0  0  0  0  3  0  0  0  0  0  0
  163.6850  210.2450  139.2840 N   0  0  0  0  0  0  0  0  0  0  0  0
  162.0790  208.6820  139.6310 O   0  0  0  0  0  0  0  0  0  0  0  0
  161.4050  210.8820  139.6120 C   0  0  0  0  0  2  0  0  0  0  0  0
  162.3890  209.8960  139.5110 C   0  0  0  0  0  0  0  0  0  0  0  0
  154.9890  209.6800  137.1520 C   0  0  0  0  0  2  0  0  0  0  0  0
  154.7030  213.4350  137.0120 O   0  0  0  0  0  0  0  0  0  0  0  0
  153.5850  209.2990  137.0510 C   0  0  0  0  0  2  0  0  0  0  0  0
  153.3010  210.7010  137.0150 N   0  0  0  0  0  2  0  0  0  0  0  0
  155.3560  212.3640  137.1090 C   0  0  0  0  0  0  0  0  0  0  0  0
  154.6610  211.1140  137.1070 N   0  0  0  0  0  0  0  0  0  0  0  0
  160.3870  214.2920  144.4120 O   0  0  0  0  0  0  0  0  0  0  0  0
  160.4580  214.0860  142.0090 C   0  0  1  0  0  3  0  0  0  0  0  0
  162.2360  212.9870  143.4870 C   0  0  0  0  0  2  0  0  0  0  0  0
  161.2150  213.1750  144.6240 C   0  0  0  0  0  2  0  0  0  0  0  0
  159.6110  213.9820  143.2830 C   0  0  0  0  0  2  0  0  0  0  0  0
  161.9610  213.9120  142.2940 C   0  0  0  0  0  2  0  0  0  0  0  0
  2 13  1  6  0  0  0
  2 11  1  0  0  0  0
  4  5  1  0  0  0  0
  4  3  1  1  0  0  0
  5  1  1  6  0  0  0
  5  7  1  0  0  0  0
  6 12  1  0  0  0  0
  6  8  1  0  0  0  0
  8  5  1  0  0  0  0
  8  2  1  0  0  0  0
  9 24  1  1  0  0  0
  9 10  1  0  0  0  0
  9  1  1  0  0  0  0
 10  4  1  0  0  0  0
 11  7  1  6  0  0  0
 11 27  1  0  0  0  0
 12  8  1  0  0  0  0
 13 18  1  0  0  0  0
 14 15  1  0  0  0  0
 14 16  2  0  0  0  0
 15 13  2  0  0  0  0
 16 19  1  0  0  0  0
 19 18  1  0  0  0  0
 19 17  2  0  0  0  0
 21 24  2  0  0  0  0
 22 20  1  0  0  0  0
 23 22  1  0  0  0  0
 23 25  1  0  0  0  0
 25 24  1  0  0  0  0
 25 20  1  0  0  0  0
 26 29  1  0  0  0  0
 27 31  1  1  0  0  0
 27 30  1  0  0  0  0
 28 29  1  0  0  0  0
 30 26  1  0  0  0  0
 31 28  1  0  0  0  0
M  END
>  <MODEL>
4

>  <REMARK>
 VINA RESULT:      -2.7      2.427      3.040
  Name = 
  3 active torsions:
  status: ('A' for Active; 'I' for Inactive)
    1  A    between atoms: C_4  and  C_5
    2  A    between atoms: C_12  and  C_27
    3  A    between atoms: C_19  and  C_22
                            x       y       z     vdW  Elec       q    Type
                         _______ _______ _______ _____ _____    ______ ____

>  <TORSDO>
F 3

$$$$
=
 OpenBabel11052422433D

 31 36  0  0  1  0  0  0  0  0999 V2000
  162.3160  205.2970  149.1310 O   0  0  0  0  0  0  0  0  0  0  0  0
  162.2320  208.1470  151.5400 C   0  0  1  0  0  3  0  0  0  0  0  0
  159.2090  206.3410  149.0120 C   0  0  0  0  0  1  0  0  0  0  0  0
  160.2060  205.9080  150.0780 C   0  0  2  0  0  3  0  0  0  0  0  0
  161.6510  206.3400  149.8110 C   0  0  2  0  0  0  0  0  0  0  0  0
  162.6890  205.6200  152.1590 C   0  0  0  0  0  2  0  0  0  0  0  0
  161.7760  207.8810  148.8360 S   0  0  0  0  0  0  0  0  0  0  0  0
  162.3340  206.6870  151.1380 C   0  0  0  0  0  0  0  0  0  0  0  0
  161.6030  204.1060  149.3820 C   0  0  1  0  0  3  0  0  0  0  0  0
  160.2840  204.4140  150.0560 C   0  0  0  0  0  2  0  0  0  0  0  0
  161.6660  208.9120  150.3420 C   0  0  2  0  0  3  0  0  0  0  0  0
  163.7680  206.2030  151.2610 C   0  0  0  0  0  2  0  0  0  0  0  0
  161.3870  208.3420  152.7660 C   0  0  0  0  0  0  0  0  0  0  0  0
  160.0860  207.4890  154.6130 C   0  0  0  0  0  3  0  0  0  0  0  0
  160.8550  207.2540  153.4720 C   0  0  0  0  0  3  0  0  0  0  0  0
  159.8590  208.7630  155.0340 N   0  0  0  0  0  0  0  0  0  0  0  0
  160.1430  210.9990  154.7850 O   0  0  0  0  0  0  0  0  0  0  0  0
  161.1450  209.6400  153.2210 C   0  0  0  0  0  2  0  0  0  0  0  0
  160.3700  209.8340  154.3670 C   0  0  0  0  0  0  0  0  0  0  0  0
  161.7740  205.3000  146.2920 C   0  0  0  0  0  2  0  0  0  0  0  0
  161.0620  202.1230  148.1890 O   0  0  0  0  0  0  0  0  0  0  0  0
  161.5800  204.8450  144.9200 C   0  0  0  0  0  2  0  0  0  0  0  0
  161.3110  203.5560  145.4820 N   0  0  0  0  0  2  0  0  0  0  0  0
  161.3820  203.3370  148.1170 C   0  0  0  0  0  0  0  0  0  0  0  0
  161.4870  203.9630  146.8370 N   0  0  0  0  0  0  0  0  0  0  0  0
  162.5760  211.9150  148.3770 O   0  0  0  0  0  0  0  0  0  0  0  0
  162.3300  210.2720  150.1250 C   0  0  1  0  0  3  0  0  0  0  0  0
  160.6360  212.1690  149.8420 C   0  0  0  0  0  2  0  0  0  0  0  0
  161.2250  212.3040  148.4260 C   0  0  0  0  0  2  0  0  0  0  0  0
  162.5850  210.5350  148.6360 C   0  0  0  0  0  2  0  0  0  0  0  0
  161.5800  211.4330  150.8020 C   0  0  0  0  0  2  0  0  0  0  0  0
  1  9  1  0  0  0  0
  1  5  1  0  0  0  0
  2 13  1  1  0  0  0
  4  3  1  6  0  0  0
  5  7  1  6  0  0  0
  5  4  1  0  0  0  0
  5  8  1  0  0  0  0
  8 12  1  0  0  0  0
  8  2  1  0  0  0  0
  8  6  1  0  0  0  0
  9 24  1  6  0  0  0
  9 10  1  0  0  0  0
 10  4  1  0  0  0  0
 11  7  1  6  0  0  0
 11  2  1  0  0  0  0
 12  6  1  0  0  0  0
 13 18  1  0  0  0  0
 13 15  2  0  0  0  0
 14 16  2  0  0  0  0
 15 14  1  0  0  0  0
 18 19  1  0  0  0  0
 19 17  2  0  0  0  0
 19 16  1  0  0  0  0
 20 25  1  0  0  0  0
 22 23  1  0  0  0  0
 22 20  1  0  0  0  0
 23 25  1  0  0  0  0
 24 21  2  0  0  0  0
 25 24  1  0  0  0  0
 26 29  1  0  0  0  0
 26 30  1  0  0  0  0
 27 30  1  6  0  0  0
 27 11  1  0  0  0  0
 27 31  1  0  0  0  0
 28 31  1  0  0  0  0
 29 28  1  0  0  0  0
M  END
>  <MODEL>
5

>  <REMARK>
 VINA RESULT:      -2.3      9.351     12.846
  Name = 
  3 active torsions:
  status: ('A' for Active; 'I' for Inactive)
    1  A    between atoms: C_4  and  C_5
    2  A    between atoms: C_12  and  C_27
    3  A    between atoms: C_19  and  C_22
                            x       y       z     vdW  Elec       q    Type
                         _______ _______ _______ _____ _____    ______ ____

>  <TORSDO>
F 3

$$$$
=
 OpenBabel11052422433D

 31 36  0  0  1  0  0  0  0  0999 V2000
  162.3140  205.4670  149.0570 O   0  0  0  0  0  0  0  0  0  0  0  0
  162.1500  208.0540  151.7430 C   0  0  1  0  0  3  0  0  0  0  0  0
  159.1710  206.4070  149.0580 C   0  0  0  0  0  1  0  0  0  0  0  0
  160.1910  205.9050  150.0710 C   0  0  2  0  0  3  0  0  0  0  0  0
  161.6190  206.4120  149.8420 C   0  0  2  0  0  0  0  0  0  0  0  0
  162.7000  205.4950  152.1000 C   0  0  0  0  0  2  0  0  0  0  0  0
  161.6820  208.0470  149.0270 S   0  0  0  0  0  0  0  0  0  0  0  0
  162.3000  206.6470  151.1940 C   0  0  0  0  0  0  0  0  0  0  0  0
  161.6450  204.2320  149.1890 C   0  0  1  0  0  3  0  0  0  0  0  0
  160.3210  204.4240  149.8970 C   0  0  0  0  0  2  0  0  0  0  0  0
  161.5480  208.9160  150.6300 C   0  0  2  0  0  3  0  0  0  0  0  0
  163.7500  206.2040  151.2610 C   0  0  0  0  0  2  0  0  0  0  0  0
  161.3090  208.0950  152.9850 C   0  0  0  0  0  0  0  0  0  0  0  0
  160.0820  207.0130  154.7620 C   0  0  0  0  0  3  0  0  0  0  0  0
  160.8510  206.9210  153.6010 C   0  0  0  0  0  3  0  0  0  0  0  0
  159.7840  208.2300  155.2910 N   0  0  0  0  0  0  0  0  0  0  0  0
  159.9320  210.4930  155.2300 O   0  0  0  0  0  0  0  0  0  0  0  0
  160.9950  209.3330  153.5500 C   0  0  0  0  0  2  0  0  0  0  0  0
  160.2230  209.3820  154.7130 C   0  0  0  0  0  0  0  0  0  0  0  0
  161.3610  200.9820  148.5890 C   0  0  0  0  0  2  0  0  0  0  0  0
  161.4040  204.3120  146.8260 O   0  0  0  0  0  0  0  0  0  0  0  0
  161.2060  200.0780  147.4560 C   0  0  0  0  0  2  0  0  0  0  0  0
  161.1730  201.2540  146.6390 N   0  0  0  0  0  2  0  0  0  0  0  0
  161.4410  203.5880  147.8540 C   0  0  0  0  0  0  0  0  0  0  0  0
  161.3290  202.1690  147.7200 N   0  0  0  0  0  0  0  0  0  0  0  0
  162.2710  212.1630  149.0050 O   0  0  0  0  0  0  0  0  0  0  0  0
  162.1630  210.3130  150.5500 C   0  0  1  0  0  3  0  0  0  0  0  0
  160.4050  212.1730  150.5840 C   0  0  0  0  0  2  0  0  0  0  0  0
  160.9150  212.4980  149.1680 C   0  0  0  0  0  2  0  0  0  0  0  0
  162.3310  210.7620  149.0930 C   0  0  0  0  0  2  0  0  0  0  0  0
  161.4180  211.3580  151.3990 C   0  0  0  0  0  2  0  0  0  0  0  0
  1  9  1  0  0  0  0
  1  5  1  0  0  0  0
  2 13  1  1  0  0  0
  4  3  1  6  0  0  0
  5  7  1  6  0  0  0
  5  4  1  0  0  0  0
  5  8  1  0  0  0  0
  8 12  1  0  0  0  0
  8  2  1  0  0  0  0
  8  6  1  0  0  0  0
  9 24  1  6  0  0  0
  9 10  1  0  0  0  0
 10  4  1  0  0  0  0
 11  7  1  6  0  0  0
 11  2  1  0  0  0  0
 12  6  1  0  0  0  0
 13 18  1  0  0  0  0
 13 15  2  0  0  0  0
 14 16  2  0  0  0  0
 15 14  1  0  0  0  0
 18 19  1  0  0  0  0
 19 17  2  0  0  0  0
 19 16  1  0  0  0  0
 21 24  2  0  0  0  0
 22 20  1  0  0  0  0
 23 22  1  0  0  0  0
 23 25  1  0  0  0  0
 25 24  1  0  0  0  0
 25 20  1  0  0  0  0
 26 30  1  0  0  0  0
 26 29  1  0  0  0  0
 27 30  1  6  0  0  0
 27 11  1  0  0  0  0
 27 31  1  0  0  0  0
 28 31  1  0  0  0  0
 29 28  1  0  0  0  0
M  END
>  <MODEL>
6

>  <REMARK>
 VINA RESULT:      -2.0     10.340     13.304
  Name = 
  3 active torsions:
  status: ('A' for Active; 'I' for Inactive)
    1  A    between atoms: C_4  and  C_5
    2  A    between atoms: C_12  and  C_27
    3  A    between atoms: C_19  and  C_22
                            x       y       z     vdW  Elec       q    Type
                         _______ _______ _______ _____ _____    ______ ____

>  <TORSDO>
F 3

$$$$
=
 OpenBabel11052422433D

 31 36  0  0  1  0  0  0  0  0999 V2000
  162.3570  205.5620  148.8660 O   0  0  0  0  0  0  0  0  0  0  0  0
  162.1980  208.3680  151.3230 C   0  0  1  0  0  3  0  0  0  0  0  0
  159.2590  206.6220  148.6580 C   0  0  0  0  0  1  0  0  0  0  0  0
  160.2170  206.1660  149.7500 C   0  0  2  0  0  3  0  0  0  0  0  0
  161.6720  206.5960  149.5420 C   0  0  2  0  0  0  0  0  0  0  0  0
  162.6250  205.8290  151.9100 C   0  0  0  0  0  2  0  0  0  0  0  0
  161.8370  208.1540  148.5990 S   0  0  0  0  0  0  0  0  0  0  0  0
  162.3090  206.9160  150.8970 C   0  0  0  0  0  0  0  0  0  0  0  0
  161.6310  204.3700  149.0700 C   0  0  1  0  0  3  0  0  0  0  0  0
  160.2900  204.6720  149.7030 C   0  0  0  0  0  2  0  0  0  0  0  0
  161.6770  209.1570  150.1190 C   0  0  2  0  0  3  0  0  0  0  0  0
  163.7360  206.4240  151.0610 C   0  0  0  0  0  2  0  0  0  0  0  0
  161.3120  208.5450  152.5210 C   0  0  0  0  0  0  0  0  0  0  0  0
  159.6150  209.7400  153.7560 C   0  0  0  0  0  3  0  0  0  0  0  0
  160.4270  209.6270  152.6260 C   0  0  0  0  0  2  0  0  0  0  0  0
  159.6830  208.8060  154.7430 N   0  0  0  0  0  0  0  0  0  0  0  0
  160.5670  206.8960  155.5880 O   0  0  0  0  0  0  0  0  0  0  0  0
  161.3590  207.5960  153.5450 C   0  0  0  0  0  3  0  0  0  0  0  0
  160.5310  207.7450  154.6590 C   0  0  0  0  0  0  0  0  0  0  0  0
  161.3060  201.0870  148.7200 C   0  0  0  0  0  2  0  0  0  0  0  0
  161.4550  204.2660  146.7020 O   0  0  0  0  0  0  0  0  0  0  0  0
  161.1670  200.0990  147.6570 C   0  0  0  0  0  2  0  0  0  0  0  0
  161.1770  201.2070  146.7500 N   0  0  0  0  0  2  0  0  0  0  0  0
  161.4520  203.6250  147.7850 C   0  0  0  0  0  0  0  0  0  0  0  0
  161.3190  202.2020  147.7600 N   0  0  0  0  0  0  0  0  0  0  0  0
  162.7300  212.1580  148.2220 O   0  0  0  0  0  0  0  0  0  0  0  0
  162.3540  210.5180  149.9510 C   0  0  1  0  0  3  0  0  0  0  0  0
  160.6820  212.4110  149.5330 C   0  0  0  0  0  2  0  0  0  0  0  0
  161.3780  212.5440  148.1660 C   0  0  0  0  0  2  0  0  0  0  0  0
  162.7210  210.7780  148.4850 C   0  0  0  0  0  2  0  0  0  0  0  0
  161.5520  211.6790  150.5650 C   0  0  0  0  0  2  0  0  0  0  0  0
  1  9  1  0  0  0  0
  1  5  1  0  0  0  0
  2 13  1  1  0  0  0
  4  3  1  6  0  0  0
  5  7  1  6  0  0  0
  5  4  1  0  0  0  0
  5  8  1  0  0  0  0
  8 12  1  0  0  0  0
  8  2  1  0  0  0  0
  8  6  1  0  0  0  0
  9 24  1  6  0  0  0
  9 10  1  0  0  0  0
 10  4  1  0  0  0  0
 11  7  1  6  0  0  0
 11  2  1  0  0  0  0
 12  6  1  0  0  0  0
 13 15  1  0  0  0  0
 13 18  2  0  0  0  0
 14 16  2  0  0  0  0
 15 14  1  0  0  0  0
 18 19  1  0  0  0  0
 19 16  1  0  0  0  0
 19 17  2  0  0  0  0
 21 24  2  0  0  0  0
 22 20  1  0  0  0  0
 23 22  1  0  0  0  0
 23 25  1  0  0  0  0
 25 24  1  0  0  0  0
 25 20  1  0  0  0  0
 26 30  1  0  0  0  0
 27 30  1  6  0  0  0
 27 11  1  0  0  0  0
 27 31  1  0  0  0  0
 28 31  1  0  0  0  0
 29 26  1  0  0  0  0
 29 28  1  0  0  0  0
M  END
>  <MODEL>
7

>  <REMARK>
 VINA RESULT:      -1.8      9.664     12.993
  Name = 
  3 active torsions:
  status: ('A' for Active; 'I' for Inactive)
    1  A    between atoms: C_4  and  C_5
    2  A    between atoms: C_12  and  C_27
    3  A    between atoms: C_19  and  C_22
                            x       y       z     vdW  Elec       q    Type
                         _______ _______ _______ _____ _____    ______ ____

>  <TORSDO>
F 3

$$$$
=
 OpenBabel11052422433D

 31 36  0  0  1  0  0  0  0  0999 V2000
  161.0650  208.2260  151.0370 O   0  0  0  0  0  0  0  0  0  0  0  0
  161.3810  210.6100  153.8920 C   0  0  1  0  0  3  0  0  0  0  0  0
  160.4330  206.3860  153.6780 C   0  0  0  0  0  1  0  0  0  0  0  0
  161.5310  207.3300  153.2060 C   0  0  2  0  0  3  0  0  0  0  0  0
  161.0310  208.5420  152.4130 C   0  0  2  0  0  0  0  0  0  0  0  0
  163.3380  209.8710  152.2790 C   0  0  0  0  0  2  0  0  0  0  0  0
  159.3410  209.0620  152.8770 S   0  0  0  0  0  0  0  0  0  0  0  0
  161.8960  209.7610  152.7440 C   0  0  0  0  0  0  0  0  0  0  0  0
  161.9760  207.1620  150.8690 C   0  0  1  0  0  3  0  0  0  0  0  0
  162.3760  206.5950  152.2140 C   0  0  0  0  0  2  0  0  0  0  0  0
  159.9740  210.1130  154.2320 C   0  0  2  0  0  3  0  0  0  0  0  0
  162.2440  210.6370  151.5530 C   0  0  0  0  0  2  0  0  0  0  0  0
  162.2860  210.5590  155.0890 C   0  0  0  0  0  0  0  0  0  0  0  0
  162.8980  209.6950  157.2590 C   0  0  0  0  0  3  0  0  0  0  0  0
  162.0190  209.7140  156.1750 C   0  0  0  0  0  3  0  0  0  0  0  0
  164.0040  210.4880  157.2570 N   0  0  0  0  0  0  0  0  0  0  0  0
  165.3190  212.0290  156.2390 O   0  0  0  0  0  0  0  0  0  0  0  0
  163.4310  211.3590  155.1080 C   0  0  0  0  0  2  0  0  0  0  0  0
  164.2850  211.3110  156.2110 C   0  0  0  0  0  0  0  0  0  0  0  0
  162.1410  207.0070  147.5600 C   0  0  0  0  0  2  0  0  0  0  0  0
  160.7390  205.1600  150.5300 O   0  0  0  0  0  0  0  0  0  0  0  0
  161.6660  206.1640  146.4690 C   0  0  0  0  0  2  0  0  0  0  0  0
  161.0920  205.3320  147.4830 N   0  0  0  0  0  2  0  0  0  0  0  0
  161.3950  206.0930  149.9980 C   0  0  0  0  0  0  0  0  0  0  0  0
  161.5340  206.1330  148.5760 N   0  0  0  0  0  0  0  0  0  0  0  0
  157.7070  212.0550  156.4220 O   0  0  0  0  0  0  0  0  0  0  0  0
  158.9950  211.2440  154.5510 C   0  0  1  0  0  3  0  0  0  0  0  0
  159.9650  212.9620  156.1820 C   0  0  0  0  0  2  0  0  0  0  0  0
  158.8400  212.5010  157.1270 C   0  0  0  0  0  2  0  0  0  0  0  0
  158.1100  210.8880  155.7520 C   0  0  0  0  0  2  0  0  0  0  0  0
  159.6770  212.6130  154.7160 C   0  0  0  0  0  2  0  0  0  0  0  0
  2 11  1  0  0  0  0
  2 13  1  1  0  0  0
  4  3  1  6  0  0  0
  5  1  1  6  0  0  0
  5  8  1  0  0  0  0
  5  7  1  0  0  0  0
  5  4  1  0  0  0  0
  6  8  1  0  0  0  0
  8  2  1  0  0  0  0
  9 24  1  6  0  0  0
  9  1  1  0  0  0  0
  9 10  1  0  0  0  0
 10  4  1  0  0  0  0
 11  7  1  6  0  0  0
 11 27  1  0  0  0  0
 12  6  1  0  0  0  0
 12  8  1  0  0  0  0
 13 18  1  0  0  0  0
 13 15  2  0  0  0  0
 15 14  1  0  0  0  0
 16 14  2  0  0  0  0
 18 19  1  0  0  0  0
 19 17  2  0  0  0  0
 19 16  1  0  0  0  0
 20 25  1  0  0  0  0
 22 23  1  0  0  0  0
 22 20  1  0  0  0  0
 23 25  1  0  0  0  0
 24 21  2  0  0  0  0
 25 24  1  0  0  0  0
 26 29  1  0  0  0  0
 27 31  1  1  0  0  0
 27 30  1  0  0  0  0
 28 29  1  0  0  0  0
 30 26  1  0  0  0  0
 31 28  1  0  0  0  0
M  END
>  <MODEL>
8

>  <REMARK>
 VINA RESULT:      -1.6     10.832     14.479
  Name = 
  3 active torsions:
  status: ('A' for Active; 'I' for Inactive)
    1  A    between atoms: C_4  and  C_5
    2  A    between atoms: C_12  and  C_27
    3  A    between atoms: C_19  and  C_22
                            x       y       z     vdW  Elec       q    Type
                         _______ _______ _______ _____ _____    ______ ____

>  <TORSDO>
F 3

$$$$
