=
 OpenBabel11062410553D

 32 37  0  0  1  0  0  0  0  0999 V2000
  161.7810  213.3410  144.5570 C   0  0  0  0  0  0  0  0  0  0  0  0
  161.6700  213.7950  139.8600 C   0  0  1  0  0  3  0  0  0  0  0  0
  158.4100  212.0940  140.5100 C   0  0  0  0  0  2  0  0  0  0  0  0
  162.6750  211.4440  139.5290 C   0  0  1  0  0  3  0  0  0  0  0  0
  162.1550  210.1290  139.0220 C   0  0  0  0  0  0  0  0  0  0  0  0
  162.5960  213.9660  141.9690 C   0  0  0  0  0  0  0  0  0  0  0  0
  159.5960  214.4530  140.9020 O   0  0  0  0  0  1  0  0  0  0  0  0
  161.1470  207.6790  138.1090 C   0  0  0  0  0  3  0  0  0  0  0  0
  160.8800  213.2150  143.4870 C   0  0  0  0  0  3  0  0  0  0  0  0
  159.3540  211.5400  139.4640 C   0  0  2  0  0  3  0  0  0  0  0  0
  160.5580  213.4340  140.9140 C   0  0  1  0  0  0  0  0  0  0  0  0
  159.9090  212.0190  140.8110 C   0  0  1  0  0  3  0  0  0  0  0  0
  161.0170  212.4740  137.7560 C   0  0  2  0  0  3  0  0  0  0  0  0
  161.6800  207.7790  139.3950 C   0  0  0  0  0  3  0  0  0  0  0  0
  163.1040  213.7790  144.3100 C   0  0  0  0  0  3  0  0  0  0  0  0
  161.3230  213.5110  142.1930 C   0  0  0  0  0  0  0  0  0  0  0  0
  162.1940  208.9990  139.8490 C   0  0  0  0  0  3  0  0  0  0  0  0
  163.5170  214.0950  143.0040 C   0  0  0  0  0  3  0  0  0  0  0  0
  159.5740  212.5250  138.3120 C   0  0  1  0  0  3  0  0  0  0  0  0
  161.2740  211.2270  137.0280 N   0  0  0  0  0  2  0  0  0  0  0  0
  162.8450  214.2410  140.6070 N   0  0  0  0  0  2  0  0  0  0  0  0
  164.0680  211.4700  139.4560 O   0  0  0  0  0  1  0  0  0  0  0  0
  161.0980  208.8080  137.2860 C   0  0  0  0  0  3  0  0  0  0  0  0
  162.0860  212.7080  138.8480 C   0  0  1  0  0  3  0  0  0  0  0  0
  161.5660  210.0360  137.7530 C   0  0  0  0  0  0  0  0  0  0  0  0
  157.8710  211.1170  137.3290 O   0  0  0  0  0  1  0  0  0  0  0  0
  158.5190  212.3480  137.2140 C   0  0  0  0  0  2  0  0  0  0  0  0
  162.1220  212.8940  146.8930 C   0  0  0  0  0  3  0  0  0  0  0  0
  161.3230  213.0510  145.8860 N   0  0  0  0  0  0  0  0  0  0  0  0
  161.5830  212.6430  148.2370 C   0  0  0  0  0  0  0  0  0  0  0  0
  160.6570  213.3700  148.6820 O   0  0  0  0  0  0  0  0  0  0  0  0
  162.0890  211.5750  149.0340 N   0  0  0  0  0  1  0  0  0  0  0  0
  1 29  1  0  0  0  0
  2 21  1  1  0  0  0
  2 11  1  0  0  0  0
  4 22  1  6  0  0  0
  5  4  1  0  0  0  0
  5 17  1  0  0  0  0
  6 16  2  0  0  0  0
  6 18  1  0  0  0  0
  8 14  1  0  0  0  0
  9  1  2  0  0  0  0
 10  3  1  1  0  0  0
 10 12  1  0  0  0  0
 11  7  1  6  0  0  0
 11 16  1  0  0  0  0
 12  3  1  1  0  0  0
 12 11  1  0  0  0  0
 13 20  1  1  0  0  0
 13 19  1  0  0  0  0
 13 24  1  0  0  0  0
 14 17  2  0  0  0  0
 15  1  1  0  0  0  0
 16  9  1  0  0  0  0
 18 15  2  0  0  0  0
 19 27  1  6  0  0  0
 19 10  1  0  0  0  0
 20 25  1  0  0  0  0
 21  6  1  0  0  0  0
 23 25  1  0  0  0  0
 23  8  2  0  0  0  0
 24  4  1  0  0  0  0
 24  2  1  0  0  0  0
 25  5  2  0  0  0  0
 27 26  1  0  0  0  0
 28 30  1  0  0  0  0
 29 28  2  0  0  0  0
 30 31  2  0  0  0  0
 30 32  1  0  0  0  0
M  END
>  <MODEL>
1

>  <REMARK>
 VINA RESULT:      -5.6      0.000      0.000
  Name = 
  3 active torsions:
  status: ('A' for Active; 'I' for Inactive)
    1  A    between atoms: C_1  and  C_10
    2  A    between atoms: C_2  and  N_24
    3  A    between atoms: C_25  and  C_26
                            x       y       z     vdW  Elec       q    Type
                         _______ _______ _______ _____ _____    ______ ____

>  <TORSDO>
F 3

$$$$
=
 OpenBabel11062410553D

 32 37  0  0  1  0  0  0  0  0999 V2000
  161.2400  207.8020  149.0140 C   0  0  0  0  0  0  0  0  0  0  0  0
  162.4350  209.6880  153.1730 C   0  0  1  0  0  3  0  0  0  0  0  0
  160.3360  206.7970  154.2540 C   0  0  0  0  0  2  0  0  0  0  0  0
  160.2810  211.1020  153.2410 C   0  0  1  0  0  3  0  0  0  0  0  0
  159.0190  211.0780  154.0580 C   0  0  0  0  0  0  0  0  0  0  0  0
  162.3540  209.5560  150.8690 C   0  0  0  0  0  0  0  0  0  0  0  0
  162.7060  207.2920  153.1320 O   0  0  0  0  0  1  0  0  0  0  0  0
  156.6620  210.9820  155.5690 C   0  0  0  0  0  3  0  0  0  0  0  0
  161.2000  207.4950  150.3830 C   0  0  0  0  0  3  0  0  0  0  0  0
  160.0540  208.1780  154.8040 C   0  0  2  0  0  3  0  0  0  0  0  0
  161.7990  208.3020  152.7840 C   0  0  1  0  0  0  0  0  0  0  0  0
  160.3620  208.0020  153.3120 C   0  0  1  0  0  3  0  0  0  0  0  0
  161.4130  210.2460  155.4620 C   0  0  2  0  0  3  0  0  0  0  0  0
  156.6050  210.8740  154.1780 C   0  0  0  0  0  3  0  0  0  0  0  0
  161.8420  209.0110  148.5850 C   0  0  0  0  0  3  0  0  0  0  0  0
  161.7440  208.4060  151.2960 C   0  0  0  0  0  0  0  0  0  0  0  0
  157.7800  210.9320  153.4210 C   0  0  0  0  0  3  0  0  0  0  0  0
  162.4040  209.8970  149.5200 C   0  0  0  0  0  3  0  0  0  0  0  0
  161.2300  208.7190  155.6240 C   0  0  1  0  0  3  0  0  0  0  0  0
  160.3330  210.9940  156.1140 N   0  0  0  0  0  2  0  0  0  0  0  0
  162.8690  210.3290  151.9320 N   0  0  0  0  0  2  0  0  0  0  0  0
  160.4560  212.3620  152.6680 O   0  0  0  0  0  1  0  0  0  0  0  0
  157.8990  211.1170  156.2060 C   0  0  0  0  0  3  0  0  0  0  0  0
  161.5730  210.6760  153.9860 C   0  0  1  0  0  3  0  0  0  0  0  0
  159.0750  211.1280  155.4570 C   0  0  0  0  0  0  0  0  0  0  0  0
  160.2040  207.2630  157.2610 O   0  0  0  0  0  1  0  0  0  0  0  0
  161.1290  208.2950  157.0940 C   0  0  0  0  0  2  0  0  0  0  0  0
  161.2770  206.5520  146.9620 C   0  0  0  0  0  3  0  0  0  0  0  0
  160.6950  206.8630  148.0760 N   0  0  0  0  0  0  0  0  0  0  0  0
  160.6840  205.5480  146.0690 C   0  0  0  0  0  0  0  0  0  0  0  0
  159.7740  205.8860  145.2680 O   0  0  0  0  0  0  0  0  0  0  0  0
  161.1400  204.1980  146.0910 N   0  0  0  0  0  1  0  0  0  0  0  0
  1  9  1  0  0  0  0
  2 21  1  6  0  0  0
  2 24  1  0  0  0  0
  4 22  1  1  0  0  0
  4 24  1  0  0  0  0
  4  5  1  0  0  0  0
  5 25  1  0  0  0  0
  6 16  1  0  0  0  0
  6 21  1  0  0  0  0
  8 23  1  0  0  0  0
  9 16  2  0  0  0  0
 10  3  1  1  0  0  0
 10 19  1  0  0  0  0
 11  7  1  1  0  0  0
 11  2  1  0  0  0  0
 11 12  1  0  0  0  0
 12  3  1  1  0  0  0
 12 10  1  0  0  0  0
 13 19  1  0  0  0  0
 13 20  1  6  0  0  0
 14  8  2  0  0  0  0
 15  1  2  0  0  0  0
 15 18  1  0  0  0  0
 16 11  1  0  0  0  0
 17  5  2  0  0  0  0
 17 14  1  0  0  0  0
 18  6  2  0  0  0  0
 19 27  1  1  0  0  0
 24 13  1  0  0  0  0
 25 20  1  0  0  0  0
 25 23  2  0  0  0  0
 27 26  1  0  0  0  0
 28 29  2  0  0  0  0
 29  1  1  0  0  0  0
 30 32  1  0  0  0  0
 30 28  1  0  0  0  0
 31 30  2  0  0  0  0
M  END
>  <MODEL>
2

>  <REMARK>
 VINA RESULT:      -4.0      8.476     13.981
  Name = 
  3 active torsions:
  status: ('A' for Active; 'I' for Inactive)
    1  A    between atoms: C_1  and  C_10
    2  A    between atoms: C_2  and  N_24
    3  A    between atoms: C_25  and  C_26
                            x       y       z     vdW  Elec       q    Type
                         _______ _______ _______ _____ _____    ______ ____

>  <TORSDO>
F 3

$$$$
=
 OpenBabel11062410553D

 32 37  0  0  1  0  0  0  0  0999 V2000
  160.8840  206.3020  149.7440 C   0  0  0  0  0  0  0  0  0  0  0  0
  162.3370  209.7440  152.6290 C   0  0  1  0  0  3  0  0  0  0  0  0
  160.9210  207.2950  155.0640 C   0  0  0  0  0  2  0  0  0  0  0  0
  160.0120  210.8570  152.6030 C   0  0  1  0  0  3  0  0  0  0  0  0
  158.9030  211.0230  153.6030 C   0  0  0  0  0  0  0  0  0  0  0  0
  161.9490  208.7330  150.5900 C   0  0  0  0  0  0  0  0  0  0  0  0
  162.9910  207.5540  153.4000 O   0  0  0  0  0  1  0  0  0  0  0  0
  156.8350  211.2810  155.4760 C   0  0  0  0  0  3  0  0  0  0  0  0
  161.0920  206.5400  151.1120 C   0  0  0  0  0  3  0  0  0  0  0  0
  160.4970  208.7470  155.1240 C   0  0  2  0  0  3  0  0  0  0  0  0
  161.8890  208.2590  152.8960 C   0  0  1  0  0  0  0  0  0  0  0  0
  160.6120  208.0450  153.7660 C   0  0  1  0  0  3  0  0  0  0  0  0
  161.5780  211.0320  154.7170 C   0  0  2  0  0  3  0  0  0  0  0  0
  156.5970  210.6440  154.2570 C   0  0  0  0  0  3  0  0  0  0  0  0
  161.2100  207.3070  148.8010 C   0  0  0  0  0  3  0  0  0  0  0  0
  161.6050  207.7800  151.5120 C   0  0  0  0  0  0  0  0  0  0  0  0
  157.6260  210.5230  153.3160 C   0  0  0  0  0  3  0  0  0  0  0  0
  161.7480  208.5340  149.2260 C   0  0  0  0  0  3  0  0  0  0  0  0
  161.6730  209.6730  155.4490 C   0  0  1  0  0  3  0  0  0  0  0  0
  160.4940  211.8620  155.2530 N   0  0  0  0  0  2  0  0  0  0  0  0
  162.4770  209.9000  151.1820 N   0  0  0  0  0  2  0  0  0  0  0  0
  159.8930  211.8120  151.5930 O   0  0  0  0  0  1  0  0  0  0  0  0
  158.1110  211.7710  155.7690 C   0  0  0  0  0  3  0  0  0  0  0  0
  161.4500  210.8770  153.1840 C   0  0  1  0  0  3  0  0  0  0  0  0
  159.1500  211.6100  154.8520 C   0  0  0  0  0  0  0  0  0  0  0  0
  163.0680  210.4630  157.2610 O   0  0  0  0  0  1  0  0  0  0  0  0
  161.8560  209.8370  156.9630 C   0  0  0  0  0  2  0  0  0  0  0  0
  161.1150  203.9770  149.1860 C   0  0  0  0  0  3  0  0  0  0  0  0
  160.3720  205.0260  149.3320 N   0  0  0  0  0  0  0  0  0  0  0  0
  160.5170  202.6900  148.8050 C   0  0  0  0  0  0  0  0  0  0  0  0
  159.7200  202.1150  149.5930 O   0  0  0  0  0  0  0  0  0  0  0  0
  160.8190  202.0940  147.5460 N   0  0  0  0  0  1  0  0  0  0  0  0
  1  9  1  0  0  0  0
  2 21  1  6  0  0  0
  2 11  1  0  0  0  0
  2 24  1  0  0  0  0
  4 22  1  6  0  0  0
  4 24  1  0  0  0  0
  4  5  1  0  0  0  0
  5 25  1  0  0  0  0
  6 21  1  0  0  0  0
  6 16  1  0  0  0  0
  8 23  1  0  0  0  0
  9 16  2  0  0  0  0
 10  3  1  1  0  0  0
 10 19  1  0  0  0  0
 11  7  1  1  0  0  0
 11 12  1  0  0  0  0
 12  3  1  1  0  0  0
 12 10  1  0  0  0  0
 13 20  1  1  0  0  0
 13 19  1  0  0  0  0
 14  8  2  0  0  0  0
 15 18  1  0  0  0  0
 15  1  2  0  0  0  0
 16 11  1  0  0  0  0
 17  5  2  0  0  0  0
 17 14  1  0  0  0  0
 18  6  2  0  0  0  0
 19 27  1  1  0  0  0
 24 13  1  0  0  0  0
 25 20  1  0  0  0  0
 25 23  2  0  0  0  0
 27 26  1  0  0  0  0
 28 29  2  0  0  0  0
 29  1  1  0  0  0  0
 30 28  1  0  0  0  0
 30 31  2  0  0  0  0
 32 30  1  0  0  0  0
M  END
>  <MODEL>
3

>  <REMARK>
 VINA RESULT:      -3.7      9.913     14.136
  Name = 
  3 active torsions:
  status: ('A' for Active; 'I' for Inactive)
    1  A    between atoms: C_1  and  C_10
    2  A    between atoms: C_2  and  N_24
    3  A    between atoms: C_25  and  C_26
                            x       y       z     vdW  Elec       q    Type
                         _______ _______ _______ _____ _____    ______ ____

>  <TORSDO>
F 3

$$$$
