=
 OpenBabel11062408493D

 55 60  0  0  1  0  0  0  0  0999 V2000
  161.5880  205.2210  148.8470 C   0  0  0  0  0  2  0  0  0  0  0  0
  161.6230  205.7030  145.9470 C   0  0  2  0  0  3  0  0  0  0  0  0
  161.8840  206.8230  146.9490 C   0  0  0  0  0  2  0  0  0  0  0  0
  161.3140  204.0950  147.8550 C   0  0  0  0  0  2  0  0  0  0  0  0
  161.1350  206.5530  148.2540 C   0  0  2  0  0  3  0  0  0  0  0  0
  162.0490  204.3560  146.5440 C   0  0  0  0  0  2  0  0  0  0  0  0
  162.4060  205.9890  144.6760 C   0  0  0  0  0  2  0  0  0  0  0  0
  161.8570  206.4530  142.2550 N   0  0  0  0  0  2  0  0  0  0  0  0
  161.5570  205.7650  143.4720 C   0  0  0  0  0  0  0  0  0  0  0  0
  160.5980  204.9510  143.5280 O   0  0  0  0  0  0  0  0  0  0  0  0
  161.1620  206.1780  141.0060 C   0  0  0  0  0  2  0  0  0  0  0  0
  161.6120  207.1390  139.9150 C   0  0  2  0  0  3  0  0  0  0  0  0
  163.7010  206.0020  139.7000 O   0  0  0  0  0  1  0  0  0  0  0  0
  162.6980  206.4920  139.1090 C   0  0  0  0  0  0  0  0  0  0  0  0
  162.6540  206.4920  137.7210 O   0  0  0  0  0  0  0  0  0  0  0  0
  162.0810  208.3930  140.5150 N   0  0  0  0  0  2  0  0  0  0  0  0
  162.3200  209.8960  138.5960 C   0  0  1  0  0  3  0  0  0  0  0  0
  162.6640  210.7820  141.5880 F   0  0  0  0  0  0  0  0  0  0  0  0
  161.4890  209.5660  139.8560 C   0  0  2  0  0  0  0  0  0  0  0  0
  162.8960  213.6860  137.8440 C   0  0  0  0  0  3  0  0  0  0  0  0
  160.4120  211.0230  141.4820 F   0  0  0  0  0  0  0  0  0  0  0  0
  161.5650  210.8330  140.7400 C   0  0  0  0  0  0  0  0  0  0  0  0
  161.5930  209.6740  137.4170 O   0  0  0  0  0  1  0  0  0  0  0  0
  162.6590  214.1600  139.0860 C   0  0  0  0  0  3  0  0  0  0  0  0
  162.2970  213.2630  140.2480 C   0  0  0  0  0  2  0  0  0  0  0  0
  162.7210  211.3600  138.7400 C   0  0  2  0  0  3  0  0  0  0  0  0
  161.7420  211.9400  139.7270 C   0  0  1  0  0  3  0  0  0  0  0  0
  162.7330  212.2240  137.4790 C   0  0  0  0  0  2  0  0  0  0  0  0
  160.1550  209.3100  139.4930 O   0  0  0  0  0  1  0  0  0  0  0  0
  161.4030  207.6690  149.2470 C   0  0  0  0  0  2  0  0  0  0  0  0
  162.3270  208.7050  148.6340 C   0  0  0  0  0  2  0  0  0  0  0  0
  161.9680  210.0760  149.1610 C   0  0  0  0  0  2  0  0  0  0  0  0
  161.7110  210.9730  148.0400 N   0  0  0  0  0  2  0  0  0  0  0  0
  162.5770  213.2220  148.1030 C   0  0  0  0  0  2  0  0  0  0  0  0
  160.8150  213.6140  146.4710 C   0  0  1  0  0  3  0  0  0  0  0  0
  161.4060  212.3460  148.4770 C   0  0  1  0  0  0  0  0  0  0  0  0
  160.2350  212.9660  147.7210 C   0  0  0  0  0  2  0  0  0  0  0  0
  162.3190  213.6850  146.6820 C   0  0  0  0  0  2  0  0  0  0  0  0
  160.4980  212.8190  145.2310 C   0  0  0  0  0  0  0  0  0  0  0  0
  159.1790  212.5020  144.9270 O   0  0  0  0  0  1  0  0  0  0  0  0
  161.4210  212.4090  144.4780 O   0  0  0  0  0  0  0  0  0  0  0  0
  161.2310  212.4310  149.9960 C   0  0  0  0  0  2  0  0  0  0  0  0
  160.0360  213.2850  150.4260 C   0  0  0  0  0  2  0  0  0  0  0  0
  159.4390  212.8150  151.7560 C   0  0  1  0  0  3  0  0  0  0  0  0
  157.4780  213.3100  153.2070 C   0  0  0  0  0  2  0  0  0  0  0  0
  157.9240  212.9900  151.7910 C   0  0  0  0  0  3  0  0  0  0  0  0
  157.6000  214.4120  152.1860 C   0  0  0  0  0  2  0  0  0  0  0  0
  159.8090  211.3710  152.0560 C   0  0  0  0  0  2  0  0  0  0  0  0
  159.6240  211.0940  153.5370 C   0  0  0  0  0  2  0  0  0  0  0  0
  160.9880  210.8960  154.1740 C   0  0  0  0  0  2  0  0  0  0  0  0
  162.0130  209.3460  155.9400 C   0  0  0  0  0  2  0  0  0  0  0  0
  161.1060  209.5070  154.7870 C   0  0  1  0  0  0  0  0  0  0  0  0
  160.6110  209.4310  156.1010 O   0  0  0  0  0  0  0  0  0  0  0  0
  160.7610  208.2700  153.9730 C   0  0  0  0  0  2  0  0  0  0  0  0
  161.5370  208.2590  152.6700 C   0  0  0  0  0  1  0  0  0  0  0  0
  2  7  1  6  0  0  0
  2  6  1  0  0  0  0
  2  3  1  0  0  0  0
  3  5  1  0  0  0  0
  4  1  1  0  0  0  0
  5  1  1  0  0  0  0
  5 30  1  1  0  0  0
  6  4  1  0  0  0  0
  8  9  1  0  0  0  0
  9 10  2  0  0  0  0
  9  7  1  0  0  0  0
 11  8  1  0  0  0  0
 12 16  1  0  0  0  0
 12 11  1  1  0  0  0
 14 13  1  0  0  0  0
 14 12  1  0  0  0  0
 15 14  2  0  0  0  0
 17 23  1  6  0  0  0
 17 26  1  0  0  0  0
 17 19  1  0  0  0  0
 19 29  1  6  0  0  0
 19 16  1  0  0  0  0
 19 22  1  0  0  0  0
 20 24  2  0  0  0  0
 22 21  1  0  0  0  0
 22 18  1  0  0  0  0
 24 25  1  0  0  0  0
 26 28  1  6  0  0  0
 26 27  1  0  0  0  0
 27 25  1  1  0  0  0
 27 22  1  0  0  0  0
 28 20  1  0  0  0  0
 31 32  1  0  0  0  0
 31 30  1  0  0  0  0
 33 36  1  0  0  0  0
 33 32  1  0  0  0  0
 34 36  1  0  0  0  0
 35 39  1  6  0  0  0
 35 38  1  0  0  0  0
 35 37  1  0  0  0  0
 36 42  1  1  0  0  0
 37 36  1  0  0  0  0
 38 34  1  0  0  0  0
 40 39  1  0  0  0  0
 41 39  2  0  0  0  0
 42 43  1  0  0  0  0
 44 43  1  6  0  0  0
 44 46  1  0  0  0  0
 44 48  1  0  0  0  0
 46 47  1  0  0  0  0
 46 45  1  0  0  0  0
 47 45  1  0  0  0  0
 48 49  1  0  0  0  0
 49 50  1  0  0  0  0
 50 52  1  0  0  0  0
 51 53  1  0  0  0  0
 52 54  1  6  0  0  0
 52 51  1  0  0  0  0
 52 53  1  0  0  0  0
 55 54  1  0  0  0  0
M  END
>  <MODEL>
1

>  <REMARK>
 VINA RESULT:      -3.7      0.000      0.000
  Name = 
  22 active torsions:
  status: ('A' for Active; 'I' for Inactive)
    1  A    between atoms: C_2  and  C_28
    2  A    between atoms: C_2  and  C_44
    3  A    between atoms: C_5  and  C_19
    4  A    between atoms: C_6  and  N_46
    5  A    between atoms: C_8  and  CA_22
    6  A    between atoms: C_8  and  N_35
    7  A    between atoms: C_10  and  C_32
    8  A    between atoms: C_15  and  C_17
    9  A    between atoms: C_16  and  C_17
   10  A    between atoms: C_16  and  C_26
   11  A    between atoms: C_17  and  C_36
   12  A    between atoms: C_19  and  C_45
   13  A    between atoms: C_20  and  CA_22
   14  A    between atoms: CA_22  and  N_46
   15  A    between atoms: C_26  and  C_45
   16  A    between atoms: C_27  and  C_54
   17  A    between atoms: C_28  and  C_33
   18  A    between atoms: C_33  and  N_49
   19  A    between atoms: C_34  and  N_49
   20  A    between atoms: C_34  and  C_52
   21  A    between atoms: C_36  and  C_52
   22  A    between atoms: C_43  and  C_54
                            x       y       z     vdW  Elec       q    Type
                         _______ _______ _______ _____ _____    ______ ____

>  <TORSDO>
F 22

$$$$
=
 OpenBabel11062408493D

 55 60  0  0  1  0  0  0  0  0999 V2000
  161.4970  205.3750  149.0320 C   0  0  0  0  0  2  0  0  0  0  0  0
  161.6360  205.6470  146.1090 C   0  0  2  0  0  3  0  0  0  0  0  0
  161.8850  206.8320  147.0370 C   0  0  0  0  0  2  0  0  0  0  0  0
  161.2350  204.1850  148.1140 C   0  0  0  0  0  2  0  0  0  0  0  0
  161.0880  206.6670  148.3310 C   0  0  2  0  0  3  0  0  0  0  0  0
  162.0180  204.3390  146.8130 C   0  0  0  0  0  2  0  0  0  0  0  0
  162.4650  205.8290  144.8470 C   0  0  0  0  0  2  0  0  0  0  0  0
  161.9440  206.3980  142.4430 N   0  0  0  0  0  2  0  0  0  0  0  0
  161.6170  205.6740  143.6320 C   0  0  0  0  0  0  0  0  0  0  0  0
  160.6350  204.8860  143.6530 O   0  0  0  0  0  0  0  0  0  0  0  0
  161.2490  206.1900  141.1820 C   0  0  0  0  0  2  0  0  0  0  0  0
  161.6410  207.2550  140.1670 C   0  0  2  0  0  3  0  0  0  0  0  0
  162.3690  206.6870  137.9640 O   0  0  0  0  0  0  0  0  0  0  0  0
  162.6270  206.6700  139.2000 C   0  0  0  0  0  0  0  0  0  0  0  0
  163.7810  206.0420  139.6510 O   0  0  0  0  0  1  0  0  0  0  0  0
  162.2100  208.4180  140.8570 N   0  0  0  0  0  2  0  0  0  0  0  0
  161.4980  210.7390  141.1790 C   0  0  1  0  0  3  0  0  0  0  0  0
  159.8180  208.5710  139.6500 F   0  0  0  0  0  0  0  0  0  0  0  0
  161.9170  209.6700  140.1440 C   0  0  2  0  0  0  0  0  0  0  0  0
  158.5980  213.1320  140.1160 C   0  0  0  0  0  3  0  0  0  0  0  0
  161.1010  209.2190  137.8960 F   0  0  0  0  0  0  0  0  0  0  0  0
  160.7110  209.5290  139.1880 C   0  0  0  0  0  0  0  0  0  0  0  0
  162.4420  211.7710  141.2770 O   0  0  0  0  0  1  0  0  0  0  0  0
  158.0650  212.3580  139.1460 C   0  0  0  0  0  3  0  0  0  0  0  0
  158.6240  211.0010  138.7820 C   0  0  0  0  0  2  0  0  0  0  0  0
  160.1450  211.2600  140.7050 C   0  0  2  0  0  3  0  0  0  0  0  0
  160.0750  210.9000  139.2430 C   0  0  1  0  0  3  0  0  0  0  0  0
  159.8590  212.7530  140.8670 C   0  0  0  0  0  2  0  0  0  0  0  0
  163.0480  210.1120  139.4350 O   0  0  0  0  0  1  0  0  0  0  0  0
  161.3440  207.8480  149.2520 C   0  0  0  0  0  2  0  0  0  0  0  0
  162.1980  208.8850  148.5470 C   0  0  0  0  0  2  0  0  0  0  0  0
  161.8810  210.2570  149.0980 C   0  0  0  0  0  2  0  0  0  0  0  0
  161.8560  211.2230  148.0040 N   0  0  0  0  0  2  0  0  0  0  0  0
  162.3100  213.5880  148.1130 C   0  0  0  0  0  2  0  0  0  0  0  0
  160.6210  213.6760  146.3630 C   0  0  1  0  0  3  0  0  0  0  0  0
  161.2870  212.5190  148.4120 C   0  0  1  0  0  0  0  0  0  0  0  0
  160.0800  212.9290  147.5760 C   0  0  0  0  0  2  0  0  0  0  0  0
  162.0710  214.0070  146.6750 C   0  0  0  0  0  2  0  0  0  0  0  0
  160.5320  212.8460  145.1100 C   0  0  0  0  0  0  0  0  0  0  0  0
  161.6350  212.7330  144.2710 O   0  0  0  0  0  0  0  0  0  0  0  0
  159.4550  212.2730  144.7950 O   0  0  0  0  0  1  0  0  0  0  0  0
  160.9980  212.5630  149.9150 C   0  0  0  0  0  2  0  0  0  0  0  0
  159.8030  213.4450  150.2810 C   0  0  0  0  0  2  0  0  0  0  0  0
  159.5280  213.4480  151.7880 C   0  0  1  0  0  3  0  0  0  0  0  0
  157.2390  214.2710  151.2550 C   0  0  0  0  0  2  0  0  0  0  0  0
  158.4420  214.4510  152.1640 C   0  0  0  0  0  3  0  0  0  0  0  0
  157.2230  213.7020  152.6510 C   0  0  0  0  0  2  0  0  0  0  0  0
  159.1610  212.0620  152.2930 C   0  0  0  0  0  2  0  0  0  0  0  0
  160.3060  211.4990  153.1150 C   0  0  0  0  0  2  0  0  0  0  0  0
  159.7620  210.4390  154.0560 C   0  0  0  0  0  2  0  0  0  0  0  0
  161.4570  209.1450  155.4780 C   0  0  0  0  0  2  0  0  0  0  0  0
  160.7410  209.2800  154.1950 C   0  0  1  0  0  0  0  0  0  0  0  0
  160.3490  208.3300  155.1540 O   0  0  0  0  0  0  0  0  0  0  0  0
  161.3530  208.6330  152.9640 C   0  0  0  0  0  2  0  0  0  0  0  0
  160.9500  207.1740  152.8740 C   0  0  0  0  0  1  0  0  0  0  0  0
  2  7  1  6  0  0  0
  2  6  1  0  0  0  0
  2  3  1  0  0  0  0
  3  5  1  0  0  0  0
  4  1  1  0  0  0  0
  5  1  1  0  0  0  0
  5 30  1  1  0  0  0
  6  4  1  0  0  0  0
  8  9  1  0  0  0  0
  9 10  2  0  0  0  0
  9  7  1  0  0  0  0
 11  8  1  0  0  0  0
 12 16  1  0  0  0  0
 12 11  1  1  0  0  0
 13 14  2  0  0  0  0
 14 15  1  0  0  0  0
 14 12  1  0  0  0  0
 17 23  1  6  0  0  0
 19 29  1  6  0  0  0
 19 16  1  0  0  0  0
 19 17  1  0  0  0  0
 20 28  1  0  0  0  0
 21 22  1  0  0  0  0
 22 27  1  0  0  0  0
 22 18  1  0  0  0  0
 22 19  1  0  0  0  0
 24 20  2  0  0  0  0
 25 24  1  0  0  0  0
 26 28  1  6  0  0  0
 26 17  1  0  0  0  0
 27 25  1  1  0  0  0
 27 26  1  0  0  0  0
 31 32  1  0  0  0  0
 31 30  1  0  0  0  0
 33 36  1  0  0  0  0
 33 32  1  0  0  0  0
 34 36  1  0  0  0  0
 35 39  1  6  0  0  0
 35 38  1  0  0  0  0
 35 37  1  0  0  0  0
 36 42  1  1  0  0  0
 37 36  1  0  0  0  0
 38 34  1  0  0  0  0
 40 39  2  0  0  0  0
 41 39  1  0  0  0  0
 42 43  1  0  0  0  0
 44 43  1  6  0  0  0
 44 46  1  0  0  0  0
 44 48  1  0  0  0  0
 45 46  1  0  0  0  0
 45 47  1  0  0  0  0
 46 47  1  0  0  0  0
 48 49  1  0  0  0  0
 49 50  1  0  0  0  0
 50 52  1  0  0  0  0
 52 54  1  6  0  0  0
 52 53  1  0  0  0  0
 52 51  1  0  0  0  0
 53 51  1  0  0  0  0
 55 54  1  0  0  0  0
M  END
>  <MODEL>
2

>  <REMARK>
 VINA RESULT:      -3.5      1.457      2.001
  Name = 
  22 active torsions:
  status: ('A' for Active; 'I' for Inactive)
    1  A    between atoms: C_2  and  C_28
    2  A    between atoms: C_2  and  C_44
    3  A    between atoms: C_5  and  C_19
    4  A    between atoms: C_6  and  N_46
    5  A    between atoms: C_8  and  CA_22
    6  A    between atoms: C_8  and  N_35
    7  A    between atoms: C_10  and  C_32
    8  A    between atoms: C_15  and  C_17
    9  A    between atoms: C_16  and  C_17
   10  A    between atoms: C_16  and  C_26
   11  A    between atoms: C_17  and  C_36
   12  A    between atoms: C_19  and  C_45
   13  A    between atoms: C_20  and  CA_22
   14  A    between atoms: CA_22  and  N_46
   15  A    between atoms: C_26  and  C_45
   16  A    between atoms: C_27  and  C_54
   17  A    between atoms: C_28  and  C_33
   18  A    between atoms: C_33  and  N_49
   19  A    between atoms: C_34  and  N_49
   20  A    between atoms: C_34  and  C_52
   21  A    between atoms: C_36  and  C_52
   22  A    between atoms: C_43  and  C_54
                            x       y       z     vdW  Elec       q    Type
                         _______ _______ _______ _____ _____    ______ ____

>  <TORSDO>
F 22

$$$$
=
 OpenBabel11062408493D

 55 60  0  0  1  0  0  0  0  0999 V2000
  161.2540  204.0530  147.1290 C   0  0  0  0  0  2  0  0  0  0  0  0
  161.5440  205.3770  144.5210 C   0  0  2  0  0  3  0  0  0  0  0  0
  161.2820  206.1700  145.7970 C   0  0  0  0  0  2  0  0  0  0  0  0
  161.5040  203.2480  145.8580 C   0  0  0  0  0  2  0  0  0  0  0  0
  160.4830  205.3270  146.7900 C   0  0  2  0  0  3  0  0  0  0  0  0
  162.2940  204.0810  144.8530 C   0  0  0  0  0  2  0  0  0  0  0  0
  162.3650  206.2340  143.5700 C   0  0  0  0  0  2  0  0  0  0  0  0
  162.2670  207.0660  141.1880 N   0  0  0  0  0  2  0  0  0  0  0  0
  161.8390  206.1290  142.1790 C   0  0  0  0  0  0  0  0  0  0  0  0
  161.0450  205.1990  141.8810 O   0  0  0  0  0  0  0  0  0  0  0  0
  161.9090  206.9410  139.7830 C   0  0  0  0  0  2  0  0  0  0  0  0
  161.4050  208.2690  139.2340 C   0  0  2  0  0  3  0  0  0  0  0  0
  161.8150  207.4850  137.0160 O   0  0  0  0  0  0  0  0  0  0  0  0
  161.0270  208.0910  137.7940 C   0  0  0  0  0  0  0  0  0  0  0  0
  159.8600  208.6500  137.2880 O   0  0  0  0  0  1  0  0  0  0  0  0
  162.4410  209.2960  139.3820 N   0  0  0  0  0  2  0  0  0  0  0  0
  162.9260  211.6280  139.9530 C   0  0  1  0  0  3  0  0  0  0  0  0
  160.7760  209.8620  141.4080 F   0  0  0  0  0  0  0  0  0  0  0  0
  161.8670  210.6500  139.3960 C   0  0  2  0  0  0  0  0  0  0  0  0
  161.6060  214.4430  142.3190 C   0  0  0  0  0  3  0  0  0  0  0  0
  159.4540  210.5660  139.7050 F   0  0  0  0  0  0  0  0  0  0  0  0
  160.6600  210.7620  140.3560 C   0  0  0  0  0  0  0  0  0  0  0  0
  163.3730  212.5280  138.9740 O   0  0  0  0  0  1  0  0  0  0  0  0
  160.4440  213.8560  142.6760 C   0  0  0  0  0  3  0  0  0  0  0  0
  160.0220  212.4980  142.1620 C   0  0  0  0  0  2  0  0  0  0  0  0
  162.2470  212.3520  141.1120 C   0  0  2  0  0  3  0  0  0  0  0  0
  160.7690  212.1790  140.8710 C   0  0  1  0  0  3  0  0  0  0  0  0
  162.5520  213.8370  141.3020 C   0  0  0  0  0  2  0  0  0  0  0  0
  161.4920  211.0430  138.0990 O   0  0  0  0  0  1  0  0  0  0  0  0
  160.2300  206.1210  148.0600 C   0  0  0  0  0  2  0  0  0  0  0  0
  161.4280  206.9960  148.3770 C   0  0  0  0  0  2  0  0  0  0  0  0
  161.8620  206.7580  149.8050 C   0  0  0  0  0  2  0  0  0  0  0  0
  160.9800  205.7720  150.4210 N   0  0  0  0  0  2  0  0  0  0  0  0
  160.3780  204.8680  152.5730 C   0  0  0  0  0  2  0  0  0  0  0  0
  161.2070  202.8020  151.5890 C   0  0  1  0  0  3  0  0  0  0  0  0
  161.5340  205.2250  151.6700 C   0  0  1  0  0  0  0  0  0  0  0  0
  162.2580  203.8980  151.4690 C   0  0  0  0  0  2  0  0  0  0  0  0
  159.9780  203.4530  152.2040 C   0  0  0  0  0  2  0  0  0  0  0  0
  160.8670  202.2060  150.2480 C   0  0  0  0  0  0  0  0  0  0  0  0
  161.3100  200.9290  149.9230 O   0  0  0  0  0  1  0  0  0  0  0  0
  160.2080  202.8650  149.4010 O   0  0  0  0  0  0  0  0  0  0  0  0
  162.3960  206.2540  152.4070 C   0  0  0  0  0  2  0  0  0  0  0  0
  161.9880  206.4590  153.8670 C   0  0  0  0  0  2  0  0  0  0  0  0
  161.1370  207.7180  154.0580 C   0  0  1  0  0  3  0  0  0  0  0  0
  159.6890  208.3420  155.9850 C   0  0  0  0  0  2  0  0  0  0  0  0
  161.1230  208.1790  155.5120 C   0  0  0  0  0  3  0  0  0  0  0  0
  160.4740  207.1120  156.3630 C   0  0  0  0  0  2  0  0  0  0  0  0
  161.5990  208.8480  153.1530 C   0  0  0  0  0  2  0  0  0  0  0  0
  160.4080  209.4280  152.4110 C   0  0  0  0  0  2  0  0  0  0  0  0
  160.5520  210.9380  152.3530 C   0  0  0  0  0  2  0  0  0  0  0  0
  158.6210  212.4900  153.0130 C   0  0  0  0  0  2  0  0  0  0  0  0
  159.7220  211.6060  153.4420 C   0  0  1  0  0  0  0  0  0  0  0  0
  158.3850  211.1740  153.4710 O   0  0  0  0  0  0  0  0  0  0  0  0
  160.2910  211.8000  154.8380 C   0  0  0  0  0  2  0  0  0  0  0  0
  159.2040  211.6340  155.8820 C   0  0  0  0  0  1  0  0  0  0  0  0
  2  7  1  6  0  0  0
  2  6  1  0  0  0  0
  2  3  1  0  0  0  0
  3  5  1  0  0  0  0
  4  1  1  0  0  0  0
  5  1  1  0  0  0  0
  5 30  1  1  0  0  0
  6  4  1  0  0  0  0
  8  9  1  0  0  0  0
  9  7  1  0  0  0  0
 10  9  2  0  0  0  0
 11  8  1  0  0  0  0
 12 16  1  0  0  0  0
 12 11  1  6  0  0  0
 13 14  2  0  0  0  0
 14 12  1  0  0  0  0
 15 14  1  0  0  0  0
 16 19  1  0  0  0  0
 17 23  1  6  0  0  0
 17 26  1  0  0  0  0
 19 29  1  6  0  0  0
 19 17  1  0  0  0  0
 19 22  1  0  0  0  0
 20 24  2  0  0  0  0
 21 22  1  0  0  0  0
 22 27  1  0  0  0  0
 22 18  1  0  0  0  0
 25 24  1  0  0  0  0
 26 28  1  6  0  0  0
 27 26  1  0  0  0  0
 27 25  1  1  0  0  0
 28 20  1  0  0  0  0
 30 31  1  0  0  0  0
 31 32  1  0  0  0  0
 32 33  1  0  0  0  0
 33 36  1  0  0  0  0
 35 39  1  6  0  0  0
 35 38  1  0  0  0  0
 36 42  1  1  0  0  0
 36 34  1  0  0  0  0
 37 35  1  0  0  0  0
 37 36  1  0  0  0  0
 38 34  1  0  0  0  0
 40 39  1  0  0  0  0
 41 39  2  0  0  0  0
 42 43  1  0  0  0  0
 43 44  1  0  0  0  0
 44 48  1  6  0  0  0
 44 46  1  0  0  0  0
 45 47  1  0  0  0  0
 46 45  1  0  0  0  0
 46 47  1  0  0  0  0
 49 48  1  0  0  0  0
 50 49  1  0  0  0  0
 51 52  1  0  0  0  0
 51 53  1  0  0  0  0
 52 50  1  6  0  0  0
 52 53  1  0  0  0  0
 52 54  1  0  0  0  0
 54 55  1  0  0  0  0
M  END
>  <MODEL>
3

>  <REMARK>
 VINA RESULT:      -3.4      2.623      5.410
  Name = 
  22 active torsions:
  status: ('A' for Active; 'I' for Inactive)
    1  A    between atoms: C_2  and  C_28
    2  A    between atoms: C_2  and  C_44
    3  A    between atoms: C_5  and  C_19
    4  A    between atoms: C_6  and  N_46
    5  A    between atoms: C_8  and  CA_22
    6  A    between atoms: C_8  and  N_35
    7  A    between atoms: C_10  and  C_32
    8  A    between atoms: C_15  and  C_17
    9  A    between atoms: C_16  and  C_17
   10  A    between atoms: C_16  and  C_26
   11  A    between atoms: C_17  and  C_36
   12  A    between atoms: C_19  and  C_45
   13  A    between atoms: C_20  and  CA_22
   14  A    between atoms: CA_22  and  N_46
   15  A    between atoms: C_26  and  C_45
   16  A    between atoms: C_27  and  C_54
   17  A    between atoms: C_28  and  C_33
   18  A    between atoms: C_33  and  N_49
   19  A    between atoms: C_34  and  N_49
   20  A    between atoms: C_34  and  C_52
   21  A    between atoms: C_36  and  C_52
   22  A    between atoms: C_43  and  C_54
                            x       y       z     vdW  Elec       q    Type
                         _______ _______ _______ _____ _____    ______ ____

>  <TORSDO>
F 22

$$$$
=
 OpenBabel11062408493D

 55 60  0  0  1  0  0  0  0  0999 V2000
  161.3520  212.6220  147.0980 C   0  0  0  0  0  2  0  0  0  0  0  0
  160.4930  213.1040  149.8670 C   0  0  2  0  0  3  0  0  0  0  0  0
  159.4960  213.0740  148.7130 C   0  0  0  0  0  2  0  0  0  0  0  0
  162.3600  212.6610  148.2430 C   0  0  0  0  0  2  0  0  0  0  0  0
  160.1700  213.5330  147.4190 C   0  0  2  0  0  3  0  0  0  0  0  0
  161.6990  212.2140  149.5430 C   0  0  0  0  0  2  0  0  0  0  0  0
  159.7980  212.6140  151.1280 C   0  0  0  0  0  2  0  0  0  0  0  0
  161.3850  210.6640  150.8940 N   0  0  0  0  0  2  0  0  0  0  0  0
  160.5320  211.4610  151.7210 C   0  0  0  0  0  0  0  0  0  0  0  0
  160.4180  211.2140  152.9500 O   0  0  0  0  0  0  0  0  0  0  0  0
  162.2390  209.6150  151.4300 C   0  0  0  0  0  2  0  0  0  0  0  0
  161.5220  208.2720  151.4100 C   0  0  2  0  0  3  0  0  0  0  0  0
  161.6280  206.4330  152.9300 O   0  0  0  0  0  0  0  0  0  0  0  0
  161.5440  207.6850  152.7890 C   0  0  0  0  0  0  0  0  0  0  0  0
  161.3960  208.4920  153.9110 O   0  0  0  0  0  1  0  0  0  0  0  0
  162.1680  207.3740  150.4470 N   0  0  0  0  0  2  0  0  0  0  0  0
  161.4200  205.0650  150.1190 C   0  0  1  0  0  3  0  0  0  0  0  0
  162.7060  206.8430  147.8720 F   0  0  0  0  0  0  0  0  0  0  0  0
  161.1870  206.5440  149.7330 C   0  0  2  0  0  0  0  0  0  0  0  0
  161.0350  202.4470  147.2450 C   0  0  0  0  0  3  0  0  0  0  0  0
  160.5710  207.5600  147.6090 F   0  0  0  0  0  0  0  0  0  0  0  0
  161.3770  206.6030  148.2000 C   0  0  0  0  0  0  0  0  0  0  0  0
  160.3520  204.5460  150.8650 O   0  0  0  0  0  1  0  0  0  0  0  0
  161.2050  203.2890  146.2020 C   0  0  0  0  0  3  0  0  0  0  0  0
  161.4580  204.7690  146.3790 C   0  0  0  0  0  2  0  0  0  0  0  0
  161.5970  204.3210  148.7990 C   0  0  2  0  0  3  0  0  0  0  0  0
  160.9760  205.2150  147.7570 C   0  0  1  0  0  3  0  0  0  0  0  0
  160.9920  202.9220  148.6830 C   0  0  0  0  0  2  0  0  0  0  0  0
  159.8760  206.9240  150.0730 O   0  0  0  0  0  1  0  0  0  0  0  0
  159.1740  213.4960  146.2740 C   0  0  0  0  0  2  0  0  0  0  0  0
  159.6720  214.3450  145.1190 C   0  0  0  0  0  2  0  0  0  0  0  0
  160.5230  213.4980  144.2010 C   0  0  0  0  0  2  0  0  0  0  0  0
  159.6570  212.7220  143.3180 N   0  0  0  0  0  2  0  0  0  0  0  0
  160.3390  213.8000  141.2730 C   0  0  0  0  0  2  0  0  0  0  0  0
  162.5660  213.3110  142.1230 C   0  0  1  0  0  3  0  0  0  0  0  0
  160.2690  212.4800  142.0010 C   0  0  1  0  0  0  0  0  0  0  0  0
  161.7260  212.0410  142.0930 C   0  0  0  0  0  2  0  0  0  0  0  0
  161.6470  214.4430  141.6920 C   0  0  0  0  0  2  0  0  0  0  0  0
  163.1200  213.5820  143.4970 C   0  0  0  0  0  0  0  0  0  0  0  0
  164.2550  214.3710  143.6460 O   0  0  0  0  0  0  0  0  0  0  0  0
  162.5820  213.0750  144.5170 O   0  0  0  0  0  1  0  0  0  0  0  0
  159.4250  211.5270  141.1510 C   0  0  0  0  0  2  0  0  0  0  0  0
  159.1510  212.0470  139.7380 C   0  0  0  0  0  2  0  0  0  0  0  0
  157.8100  211.5520  139.1900 C   0  0  1  0  0  3  0  0  0  0  0  0
  156.2650  213.3980  139.8240 C   0  0  0  0  0  2  0  0  0  0  0  0
  156.9530  212.7000  138.6640 C   0  0  0  0  0  3  0  0  0  0  0  0
  157.4950  214.0060  139.1980 C   0  0  0  0  0  2  0  0  0  0  0  0
  158.0010  210.5010  138.1090 C   0  0  0  0  0  2  0  0  0  0  0  0
  156.9680  209.4020  138.2760 C   0  0  0  0  0  2  0  0  0  0  0  0
  155.8410  209.6310  137.2850 C   0  0  0  0  0  2  0  0  0  0  0  0
  153.5580  210.7960  137.2780 C   0  0  0  0  0  2  0  0  0  0  0  0
  154.5430  209.9730  138.0060 C   0  0  1  0  0  0  0  0  0  0  0  0
  153.4060  209.3980  137.4130 O   0  0  0  0  0  0  0  0  0  0  0  0
  154.4730  209.9500  139.5240 C   0  0  0  0  0  2  0  0  0  0  0  0
  153.5540  208.8390  139.9960 C   0  0  0  0  0  1  0  0  0  0  0  0
  1  5  1  0  0  0  0
  1  4  1  0  0  0  0
  2  7  1  1  0  0  0
  3  2  1  0  0  0  0
  4  6  1  0  0  0  0
  5 30  1  6  0  0  0
  5  3  1  0  0  0  0
  6  2  1  0  0  0  0
  7  9  1  0  0  0  0
  8 11  1  0  0  0  0
  8  9  1  0  0  0  0
  9 10  2  0  0  0  0
 12 11  1  1  0  0  0
 12 14  1  0  0  0  0
 14 13  2  0  0  0  0
 14 15  1  0  0  0  0
 16 12  1  0  0  0  0
 17 23  1  6  0  0  0
 18 22  1  0  0  0  0
 19 29  1  1  0  0  0
 19 17  1  0  0  0  0
 19 16  1  0  0  0  0
 20 28  1  0  0  0  0
 21 22  1  0  0  0  0
 22 19  1  0  0  0  0
 24 25  1  0  0  0  0
 24 20  2  0  0  0  0
 26 28  1  1  0  0  0
 26 17  1  0  0  0  0
 27 25  1  6  0  0  0
 27 22  1  0  0  0  0
 27 26  1  0  0  0  0
 31 30  1  0  0  0  0
 32 31  1  0  0  0  0
 33 32  1  0  0  0  0
 34 38  1  0  0  0  0
 34 36  1  0  0  0  0
 35 39  1  1  0  0  0
 36 42  1  6  0  0  0
 36 37  1  0  0  0  0
 36 33  1  0  0  0  0
 37 35  1  0  0  0  0
 38 35  1  0  0  0  0
 39 40  2  0  0  0  0
 39 41  1  0  0  0  0
 43 42  1  0  0  0  0
 44 48  1  6  0  0  0
 44 43  1  0  0  0  0
 46 44  1  0  0  0  0
 46 47  1  0  0  0  0
 46 45  1  0  0  0  0
 47 45  1  0  0  0  0
 48 49  1  0  0  0  0
 50 49  1  0  0  0  0
 51 53  1  0  0  0  0
 51 52  1  0  0  0  0
 52 50  1  6  0  0  0
 52 54  1  0  0  0  0
 53 52  1  0  0  0  0
 54 55  1  0  0  0  0
M  END
>  <MODEL>
4

>  <REMARK>
 VINA RESULT:      -2.3      3.921     11.422
  Name = 
  22 active torsions:
  status: ('A' for Active; 'I' for Inactive)
    1  A    between atoms: C_2  and  C_28
    2  A    between atoms: C_2  and  C_44
    3  A    between atoms: C_5  and  C_19
    4  A    between atoms: C_6  and  N_46
    5  A    between atoms: C_8  and  CA_22
    6  A    between atoms: C_8  and  N_35
    7  A    between atoms: C_10  and  C_32
    8  A    between atoms: C_15  and  C_17
    9  A    between atoms: C_16  and  C_17
   10  A    between atoms: C_16  and  C_26
   11  A    between atoms: C_17  and  C_36
   12  A    between atoms: C_19  and  C_45
   13  A    between atoms: C_20  and  CA_22
   14  A    between atoms: CA_22  and  N_46
   15  A    between atoms: C_26  and  C_45
   16  A    between atoms: C_27  and  C_54
   17  A    between atoms: C_28  and  C_33
   18  A    between atoms: C_33  and  N_49
   19  A    between atoms: C_34  and  N_49
   20  A    between atoms: C_34  and  C_52
   21  A    between atoms: C_36  and  C_52
   22  A    between atoms: C_43  and  C_54
                            x       y       z     vdW  Elec       q    Type
                         _______ _______ _______ _____ _____    ______ ____

>  <TORSDO>
F 22

$$$$
=
 OpenBabel11062408493D

 55 60  0  0  1  0  0  0  0  0999 V2000
  162.9570  208.6100  140.7190 C   0  0  0  0  0  2  0  0  0  0  0  0
  161.1630  208.8280  138.4010 C   0  0  2  0  0  3  0  0  0  0  0  0
  161.0580  207.6710  139.3890 C   0  0  0  0  0  2  0  0  0  0  0  0
  163.0790  209.7660  139.7310 C   0  0  0  0  0  2  0  0  0  0  0  0
  162.4270  207.3710  140.0010 C   0  0  2  0  0  3  0  0  0  0  0  0
  161.7210  210.0710  139.1050 C   0  0  0  0  0  2  0  0  0  0  0  0
  159.7810  209.1170  137.8350 C   0  0  0  0  0  2  0  0  0  0  0  0
  160.0460  211.6050  138.1750 N   0  0  0  0  0  2  0  0  0  0  0  0
  159.2650  210.4190  138.3440 C   0  0  0  0  0  0  0  0  0  0  0  0
  158.1330  210.4700  138.8940 O   0  0  0  0  0  0  0  0  0  0  0  0
  159.5470  212.9290  138.5160 C   0  0  0  0  0  2  0  0  0  0  0  0
  159.0830  212.9730  139.9660 C   0  0  2  0  0  3  0  0  0  0  0  0
  157.1210  213.9030  138.9740 O   0  0  0  0  0  0  0  0  0  0  0  0
  157.7640  213.6820  140.0370 C   0  0  0  0  0  0  0  0  0  0  0  0
  157.2780  214.1660  141.2450 O   0  0  0  0  0  1  0  0  0  0  0  0
  160.0890  213.6520  140.7920 N   0  0  0  0  0  2  0  0  0  0  0  0
  159.7520  213.4310  143.2080 C   0  0  1  0  0  3  0  0  0  0  0  0
  162.4960  214.1560  141.8640 F   0  0  0  0  0  0  0  0  0  0  0  0
  160.4620  212.8480  141.9650 C   0  0  2  0  0  0  0  0  0  0  0  0
  161.8300  213.4980  146.5150 C   0  0  0  0  0  3  0  0  0  0  0  0
  162.6890  211.9030  141.6970 F   0  0  0  0  0  0  0  0  0  0  0  0
  161.9730  212.9370  142.2770 C   0  0  0  0  0  0  0  0  0  0  0  0
  158.7860  212.5520  143.7190 O   0  0  0  0  0  1  0  0  0  0  0  0
  163.0600  213.4160  145.9640 C   0  0  0  0  0  3  0  0  0  0  0  0
  163.2820  213.3340  144.4700 C   0  0  0  0  0  2  0  0  0  0  0  0
  160.8580  213.7020  144.2230 C   0  0  2  0  0  3  0  0  0  0  0  0
  162.0130  212.8390  143.7840 C   0  0  1  0  0  3  0  0  0  0  0  0
  160.5570  213.4260  145.6960 C   0  0  0  0  0  2  0  0  0  0  0  0
  160.0820  211.5060  141.7870 O   0  0  0  0  0  1  0  0  0  0  0  0
  162.3140  206.2220  140.9870 C   0  0  0  0  0  2  0  0  0  0  0  0
  161.6230  206.6860  142.2560 C   0  0  0  0  0  2  0  0  0  0  0  0
  161.4980  205.5250  143.2150 C   0  0  0  0  0  2  0  0  0  0  0  0
  161.6380  206.0110  144.5840 N   0  0  0  0  0  2  0  0  0  0  0  0
  162.9960  204.5550  145.9420 C   0  0  0  0  0  2  0  0  0  0  0  0
  162.1010  205.9180  147.7490 C   0  0  1  0  0  3  0  0  0  0  0  0
  161.5800  204.9240  145.5760 C   0  0  1  0  0  0  0  0  0  0  0  0
  160.9650  205.3590  146.9010 C   0  0  0  0  0  2  0  0  0  0  0  0
  163.3920  205.4810  147.0760 C   0  0  0  0  0  2  0  0  0  0  0  0
  162.0410  207.4200  147.8420 C   0  0  0  0  0  0  0  0  0  0  0  0
  160.8210  208.0760  147.7270 O   0  0  0  0  0  0  0  0  0  0  0  0
  163.0940  208.0950  147.9950 O   0  0  0  0  0  1  0  0  0  0  0  0
  160.9080  203.6720  145.0040 C   0  0  0  0  0  2  0  0  0  0  0  0
  161.4420  202.3670  145.5980 C   0  0  0  0  0  2  0  0  0  0  0  0
  160.4550  201.7330  146.5820 C   0  0  1  0  0  3  0  0  0  0  0  0
  160.0770  200.4270  144.4960 C   0  0  0  0  0  2  0  0  0  0  0  0
  159.7440  200.5270  145.9740 C   0  0  0  0  0  3  0  0  0  0  0  0
  160.7780  199.5360  145.4910 C   0  0  0  0  0  2  0  0  0  0  0  0
  161.1340  201.3420  147.8840 C   0  0  0  0  0  2  0  0  0  0  0  0
  160.4190  202.0000  149.0500 C   0  0  0  0  0  2  0  0  0  0  0  0
  161.4410  202.3660  150.1110 C   0  0  0  0  0  2  0  0  0  0  0  0
  160.7190  203.1220  152.4520 C   0  0  0  0  0  2  0  0  0  0  0  0
  160.9070  203.4600  151.0270 C   0  0  1  0  0  0  0  0  0  0  0  0
  161.8300  203.8720  152.0040 O   0  0  0  0  0  0  0  0  0  0  0  0
  160.1150  204.6260  150.4590 C   0  0  0  0  0  2  0  0  0  0  0  0
  160.8710  205.9260  150.6530 C   0  0  0  0  0  1  0  0  0  0  0  0
  2  7  1  1  0  0  0
  2  6  1  0  0  0  0
  2  3  1  0  0  0  0
  3  5  1  0  0  0  0
  4  1  1  0  0  0  0
  5  1  1  0  0  0  0
  5 30  1  1  0  0  0
  6  4  1  0  0  0  0
  7  9  1  0  0  0  0
  8  9  1  0  0  0  0
  8 11  1  0  0  0  0
  9 10  2  0  0  0  0
 12 11  1  6  0  0  0
 12 14  1  0  0  0  0
 12 16  1  0  0  0  0
 13 14  2  0  0  0  0
 14 15  1  0  0  0  0
 16 19  1  0  0  0  0
 17 23  1  1  0  0  0
 17 26  1  0  0  0  0
 18 22  1  0  0  0  0
 19 29  1  6  0  0  0
 19 22  1  0  0  0  0
 19 17  1  0  0  0  0
 21 22  1  0  0  0  0
 22 27  1  0  0  0  0
 24 20  2  0  0  0  0
 25 24  1  0  0  0  0
 26 28  1  1  0  0  0
 27 26  1  0  0  0  0
 27 25  1  1  0  0  0
 28 20  1  0  0  0  0
 30 31  1  0  0  0  0
 31 32  1  0  0  0  0
 32 33  1  0  0  0  0
 33 36  1  0  0  0  0
 34 38  1  0  0  0  0
 35 39  1  6  0  0  0
 36 42  1  6  0  0  0
 36 34  1  0  0  0  0
 36 37  1  0  0  0  0
 37 35  1  0  0  0  0
 38 35  1  0  0  0  0
 39 41  1  0  0  0  0
 40 39  2  0  0  0  0
 42 43  1  0  0  0  0
 44 43  1  6  0  0  0
 44 48  1  0  0  0  0
 45 47  1  0  0  0  0
 45 46  1  0  0  0  0
 46 44  1  0  0  0  0
 47 46  1  0  0  0  0
 48 49  1  0  0  0  0
 49 50  1  0  0  0  0
 52 50  1  6  0  0  0
 52 53  1  0  0  0  0
 52 51  1  0  0  0  0
 53 51  1  0  0  0  0
 54 55  1  0  0  0  0
 54 52  1  0  0  0  0
M  END
>  <MODEL>
5

>  <REMARK>
 VINA RESULT:      -2.1      3.767      8.286
  Name = 
  22 active torsions:
  status: ('A' for Active; 'I' for Inactive)
    1  A    between atoms: C_2  and  C_28
    2  A    between atoms: C_2  and  C_44
    3  A    between atoms: C_5  and  C_19
    4  A    between atoms: C_6  and  N_46
    5  A    between atoms: C_8  and  CA_22
    6  A    between atoms: C_8  and  N_35
    7  A    between atoms: C_10  and  C_32
    8  A    between atoms: C_15  and  C_17
    9  A    between atoms: C_16  and  C_17
   10  A    between atoms: C_16  and  C_26
   11  A    between atoms: C_17  and  C_36
   12  A    between atoms: C_19  and  C_45
   13  A    between atoms: C_20  and  CA_22
   14  A    between atoms: CA_22  and  N_46
   15  A    between atoms: C_26  and  C_45
   16  A    between atoms: C_27  and  C_54
   17  A    between atoms: C_28  and  C_33
   18  A    between atoms: C_33  and  N_49
   19  A    between atoms: C_34  and  N_49
   20  A    between atoms: C_34  and  C_52
   21  A    between atoms: C_36  and  C_52
   22  A    between atoms: C_43  and  C_54
                            x       y       z     vdW  Elec       q    Type
                         _______ _______ _______ _____ _____    ______ ____

>  <TORSDO>
F 22

$$$$
=
 OpenBabel11062408493D

 55 60  0  0  1  0  0  0  0  0999 V2000
  161.2210  204.2130  146.8720 C   0  0  0  0  0  2  0  0  0  0  0  0
  161.6590  205.3980  144.2180 C   0  0  2  0  0  3  0  0  0  0  0  0
  161.4620  206.2630  145.4590 C   0  0  0  0  0  2  0  0  0  0  0  0
  161.4060  203.3370  145.6360 C   0  0  0  0  0  2  0  0  0  0  0  0
  160.5770  205.5380  146.4740 C   0  0  2  0  0  3  0  0  0  0  0  0
  162.2800  204.0510  144.6100 C   0  0  0  0  0  2  0  0  0  0  0  0
  162.5650  206.1350  143.2450 C   0  0  0  0  0  2  0  0  0  0  0  0
  162.3020  207.2640  141.0020 N   0  0  0  0  0  2  0  0  0  0  0  0
  161.9420  206.2060  141.8940 C   0  0  0  0  0  0  0  0  0  0  0  0
  161.1230  205.3180  141.5370 O   0  0  0  0  0  0  0  0  0  0  0  0
  161.8430  207.3170  139.6220 C   0  0  0  0  0  2  0  0  0  0  0  0
  161.2330  208.6770  139.3080 C   0  0  2  0  0  3  0  0  0  0  0  0
  159.1520  209.0410  138.1960 O   0  0  0  0  0  1  0  0  0  0  0  0
  160.3080  208.5390  138.1360 C   0  0  0  0  0  0  0  0  0  0  0  0
  160.6770  207.8000  137.0190 O   0  0  0  0  0  0  0  0  0  0  0  0
  162.2960  209.6480  139.0250 N   0  0  0  0  0  2  0  0  0  0  0  0
  160.6940  210.8540  140.4330 C   0  0  1  0  0  3  0  0  0  0  0  0
  161.2040  211.4810  137.3980 F   0  0  0  0  0  0  0  0  0  0  0  0
  162.0060  210.9600  139.6220 C   0  0  2  0  0  0  0  0  0  0  0  0
  158.2820  213.9200  140.2300 C   0  0  0  0  0  3  0  0  0  0  0  0
  162.8810  212.7580  138.2330 F   0  0  0  0  0  0  0  0  0  0  0  0
  161.7390  212.0430  138.5500 C   0  0  0  0  0  0  0  0  0  0  0  0
  160.9180  210.9990  141.8090 O   0  0  0  0  0  1  0  0  0  0  0  0
  158.7540  214.4530  139.0830 C   0  0  0  0  0  3  0  0  0  0  0  0
  159.8940  213.8370  138.3040 C   0  0  0  0  0  2  0  0  0  0  0  0
  159.7880  211.9560  139.8920 C   0  0  2  0  0  3  0  0  0  0  0  0
  160.7160  212.9320  139.2180 C   0  0  1  0  0  3  0  0  0  0  0  0
  158.9080  212.7080  140.8900 C   0  0  0  0  0  2  0  0  0  0  0  0
  163.0560  211.3640  140.4660 O   0  0  0  0  0  1  0  0  0  0  0  0
  160.3890  206.4030  147.7080 C   0  0  0  0  0  2  0  0  0  0  0  0
  161.5260  207.4010  147.8260 C   0  0  0  0  0  2  0  0  0  0  0  0
  161.7220  207.7720  149.2790 C   0  0  0  0  0  2  0  0  0  0  0  0
  160.9820  206.8370  150.1210 N   0  0  0  0  0  2  0  0  0  0  0  0
  160.4420  206.4680  152.4410 C   0  0  0  0  0  2  0  0  0  0  0  0
  161.5230  204.3270  152.0280 C   0  0  1  0  0  3  0  0  0  0  0  0
  161.5690  206.7060  151.4650 C   0  0  1  0  0  0  0  0  0  0  0  0
  162.4440  205.4670  151.6140 C   0  0  0  0  0  2  0  0  0  0  0  0
  160.2150  204.9690  152.4620 C   0  0  0  0  0  2  0  0  0  0  0  0
  161.2820  203.3630  150.8960 C   0  0  0  0  0  0  0  0  0  0  0  0
  161.5770  203.7380  149.5900 O   0  0  0  0  0  0  0  0  0  0  0  0
  160.7870  202.2260  151.1150 O   0  0  0  0  0  1  0  0  0  0  0  0
  162.2910  207.9860  151.8950 C   0  0  0  0  0  2  0  0  0  0  0  0
  161.3970  208.9630  152.6620 C   0  0  0  0  0  2  0  0  0  0  0  0
  160.9950  210.1690  151.8080 C   0  0  1  0  0  3  0  0  0  0  0  0
  159.5040  212.1440  152.0830 C   0  0  0  0  0  2  0  0  0  0  0  0
  160.6890  211.3940  152.6650 C   0  0  0  0  0  3  0  0  0  0  0  0
  159.3150  211.2400  153.2750 C   0  0  0  0  0  2  0  0  0  0  0  0
  162.0570  210.5020  150.7740 C   0  0  0  0  0  2  0  0  0  0  0  0
  161.6430  211.7370  149.9950 C   0  0  0  0  0  2  0  0  0  0  0  0
  161.4190  211.3520  148.5440 C   0  0  0  0  0  2  0  0  0  0  0  0
  163.0390  213.2880  148.0950 C   0  0  0  0  0  2  0  0  0  0  0  0
  161.9370  212.4360  147.6070 C   0  0  1  0  0  0  0  0  0  0  0  0
  163.2620  212.2270  147.1880 O   0  0  0  0  0  0  0  0  0  0  0  0
  161.0600  212.9740  146.4880 C   0  0  0  0  0  2  0  0  0  0  0  0
  159.5930  212.8120  146.8390 C   0  0  0  0  0  1  0  0  0  0  0  0
  2  7  1  6  0  0  0
  2  6  1  0  0  0  0
  2  3  1  0  0  0  0
  3  5  1  0  0  0  0
  4  1  1  0  0  0  0
  5  1  1  0  0  0  0
  5 30  1  1  0  0  0
  6  4  1  0  0  0  0
  8  9  1  0  0  0  0
  9  7  1  0  0  0  0
 10  9  2  0  0  0  0
 11  8  1  0  0  0  0
 12 11  1  6  0  0  0
 14 13  1  0  0  0  0
 14 12  1  0  0  0  0
 15 14  2  0  0  0  0
 16 12  1  0  0  0  0
 16 19  1  0  0  0  0
 17 23  1  1  0  0  0
 18 22  1  0  0  0  0
 19 17  1  0  0  0  0
 19 29  1  1  0  0  0
 20 28  1  0  0  0  0
 21 22  1  0  0  0  0
 22 27  1  0  0  0  0
 22 19  1  0  0  0  0
 24 20  2  0  0  0  0
 25 24  1  0  0  0  0
 26 17  1  0  0  0  0
 26 28  1  1  0  0  0
 27 25  1  6  0  0  0
 27 26  1  0  0  0  0
 30 31  1  0  0  0  0
 31 32  1  0  0  0  0
 32 33  1  0  0  0  0
 33 36  1  0  0  0  0
 34 38  1  0  0  0  0
 35 39  1  6  0  0  0
 35 38  1  0  0  0  0
 36 37  1  0  0  0  0
 36 42  1  1  0  0  0
 36 34  1  0  0  0  0
 37 35  1  0  0  0  0
 39 41  1  0  0  0  0
 40 39  2  0  0  0  0
 42 43  1  0  0  0  0
 44 48  1  6  0  0  0
 44 43  1  0  0  0  0
 44 46  1  0  0  0  0
 45 46  1  0  0  0  0
 45 47  1  0  0  0  0
 46 47  1  0  0  0  0
 49 48  1  0  0  0  0
 50 49  1  0  0  0  0
 52 54  1  6  0  0  0
 52 51  1  0  0  0  0
 52 50  1  0  0  0  0
 53 52  1  0  0  0  0
 53 51  1  0  0  0  0
 54 55  1  0  0  0  0
M  END
>  <MODEL>
6

>  <REMARK>
 VINA RESULT:      -2.0      2.527      5.432
  Name = 
  22 active torsions:
  status: ('A' for Active; 'I' for Inactive)
    1  A    between atoms: C_2  and  C_28
    2  A    between atoms: C_2  and  C_44
    3  A    between atoms: C_5  and  C_19
    4  A    between atoms: C_6  and  N_46
    5  A    between atoms: C_8  and  CA_22
    6  A    between atoms: C_8  and  N_35
    7  A    between atoms: C_10  and  C_32
    8  A    between atoms: C_15  and  C_17
    9  A    between atoms: C_16  and  C_17
   10  A    between atoms: C_16  and  C_26
   11  A    between atoms: C_17  and  C_36
   12  A    between atoms: C_19  and  C_45
   13  A    between atoms: C_20  and  CA_22
   14  A    between atoms: CA_22  and  N_46
   15  A    between atoms: C_26  and  C_45
   16  A    between atoms: C_27  and  C_54
   17  A    between atoms: C_28  and  C_33
   18  A    between atoms: C_33  and  N_49
   19  A    between atoms: C_34  and  N_49
   20  A    between atoms: C_34  and  C_52
   21  A    between atoms: C_36  and  C_52
   22  A    between atoms: C_43  and  C_54
                            x       y       z     vdW  Elec       q    Type
                         _______ _______ _______ _____ _____    ______ ____

>  <TORSDO>
F 22

$$$$
=
 OpenBabel11062408493D

 55 60  0  0  1  0  0  0  0  0999 V2000
  161.2070  204.1790  146.9820 C   0  0  0  0  0  2  0  0  0  0  0  0
  161.6170  205.4350  144.3560 C   0  0  2  0  0  3  0  0  0  0  0  0
  161.3960  206.2660  145.6160 C   0  0  0  0  0  2  0  0  0  0  0  0
  161.4160  203.3370  145.7270 C   0  0  0  0  0  2  0  0  0  0  0  0
  160.5290  205.4960  146.6130 C   0  0  2  0  0  3  0  0  0  0  0  0
  162.2730  204.0960  144.7190 C   0  0  0  0  0  2  0  0  0  0  0  0
  162.5050  206.2170  143.4020 C   0  0  0  0  0  2  0  0  0  0  0  0
  162.3020  207.2680  141.1150 N   0  0  0  0  0  2  0  0  0  0  0  0
  161.9130  206.2450  142.0340 C   0  0  0  0  0  0  0  0  0  0  0  0
  161.0970  205.3500  141.6890 O   0  0  0  0  0  0  0  0  0  0  0  0
  161.8760  207.2760  139.7230 C   0  0  0  0  0  2  0  0  0  0  0  0
  161.3040  208.6350  139.3410 C   0  0  2  0  0  3  0  0  0  0  0  0
  159.1450  208.9480  138.3720 O   0  0  0  0  0  1  0  0  0  0  0  0
  160.2980  208.4510  138.2450 C   0  0  0  0  0  0  0  0  0  0  0  0
  160.5920  207.6770  137.1290 O   0  0  0  0  0  0  0  0  0  0  0  0
  162.3850  209.5310  138.9170 N   0  0  0  0  0  2  0  0  0  0  0  0
  161.1350  210.8180  140.5840 C   0  0  1  0  0  3  0  0  0  0  0  0
  161.0190  211.3470  137.4910 F   0  0  0  0  0  0  0  0  0  0  0  0
  162.2530  210.8660  139.5170 C   0  0  2  0  0  0  0  0  0  0  0  0
  158.7990  213.9420  140.7840 C   0  0  0  0  0  3  0  0  0  0  0  0
  162.8600  212.6000  137.9210 F   0  0  0  0  0  0  0  0  0  0  0  0
  161.7930  211.9260  138.4890 C   0  0  0  0  0  0  0  0  0  0  0  0
  161.6410  210.9940  141.8800 O   0  0  0  0  0  1  0  0  0  0  0  0
  159.0350  214.4310  139.5470 C   0  0  0  0  0  3  0  0  0  0  0  0
  159.9760  213.7630  138.5700 C   0  0  0  0  0  2  0  0  0  0  0  0
  160.1600  211.9290  140.2060 C   0  0  2  0  0  3  0  0  0  0  0  0
  160.9490  212.8610  139.3240 C   0  0  1  0  0  3  0  0  0  0  0  0
  159.5220  212.7320  141.3390 C   0  0  0  0  0  2  0  0  0  0  0  0
  163.4630  211.2630  140.1140 O   0  0  0  0  0  1  0  0  0  0  0  0
  160.3170  206.3270  147.8660 C   0  0  0  0  0  2  0  0  0  0  0  0
  161.5270  207.2060  148.1220 C   0  0  0  0  0  2  0  0  0  0  0  0
  161.6610  207.4600  149.6060 C   0  0  0  0  0  2  0  0  0  0  0  0
  160.8650  206.4810  150.3380 N   0  0  0  0  0  2  0  0  0  0  0  0
  160.2050  205.8430  152.5670 C   0  0  0  0  0  2  0  0  0  0  0  0
  161.4540  203.8260  152.0240 C   0  0  1  0  0  3  0  0  0  0  0  0
  161.3720  206.2490  151.7010 C   0  0  1  0  0  0  0  0  0  0  0  0
  162.3200  205.0570  151.7890 C   0  0  0  0  0  2  0  0  0  0  0  0
  160.0810  204.3380  152.4260 C   0  0  0  0  0  2  0  0  0  0  0  0
  161.3530  202.9700  150.7880 C   0  0  0  0  0  0  0  0  0  0  0  0
  161.3750  203.5610  149.5300 O   0  0  0  0  0  0  0  0  0  0  0  0
  161.2180  201.7220  150.8820 O   0  0  0  0  0  1  0  0  0  0  0  0
  161.9760  207.5200  152.3040 C   0  0  0  0  0  2  0  0  0  0  0  0
  161.9070  207.5640  153.8320 C   0  0  0  0  0  2  0  0  0  0  0  0
  160.7920  208.4860  154.3330 C   0  0  1  0  0  3  0  0  0  0  0  0
  160.4490  208.3080  156.7930 C   0  0  0  0  0  2  0  0  0  0  0  0
  161.1290  209.0990  155.6890 C   0  0  0  0  0  3  0  0  0  0  0  0
  161.9130  208.0970  156.5030 C   0  0  0  0  0  2  0  0  0  0  0  0
  160.4740  209.5790  153.3260 C   0  0  0  0  0  2  0  0  0  0  0  0
  159.7780  210.7320  154.0260 C   0  0  0  0  0  2  0  0  0  0  0  0
  158.5970  211.1780  153.1830 C   0  0  0  0  0  2  0  0  0  0  0  0
  157.6550  213.5560  152.9960 C   0  0  0  0  0  2  0  0  0  0  0  0
  158.7670  212.6220  152.7290 C   0  0  1  0  0  0  0  0  0  0  0  0
  158.8240  213.5400  153.7920 O   0  0  0  0  0  0  0  0  0  0  0  0
  159.7420  212.9730  151.6160 C   0  0  0  0  0  2  0  0  0  0  0  0
  159.1500  212.6270  150.2640 C   0  0  0  0  0  1  0  0  0  0  0  0
  2  7  1  6  0  0  0
  2  6  1  0  0  0  0
  2  3  1  0  0  0  0
  3  5  1  0  0  0  0
  4  1  1  0  0  0  0
  5  1  1  0  0  0  0
  5 30  1  1  0  0  0
  6  4  1  0  0  0  0
  8  9  1  0  0  0  0
  9  7  1  0  0  0  0
 10  9  2  0  0  0  0
 11  8  1  0  0  0  0
 12 11  1  6  0  0  0
 14 13  1  0  0  0  0
 14 12  1  0  0  0  0
 15 14  2  0  0  0  0
 16 12  1  0  0  0  0
 16 19  1  0  0  0  0
 17 23  1  1  0  0  0
 18 22  1  0  0  0  0
 19 29  1  1  0  0  0
 19 17  1  0  0  0  0
 20 28  1  0  0  0  0
 21 22  1  0  0  0  0
 22 27  1  0  0  0  0
 22 19  1  0  0  0  0
 24 20  2  0  0  0  0
 25 24  1  0  0  0  0
 26 17  1  0  0  0  0
 26 28  1  1  0  0  0
 27 25  1  6  0  0  0
 27 26  1  0  0  0  0
 30 31  1  0  0  0  0
 31 32  1  0  0  0  0
 32 33  1  0  0  0  0
 33 36  1  0  0  0  0
 35 39  1  6  0  0  0
 35 38  1  0  0  0  0
 36 37  1  0  0  0  0
 36 42  1  1  0  0  0
 36 34  1  0  0  0  0
 37 35  1  0  0  0  0
 38 34  1  0  0  0  0
 39 41  1  0  0  0  0
 40 39  2  0  0  0  0
 42 43  1  0  0  0  0
 43 44  1  0  0  0  0
 44 48  1  6  0  0  0
 44 46  1  0  0  0  0
 46 47  1  0  0  0  0
 46 45  1  0  0  0  0
 47 45  1  0  0  0  0
 48 49  1  0  0  0  0
 50 49  1  0  0  0  0
 51 53  1  0  0  0  0
 52 54  1  6  0  0  0
 52 51  1  0  0  0  0
 52 50  1  0  0  0  0
 52 53  1  0  0  0  0
 55 54  1  0  0  0  0
M  END
>  <MODEL>
7

>  <REMARK>
 VINA RESULT:      -1.9      2.597      5.380
  Name = 
  22 active torsions:
  status: ('A' for Active; 'I' for Inactive)
    1  A    between atoms: C_2  and  C_28
    2  A    between atoms: C_2  and  C_44
    3  A    between atoms: C_5  and  C_19
    4  A    between atoms: C_6  and  N_46
    5  A    between atoms: C_8  and  CA_22
    6  A    between atoms: C_8  and  N_35
    7  A    between atoms: C_10  and  C_32
    8  A    between atoms: C_15  and  C_17
    9  A    between atoms: C_16  and  C_17
   10  A    between atoms: C_16  and  C_26
   11  A    between atoms: C_17  and  C_36
   12  A    between atoms: C_19  and  C_45
   13  A    between atoms: C_20  and  CA_22
   14  A    between atoms: CA_22  and  N_46
   15  A    between atoms: C_26  and  C_45
   16  A    between atoms: C_27  and  C_54
   17  A    between atoms: C_28  and  C_33
   18  A    between atoms: C_33  and  N_49
   19  A    between atoms: C_34  and  N_49
   20  A    between atoms: C_34  and  C_52
   21  A    between atoms: C_36  and  C_52
   22  A    between atoms: C_43  and  C_54
                            x       y       z     vdW  Elec       q    Type
                         _______ _______ _______ _____ _____    ______ ____

>  <TORSDO>
F 22

$$$$
=
 OpenBabel11062408493D

 55 60  0  0  1  0  0  0  0  0999 V2000
  161.2420  205.5380  153.1380 C   0  0  0  0  0  2  0  0  0  0  0  0
  160.8440  203.2810  151.2970 C   0  0  2  0  0  3  0  0  0  0  0  0
  161.3150  204.6450  150.8030 C   0  0  0  0  0  2  0  0  0  0  0  0
  160.7590  204.1820  153.6430 C   0  0  0  0  0  2  0  0  0  0  0  0
  160.7680  205.7530  151.7030 C   0  0  2  0  0  3  0  0  0  0  0  0
  161.2900  203.0660  152.7490 C   0  0  0  0  0  2  0  0  0  0  0  0
  161.4300  202.2040  150.3980 C   0  0  0  0  0  2  0  0  0  0  0  0
  161.0510  202.0080  147.9100 N   0  0  0  0  0  2  0  0  0  0  0  0
  160.5310  201.9380  149.2400 C   0  0  0  0  0  0  0  0  0  0  0  0
  159.3280  201.6270  149.4420 O   0  0  0  0  0  0  0  0  0  0  0  0
  160.2720  201.6230  146.7420 C   0  0  0  0  0  2  0  0  0  0  0  0
  160.2870  202.7290  145.6950 C   0  0  2  0  0  3  0  0  0  0  0  0
  159.1290  201.1940  144.2790 O   0  0  0  0  0  1  0  0  0  0  0  0
  159.2970  202.3980  144.6190 C   0  0  0  0  0  0  0  0  0  0  0  0
  158.6190  203.4020  143.9390 O   0  0  0  0  0  0  0  0  0  0  0  0
  161.6370  202.8730  145.1390 N   0  0  0  0  0  2  0  0  0  0  0  0
  162.9310  204.3160  146.6360 C   0  0  1  0  0  3  0  0  0  0  0  0
  159.8810  204.7080  146.0030 F   0  0  0  0  0  0  0  0  0  0  0  0
  162.1500  204.2410  145.3040 C   0  0  2  0  0  0  0  0  0  0  0  0
  162.4930  207.5950  148.7140 C   0  0  0  0  0  3  0  0  0  0  0  0
  160.6860  205.8540  144.2200 F   0  0  0  0  0  0  0  0  0  0  0  0
  161.0130  205.2790  145.4360 C   0  0  0  0  0  0  0  0  0  0  0  0
  164.3030  204.5190  146.4270 O   0  0  0  0  0  1  0  0  0  0  0  0
  161.3300  208.0090  148.1660 C   0  0  0  0  0  3  0  0  0  0  0  0
  160.6170  207.2350  147.0800 C   0  0  0  0  0  2  0  0  0  0  0  0
  162.3060  205.4710  147.4120 C   0  0  2  0  0  3  0  0  0  0  0  0
  161.6020  206.3070  146.3750 C   0  0  1  0  0  3  0  0  0  0  0  0
  163.2360  206.3670  148.2300 C   0  0  0  0  0  2  0  0  0  0  0  0
  162.9980  204.5840  144.2360 O   0  0  0  0  0  1  0  0  0  0  0  0
  161.2460  207.1070  151.2080 C   0  0  0  0  0  2  0  0  0  0  0  0
  161.6990  207.9620  152.3770 C   0  0  0  0  0  2  0  0  0  0  0  0
  160.9560  209.2790  152.3560 C   0  0  0  0  0  2  0  0  0  0  0  0
  161.5320  210.1750  153.3530 N   0  0  0  0  0  2  0  0  0  0  0  0
  159.3520  210.1110  154.3800 C   0  0  0  0  0  2  0  0  0  0  0  0
  160.6400  210.4990  156.4080 C   0  0  1  0  0  3  0  0  0  0  0  0
  160.5130  211.0040  154.0190 C   0  0  1  0  0  0  0  0  0  0  0  0
  160.9780  211.5540  155.3630 C   0  0  0  0  0  2  0  0  0  0  0  0
  159.6770  209.5280  155.7420 C   0  0  0  0  0  2  0  0  0  0  0  0
  161.8680  209.7710  156.8860 C   0  0  0  0  0  0  0  0  0  0  0  0
  161.8240  208.3990  157.1030 O   0  0  0  0  0  0  0  0  0  0  0  0
  162.9340  210.3990  157.1230 O   0  0  0  0  0  1  0  0  0  0  0  0
  159.9820  212.1020  153.0920 C   0  0  0  0  0  2  0  0  0  0  0  0
  159.5120  213.3540  153.8350 C   0  0  0  0  0  2  0  0  0  0  0  0
  158.3630  214.0590  153.1090 C   0  0  1  0  0  3  0  0  0  0  0  0
  156.9640  214.1870  151.0530 C   0  0  0  0  0  2  0  0  0  0  0  0
  158.0610  213.4110  151.7600 C   0  0  0  0  0  3  0  0  0  0  0  0
  158.4050  214.3850  150.6570 C   0  0  0  0  0  2  0  0  0  0  0  0
  157.1060  214.1050  153.9620 C   0  0  0  0  0  2  0  0  0  0  0  0
  156.5400  212.7050  154.1140 C   0  0  0  0  0  2  0  0  0  0  0  0
  156.8330  212.2050  155.5170 C   0  0  0  0  0  2  0  0  0  0  0  0
  155.5790  213.6060  157.2610 C   0  0  0  0  0  2  0  0  0  0  0  0
  155.6230  212.3900  156.4250 C   0  0  1  0  0  0  0  0  0  0  0  0
  154.8230  213.4900  156.0720 O   0  0  0  0  0  0  0  0  0  0  0  0
  154.7940  211.1930  156.8610 C   0  0  0  0  0  2  0  0  0  0  0  0
  154.7720  210.1370  155.7730 C   0  0  0  0  0  1  0  0  0  0  0  0
  1  4  1  0  0  0  0
  2  7  1  6  0  0  0
  2  6  1  0  0  0  0
  3  2  1  0  0  0  0
  3  5  1  0  0  0  0
  5 30  1  6  0  0  0
  5  1  1  0  0  0  0
  6  4  1  0  0  0  0
  8  9  1  0  0  0  0
  9 10  2  0  0  0  0
  9  7  1  0  0  0  0
 11  8  1  0  0  0  0
 12 11  1  1  0  0  0
 13 14  1  0  0  0  0
 14 12  1  0  0  0  0
 15 14  2  0  0  0  0
 16 19  1  0  0  0  0
 16 12  1  0  0  0  0
 17 23  1  6  0  0  0
 17 26  1  0  0  0  0
 19 29  1  6  0  0  0
 19 22  1  0  0  0  0
 19 17  1  0  0  0  0
 21 22  1  0  0  0  0
 22 18  1  0  0  0  0
 22 27  1  0  0  0  0
 24 20  2  0  0  0  0
 25 24  1  0  0  0  0
 26 28  1  6  0  0  0
 27 25  1  1  0  0  0
 27 26  1  0  0  0  0
 28 20  1  0  0  0  0
 30 31  1  0  0  0  0
 32 31  1  0  0  0  0
 32 33  1  0  0  0  0
 33 36  1  0  0  0  0
 34 38  1  0  0  0  0
 35 39  1  6  0  0  0
 36 42  1  6  0  0  0
 36 34  1  0  0  0  0
 36 37  1  0  0  0  0
 37 35  1  0  0  0  0
 38 35  1  0  0  0  0
 39 40  2  0  0  0  0
 39 41  1  0  0  0  0
 42 43  1  0  0  0  0
 44 43  1  1  0  0  0
 44 48  1  0  0  0  0
 45 46  1  0  0  0  0
 46 44  1  0  0  0  0
 47 45  1  0  0  0  0
 47 46  1  0  0  0  0
 48 49  1  0  0  0  0
 49 50  1  0  0  0  0
 52 50  1  6  0  0  0
 52 54  1  0  0  0  0
 52 51  1  0  0  0  0
 53 52  1  0  0  0  0
 53 51  1  0  0  0  0
 55 54  1  0  0  0  0
M  END
>  <MODEL>
8

>  <REMARK>
 VINA RESULT:      -1.7      5.389      7.564
  Name = 
  22 active torsions:
  status: ('A' for Active; 'I' for Inactive)
    1  A    between atoms: C_2  and  C_28
    2  A    between atoms: C_2  and  C_44
    3  A    between atoms: C_5  and  C_19
    4  A    between atoms: C_6  and  N_46
    5  A    between atoms: C_8  and  CA_22
    6  A    between atoms: C_8  and  N_35
    7  A    between atoms: C_10  and  C_32
    8  A    between atoms: C_15  and  C_17
    9  A    between atoms: C_16  and  C_17
   10  A    between atoms: C_16  and  C_26
   11  A    between atoms: C_17  and  C_36
   12  A    between atoms: C_19  and  C_45
   13  A    between atoms: C_20  and  CA_22
   14  A    between atoms: CA_22  and  N_46
   15  A    between atoms: C_26  and  C_45
   16  A    between atoms: C_27  and  C_54
   17  A    between atoms: C_28  and  C_33
   18  A    between atoms: C_33  and  N_49
   19  A    between atoms: C_34  and  N_49
   20  A    between atoms: C_34  and  C_52
   21  A    between atoms: C_36  and  C_52
   22  A    between atoms: C_43  and  C_54
                            x       y       z     vdW  Elec       q    Type
                         _______ _______ _______ _____ _____    ______ ____

>  <TORSDO>
F 22

$$$$
=
 OpenBabel11062408493D

 55 60  0  0  1  0  0  0  0  0999 V2000
  160.8720  200.9020  149.0690 C   0  0  0  0  0  2  0  0  0  0  0  0
  160.9380  203.3380  150.7130 C   0  0  2  0  0  3  0  0  0  0  0  0
  160.1910  203.2880  149.3850 C   0  0  0  0  0  2  0  0  0  0  0  0
  161.6330  200.9430  150.3910 C   0  0  0  0  0  2  0  0  0  0  0  0
  160.8590  202.2920  148.4370 C   0  0  2  0  0  3  0  0  0  0  0  0
  160.9810  201.9410  151.3440 C   0  0  0  0  0  2  0  0  0  0  0  0
  160.2300  204.3150  151.6390 C   0  0  0  0  0  2  0  0  0  0  0  0
  160.8970  205.8580  153.5220 N   0  0  0  0  0  2  0  0  0  0  0  0
  161.2060  205.2490  152.2660 C   0  0  0  0  0  0  0  0  0  0  0  0
  162.3080  205.4740  151.6990 O   0  0  0  0  0  0  0  0  0  0  0  0
  161.8560  206.6650  154.2600 C   0  0  0  0  0  2  0  0  0  0  0  0
  161.1650  207.8430  154.9350 C   0  0  2  0  0  3  0  0  0  0  0  0
  158.9780  207.3350  155.7480 O   0  0  0  0  0  0  0  0  0  0  0  0
  160.2190  207.3240  155.9760 C   0  0  0  0  0  0  0  0  0  0  0  0
  160.6840  206.9040  157.2160 O   0  0  0  0  0  1  0  0  0  0  0  0
  160.4550  208.6460  153.9340 N   0  0  0  0  0  2  0  0  0  0  0  0
  160.3730  210.6180  155.3840 C   0  0  1  0  0  3  0  0  0  0  0  0
  158.8490  210.3700  152.6500 F   0  0  0  0  0  0  0  0  0  0  0  0
  160.8260  210.0660  154.0130 C   0  0  2  0  0  0  0  0  0  0  0  0
  158.9090  214.2400  155.3940 C   0  0  0  0  0  3  0  0  0  0  0  0
  160.8260  211.0880  151.8040 F   0  0  0  0  0  0  0  0  0  0  0  0
  160.0840  210.9230  152.9610 C   0  0  0  0  0  0  0  0  0  0  0  0
  161.4640  210.9540  156.1990 O   0  0  0  0  0  1  0  0  0  0  0  0
  158.5830  214.3120  154.0850 C   0  0  0  0  0  3  0  0  0  0  0  0
  158.8230  213.1750  153.1180 C   0  0  0  0  0  2  0  0  0  0  0  0
  159.5100  211.8370  155.0710 C   0  0  2  0  0  3  0  0  0  0  0  0
  159.8980  212.2430  153.6730 C   0  0  1  0  0  3  0  0  0  0  0  0
  159.6260  213.0490  155.9950 C   0  0  0  0  0  2  0  0  0  0  0  0
  162.2160  210.2240  153.8730 O   0  0  0  0  0  1  0  0  0  0  0  0
  160.1070  202.2440  147.1190 C   0  0  0  0  0  2  0  0  0  0  0  0
  161.0650  201.9490  145.9800 C   0  0  0  0  0  2  0  0  0  0  0  0
  161.7720  203.2220  145.5730 C   0  0  0  0  0  2  0  0  0  0  0  0
  160.8300  204.1010  144.8880 N   0  0  0  0  0  2  0  0  0  0  0  0
  160.3890  206.4580  144.6440 C   0  0  0  0  0  2  0  0  0  0  0  0
  161.8750  206.6170  146.5650 C   0  0  1  0  0  3  0  0  0  0  0  0
  161.4390  205.3840  144.4990 C   0  0  1  0  0  0  0  0  0  0  0  0
  162.5460  205.8300  145.4470 C   0  0  0  0  0  2  0  0  0  0  0  0
  160.4670  206.9300  146.0830 C   0  0  0  0  0  2  0  0  0  0  0  0
  161.8260  205.8320  147.8500 C   0  0  0  0  0  0  0  0  0  0  0  0
  160.9150  206.1790  148.8410 O   0  0  0  0  0  1  0  0  0  0  0  0
  162.6240  204.8790  148.0500 O   0  0  0  0  0  0  0  0  0  0  0  0
  161.8920  205.3750  143.0360 C   0  0  0  0  0  2  0  0  0  0  0  0
  161.2080  206.4420  142.1780 C   0  0  0  0  0  2  0  0  0  0  0  0
  162.1510  207.0250  141.1210 C   0  0  1  0  0  3  0  0  0  0  0  0
  162.1480  205.8430  138.9300 C   0  0  0  0  0  2  0  0  0  0  0  0
  162.8170  205.9320  140.2900 C   0  0  0  0  0  3  0  0  0  0  0  0
  163.4660  206.5600  139.0790 C   0  0  0  0  0  2  0  0  0  0  0  0
  161.4330  208.0110  140.2150 C   0  0  0  0  0  2  0  0  0  0  0  0
  161.9740  209.4100  140.4530 C   0  0  0  0  0  2  0  0  0  0  0  0
  161.8910  210.1960  139.1570 C   0  0  0  0  0  2  0  0  0  0  0  0
  159.9490  211.6950  138.4130 C   0  0  0  0  0  2  0  0  0  0  0  0
  161.0720  211.4670  139.3440 C   0  0  1  0  0  0  0  0  0  0  0  0
  159.7420  211.2240  139.7290 O   0  0  0  0  0  0  0  0  0  0  0  0
  161.6640  212.6720  140.0570 C   0  0  0  0  0  2  0  0  0  0  0  0
  163.1490  212.7800  139.7720 C   0  0  0  0  0  1  0  0  0  0  0  0
  1  4  1  0  0  0  0
  2  6  1  0  0  0  0
  2  7  1  1  0  0  0
  3  2  1  0  0  0  0
  4  6  1  0  0  0  0
  5 30  1  6  0  0  0
  5  1  1  0  0  0  0
  5  3  1  0  0  0  0
  7  9  1  0  0  0  0
  8 11  1  0  0  0  0
  9  8  1  0  0  0  0
 10  9  2  0  0  0  0
 12 11  1  6  0  0  0
 12 14  1  0  0  0  0
 13 14  2  0  0  0  0
 14 15  1  0  0  0  0
 16 19  1  0  0  0  0
 16 12  1  0  0  0  0
 17 23  1  1  0  0  0
 18 22  1  0  0  0  0
 19 29  1  6  0  0  0
 19 17  1  0  0  0  0
 20 28  1  0  0  0  0
 21 22  1  0  0  0  0
 22 27  1  0  0  0  0
 22 19  1  0  0  0  0
 24 20  2  0  0  0  0
 25 24  1  0  0  0  0
 26 17  1  0  0  0  0
 26 28  1  1  0  0  0
 27 25  1  6  0  0  0
 27 26  1  0  0  0  0
 31 30  1  0  0  0  0
 32 31  1  0  0  0  0
 33 32  1  0  0  0  0
 34 38  1  0  0  0  0
 35 39  1  1  0  0  0
 36 42  1  6  0  0  0
 36 34  1  0  0  0  0
 36 33  1  0  0  0  0
 36 37  1  0  0  0  0
 37 35  1  0  0  0  0
 38 35  1  0  0  0  0
 39 41  2  0  0  0  0
 39 40  1  0  0  0  0
 43 42  1  0  0  0  0
 44 48  1  6  0  0  0
 44 43  1  0  0  0  0
 45 47  1  0  0  0  0
 45 46  1  0  0  0  0
 46 44  1  0  0  0  0
 47 46  1  0  0  0  0
 48 49  1  0  0  0  0
 50 49  1  0  0  0  0
 51 52  1  0  0  0  0
 51 53  1  0  0  0  0
 52 50  1  6  0  0  0
 52 53  1  0  0  0  0
 52 54  1  0  0  0  0
 55 54  1  0  0  0  0
M  END
>  <MODEL>
9

>  <REMARK>
 VINA RESULT:      -1.7      3.823     12.527
  Name = 
  22 active torsions:
  status: ('A' for Active; 'I' for Inactive)
    1  A    between atoms: C_2  and  C_28
    2  A    between atoms: C_2  and  C_44
    3  A    between atoms: C_5  and  C_19
    4  A    between atoms: C_6  and  N_46
    5  A    between atoms: C_8  and  CA_22
    6  A    between atoms: C_8  and  N_35
    7  A    between atoms: C_10  and  C_32
    8  A    between atoms: C_15  and  C_17
    9  A    between atoms: C_16  and  C_17
   10  A    between atoms: C_16  and  C_26
   11  A    between atoms: C_17  and  C_36
   12  A    between atoms: C_19  and  C_45
   13  A    between atoms: C_20  and  CA_22
   14  A    between atoms: CA_22  and  N_46
   15  A    between atoms: C_26  and  C_45
   16  A    between atoms: C_27  and  C_54
   17  A    between atoms: C_28  and  C_33
   18  A    between atoms: C_33  and  N_49
   19  A    between atoms: C_34  and  N_49
   20  A    between atoms: C_34  and  C_52
   21  A    between atoms: C_36  and  C_52
   22  A    between atoms: C_43  and  C_54
                            x       y       z     vdW  Elec       q    Type
                         _______ _______ _______ _____ _____    ______ ____

>  <TORSDO>
F 22

$$$$
