=
 OpenBabel11062409103D

 37 41  0  0  1  0  0  0  0  0999 V2000
  159.8440  214.0060  149.9450 C   0  0  0  0  0  3  0  0  0  0  0  0
  161.8220  209.6030  151.0680 C   0  0  2  0  0  3  0  0  0  0  0  0
  160.0840  207.4470  154.9870 S   0  0  0  0  0  0  0  0  0  0  0  0
  161.3520  211.8920  149.8670 C   0  0  0  0  0  0  0  0  0  0  0  0
  161.4450  209.0150  152.3760 N   0  0  2  0  0  0  0  0  0  0  0  0
  161.2530  210.9790  151.0370 C   0  0  0  0  0  0  0  0  0  0  0  0
  160.3650  208.0320  152.2720 C   0  0  0  0  0  2  0  0  0  0  0  0
  162.2850  211.6080  148.7350 C   0  0  0  0  0  2  0  0  0  0  0  0
  160.7510  211.2710  152.2340 C   0  0  0  0  0  0  0  0  0  0  0  0
  158.8460  212.8890  152.0190 C   0  0  0  0  0  2  0  0  0  0  0  0
  162.3140  209.0990  148.6440 C   0  0  0  0  0  2  0  0  0  0  0  0
  161.8510  210.3760  147.9570 C   0  0  0  0  0  2  0  0  0  0  0  0
  160.1900  212.5950  152.6820 C   0  0  0  0  0  2  0  0  0  0  0  0
  161.6900  208.2140  155.4260 C   0  0  0  0  0  2  0  0  0  0  0  0
  161.4370  208.7630  149.8400 C   0  0  0  0  0  2  0  0  0  0  0  0
  160.9130  210.1280  153.1670 C   0  0  2  0  0  3  0  0  0  0  0  0
  160.6270  212.9720  149.8300 C   0  0  0  0  0  0  0  0  0  0  0  0
  160.5290  206.9110  153.2930 C   0  0  1  0  0  3  0  0  0  0  0  0
  158.9220  214.1390  151.1290 C   0  0  0  0  0  2  0  0  0  0  0  0
  161.6230  209.7420  155.5800 C   0  0  1  0  0  3  0  0  0  0  0  0
  161.9100  210.4750  154.2660 C   0  0  0  0  0  2  0  0  0  0  0  0
  160.3720  210.2610  156.3100 C   0  0  1  0  0  3  0  0  0  0  0  0
  160.1990  212.7140  156.7490 C   0  0  0  0  0  1  0  0  0  0  0  0
  160.7430  211.3940  157.2590 C   0  0  0  0  0  2  0  0  0  0  0  0
  159.3320  210.7590  155.3110 C   0  0  0  0  0  2  0  0  0  0  0  0
  158.0540  210.3860  155.7240 O   0  0  0  0  0  0  0  0  0  0  0  0
  157.1950  211.1000  154.8890 C   0  0  0  0  0  2  0  0  0  0  0  0
  156.8490  213.5120  155.1800 C   0  0  0  0  0  2  0  0  0  0  0  0
  156.6320  212.2740  155.6180 C   0  0  0  0  0  3  0  0  0  0  0  0
  161.8920  206.2170  153.1890 C   0  0  0  0  0  2  0  0  0  0  0  0
  160.9360  203.9390  152.6240 C   0  0  0  0  0  2  0  0  0  0  0  0
  161.9030  205.0430  152.2110 C   0  0  1  0  0  3  0  0  0  0  0  0
  161.6370  205.5050  150.7730 C   0  0  0  0  0  2  0  0  0  0  0  0
  161.2100  204.7120  148.1150 Cl  0  0  0  0  0  0  0  0  0  0  0  0
  161.0560  203.1280  150.2610 C   0  0  0  0  0  3  0  0  0  0  0  0
  161.3510  204.3640  149.8260 C   0  0  0  0  0  0  0  0  0  0  0  0
  161.1470  202.7370  151.7110 C   0  0  0  0  0  2  0  0  0  0  0  0
  1 19  1  0  0  0  0
  2 15  1  6  0  0  0
  2  5  1  0  0  0  0
  3 14  1  0  0  0  0
  4  6  1  0  0  0  0
  5  7  1  6  0  0  0
  5 16  1  0  0  0  0
  6  2  1  0  0  0  0
  6  9  2  0  0  0  0
  7 18  1  0  0  0  0
  8  4  1  0  0  0  0
  9 13  1  0  0  0  0
  9 16  1  0  0  0  0
 10 13  1  0  0  0  0
 11 15  1  0  0  0  0
 12 11  1  0  0  0  0
 12  8  1  0  0  0  0
 14 20  1  0  0  0  0
 16 21  1  1  0  0  0
 17  4  2  0  0  0  0
 17  1  2  0  0  0  0
 18 30  1  1  0  0  0
 18  3  1  0  0  0  0
 19 10  1  0  0  0  0
 20 22  1  6  0  0  0
 21 20  1  0  0  0  0
 22 25  1  6  0  0  0
 22 24  1  0  0  0  0
 23 24  1  0  0  0  0
 25 26  1  0  0  0  0
 27 29  1  0  0  0  0
 27 26  1  0  0  0  0
 28 29  2  0  0  0  0
 32 31  1  0  0  0  0
 32 30  1  1  0  0  0
 33 32  1  0  0  0  0
 34 36  1  0  0  0  0
 35 37  1  0  0  0  0
 36 35  2  0  0  0  0
 36 33  1  0  0  0  0
 37 31  1  0  0  0  0
M  END
>  <MODEL>
1

>  <REMARK>
 VINA RESULT:      -5.6      0.000      0.000
  Name = 
  8 active torsions:
  status: ('A' for Active; 'I' for Inactive)
    1  A    between atoms: O_1  and  C_5
    2  A    between atoms: O_1  and  C_17
    3  A    between atoms: C_5  and  C_23
    4  A    between atoms: C_6  and  C_37
    5  A    between atoms: C_17  and  C_26
    6  A    between atoms: C_26  and  C_33
    7  A    between atoms: C_26  and  C_34
    8  A    between atoms: C_31  and  C_37
                            x       y       z     vdW  Elec       q    Type
                         _______ _______ _______ _____ _____    ______ ____

>  <TORSDO>
F 8

$$$$
=
 OpenBabel11062409103D

 37 41  0  0  1  0  0  0  0  0999 V2000
  159.6340  214.3580  150.5980 C   0  0  0  0  0  3  0  0  0  0  0  0
  161.8660  209.9330  150.6620 C   0  0  2  0  0  3  0  0  0  0  0  0
  160.2800  206.8170  153.9490 S   0  0  0  0  0  0  0  0  0  0  0  0
  161.2580  212.4100  150.0320 C   0  0  0  0  0  0  0  0  0  0  0  0
  161.5320  209.0320  151.7920 N   0  0  2  0  0  0  0  0  0  0  0  0
  161.2200  211.2420  150.9530 C   0  0  0  0  0  0  0  0  0  0  0  0
  160.5080  208.0430  151.4510 C   0  0  0  0  0  2  0  0  0  0  0  0
  162.1980  212.4560  148.8720 C   0  0  0  0  0  2  0  0  0  0  0  0
  160.7110  211.2140  152.1820 C   0  0  0  0  0  0  0  0  0  0  0  0
  158.7160  212.7270  152.3440 C   0  0  0  0  0  2  0  0  0  0  0  0
  162.3680  210.0450  148.1910 C   0  0  0  0  0  2  0  0  0  0  0  0
  161.8280  211.4200  147.8220 C   0  0  0  0  0  2  0  0  0  0  0  0
  160.0780  212.3610  152.9260 C   0  0  0  0  0  2  0  0  0  0  0  0
  161.8440  207.5490  154.5670 C   0  0  0  0  0  2  0  0  0  0  0  0
  161.5200  209.3860  149.2680 C   0  0  0  0  0  2  0  0  0  0  0  0
  160.9440  209.8950  152.8190 C   0  0  2  0  0  3  0  0  0  0  0  0
  160.4730  213.4260  150.2470 C   0  0  0  0  0  0  0  0  0  0  0  0
  160.7430  206.7220  152.1790 C   0  0  1  0  0  3  0  0  0  0  0  0
  158.7140  214.1550  151.7740 C   0  0  0  0  0  2  0  0  0  0  0  0
  161.6920  208.9910  155.0770 C   0  0  1  0  0  3  0  0  0  0  0  0
  161.9280  210.0280  153.9750 C   0  0  0  0  0  2  0  0  0  0  0  0
  160.4180  209.2500  155.9020 C   0  0  1  0  0  3  0  0  0  0  0  0
  159.8530  207.2050  157.2210 C   0  0  0  0  0  1  0  0  0  0  0  0
  160.5180  208.5670  157.2600 C   0  0  0  0  0  2  0  0  0  0  0  0
  160.2030  210.7470  156.1040 C   0  0  0  0  0  2  0  0  0  0  0  0
  161.1620  211.2550  156.9780 O   0  0  0  0  0  0  0  0  0  0  0  0
  161.0080  212.6390  156.9020 C   0  0  0  0  0  2  0  0  0  0  0  0
  159.2310  214.1240  156.0920 C   0  0  0  0  0  2  0  0  0  0  0  0
  159.5720  212.9820  156.6820 C   0  0  0  0  0  3  0  0  0  0  0  0
  162.1420  206.1510  151.9230 C   0  0  0  0  0  2  0  0  0  0  0  0
  161.2760  203.7700  151.8940 C   0  0  0  0  0  2  0  0  0  0  0  0
  162.1260  204.8160  151.1810 C   0  0  1  0  0  3  0  0  0  0  0  0
  161.6880  204.9870  149.7220 C   0  0  0  0  0  2  0  0  0  0  0  0
  161.0430  203.6910  147.3170 Cl  0  0  0  0  0  0  0  0  0  0  0  0
  161.2050  202.5330  149.7200 C   0  0  0  0  0  3  0  0  0  0  0  0
  161.3790  203.6770  149.0370 C   0  0  0  0  0  0  0  0  0  0  0  0
  161.4660  202.4280  151.1990 C   0  0  0  0  0  2  0  0  0  0  0  0
  1 19  1  0  0  0  0
  2 15  1  6  0  0  0
  2  6  1  0  0  0  0
  2  5  1  0  0  0  0
  3 14  1  0  0  0  0
  4 17  2  0  0  0  0
  4  6  1  0  0  0  0
  5  7  1  6  0  0  0
  5 16  1  0  0  0  0
  6  9  2  0  0  0  0
  7 18  1  0  0  0  0
  8  4  1  0  0  0  0
  9 16  1  0  0  0  0
  9 13  1  0  0  0  0
 10 13  1  0  0  0  0
 11 15  1  0  0  0  0
 12 11  1  0  0  0  0
 12  8  1  0  0  0  0
 14 20  1  0  0  0  0
 16 21  1  1  0  0  0
 17  1  2  0  0  0  0
 18 30  1  1  0  0  0
 18  3  1  0  0  0  0
 19 10  1  0  0  0  0
 20 22  1  6  0  0  0
 21 20  1  0  0  0  0
 22 25  1  1  0  0  0
 22 24  1  0  0  0  0
 23 24  1  0  0  0  0
 25 26  1  0  0  0  0
 27 26  1  0  0  0  0
 28 29  2  0  0  0  0
 29 27  1  0  0  0  0
 32 31  1  0  0  0  0
 32 30  1  1  0  0  0
 33 32  1  0  0  0  0
 34 36  1  0  0  0  0
 35 37  1  0  0  0  0
 36 35  2  0  0  0  0
 36 33  1  0  0  0  0
 37 31  1  0  0  0  0
M  END
>  <MODEL>
2

>  <REMARK>
 VINA RESULT:      -4.3      1.302      1.745
  Name = 
  8 active torsions:
  status: ('A' for Active; 'I' for Inactive)
    1  A    between atoms: O_1  and  C_5
    2  A    between atoms: O_1  and  C_17
    3  A    between atoms: C_5  and  C_23
    4  A    between atoms: C_6  and  C_37
    5  A    between atoms: C_17  and  C_26
    6  A    between atoms: C_26  and  C_33
    7  A    between atoms: C_26  and  C_34
    8  A    between atoms: C_31  and  C_37
                            x       y       z     vdW  Elec       q    Type
                         _______ _______ _______ _____ _____    ______ ____

>  <TORSDO>
F 8

$$$$
=
 OpenBabel11062409103D

 37 41  0  0  1  0  0  0  0  0999 V2000
  161.5840  201.4570  150.3500 C   0  0  0  0  0  3  0  0  0  0  0  0
  161.0410  205.9040  148.2300 C   0  0  2  0  0  3  0  0  0  0  0  0
  162.7060  209.6490  150.7260 S   0  0  0  0  0  0  0  0  0  0  0  0
  160.9130  203.3160  148.6640 C   0  0  0  0  0  0  0  0  0  0  0  0
  161.3640  207.0860  149.0650 N   0  0  2  0  0  0  0  0  0  0  0  0
  161.1110  204.7160  149.1250 C   0  0  0  0  0  0  0  0  0  0  0  0
  162.7130  207.6040  148.8270 C   0  0  0  0  0  2  0  0  0  0  0  0
  160.3370  203.0150  147.3180 C   0  0  0  0  0  2  0  0  0  0  0  0
  161.2730  205.1250  150.3810 C   0  0  0  0  0  0  0  0  0  0  0  0
  162.5290  203.4080  151.7110 C   0  0  0  0  0  2  0  0  0  0  0  0
  161.1700  204.9190  145.9100 C   0  0  0  0  0  2  0  0  0  0  0  0
  161.2870  203.4310  146.2060 C   0  0  0  0  0  2  0  0  0  0  0  0
  161.2710  204.2670  151.6190 C   0  0  0  0  0  2  0  0  0  0  0  0
  160.8850  209.5920  150.9350 C   0  0  0  0  0  2  0  0  0  0  0  0
  161.8900  205.7530  146.9580 C   0  0  0  0  0  2  0  0  0  0  0  0
  161.3480  206.6050  150.4490 C   0  0  2  0  0  3  0  0  0  0  0  0
  161.2270  202.3280  149.4500 C   0  0  0  0  0  0  0  0  0  0  0  0
  162.7640  209.1220  148.9730 C   0  0  1  0  0  3  0  0  0  0  0  0
  162.1910  201.9100  151.6520 C   0  0  0  0  0  2  0  0  0  0  0  0
  160.4070  208.4830  151.8860 C   0  0  1  0  0  3  0  0  0  0  0  0
  160.1190  207.1690  151.1530 C   0  0  0  0  0  2  0  0  0  0  0  0
  161.2670  208.3050  153.1500 C   0  0  1  0  0  3  0  0  0  0  0  0
  159.8750  210.2180  153.9520 C   0  0  0  0  0  1  0  0  0  0  0  0
  161.2500  209.5790  153.9860 C   0  0  0  0  0  2  0  0  0  0  0  0
  160.7520  207.1420  153.9920 C   0  0  0  0  0  2  0  0  0  0  0  0
  161.3550  207.1570  155.2490 O   0  0  0  0  0  0  0  0  0  0  0  0
  160.3280  206.8360  156.1350 C   0  0  0  0  0  2  0  0  0  0  0  0
  161.0920  208.8830  157.2510 C   0  0  0  0  0  2  0  0  0  0  0  0
  160.2980  207.8150  157.2610 C   0  0  0  0  0  3  0  0  0  0  0  0
  161.7530  209.8330  148.0680 C   0  0  0  0  0  2  0  0  0  0  0  0
  163.1420  211.9200  147.7010 C   0  0  0  0  0  2  0  0  0  0  0  0
  161.8080  211.3560  148.1760 C   0  0  1  0  0  3  0  0  0  0  0  0
  160.6340  212.0170  147.4450 C   0  0  0  0  0  2  0  0  0  0  0  0
  159.4620  214.4330  146.6260 Cl  0  0  0  0  0  0  0  0  0  0  0  0
  161.9800  214.1240  147.4670 C   0  0  0  0  0  3  0  0  0  0  0  0
  160.8010  213.5080  147.2770 C   0  0  0  0  0  0  0  0  0  0  0  0
  163.1840  213.4100  148.0190 C   0  0  0  0  0  2  0  0  0  0  0  0
  1 19  1  0  0  0  0
  2 15  1  6  0  0  0
  2  5  1  0  0  0  0
  2  6  1  0  0  0  0
  3 14  1  0  0  0  0
  4  6  1  0  0  0  0
  4 17  2  0  0  0  0
  5  7  1  6  0  0  0
  5 16  1  0  0  0  0
  6  9  2  0  0  0  0
  7 18  1  0  0  0  0
  8  4  1  0  0  0  0
  9 16  1  0  0  0  0
  9 13  1  0  0  0  0
 11 12  1  0  0  0  0
 11 15  1  0  0  0  0
 12  8  1  0  0  0  0
 13 10  1  0  0  0  0
 14 20  1  0  0  0  0
 16 21  1  1  0  0  0
 17  1  2  0  0  0  0
 18 30  1  6  0  0  0
 18  3  1  0  0  0  0
 19 10  1  0  0  0  0
 20 22  1  1  0  0  0
 21 20  1  0  0  0  0
 22 24  1  1  0  0  0
 22 25  1  0  0  0  0
 23 24  1  0  0  0  0
 25 26  1  0  0  0  0
 26 27  1  0  0  0  0
 27 29  1  0  0  0  0
 28 29  2  0  0  0  0
 31 37  1  0  0  0  0
 31 32  1  0  0  0  0
 32 30  1  6  0  0  0
 33 32  1  0  0  0  0
 34 36  1  0  0  0  0
 35 37  1  0  0  0  0
 36 33  1  0  0  0  0
 36 35  2  0  0  0  0
M  END
>  <MODEL>
3

>  <REMARK>
 VINA RESULT:      -4.1      2.973      7.400
  Name = 
  8 active torsions:
  status: ('A' for Active; 'I' for Inactive)
    1  A    between atoms: O_1  and  C_5
    2  A    between atoms: O_1  and  C_17
    3  A    between atoms: C_5  and  C_23
    4  A    between atoms: C_6  and  C_37
    5  A    between atoms: C_17  and  C_26
    6  A    between atoms: C_26  and  C_33
    7  A    between atoms: C_26  and  C_34
    8  A    between atoms: C_31  and  C_37
                            x       y       z     vdW  Elec       q    Type
                         _______ _______ _______ _____ _____    ______ ____

>  <TORSDO>
F 8

$$$$
=
 OpenBabel11062409103D

 37 41  0  0  1  0  0  0  0  0999 V2000
  159.6020  214.3650  150.6810 C   0  0  0  0  0  3  0  0  0  0  0  0
  161.8350  209.9400  150.6800 C   0  0  2  0  0  3  0  0  0  0  0  0
  160.1250  206.7140  153.7940 S   0  0  0  0  0  0  0  0  0  0  0  0
  161.2490  212.4380  150.1130 C   0  0  0  0  0  0  0  0  0  0  0  0
  161.4580  209.0020  151.7640 N   0  0  2  0  0  0  0  0  0  0  0  0
  161.1770  211.2390  150.9900 C   0  0  0  0  0  0  0  0  0  0  0  0
  160.4500  208.0240  151.3500 C   0  0  0  0  0  2  0  0  0  0  0  0
  162.2340  212.5230  148.9920 C   0  0  0  0  0  2  0  0  0  0  0  0
  160.6190  211.1690  152.1970 C   0  0  0  0  0  0  0  0  0  0  0  0
  158.6180  212.6760  152.3320 C   0  0  0  0  0  2  0  0  0  0  0  0
  162.4340  210.1370  148.2360 C   0  0  0  0  0  2  0  0  0  0  0  0
  161.9070  211.5240  147.8930 C   0  0  0  0  0  2  0  0  0  0  0  0
  159.9570  212.2900  152.9550 C   0  0  0  0  0  2  0  0  0  0  0  0
  161.6630  207.4230  154.4980 C   0  0  0  0  0  2  0  0  0  0  0  0
  161.5450  209.4420  149.2560 C   0  0  0  0  0  2  0  0  0  0  0  0
  160.8290  209.8290  152.7970 C   0  0  2  0  0  3  0  0  0  0  0  0
  160.4560  213.4460  150.3310 C   0  0  0  0  0  0  0  0  0  0  0  0
  160.6570  206.6800  152.0410 C   0  0  1  0  0  3  0  0  0  0  0  0
  158.6370  214.1220  151.8120 C   0  0  0  0  0  2  0  0  0  0  0  0
  161.4890  208.8470  155.0510 C   0  0  1  0  0  3  0  0  0  0  0  0
  161.7670  209.9220  153.9950 C   0  0  0  0  0  2  0  0  0  0  0  0
  160.1830  209.0780  155.8330 C   0  0  1  0  0  3  0  0  0  0  0  0
  160.7500  207.1070  157.2600 C   0  0  0  0  0  1  0  0  0  0  0  0
  160.3230  208.5630  157.2600 C   0  0  0  0  0  2  0  0  0  0  0  0
  159.8300  210.5620  155.8640 C   0  0  0  0  0  2  0  0  0  0  0  0
  158.4510  210.7290  155.7380 O   0  0  0  0  0  0  0  0  0  0  0  0
  158.2250  212.0580  156.0920 C   0  0  0  0  0  2  0  0  0  0  0  0
  156.0490  211.6420  155.0370 C   0  0  0  0  0  2  0  0  0  0  0  0
  156.9110  212.5150  155.5510 C   0  0  0  0  0  3  0  0  0  0  0  0
  162.0660  206.1170  151.8210 C   0  0  0  0  0  2  0  0  0  0  0  0
  161.2230  203.7290  151.7460 C   0  0  0  0  0  2  0  0  0  0  0  0
  162.0780  204.7910  151.0630 C   0  0  1  0  0  3  0  0  0  0  0  0
  161.6690  204.9750  149.5970 C   0  0  0  0  0  2  0  0  0  0  0  0
  161.0870  203.7020  147.1640 Cl  0  0  0  0  0  0  0  0  0  0  0  0
  161.2100  202.5180  149.5560 C   0  0  0  0  0  3  0  0  0  0  0  0
  161.3870  203.6710  148.8900 C   0  0  0  0  0  0  0  0  0  0  0  0
  161.4420  202.3970  151.0380 C   0  0  0  0  0  2  0  0  0  0  0  0
  1 19  1  0  0  0  0
  2 15  1  6  0  0  0
  2  6  1  0  0  0  0
  2  5  1  0  0  0  0
  3 14  1  0  0  0  0
  4 17  2  0  0  0  0
  4  6  1  0  0  0  0
  5  7  1  6  0  0  0
  5 16  1  0  0  0  0
  6  9  2  0  0  0  0
  7 18  1  0  0  0  0
  8  4  1  0  0  0  0
  9 16  1  0  0  0  0
  9 13  1  0  0  0  0
 10 13  1  0  0  0  0
 11 15  1  0  0  0  0
 12 11  1  0  0  0  0
 12  8  1  0  0  0  0
 14 20  1  0  0  0  0
 16 21  1  1  0  0  0
 17  1  2  0  0  0  0
 18 30  1  1  0  0  0
 18  3  1  0  0  0  0
 19 10  1  0  0  0  0
 20 22  1  6  0  0  0
 21 20  1  0  0  0  0
 22 25  1  1  0  0  0
 22 24  1  0  0  0  0
 24 23  1  0  0  0  0
 26 25  1  0  0  0  0
 26 27  1  0  0  0  0
 28 29  2  0  0  0  0
 29 27  1  0  0  0  0
 32 31  1  0  0  0  0
 32 30  1  1  0  0  0
 33 32  1  0  0  0  0
 34 36  1  0  0  0  0
 35 37  1  0  0  0  0
 36 35  2  0  0  0  0
 36 33  1  0  0  0  0
 37 31  1  0  0  0  0
M  END
>  <MODEL>
4

>  <REMARK>
 VINA RESULT:      -4.1      1.010      1.438
  Name = 
  8 active torsions:
  status: ('A' for Active; 'I' for Inactive)
    1  A    between atoms: O_1  and  C_5
    2  A    between atoms: O_1  and  C_17
    3  A    between atoms: C_5  and  C_23
    4  A    between atoms: C_6  and  C_37
    5  A    between atoms: C_17  and  C_26
    6  A    between atoms: C_26  and  C_33
    7  A    between atoms: C_26  and  C_34
    8  A    between atoms: C_31  and  C_37
                            x       y       z     vdW  Elec       q    Type
                         _______ _______ _______ _____ _____    ______ ____

>  <TORSDO>
F 8

$$$$
=
 OpenBabel11062409103D

 37 41  0  0  1  0  0  0  0  0999 V2000
  161.5860  204.9310  149.8360 C   0  0  0  0  0  3  0  0  0  0  0  0
  161.2340  208.7820  152.9360 C   0  0  2  0  0  3  0  0  0  0  0  0
  159.0450  212.6880  151.2090 S   0  0  0  0  0  0  0  0  0  0  0  0
  161.8390  206.4250  151.9470 C   0  0  0  0  0  0  0  0  0  0  0  0
  160.7440  210.0590  152.3630 N   0  0  2  0  0  0  0  0  0  0  0  0
  161.4170  207.8430  151.7950 C   0  0  0  0  0  0  0  0  0  0  0  0
  159.3150  210.2800  152.5950 C   0  0  0  0  0  2  0  0  0  0  0  0
  162.3980  205.9130  153.2350 C   0  0  0  0  0  2  0  0  0  0  0  0
  161.2420  208.5040  150.6530 C   0  0  0  0  0  0  0  0  0  0  0  0
  160.3720  206.9670  148.8710 C   0  0  0  0  0  2  0  0  0  0  0  0
  161.1770  207.2710  154.9570 C   0  0  0  0  0  2  0  0  0  0  0  0
  161.3400  205.8960  154.3270 C   0  0  0  0  0  2  0  0  0  0  0  0
  161.4520  207.9730  149.2590 C   0  0  0  0  0  2  0  0  0  0  0  0
  160.8540  212.9780  151.1490 C   0  0  0  0  0  2  0  0  0  0  0  0
  160.3680  208.2000  154.0650 C   0  0  0  0  0  2  0  0  0  0  0  0
  160.9080  209.9260  150.9130 C   0  0  2  0  0  3  0  0  0  0  0  0
  161.7410  205.6120  150.9350 C   0  0  0  0  0  0  0  0  0  0  0  0
  159.0020  211.7610  152.7880 C   0  0  1  0  0  3  0  0  0  0  0  0
  160.9680  205.5730  148.6210 C   0  0  0  0  0  2  0  0  0  0  0  0
  161.5650  212.2160  150.0180 C   0  0  1  0  0  3  0  0  0  0  0  0
  162.0470  210.8310  150.4600 C   0  0  0  0  0  2  0  0  0  0  0  0
  160.8080  212.2040  148.6780 C   0  0  1  0  0  3  0  0  0  0  0  0
  158.9530  213.3920  147.4990 C   0  0  0  0  0  1  0  0  0  0  0  0
  160.1340  213.5490  148.4370 C   0  0  0  0  0  2  0  0  0  0  0  0
  161.7610  211.9030  147.5250 C   0  0  0  0  0  2  0  0  0  0  0  0
  162.5130  213.0360  147.2170 O   0  0  0  0  0  0  0  0  0  0  0  0
  162.5270  213.0800  145.8240 C   0  0  0  0  0  2  0  0  0  0  0  0
  160.9600  214.4530  144.5280 C   0  0  0  0  0  2  0  0  0  0  0  0
  162.0050  214.3950  145.3480 C   0  0  0  0  0  3  0  0  0  0  0  0
  159.8290  212.3940  153.9130 C   0  0  0  0  0  2  0  0  0  0  0  0
  158.6740  214.1950  155.2710 C   0  0  0  0  0  2  0  0  0  0  0  0
  159.0090  212.7120  155.1630 C   0  0  1  0  0  3  0  0  0  0  0  0
  157.7440  211.8490  155.2430 C   0  0  0  0  0  2  0  0  0  0  0  0
  155.3590  211.3370  156.6300 Cl  0  0  0  0  0  0  0  0  0  0  0  0
  156.8580  213.5360  156.8610 C   0  0  0  0  0  3  0  0  0  0  0  0
  156.7660  212.3230  156.2910 C   0  0  0  0  0  0  0  0  0  0  0  0
  158.0280  214.4530  156.6260 C   0  0  0  0  0  2  0  0  0  0  0  0
  1 17  2  0  0  0  0
  2 15  1  1  0  0  0
  3 18  1  0  0  0  0
  4  8  1  0  0  0  0
  5  7  1  6  0  0  0
  5  2  1  0  0  0  0
  6  4  1  0  0  0  0
  6  2  1  0  0  0  0
  7 18  1  0  0  0  0
  8 12  1  0  0  0  0
  9 16  1  0  0  0  0
  9  6  2  0  0  0  0
 10 13  1  0  0  0  0
 12 11  1  0  0  0  0
 13  9  1  0  0  0  0
 14  3  1  0  0  0  0
 15 11  1  0  0  0  0
 16 21  1  1  0  0  0
 16  5  1  0  0  0  0
 17  4  2  0  0  0  0
 18 30  1  1  0  0  0
 19 10  1  0  0  0  0
 19  1  1  0  0  0  0
 20 22  1  6  0  0  0
 20 21  1  0  0  0  0
 20 14  1  0  0  0  0
 22 25  1  6  0  0  0
 23 24  1  0  0  0  0
 24 22  1  0  0  0  0
 26 25  1  0  0  0  0
 27 26  1  0  0  0  0
 28 29  2  0  0  0  0
 29 27  1  0  0  0  0
 31 37  1  0  0  0  0
 32 30  1  6  0  0  0
 32 33  1  0  0  0  0
 32 31  1  0  0  0  0
 33 36  1  0  0  0  0
 36 34  1  0  0  0  0
 36 35  2  0  0  0  0
 37 35  1  0  0  0  0
M  END
>  <MODEL>
5

>  <REMARK>
 VINA RESULT:      -3.9      3.340      8.110
  Name = 
  8 active torsions:
  status: ('A' for Active; 'I' for Inactive)
    1  A    between atoms: O_1  and  C_5
    2  A    between atoms: O_1  and  C_17
    3  A    between atoms: C_5  and  C_23
    4  A    between atoms: C_6  and  C_37
    5  A    between atoms: C_17  and  C_26
    6  A    between atoms: C_26  and  C_33
    7  A    between atoms: C_26  and  C_34
    8  A    between atoms: C_31  and  C_37
                            x       y       z     vdW  Elec       q    Type
                         _______ _______ _______ _____ _____    ______ ____

>  <TORSDO>
F 8

$$$$
=
 OpenBabel11062409103D

 37 41  0  0  1  0  0  0  0  0999 V2000
  161.5960  204.9200  149.0870 C   0  0  0  0  0  3  0  0  0  0  0  0
  161.5610  208.7430  152.2410 C   0  0  2  0  0  3  0  0  0  0  0  0
  159.4960  212.7710  150.6510 S   0  0  0  0  0  0  0  0  0  0  0  0
  162.0100  206.3720  151.2010 C   0  0  0  0  0  0  0  0  0  0  0  0
  161.1110  210.0490  151.7030 N   0  0  2  0  0  0  0  0  0  0  0  0
  161.6510  207.8100  151.0830 C   0  0  0  0  0  0  0  0  0  0  0  0
  159.7060  210.3350  151.9970 C   0  0  0  0  0  2  0  0  0  0  0  0
  162.5960  205.8170  152.4580 C   0  0  0  0  0  2  0  0  0  0  0  0
  161.4610  208.4940  149.9570 C   0  0  0  0  0  0  0  0  0  0  0  0
  160.4440  207.0240  148.1960 C   0  0  0  0  0  2  0  0  0  0  0  0
  161.5160  207.2100  154.2460 C   0  0  0  0  0  2  0  0  0  0  0  0
  161.5840  205.8360  153.5940 C   0  0  0  0  0  2  0  0  0  0  0  0
  161.5870  207.9720  148.5500 C   0  0  0  0  0  2  0  0  0  0  0  0
  161.3130  212.9740  150.5170 C   0  0  0  0  0  2  0  0  0  0  0  0
  160.7160  208.1880  153.3980 C   0  0  0  0  0  2  0  0  0  0  0  0
  161.2090  209.9270  150.2460 C   0  0  2  0  0  3  0  0  0  0  0  0
  161.8300  205.5780  150.1860 C   0  0  0  0  0  0  0  0  0  0  0  0
  159.4740  211.8270  152.2200 C   0  0  1  0  0  3  0  0  0  0  0  0
  160.9600  205.6060  147.9060 C   0  0  0  0  0  2  0  0  0  0  0  0
  161.9380  212.1940  149.3490 C   0  0  1  0  0  3  0  0  0  0  0  0
  162.3710  210.7820  149.7550 C   0  0  0  0  0  2  0  0  0  0  0  0
  161.1270  212.2350  148.0420 C   0  0  1  0  0  3  0  0  0  0  0  0
  159.1520  213.2500  146.8950 C   0  0  0  0  0  1  0  0  0  0  0  0
  160.0250  213.2840  148.1350 C   0  0  0  0  0  2  0  0  0  0  0  0
  162.0310  212.5580  146.8570 C   0  0  0  0  0  2  0  0  0  0  0  0
  162.6620  213.7860  147.0560 O   0  0  0  0  0  0  0  0  0  0  0  0
  162.6970  214.3710  145.7920 C   0  0  0  0  0  2  0  0  0  0  0  0
  163.0680  213.5170  143.5220 C   0  0  0  0  0  2  0  0  0  0  0  0
  162.5670  213.3220  144.7380 C   0  0  0  0  0  3  0  0  0  0  0  0
  160.3770  212.4050  153.3160 C   0  0  0  0  0  2  0  0  0  0  0  0
  158.7990  211.0240  154.7390 C   0  0  0  0  0  2  0  0  0  0  0  0
  160.0940  211.8270  154.7010 C   0  0  1  0  0  3  0  0  0  0  0  0
  161.2760  210.9990  155.2190 C   0  0  0  0  0  2  0  0  0  0  0  0
  162.2290  209.3220  157.2580 Cl  0  0  0  0  0  0  0  0  0  0  0  0
  159.6700  209.9600  156.8290 C   0  0  0  0  0  3  0  0  0  0  0  0
  160.9370  210.1780  156.4400 C   0  0  0  0  0  0  0  0  0  0  0  0
  158.4970  210.6490  156.1840 C   0  0  0  0  0  2  0  0  0  0  0  0
  1 17  2  0  0  0  0
  2 15  1  1  0  0  0
  3 18  1  0  0  0  0
  4  8  1  0  0  0  0
  5  7  1  6  0  0  0
  5  2  1  0  0  0  0
  6  4  1  0  0  0  0
  6  2  1  0  0  0  0
  7 18  1  0  0  0  0
  8 12  1  0  0  0  0
  9 16  1  0  0  0  0
  9  6  2  0  0  0  0
 10 13  1  0  0  0  0
 12 11  1  0  0  0  0
 13  9  1  0  0  0  0
 14  3  1  0  0  0  0
 15 11  1  0  0  0  0
 16 21  1  1  0  0  0
 16  5  1  0  0  0  0
 17  4  2  0  0  0  0
 18 30  1  1  0  0  0
 19 10  1  0  0  0  0
 19  1  1  0  0  0  0
 20 22  1  6  0  0  0
 20 21  1  0  0  0  0
 20 14  1  0  0  0  0
 22 25  1  6  0  0  0
 22 24  1  0  0  0  0
 23 24  1  0  0  0  0
 25 26  1  0  0  0  0
 27 26  1  0  0  0  0
 28 29  2  0  0  0  0
 29 27  1  0  0  0  0
 31 37  1  0  0  0  0
 32 30  1  6  0  0  0
 32 31  1  0  0  0  0
 32 33  1  0  0  0  0
 33 36  1  0  0  0  0
 36 35  2  0  0  0  0
 36 34  1  0  0  0  0
 37 35  1  0  0  0  0
M  END
>  <MODEL>
6

>  <REMARK>
 VINA RESULT:      -3.6      3.250      7.718
  Name = 
  8 active torsions:
  status: ('A' for Active; 'I' for Inactive)
    1  A    between atoms: O_1  and  C_5
    2  A    between atoms: O_1  and  C_17
    3  A    between atoms: C_5  and  C_23
    4  A    between atoms: C_6  and  C_37
    5  A    between atoms: C_17  and  C_26
    6  A    between atoms: C_26  and  C_33
    7  A    between atoms: C_26  and  C_34
    8  A    between atoms: C_31  and  C_37
                            x       y       z     vdW  Elec       q    Type
                         _______ _______ _______ _____ _____    ______ ____

>  <TORSDO>
F 8

$$$$
=
 OpenBabel11062409103D

 37 41  0  0  1  0  0  0  0  0999 V2000
  161.8490  212.8550  148.0680 C   0  0  0  0  0  3  0  0  0  0  0  0
  159.7340  211.4380  152.3200 C   0  0  2  0  0  3  0  0  0  0  0  0
  162.0780  208.0840  154.8280 S   0  0  0  0  0  0  0  0  0  0  0  0
  160.1550  212.6470  150.0260 C   0  0  0  0  0  0  0  0  0  0  0  0
  160.3330  210.2680  153.0070 N   0  0  2  0  0  0  0  0  0  0  0  0
  160.4190  211.5580  151.0040 C   0  0  0  0  0  0  0  0  0  0  0  0
  161.2560  210.6450  154.0800 C   0  0  0  0  0  2  0  0  0  0  0  0
  158.9670  213.5440  150.1630 C   0  0  0  0  0  2  0  0  0  0  0  0
  161.2050  210.4990  150.8220 C   0  0  0  0  0  0  0  0  0  0  0  0
  163.1680  211.0960  149.3790 C   0  0  0  0  0  2  0  0  0  0  0  0
  158.6610  213.6980  152.6500 C   0  0  0  0  0  2  0  0  0  0  0  0
  159.0870  214.4360  151.3880 C   0  0  0  0  0  2  0  0  0  0  0  0
  161.9850  210.1540  149.5810 C   0  0  0  0  0  2  0  0  0  0  0  0
  160.6980  207.2670  153.9380 C   0  0  0  0  0  2  0  0  0  0  0  0
  159.7450  212.7450  153.1280 C   0  0  0  0  0  2  0  0  0  0  0  0
  161.1400  209.5880  151.9910 C   0  0  2  0  0  3  0  0  0  0  0  0
  160.9590  212.8180  149.0180 C   0  0  0  0  0  0  0  0  0  0  0  0
  161.2110  209.6460  155.2320 C   0  0  1  0  0  3  0  0  0  0  0  0
  163.0230  211.9100  148.0830 C   0  0  0  0  0  2  0  0  0  0  0  0
  160.9550  207.0890  152.4330 C   0  0  1  0  0  3  0  0  0  0  0  0
  160.4560  208.2810  151.6100 C   0  0  0  0  0  2  0  0  0  0  0  0
  162.3850  206.6490  152.0720 C   0  0  1  0  0  3  0  0  0  0  0  0
  161.2430  204.4270  152.1500 C   0  0  0  0  0  1  0  0  0  0  0  0
  162.5610  205.1570  152.3300 C   0  0  0  0  0  2  0  0  0  0  0  0
  162.6860  206.9460  150.6060 C   0  0  0  0  0  2  0  0  0  0  0  0
  161.7510  206.3140  149.7870 O   0  0  0  0  0  0  0  0  0  0  0  0
  162.0150  206.8060  148.5100 C   0  0  0  0  0  2  0  0  0  0  0  0
  160.8490  205.7280  146.6390 C   0  0  0  0  0  2  0  0  0  0  0  0
  160.8240  206.6140  147.6310 C   0  0  0  0  0  3  0  0  0  0  0  0
  159.7960  209.4560  155.7900 C   0  0  0  0  0  2  0  0  0  0  0  0
  160.2230  211.8600  156.4680 C   0  0  0  0  0  2  0  0  0  0  0  0
  159.2020  210.7310  156.3850 C   0  0  1  0  0  3  0  0  0  0  0  0
  157.9440  211.1740  155.6280 C   0  0  0  0  0  2  0  0  0  0  0  0
  155.9700  213.1490  155.3470 Cl  0  0  0  0  0  0  0  0  0  0  0  0
  158.2830  213.4280  156.6560 C   0  0  0  0  0  3  0  0  0  0  0  0
  157.4930  212.5700  155.9890 C   0  0  0  0  0  0  0  0  0  0  0  0
  159.6080  213.0200  157.2400 C   0  0  0  0  0  2  0  0  0  0  0  0
  1 19  1  0  0  0  0
  1 17  2  0  0  0  0
  2  5  1  0  0  0  0
  2 15  1  1  0  0  0
  3 18  1  0  0  0  0
  4  8  1  0  0  0  0
  4  6  1  0  0  0  0
  5  7  1  1  0  0  0
  6  2  1  0  0  0  0
  7 18  1  0  0  0  0
  8 12  1  0  0  0  0
  9  6  2  0  0  0  0
  9 16  1  0  0  0  0
 10 13  1  0  0  0  0
 11 15  1  0  0  0  0
 12 11  1  0  0  0  0
 13  9  1  0  0  0  0
 14  3  1  0  0  0  0
 16 21  1  6  0  0  0
 16  5  1  0  0  0  0
 17  4  2  0  0  0  0
 18 30  1  6  0  0  0
 19 10  1  0  0  0  0
 20 22  1  1  0  0  0
 20 14  1  0  0  0  0
 21 20  1  0  0  0  0
 22 25  1  6  0  0  0
 22 24  1  0  0  0  0
 23 24  1  0  0  0  0
 26 25  1  0  0  0  0
 27 26  1  0  0  0  0
 28 29  2  0  0  0  0
 29 27  1  0  0  0  0
 31 37  1  0  0  0  0
 32 30  1  6  0  0  0
 32 31  1  0  0  0  0
 33 36  1  0  0  0  0
 33 32  1  0  0  0  0
 34 36  1  0  0  0  0
 35 37  1  0  0  0  0
 36 35  2  0  0  0  0
M  END
>  <MODEL>
7

>  <REMARK>
 VINA RESULT:      -3.5      2.772      6.868
  Name = 
  8 active torsions:
  status: ('A' for Active; 'I' for Inactive)
    1  A    between atoms: O_1  and  C_5
    2  A    between atoms: O_1  and  C_17
    3  A    between atoms: C_5  and  C_23
    4  A    between atoms: C_6  and  C_37
    5  A    between atoms: C_17  and  C_26
    6  A    between atoms: C_26  and  C_33
    7  A    between atoms: C_26  and  C_34
    8  A    between atoms: C_31  and  C_37
                            x       y       z     vdW  Elec       q    Type
                         _______ _______ _______ _____ _____    ______ ____

>  <TORSDO>
F 8

$$$$
=
 OpenBabel11062409103D

 37 41  0  0  1  0  0  0  0  0999 V2000
  159.3430  214.4530  151.6070 C   0  0  0  0  0  3  0  0  0  0  0  0
  161.8370  210.9280  149.1740 C   0  0  2  0  0  3  0  0  0  0  0  0
  160.9200  206.4050  150.4890 S   0  0  0  0  0  0  0  0  0  0  0  0
  160.9930  213.2830  149.9760 C   0  0  0  0  0  0  0  0  0  0  0  0
  161.7200  209.5450  149.6960 N   0  0  2  0  0  0  0  0  0  0  0  0
  161.1560  211.8160  150.1560 C   0  0  0  0  0  0  0  0  0  0  0  0
  160.7230  208.7460  148.9810 C   0  0  0  0  0  2  0  0  0  0  0  0
  161.7590  214.0280  148.9320 C   0  0  0  0  0  2  0  0  0  0  0  0
  160.8240  211.1040  151.2310 C   0  0  0  0  0  0  0  0  0  0  0  0
  158.7790  212.0620  152.3240 C   0  0  0  0  0  2  0  0  0  0  0  0
  161.9860  212.3400  147.0870 C   0  0  0  0  0  2  0  0  0  0  0  0
  161.3140  213.6320  147.5330 C   0  0  0  0  0  2  0  0  0  0  0  0
  160.2290  211.6250  152.5130 C   0  0  0  0  0  2  0  0  0  0  0  0
  162.5050  206.9100  151.2610 C   0  0  0  0  0  2  0  0  0  0  0  0
  161.3380  211.1250  147.7340 C   0  0  0  0  0  2  0  0  0  0  0  0
  161.2260  209.6850  151.0690 C   0  0  2  0  0  3  0  0  0  0  0  0
  160.1830  213.9420  150.7530 C   0  0  0  0  0  0  0  0  0  0  0  0
  161.1390  207.2800  148.8950 C   0  0  1  0  0  3  0  0  0  0  0  0
  158.6090  213.5680  152.5800 C   0  0  0  0  0  2  0  0  0  0  0  0
  162.3330  207.8620  152.4560 C   0  0  1  0  0  3  0  0  0  0  0  0
  162.3490  209.3350  152.0370 C   0  0  0  0  0  2  0  0  0  0  0  0
  161.1720  207.5060  153.4010 C   0  0  1  0  0  3  0  0  0  0  0  0
  160.8440  205.0290  153.4480 C   0  0  0  0  0  1  0  0  0  0  0  0
  161.4770  206.2150  154.1510 C   0  0  0  0  0  2  0  0  0  0  0  0
  160.9300  208.6280  154.4050 C   0  0  0  0  0  2  0  0  0  0  0  0
  160.0740  208.1910  155.4150 O   0  0  0  0  0  0  0  0  0  0  0  0
  160.5140  208.8560  156.5590 C   0  0  0  0  0  2  0  0  0  0  0  0
  162.6600  209.9610  157.0030 C   0  0  0  0  0  2  0  0  0  0  0  0
  162.0060  208.8760  156.5970 C   0  0  0  0  0  3  0  0  0  0  0  0
  162.5230  207.0980  148.2610 C   0  0  0  0  0  2  0  0  0  0  0  0
  161.8610  204.7020  147.7700 C   0  0  0  0  0  2  0  0  0  0  0  0
  162.5850  205.9440  147.2630 C   0  0  1  0  0  3  0  0  0  0  0  0
  162.0680  206.3630  145.8820 C   0  0  0  0  0  2  0  0  0  0  0  0
  161.4260  205.5240  143.2820 Cl  0  0  0  0  0  0  0  0  0  0  0  0
  161.7950  203.9270  145.3920 C   0  0  0  0  0  3  0  0  0  0  0  0
  161.8400  205.1950  144.9520 C   0  0  0  0  0  0  0  0  0  0  0  0
  162.1320  203.5500  146.8100 C   0  0  0  0  0  2  0  0  0  0  0  0
  1 19  1  0  0  0  0
  2 15  1  6  0  0  0
  2  5  1  0  0  0  0
  2  6  1  0  0  0  0
  3 14  1  0  0  0  0
  4  6  1  0  0  0  0
  4 17  2  0  0  0  0
  5  7  1  6  0  0  0
  5 16  1  0  0  0  0
  6  9  2  0  0  0  0
  8  4  1  0  0  0  0
  9 13  1  0  0  0  0
 10 13  1  0  0  0  0
 10 19  1  0  0  0  0
 11 12  1  0  0  0  0
 11 15  1  0  0  0  0
 12  8  1  0  0  0  0
 14 20  1  0  0  0  0
 16  9  1  0  0  0  0
 16 21  1  1  0  0  0
 17  1  2  0  0  0  0
 18 30  1  1  0  0  0
 18  7  1  0  0  0  0
 18  3  1  0  0  0  0
 20 22  1  6  0  0  0
 21 20  1  0  0  0  0
 22 24  1  1  0  0  0
 22 25  1  0  0  0  0
 23 24  1  0  0  0  0
 25 26  1  0  0  0  0
 26 27  1  0  0  0  0
 27 29  1  0  0  0  0
 29 28  2  0  0  0  0
 32 31  1  0  0  0  0
 32 30  1  1  0  0  0
 33 32  1  0  0  0  0
 34 36  1  0  0  0  0
 35 37  1  0  0  0  0
 36 35  2  0  0  0  0
 36 33  1  0  0  0  0
 37 31  1  0  0  0  0
M  END
>  <MODEL>
8

>  <REMARK>
 VINA RESULT:      -3.4      2.301      4.082
  Name = 
  8 active torsions:
  status: ('A' for Active; 'I' for Inactive)
    1  A    between atoms: O_1  and  C_5
    2  A    between atoms: O_1  and  C_17
    3  A    between atoms: C_5  and  C_23
    4  A    between atoms: C_6  and  C_37
    5  A    between atoms: C_17  and  C_26
    6  A    between atoms: C_26  and  C_33
    7  A    between atoms: C_26  and  C_34
    8  A    between atoms: C_31  and  C_37
                            x       y       z     vdW  Elec       q    Type
                         _______ _______ _______ _____ _____    ______ ____

>  <TORSDO>
F 8

$$$$
=
 OpenBabel11062409103D

 37 41  0  0  1  0  0  0  0  0999 V2000
  160.8190  204.2620  146.3490 C   0  0  0  0  0  3  0  0  0  0  0  0
  161.5820  205.5250  151.0810 C   0  0  2  0  0  3  0  0  0  0  0  0
  160.4170  210.0230  152.2780 S   0  0  0  0  0  0  0  0  0  0  0  0
  161.5240  204.1430  148.8470 C   0  0  0  0  0  0  0  0  0  0  0  0
  161.4190  206.9580  151.4250 N   0  0  2  0  0  0  0  0  0  0  0  0
  161.4760  205.4250  149.5990 C   0  0  0  0  0  0  0  0  0  0  0  0
  160.1040  207.2640  151.9930 C   0  0  0  0  0  2  0  0  0  0  0  0
  161.9760  202.8760  149.4980 C   0  0  0  0  0  2  0  0  0  0  0  0
  161.4380  206.6510  149.0810 C   0  0  0  0  0  0  0  0  0  0  0  0
  160.1390  206.6590  146.9340 C   0  0  0  0  0  2  0  0  0  0  0  0
  161.2080  203.1570  151.8720 C   0  0  0  0  0  2  0  0  0  0  0  0
  160.9880  202.4180  150.5600 C   0  0  0  0  0  2  0  0  0  0  0  0
  161.4550  207.0160  147.6200 C   0  0  0  0  0  2  0  0  0  0  0  0
  162.2370  209.9450  152.0680 C   0  0  0  0  0  2  0  0  0  0  0  0
  160.6360  204.5660  151.8190 C   0  0  0  0  0  2  0  0  0  0  0  0
  161.4930  207.6780  150.1500 C   0  0  2  0  0  3  0  0  0  0  0  0
  161.1840  204.1190  147.5920 C   0  0  0  0  0  0  0  0  0  0  0  0
  160.1920  208.3720  153.0380 C   0  0  1  0  0  3  0  0  0  0  0  0
  160.3450  205.5990  145.8410 C   0  0  0  0  0  2  0  0  0  0  0  0
  162.6860  209.8800  150.5990 C   0  0  1  0  0  3  0  0  0  0  0  0
  162.8100  208.4410  150.0890 C   0  0  0  0  0  2  0  0  0  0  0  0
  161.9060  210.8030  149.6460 C   0  0  1  0  0  3  0  0  0  0  0  0
  160.3440  212.7470  149.7980 C   0  0  0  0  0  1  0  0  0  0  0  0
  161.6390  212.1470  150.3120 C   0  0  0  0  0  2  0  0  0  0  0  0
  162.6850  211.0260  148.3540 C   0  0  0  0  0  2  0  0  0  0  0  0
  163.1140  212.3500  148.2750 O   0  0  0  0  0  0  0  0  0  0  0  0
  163.1060  212.6400  146.9120 C   0  0  0  0  0  2  0  0  0  0  0  0
  160.8430  213.3350  146.2660 C   0  0  0  0  0  2  0  0  0  0  0  0
  162.0790  213.6820  146.6160 C   0  0  0  0  0  3  0  0  0  0  0  0
  161.1930  208.0500  154.1540 C   0  0  0  0  0  2  0  0  0  0  0  0
  162.1170  209.7840  155.7540 C   0  0  0  0  0  2  0  0  0  0  0  0
  160.9540  208.8510  155.4320 C   0  0  1  0  0  3  0  0  0  0  0  0
  159.6260  209.6160  155.3800 C   0  0  0  0  0  2  0  0  0  0  0  0
  157.9500  211.4640  156.6670 Cl  0  0  0  0  0  0  0  0  0  0  0  0
  160.5300  211.0440  157.2230 C   0  0  0  0  0  3  0  0  0  0  0  0
  159.4850  210.6390  156.4820 C   0  0  0  0  0  0  0  0  0  0  0  0
  161.8860  210.3970  157.1300 C   0  0  0  0  0  2  0  0  0  0  0  0
  1 17  2  0  0  0  0
  2  5  1  0  0  0  0
  2 15  1  1  0  0  0
  3 18  1  0  0  0  0
  4  8  1  0  0  0  0
  4  6  1  0  0  0  0
  5  7  1  6  0  0  0
  6  2  1  0  0  0  0
  7 18  1  0  0  0  0
  8 12  1  0  0  0  0
  9  6  2  0  0  0  0
  9 16  1  0  0  0  0
 10 13  1  0  0  0  0
 12 11  1  0  0  0  0
 13  9  1  0  0  0  0
 14  3  1  0  0  0  0
 15 11  1  0  0  0  0
 16 21  1  1  0  0  0
 16  5  1  0  0  0  0
 17  4  2  0  0  0  0
 18 30  1  1  0  0  0
 19  1  1  0  0  0  0
 19 10  1  0  0  0  0
 20 22  1  6  0  0  0
 20 14  1  0  0  0  0
 21 20  1  0  0  0  0
 22 25  1  6  0  0  0
 22 24  1  0  0  0  0
 23 24  1  0  0  0  0
 26 25  1  0  0  0  0
 27 26  1  0  0  0  0
 28 29  2  0  0  0  0
 29 27  1  0  0  0  0
 31 37  1  0  0  0  0
 32 30  1  6  0  0  0
 32 31  1  0  0  0  0
 33 32  1  0  0  0  0
 33 36  1  0  0  0  0
 36 34  1  0  0  0  0
 36 35  2  0  0  0  0
 37 35  1  0  0  0  0
M  END
>  <MODEL>
9

>  <REMARK>
 VINA RESULT:      -3.3      3.040      7.377
  Name = 
  8 active torsions:
  status: ('A' for Active; 'I' for Inactive)
    1  A    between atoms: O_1  and  C_5
    2  A    between atoms: O_1  and  C_17
    3  A    between atoms: C_5  and  C_23
    4  A    between atoms: C_6  and  C_37
    5  A    between atoms: C_17  and  C_26
    6  A    between atoms: C_26  and  C_33
    7  A    between atoms: C_26  and  C_34
    8  A    between atoms: C_31  and  C_37
                            x       y       z     vdW  Elec       q    Type
                         _______ _______ _______ _____ _____    ______ ____

>  <TORSDO>
F 8

$$$$
