=
 OpenBabel11062410493D

 32 36  0  0  1  0  0  0  0  0999 V2000
  161.1340  201.9520  149.1210 C   0  0  0  0  0  0  0  0  0  0  0  0
  161.4540  206.0880  152.0720 C   0  0  2  0  0  3  0  0  0  0  0  0
  161.9220  209.7630  148.8650 C   0  0  0  0  0  3  0  0  0  0  0  0
  162.2240  210.6260  149.9190 C   0  0  0  0  0  3  0  0  0  0  0  0
  161.0010  203.7820  151.2340 C   0  0  0  0  0  0  0  0  0  0  0  0
  161.3300  205.6410  149.6730 N   0  0  0  0  0  2  0  0  0  0  0  0
  161.2920  203.3200  148.8680 C   0  0  0  0  0  3  0  0  0  0  0  0
  161.5220  208.4520  149.1270 C   0  0  0  0  0  3  0  0  0  0  0  0
  160.9440  206.5880  150.7210 C   0  0  2  0  0  3  0  0  0  0  0  0
  161.4290  207.9870  150.4470 C   0  0  0  0  0  0  0  0  0  0  0  0
  161.6270  208.4130  152.9690 C   0  0  2  0  0  3  0  0  0  0  0  0
  160.9030  201.5030  150.4280 C   0  0  0  0  0  3  0  0  0  0  0  0
  161.2130  204.2360  149.9200 C   0  0  0  0  0  0  0  0  0  0  0  0
  160.8360  202.4170  151.4850 C   0  0  0  0  0  3  0  0  0  0  0  0
  162.1100  210.1830  151.2390 C   0  0  0  0  0  3  0  0  0  0  0  0
  161.6830  208.8760  151.5220 C   0  0  0  0  0  0  0  0  0  0  0  0
  160.9760  204.7290  152.3080 N   0  0  0  0  0  2  0  0  0  0  0  0
  160.9780  207.0350  153.1540 C   0  0  0  0  0  2  0  0  0  0  0  0
  161.2310  200.9730  148.0040 C   0  0  0  0  0  2  0  0  0  0  0  0
  160.1470  201.2440  146.9760 C   0  0  0  0  0  2  0  0  0  0  0  0
  160.7620  201.4410  145.6030 C   0  0  2  0  0  3  0  0  0  0  0  0
  160.9010  202.9220  145.3240 C   0  0  0  0  0  1  0  0  0  0  0  0
  159.9470  200.8640  144.6300 O   0  0  0  0  0  1  0  0  0  0  0  0
  160.9040  209.4290  153.8450 C   0  0  0  0  0  2  0  0  0  0  0  0
  161.5050  209.4720  155.1760 N   0  0  0  0  0  0  0  0  0  0  0  0
  160.4760  208.4050  157.1280 C   0  0  1  0  0  3  0  0  0  0  0  0
  161.5300  207.5190  156.8760 O   0  0  0  0  0  1  0  0  0  0  0  0
  160.4310  209.5270  156.1690 C   0  0  2  0  0  3  0  0  0  0  0  0
  159.5340  208.3720  156.0000 N   0  0  0  0  0  2  0  0  0  0  0  0
  162.3570  210.6640  155.2940 C   0  0  0  0  0  2  0  0  0  0  0  0
  162.4200  211.2310  156.7130 C   0  0  0  0  0  2  0  0  0  0  0  0
  163.8220  211.0660  157.2600 C   0  0  0  0  0  1  0  0  0  0  0  0
  1 12  1  0  0  0  0
  2 17  1  0  0  0  0
  2 18  1  1  0  0  0
  3  8  2  0  0  0  0
  3  4  1  0  0  0  0
  4 15  2  0  0  0  0
  5 14  1  0  0  0  0
  5 17  1  0  0  0  0
  6 13  1  0  0  0  0
  7  1  2  0  0  0  0
  7 13  1  0  0  0  0
  8 10  1  0  0  0  0
  9  6  1  6  0  0  0
  9  2  1  0  0  0  0
 10  9  1  0  0  0  0
 10 16  2  0  0  0  0
 11 18  1  0  0  0  0
 11 24  1  1  0  0  0
 12 14  2  0  0  0  0
 13  5  2  0  0  0  0
 15 16  1  0  0  0  0
 16 11  1  0  0  0  0
 19  1  1  0  0  0  0
 20 19  1  0  0  0  0
 21 22  1  6  0  0  0
 21 20  1  0  0  0  0
 23 21  1  0  0  0  0
 24 25  1  0  0  0  0
 25 30  1  0  0  0  0
 26 27  1  6  0  0  0
 28 25  1  6  0  0  0
 28 26  1  0  0  0  0
 29 28  1  0  0  0  0
 29 26  1  0  0  0  0
 30 31  1  0  0  0  0
 31 32  1  0  0  0  0
M  END
>  <MODEL>
1

>  <REMARK>
 VINA RESULT:      -8.1      0.000      0.000
  Name = 
  8 active torsions:
  status: ('A' for Active; 'I' for Inactive)
    1  A    between atoms: C_1  and  C_10
    2  A    between atoms: C_2  and  C_24
    3  A    between atoms: C_6  and  C_7
    4  A    between atoms: C_7  and  N_32
    5  A    between atoms: C_10  and  C_24
    6  A    between atoms: C_16  and  C_27
    7  A    between atoms: C_22  and  N_32
    8  A    between atoms: C_27  and  N_32
                            x       y       z     vdW  Elec       q    Type
                         _______ _______ _______ _____ _____    ______ ____

>  <TORSDO>
F 8

$$$$
=
 OpenBabel11062410493D

 32 36  0  0  1  0  0  0  0  0999 V2000
  161.5140  209.7010  154.1510 C   0  0  0  0  0  0  0  0  0  0  0  0
  161.4310  206.7450  150.0060 C   0  0  2  0  0  3  0  0  0  0  0  0
  160.9110  202.2230  151.8220 C   0  0  0  0  0  3  0  0  0  0  0  0
  161.1710  201.7000  150.5540 C   0  0  0  0  0  3  0  0  0  0  0  0
  161.2940  208.7050  151.5440 C   0  0  0  0  0  0  0  0  0  0  0  0
  161.1290  206.4180  152.4090 N   0  0  0  0  0  2  0  0  0  0  0  0
  161.4050  208.3210  153.9400 C   0  0  0  0  0  3  0  0  0  0  0  0
  160.7730  203.6010  151.9940 C   0  0  0  0  0  3  0  0  0  0  0  0
  160.7000  205.9520  151.0890 C   0  0  2  0  0  3  0  0  0  0  0  0
  160.9040  204.4720  150.9020 C   0  0  0  0  0  0  0  0  0  0  0  0
  161.2950  204.8410  148.3940 C   0  0  2  0  0  3  0  0  0  0  0  0
  161.5050  210.5790  153.0590 C   0  0  0  0  0  3  0  0  0  0  0  0
  161.2830  207.8230  152.6400 C   0  0  0  0  0  0  0  0  0  0  0  0
  161.3950  210.0830  151.7560 C   0  0  0  0  0  3  0  0  0  0  0  0
  161.2780  202.5540  149.4540 C   0  0  0  0  0  3  0  0  0  0  0  0
  161.1150  203.9400  149.6050 C   0  0  0  0  0  0  0  0  0  0  0  0
  161.2210  208.1740  150.2160 N   0  0  0  0  0  2  0  0  0  0  0  0
  160.9160  206.3060  148.6500 C   0  0  0  0  0  2  0  0  0  0  0  0
  161.6580  210.2330  155.5330 C   0  0  0  0  0  2  0  0  0  0  0  0
  160.4060  209.9370  156.3390 C   0  0  0  0  0  2  0  0  0  0  0  0
  159.5450  211.1820  156.4480 C   0  0  2  0  0  3  0  0  0  0  0  0
  158.3870  211.0770  155.4790 C   0  0  0  0  0  1  0  0  0  0  0  0
  160.3020  212.3120  156.1400 O   0  0  0  0  0  1  0  0  0  0  0  0
  160.5060  204.3220  147.1970 C   0  0  0  0  0  2  0  0  0  0  0  0
  161.4010  204.0590  146.0740 N   0  0  0  0  0  0  0  0  0  0  0  0
  161.5480  205.7210  144.2780 C   0  0  1  0  0  3  0  0  0  0  0  0
  162.6870  206.0460  145.0240 O   0  0  0  0  0  1  0  0  0  0  0  0
  160.7890  204.5950  144.8570 C   0  0  2  0  0  3  0  0  0  0  0  0
  160.3480  205.9800  145.0870 N   0  0  0  0  0  2  0  0  0  0  0  0
  161.6030  202.6090  145.9350 C   0  0  0  0  0  2  0  0  0  0  0  0
  160.3280  201.7920  146.1510 C   0  0  0  0  0  2  0  0  0  0  0  0
  159.9770  201.0590  144.8740 C   0  0  0  0  0  1  0  0  0  0  0  0
  1 19  1  0  0  0  0
  2 18  1  6  0  0  0
  2 17  1  0  0  0  0
  2  9  1  0  0  0  0
  3  8  1  0  0  0  0
  4  3  2  0  0  0  0
  5 14  2  0  0  0  0
  5 13  1  0  0  0  0
  6 13  1  0  0  0  0
  7  1  1  0  0  0  0
  9 10  1  1  0  0  0
  9  6  1  0  0  0  0
 10  8  2  0  0  0  0
 11 24  1  6  0  0  0
 11 18  1  0  0  0  0
 11 16  1  0  0  0  0
 12  1  2  0  0  0  0
 13  7  2  0  0  0  0
 14 12  1  0  0  0  0
 15 16  2  0  0  0  0
 15  4  1  0  0  0  0
 16 10  1  0  0  0  0
 17  5  1  0  0  0  0
 19 20  1  0  0  0  0
 20 21  1  0  0  0  0
 21 22  1  6  0  0  0
 23 21  1  0  0  0  0
 25 24  1  0  0  0  0
 26 28  1  0  0  0  0
 26 27  1  1  0  0  0
 26 29  1  0  0  0  0
 28 29  1  0  0  0  0
 28 25  1  1  0  0  0
 30 25  1  0  0  0  0
 30 31  1  0  0  0  0
 32 31  1  0  0  0  0
M  END
>  <MODEL>
2

>  <REMARK>
 VINA RESULT:      -7.9      2.195      9.781
  Name = 
  8 active torsions:
  status: ('A' for Active; 'I' for Inactive)
    1  A    between atoms: C_1  and  C_10
    2  A    between atoms: C_2  and  C_24
    3  A    between atoms: C_6  and  C_7
    4  A    between atoms: C_7  and  N_32
    5  A    between atoms: C_10  and  C_24
    6  A    between atoms: C_16  and  C_27
    7  A    between atoms: C_22  and  N_32
    8  A    between atoms: C_27  and  N_32
                            x       y       z     vdW  Elec       q    Type
                         _______ _______ _______ _____ _____    ______ ____

>  <TORSDO>
F 8

$$$$
=
 OpenBabel11062410493D

 32 36  0  0  1  0  0  0  0  0999 V2000
  161.0710  202.5560  149.5660 C   0  0  0  0  0  0  0  0  0  0  0  0
  161.5780  207.0200  151.9620 C   0  0  2  0  0  3  0  0  0  0  0  0
  162.0210  210.2510  148.3040 C   0  0  0  0  0  3  0  0  0  0  0  0
  162.3770  211.2310  149.2320 C   0  0  0  0  0  3  0  0  0  0  0  0
  161.0470  204.6400  151.4350 C   0  0  0  0  0  0  0  0  0  0  0  0
  161.3660  206.2800  149.6430 N   0  0  0  0  0  2  0  0  0  0  0  0
  161.2500  203.8770  149.1380 C   0  0  0  0  0  3  0  0  0  0  0  0
  161.6010  208.9940  148.7420 C   0  0  0  0  0  3  0  0  0  0  0  0
  161.0350  207.3600  150.5740 C   0  0  2  0  0  3  0  0  0  0  0  0
  161.5410  208.7000  150.1120 C   0  0  0  0  0  0  0  0  0  0  0  0
  161.8310  209.4340  152.5530 C   0  0  2  0  0  3  0  0  0  0  0  0
  160.8730  202.2810  150.9260 C   0  0  0  0  0  3  0  0  0  0  0  0
  161.2260  204.9200  150.0680 C   0  0  0  0  0  0  0  0  0  0  0  0
  160.8600  203.3210  151.8600 C   0  0  0  0  0  3  0  0  0  0  0  0
  162.2960  210.9600  150.6000 C   0  0  0  0  0  3  0  0  0  0  0  0
  161.8500  209.7100  151.0580 C   0  0  0  0  0  0  0  0  0  0  0  0
  161.0780  205.7140  152.3810 N   0  0  0  0  0  2  0  0  0  0  0  0
  161.1580  208.1070  152.9300 C   0  0  0  0  0  2  0  0  0  0  0  0
  161.1100  201.4430  148.5790 C   0  0  0  0  0  2  0  0  0  0  0  0
  160.1750  201.7400  147.4200 C   0  0  0  0  0  2  0  0  0  0  0  0
  160.9340  201.6900  146.1070 C   0  0  2  0  0  3  0  0  0  0  0  0
  161.2780  203.0990  145.6730 C   0  0  0  0  0  1  0  0  0  0  0  0
  160.1480  201.0850  145.1260 O   0  0  0  0  0  1  0  0  0  0  0  0
  161.1600  210.5700  153.3150 C   0  0  0  0  0  2  0  0  0  0  0  0
  161.1940  210.3090  154.7520 N   0  0  0  0  0  0  0  0  0  0  0  0
  159.1010  210.3800  156.0250 C   0  0  1  0  0  3  0  0  0  0  0  0
  159.2480  209.0000  155.8490 O   0  0  0  0  0  1  0  0  0  0  0  0
  160.1930  211.1550  155.4030 C   0  0  2  0  0  3  0  0  0  0  0  0
  158.8980  211.0170  154.7150 N   0  0  0  0  0  2  0  0  0  0  0  0
  162.5310  210.6220  155.2770 C   0  0  0  0  0  2  0  0  0  0  0  0
  162.6830  210.3310  156.7710 C   0  0  0  0  0  2  0  0  0  0  0  0
  162.3950  208.8680  157.0320 C   0  0  0  0  0  1  0  0  0  0  0  0
  1 12  1  0  0  0  0
  2 17  1  0  0  0  0
  2 18  1  1  0  0  0
  3  8  2  0  0  0  0
  3  4  1  0  0  0  0
  4 15  2  0  0  0  0
  5 14  1  0  0  0  0
  5 17  1  0  0  0  0
  6 13  1  0  0  0  0
  7  1  2  0  0  0  0
  7 13  1  0  0  0  0
  8 10  1  0  0  0  0
  9  6  1  6  0  0  0
  9  2  1  0  0  0  0
 10  9  1  0  0  0  0
 10 16  2  0  0  0  0
 11 18  1  0  0  0  0
 11 24  1  1  0  0  0
 12 14  2  0  0  0  0
 13  5  2  0  0  0  0
 15 16  1  0  0  0  0
 16 11  1  0  0  0  0
 19  1  1  0  0  0  0
 20 19  1  0  0  0  0
 21 22  1  6  0  0  0
 21 20  1  0  0  0  0
 23 21  1  0  0  0  0
 24 25  1  0  0  0  0
 25 30  1  0  0  0  0
 26 27  1  6  0  0  0
 28 25  1  6  0  0  0
 28 26  1  0  0  0  0
 29 28  1  0  0  0  0
 29 26  1  0  0  0  0
 30 31  1  0  0  0  0
 31 32  1  0  0  0  0
M  END
>  <MODEL>
3

>  <REMARK>
 VINA RESULT:      -7.7      1.169      1.301
  Name = 
  8 active torsions:
  status: ('A' for Active; 'I' for Inactive)
    1  A    between atoms: C_1  and  C_10
    2  A    between atoms: C_2  and  C_24
    3  A    between atoms: C_6  and  C_7
    4  A    between atoms: C_7  and  N_32
    5  A    between atoms: C_10  and  C_24
    6  A    between atoms: C_16  and  C_27
    7  A    between atoms: C_22  and  N_32
    8  A    between atoms: C_27  and  N_32
                            x       y       z     vdW  Elec       q    Type
                         _______ _______ _______ _____ _____    ______ ____

>  <TORSDO>
F 8

$$$$
=
 OpenBabel11062410493D

 32 36  0  0  1  0  0  0  0  0999 V2000
  161.6160  204.9500  148.3440 C   0  0  0  0  0  0  0  0  0  0  0  0
  160.8490  208.8010  151.5850 C   0  0  2  0  0  3  0  0  0  0  0  0
  160.2950  206.5740  155.9150 C   0  0  0  0  0  3  0  0  0  0  0  0
  159.8770  207.7860  156.4680 C   0  0  0  0  0  3  0  0  0  0  0  0
  161.5070  207.4540  149.5910 C   0  0  0  0  0  0  0  0  0  0  0  0
  161.1310  206.3800  151.7610 N   0  0  0  0  0  2  0  0  0  0  0  0
  161.3760  205.0320  149.7210 C   0  0  0  0  0  3  0  0  0  0  0  0
  160.7720  206.5320  154.6050 C   0  0  0  0  0  3  0  0  0  0  0  0
  161.3930  207.6530  152.4350 C   0  0  2  0  0  3  0  0  0  0  0  0
  160.8270  207.7000  153.8290 C   0  0  0  0  0  0  0  0  0  0  0  0
  160.4650  210.2290  153.5990 C   0  0  2  0  0  3  0  0  0  0  0  0
  161.8080  206.1190  147.5960 C   0  0  0  0  0  3  0  0  0  0  0  0
  161.3340  206.2800  150.3480 C   0  0  0  0  0  0  0  0  0  0  0  0
  161.7550  207.3710  148.2180 C   0  0  0  0  0  3  0  0  0  0  0  0
  159.9520  208.9600  155.7160 C   0  0  0  0  0  3  0  0  0  0  0  0
  160.4540  208.9410  154.4050 C   0  0  0  0  0  0  0  0  0  0  0  0
  161.4090  208.7270  150.2390 N   0  0  0  0  0  2  0  0  0  0  0  0
  161.2000  210.1140  152.2560 C   0  0  0  0  0  2  0  0  0  0  0  0
  161.6470  203.6220  147.6720 C   0  0  0  0  0  2  0  0  0  0  0  0
  160.8410  202.6140  148.4710 C   0  0  0  0  0  2  0  0  0  0  0  0
  160.5660  201.3790  147.6340 C   0  0  2  0  0  3  0  0  0  0  0  0
  161.5840  200.3100  147.9680 C   0  0  0  0  0  1  0  0  0  0  0  0
  160.6580  201.6940  146.2780 O   0  0  0  0  0  1  0  0  0  0  0  0
  161.0680  211.3770  154.4010 C   0  0  0  0  0  2  0  0  0  0  0  0
  160.0340  212.3440  154.7600 N   0  0  0  0  0  0  0  0  0  0  0  0
  159.6630  213.3210  156.9770 C   0  0  1  0  0  3  0  0  0  0  0  0
  160.0840  214.4500  156.2650 O   0  0  0  0  0  1  0  0  0  0  0  0
  159.6310  212.1010  156.1460 C   0  0  2  0  0  3  0  0  0  0  0  0
  160.7660  212.3530  157.0480 N   0  0  0  0  0  2  0  0  0  0  0  0
  158.8770  212.1820  153.8670 C   0  0  0  0  0  2  0  0  0  0  0  0
  158.6350  213.3890  152.9580 C   0  0  0  0  0  2  0  0  0  0  0  0
  159.0820  213.0560  151.5500 C   0  0  0  0  0  1  0  0  0  0  0  0
  1  7  1  0  0  0  0
  2 18  1  1  0  0  0
  2  9  1  0  0  0  0
  3  4  1  0  0  0  0
  5 17  1  0  0  0  0
  5 13  1  0  0  0  0
  7 13  2  0  0  0  0
  8  3  2  0  0  0  0
  9  6  1  6  0  0  0
  9 10  1  0  0  0  0
 10 16  2  0  0  0  0
 10  8  1  0  0  0  0
 11 24  1  1  0  0  0
 11 16  1  0  0  0  0
 12 14  1  0  0  0  0
 12  1  2  0  0  0  0
 13  6  1  0  0  0  0
 14  5  2  0  0  0  0
 15  4  2  0  0  0  0
 16 15  1  0  0  0  0
 17  2  1  0  0  0  0
 18 11  1  0  0  0  0
 19  1  1  0  0  0  0
 19 20  1  0  0  0  0
 21 22  1  1  0  0  0
 21 20  1  0  0  0  0
 23 21  1  0  0  0  0
 24 25  1  0  0  0  0
 26 27  1  6  0  0  0
 26 29  1  0  0  0  0
 28 25  1  6  0  0  0
 28 26  1  0  0  0  0
 28 29  1  0  0  0  0
 30 25  1  0  0  0  0
 31 30  1  0  0  0  0
 32 31  1  0  0  0  0
M  END
>  <MODEL>
4

>  <REMARK>
 VINA RESULT:      -7.5      2.483      4.378
  Name = 
  8 active torsions:
  status: ('A' for Active; 'I' for Inactive)
    1  A    between atoms: C_1  and  C_10
    2  A    between atoms: C_2  and  C_24
    3  A    between atoms: C_6  and  C_7
    4  A    between atoms: C_7  and  N_32
    5  A    between atoms: C_10  and  C_24
    6  A    between atoms: C_16  and  C_27
    7  A    between atoms: C_22  and  N_32
    8  A    between atoms: C_27  and  N_32
                            x       y       z     vdW  Elec       q    Type
                         _______ _______ _______ _____ _____    ______ ____

>  <TORSDO>
F 8

$$$$
=
 OpenBabel11062410493D

 32 36  0  0  1  0  0  0  0  0999 V2000
  161.2020  201.9650  149.2530 C   0  0  0  0  0  0  0  0  0  0  0  0
  161.2910  205.9750  152.3890 C   0  0  2  0  0  3  0  0  0  0  0  0
  161.8480  209.7930  149.3680 C   0  0  0  0  0  3  0  0  0  0  0  0
  162.0800  210.6140  150.4730 C   0  0  0  0  0  3  0  0  0  0  0  0
  160.9260  203.6990  151.4330 C   0  0  0  0  0  0  0  0  0  0  0  0
  161.2980  205.6300  149.9700 N   0  0  0  0  0  2  0  0  0  0  0  0
  161.3450  203.3450  149.0670 C   0  0  0  0  0  3  0  0  0  0  0  0
  161.4610  208.4650  149.5540 C   0  0  0  0  0  3  0  0  0  0  0  0
  160.8410  206.5230  151.0360 C   0  0  2  0  0  3  0  0  0  0  0  0
  161.3110  207.9410  150.8470 C   0  0  0  0  0  0  0  0  0  0  0  0
  161.3730  208.2620  153.3910 C   0  0  2  0  0  3  0  0  0  0  0  0
  160.9140  201.4560  150.5270 C   0  0  0  0  0  3  0  0  0  0  0  0
  161.1960  204.2140  150.1510 C   0  0  0  0  0  0  0  0  0  0  0  0
  160.7750  202.3220  151.6170 C   0  0  0  0  0  3  0  0  0  0  0  0
  161.9080  210.1120  151.7650 C   0  0  0  0  0  3  0  0  0  0  0  0
  161.4930  208.7870  151.9700 C   0  0  0  0  0  0  0  0  0  0  0  0
  160.8280  204.5980  152.5430 N   0  0  0  0  0  2  0  0  0  0  0  0
  160.7420  206.8660  153.4850 C   0  0  0  0  0  2  0  0  0  0  0  0
  161.3750  201.0370  148.1030 C   0  0  0  0  0  2  0  0  0  0  0  0
  160.2510  201.2330  147.1010 C   0  0  0  0  0  2  0  0  0  0  0  0
  160.8180  201.4640  145.7130 C   0  0  2  0  0  3  0  0  0  0  0  0
  161.1670  202.9280  145.5520 C   0  0  0  0  0  1  0  0  0  0  0  0
  159.8770  201.1060  144.7490 O   0  0  0  0  0  1  0  0  0  0  0  0
  160.5870  209.2260  154.2720 C   0  0  0  0  0  2  0  0  0  0  0  0
  161.4980  210.0780  155.0330 N   0  0  0  0  0  0  0  0  0  0  0  0
  162.5750  210.0370  157.2340 C   0  0  1  0  0  3  0  0  0  0  0  0
  163.6190  210.5340  156.4450 O   0  0  0  0  0  1  0  0  0  0  0  0
  161.3520  209.7590  156.4540 C   0  0  2  0  0  3  0  0  0  0  0  0
  162.2640  208.6620  156.8170 N   0  0  0  0  0  2  0  0  0  0  0  0
  161.1620  211.4900  154.8000 C   0  0  0  0  0  2  0  0  0  0  0  0
  159.7410  211.7000  154.2720 C   0  0  0  0  0  2  0  0  0  0  0  0
  158.9380  212.4870  155.2860 C   0  0  0  0  0  1  0  0  0  0  0  0
  1 12  1  0  0  0  0
  2 17  1  0  0  0  0
  2 18  1  1  0  0  0
  3  8  2  0  0  0  0
  3  4  1  0  0  0  0
  4 15  2  0  0  0  0
  5 14  1  0  0  0  0
  5 17  1  0  0  0  0
  6 13  1  0  0  0  0
  7  1  2  0  0  0  0
  7 13  1  0  0  0  0
  8 10  1  0  0  0  0
  9  6  1  6  0  0  0
  9  2  1  0  0  0  0
 10  9  1  0  0  0  0
 10 16  2  0  0  0  0
 11 18  1  0  0  0  0
 11 24  1  1  0  0  0
 12 14  2  0  0  0  0
 13  5  2  0  0  0  0
 15 16  1  0  0  0  0
 16 11  1  0  0  0  0
 19  1  1  0  0  0  0
 20 19  1  0  0  0  0
 21 22  1  1  0  0  0
 21 20  1  0  0  0  0
 23 21  1  0  0  0  0
 24 25  1  0  0  0  0
 26 27  1  6  0  0  0
 28 25  1  6  0  0  0
 28 29  1  0  0  0  0
 28 26  1  0  0  0  0
 29 26  1  0  0  0  0
 30 25  1  0  0  0  0
 31 30  1  0  0  0  0
 31 32  1  0  0  0  0
M  END
>  <MODEL>
5

>  <REMARK>
 VINA RESULT:      -7.3      1.182      1.571
  Name = 
  8 active torsions:
  status: ('A' for Active; 'I' for Inactive)
    1  A    between atoms: C_1  and  C_10
    2  A    between atoms: C_2  and  C_24
    3  A    between atoms: C_6  and  C_7
    4  A    between atoms: C_7  and  N_32
    5  A    between atoms: C_10  and  C_24
    6  A    between atoms: C_16  and  C_27
    7  A    between atoms: C_22  and  N_32
    8  A    between atoms: C_27  and  N_32
                            x       y       z     vdW  Elec       q    Type
                         _______ _______ _______ _____ _____    ______ ____

>  <TORSDO>
F 8

$$$$
=
 OpenBabel11062410493D

 32 36  0  0  1  0  0  0  0  0999 V2000
  161.1990  202.3200  147.8630 C   0  0  0  0  0  0  0  0  0  0  0  0
  161.2400  206.0070  151.3730 C   0  0  2  0  0  3  0  0  0  0  0  0
  162.1200  210.0670  148.7740 C   0  0  0  0  0  3  0  0  0  0  0  0
  162.3130  210.7700  149.9640 C   0  0  0  0  0  3  0  0  0  0  0  0
  160.8530  203.8500  150.1810 C   0  0  0  0  0  0  0  0  0  0  0  0
  161.3830  205.8930  148.9360 N   0  0  0  0  0  2  0  0  0  0  0  0
  161.4040  203.7030  147.8200 C   0  0  0  0  0  3  0  0  0  0  0  0
  161.6740  208.7450  148.8070 C   0  0  0  0  0  3  0  0  0  0  0  0
  160.8940  206.7000  150.0560 C   0  0  2  0  0  3  0  0  0  0  0  0
  161.4260  208.1080  150.0320 C   0  0  0  0  0  0  0  0  0  0  0  0
  161.3430  208.1840  152.5950 C   0  0  2  0  0  3  0  0  0  0  0  0
  160.8150  201.7050  149.0630 C   0  0  0  0  0  3  0  0  0  0  0  0
  161.2190  204.4710  148.9730 C   0  0  0  0  0  0  0  0  0  0  0  0
  160.6410  202.4690  150.2210 C   0  0  0  0  0  3  0  0  0  0  0  0
  162.0440  210.1560  151.1890 C   0  0  0  0  0  3  0  0  0  0  0  0
  161.5690  208.8360  151.2410 C   0  0  0  0  0  0  0  0  0  0  0  0
  160.7190  204.6430  151.3650 N   0  0  0  0  0  2  0  0  0  0  0  0
  160.6570  206.8130  152.5160 C   0  0  0  0  0  2  0  0  0  0  0  0
  161.4090  201.4980  146.6400 C   0  0  0  0  0  2  0  0  0  0  0  0
  161.2620  200.0230  146.9710 C   0  0  0  0  0  2  0  0  0  0  0  0
  160.5890  199.2920  145.8240 C   0  0  2  0  0  3  0  0  0  0  0  0
  161.5630  198.3030  145.2190 C   0  0  0  0  0  1  0  0  0  0  0  0
  160.1930  200.2040  144.8460 O   0  0  0  0  0  1  0  0  0  0  0  0
  160.5390  209.0930  153.5180 C   0  0  0  0  0  2  0  0  0  0  0  0
  161.2020  209.2160  154.8140 N   0  0  0  0  0  0  0  0  0  0  0  0
  160.9510  208.1320  156.9980 C   0  0  1  0  0  3  0  0  0  0  0  0
  162.3400  208.0710  156.8370 O   0  0  0  0  0  1  0  0  0  0  0  0
  160.2720  208.7740  155.8550 C   0  0  2  0  0  3  0  0  0  0  0  0
  160.3070  207.3060  155.9660 N   0  0  0  0  0  2  0  0  0  0  0  0
  161.5780  210.6180  155.0420 C   0  0  0  0  0  2  0  0  0  0  0  0
  160.5490  211.6200  154.5170 C   0  0  0  0  0  2  0  0  0  0  0  0
  160.0560  212.4820  155.6590 C   0  0  0  0  0  1  0  0  0  0  0  0
  1 12  1  0  0  0  0
  2 18  1  1  0  0  0
  3  8  2  0  0  0  0
  3  4  1  0  0  0  0
  4 15  2  0  0  0  0
  5 14  1  0  0  0  0
  5 17  1  0  0  0  0
  6 13  1  0  0  0  0
  7  1  2  0  0  0  0
  7 13  1  0  0  0  0
  8 10  1  0  0  0  0
  9  6  1  6  0  0  0
  9  2  1  0  0  0  0
 10  9  1  0  0  0  0
 10 16  2  0  0  0  0
 11 24  1  1  0  0  0
 12 14  2  0  0  0  0
 13  5  2  0  0  0  0
 15 16  1  0  0  0  0
 16 11  1  0  0  0  0
 17  2  1  0  0  0  0
 18 11  1  0  0  0  0
 19 20  1  0  0  0  0
 19  1  1  0  0  0  0
 21 22  1  6  0  0  0
 21 20  1  0  0  0  0
 23 21  1  0  0  0  0
 24 25  1  0  0  0  0
 25 30  1  0  0  0  0
 26 27  1  6  0  0  0
 28 25  1  6  0  0  0
 28 29  1  0  0  0  0
 28 26  1  0  0  0  0
 29 26  1  0  0  0  0
 31 30  1  0  0  0  0
 31 32  1  0  0  0  0
M  END
>  <MODEL>
6

>  <REMARK>
 VINA RESULT:      -7.3      1.211      1.550
  Name = 
  8 active torsions:
  status: ('A' for Active; 'I' for Inactive)
    1  A    between atoms: C_1  and  C_10
    2  A    between atoms: C_2  and  C_24
    3  A    between atoms: C_6  and  C_7
    4  A    between atoms: C_7  and  N_32
    5  A    between atoms: C_10  and  C_24
    6  A    between atoms: C_16  and  C_27
    7  A    between atoms: C_22  and  N_32
    8  A    between atoms: C_27  and  N_32
                            x       y       z     vdW  Elec       q    Type
                         _______ _______ _______ _____ _____    ______ ____

>  <TORSDO>
F 8

$$$$
=
 OpenBabel11062410493D

 32 36  0  0  1  0  0  0  0  0999 V2000
  161.5040  204.6200  148.6480 C   0  0  0  0  0  0  0  0  0  0  0  0
  160.7080  208.6680  151.6310 C   0  0  2  0  0  3  0  0  0  0  0  0
  160.4660  206.7550  156.1360 C   0  0  0  0  0  3  0  0  0  0  0  0
  160.0170  207.9850  156.6180 C   0  0  0  0  0  3  0  0  0  0  0  0
  161.3350  207.2040  149.7100 C   0  0  0  0  0  0  0  0  0  0  0  0
  161.1140  206.2830  151.9700 N   0  0  0  0  0  2  0  0  0  0  0  0
  161.3260  204.7960  150.0250 C   0  0  0  0  0  3  0  0  0  0  0  0
  160.8820  206.6350  154.8090 C   0  0  0  0  0  3  0  0  0  0  0  0
  161.3460  207.6140  152.5340 C   0  0  2  0  0  3  0  0  0  0  0  0
  160.8440  207.7410  153.9480 C   0  0  0  0  0  0  0  0  0  0  0  0
  160.3520  210.2270  153.5500 C   0  0  2  0  0  3  0  0  0  0  0  0
  161.6040  205.7360  147.8060 C   0  0  0  0  0  3  0  0  0  0  0  0
  161.2540  206.0850  150.5590 C   0  0  0  0  0  0  0  0  0  0  0  0
  161.5200  207.0280  148.3360 C   0  0  0  0  0  3  0  0  0  0  0  0
  160.0000  209.1010  155.7780 C   0  0  0  0  0  3  0  0  0  0  0  0
  160.4400  209.0040  154.4490 C   0  0  0  0  0  0  0  0  0  0  0  0
  161.2060  208.5170  150.2660 N   0  0  0  0  0  2  0  0  0  0  0  0
  161.0260  210.0420  152.1840 C   0  0  0  0  0  2  0  0  0  0  0  0
  161.5670  203.2480  148.0740 C   0  0  0  0  0  2  0  0  0  0  0  0
  160.3190  202.4680  148.4490 C   0  0  0  0  0  2  0  0  0  0  0  0
  160.6970  201.0990  148.9840 C   0  0  2  0  0  3  0  0  0  0  0  0
  161.1280  201.2280  150.4300 C   0  0  0  0  0  1  0  0  0  0  0  0
  161.7480  200.5700  148.2360 O   0  0  0  0  0  1  0  0  0  0  0  0
  160.9350  211.4580  154.2340 C   0  0  0  0  0  2  0  0  0  0  0  0
  159.8740  212.2470  154.8540 N   0  0  0  0  0  0  0  0  0  0  0  0
  158.2180  213.4260  153.4850 C   0  0  1  0  0  3  0  0  0  0  0  0
  157.4670  212.3220  153.9050 O   0  0  0  0  0  1  0  0  0  0  0  0
  159.6000  213.4070  154.0050 C   0  0  2  0  0  3  0  0  0  0  0  0
  159.3200  212.9640  152.6290 N   0  0  0  0  0  2  0  0  0  0  0  0
  160.3070  212.6930  156.1860 C   0  0  0  0  0  2  0  0  0  0  0  0
  159.1460  212.9970  157.1350 C   0  0  0  0  0  2  0  0  0  0  0  0
  158.1890  211.8250  157.1510 C   0  0  0  0  0  1  0  0  0  0  0  0
  1  7  1  0  0  0  0
  2 18  1  1  0  0  0
  2  9  1  0  0  0  0
  3  4  1  0  0  0  0
  5 17  1  0  0  0  0
  5 13  1  0  0  0  0
  7 13  2  0  0  0  0
  8  3  2  0  0  0  0
  9  6  1  6  0  0  0
  9 10  1  0  0  0  0
 10 16  2  0  0  0  0
 10  8  1  0  0  0  0
 11 24  1  1  0  0  0
 11 16  1  0  0  0  0
 12 14  1  0  0  0  0
 12  1  2  0  0  0  0
 13  6  1  0  0  0  0
 14  5  2  0  0  0  0
 15  4  2  0  0  0  0
 16 15  1  0  0  0  0
 17  2  1  0  0  0  0
 18 11  1  0  0  0  0
 19 20  1  0  0  0  0
 19  1  1  0  0  0  0
 20 21  1  0  0  0  0
 21 22  1  1  0  0  0
 23 21  1  0  0  0  0
 24 25  1  0  0  0  0
 25 30  1  0  0  0  0
 26 27  1  1  0  0  0
 26 28  1  0  0  0  0
 28 25  1  1  0  0  0
 29 26  1  0  0  0  0
 29 28  1  0  0  0  0
 30 31  1  0  0  0  0
 31 32  1  0  0  0  0
M  END
>  <MODEL>
7

>  <REMARK>
 VINA RESULT:      -7.1      2.603      4.416
  Name = 
  8 active torsions:
  status: ('A' for Active; 'I' for Inactive)
    1  A    between atoms: C_1  and  C_10
    2  A    between atoms: C_2  and  C_24
    3  A    between atoms: C_6  and  C_7
    4  A    between atoms: C_7  and  N_32
    5  A    between atoms: C_10  and  C_24
    6  A    between atoms: C_16  and  C_27
    7  A    between atoms: C_22  and  N_32
    8  A    between atoms: C_27  and  N_32
                            x       y       z     vdW  Elec       q    Type
                         _______ _______ _______ _____ _____    ______ ____

>  <TORSDO>
F 8

$$$$
=
 OpenBabel11062410493D

 32 36  0  0  1  0  0  0  0  0999 V2000
  160.6390  209.3780  155.7350 C   0  0  0  0  0  0  0  0  0  0  0  0
  160.8270  205.8380  152.0810 C   0  0  2  0  0  3  0  0  0  0  0  0
  161.9370  208.3950  148.0510 C   0  0  0  0  0  3  0  0  0  0  0  0
  161.6690  207.2650  147.2780 C   0  0  0  0  0  3  0  0  0  0  0  0
  160.8280  206.9840  154.2970 C   0  0  0  0  0  0  0  0  0  0  0  0
  161.2900  208.2330  152.2400 N   0  0  0  0  0  2  0  0  0  0  0  0
  160.8870  209.4120  154.3580 C   0  0  0  0  0  3  0  0  0  0  0  0
  161.9310  208.3070  149.4430 C   0  0  0  0  0  3  0  0  0  0  0  0
  161.6970  206.9910  151.5800 C   0  0  2  0  0  3  0  0  0  0  0  0
  161.6470  207.0890  150.0780 C   0  0  0  0  0  0  0  0  0  0  0  0
  161.0860  204.5890  149.9330 C   0  0  2  0  0  3  0  0  0  0  0  0
  160.4930  208.1480  156.3910 C   0  0  0  0  0  3  0  0  0  0  0  0
  160.9950  208.2170  153.6410 C   0  0  0  0  0  0  0  0  0  0  0  0
  160.5880  206.9520  155.6740 C   0  0  0  0  0  3  0  0  0  0  0  0
  161.4110  206.0400  147.8970 C   0  0  0  0  0  3  0  0  0  0  0  0
  161.4280  205.9260  149.2960 C   0  0  0  0  0  0  0  0  0  0  0  0
  160.8890  205.7720  153.5380 N   0  0  0  0  0  2  0  0  0  0  0  0
  161.3140  204.5490  151.4500 C   0  0  0  0  0  2  0  0  0  0  0  0
  160.5100  210.6490  156.4990 C   0  0  0  0  0  2  0  0  0  0  0  0
  159.0450  210.9750  156.7270 C   0  0  0  0  0  2  0  0  0  0  0  0
  158.6060  212.0940  155.8000 C   0  0  2  0  0  3  0  0  0  0  0  0
  157.7480  211.5190  154.6930 C   0  0  0  0  0  1  0  0  0  0  0  0
  159.7230  212.7150  155.2430 O   0  0  0  0  0  1  0  0  0  0  0  0
  161.8630  203.4520  149.2800 C   0  0  0  0  0  2  0  0  0  0  0  0
  160.9530  202.5520  148.5770 N   0  0  0  0  0  0  0  0  0  0  0  0
  160.0480  200.5910  149.7380 C   0  0  1  0  0  3  0  0  0  0  0  0
  158.9600  201.4670  149.8260 O   0  0  0  0  0  1  0  0  0  0  0  0
  161.2040  201.1850  149.0370 C   0  0  2  0  0  3  0  0  0  0  0  0
  161.1740  201.1380  150.5080 N   0  0  0  0  0  2  0  0  0  0  0  0
  161.1890  202.6440  147.1300 C   0  0  0  0  0  2  0  0  0  0  0  0
  160.8360  201.3640  146.3710 C   0  0  0  0  0  2  0  0  0  0  0  0
  160.0820  201.7190  145.1070 C   0  0  0  0  0  1  0  0  0  0  0  0
  1 12  1  0  0  0  0
  1 19  1  0  0  0  0
  2 18  1  6  0  0  0
  2 17  1  0  0  0  0
  3  8  1  0  0  0  0
  4 15  1  0  0  0  0
  4  3  2  0  0  0  0
  5 14  1  0  0  0  0
  6 13  1  0  0  0  0
  7  1  2  0  0  0  0
  8 10  2  0  0  0  0
  9 10  1  6  0  0  0
  9  2  1  0  0  0  0
  9  6  1  0  0  0  0
 11 24  1  6  0  0  0
 11 18  1  0  0  0  0
 13  5  2  0  0  0  0
 13  7  1  0  0  0  0
 14 12  2  0  0  0  0
 15 16  2  0  0  0  0
 16 11  1  0  0  0  0
 16 10  1  0  0  0  0
 17  5  1  0  0  0  0
 19 20  1  0  0  0  0
 21 22  1  6  0  0  0
 21 20  1  0  0  0  0
 23 21  1  0  0  0  0
 25 24  1  0  0  0  0
 26 27  1  1  0  0  0
 26 29  1  0  0  0  0
 28 25  1  1  0  0  0
 28 26  1  0  0  0  0
 28 29  1  0  0  0  0
 30 25  1  0  0  0  0
 31 30  1  0  0  0  0
 32 31  1  0  0  0  0
M  END
>  <MODEL>
8

>  <REMARK>
 VINA RESULT:      -6.8      2.273      9.026
  Name = 
  8 active torsions:
  status: ('A' for Active; 'I' for Inactive)
    1  A    between atoms: C_1  and  C_10
    2  A    between atoms: C_2  and  C_24
    3  A    between atoms: C_6  and  C_7
    4  A    between atoms: C_7  and  N_32
    5  A    between atoms: C_10  and  C_24
    6  A    between atoms: C_16  and  C_27
    7  A    between atoms: C_22  and  N_32
    8  A    between atoms: C_27  and  N_32
                            x       y       z     vdW  Elec       q    Type
                         _______ _______ _______ _____ _____    ______ ____

>  <TORSDO>
F 8

$$$$
=
 OpenBabel11062410493D

 32 36  0  0  1  0  0  0  0  0999 V2000
  161.7360  205.1170  147.8880 C   0  0  0  0  0  0  0  0  0  0  0  0
  161.1380  208.7840  151.3700 C   0  0  2  0  0  3  0  0  0  0  0  0
  160.1570  206.3170  155.4890 C   0  0  0  0  0  3  0  0  0  0  0  0
  159.8180  207.5200  156.1110 C   0  0  0  0  0  3  0  0  0  0  0  0
  161.7810  207.5260  149.3130 C   0  0  0  0  0  0  0  0  0  0  0  0
  161.1960  206.3410  151.3760 N   0  0  0  0  0  2  0  0  0  0  0  0
  161.4300  205.1240  149.2540 C   0  0  0  0  0  3  0  0  0  0  0  0
  160.6980  206.3240  154.2030 C   0  0  0  0  0  3  0  0  0  0  0  0
  161.5320  207.5340  152.1550 C   0  0  2  0  0  3  0  0  0  0  0  0
  160.8980  207.5330  153.5210 C   0  0  0  0  0  0  0  0  0  0  0  0
  160.7730  210.0960  153.4640 C   0  0  2  0  0  3  0  0  0  0  0  0
  162.0710  206.3140  147.2400 C   0  0  0  0  0  3  0  0  0  0  0  0
  161.4650  206.3230  149.9700 C   0  0  0  0  0  0  0  0  0  0  0  0
  162.0940  207.5180  147.9510 C   0  0  0  0  0  3  0  0  0  0  0  0
  160.0360  208.7320  155.4530 C   0  0  0  0  0  3  0  0  0  0  0  0
  160.6050  208.7600  154.1700 C   0  0  0  0  0  0  0  0  0  0  0  0
  161.7610  208.7540  150.0490 N   0  0  0  0  0  2  0  0  0  0  0  0
  161.5660  210.0080  152.1530 C   0  0  0  0  0  2  0  0  0  0  0  0
  161.6860  203.8430  147.1200 C   0  0  0  0  0  2  0  0  0  0  0  0
  162.0660  204.0920  145.6710 C   0  0  0  0  0  2  0  0  0  0  0  0
  160.8750  204.6330  144.9020 C   0  0  2  0  0  3  0  0  0  0  0  0
  159.9720  203.4850  144.5040 C   0  0  0  0  0  1  0  0  0  0  0  0
  161.3100  205.2950  143.7550 O   0  0  0  0  0  1  0  0  0  0  0  0
  161.4300  211.1230  154.3780 C   0  0  0  0  0  2  0  0  0  0  0  0
  160.5350  211.4710  155.4790 N   0  0  0  0  0  0  0  0  0  0  0  0
  158.4800  212.7970  155.3220 C   0  0  1  0  0  3  0  0  0  0  0  0
  157.9530  211.5440  155.6550 O   0  0  0  0  0  1  0  0  0  0  0  0
  159.9520  212.7850  155.2070 C   0  0  2  0  0  3  0  0  0  0  0  0
  159.1140  212.7200  153.9980 N   0  0  0  0  0  2  0  0  0  0  0  0
  161.2950  211.5120  156.7370 C   0  0  0  0  0  2  0  0  0  0  0  0
  162.7430  211.0400  156.5900 C   0  0  0  0  0  2  0  0  0  0  0  0
  162.9030  209.6910  157.2570 C   0  0  0  0  0  1  0  0  0  0  0  0
  1  7  1  0  0  0  0
  2 18  1  1  0  0  0
  2  9  1  0  0  0  0
  3  4  1  0  0  0  0
  5 13  1  0  0  0  0
  5 17  1  0  0  0  0
  7 13  2  0  0  0  0
  8  3  2  0  0  0  0
  9  6  1  6  0  0  0
  9 10  1  0  0  0  0
 10 16  2  0  0  0  0
 10  8  1  0  0  0  0
 11 16  1  0  0  0  0
 11 24  1  1  0  0  0
 12  1  2  0  0  0  0
 12 14  1  0  0  0  0
 13  6  1  0  0  0  0
 14  5  2  0  0  0  0
 15  4  2  0  0  0  0
 16 15  1  0  0  0  0
 17  2  1  0  0  0  0
 18 11  1  0  0  0  0
 19  1  1  0  0  0  0
 20 19  1  0  0  0  0
 21 22  1  6  0  0  0
 21 20  1  0  0  0  0
 23 21  1  0  0  0  0
 24 25  1  0  0  0  0
 25 30  1  0  0  0  0
 26 27  1  1  0  0  0
 28 26  1  0  0  0  0
 28 25  1  1  0  0  0
 29 28  1  0  0  0  0
 29 26  1  0  0  0  0
 31 30  1  0  0  0  0
 31 32  1  0  0  0  0
M  END
>  <MODEL>
9

>  <REMARK>
 VINA RESULT:      -6.6      2.341      4.007
  Name = 
  8 active torsions:
  status: ('A' for Active; 'I' for Inactive)
    1  A    between atoms: C_1  and  C_10
    2  A    between atoms: C_2  and  C_24
    3  A    between atoms: C_6  and  C_7
    4  A    between atoms: C_7  and  N_32
    5  A    between atoms: C_10  and  C_24
    6  A    between atoms: C_16  and  C_27
    7  A    between atoms: C_22  and  N_32
    8  A    between atoms: C_27  and  N_32
                            x       y       z     vdW  Elec       q    Type
                         _______ _______ _______ _____ _____    ______ ____

>  <TORSDO>
F 8

$$$$
