=
 OpenBabel11052422413D

 31 35  0  0  1  0  0  0  0  0999 V2000
  160.8320  202.0470  150.5100 C   0  0  0  0  0  0  0  0  0  0  0  0
  161.1750  205.4610  149.0680 C   0  0  0  0  0  0  0  0  0  0  0  0
  161.2300  205.1980  147.5770 C   0  0  2  0  0  3  0  0  0  0  0  0
  161.2670  207.8630  153.7400 O   0  0  0  0  0  0  0  0  0  0  0  0
  161.3450  208.7300  152.8290 C   0  0  0  0  0  0  0  0  0  0  0  0
  162.4580  204.0400  145.7220 C   0  0  0  0  0  2  0  0  0  0  0  0
  161.0580  204.3960  149.9830 C   0  0  0  0  0  0  0  0  0  0  0  0
  160.8360  202.3460  151.8370 N   0  0  0  0  0  0  0  0  0  0  0  0
  162.5560  204.5600  147.1570 C   0  0  0  0  0  2  0  0  0  0  0  0
  161.2620  207.0080  150.9460 C   0  0  0  0  0  0  0  0  0  0  0  0
  160.7110  200.6330  150.0690 C   0  0  0  0  0  1  0  0  0  0  0  0
  161.7310  207.5220  147.2180 C   0  0  0  0  0  2  0  0  0  0  0  0
  161.4150  204.7770  144.8730 C   0  0  1  0  0  3  0  0  0  0  0  0
  161.1580  205.9560  151.8030 N   0  0  0  0  0  0  0  0  0  0  0  0
  161.2760  206.7810  149.5590 C   0  0  0  0  0  0  0  0  0  0  0  0
  161.3490  208.3500  151.4480 N   0  0  0  0  0  2  0  0  0  0  0  0
  160.9430  203.0650  149.5610 C   0  0  0  0  0  3  0  0  0  0  0  0
  160.0910  204.0310  144.8830 C   0  0  0  0  0  1  0  0  0  0  0  0
  161.0560  204.6770  151.3640 C   0  0  0  0  0  0  0  0  0  0  0  0
  160.9440  203.6280  152.2780 C   0  0  0  0  0  3  0  0  0  0  0  0
  161.2930  207.9480  148.6110 C   0  0  0  0  0  2  0  0  0  0  0  0
  160.9170  206.3970  146.7630 N   0  0  1  0  0  0  0  0  0  0  0  0
  161.2240  206.2320  145.3290 C   0  0  0  0  0  2  0  0  0  0  0  0
  160.5050  210.7560  155.9180 C   0  0  1  0  0  3  0  0  0  0  0  0
  162.4190  210.4430  154.3250 C   0  0  0  0  0  2  0  0  0  0  0  0
  159.1630  210.5560  152.4410 O   0  0  0  0  0  1  0  0  0  0  0  0
  159.9350  210.3260  157.2530 C   0  0  0  0  0  1  0  0  0  0  0  0
  161.8260  210.0320  155.6740 C   0  0  0  0  0  2  0  0  0  0  0  0
  160.0750  210.8470  153.4570 C   0  0  2  0  0  3  0  0  0  0  0  0
  161.4370  210.1880  153.1760 C   0  0  2  0  0  3  0  0  0  0  0  0
  159.5090  210.4260  154.8110 C   0  0  0  0  0  2  0  0  0  0  0  0
  1  8  1  0  0  0  0
  2 15  2  0  0  0  0
  2  7  1  0  0  0  0
  3  9  1  6  0  0  0
  3  2  1  0  0  0  0
  5  4  2  0  0  0  0
  6  9  1  0  0  0  0
  7 19  2  0  0  0  0
  8 20  2  0  0  0  0
 10 16  1  0  0  0  0
 10 14  2  0  0  0  0
 11  1  1  0  0  0  0
 12 21  1  0  0  0  0
 13 18  1  1  0  0  0
 13 23  1  0  0  0  0
 13  6  1  0  0  0  0
 15 10  1  0  0  0  0
 16  5  1  0  0  0  0
 17  7  1  0  0  0  0
 17  1  2  0  0  0  0
 19 14  1  0  0  0  0
 19 20  1  0  0  0  0
 21 15  1  0  0  0  0
 22 23  1  6  0  0  0
 22 12  1  0  0  0  0
 22  3  1  0  0  0  0
 24 27  1  1  0  0  0
 25 28  1  0  0  0  0
 28 24  1  0  0  0  0
 29 26  1  6  0  0  0
 29 31  1  0  0  0  0
 30  5  1  1  0  0  0
 30 29  1  0  0  0  0
 30 25  1  0  0  0  0
 31 24  1  0  0  0  0
M  END
>  <MODEL>
1

>  <REMARK>
 VINA RESULT:      -9.8      0.000      0.000
  Name = 
  1 active torsions:
  status: ('A' for Active; 'I' for Inactive)
    1  A    between atoms: C_9  and  C_22
                            x       y       z     vdW  Elec       q    Type
                         _______ _______ _______ _____ _____    ______ ____

>  <TORSDO>
F 1

$$$$
=
 OpenBabel11052422413D

 31 35  0  0  1  0  0  0  0  0999 V2000
  160.7870  201.9680  150.3350 C   0  0  0  0  0  0  0  0  0  0  0  0
  161.2070  205.4210  149.0130 C   0  0  0  0  0  0  0  0  0  0  0  0
  161.2340  205.2110  147.5130 C   0  0  2  0  0  3  0  0  0  0  0  0
  161.4350  207.6460  153.7680 O   0  0  0  0  0  0  0  0  0  0  0  0
  161.5240  208.5440  152.8870 C   0  0  0  0  0  0  0  0  0  0  0  0
  162.4010  204.0880  145.5990 C   0  0  0  0  0  2  0  0  0  0  0  0
  161.0730  204.3270  149.8910 C   0  0  0  0  0  0  0  0  0  0  0  0
  160.8180  202.2180  151.6720 N   0  0  0  0  0  0  0  0  0  0  0  0
  162.5340  204.5530  147.0500 C   0  0  0  0  0  2  0  0  0  0  0  0
  161.3650  206.8950  150.9450 C   0  0  0  0  0  0  0  0  0  0  0  0
  160.6190  200.5750  149.8450 C   0  0  0  0  0  1  0  0  0  0  0  0
  161.7960  207.5330  147.2310 C   0  0  0  0  0  2  0  0  0  0  0  0
  161.3680  204.8850  144.7930 C   0  0  1  0  0  3  0  0  0  0  0  0
  161.2430  205.8160  151.7640 N   0  0  0  0  0  0  0  0  0  0  0  0
  161.3530  206.7190  149.5500 C   0  0  0  0  0  0  0  0  0  0  0  0
  161.4980  208.2150  151.4940 N   0  0  0  0  0  2  0  0  0  0  0  0
  160.9140  203.0160  149.4220 C   0  0  0  0  0  3  0  0  0  0  0  0
  160.0240  204.1770  144.7960 C   0  0  0  0  0  1  0  0  0  0  0  0
  161.0980  204.5570  151.2810 C   0  0  0  0  0  0  0  0  0  0  0  0
  160.9700  203.4790  152.1580 C   0  0  0  0  0  3  0  0  0  0  0  0
  161.3900  207.9190  148.6460 C   0  0  0  0  0  2  0  0  0  0  0  0
  160.9440  206.4490  146.7480 N   0  0  1  0  0  0  0  0  0  0  0  0
  161.2260  206.3280  145.3040 C   0  0  0  0  0  2  0  0  0  0  0  0
  159.1000  211.1730  154.1390 C   0  0  1  0  0  3  0  0  0  0  0  0
  161.3290  210.2060  154.7660 C   0  0  0  0  0  2  0  0  0  0  0  0
  161.1290  210.7060  151.0410 O   0  0  0  0  0  1  0  0  0  0  0  0
  157.6100  211.0960  154.3980 C   0  0  0  0  0  1  0  0  0  0  0  0
  159.8210  210.1540  155.0160 C   0  0  0  0  0  2  0  0  0  0  0  0
  160.8740  210.9560  152.3900 C   0  0  2  0  0  3  0  0  0  0  0  0
  161.6630  209.9850  153.2860 C   0  0  2  0  0  3  0  0  0  0  0  0
  159.3730  210.8890  152.6650 C   0  0  0  0  0  2  0  0  0  0  0  0
  1  8  1  0  0  0  0
  2 15  2  0  0  0  0
  2  7  1  0  0  0  0
  3  9  1  6  0  0  0
  3  2  1  0  0  0  0
  5  4  2  0  0  0  0
  6  9  1  0  0  0  0
  7 19  2  0  0  0  0
  8 20  2  0  0  0  0
 10 16  1  0  0  0  0
 10 14  2  0  0  0  0
 11  1  1  0  0  0  0
 12 21  1  0  0  0  0
 13 18  1  1  0  0  0
 13 23  1  0  0  0  0
 13  6  1  0  0  0  0
 15 10  1  0  0  0  0
 16  5  1  0  0  0  0
 17  7  1  0  0  0  0
 17  1  2  0  0  0  0
 19 14  1  0  0  0  0
 19 20  1  0  0  0  0
 21 15  1  0  0  0  0
 22 23  1  6  0  0  0
 22 12  1  0  0  0  0
 22  3  1  0  0  0  0
 24 27  1  6  0  0  0
 24 28  1  0  0  0  0
 25 28  1  0  0  0  0
 29 26  1  6  0  0  0
 29 31  1  0  0  0  0
 29 30  1  0  0  0  0
 30  5  1  6  0  0  0
 30 25  1  0  0  0  0
 31 24  1  0  0  0  0
M  END
>  <MODEL>
2

>  <REMARK>
 VINA RESULT:      -9.7      0.744      1.115
  Name = 
  1 active torsions:
  status: ('A' for Active; 'I' for Inactive)
    1  A    between atoms: C_9  and  C_22
                            x       y       z     vdW  Elec       q    Type
                         _______ _______ _______ _____ _____    ______ ____

>  <TORSDO>
F 1

$$$$
=
 OpenBabel11052422413D

 31 35  0  0  1  0  0  0  0  0999 V2000
  161.6200  206.5510  147.0600 C   0  0  0  0  0  0  0  0  0  0  0  0
  161.2760  205.0740  150.4590 C   0  0  0  0  0  0  0  0  0  0  0  0
  161.1720  203.5890  150.1770 C   0  0  2  0  0  3  0  0  0  0  0  0
  161.3560  209.7150  152.9220 O   0  0  0  0  0  0  0  0  0  0  0  0
  161.2610  208.7940  153.7790 C   0  0  0  0  0  0  0  0  0  0  0  0
  159.8740  201.7880  149.0110 C   0  0  0  0  0  2  0  0  0  0  0  0
  161.4070  206.0000  149.4050 C   0  0  0  0  0  0  0  0  0  0  0  0
  161.6600  207.8730  147.3760 N   0  0  0  0  0  0  0  0  0  0  0  0
  159.8260  203.2190  149.5510 C   0  0  0  0  0  2  0  0  0  0  0  0
  161.2650  206.9330  152.0320 C   0  0  0  0  0  0  0  0  0  0  0  0
  161.7100  206.1260  145.6390 C   0  0  0  0  0  1  0  0  0  0  0  0
  160.6890  203.2150  152.5030 C   0  0  0  0  0  2  0  0  0  0  0  0
  160.9000  200.8980  149.7230 C   0  0  1  0  0  3  0  0  0  0  0  0
  161.3820  207.8000  150.9890 N   0  0  0  0  0  0  0  0  0  0  0  0
  161.2060  205.5500  151.7860 C   0  0  0  0  0  0  0  0  0  0  0  0
  161.2100  207.4200  153.3810 N   0  0  0  0  0  2  0  0  0  0  0  0
  161.4930  205.5920  148.0670 C   0  0  0  0  0  3  0  0  0  0  0  0
  162.2140  200.8780  148.9610 C   0  0  0  0  0  1  0  0  0  0  0  0
  161.4550  207.3760  149.7030 C   0  0  0  0  0  0  0  0  0  0  0  0
  161.5810  208.3010  148.6650 C   0  0  0  0  0  3  0  0  0  0  0  0
  161.1750  204.5880  152.9410 C   0  0  0  0  0  2  0  0  0  0  0  0
  161.4750  202.7500  151.3620 N   0  0  1  0  0  0  0  0  0  0  0  0
  161.1220  201.3280  151.1820 C   0  0  0  0  0  2  0  0  0  0  0  0
  159.4400  211.4290  155.8030 C   0  0  1  0  0  3  0  0  0  0  0  0
  159.7850  208.9430  155.8100 C   0  0  0  0  0  2  0  0  0  0  0  0
  163.0150  210.7030  155.0130 O   0  0  0  0  0  1  0  0  0  0  0  0
  158.5090  212.5390  155.3640 C   0  0  0  0  0  1  0  0  0  0  0  0
  158.8570  210.0820  155.3860 C   0  0  0  0  0  2  0  0  0  0  0  0
  161.7580  210.5150  155.5890 C   0  0  2  0  0  3  0  0  0  0  0  0
  161.1970  209.1250  155.2420 C   0  0  2  0  0  3  0  0  0  0  0  0
  160.8090  211.6330  155.1620 C   0  0  0  0  0  2  0  0  0  0  0  0
  1  8  2  0  0  0  0
  1 17  1  0  0  0  0
  2 15  2  0  0  0  0
  3  9  1  1  0  0  0
  3  2  1  0  0  0  0
  3 22  1  0  0  0  0
  4  5  2  0  0  0  0
  6  9  1  0  0  0  0
  6 13  1  0  0  0  0
  7 19  1  0  0  0  0
  7  2  1  0  0  0  0
  8 20  1  0  0  0  0
 10 16  1  0  0  0  0
 11  1  1  0  0  0  0
 12 21  1  0  0  0  0
 13 18  1  6  0  0  0
 13 23  1  0  0  0  0
 14 10  2  0  0  0  0
 15 10  1  0  0  0  0
 15 21  1  0  0  0  0
 16  5  1  0  0  0  0
 17  7  2  0  0  0  0
 19 14  1  0  0  0  0
 20 19  2  0  0  0  0
 22 23  1  6  0  0  0
 22 12  1  0  0  0  0
 24 27  1  6  0  0  0
 28 24  1  0  0  0  0
 28 25  1  0  0  0  0
 29 26  1  6  0  0  0
 30  5  1  6  0  0  0
 30 29  1  0  0  0  0
 30 25  1  0  0  0  0
 31 29  1  0  0  0  0
 31 24  1  0  0  0  0
M  END
>  <MODEL>
3

>  <REMARK>
 VINA RESULT:      -7.9      1.389      4.300
  Name = 
  1 active torsions:
  status: ('A' for Active; 'I' for Inactive)
    1  A    between atoms: C_9  and  C_22
                            x       y       z     vdW  Elec       q    Type
                         _______ _______ _______ _____ _____    ______ ____

>  <TORSDO>
F 1

$$$$
=
 OpenBabel11052422413D

 31 35  0  0  1  0  0  0  0  0999 V2000
  161.9140  206.5790  147.1370 C   0  0  0  0  0  0  0  0  0  0  0  0
  161.4120  205.6620  150.7090 C   0  0  0  0  0  0  0  0  0  0  0  0
  161.2920  204.1520  150.6610 C   0  0  2  0  0  3  0  0  0  0  0  0
  161.4800  210.6330  152.4120 O   0  0  0  0  0  0  0  0  0  0  0  0
  161.3360  209.8600  153.3980 C   0  0  0  0  0  0  0  0  0  0  0  0
  160.0080  202.2050  149.7410 C   0  0  0  0  0  2  0  0  0  0  0  0
  161.6010  206.4080  149.5290 C   0  0  0  0  0  0  0  0  0  0  0  0
  161.9660  207.9330  147.2430 N   0  0  0  0  0  0  0  0  0  0  0  0
  159.9650  203.7030  150.0460 C   0  0  0  0  0  2  0  0  0  0  0  0
  161.3740  207.7460  151.9680 C   0  0  0  0  0  0  0  0  0  0  0  0
  162.0510  205.9330  145.8060 C   0  0  0  0  0  1  0  0  0  0  0  0
  160.7130  204.1560  152.9950 C   0  0  0  0  0  2  0  0  0  0  0  0
  160.9890  201.4270  150.6260 C   0  0  1  0  0  3  0  0  0  0  0  0
  161.5470  208.4360  150.8070 N   0  0  0  0  0  0  0  0  0  0  0  0
  161.2990  206.3430  151.9410 C   0  0  0  0  0  0  0  0  0  0  0  0
  161.2760  208.4410  153.2200 N   0  0  0  0  0  2  0  0  0  0  0  0
  161.7310  205.7920  148.2770 C   0  0  0  0  0  3  0  0  0  0  0  0
  162.3310  201.2710  149.9310 C   0  0  0  0  0  1  0  0  0  0  0  0
  161.6610  207.8130  149.6080 C   0  0  0  0  0  0  0  0  0  0  0  0
  161.8450  208.5600  148.4440 C   0  0  0  0  0  3  0  0  0  0  0  0
  161.2060  205.5760  153.2310 C   0  0  0  0  0  2  0  0  0  0  0  0
  161.5330  203.5080  151.9750 N   0  0  1  0  0  0  0  0  0  0  0  0
  161.1630  202.0800  152.0070 C   0  0  0  0  0  2  0  0  0  0  0  0
  160.4550  208.3700  156.7680 C   0  0  1  0  0  3  0  0  0  0  0  0
  162.2460  209.7970  155.7420 C   0  0  0  0  0  2  0  0  0  0  0  0
  158.8610  210.8440  154.4720 O   0  0  0  0  0  1  0  0  0  0  0  0
  160.0810  206.9530  157.1510 C   0  0  0  0  0  1  0  0  0  0  0  0
  161.8480  208.3760  156.1470 C   0  0  0  0  0  2  0  0  0  0  0  0
  159.8010  210.3390  155.3730 C   0  0  2  0  0  3  0  0  0  0  0  0
  161.2210  210.4190  154.7870 C   0  0  2  0  0  3  0  0  0  0  0  0
  159.4320  208.9130  155.7750 C   0  0  0  0  0  2  0  0  0  0  0  0
  1  8  2  0  0  0  0
  1 17  1  0  0  0  0
  2 15  2  0  0  0  0
  3  9  1  1  0  0  0
  3  2  1  0  0  0  0
  3 22  1  0  0  0  0
  4  5  2  0  0  0  0
  6  9  1  0  0  0  0
  6 13  1  0  0  0  0
  7 19  1  0  0  0  0
  7  2  1  0  0  0  0
  8 20  1  0  0  0  0
 10 16  1  0  0  0  0
 11  1  1  0  0  0  0
 12 21  1  0  0  0  0
 13 18  1  6  0  0  0
 13 23  1  0  0  0  0
 14 10  2  0  0  0  0
 15 10  1  0  0  0  0
 15 21  1  0  0  0  0
 16  5  1  0  0  0  0
 17  7  2  0  0  0  0
 19 14  1  0  0  0  0
 20 19  2  0  0  0  0
 22 23  1  6  0  0  0
 22 12  1  0  0  0  0
 24 27  1  6  0  0  0
 25 28  1  0  0  0  0
 28 24  1  0  0  0  0
 29 26  1  6  0  0  0
 29 31  1  0  0  0  0
 30  5  1  6  0  0  0
 30 29  1  0  0  0  0
 30 25  1  0  0  0  0
 31 24  1  0  0  0  0
M  END
>  <MODEL>
4

>  <REMARK>
 VINA RESULT:      -7.2      1.470      4.312
  Name = 
  1 active torsions:
  status: ('A' for Active; 'I' for Inactive)
    1  A    between atoms: C_9  and  C_22
                            x       y       z     vdW  Elec       q    Type
                         _______ _______ _______ _____ _____    ______ ____

>  <TORSDO>
F 1

$$$$
=
 OpenBabel11052422413D

 31 35  0  0  1  0  0  0  0  0999 V2000
  161.2980  204.8870  151.6190 C   0  0  0  0  0  0  0  0  0  0  0  0
  161.1990  208.3570  152.9580 C   0  0  0  0  0  0  0  0  0  0  0  0
  160.9520  208.1450  154.4380 C   0  0  2  0  0  3  0  0  0  0  0  0
  161.8920  210.6180  148.2660 O   0  0  0  0  0  0  0  0  0  0  0  0
  161.8170  211.5150  149.1490 C   0  0  0  0  0  0  0  0  0  0  0  0
  159.4050  207.1880  156.1640 C   0  0  0  0  0  2  0  0  0  0  0  0
  161.2900  207.2600  152.0790 C   0  0  0  0  0  0  0  0  0  0  0  0
  161.4730  205.1450  150.2960 N   0  0  0  0  0  0  0  0  0  0  0  0
  159.5240  207.6740  154.7180 C   0  0  0  0  0  2  0  0  0  0  0  0
  161.4950  209.8500  151.0570 C   0  0  0  0  0  0  0  0  0  0  0  0
  161.2070  203.4810  152.0940 C   0  0  0  0  0  1  0  0  0  0  0  0
  160.6870  210.5210  154.7010 C   0  0  0  0  0  2  0  0  0  0  0  0
  160.4280  207.8260  157.1110 C   0  0  1  0  0  3  0  0  0  0  0  0
  161.5690  208.7680  150.2350 N   0  0  0  0  0  0  0  0  0  0  0  0
  161.3050  209.6660  152.4380 C   0  0  0  0  0  0  0  0  0  0  0  0
  161.6190  211.1770  150.5260 N   0  0  0  0  0  2  0  0  0  0  0  0
  161.2040  205.9380  152.5340 C   0  0  0  0  0  3  0  0  0  0  0  0
  161.6490  206.9360  157.2610 C   0  0  0  0  0  1  0  0  0  0  0  0
  161.4740  207.4990  150.7030 C   0  0  0  0  0  0  0  0  0  0  0  0
  161.5620  206.4180  149.8240 C   0  0  0  0  0  3  0  0  0  0  0  0
  161.3200  210.8540  153.3580 C   0  0  0  0  0  2  0  0  0  0  0  0
  161.3110  209.3250  155.2620 N   0  0  1  0  0  0  0  0  0  0  0  0
  160.8340  209.2370  156.6560 C   0  0  0  0  0  2  0  0  0  0  0  0
  160.3540  213.6280  146.3660 C   0  0  1  0  0  3  0  0  0  0  0  0
  160.5850  213.6890  148.8630 C   0  0  0  0  0  2  0  0  0  0  0  0
  163.7820  212.4770  147.2910 O   0  0  0  0  0  1  0  0  0  0  0  0
  159.4310  213.2540  145.2250 C   0  0  0  0  0  1  0  0  0  0  0  0
  159.6680  213.3280  147.6940 C   0  0  0  0  0  2  0  0  0  0  0  0
  162.5900  213.1950  147.3980 C   0  0  2  0  0  3  0  0  0  0  0  0
  161.9310  212.9630  148.7700 C   0  0  2  0  0  3  0  0  0  0  0  0
  161.6510  212.8330  146.2490 C   0  0  0  0  0  2  0  0  0  0  0  0
  1 11  1  0  0  0  0
  1 17  1  0  0  0  0
  2  3  1  0  0  0  0
  3  9  1  6  0  0  0
  3 22  1  0  0  0  0
  4  5  2  0  0  0  0
  5 16  1  0  0  0  0
  6 13  1  0  0  0  0
  7 17  2  0  0  0  0
  7  2  1  0  0  0  0
  8  1  2  0  0  0  0
  9  6  1  0  0  0  0
 10 15  1  0  0  0  0
 13 18  1  6  0  0  0
 14 19  1  0  0  0  0
 14 10  2  0  0  0  0
 15  2  2  0  0  0  0
 15 21  1  0  0  0  0
 16 10  1  0  0  0  0
 19  7  1  0  0  0  0
 20  8  1  0  0  0  0
 20 19  2  0  0  0  0
 21 12  1  0  0  0  0
 22 12  1  6  0  0  0
 22 23  1  0  0  0  0
 23 13  1  0  0  0  0
 24 27  1  6  0  0  0
 24 28  1  0  0  0  0
 28 25  1  0  0  0  0
 29 26  1  1  0  0  0
 29 30  1  0  0  0  0
 30 25  1  0  0  0  0
 30  5  1  6  0  0  0
 31 24  1  0  0  0  0
 31 29  1  0  0  0  0
M  END
>  <MODEL>
5

>  <REMARK>
 VINA RESULT:      -6.9      3.601      7.404
  Name = 
  1 active torsions:
  status: ('A' for Active; 'I' for Inactive)
    1  A    between atoms: C_9  and  C_22
                            x       y       z     vdW  Elec       q    Type
                         _______ _______ _______ _____ _____    ______ ____

>  <TORSDO>
F 1

$$$$
