=
 OpenBabel11062408063D

 34 40  0  0  1  0  0  0  0  0999 V2000
  159.6900  210.4690  156.2610 C   0  0  0  0  0  0  0  0  0  0  0  0
  158.2410  211.5200  154.6290 C   0  0  0  0  0  0  0  0  0  0  0  0
  160.0620  210.1020  153.8810 C   0  0  0  0  0  0  0  0  0  0  0  0
  160.9040  210.5510  151.5610 C   0  0  1  0  0  3  0  0  0  0  0  0
  157.9090  211.8530  156.9970 C   0  0  0  0  0  3  0  0  0  0  0  0
  157.5190  212.0970  155.6760 C   0  0  0  0  0  3  0  0  0  0  0  0
  158.8390  211.4930  152.2110 N   0  0  1  0  0  0  0  0  0  0  0  0
  159.3240  210.6870  154.9150 C   0  0  0  0  0  0  0  0  0  0  0  0
  161.0940  212.0560  151.6100 C   0  0  0  0  0  2  0  0  0  0  0  0
  158.9760  211.0520  157.2610 N   0  0  0  0  0  0  0  0  0  0  0  0
  161.1820  209.3150  154.1920 C   0  0  0  0  0  0  0  0  0  0  0  0
  160.7900  209.6610  156.5610 C   0  0  0  0  0  3  0  0  0  0  0  0
  157.7850  211.7170  153.2150 C   0  0  0  0  0  2  0  0  0  0  0  0
  162.1990  209.8130  151.9580 C   0  0  0  0  0  2  0  0  0  0  0  0
  162.0430  208.7840  153.0880 C   0  0  2  0  0  3  0  0  0  0  0  0
  159.7660  212.6200  152.1060 C   0  0  1  0  0  3  0  0  0  0  0  0
  159.6700  210.3030  152.4260 C   0  0  2  0  0  3  0  0  0  0  0  0
  161.5390  209.0900  155.5270 C   0  0  0  0  0  3  0  0  0  0  0  0
  160.8680  206.0320  150.7660 C   0  0  0  0  0  0  0  0  0  0  0  0
  160.7950  204.9330  151.6280 C   0  0  0  0  0  3  0  0  0  0  0  0
  161.6070  207.4330  152.6030 C   0  0  0  0  0  0  0  0  0  0  0  0
  161.1290  205.0810  152.9760 C   0  0  0  0  0  3  0  0  0  0  0  0
  161.2730  207.2770  151.2520 C   0  0  0  0  0  3  0  0  0  0  0  0
  161.5340  206.3270  153.4630 C   0  0  0  0  0  3  0  0  0  0  0  0
  160.5450  205.8880  149.4570 F   0  0  0  0  0  0  0  0  0  0  0  0
  159.2550  213.6360  151.0980 C   0  0  0  0  0  2  0  0  0  0  0  0
  160.3240  214.0160  150.1900 N   0  0  0  0  0  2  0  0  0  0  0  0
  159.8150  213.8320  148.8430 C   0  0  0  0  0  2  0  0  0  0  0  0
  160.6260  212.7670  148.1210 C   0  0  2  0  0  3  0  0  0  0  0  0
  162.1230  213.0880  148.1980 C   0  0  0  0  0  2  0  0  0  0  0  0
  162.2450  213.9670  146.1200 C   0  0  0  0  0  2  0  0  0  0  0  0
  160.7570  213.7970  145.8160 C   0  0  0  0  0  2  0  0  0  0  0  0
  160.2050  212.6440  146.6520 C   0  0  0  0  0  2  0  0  0  0  0  0
  162.4190  214.2640  147.4830 O   0  0  0  0  0  0  0  0  0  0  0  0
  1 12  1  0  0  0  0
  1 10  2  0  0  0  0
  2  8  2  0  0  0  0
  2  6  1  0  0  0  0
  3 11  2  0  0  0  0
  3  8  1  0  0  0  0
  4  9  1  1  0  0  0
  4 14  1  0  0  0  0
  4 17  1  0  0  0  0
  5 10  1  0  0  0  0
  6  5  2  0  0  0  0
  7 17  1  0  0  0  0
  7 13  1  1  0  0  0
  8  1  1  0  0  0  0
  9 16  1  0  0  0  0
 11 18  1  0  0  0  0
 13  2  1  0  0  0  0
 14 15  1  0  0  0  0
 15 21  1  6  0  0  0
 15 11  1  0  0  0  0
 16 26  1  6  0  0  0
 16  7  1  0  0  0  0
 17  3  1  1  0  0  0
 18 12  2  0  0  0  0
 19 23  2  0  0  0  0
 19 20  1  0  0  0  0
 20 22  2  0  0  0  0
 21 24  2  0  0  0  0
 22 24  1  0  0  0  0
 23 21  1  0  0  0  0
 25 19  1  0  0  0  0
 27 26  1  0  0  0  0
 28 27  1  0  0  0  0
 29 30  1  0  0  0  0
 29 28  1  6  0  0  0
 31 34  1  0  0  0  0
 32 31  1  0  0  0  0
 32 33  1  0  0  0  0
 33 29  1  0  0  0  0
 34 30  1  0  0  0  0
M  END
>  <MODEL>
1

>  <REMARK>
 VINA RESULT:      -6.1      0.000      0.000
  Name = 
  5 active torsions:
  status: ('A' for Active; 'I' for Inactive)
    1  A    between atoms: N_3  and  C_13
    2  A    between atoms: N_3  and  C_17
    3  A    between atoms: C_11  and  C_13
    4  A    between atoms: C_12  and  C_28
    5  A    between atoms: C_17  and  C_29
                            x       y       z     vdW  Elec       q    Type
                         _______ _______ _______ _____ _____    ______ ____

>  <TORSDO>
F 5

$$$$
=
 OpenBabel11062408063D

 34 40  0  0  1  0  0  0  0  0999 V2000
  159.7670  210.5500  156.1710 C   0  0  0  0  0  0  0  0  0  0  0  0
  158.1250  211.6000  154.7330 C   0  0  0  0  0  0  0  0  0  0  0  0
  159.9610  210.3570  153.7500 C   0  0  0  0  0  0  0  0  0  0  0  0
  160.5780  211.0030  151.4060 C   0  0  1  0  0  3  0  0  0  0  0  0
  157.9700  211.7640  157.1360 C   0  0  0  0  0  3  0  0  0  0  0  0
  157.4580  212.0620  155.8700 C   0  0  0  0  0  3  0  0  0  0  0  0
  158.5190  211.7630  152.2780 N   0  0  1  0  0  0  0  0  0  0  0  0
  159.2770  210.8260  154.8760 C   0  0  0  0  0  0  0  0  0  0  0  0
  160.6780  212.5110  151.5400 C   0  0  0  0  0  2  0  0  0  0  0  0
  159.1030  211.0220  157.2610 N   0  0  0  0  0  0  0  0  0  0  0  0
  161.1500  209.6280  153.9180 C   0  0  0  0  0  0  0  0  0  0  0  0
  160.9350  209.8010  156.3280 C   0  0  0  0  0  3  0  0  0  0  0  0
  157.5410  211.8530  153.3760 C   0  0  0  0  0  2  0  0  0  0  0  0
  161.9440  210.3310  151.6490 C   0  0  0  0  0  2  0  0  0  0  0  0
  161.9470  209.2260  152.7160 C   0  0  2  0  0  3  0  0  0  0  0  0
  159.3630  212.9540  152.1770 C   0  0  1  0  0  3  0  0  0  0  0  0
  159.4380  210.6200  152.3470 C   0  0  2  0  0  3  0  0  0  0  0  0
  161.6300  209.3470  155.2030 C   0  0  0  0  0  3  0  0  0  0  0  0
  160.8140  206.5390  150.2980 C   0  0  0  0  0  0  0  0  0  0  0  0
  160.8260  205.3970  151.1040 C   0  0  0  0  0  3  0  0  0  0  0  0
  161.5570  207.8810  152.1780 C   0  0  0  0  0  0  0  0  0  0  0  0
  161.2040  205.4930  152.4450 C   0  0  0  0  0  3  0  0  0  0  0  0
  161.1790  207.7770  150.8330 C   0  0  0  0  0  3  0  0  0  0  0  0
  161.5680  206.7320  152.9820 C   0  0  0  0  0  3  0  0  0  0  0  0
  160.4490  206.4460  148.9960 F   0  0  0  0  0  0  0  0  0  0  0  0
  158.7080  213.9940  151.2820 C   0  0  0  0  0  2  0  0  0  0  0  0
  159.2490  213.9040  149.9370 N   0  0  0  0  0  2  0  0  0  0  0  0
  158.1300  213.6300  149.0530 C   0  0  0  0  0  2  0  0  0  0  0  0
  158.3230  214.3560  147.7290 C   0  0  2  0  0  3  0  0  0  0  0  0
  157.1850  214.0150  146.7600 C   0  0  0  0  0  2  0  0  0  0  0  0
  158.3700  212.4860  145.5920 C   0  0  0  0  0  2  0  0  0  0  0  0
  159.6280  212.6080  146.4510 C   0  0  0  0  0  2  0  0  0  0  0  0
  159.6670  213.9970  147.0860 C   0  0  0  0  0  2  0  0  0  0  0  0
  157.2290  212.6560  146.3960 O   0  0  0  0  0  0  0  0  0  0  0  0
  1 12  1  0  0  0  0
  1 10  2  0  0  0  0
  2  8  2  0  0  0  0
  2  6  1  0  0  0  0
  3 11  2  0  0  0  0
  3  8  1  0  0  0  0
  4  9  1  1  0  0  0
  4 14  1  0  0  0  0
  4 17  1  0  0  0  0
  5 10  1  0  0  0  0
  6  5  2  0  0  0  0
  7 17  1  0  0  0  0
  7 13  1  1  0  0  0
  8  1  1  0  0  0  0
  9 16  1  0  0  0  0
 11 18  1  0  0  0  0
 13  2  1  0  0  0  0
 14 15  1  0  0  0  0
 15 21  1  6  0  0  0
 15 11  1  0  0  0  0
 16 26  1  6  0  0  0
 16  7  1  0  0  0  0
 17  3  1  1  0  0  0
 18 12  2  0  0  0  0
 19 23  2  0  0  0  0
 19 20  1  0  0  0  0
 20 22  2  0  0  0  0
 21 24  2  0  0  0  0
 22 24  1  0  0  0  0
 23 21  1  0  0  0  0
 25 19  1  0  0  0  0
 27 26  1  0  0  0  0
 28 27  1  0  0  0  0
 29 28  1  1  0  0  0
 30 29  1  0  0  0  0
 31 34  1  0  0  0  0
 31 32  1  0  0  0  0
 32 33  1  0  0  0  0
 33 29  1  0  0  0  0
 34 30  1  0  0  0  0
M  END
>  <MODEL>
2

>  <REMARK>
 VINA RESULT:      -5.9      1.370      1.712
  Name = 
  5 active torsions:
  status: ('A' for Active; 'I' for Inactive)
    1  A    between atoms: N_3  and  C_13
    2  A    between atoms: N_3  and  C_17
    3  A    between atoms: C_11  and  C_13
    4  A    between atoms: C_12  and  C_28
    5  A    between atoms: C_17  and  C_29
                            x       y       z     vdW  Elec       q    Type
                         _______ _______ _______ _____ _____    ______ ____

>  <TORSDO>
F 5

$$$$
=
 OpenBabel11062408063D

 34 40  0  0  1  0  0  0  0  0999 V2000
  162.1230  209.3440  149.9120 C   0  0  0  0  0  0  0  0  0  0  0  0
  161.0450  207.1760  149.8210 C   0  0  0  0  0  0  0  0  0  0  0  0
  161.1050  208.3990  151.9150 C   0  0  0  0  0  0  0  0  0  0  0  0
  160.9140  207.0050  153.9910 C   0  0  1  0  0  3  0  0  0  0  0  0
  162.0640  208.1520  147.8620 C   0  0  0  0  0  3  0  0  0  0  0  0
  161.3620  207.1020  148.4620 C   0  0  0  0  0  3  0  0  0  0  0  0
  160.3640  206.0180  151.9180 N   0  0  1  0  0  0  0  0  0  0  0  0
  161.4100  208.3070  150.5530 C   0  0  0  0  0  0  0  0  0  0  0  0
  161.9530  205.9340  153.7160 C   0  0  0  0  0  2  0  0  0  0  0  0
  162.4270  209.2410  148.5910 N   0  0  0  0  0  0  0  0  0  0  0  0
  161.5330  209.5210  152.6440 C   0  0  0  0  0  0  0  0  0  0  0  0
  162.5200  210.4680  150.6410 C   0  0  0  0  0  3  0  0  0  0  0  0
  160.2290  206.0900  150.4530 C   0  0  0  0  0  2  0  0  0  0  0  0
  161.5260  208.1900  154.7660 C   0  0  0  0  0  2  0  0  0  0  0  0
  161.3120  209.5690  154.1240 C   0  0  2  0  0  3  0  0  0  0  0  0
  161.6100  205.3750  152.3380 C   0  0  1  0  0  3  0  0  0  0  0  0
  160.3170  207.3070  152.6190 C   0  0  2  0  0  3  0  0  0  0  0  0
  162.2310  210.5530  152.0060 C   0  0  0  0  0  3  0  0  0  0  0  0
  158.1560  211.6520  153.8970 C   0  0  0  0  0  0  0  0  0  0  0  0
  157.5550  211.4080  155.1350 C   0  0  0  0  0  3  0  0  0  0  0  0
  160.0050  210.2010  154.5010 C   0  0  0  0  0  0  0  0  0  0  0  0
  158.1750  210.5610  156.0570 C   0  0  0  0  0  3  0  0  0  0  0  0
  159.3770  211.0500  153.5810 C   0  0  0  0  0  3  0  0  0  0  0  0
  159.3970  209.9580  155.7420 C   0  0  0  0  0  3  0  0  0  0  0  0
  157.5540  212.4720  153.0020 F   0  0  0  0  0  0  0  0  0  0  0  0
  161.4200  203.8710  152.4500 C   0  0  0  0  0  2  0  0  0  0  0  0
  162.0970  203.2010  151.3540 N   0  0  0  0  0  2  0  0  0  0  0  0
  161.2560  202.0850  150.9620 C   0  0  0  0  0  2  0  0  0  0  0  0
  160.2320  202.5400  149.9320 C   0  0  2  0  0  3  0  0  0  0  0  0
  159.6640  201.3370  149.1700 C   0  0  0  0  0  2  0  0  0  0  0  0
  160.9730  201.6210  147.3500 C   0  0  0  0  0  2  0  0  0  0  0  0
  161.7280  202.8230  147.9140 C   0  0  0  0  0  2  0  0  0  0  0  0
  160.8430  203.5330  148.9380 C   0  0  0  0  0  2  0  0  0  0  0  0
  160.6630  200.7250  148.3890 O   0  0  0  0  0  0  0  0  0  0  0  0
  1  8  2  0  0  0  0
  1 12  1  0  0  0  0
  2 13  1  0  0  0  0
  2  8  1  0  0  0  0
  3 11  2  0  0  0  0
  4  9  1  6  0  0  0
  4 14  1  0  0  0  0
  5  6  1  0  0  0  0
  5 10  2  0  0  0  0
  6  2  2  0  0  0  0
  7 13  1  6  0  0  0
  7 16  1  0  0  0  0
  7 17  1  0  0  0  0
  8  3  1  0  0  0  0
 10  1  1  0  0  0  0
 11 15  1  0  0  0  0
 12 18  2  0  0  0  0
 15 21  1  6  0  0  0
 15 14  1  0  0  0  0
 16 26  1  1  0  0  0
 16  9  1  0  0  0  0
 17  3  1  6  0  0  0
 17  4  1  0  0  0  0
 18 11  1  0  0  0  0
 19 20  1  0  0  0  0
 20 22  2  0  0  0  0
 21 24  2  0  0  0  0
 23 19  2  0  0  0  0
 23 21  1  0  0  0  0
 24 22  1  0  0  0  0
 25 19  1  0  0  0  0
 27 26  1  0  0  0  0
 28 27  1  0  0  0  0
 29 28  1  1  0  0  0
 30 29  1  0  0  0  0
 31 32  1  0  0  0  0
 31 34  1  0  0  0  0
 32 33  1  0  0  0  0
 33 29  1  0  0  0  0
 34 30  1  0  0  0  0
M  END
>  <MODEL>
3

>  <REMARK>
 VINA RESULT:      -5.7      4.051      7.987
  Name = 
  5 active torsions:
  status: ('A' for Active; 'I' for Inactive)
    1  A    between atoms: N_3  and  C_13
    2  A    between atoms: N_3  and  C_17
    3  A    between atoms: C_11  and  C_13
    4  A    between atoms: C_12  and  C_28
    5  A    between atoms: C_17  and  C_29
                            x       y       z     vdW  Elec       q    Type
                         _______ _______ _______ _____ _____    ______ ____

>  <TORSDO>
F 5

$$$$
=
 OpenBabel11062408063D

 34 40  0  0  1  0  0  0  0  0999 V2000
  161.2340  203.0180  150.8810 C   0  0  0  0  0  0  0  0  0  0  0  0
  160.4590  205.3050  151.0780 C   0  0  0  0  0  0  0  0  0  0  0  0
  161.2530  204.4870  148.9370 C   0  0  0  0  0  0  0  0  0  0  0  0
  162.0980  206.2380  147.3510 C   0  0  1  0  0  3  0  0  0  0  0  0
  160.4560  203.8150  152.9770 C   0  0  0  0  0  3  0  0  0  0  0  0
  160.1870  205.0730  152.4280 C   0  0  0  0  0  3  0  0  0  0  0  0
  160.8450  206.9300  149.2290 N   0  0  1  0  0  0  0  0  0  0  0  0
  160.9710  204.2730  150.2900 C   0  0  0  0  0  0  0  0  0  0  0  0
  163.0370  207.0150  148.2550 C   0  0  0  0  0  2  0  0  0  0  0  0
  160.9700  202.8230  152.2010 N   0  0  0  0  0  0  0  0  0  0  0  0
  161.8200  203.4510  148.1780 C   0  0  0  0  0  0  0  0  0  0  0  0
  161.7730  201.9860  150.1110 C   0  0  0  0  0  3  0  0  0  0  0  0
  160.1040  206.6270  150.4660 C   0  0  0  0  0  2  0  0  0  0  0  0
  162.8440  205.1120  146.6070 C   0  0  0  0  0  2  0  0  0  0  0  0
  162.2330  203.7110  146.7620 C   0  0  2  0  0  3  0  0  0  0  0  0
  162.2140  207.3770  149.4880 C   0  0  1  0  0  3  0  0  0  0  0  0
  160.9540  205.8210  148.2740 C   0  0  2  0  0  3  0  0  0  0  0  0
  162.0720  202.2040  148.7620 C   0  0  0  0  0  3  0  0  0  0  0  0
  159.7060  201.8040  144.6820 C   0  0  0  0  0  0  0  0  0  0  0  0
  159.0990  202.8280  143.9480 C   0  0  0  0  0  3  0  0  0  0  0  0
  161.1410  203.4280  145.7730 C   0  0  0  0  0  0  0  0  0  0  0  0
  159.5100  204.1520  144.1260 C   0  0  0  0  0  3  0  0  0  0  0  0
  160.7240  202.1040  145.5920 C   0  0  0  0  0  3  0  0  0  0  0  0
  160.5280  204.4520  145.0350 C   0  0  0  0  0  3  0  0  0  0  0  0
  159.3070  200.5210  144.5110 F   0  0  0  0  0  0  0  0  0  0  0  0
  162.2530  208.8840  149.6810 C   0  0  0  0  0  2  0  0  0  0  0  0
  162.4680  209.2010  151.0820 N   0  0  0  0  0  2  0  0  0  0  0  0
  161.5810  210.3050  151.4020 C   0  0  0  0  0  2  0  0  0  0  0  0
  160.4560  209.8230  152.3070 C   0  0  2  0  0  3  0  0  0  0  0  0
  159.6310  211.0100  152.8160 C   0  0  0  0  0  2  0  0  0  0  0  0
  160.6320  211.0940  154.8400 C   0  0  0  0  0  2  0  0  0  0  0  0
  161.6080  209.9530  154.5540 C   0  0  0  0  0  2  0  0  0  0  0  0
  160.9990  209.0290  153.5000 C   0  0  0  0  0  2  0  0  0  0  0  0
  160.4030  211.8280  153.6630 O   0  0  0  0  0  0  0  0  0  0  0  0
  1 10  2  0  0  0  0
  2  6  1  0  0  0  0
  3  8  1  0  0  0  0
  4 14  1  1  0  0  0
  4  9  1  0  0  0  0
  4 17  1  0  0  0  0
  6  5  2  0  0  0  0
  7 16  1  0  0  0  0
  7 13  1  1  0  0  0
  8  1  1  0  0  0  0
  8  2  2  0  0  0  0
  9 16  1  0  0  0  0
 10  5  1  0  0  0  0
 11 18  1  0  0  0  0
 11  3  2  0  0  0  0
 12  1  1  0  0  0  0
 13  2  1  0  0  0  0
 14 15  1  0  0  0  0
 15 21  1  6  0  0  0
 15 11  1  0  0  0  0
 16 26  1  6  0  0  0
 17  3  1  1  0  0  0
 17  7  1  0  0  0  0
 18 12  2  0  0  0  0
 19 23  1  0  0  0  0
 20 22  1  0  0  0  0
 20 19  2  0  0  0  0
 22 24  2  0  0  0  0
 23 21  2  0  0  0  0
 24 21  1  0  0  0  0
 25 19  1  0  0  0  0
 26 27  1  0  0  0  0
 27 28  1  0  0  0  0
 29 28  1  1  0  0  0
 29 30  1  0  0  0  0
 29 33  1  0  0  0  0
 30 34  1  0  0  0  0
 32 31  1  0  0  0  0
 33 32  1  0  0  0  0
 34 31  1  0  0  0  0
M  END
>  <MODEL>
4

>  <REMARK>
 VINA RESULT:      -5.3      4.419      7.702
  Name = 
  5 active torsions:
  status: ('A' for Active; 'I' for Inactive)
    1  A    between atoms: N_3  and  C_13
    2  A    between atoms: N_3  and  C_17
    3  A    between atoms: C_11  and  C_13
    4  A    between atoms: C_12  and  C_28
    5  A    between atoms: C_17  and  C_29
                            x       y       z     vdW  Elec       q    Type
                         _______ _______ _______ _____ _____    ______ ____

>  <TORSDO>
F 5

$$$$
=
 OpenBabel11062408063D

 34 40  0  0  1  0  0  0  0  0999 V2000
  161.2830  203.1530  150.8870 C   0  0  0  0  0  0  0  0  0  0  0  0
  160.5190  205.4450  151.0640 C   0  0  0  0  0  0  0  0  0  0  0  0
  161.2920  204.6000  148.9260 C   0  0  0  0  0  0  0  0  0  0  0  0
  162.1320  206.3300  147.3150 C   0  0  1  0  0  3  0  0  0  0  0  0
  160.5250  203.9750  152.9800 C   0  0  0  0  0  3  0  0  0  0  0  0
  160.2570  205.2280  152.4190 C   0  0  0  0  0  3  0  0  0  0  0  0
  160.8970  207.0480  149.1950 N   0  0  1  0  0  0  0  0  0  0  0  0
  161.0200  204.4020  150.2830 C   0  0  0  0  0  0  0  0  0  0  0  0
  163.0810  207.1130  148.2020 C   0  0  0  0  0  2  0  0  0  0  0  0
  161.0280  202.9730  152.2100 N   0  0  0  0  0  0  0  0  0  0  0  0
  161.8500  203.5530  148.1740 C   0  0  0  0  0  0  0  0  0  0  0  0
  161.8120  202.1100  150.1230 C   0  0  0  0  0  3  0  0  0  0  0  0
  160.1650  206.7610  150.4410 C   0  0  0  0  0  2  0  0  0  0  0  0
  162.8670  205.1930  146.5770 C   0  0  0  0  0  2  0  0  0  0  0  0
  162.2520  203.7970  146.7520 C   0  0  2  0  0  3  0  0  0  0  0  0
  162.2690  207.4920  149.4380 C   0  0  1  0  0  3  0  0  0  0  0  0
  160.9930  205.9280  148.2510 C   0  0  2  0  0  3  0  0  0  0  0  0
  162.1010  202.3120  148.7700 C   0  0  0  0  0  3  0  0  0  0  0  0
  159.7030  201.8770  144.7100 C   0  0  0  0  0  0  0  0  0  0  0  0
  159.0920  202.8960  143.9730 C   0  0  0  0  0  3  0  0  0  0  0  0
  161.1510  203.5070  145.7740 C   0  0  0  0  0  0  0  0  0  0  0  0
  159.5070  204.2200  144.1350 C   0  0  0  0  0  3  0  0  0  0  0  0
  160.7290  202.1820  145.6080 C   0  0  0  0  0  3  0  0  0  0  0  0
  160.5340  204.5260  145.0340 C   0  0  0  0  0  3  0  0  0  0  0  0
  159.3000  200.5930  144.5530 F   0  0  0  0  0  0  0  0  0  0  0  0
  162.3170  209.0010  149.6140 C   0  0  0  0  0  2  0  0  0  0  0  0
  161.9470  209.6580  148.3730 N   0  0  0  0  0  2  0  0  0  0  0  0
  162.3380  211.0500  148.5040 C   0  0  0  0  0  2  0  0  0  0  0  0
  161.1290  211.9520  148.3010 C   0  0  2  0  0  3  0  0  0  0  0  0
  160.8880  212.2000  146.8070 C   0  0  0  0  0  2  0  0  0  0  0  0
  161.8640  214.2380  146.7850 C   0  0  0  0  0  2  0  0  0  0  0  0
  162.2640  214.2110  148.2590 C   0  0  0  0  0  2  0  0  0  0  0  0
  161.3070  213.2940  149.0200 C   0  0  0  0  0  2  0  0  0  0  0  0
  161.9470  212.9410  146.2470 O   0  0  0  0  0  0  0  0  0  0  0  0
  1 10  2  0  0  0  0
  2  6  1  0  0  0  0
  3  8  1  0  0  0  0
  4 14  1  1  0  0  0
  4  9  1  0  0  0  0
  4 17  1  0  0  0  0
  6  5  2  0  0  0  0
  7 16  1  0  0  0  0
  7 13  1  1  0  0  0
  8  1  1  0  0  0  0
  8  2  2  0  0  0  0
  9 16  1  0  0  0  0
 10  5  1  0  0  0  0
 11 18  1  0  0  0  0
 11  3  2  0  0  0  0
 12  1  1  0  0  0  0
 13  2  1  0  0  0  0
 14 15  1  0  0  0  0
 15 21  1  6  0  0  0
 15 11  1  0  0  0  0
 16 26  1  6  0  0  0
 17  3  1  1  0  0  0
 17  7  1  0  0  0  0
 18 12  2  0  0  0  0
 19 23  1  0  0  0  0
 20 22  1  0  0  0  0
 20 19  2  0  0  0  0
 22 24  2  0  0  0  0
 23 21  2  0  0  0  0
 24 21  1  0  0  0  0
 25 19  1  0  0  0  0
 27 28  1  0  0  0  0
 27 26  1  0  0  0  0
 29 28  1  6  0  0  0
 29 33  1  0  0  0  0
 30 29  1  0  0  0  0
 31 32  1  0  0  0  0
 32 33  1  0  0  0  0
 34 31  1  0  0  0  0
 34 30  1  0  0  0  0
M  END
>  <MODEL>
5

>  <REMARK>
 VINA RESULT:      -4.8      4.483      6.982
  Name = 
  5 active torsions:
  status: ('A' for Active; 'I' for Inactive)
    1  A    between atoms: N_3  and  C_13
    2  A    between atoms: N_3  and  C_17
    3  A    between atoms: C_11  and  C_13
    4  A    between atoms: C_12  and  C_28
    5  A    between atoms: C_17  and  C_29
                            x       y       z     vdW  Elec       q    Type
                         _______ _______ _______ _____ _____    ______ ____

>  <TORSDO>
F 5

$$$$
=
 OpenBabel11062408063D

 34 40  0  0  1  0  0  0  0  0999 V2000
  161.9250  207.7750  148.8670 C   0  0  0  0  0  0  0  0  0  0  0  0
  160.4720  205.8420  148.7250 C   0  0  0  0  0  0  0  0  0  0  0  0
  161.2120  206.6290  150.8960 C   0  0  0  0  0  0  0  0  0  0  0  0
  161.2250  204.9120  152.7260 C   0  0  1  0  0  3  0  0  0  0  0  0
  161.2000  207.0100  146.7410 C   0  0  0  0  0  3  0  0  0  0  0  0
  160.4650  205.9790  147.3340 C   0  0  0  0  0  3  0  0  0  0  0  0
  160.0630  204.4210  150.7300 N   0  0  1  0  0  0  0  0  0  0  0  0
  161.1900  206.7500  149.5040 C   0  0  0  0  0  0  0  0  0  0  0  0
  161.9630  203.7740  152.0470 C   0  0  0  0  0  2  0  0  0  0  0  0
  161.9090  207.8780  147.5110 N   0  0  0  0  0  0  0  0  0  0  0  0
  161.9890  207.5200  151.6550 C   0  0  0  0  0  0  0  0  0  0  0  0
  162.6720  208.6730  149.6330 C   0  0  0  0  0  3  0  0  0  0  0  0
  159.6270  204.7860  149.3710 C   0  0  0  0  0  2  0  0  0  0  0  0
  162.2000  205.8300  153.4920 C   0  0  0  0  0  2  0  0  0  0  0  0
  162.1100  207.3210  153.1340 C   0  0  2  0  0  3  0  0  0  0  0  0
  161.2300  203.5380  150.7290 C   0  0  1  0  0  3  0  0  0  0  0  0
  160.4090  205.5490  151.6030 C   0  0  2  0  0  3  0  0  0  0  0  0
  162.7090  208.5420  151.0250 C   0  0  0  0  0  3  0  0  0  0  0  0
  159.6300  210.0040  154.1370 C   0  0  0  0  0  0  0  0  0  0  0  0
  159.0820  209.4720  155.3080 C   0  0  0  0  0  3  0  0  0  0  0  0
  161.0560  208.0540  153.9120 C   0  0  0  0  0  0  0  0  0  0  0  0
  159.5170  208.2320  155.7820 C   0  0  0  0  0  3  0  0  0  0  0  0
  160.6140  209.2960  153.4410 C   0  0  0  0  0  3  0  0  0  0  0  0
  160.5020  207.5240  155.0860 C   0  0  0  0  0  3  0  0  0  0  0  0
  159.2080  211.2060  153.6770 F   0  0  0  0  0  0  0  0  0  0  0  0
  160.7950  202.0840  150.6610 C   0  0  0  0  0  2  0  0  0  0  0  0
  161.4960  201.4050  149.5850 N   0  0  0  0  0  2  0  0  0  0  0  0
  160.6940  201.5770  148.3880 C   0  0  0  0  0  2  0  0  0  0  0  0
  161.5550  201.3720  147.1500 C   0  0  2  0  0  3  0  0  0  0  0  0
  161.9500  202.7220  146.5400 C   0  0  0  0  0  2  0  0  0  0  0  0
  160.3770  202.6730  144.9180 C   0  0  0  0  0  2  0  0  0  0  0  0
  159.7650  201.3470  145.3640 C   0  0  0  0  0  2  0  0  0  0  0  0
  160.8280  200.5280  146.0970 C   0  0  0  0  0  2  0  0  0  0  0  0
  160.8170  203.3950  146.0420 O   0  0  0  0  0  0  0  0  0  0  0  0
  1  8  2  0  0  0  0
  1 12  1  0  0  0  0
  2 13  1  0  0  0  0
  2  8  1  0  0  0  0
  3 11  2  0  0  0  0
  4  9  1  6  0  0  0
  4 14  1  0  0  0  0
  5  6  1  0  0  0  0
  5 10  2  0  0  0  0
  6  2  2  0  0  0  0
  7 13  1  6  0  0  0
  7 17  1  0  0  0  0
  8  3  1  0  0  0  0
 10  1  1  0  0  0  0
 11 15  1  0  0  0  0
 12 18  2  0  0  0  0
 15 14  1  0  0  0  0
 15 21  1  1  0  0  0
 16 26  1  1  0  0  0
 16  7  1  0  0  0  0
 16  9  1  0  0  0  0
 17  3  1  6  0  0  0
 17  4  1  0  0  0  0
 18 11  1  0  0  0  0
 19 20  1  0  0  0  0
 20 22  2  0  0  0  0
 21 24  2  0  0  0  0
 23 21  1  0  0  0  0
 23 19  2  0  0  0  0
 24 22  1  0  0  0  0
 25 19  1  0  0  0  0
 27 26  1  0  0  0  0
 28 27  1  0  0  0  0
 29 28  1  1  0  0  0
 30 29  1  0  0  0  0
 31 32  1  0  0  0  0
 31 34  1  0  0  0  0
 32 33  1  0  0  0  0
 33 29  1  0  0  0  0
 34 30  1  0  0  0  0
M  END
>  <MODEL>
6

>  <REMARK>
 VINA RESULT:      -3.6      4.553      8.430
  Name = 
  5 active torsions:
  status: ('A' for Active; 'I' for Inactive)
    1  A    between atoms: N_3  and  C_13
    2  A    between atoms: N_3  and  C_17
    3  A    between atoms: C_11  and  C_13
    4  A    between atoms: C_12  and  C_28
    5  A    between atoms: C_17  and  C_29
                            x       y       z     vdW  Elec       q    Type
                         _______ _______ _______ _____ _____    ______ ____

>  <TORSDO>
F 5

$$$$
=
 OpenBabel11062408063D

 34 40  0  0  1  0  0  0  0  0999 V2000
  163.9350  212.6060  138.1300 C   0  0  0  0  0  0  0  0  0  0  0  0
  163.4110  213.1920  140.4220 C   0  0  0  0  0  0  0  0  0  0  0  0
  162.2910  211.3110  139.3780 C   0  0  0  0  0  0  0  0  0  0  0  0
  160.0600  210.7010  140.3500 C   0  0  1  0  0  3  0  0  0  0  0  0
  165.0350  214.4460  139.1490 C   0  0  0  0  0  3  0  0  0  0  0  0
  164.3370  214.2360  140.3420 C   0  0  0  0  0  3  0  0  0  0  0  0
  161.4620  212.1540  141.5750 N   0  0  1  0  0  0  0  0  0  0  0  0
  163.2150  212.3590  139.3200 C   0  0  0  0  0  0  0  0  0  0  0  0
  159.3800  212.0570  140.3830 C   0  0  0  0  0  2  0  0  0  0  0  0
  164.8220  213.6360  138.0780 N   0  0  0  0  0  0  0  0  0  0  0  0
  162.0690  210.5220  138.2380 C   0  0  0  0  0  0  0  0  0  0  0  0
  163.7260  211.7980  137.0110 C   0  0  0  0  0  3  0  0  0  0  0  0
  162.7150  212.9150  141.7200 C   0  0  0  0  0  2  0  0  0  0  0  0
  159.7600  209.9600  139.0320 C   0  0  0  0  0  2  0  0  0  0  0  0
  160.9970  209.4760  138.2600 C   0  0  2  0  0  3  0  0  0  0  0  0
  160.3490  212.9840  141.1140 C   0  0  1  0  0  3  0  0  0  0  0  0
  161.5240  211.0110  140.6560 C   0  0  2  0  0  3  0  0  0  0  0  0
  162.7900  210.7610  137.0620 C   0  0  0  0  0  3  0  0  0  0  0  0
  161.9470  206.6110  140.5480 C   0  0  0  0  0  0  0  0  0  0  0  0
  162.4010  205.6500  139.6400 C   0  0  0  0  0  3  0  0  0  0  0  0
  161.4950  208.1370  138.7170 C   0  0  0  0  0  0  0  0  0  0  0  0
  162.4010  205.9280  138.2710 C   0  0  0  0  0  3  0  0  0  0  0  0
  161.4950  207.8500  140.0880 C   0  0  0  0  0  3  0  0  0  0  0  0
  161.9500  207.1680  137.8100 C   0  0  0  0  0  3  0  0  0  0  0  0
  161.9460  206.3410  141.8760 F   0  0  0  0  0  0  0  0  0  0  0  0
  159.6310  213.6140  142.2960 C   0  0  0  0  0  2  0  0  0  0  0  0
  159.5020  212.6480  143.3720 N   0  0  0  0  0  2  0  0  0  0  0  0
  159.4690  213.4040  144.6110 C   0  0  0  0  0  2  0  0  0  0  0  0
  159.6320  212.4660  145.7990 C   0  0  2  0  0  3  0  0  0  0  0  0
  158.5760  212.7650  146.8690 C   0  0  0  0  0  2  0  0  0  0  0  0
  159.9630  213.9660  148.1860 C   0  0  0  0  0  2  0  0  0  0  0  0
  161.1660  213.8540  147.2520 C   0  0  0  0  0  2  0  0  0  0  0  0
  161.0310  212.5830  146.4140 C   0  0  0  0  0  2  0  0  0  0  0  0
  158.7800  214.0400  147.4290 O   0  0  0  0  0  0  0  0  0  0  0  0
  1  8  1  0  0  0  0
  2 13  1  0  0  0  0
  4 14  1  6  0  0  0
  4  9  1  0  0  0  0
  4 17  1  0  0  0  0
  5  6  2  0  0  0  0
  6  2  1  0  0  0  0
  7 13  1  6  0  0  0
  8  3  1  0  0  0  0
  8  2  2  0  0  0  0
  9 16  1  0  0  0  0
 10  1  2  0  0  0  0
 10  5  1  0  0  0  0
 11 15  1  0  0  0  0
 11  3  2  0  0  0  0
 12 18  2  0  0  0  0
 12  1  1  0  0  0  0
 15 21  1  1  0  0  0
 15 14  1  0  0  0  0
 16  7  1  0  0  0  0
 16 26  1  1  0  0  0
 17  3  1  6  0  0  0
 17  7  1  0  0  0  0
 18 11  1  0  0  0  0
 19 25  1  0  0  0  0
 20 19  2  0  0  0  0
 21 23  2  0  0  0  0
 22 20  1  0  0  0  0
 23 19  1  0  0  0  0
 24 22  2  0  0  0  0
 24 21  1  0  0  0  0
 26 27  1  0  0  0  0
 27 28  1  0  0  0  0
 29 28  1  6  0  0  0
 29 33  1  0  0  0  0
 29 30  1  0  0  0  0
 30 34  1  0  0  0  0
 32 31  1  0  0  0  0
 33 32  1  0  0  0  0
 34 31  1  0  0  0  0
M  END
>  <MODEL>
7

>  <REMARK>
 VINA RESULT:      -3.3      7.255     12.843
  Name = 
  5 active torsions:
  status: ('A' for Active; 'I' for Inactive)
    1  A    between atoms: N_3  and  C_13
    2  A    between atoms: N_3  and  C_17
    3  A    between atoms: C_11  and  C_13
    4  A    between atoms: C_12  and  C_28
    5  A    between atoms: C_17  and  C_29
                            x       y       z     vdW  Elec       q    Type
                         _______ _______ _______ _____ _____    ______ ____

>  <TORSDO>
F 5

$$$$
