=
 OpenBabel11062408293D

 32 37  0  0  1  0  0  0  0  0999 V2000
  161.2380  204.2980  150.2760 C   0  0  0  0  0  0  0  0  0  0  0  0
  161.8300  206.5420  151.1640 C   0  0  2  0  0  3  0  0  0  0  0  0
  160.9050  202.9520  150.4770 C   0  0  0  0  0  3  0  0  0  0  0  0
  161.3510  205.1480  151.3870 C   0  0  0  0  0  0  0  0  0  0  0  0
  161.5620  207.4600  152.3230 C   0  0  0  0  0  0  0  0  0  0  0  0
  162.0890  210.4190  148.2640 C   0  0  0  0  0  3  0  0  0  0  0  0
  161.2020  207.0810  149.8840 C   0  0  2  0  0  3  0  0  0  0  0  0
  162.0830  210.6750  150.6780 C   0  0  0  0  0  3  0  0  0  0  0  0
  161.7850  209.3170  150.8240 C   0  0  0  0  0  0  0  0  0  0  0  0
  161.1050  204.6820  152.6850 C   0  0  0  0  0  0  0  0  0  0  0  0
  161.6120  208.7510  152.1390 N   0  0  0  0  0  0  0  0  0  0  0  0
  161.1560  205.5900  153.8010 N   0  0  0  0  0  0  0  0  0  0  0  0
  160.7680  203.3380  152.8750 C   0  0  0  0  0  3  0  0  0  0  0  0
  161.5020  206.1780  148.7670 N   0  0  0  0  0  0  0  0  0  0  0  0
  161.4560  204.8770  148.9190 C   0  0  0  0  0  0  0  0  0  0  0  0
  161.6430  208.5020  149.6760 C   0  0  0  0  0  0  0  0  0  0  0  0
  161.3570  206.8740  153.6660 C   0  0  0  0  0  0  0  0  0  0  0  0
  160.6770  202.4750  151.7750 C   0  0  0  0  0  3  0  0  0  0  0  0
  162.2410  211.2230  149.4000 C   0  0  0  0  0  3  0  0  0  0  0  0
  161.7790  209.0630  148.4000 C   0  0  0  0  0  3  0  0  0  0  0  0
  160.6500  204.8430  145.5860 C   0  0  1  0  0  3  0  0  0  0  0  0
  160.2320  201.3340  144.5500 O   0  0  0  0  0  0  0  0  0  0  0  0
  160.6860  206.0490  144.6680 C   0  0  0  0  0  1  0  0  0  0  0  0
  161.0720  201.9740  146.6760 C   0  0  0  0  0  2  0  0  0  0  0  0
  161.7180  203.9820  147.7480 C   0  0  1  0  0  3  0  0  0  0  0  0
  160.5190  203.6250  144.7870 N   0  0  0  0  0  2  0  0  0  0  0  0
  160.6520  202.9850  147.6320 N   0  0  0  0  0  2  0  0  0  0  0  0
  161.8990  204.8210  146.4730 C   0  0  1  0  0  3  0  0  0  0  0  0
  163.0190  204.3830  145.7610 O   0  0  0  0  0  1  0  0  0  0  0  0
  160.5600  202.2870  145.3030 C   0  0  0  0  0  0  0  0  0  0  0  0
  161.3600  207.7220  154.8160 N   0  0  0  0  0  2  0  0  0  0  0  0
  160.3020  208.0000  155.4170 O   0  0  0  0  0  1  0  0  0  0  0  0
  1  3  2  0  0  0  0
  1  4  1  0  0  0  0
  2  4  1  1  0  0  0
  2  5  1  0  0  0  0
  3 18  1  0  0  0  0
  4 10  2  0  0  0  0
  5 17  1  0  0  0  0
  6 20  2  0  0  0  0
  6 19  1  0  0  0  0
  7 14  1  6  0  0  0
  7  2  1  0  0  0  0
  8  9  1  0  0  0  0
  9 11  1  0  0  0  0
 10 13  1  0  0  0  0
 10 12  1  0  0  0  0
 11  5  2  0  0  0  0
 14 15  2  0  0  0  0
 15  1  1  0  0  0  0
 16  7  1  0  0  0  0
 16  9  2  0  0  0  0
 17 12  2  0  0  0  0
 17 31  1  0  0  0  0
 18 13  2  0  0  0  0
 19  8  2  0  0  0  0
 20 16  1  0  0  0  0
 21 23  1  6  0  0  0
 21 28  1  0  0  0  0
 22 30  2  0  0  0  0
 24 27  1  0  0  0  0
 25 15  1  1  0  0  0
 26 30  1  0  0  0  0
 26 21  1  0  0  0  0
 27 25  1  0  0  0  0
 28 29  1  6  0  0  0
 28 25  1  0  0  0  0
 30 24  1  0  0  0  0
 31 32  1  0  0  0  0
M  END
>  <MODEL>
1

>  <REMARK>
 VINA RESULT:      -9.9      0.000      0.000
  Name = 
  2 active torsions:
  status: ('A' for Active; 'I' for Inactive)
    1  A    between atoms: N_13  and  C_29
    2  A    between atoms: C_16  and  C_27
                            x       y       z     vdW  Elec       q    Type
                         _______ _______ _______ _____ _____    ______ ____

>  <TORSDO>
F 2

$$$$
=
 OpenBabel11062408293D

 32 37  0  0  1  0  0  0  0  0999 V2000
  161.6430  209.0700  151.2040 C   0  0  0  0  0  0  0  0  0  0  0  0
  161.9300  206.8500  150.1250 C   0  0  2  0  0  3  0  0  0  0  0  0
  161.6710  210.4700  151.1480 C   0  0  0  0  0  3  0  0  0  0  0  0
  161.8350  208.3340  150.0250 C   0  0  0  0  0  0  0  0  0  0  0  0
  161.7570  206.1480  148.8090 C   0  0  0  0  0  0  0  0  0  0  0  0
  160.6270  202.7590  152.3790 C   0  0  0  0  0  3  0  0  0  0  0  0
  160.9090  206.3580  151.1440 C   0  0  2  0  0  3  0  0  0  0  0  0
  161.1500  202.7560  150.0090 C   0  0  0  0  0  3  0  0  0  0  0  0
  161.2000  204.1520  150.0160 C   0  0  0  0  0  0  0  0  0  0  0  0
  162.0180  208.9740  148.7920 C   0  0  0  0  0  0  0  0  0  0  0  0
  161.4790  204.8730  148.7970 N   0  0  0  0  0  0  0  0  0  0  0  0
  162.1390  208.1970  147.5850 N   0  0  0  0  0  0  0  0  0  0  0  0
  162.0390  210.3710  148.7440 C   0  0  0  0  0  3  0  0  0  0  0  0
  161.1180  207.0420  152.4260 N   0  0  0  0  0  0  0  0  0  0  0  0
  161.3950  208.3220  152.4700 C   0  0  0  0  0  0  0  0  0  0  0  0
  160.9650  204.8580  151.2190 C   0  0  0  0  0  0  0  0  0  0  0  0
  162.0170  206.8960  147.5600 C   0  0  0  0  0  0  0  0  0  0  0  0
  161.8730  211.1160  149.9200 C   0  0  0  0  0  3  0  0  0  0  0  0
  160.8710  202.0600  151.1910 C   0  0  0  0  0  3  0  0  0  0  0  0
  160.6630  204.1560  152.3920 C   0  0  0  0  0  3  0  0  0  0  0  0
  159.8350  208.2190  155.5230 C   0  0  1  0  0  3  0  0  0  0  0  0
  159.9490  211.6000  156.9760 O   0  0  0  0  0  0  0  0  0  0  0  0
  159.3860  206.9560  156.2300 C   0  0  0  0  0  1  0  0  0  0  0  0
  161.1190  210.9900  155.0030 C   0  0  0  0  0  2  0  0  0  0  0  0
  161.5540  209.0030  153.7940 C   0  0  1  0  0  3  0  0  0  0  0  0
  159.7820  209.3450  156.4540 N   0  0  0  0  0  2  0  0  0  0  0  0
  160.7330  210.2150  153.8350 N   0  0  0  0  0  2  0  0  0  0  0  0
  161.2350  208.0220  154.9330 C   0  0  1  0  0  3  0  0  0  0  0  0
  162.2170  208.0960  155.9250 O   0  0  0  0  0  1  0  0  0  0  0  0
  160.2350  210.6760  156.1720 C   0  0  0  0  0  0  0  0  0  0  0  0
  162.1130  206.1940  146.3190 N   0  0  0  0  0  2  0  0  0  0  0  0
  161.1200  206.0510  145.5770 O   0  0  0  0  0  1  0  0  0  0  0  0
  1 15  1  0  0  0  0
  2  5  1  6  0  0  0
  2  7  1  0  0  0  0
  3  1  1  0  0  0  0
  4  2  1  0  0  0  0
  4  1  2  0  0  0  0
  6 20  1  0  0  0  0
  7 16  1  1  0  0  0
  7 14  1  0  0  0  0
  8  9  2  0  0  0  0
  8 19  1  0  0  0  0
  9 16  1  0  0  0  0
 10  4  1  0  0  0  0
 11  5  2  0  0  0  0
 11  9  1  0  0  0  0
 12 10  1  0  0  0  0
 13 10  2  0  0  0  0
 13 18  1  0  0  0  0
 14 15  2  0  0  0  0
 16 20  2  0  0  0  0
 17 12  2  0  0  0  0
 17  5  1  0  0  0  0
 18  3  2  0  0  0  0
 19  6  2  0  0  0  0
 21 23  1  1  0  0  0
 21 26  1  0  0  0  0
 24 30  1  0  0  0  0
 25 15  1  6  0  0  0
 25 27  1  0  0  0  0
 25 28  1  0  0  0  0
 27 24  1  0  0  0  0
 28 21  1  0  0  0  0
 28 29  1  1  0  0  0
 30 26  1  0  0  0  0
 30 22  2  0  0  0  0
 31 17  1  0  0  0  0
 32 31  1  0  0  0  0
M  END
>  <MODEL>
2

>  <REMARK>
 VINA RESULT:      -8.6      2.121      8.483
  Name = 
  2 active torsions:
  status: ('A' for Active; 'I' for Inactive)
    1  A    between atoms: N_13  and  C_29
    2  A    between atoms: C_16  and  C_27
                            x       y       z     vdW  Elec       q    Type
                         _______ _______ _______ _____ _____    ______ ____

>  <TORSDO>
F 2

$$$$
=
 OpenBabel11062408293D

 32 37  0  0  1  0  0  0  0  0999 V2000
  161.8730  206.8050  151.1870 C   0  0  0  0  0  0  0  0  0  0  0  0
  161.0830  205.1490  149.5090 C   0  0  2  0  0  3  0  0  0  0  0  0
  162.0520  207.2070  152.5170 C   0  0  0  0  0  3  0  0  0  0  0  0
  161.3890  205.5140  150.9220 C   0  0  0  0  0  0  0  0  0  0  0  0
  160.9390  203.6700  149.2900 C   0  0  0  0  0  0  0  0  0  0  0  0
  162.0780  205.6640  144.7920 C   0  0  0  0  0  3  0  0  0  0  0  0
  162.1640  205.7320  148.6060 C   0  0  2  0  0  3  0  0  0  0  0  0
  161.1970  203.5730  145.6520 C   0  0  0  0  0  3  0  0  0  0  0  0
  161.3650  204.0370  146.9590 C   0  0  0  0  0  0  0  0  0  0  0  0
  161.1160  204.6140  151.9610 C   0  0  0  0  0  0  0  0  0  0  0  0
  161.0120  203.1950  148.0770 N   0  0  0  0  0  0  0  0  0  0  0  0
  160.6900  203.2720  151.6610 N   0  0  0  0  0  0  0  0  0  0  0  0
  161.3030  205.0230  153.2850 C   0  0  0  0  0  3  0  0  0  0  0  0
  162.2640  207.1800  148.8240 N   0  0  0  0  0  0  0  0  0  0  0  0
  162.1980  207.6870  150.0300 C   0  0  0  0  0  0  0  0  0  0  0  0
  161.8900  205.3310  147.1830 C   0  0  0  0  0  0  0  0  0  0  0  0
  160.6050  202.8060  150.4430 C   0  0  0  0  0  0  0  0  0  0  0  0
  161.7620  206.3180  153.5610 C   0  0  0  0  0  3  0  0  0  0  0  0
  161.5470  204.3880  144.5700 C   0  0  0  0  0  3  0  0  0  0  0  0
  162.2600  206.1320  146.0960 C   0  0  0  0  0  3  0  0  0  0  0  0
  160.5240  210.1640  151.7120 C   0  0  1  0  0  3  0  0  0  0  0  0
  160.8160  213.2690  149.7540 O   0  0  0  0  0  0  0  0  0  0  0  0
  159.9650  210.0400  153.1150 C   0  0  0  0  0  1  0  0  0  0  0  0
  162.0130  211.2850  149.2370 C   0  0  0  0  0  2  0  0  0  0  0  0
  162.3550  209.1630  150.2260 C   0  0  1  0  0  3  0  0  0  0  0  0
  160.5140  211.5680  151.3040 N   0  0  0  0  0  2  0  0  0  0  0  0
  161.6180  209.8860  149.1890 N   0  0  0  0  0  2  0  0  0  0  0  0
  161.9280  209.5530  151.6500 C   0  0  1  0  0  3  0  0  0  0  0  0
  162.8760  210.4070  152.2220 O   0  0  0  0  0  1  0  0  0  0  0  0
  161.0670  212.0810  150.0840 C   0  0  0  0  0  0  0  0  0  0  0  0
  160.2090  201.4510  150.2220 N   0  0  0  0  0  2  0  0  0  0  0  0
  161.0410  200.5790  149.8970 O   0  0  0  0  0  1  0  0  0  0  0  0
  1  3  1  0  0  0  0
  2  5  1  1  0  0  0
  2  4  1  0  0  0  0
  3 18  2  0  0  0  0
  4  1  2  0  0  0  0
  4 10  1  0  0  0  0
  5 17  1  0  0  0  0
  6 20  1  0  0  0  0
  7 16  1  6  0  0  0
  7 14  1  0  0  0  0
  7  2  1  0  0  0  0
  8  9  2  0  0  0  0
  9 16  1  0  0  0  0
  9 11  1  0  0  0  0
 10 13  2  0  0  0  0
 11  5  2  0  0  0  0
 12 10  1  0  0  0  0
 13 18  1  0  0  0  0
 14 15  2  0  0  0  0
 15  1  1  0  0  0  0
 17 12  2  0  0  0  0
 19  6  2  0  0  0  0
 19  8  1  0  0  0  0
 20 16  2  0  0  0  0
 21 23  1  1  0  0  0
 22 30  2  0  0  0  0
 24 30  1  0  0  0  0
 25 15  1  6  0  0  0
 25 28  1  0  0  0  0
 26 21  1  0  0  0  0
 27 24  1  0  0  0  0
 27 25  1  0  0  0  0
 28 21  1  0  0  0  0
 28 29  1  6  0  0  0
 30 26  1  0  0  0  0
 31 17  1  0  0  0  0
 32 31  1  0  0  0  0
M  END
>  <MODEL>
3

>  <REMARK>
 VINA RESULT:      -8.1      2.414      6.712
  Name = 
  2 active torsions:
  status: ('A' for Active; 'I' for Inactive)
    1  A    between atoms: N_13  and  C_29
    2  A    between atoms: C_16  and  C_27
                            x       y       z     vdW  Elec       q    Type
                         _______ _______ _______ _____ _____    ______ ____

>  <TORSDO>
F 2

$$$$
=
 OpenBabel11062408293D

 32 37  0  0  1  0  0  0  0  0999 V2000
  161.8610  209.4340  150.8090 C   0  0  0  0  0  0  0  0  0  0  0  0
  161.1660  207.2090  149.9460 C   0  0  2  0  0  3  0  0  0  0  0  0
  162.0080  210.3460  151.8630 C   0  0  0  0  0  3  0  0  0  0  0  0
  161.4400  208.1250  151.0900 C   0  0  0  0  0  0  0  0  0  0  0  0
  161.0920  205.7620  150.3420 C   0  0  0  0  0  0  0  0  0  0  0  0
  162.1840  205.8280  145.4110 C   0  0  0  0  0  3  0  0  0  0  0  0
  162.2270  207.4280  148.8740 C   0  0  2  0  0  3  0  0  0  0  0  0
  161.3920  204.2210  147.0480 C   0  0  0  0  0  3  0  0  0  0  0  0
  161.5240  205.1790  148.0570 C   0  0  0  0  0  0  0  0  0  0  0  0
  161.1980  207.7070  152.4060 C   0  0  0  0  0  0  0  0  0  0  0  0
  161.1990  204.8430  149.4220 N   0  0  0  0  0  0  0  0  0  0  0  0
  160.8370  206.3400  152.6750 N   0  0  0  0  0  0  0  0  0  0  0  0
  161.3520  208.6230  153.4520 C   0  0  0  0  0  3  0  0  0  0  0  0
  162.2590  208.8450  148.4900 N   0  0  0  0  0  0  0  0  0  0  0  0
  162.1570  209.7900  149.3920 C   0  0  0  0  0  0  0  0  0  0  0  0
  161.9870  206.4770  147.7360 C   0  0  0  0  0  0  0  0  0  0  0  0
  160.7870  205.4200  151.7480 C   0  0  0  0  0  0  0  0  0  0  0  0
  161.7490  209.9390  153.1790 C   0  0  0  0  0  3  0  0  0  0  0  0
  161.7150  204.5480  145.7260 C   0  0  0  0  0  3  0  0  0  0  0  0
  162.3310  206.7890  146.4150 C   0  0  0  0  0  3  0  0  0  0  0  0
  160.5940  211.8160  147.1080 C   0  0  1  0  0  3  0  0  0  0  0  0
  163.0520  214.2730  145.8930 O   0  0  0  0  0  0  0  0  0  0  0  0
  159.1040  211.8280  146.8300 C   0  0  0  0  0  1  0  0  0  0  0  0
  163.4750  212.7920  147.6990 C   0  0  0  0  0  2  0  0  0  0  0  0
  162.2430  211.2260  148.9760 C   0  0  1  0  0  3  0  0  0  0  0  0
  161.2160  212.9870  146.4910 N   0  0  0  0  0  2  0  0  0  0  0  0
  163.2090  211.3740  147.8860 N   0  0  0  0  0  2  0  0  0  0  0  0
  160.8460  211.7560  148.6180 C   0  0  1  0  0  3  0  0  0  0  0  0
  160.6320  213.0010  149.2170 O   0  0  0  0  0  1  0  0  0  0  0  0
  162.5910  213.3670  146.6330 C   0  0  0  0  0  0  0  0  0  0  0  0
  160.4560  204.0740  152.0940 N   0  0  0  0  0  2  0  0  0  0  0  0
  161.3010  203.1590  152.0150 O   0  0  0  0  0  1  0  0  0  0  0  0
  1  4  2  0  0  0  0
  1  3  1  0  0  0  0
  2  5  1  1  0  0  0
  2  4  1  0  0  0  0
  3 18  2  0  0  0  0
  4 10  1  0  0  0  0
  5 17  1  0  0  0  0
  6 19  2  0  0  0  0
  6 20  1  0  0  0  0
  7 16  1  6  0  0  0
  7  2  1  0  0  0  0
  8  9  2  0  0  0  0
  9 11  1  0  0  0  0
 10 12  1  0  0  0  0
 10 13  2  0  0  0  0
 11  5  2  0  0  0  0
 14  7  1  0  0  0  0
 14 15  2  0  0  0  0
 15  1  1  0  0  0  0
 16  9  1  0  0  0  0
 17 31  1  0  0  0  0
 17 12  2  0  0  0  0
 18 13  1  0  0  0  0
 19  8  1  0  0  0  0
 20 16  2  0  0  0  0
 21 23  1  1  0  0  0
 21 28  1  0  0  0  0
 22 30  2  0  0  0  0
 24 27  1  0  0  0  0
 25 15  1  6  0  0  0
 26 30  1  0  0  0  0
 26 21  1  0  0  0  0
 27 25  1  0  0  0  0
 28 25  1  0  0  0  0
 28 29  1  6  0  0  0
 30 24  1  0  0  0  0
 32 31  1  0  0  0  0
M  END
>  <MODEL>
4

>  <REMARK>
 VINA RESULT:      -7.5      3.369      6.608
  Name = 
  2 active torsions:
  status: ('A' for Active; 'I' for Inactive)
    1  A    between atoms: N_13  and  C_29
    2  A    between atoms: C_16  and  C_27
                            x       y       z     vdW  Elec       q    Type
                         _______ _______ _______ _____ _____    ______ ____

>  <TORSDO>
F 2

$$$$
=
 OpenBabel11062408293D

 32 37  0  0  1  0  0  0  0  0999 V2000
  161.7170  209.2620  149.6730 C   0  0  0  0  0  0  0  0  0  0  0  0
  161.6580  208.4470  152.0200 C   0  0  2  0  0  3  0  0  0  0  0  0
  161.8390  209.0220  148.2980 C   0  0  0  0  0  3  0  0  0  0  0  0
  161.6580  208.1720  150.5560 C   0  0  0  0  0  0  0  0  0  0  0  0
  161.2200  207.2740  152.8500 C   0  0  0  0  0  0  0  0  0  0  0  0
  160.4400  211.3820  155.6830 C   0  0  0  0  0  3  0  0  0  0  0  0
  160.7830  209.6650  152.2930 C   0  0  2  0  0  3  0  0  0  0  0  0
  160.5680  208.9810  156.0090 C   0  0  0  0  0  3  0  0  0  0  0  0
  160.7210  208.7990  154.6320 C   0  0  0  0  0  0  0  0  0  0  0  0
  161.6840  206.8530  150.0820 C   0  0  0  0  0  0  0  0  0  0  0  0
  160.8510  207.4700  154.0860 N   0  0  0  0  0  0  0  0  0  0  0  0
  161.5490  205.7530  151.0010 N   0  0  0  0  0  0  0  0  0  0  0  0
  161.8000  206.6240  148.7070 C   0  0  0  0  0  3  0  0  0  0  0  0
  161.2490  210.8010  151.4880 N   0  0  0  0  0  0  0  0  0  0  0  0
  161.6230  210.6370  150.2430 C   0  0  0  0  0  0  0  0  0  0  0  0
  160.7390  209.9240  153.7730 C   0  0  0  0  0  0  0  0  0  0  0  0
  161.3280  205.9140  152.2780 C   0  0  0  0  0  0  0  0  0  0  0  0
  161.8850  207.7050  147.8200 C   0  0  0  0  0  3  0  0  0  0  0  0
  160.4340  210.2710  156.5340 C   0  0  0  0  0  3  0  0  0  0  0  0
  160.5810  211.2100  154.3030 C   0  0  0  0  0  3  0  0  0  0  0  0
  160.2350  212.5970  147.7950 C   0  0  1  0  0  3  0  0  0  0  0  0
  162.9310  213.6630  145.5240 O   0  0  0  0  0  0  0  0  0  0  0  0
  158.8090  213.1080  147.7920 C   0  0  0  0  0  1  0  0  0  0  0  0
  163.3250  212.5240  147.5690 C   0  0  0  0  0  2  0  0  0  0  0  0
  162.0460  211.8220  149.4320 C   0  0  1  0  0  3  0  0  0  0  0  0
  161.0090  213.3020  146.7740 N   0  0  0  0  0  2  0  0  0  0  0  0
  162.6830  211.3770  148.1910 N   0  0  0  0  0  2  0  0  0  0  0  0
  160.8460  212.7510  149.1920 C   0  0  1  0  0  3  0  0  0  0  0  0
  161.2040  214.0790  149.4440 O   0  0  0  0  0  1  0  0  0  0  0  0
  162.4200  213.1620  146.5580 C   0  0  0  0  0  0  0  0  0  0  0  0
  161.1680  204.7750  153.1260 N   0  0  0  0  0  2  0  0  0  0  0  0
  160.7790  203.6800  152.6710 O   0  0  0  0  0  1  0  0  0  0  0  0
  1 15  1  0  0  0  0
  1  4  1  0  0  0  0
  2  4  1  6  0  0  0
  2  7  1  0  0  0  0
  2  5  1  0  0  0  0
  3  1  2  0  0  0  0
  5 11  2  0  0  0  0
  6 19  1  0  0  0  0
  7 14  1  6  0  0  0
  7 16  1  0  0  0  0
  8 19  2  0  0  0  0
  9  8  1  0  0  0  0
 10  4  2  0  0  0  0
 10 12  1  0  0  0  0
 11  9  1  0  0  0  0
 12 17  2  0  0  0  0
 13 10  1  0  0  0  0
 15 14  2  0  0  0  0
 16 20  1  0  0  0  0
 16  9  2  0  0  0  0
 17  5  1  0  0  0  0
 17 31  1  0  0  0  0
 18  3  1  0  0  0  0
 18 13  2  0  0  0  0
 20  6  2  0  0  0  0
 21 23  1  1  0  0  0
 21 28  1  0  0  0  0
 22 30  2  0  0  0  0
 24 27  1  0  0  0  0
 25 15  1  6  0  0  0
 26 21  1  0  0  0  0
 27 25  1  0  0  0  0
 28 25  1  0  0  0  0
 28 29  1  6  0  0  0
 30 26  1  0  0  0  0
 30 24  1  0  0  0  0
 32 31  1  0  0  0  0
M  END
>  <MODEL>
5

>  <REMARK>
 VINA RESULT:      -7.3      3.613      6.781
  Name = 
  2 active torsions:
  status: ('A' for Active; 'I' for Inactive)
    1  A    between atoms: N_13  and  C_29
    2  A    between atoms: C_16  and  C_27
                            x       y       z     vdW  Elec       q    Type
                         _______ _______ _______ _____ _____    ______ ____

>  <TORSDO>
F 2

$$$$
=
 OpenBabel11062408293D

 32 37  0  0  1  0  0  0  0  0999 V2000
  161.4840  208.9670  151.8890 C   0  0  0  0  0  0  0  0  0  0  0  0
  161.8670  206.9000  150.5620 C   0  0  2  0  0  3  0  0  0  0  0  0
  161.4800  210.3630  152.0040 C   0  0  0  0  0  3  0  0  0  0  0  0
  161.7390  208.3830  150.6380 C   0  0  0  0  0  0  0  0  0  0  0  0
  161.7630  206.3610  149.1640 C   0  0  0  0  0  0  0  0  0  0  0  0
  160.5750  202.5410  152.2480 C   0  0  0  0  0  3  0  0  0  0  0  0
  160.8180  206.2680  151.4700 C   0  0  2  0  0  3  0  0  0  0  0  0
  161.1910  202.8370  149.9190 C   0  0  0  0  0  3  0  0  0  0  0  0
  161.2060  204.2230  150.0960 C   0  0  0  0  0  0  0  0  0  0  0  0
  161.9560  209.1720  149.5000 C   0  0  0  0  0  0  0  0  0  0  0  0
  161.5170  205.0920  148.9870 N   0  0  0  0  0  0  0  0  0  0  0  0
  162.1440  208.5510  148.2150 N   0  0  0  0  0  0  0  0  0  0  0  0
  161.9450  210.5650  149.6230 C   0  0  0  0  0  3  0  0  0  0  0  0
  160.9600  206.7950  152.8330 N   0  0  0  0  0  0  0  0  0  0  0  0
  161.2030  208.0650  153.0430 C   0  0  0  0  0  0  0  0  0  0  0  0
  160.9070  204.7720  151.3650 C   0  0  0  0  0  0  0  0  0  0  0  0
  162.0540  207.2610  148.0270 C   0  0  0  0  0  0  0  0  0  0  0  0
  161.7150  211.1570  150.8720 C   0  0  0  0  0  3  0  0  0  0  0  0
  160.8820  201.9970  150.9950 C   0  0  0  0  0  3  0  0  0  0  0  0
  160.5760  203.9270  152.4310 C   0  0  0  0  0  3  0  0  0  0  0  0
  159.6000  210.4450  154.9230 C   0  0  1  0  0  3  0  0  0  0  0  0
  162.0500  211.8920  157.2600 O   0  0  0  0  0  0  0  0  0  0  0  0
  158.1040  210.6840  154.9330 C   0  0  0  0  0  1  0  0  0  0  0  0
  162.5060  209.9980  155.9030 C   0  0  0  0  0  2  0  0  0  0  0  0
  161.2930  208.5830  154.4450 C   0  0  1  0  0  3  0  0  0  0  0  0
  160.2170  211.1580  156.0400 N   0  0  0  0  0  2  0  0  0  0  0  0
  162.2300  209.7050  154.5050 N   0  0  0  0  0  2  0  0  0  0  0  0
  159.8920  208.9410  154.9650 C   0  0  1  0  0  3  0  0  0  0  0  0
  159.7060  208.4250  156.2510 O   0  0  0  0  0  1  0  0  0  0  0  0
  161.6000  211.0780  156.4130 C   0  0  0  0  0  0  0  0  0  0  0  0
  162.2170  206.7170  146.7160 N   0  0  0  0  0  2  0  0  0  0  0  0
  161.2430  206.2720  146.0740 O   0  0  0  0  0  1  0  0  0  0  0  0
  1  3  1  0  0  0  0
  1 15  1  0  0  0  0
  2  5  1  6  0  0  0
  2  4  1  0  0  0  0
  2  7  1  0  0  0  0
  4  1  2  0  0  0  0
  6 20  1  0  0  0  0
  7 16  1  1  0  0  0
  7 14  1  0  0  0  0
  8  9  2  0  0  0  0
  8 19  1  0  0  0  0
  9 16  1  0  0  0  0
 10 13  2  0  0  0  0
 10  4  1  0  0  0  0
 11  5  2  0  0  0  0
 11  9  1  0  0  0  0
 12 10  1  0  0  0  0
 13 18  1  0  0  0  0
 14 15  2  0  0  0  0
 16 20  2  0  0  0  0
 17 12  2  0  0  0  0
 17  5  1  0  0  0  0
 18  3  2  0  0  0  0
 19  6  2  0  0  0  0
 21 23  1  1  0  0  0
 21 28  1  0  0  0  0
 21 26  1  0  0  0  0
 24 30  1  0  0  0  0
 25 15  1  6  0  0  0
 25 27  1  0  0  0  0
 25 28  1  0  0  0  0
 26 30  1  0  0  0  0
 27 24  1  0  0  0  0
 28 29  1  1  0  0  0
 30 22  2  0  0  0  0
 31 17  1  0  0  0  0
 32 31  1  0  0  0  0
M  END
>  <MODEL>
6

>  <REMARK>
 VINA RESULT:      -7.3      2.353      8.586
  Name = 
  2 active torsions:
  status: ('A' for Active; 'I' for Inactive)
    1  A    between atoms: N_13  and  C_29
    2  A    between atoms: C_16  and  C_27
                            x       y       z     vdW  Elec       q    Type
                         _______ _______ _______ _____ _____    ______ ____

>  <TORSDO>
F 2

$$$$
=
 OpenBabel11062408293D

 32 37  0  0  1  0  0  0  0  0999 V2000
  160.8440  208.8810  152.9790 C   0  0  0  0  0  0  0  0  0  0  0  0
  161.1350  209.2750  150.5420 C   0  0  2  0  0  3  0  0  0  0  0  0
  160.8040  208.0180  154.0820 C   0  0  0  0  0  3  0  0  0  0  0  0
  161.2210  208.3730  151.7260 C   0  0  0  0  0  0  0  0  0  0  0  0
  161.8980  208.7730  149.3500 C   0  0  0  0  0  0  0  0  0  0  0  0
  161.4130  213.7610  148.7250 C   0  0  0  0  0  3  0  0  0  0  0  0
  161.6070  210.6660  150.9470 C   0  0  2  0  0  3  0  0  0  0  0  0
  162.0040  211.8360  147.3700 C   0  0  0  0  0  3  0  0  0  0  0  0
  161.9160  211.0130  148.4960 C   0  0  0  0  0  0  0  0  0  0  0  0
  161.5900  207.0300  151.5690 C   0  0  0  0  0  0  0  0  0  0  0  0
  162.1890  209.6010  148.3840 N   0  0  0  0  0  0  0  0  0  0  0  0
  162.0430  206.5500  150.2890 N   0  0  0  0  0  0  0  0  0  0  0  0
  161.5510  206.1770  152.6760 C   0  0  0  0  0  3  0  0  0  0  0  0
  160.8270  211.1400  152.0970 N   0  0  0  0  0  0  0  0  0  0  0  0
  160.5230  210.3330  153.0840 C   0  0  0  0  0  0  0  0  0  0  0  0
  161.5670  211.5720  149.7490 C   0  0  0  0  0  0  0  0  0  0  0  0
  162.2020  207.3290  149.2520 C   0  0  0  0  0  0  0  0  0  0  0  0
  161.1520  206.6690  153.9270 C   0  0  0  0  0  3  0  0  0  0  0  0
  161.7460  213.2070  147.4830 C   0  0  0  0  0  3  0  0  0  0  0  0
  161.3340  212.9480  149.8590 C   0  0  0  0  0  3  0  0  0  0  0  0
  158.4980  213.0190  153.7520 C   0  0  1  0  0  3  0  0  0  0  0  0
  159.0560  214.0250  157.2500 O   0  0  0  0  0  0  0  0  0  0  0  0
  157.4120  213.5420  152.8330 C   0  0  0  0  0  1  0  0  0  0  0  0
  159.9650  212.0480  156.3020 C   0  0  0  0  0  2  0  0  0  0  0  0
  159.7700  210.8570  154.2670 C   0  0  1  0  0  3  0  0  0  0  0  0
  158.3540  213.6280  155.0740 N   0  0  0  0  0  2  0  0  0  0  0  0
  160.6130  211.7800  155.0280 N   0  0  0  0  0  2  0  0  0  0  0  0
  158.4450  211.4890  153.8100 C   0  0  1  0  0  3  0  0  0  0  0  0
  157.3940  211.0500  154.6210 O   0  0  0  0  0  1  0  0  0  0  0  0
  159.1340  213.2930  156.2300 C   0  0  0  0  0  0  0  0  0  0  0  0
  162.6900  206.7900  148.0220 N   0  0  0  0  0  2  0  0  0  0  0  0
  162.0070  205.9900  147.3490 O   0  0  0  0  0  1  0  0  0  0  0  0
  1 15  1  0  0  0  0
  1  3  1  0  0  0  0
  2  5  1  6  0  0  0
  2  7  1  0  0  0  0
  2  4  1  0  0  0  0
  4  1  2  0  0  0  0
  6 20  1  0  0  0  0
  7 16  1  6  0  0  0
  7 14  1  0  0  0  0
  8 19  1  0  0  0  0
  8  9  2  0  0  0  0
  9 16  1  0  0  0  0
 10  4  1  0  0  0  0
 10 13  2  0  0  0  0
 11  9  1  0  0  0  0
 11  5  2  0  0  0  0
 12 10  1  0  0  0  0
 13 18  1  0  0  0  0
 14 15  2  0  0  0  0
 16 20  2  0  0  0  0
 17  5  1  0  0  0  0
 17 12  2  0  0  0  0
 18  3  2  0  0  0  0
 19  6  2  0  0  0  0
 21 23  1  6  0  0  0
 21 28  1  0  0  0  0
 21 26  1  0  0  0  0
 25 15  1  6  0  0  0
 25 27  1  0  0  0  0
 26 30  1  0  0  0  0
 27 24  1  0  0  0  0
 28 25  1  0  0  0  0
 28 29  1  1  0  0  0
 30 24  1  0  0  0  0
 30 22  2  0  0  0  0
 31 17  1  0  0  0  0
 32 31  1  0  0  0  0
M  END
>  <MODEL>
7

>  <REMARK>
 VINA RESULT:      -7.1      3.436      8.301
  Name = 
  2 active torsions:
  status: ('A' for Active; 'I' for Inactive)
    1  A    between atoms: N_13  and  C_29
    2  A    between atoms: C_16  and  C_27
                            x       y       z     vdW  Elec       q    Type
                         _______ _______ _______ _____ _____    ______ ____

>  <TORSDO>
F 2

$$$$
