=
 OpenBabel11052421513D

 30 37  0  0  1  0  0  0  0  0999 V2000
  161.4910  208.0000  154.0650 C   0  0  2  0  0  3  0  0  0  0  0  0
  160.4720  208.2360  156.4010 C   0  0  1  0  0  3  0  0  0  0  0  0
  160.2560  212.2970  153.7600 C   0  0  0  0  0  2  0  0  0  0  0  0
  161.5260  208.4070  152.5760 C   0  0  1  0  0  3  0  0  0  0  0  0
  161.1640  206.2020  154.2040 S   0  0  0  0  0  0  0  0  0  0  0  0
  160.6480  205.6620  149.7930 C   0  0  0  0  0  2  0  0  0  0  0  0
  161.8340  209.7890  149.8810 C   0  0  2  0  0  0  0  0  0  0  0  0
  160.9530  207.0720  150.3320 C   0  0  1  0  0  3  0  0  0  0  0  0
  161.1180  204.6400  151.9940 C   0  0  0  0  0  2  0  0  0  0  0  0
  160.6350  210.0130  150.7470 N   0  0  1  0  0  0  0  0  0  0  0  0
  160.0050  211.7690  152.3530 C   0  0  1  0  0  3  0  0  0  0  0  0
  161.8230  205.8710  152.5480 C   0  0  1  0  0  3  0  0  0  0  0  0
  161.5660  207.1360  151.7370 C   0  0  2  0  0  0  0  0  0  0  0  0
  161.7370  208.3930  157.2610 C   0  0  0  0  0  2  0  0  0  0  0  0
  162.6510  211.3670  149.4470 S   0  0  0  0  0  0  0  0  0  0  0  0
  161.3710  209.5060  148.4620 C   0  0  0  0  0  2  0  0  0  0  0  0
  160.8320  203.2000  150.0050 C   0  0  0  0  0  1  0  0  0  0  0  0
  159.0550  208.8920  157.2610 Cl  0  0  0  0  0  0  0  0  0  0  0  0
  159.9080  211.2600  154.8160 C   0  0  0  0  0  2  0  0  0  0  0  0
  162.6590  209.5280  156.8080 C   0  0  0  0  0  2  0  0  0  0  0  0
  161.3680  204.5240  150.5070 C   0  0  1  0  0  3  0  0  0  0  0  0
  160.5910  208.8480  154.9900 C   0  0  1  0  0  3  0  0  0  0  0  0
  160.4570  209.3930  152.1000 C   0  0  2  0  0  3  0  0  0  0  0  0
  160.0670  212.9310  151.3800 C   0  0  0  0  0  1  0  0  0  0  0  0
  161.0460  210.7230  151.9760 C   0  0  1  0  0  3  0  0  0  0  0  0
  161.9660  210.7690  147.8780 C   0  0  0  0  0  2  0  0  0  0  0  0
  162.9030  208.7550  150.3010 C   0  0  0  0  0  2  0  0  0  0  0  0
  161.8440  210.7040  156.2940 C   0  0  0  0  0  2  0  0  0  0  0  0
  161.0760  210.3120  155.0290 C   0  0  2  0  0  3  0  0  0  0  0  0
  162.4550  207.2890  150.5020 C   0  0  2  0  0  3  0  0  0  0  0  0
  1  5  1  6  0  0  0
  1 22  1  0  0  0  0
  2 18  1  1  0  0  0
  2 14  1  0  0  0  0
  3 19  1  0  0  0  0
  4  1  1  0  0  0  0
  6  8  1  0  0  0  0
  6 21  1  0  0  0  0
  7 27  1  0  0  0  0
  7 10  1  0  0  0  0
  8 30  1  0  0  0  0
  8 13  1  0  0  0  0
  9 12  1  0  0  0  0
 10 25  1  0  0  0  0
 10 23  1  0  0  0  0
 11  3  1  0  0  0  0
 12  5  1  0  0  0  0
 13 12  1  0  0  0  0
 13  4  1  0  0  0  0
 15  7  1  0  0  0  0
 16  7  1  0  0  0  0
 17 21  1  0  0  0  0
 19 29  1  0  0  0  0
 20 14  1  0  0  0  0
 21  9  1  0  0  0  0
 22 29  1  0  0  0  0
 22  2  1  0  0  0  0
 23  4  1  0  0  0  0
 24 11  1  0  0  0  0
 25 23  1  0  0  0  0
 25 11  1  0  0  0  0
 26 16  1  0  0  0  0
 26 15  1  0  0  0  0
 27 30  1  0  0  0  0
 28 20  1  0  0  0  0
 29 28  1  0  0  0  0
 30 13  1  0  0  0  0
M  END
>  <MODEL>
1

>  <REMARK>
 VINA RESULT:      -3.2      0.000      0.000
  Name = 
  0 active torsions:
  status: ('A' for Active; 'I' for Inactive)
                            x       y       z     vdW  Elec       q    Type
                         _______ _______ _______ _____ _____    ______ ____

>  <TORSDO>
F 0

$$$$
=
 OpenBabel11052421513D

 30 37  0  0  1  0  0  0  0  0999 V2000
  160.0800  210.9820  154.5530 C   0  0  2  0  0  3  0  0  0  0  0  0
  158.3350  211.7600  156.2550 C   0  0  1  0  0  3  0  0  0  0  0  0
  158.4650  214.4530  152.2240 C   0  0  0  0  0  2  0  0  0  0  0  0
  160.5440  210.8370  153.0880 C   0  0  1  0  0  3  0  0  0  0  0  0
  159.9620  209.3240  155.3270 S   0  0  0  0  0  0  0  0  0  0  0  0
  160.9850  207.1670  151.5450 C   0  0  0  0  0  2  0  0  0  0  0  0
  161.5310  211.2190  150.2330 C   0  0  2  0  0  0  0  0  0  0  0  0
  160.9120  208.7050  151.5190 C   0  0  1  0  0  3  0  0  0  0  0  0
  160.8410  207.1290  154.0120 C   0  0  0  0  0  2  0  0  0  0  0  0
  160.0980  211.4290  150.6040 N   0  0  1  0  0  0  0  0  0  0  0  0
  158.7570  213.4210  151.1410 C   0  0  1  0  0  3  0  0  0  0  0  0
  161.1610  208.6090  154.1710 C   0  0  1  0  0  3  0  0  0  0  0  0
  161.0200  209.4050  152.8800 C   0  0  2  0  0  0  0  0  0  0  0  0
  159.2190  212.5160  157.2610 C   0  0  0  0  0  2  0  0  0  0  0  0
  162.2330  212.6950  149.4120 S   0  0  0  0  0  0  0  0  0  0  0  0
  161.5970  210.3530  148.9860 C   0  0  0  0  0  2  0  0  0  0  0  0
  161.4070  205.0610  152.7810 C   0  0  0  0  0  1  0  0  0  0  0  0
  156.6420  212.3040  156.3900 Cl  0  0  0  0  0  0  0  0  0  0  0  0
  157.9300  213.8000  153.4880 C   0  0  0  0  0  2  0  0  0  0  0  0
  160.0820  213.6100  156.6290 C   0  0  0  0  0  2  0  0  0  0  0  0
  161.5750  206.5650  152.8150 C   0  0  1  0  0  3  0  0  0  0  0  0
  158.8250  211.8490  154.7960 C   0  0  1  0  0  3  0  0  0  0  0  0
  159.5710  211.2980  152.0010 C   0  0  2  0  0  3  0  0  0  0  0  0
  158.9810  214.1470  149.8280 C   0  0  0  0  0  1  0  0  0  0  0  0
  159.9900  212.6010  151.4970 C   0  0  1  0  0  3  0  0  0  0  0  0
  162.1800  211.4360  148.1070 C   0  0  0  0  0  2  0  0  0  0  0  0
  162.5300  210.6960  151.2900 C   0  0  0  0  0  2  0  0  0  0  0  0
  159.3340  214.2920  155.4950 C   0  0  0  0  0  2  0  0  0  0  0  0
  159.0770  213.3060  154.3530 C   0  0  2  0  0  3  0  0  0  0  0  0
  162.2360  209.3300  151.9530 C   0  0  2  0  0  3  0  0  0  0  0  0
  1 22  1  0  0  0  0
  1  5  1  6  0  0  0
  2 18  1  6  0  0  0
  2 14  1  0  0  0  0
  3 19  1  0  0  0  0
  4  1  1  0  0  0  0
  6 21  1  0  0  0  0
  7 10  1  0  0  0  0
  7 27  1  0  0  0  0
  8  6  1  0  0  0  0
  8 30  1  0  0  0  0
  8 13  1  0  0  0  0
  9 12  1  0  0  0  0
 10 25  1  0  0  0  0
 10 23  1  0  0  0  0
 11 25  1  0  0  0  0
 11  3  1  0  0  0  0
 12  5  1  0  0  0  0
 13  4  1  0  0  0  0
 13 12  1  0  0  0  0
 15  7  1  0  0  0  0
 16  7  1  0  0  0  0
 17 21  1  0  0  0  0
 19 29  1  0  0  0  0
 20 14  1  0  0  0  0
 21  9  1  0  0  0  0
 22  2  1  0  0  0  0
 23  4  1  0  0  0  0
 24 11  1  0  0  0  0
 25 23  1  0  0  0  0
 26 16  1  0  0  0  0
 26 15  1  0  0  0  0
 27 30  1  0  0  0  0
 28 20  1  0  0  0  0
 29 22  1  0  0  0  0
 29 28  1  0  0  0  0
 30 13  1  0  0  0  0
M  END
>  <MODEL>
2

>  <REMARK>
 VINA RESULT:      -3.1      1.934      3.044
  Name = 
  0 active torsions:
  status: ('A' for Active; 'I' for Inactive)
                            x       y       z     vdW  Elec       q    Type
                         _______ _______ _______ _____ _____    ______ ____

>  <TORSDO>
F 0

$$$$
=
 OpenBabel11052421513D

 30 37  0  0  1  0  0  0  0  0999 V2000
  159.3500  211.7670  153.2430 C   0  0  2  0  0  3  0  0  0  0  0  0
  158.7060  213.6410  154.8620 C   0  0  1  0  0  3  0  0  0  0  0  0
  160.0820  209.5470  157.0660 C   0  0  0  0  0  2  0  0  0  0  0  0
  160.1890  210.5120  152.9180 C   0  0  1  0  0  3  0  0  0  0  0  0
  159.7020  213.0770  152.0100 S   0  0  0  0  0  0  0  0  0  0  0  0
  162.8460  210.6740  149.9250 C   0  0  0  0  0  2  0  0  0  0  0  0
  161.4510  207.7470  152.7400 C   0  0  2  0  0  0  0  0  0  0  0  0
  162.1380  210.0600  151.1470 C   0  0  1  0  0  3  0  0  0  0  0  0
  161.2380  212.5490  149.8450 C   0  0  0  0  0  2  0  0  0  0  0  0
  161.8440  208.7240  153.8020 N   0  0  1  0  0  0  0  0  0  0  0  0
  161.1890  209.0310  156.1540 C   0  0  1  0  0  3  0  0  0  0  0  0
  160.2240  211.8740  150.7590 C   0  0  1  0  0  3  0  0  0  0  0  0
  160.7940  210.6910  151.5310 C   0  0  2  0  0  0  0  0  0  0  0  0
  157.1710  213.5630  154.8100 C   0  0  0  0  0  2  0  0  0  0  0  0
  160.9150  206.1540  153.4610 S   0  0  0  0  0  0  0  0  0  0  0  0
  162.7070  207.1700  152.1100 C   0  0  0  0  0  2  0  0  0  0  0  0
  162.8160  212.2040  147.9750 C   0  0  0  0  0  1  0  0  0  0  0  0
  159.2330  214.4530  156.3590 Cl  0  0  0  0  0  0  0  0  0  0  0  0
  159.8160  211.0270  156.8390 C   0  0  0  0  0  2  0  0  0  0  0  0
  156.6100  212.1750  155.1250 C   0  0  0  0  0  2  0  0  0  0  0  0
  161.9580  211.5120  149.0120 C   0  0  1  0  0  3  0  0  0  0  0  0
  159.4110  212.2800  154.6980 C   0  0  1  0  0  3  0  0  0  0  0  0
  161.2220  210.0780  153.9600 C   0  0  2  0  0  3  0  0  0  0  0  0
  161.6170  207.6590  156.6400 C   0  0  0  0  0  1  0  0  0  0  0  0
  160.7020  208.9420  154.7140 C   0  0  1  0  0  3  0  0  0  0  0  0
  162.4690  205.7630  152.6110 C   0  0  0  0  0  2  0  0  0  0  0  0
  160.4560  208.1720  151.6360 C   0  0  0  0  0  2  0  0  0  0  0  0
  157.4470  211.4900  156.1930 C   0  0  0  0  0  2  0  0  0  0  0  0
  158.8610  211.2170  155.6730 C   0  0  2  0  0  3  0  0  0  0  0  0
  160.8310  209.3790  150.7460 C   0  0  2  0  0  3  0  0  0  0  0  0
  1  5  1  6  0  0  0
  1 22  1  0  0  0  0
  2 18  1  1  0  0  0
  4  1  1  0  0  0  0
  4 23  1  0  0  0  0
  6  8  1  0  0  0  0
  7 15  1  0  0  0  0
  7 10  1  0  0  0  0
  8 13  1  0  0  0  0
  9 12  1  0  0  0  0
 10 23  1  0  0  0  0
 10 25  1  0  0  0  0
 11 24  1  0  0  0  0
 11  3  1  0  0  0  0
 12 13  1  0  0  0  0
 12  5  1  0  0  0  0
 13  4  1  0  0  0  0
 14  2  1  0  0  0  0
 14 20  1  0  0  0  0
 16 26  1  0  0  0  0
 16  7  1  0  0  0  0
 17 21  1  0  0  0  0
 19  3  1  0  0  0  0
 20 28  1  0  0  0  0
 21  9  1  0  0  0  0
 21  6  1  0  0  0  0
 22  2  1  0  0  0  0
 22 29  1  0  0  0  0
 23 25  1  0  0  0  0
 25 11  1  0  0  0  0
 26 15  1  0  0  0  0
 27  7  1  0  0  0  0
 29 28  1  0  0  0  0
 29 19  1  0  0  0  0
 30  8  1  0  0  0  0
 30 13  1  0  0  0  0
 30 27  1  0  0  0  0
M  END
>  <MODEL>
3

>  <REMARK>
 VINA RESULT:      -2.2      2.142      5.365
  Name = 
  0 active torsions:
  status: ('A' for Active; 'I' for Inactive)
                            x       y       z     vdW  Elec       q    Type
                         _______ _______ _______ _____ _____    ______ ____

>  <TORSDO>
F 0

$$$$
=
 OpenBabel11052421513D

 30 37  0  0  1  0  0  0  0  0999 V2000
  161.6270  209.7190  152.7970 C   0  0  2  0  0  3  0  0  0  0  0  0
  160.7250  208.9360  155.0590 C   0  0  1  0  0  3  0  0  0  0  0  0
  159.0430  213.2710  153.6840 C   0  0  0  0  0  2  0  0  0  0  0  0
  161.4410  210.5180  151.4890 C   0  0  1  0  0  3  0  0  0  0  0  0
  161.9130  207.9520  152.4020 S   0  0  0  0  0  0  0  0  0  0  0  0
  161.3480  208.5440  148.0050 C   0  0  0  0  0  2  0  0  0  0  0  0
  161.1250  212.6270  149.3160 C   0  0  2  0  0  0  0  0  0  0  0  0
  161.2060  209.7620  148.9360 C   0  0  1  0  0  3  0  0  0  0  0  0
  162.2510  207.1550  149.8380 C   0  0  0  0  0  2  0  0  0  0  0  0
  159.9720  212.1900  150.1620 N   0  0  1  0  0  0  0  0  0  0  0  0
  158.8970  213.1100  152.1750 C   0  0  1  0  0  3  0  0  0  0  0  0
  162.5470  208.3390  150.7480 C   0  0  1  0  0  3  0  0  0  0  0  0
  161.8460  209.6230  150.3240 C   0  0  2  0  0  0  0  0  0  0  0  0
  161.9170  209.2500  155.9790 C   0  0  0  0  0  2  0  0  0  0  0  0
  161.3570  214.4400  149.3850 S   0  0  0  0  0  0  0  0  0  0  0  0
  160.6990  212.6220  147.8580 C   0  0  0  0  0  2  0  0  0  0  0  0
  162.3360  206.3260  147.5110 C   0  0  0  0  0  1  0  0  0  0  0  0
  159.2230  208.8180  156.0140 Cl  0  0  0  0  0  0  0  0  0  0  0  0
  159.1140  211.9230  154.3840 C   0  0  0  0  0  2  0  0  0  0  0  0
  162.3900  210.7030  155.9060 C   0  0  0  0  0  2  0  0  0  0  0  0
  162.4390  207.5530  148.3910 C   0  0  1  0  0  3  0  0  0  0  0  0
  160.5550  209.9250  153.8890 C   0  0  1  0  0  3  0  0  0  0  0  0
  160.0840  211.1900  151.2720 C   0  0  2  0  0  3  0  0  0  0  0  0
  158.5210  214.4530  151.5790 C   0  0  0  0  0  1  0  0  0  0  0  0
  160.1990  212.6170  151.5580 C   0  0  1  0  0  3  0  0  0  0  0  0
  160.8150  214.1200  147.6840 C   0  0  0  0  0  2  0  0  0  0  0  0
  162.4950  211.9280  149.4650 C   0  0  0  0  0  2  0  0  0  0  0  0
  161.2080  211.6410  155.7180 C   0  0  0  0  0  2  0  0  0  0  0  0
  160.5380  211.3930  154.3640 C   0  0  2  0  0  3  0  0  0  0  0  0
  162.5630  210.4030  149.2210 C   0  0  2  0  0  3  0  0  0  0  0  0
  1  5  1  6  0  0  0
  1 22  1  0  0  0  0
  2 14  1  0  0  0  0
  2 18  1  1  0  0  0
  3 19  1  0  0  0  0
  4  1  1  0  0  0  0
  6 21  1  0  0  0  0
  6  8  1  0  0  0  0
  7 15  1  0  0  0  0
  7 27  1  0  0  0  0
  7 10  1  0  0  0  0
  8 30  1  0  0  0  0
  8 13  1  0  0  0  0
  9 12  1  0  0  0  0
 10 23  1  0  0  0  0
 10 25  1  0  0  0  0
 11  3  1  0  0  0  0
 12  5  1  0  0  0  0
 13 12  1  0  0  0  0
 13  4  1  0  0  0  0
 16  7  1  0  0  0  0
 17 21  1  0  0  0  0
 20 14  1  0  0  0  0
 21  9  1  0  0  0  0
 22 29  1  0  0  0  0
 22  2  1  0  0  0  0
 23  4  1  0  0  0  0
 23 25  1  0  0  0  0
 24 11  1  0  0  0  0
 25 11  1  0  0  0  0
 26 16  1  0  0  0  0
 26 15  1  0  0  0  0
 28 20  1  0  0  0  0
 29 19  1  0  0  0  0
 29 28  1  0  0  0  0
 30 27  1  0  0  0  0
 30 13  1  0  0  0  0
M  END
>  <MODEL>
4

>  <REMARK>
 VINA RESULT:      -1.7      1.868      2.628
  Name = 
  0 active torsions:
  status: ('A' for Active; 'I' for Inactive)
                            x       y       z     vdW  Elec       q    Type
                         _______ _______ _______ _____ _____    ______ ____

>  <TORSDO>
F 0

$$$$
=
 OpenBabel11052421513D

 30 37  0  0  1  0  0  0  0  0999 V2000
  160.7330  208.2940  152.2800 C   0  0  2  0  0  3  0  0  0  0  0  0
  162.1920  206.1970  152.1180 C   0  0  1  0  0  3  0  0  0  0  0  0
  162.4700  209.0740  148.2240 C   0  0  0  0  0  2  0  0  0  0  0  0
  160.4780  209.7740  151.9230 C   0  0  1  0  0  3  0  0  0  0  0  0
  160.8300  208.1080  154.1020 S   0  0  0  0  0  0  0  0  0  0  0  0
  160.4350  212.4980  154.8600 C   0  0  0  0  0  2  0  0  0  0  0  0
  159.8670  212.4480  150.6030 C   0  0  2  0  0  0  0  0  0  0  0  0
  160.4330  211.9990  153.4030 C   0  0  1  0  0  3  0  0  0  0  0  0
  160.2470  210.1910  155.7270 C   0  0  0  0  0  2  0  0  0  0  0  0
  161.2250  211.8260  150.5280 N   0  0  1  0  0  0  0  0  0  0  0  0
  162.3790  210.4690  148.8310 C   0  0  1  0  0  3  0  0  0  0  0  0
  159.8340  209.5960  154.3880 C   0  0  1  0  0  3  0  0  0  0  0  0
  160.1070  210.5130  153.2030 C   0  0  2  0  0  0  0  0  0  0  0  0
  161.1430  205.1350  151.7470 C   0  0  0  0  0  2  0  0  0  0  0  0
  159.2080  212.8220  148.9380 S   0  0  0  0  0  0  0  0  0  0  0  0
  160.0130  213.9080  150.9990 C   0  0  0  0  0  2  0  0  0  0  0  0
  159.9560  212.1090  157.2600 C   0  0  0  0  0  1  0  0  0  0  0  0
  163.8210  205.6470  151.6470 Cl  0  0  0  0  0  0  0  0  0  0  0  0
  162.8620  208.0370  149.2640 C   0  0  0  0  0  2  0  0  0  0  0  0
  160.3190  205.4830  150.5060 C   0  0  0  0  0  2  0  0  0  0  0  0
  159.7110  211.6000  155.8560 C   0  0  1  0  0  3  0  0  0  0  0  0
  161.8980  207.5970  151.5430 C   0  0  1  0  0  3  0  0  0  0  0  0
  161.5650  210.4930  151.1210 C   0  0  2  0  0  3  0  0  0  0  0  0
  162.2980  211.4820  147.7050 C   0  0  0  0  0  1  0  0  0  0  0  0
  161.1520  210.5880  149.7250 C   0  0  1  0  0  3  0  0  0  0  0  0
  159.5000  214.4500  149.6830 C   0  0  0  0  0  2  0  0  0  0  0  0
  158.7620  211.7820  151.4550 C   0  0  0  0  0  2  0  0  0  0  0  0
  161.1780  206.2040  149.4800 C   0  0  0  0  0  2  0  0  0  0  0  0
  161.6350  207.5610  150.0230 C   0  0  2  0  0  3  0  0  0  0  0  0
  159.0330  211.5760  152.9630 C   0  0  2  0  0  3  0  0  0  0  0  0
  1  5  1  1  0  0  0
  2 18  1  6  0  0  0
  3 11  1  0  0  0  0
  3 19  1  0  0  0  0
  4  1  1  0  0  0  0
  4 13  1  0  0  0  0
  5 12  1  0  0  0  0
  6 21  1  0  0  0  0
  7 16  1  0  0  0  0
  7 27  1  0  0  0  0
  8  6  1  0  0  0  0
  9 21  1  0  0  0  0
 10  7  1  0  0  0  0
 10 23  1  0  0  0  0
 11 25  1  0  0  0  0
 12  9  1  0  0  0  0
 13  8  1  0  0  0  0
 13 12  1  0  0  0  0
 14  2  1  0  0  0  0
 15 26  1  0  0  0  0
 15  7  1  0  0  0  0
 19 29  1  0  0  0  0
 20 14  1  0  0  0  0
 21 17  1  0  0  0  0
 22  2  1  0  0  0  0
 22  1  1  0  0  0  0
 23  4  1  0  0  0  0
 24 11  1  0  0  0  0
 25 10  1  0  0  0  0
 25 23  1  0  0  0  0
 26 16  1  0  0  0  0
 27 30  1  0  0  0  0
 28 29  1  0  0  0  0
 28 20  1  0  0  0  0
 29 22  1  0  0  0  0
 30 13  1  0  0  0  0
 30  8  1  0  0  0  0
M  END
>  <MODEL>
5

>  <REMARK>
 VINA RESULT:      -0.5      2.140      5.804
  Name = 
  0 active torsions:
  status: ('A' for Active; 'I' for Inactive)
                            x       y       z     vdW  Elec       q    Type
                         _______ _______ _______ _____ _____    ______ ____

>  <TORSDO>
F 0

$$$$
=
 OpenBabel11052421513D

 30 37  0  0  1  0  0  0  0  0999 V2000
  160.2320  211.6080  153.3570 C   0  0  2  0  0  3  0  0  0  0  0  0
  161.6750  209.6120  154.0530 C   0  0  1  0  0  3  0  0  0  0  0  0
  157.5560  210.0170  156.5810 C   0  0  0  0  0  2  0  0  0  0  0  0
  158.8410  212.2570  153.1930 C   0  0  1  0  0  3  0  0  0  0  0  0
  161.0700  211.5290  151.7290 S   0  0  0  0  0  0  0  0  0  0  0  0
  157.5490  213.1740  149.5140 C   0  0  0  0  0  2  0  0  0  0  0  0
  156.1070  213.5510  153.5420 C   0  0  2  0  0  0  0  0  0  0  0  0
  157.4370  212.9820  151.0380 C   0  0  1  0  0  3  0  0  0  0  0  0
  159.9810  212.7340  149.5650 C   0  0  0  0  0  2  0  0  0  0  0  0
  156.2960  212.0710  153.6430 N   0  0  1  0  0  0  0  0  0  0  0  0
  156.5690  210.5200  155.5340 C   0  0  1  0  0  3  0  0  0  0  0  0
  160.1020  212.9130  151.0720 C   0  0  1  0  0  3  0  0  0  0  0  0
  158.7640  212.8680  151.7990 C   0  0  2  0  0  0  0  0  0  0  0  0
  162.7390  210.3040  154.9220 C   0  0  0  0  0  2  0  0  0  0  0  0
  155.3010  214.2280  155.0370 S   0  0  0  0  0  0  0  0  0  0  0  0
  154.9230  213.8360  152.6340 C   0  0  0  0  0  2  0  0  0  0  0  0
  158.9320  213.6090  147.5040 C   0  0  0  0  0  1  0  0  0  0  0  0
  161.5820  207.8780  154.4560 Cl  0  0  0  0  0  0  0  0  0  0  0  0
  158.7800  209.3860  155.9360 C   0  0  0  0  0  2  0  0  0  0  0  0
  162.1590  211.1480  156.0590 C   0  0  0  0  0  2  0  0  0  0  0  0
  158.9090  213.6500  149.0170 C   0  0  1  0  0  3  0  0  0  0  0  0
  160.2810  210.2680  154.1240 C   0  0  1  0  0  3  0  0  0  0  0  0
  157.6250  211.3900  153.5250 C   0  0  2  0  0  3  0  0  0  0  0  0
  155.2570  210.8430  156.2230 C   0  0  0  0  0  1  0  0  0  0  0  0
  157.1090  211.7620  154.8380 C   0  0  1  0  0  3  0  0  0  0  0  0
  154.0650  214.4340  153.7260 C   0  0  0  0  0  2  0  0  0  0  0  0
  157.3000  214.4520  153.1480 C   0  0  0  0  0  2  0  0  0  0  0  0
  160.9110  210.4910  156.6280 C   0  0  0  0  0  2  0  0  0  0  0  0
  159.7980  210.4550  155.5780 C   0  0  2  0  0  3  0  0  0  0  0  0
  157.9920  214.1890  151.7910 C   0  0  2  0  0  3  0  0  0  0  0  0
  1  5  1  6  0  0  0
  1 22  1  0  0  0  0
  2 22  1  0  0  0  0
  2 18  1  1  0  0  0
  2 14  1  0  0  0  0
  4  1  1  0  0  0  0
  4 23  1  0  0  0  0
  6  8  1  0  0  0  0
  7 10  1  0  0  0  0
  7 15  1  0  0  0  0
  8 30  1  0  0  0  0
  8 13  1  0  0  0  0
  9 12  1  0  0  0  0
 10 25  1  0  0  0  0
 11 24  1  0  0  0  0
 11  3  1  0  0  0  0
 12  5  1  0  0  0  0
 12 13  1  0  0  0  0
 13  4  1  0  0  0  0
 14 20  1  0  0  0  0
 16  7  1  0  0  0  0
 16 26  1  0  0  0  0
 17 21  1  0  0  0  0
 19  3  1  0  0  0  0
 20 28  1  0  0  0  0
 21  6  1  0  0  0  0
 21  9  1  0  0  0  0
 22 29  1  0  0  0  0
 23 10  1  0  0  0  0
 23 25  1  0  0  0  0
 25 11  1  0  0  0  0
 26 15  1  0  0  0  0
 27  7  1  0  0  0  0
 29 19  1  0  0  0  0
 29 28  1  0  0  0  0
 30 13  1  0  0  0  0
 30 27  1  0  0  0  0
M  END
>  <MODEL>
6

>  <REMARK>
 VINA RESULT:      -0.4      3.675      6.484
  Name = 
  0 active torsions:
  status: ('A' for Active; 'I' for Inactive)
                            x       y       z     vdW  Elec       q    Type
                         _______ _______ _______ _____ _____    ______ ____

>  <TORSDO>
F 0

$$$$
