=
 OpenBabel11062408363D

 55 59  0  0  1  0  0  0  0  0999 V2000
  162.1590  209.4230  150.6140 C   0  0  0  0  0  2  0  0  0  0  0  0
  160.1210  205.2130  152.8170 C   0  0  0  0  0  2  0  0  0  0  0  0
  159.7230  207.5000  154.8710 C   0  0  0  0  0  1  0  0  0  0  0  0
  161.4090  210.1710  156.0750 C   0  0  0  0  0  2  0  0  0  0  0  0
  160.8340  210.9380  157.2600 C   0  0  0  0  0  2  0  0  0  0  0  0
  160.4500  212.0230  154.6350 C   0  0  0  0  0  0  0  0  0  0  0  0
  160.2330  212.8900  155.8440 C   0  0  0  0  0  2  0  0  0  0  0  0
  161.5240  208.4760  153.7130 C   0  0  0  0  0  2  0  0  0  0  0  0
  161.0500  212.4280  157.0470 C   0  0  0  0  0  2  0  0  0  0  0  0
  161.6230  209.2470  148.1590 C   0  0  0  0  0  2  0  0  0  0  0  0
  160.9180  210.6960  154.7450 C   0  0  0  0  0  0  0  0  0  0  0  0
  161.7300  206.3050  148.3500 C   0  0  1  0  0  3  0  0  0  0  0  0
  160.7210  209.5520  151.1080 C   0  0  0  0  0  2  0  0  0  0  0  0
  161.6320  207.1820  149.5980 C   0  0  0  0  0  2  0  0  0  0  0  0
  160.1830  211.7570  152.2310 C   0  0  0  0  0  0  0  0  0  0  0  0
  160.4680  205.0420  151.4110 N   0  0  0  0  0  0  0  0  0  0  0  0
  160.0740  212.5250  153.3950 C   0  0  0  0  0  3  0  0  0  0  0  0
  161.0690  206.2040  153.4780 C   0  0  0  0  0  2  0  0  0  0  0  0
  160.4370  207.5100  153.6010 N   0  0  0  0  0  0  0  0  0  0  0  0
  161.7580  208.3680  146.9200 C   0  0  0  0  0  2  0  0  0  0  0  0
  161.4240  204.2670  150.9810 C   0  0  0  0  0  0  0  0  0  0  0  0
  162.2620  208.5550  149.3630 C   0  0  2  0  0  3  0  0  0  0  0  0
  161.0230  209.8950  153.5890 C   0  0  0  0  0  0  0  0  0  0  0  0
  160.6540  210.4230  152.3280 C   0  0  0  0  0  0  0  0  0  0  0  0
  161.7010  204.1800  149.5790 N   0  0  0  0  0  2  0  0  0  0  0  0
  161.0100  204.9830  148.5780 C   0  0  0  0  0  2  0  0  0  0  0  0
  161.0910  207.0150  147.1580 C   0  0  0  0  0  2  0  0  0  0  0  0
  160.7100  212.5420  149.9170 C   0  0  0  0  0  3  0  0  0  0  0  0
  159.0060  213.5090  148.4830 C   0  0  0  0  0  0  0  0  0  0  0  0
  158.4440  212.7720  150.7250 C   0  0  0  0  0  3  0  0  0  0  0  0
  158.0640  213.3350  149.5040 C   0  0  0  0  0  3  0  0  0  0  0  0
  160.3310  213.1050  148.6950 C   0  0  0  0  0  3  0  0  0  0  0  0
  159.7730  212.3810  150.9490 C   0  0  0  0  0  0  0  0  0  0  0  0
  158.6020  214.1060  147.2000 C   0  0  0  0  0  0  0  0  0  0  0  0
  157.2750  214.4530  146.9750 O   0  0  0  0  0  1  0  0  0  0  0  0
  159.4540  214.3110  146.2950 O   0  0  0  0  0  0  0  0  0  0  0  0
  162.2440  203.4350  151.9190 C   0  0  0  0  0  2  0  0  0  0  0  0
  162.5410  202.0560  151.3350 C   0  0  0  0  0  2  0  0  0  0  0  0
  161.1370  200.1370  151.1830 F   0  0  0  0  0  0  0  0  0  0  0  0
  161.3200  201.4130  150.6760 C   0  0  0  0  0  0  0  0  0  0  0  0
  160.1860  202.1610  150.9420 F   0  0  0  0  0  0  0  0  0  0  0  0
  161.5410  201.3410  149.1840 C   0  0  0  0  0  0  0  0  0  0  0  0
  162.6510  201.5950  148.7350 O   0  0  0  0  0  0  0  0  0  0  0  0
  159.2730  201.9610  148.4610 C   0  0  0  0  0  1  0  0  0  0  0  0
  159.9530  199.7110  148.4720 F   0  0  0  0  0  0  0  0  0  0  0  0
  160.4200  200.9910  148.2250 C   0  0  2  0  0  0  0  0  0  0  0  0
  160.9240  201.1020  146.7670 C   0  0  2  0  0  3  0  0  0  0  0  0
  160.7690  202.4560  146.0550 C   0  0  1  0  0  3  0  0  0  0  0  0
  162.0080  203.0570  145.8100 O   0  0  0  0  0  1  0  0  0  0  0  0
  160.0460  202.2820  144.8060 N   0  0  0  0  0  2  0  0  0  0  0  0
  159.6320  203.6030  144.3590 C   0  0  0  0  0  1  0  0  0  0  0  0
  160.5270  200.0040  145.9400 O   0  0  0  0  0  0  0  0  0  0  0  0
  161.3510  198.9280  145.5870 C   0  0  0  0  0  0  0  0  0  0  0  0
  161.0340  198.2050  144.6080 O   0  0  0  0  0  0  0  0  0  0  0  0
  162.5060  198.6360  146.3020 O   0  0  0  0  0  1  0  0  0  0  0  0
  1 13  1  0  0  0  0
  2 18  1  0  0  0  0
  4  5  1  0  0  0  0
  6 11  1  0  0  0  0
  6  7  1  0  0  0  0
  7  9  1  0  0  0  0
  9  5  1  0  0  0  0
 11  4  1  0  0  0  0
 12 27  1  6  0  0  0
 12 26  1  0  0  0  0
 12 14  1  0  0  0  0
 13 24  1  0  0  0  0
 15 24  2  0  0  0  0
 15 17  1  0  0  0  0
 16  2  1  0  0  0  0
 17  6  2  0  0  0  0
 18 19  1  0  0  0  0
 19  8  1  0  0  0  0
 19  3  1  0  0  0  0
 20 27  1  0  0  0  0
 20 10  1  0  0  0  0
 21 16  2  0  0  0  0
 21 37  1  0  0  0  0
 22 10  1  6  0  0  0
 22 14  1  0  0  0  0
 22  1  1  0  0  0  0
 23  8  1  0  0  0  0
 23 11  2  0  0  0  0
 24 23  1  0  0  0  0
 25 21  1  0  0  0  0
 26 25  1  0  0  0  0
 28 33  1  0  0  0  0
 29 32  1  0  0  0  0
 29 31  2  0  0  0  0
 30 33  2  0  0  0  0
 31 30  1  0  0  0  0
 32 28  2  0  0  0  0
 33 15  1  0  0  0  0
 34 29  1  0  0  0  0
 35 34  1  0  0  0  0
 36 34  2  0  0  0  0
 38 37  1  0  0  0  0
 40 41  1  0  0  0  0
 40 39  1  0  0  0  0
 40 38  1  0  0  0  0
 42 40  1  0  0  0  0
 43 42  2  0  0  0  0
 46 44  1  1  0  0  0
 46 45  1  0  0  0  0
 46 42  1  0  0  0  0
 47 52  1  6  0  0  0
 47 46  1  0  0  0  0
 48 49  1  6  0  0  0
 48 47  1  0  0  0  0
 50 48  1  0  0  0  0
 51 50  1  0  0  0  0
 53 52  1  0  0  0  0
 53 55  1  0  0  0  0
 54 53  2  0  0  0  0
M  END
>  <MODEL>
1

>  <REMARK>
 VINA RESULT:       2.9      0.000      0.000
  Name = 
  12 active torsions:
  status: ('A' for Active; 'I' for Inactive)
    1  A    between atoms: C_1  and  O_53
    2  A    between atoms: C_6  and  C_14
    3  A    between atoms: C_6  and  C_20
    4  A    between atoms: C_8  and  C_22
    5  A    between atoms: C_8  and  C_43
    6  A    between atoms: C_10  and  C_32
    7  A    between atoms: N_11  and  C_29
    8  A    between atoms: C_14  and  C_38
    9  A    between atoms: C_20  and  C_22
   10  A    between atoms: C_29  and  C_38
   11  A    between atoms: C_33  and  C_52
   12  A    between atoms: C_38  and  O_53
                            x       y       z     vdW  Elec       q    Type
                         _______ _______ _______ _____ _____    ______ ____

>  <TORSDO>
F 12

$$$$
=
 OpenBabel11062408363D

 55 59  0  0  1  0  0  0  0  0999 V2000
  162.2910  209.3960  150.6940 C   0  0  0  0  0  2  0  0  0  0  0  0
  160.0850  205.2330  152.8240 C   0  0  0  0  0  2  0  0  0  0  0  0
  159.6260  207.5400  154.8430 C   0  0  0  0  0  1  0  0  0  0  0  0
  161.2960  210.1930  156.1080 C   0  0  0  0  0  2  0  0  0  0  0  0
  160.6770  210.9770  157.2600 C   0  0  0  0  0  2  0  0  0  0  0  0
  160.4340  212.0490  154.6140 C   0  0  0  0  0  0  0  0  0  0  0  0
  160.1740  212.9290  155.8060 C   0  0  0  0  0  2  0  0  0  0  0  0
  161.4960  208.4810  153.7650 C   0  0  0  0  0  2  0  0  0  0  0  0
  160.9270  212.4630  157.0480 C   0  0  0  0  0  2  0  0  0  0  0  0
  161.8680  209.2110  148.2180 C   0  0  0  0  0  2  0  0  0  0  0  0
  160.8760  210.7170  154.7540 C   0  0  0  0  0  0  0  0  0  0  0  0
  161.9200  206.2700  148.4310 C   0  0  1  0  0  3  0  0  0  0  0  0
  160.8330  209.5500  151.1180 C   0  0  0  0  0  2  0  0  0  0  0  0
  161.7780  207.1570  149.6680 C   0  0  0  0  0  2  0  0  0  0  0  0
  160.2770  211.7710  152.2010 C   0  0  0  0  0  0  0  0  0  0  0  0
  160.4950  205.0470  151.4370 N   0  0  0  0  0  0  0  0  0  0  0  0
  160.1260  212.5490  153.3540 C   0  0  0  0  0  3  0  0  0  0  0  0
  161.0160  206.2150  153.5220 C   0  0  0  0  0  2  0  0  0  0  0  0
  160.4000  207.5310  153.6080 N   0  0  0  0  0  0  0  0  0  0  0  0
  162.0480  208.3220  146.9910 C   0  0  0  0  0  2  0  0  0  0  0  0
  161.4580  204.2550  151.0570 C   0  0  0  0  0  0  0  0  0  0  0  0
  162.4390  208.5180  149.4540 C   0  0  2  0  0  3  0  0  0  0  0  0
  161.0230  209.9060  153.6080 C   0  0  0  0  0  0  0  0  0  0  0  0
  160.7230  210.4310  152.3280 C   0  0  0  0  0  0  0  0  0  0  0  0
  161.8000  204.1540  149.6710 N   0  0  0  0  0  2  0  0  0  0  0  0
  161.1690  204.9610  148.6330 C   0  0  0  0  0  2  0  0  0  0  0  0
  161.3490  206.9820  147.2060 C   0  0  0  0  0  2  0  0  0  0  0  0
  160.9250  212.5310  149.9090 C   0  0  0  0  0  3  0  0  0  0  0  0
  159.3070  213.5160  148.3900 C   0  0  0  0  0  0  0  0  0  0  0  0
  158.6280  212.8040  150.6090 C   0  0  0  0  0  3  0  0  0  0  0  0
  158.3160  213.3650  149.3680 C   0  0  0  0  0  3  0  0  0  0  0  0
  160.6130  213.0920  148.6670 C   0  0  0  0  0  3  0  0  0  0  0  0
  159.9390  212.3930  150.8970 C   0  0  0  0  0  0  0  0  0  0  0  0
  158.9740  214.1110  147.0870 C   0  0  0  0  0  0  0  0  0  0  0  0
  157.6460  214.3040  146.7240 O   0  0  0  0  0  1  0  0  0  0  0  0
  159.8870  214.4500  146.2880 O   0  0  0  0  0  0  0  0  0  0  0  0
  162.2200  203.4160  152.0390 C   0  0  0  0  0  2  0  0  0  0  0  0
  162.5320  202.0330  151.4730 C   0  0  0  0  0  2  0  0  0  0  0  0
  161.2620  200.0210  151.3580 F   0  0  0  0  0  0  0  0  0  0  0  0
  161.2990  201.3290  150.9050 C   0  0  0  0  0  0  0  0  0  0  0  0
  160.1480  201.9750  151.3230 F   0  0  0  0  0  0  0  0  0  0  0  0
  161.3690  201.3440  149.3970 C   0  0  0  0  0  0  0  0  0  0  0  0
  162.4660  201.3600  148.8530 O   0  0  0  0  0  0  0  0  0  0  0  0
  159.3350  202.6260  148.8770 C   0  0  0  0  0  1  0  0  0  0  0  0
  159.3170  200.2760  148.8190 F   0  0  0  0  0  0  0  0  0  0  0  0
  160.1210  201.3690  148.5380 C   0  0  2  0  0  0  0  0  0  0  0  0
  160.5140  201.3700  147.0410 C   0  0  2  0  0  3  0  0  0  0  0  0
  161.3630  200.1990  146.5210 C   0  0  1  0  0  3  0  0  0  0  0  0
  161.6180  199.2590  147.5240 O   0  0  0  0  0  1  0  0  0  0  0  0
  160.6940  199.5590  145.4000 N   0  0  0  0  0  2  0  0  0  0  0  0
  161.2000  198.1980  145.3160 C   0  0  0  0  0  1  0  0  0  0  0  0
  160.9910  202.6380  146.5780 O   0  0  0  0  0  0  0  0  0  0  0  0
  160.6410  203.2270  145.3570 C   0  0  0  0  0  0  0  0  0  0  0  0
  160.0830  202.5270  144.4740 O   0  0  0  0  0  0  0  0  0  0  0  0
  160.9070  204.5660  145.0960 O   0  0  0  0  0  1  0  0  0  0  0  0
  1 13  1  0  0  0  0
  2 18  1  0  0  0  0
  4  5  1  0  0  0  0
  6 11  1  0  0  0  0
  6  7  1  0  0  0  0
  7  9  1  0  0  0  0
  9  5  1  0  0  0  0
 11  4  1  0  0  0  0
 12 27  1  6  0  0  0
 12 26  1  0  0  0  0
 12 14  1  0  0  0  0
 13 24  1  0  0  0  0
 15 24  2  0  0  0  0
 15 17  1  0  0  0  0
 16  2  1  0  0  0  0
 17  6  2  0  0  0  0
 18 19  1  0  0  0  0
 19  8  1  0  0  0  0
 19  3  1  0  0  0  0
 20 27  1  0  0  0  0
 20 10  1  0  0  0  0
 21 16  2  0  0  0  0
 21 37  1  0  0  0  0
 22 10  1  6  0  0  0
 22 14  1  0  0  0  0
 22  1  1  0  0  0  0
 23  8  1  0  0  0  0
 23 11  2  0  0  0  0
 24 23  1  0  0  0  0
 25 21  1  0  0  0  0
 26 25  1  0  0  0  0
 28 33  1  0  0  0  0
 29 32  1  0  0  0  0
 29 31  2  0  0  0  0
 30 33  2  0  0  0  0
 31 30  1  0  0  0  0
 32 28  2  0  0  0  0
 33 15  1  0  0  0  0
 34 29  1  0  0  0  0
 35 34  1  0  0  0  0
 36 34  2  0  0  0  0
 38 37  1  0  0  0  0
 40 41  1  0  0  0  0
 40 39  1  0  0  0  0
 40 38  1  0  0  0  0
 42 40  1  0  0  0  0
 43 42  2  0  0  0  0
 46 45  1  0  0  0  0
 46 44  1  1  0  0  0
 46 42  1  0  0  0  0
 47 52  1  1  0  0  0
 47 46  1  0  0  0  0
 48 47  1  0  0  0  0
 48 49  1  1  0  0  0
 50 48  1  0  0  0  0
 51 50  1  0  0  0  0
 53 52  1  0  0  0  0
 54 53  2  0  0  0  0
 55 53  1  0  0  0  0
M  END
>  <MODEL>
2

>  <REMARK>
 VINA RESULT:       3.3      0.796      1.670
  Name = 
  12 active torsions:
  status: ('A' for Active; 'I' for Inactive)
    1  A    between atoms: C_1  and  O_53
    2  A    between atoms: C_6  and  C_14
    3  A    between atoms: C_6  and  C_20
    4  A    between atoms: C_8  and  C_22
    5  A    between atoms: C_8  and  C_43
    6  A    between atoms: C_10  and  C_32
    7  A    between atoms: N_11  and  C_29
    8  A    between atoms: C_14  and  C_38
    9  A    between atoms: C_20  and  C_22
   10  A    between atoms: C_29  and  C_38
   11  A    between atoms: C_33  and  C_52
   12  A    between atoms: C_38  and  O_53
                            x       y       z     vdW  Elec       q    Type
                         _______ _______ _______ _____ _____    ______ ____

>  <TORSDO>
F 12

$$$$
