=
 OpenBabel11062408033D

 34 39  0  0  1  0  0  0  0  0999 V2000
  160.7190  208.4470  155.3680 C   0  0  0  0  0  0  0  0  0  0  0  0
  162.1190  210.3060  154.4510 C   0  0  0  0  0  0  0  0  0  0  0  0
  161.2170  208.4830  152.8940 C   0  0  0  0  0  0  0  0  0  0  0  0
  161.4870  208.1470  150.4930 C   0  0  1  0  0  3  0  0  0  0  0  0
  161.8030  210.0730  156.8480 C   0  0  0  0  0  3  0  0  0  0  0  0
  162.3240  210.7620  155.8340 C   0  0  0  0  0  3  0  0  0  0  0  0
  161.1440  210.4070  151.3960 N   0  0  0  0  0  0  0  0  0  0  0  0
  161.0060  209.3140  154.1550 C   0  0  1  0  0  3  0  0  0  0  0  0
  161.3880  211.9950  149.6460 N   0  0  0  0  0  2  0  0  0  0  0  0
  161.9550  209.2830  149.1450 S   0  0  0  0  0  0  0  0  0  0  0  0
  161.0600  208.8240  156.6050 C   0  0  0  0  0  3  0  0  0  0  0  0
  161.2130  206.9640  152.9180 C   0  0  1  0  0  3  0  0  0  0  0  0
  160.0720  206.8040  155.1160 S   0  0  0  0  0  0  0  0  0  0  0  0
  162.8240  210.8030  153.5340 O   0  0  0  0  0  0  0  0  0  0  0  0
  162.5390  207.2500  150.7850 O   0  0  0  0  0  0  0  0  0  0  0  0
  162.1690  206.3710  151.8490 C   0  0  2  0  0  3  0  0  0  0  0  0
  161.4410  210.6680  150.1670 C   0  0  0  0  0  0  0  0  0  0  0  0
  161.2420  209.0220  151.6720 C   0  0  0  0  0  0  0  0  0  0  0  0
  161.4720  206.4290  154.1870 O   0  0  0  0  0  0  0  0  0  0  0  0
  161.0960  203.6530  149.4390 C   0  0  0  0  0  0  0  0  0  0  0  0
  160.7540  202.6170  150.3140 C   0  0  0  0  0  3  0  0  0  0  0  0
  161.6710  205.0610  151.3260 C   0  0  0  0  0  0  0  0  0  0  0  0
  160.8710  202.8000  151.6950 C   0  0  0  0  0  3  0  0  0  0  0  0
  161.5530  204.8740  149.9450 C   0  0  0  0  0  3  0  0  0  0  0  0
  161.3290  204.0210  152.2010 C   0  0  0  0  0  3  0  0  0  0  0  0
  160.9800  203.4700  148.0680 O   0  0  0  0  0  1  0  0  0  0  0  0
  160.9900  213.1310  150.4640 C   0  0  0  0  0  2  0  0  0  0  0  0
  158.6650  213.5540  152.1100 F   0  0  0  0  0  0  0  0  0  0  0  0
  159.6800  213.7080  149.9530 C   0  0  2  0  0  3  0  0  0  0  0  0
  158.5110  213.1750  150.7880 C   0  0  2  0  0  3  0  0  0  0  0  0
  157.0340  213.2120  148.9250 C   0  0  0  0  0  2  0  0  0  0  0  0
  158.1120  213.7650  147.9960 C   0  0  0  0  0  2  0  0  0  0  0  0
  159.4820  213.3140  148.4890 C   0  0  0  0  0  2  0  0  0  0  0  0
  157.2470  213.7100  150.2840 N   0  0  0  0  0  2  0  0  0  0  0  0
  1 11  2  0  0  0  0
  2  6  1  0  0  0  0
  4 10  1  6  0  0  0
  4 15  1  0  0  0  0
  4 18  1  0  0  0  0
  6  5  2  0  0  0  0
  7 18  1  0  0  0  0
  8  3  1  6  0  0  0
  8  2  1  0  0  0  0
  8  1  1  0  0  0  0
  9 17  1  0  0  0  0
  9 27  1  0  0  0  0
 10 17  1  0  0  0  0
 11  5  1  0  0  0  0
 12  3  1  1  0  0  0
 12 19  1  0  0  0  0
 13  1  1  0  0  0  0
 14  2  2  0  0  0  0
 15 16  1  0  0  0  0
 16 22  1  6  0  0  0
 16 12  1  0  0  0  0
 17  7  2  0  0  0  0
 18  3  2  0  0  0  0
 19 13  1  0  0  0  0
 20 24  2  0  0  0  0
 20 21  1  0  0  0  0
 21 23  2  0  0  0  0
 22 25  2  0  0  0  0
 23 25  1  0  0  0  0
 24 22  1  0  0  0  0
 26 20  1  0  0  0  0
 29 27  1  1  0  0  0
 29 30  1  0  0  0  0
 30 28  1  1  0  0  0
 31 34  1  0  0  0  0
 32 33  1  0  0  0  0
 32 31  1  0  0  0  0
 33 29  1  0  0  0  0
 34 30  1  0  0  0  0
M  END
>  <MODEL>
1

>  <REMARK>
 VINA RESULT:      -7.6      0.000      0.000
  Name = 
  3 active torsions:
  status: ('A' for Active; 'I' for Inactive)
    1  A    between atoms: C_3  and  C_13
    2  A    between atoms: C_3  and  N_17
    3  A    between atoms: C_12  and  C_28
                            x       y       z     vdW  Elec       q    Type
                         _______ _______ _______ _____ _____    ______ ____

>  <TORSDO>
F 3

$$$$
=
 OpenBabel11062408033D

 34 39  0  0  1  0  0  0  0  0999 V2000
  161.8180  211.0810  149.8380 C   0  0  0  0  0  0  0  0  0  0  0  0
  160.4290  210.9320  151.9130 C   0  0  0  0  0  0  0  0  0  0  0  0
  161.5260  208.8300  150.9430 C   0  0  0  0  0  0  0  0  0  0  0  0
  161.4690  206.5050  151.6800 C   0  0  1  0  0  3  0  0  0  0  0  0
  160.5540  213.0110  150.6650 C   0  0  0  0  0  3  0  0  0  0  0  0
  160.0930  212.3510  151.7270 C   0  0  0  0  0  3  0  0  0  0  0  0
  161.6500  208.3220  153.3260 N   0  0  0  0  0  0  0  0  0  0  0  0
  161.5990  210.3400  151.1460 C   0  0  1  0  0  3  0  0  0  0  0  0
  161.4930  207.4140  155.5150 N   0  0  0  0  0  2  0  0  0  0  0  0
  161.0720  205.7430  153.2880 S   0  0  0  0  0  0  0  0  0  0  0  0
  161.3610  212.3230  149.6440 C   0  0  0  0  0  3  0  0  0  0  0  0
  161.5860  208.1970  149.5630 C   0  0  1  0  0  3  0  0  0  0  0  0
  162.5450  210.2060  148.4650 S   0  0  0  0  0  0  0  0  0  0  0  0
  159.7840  210.2590  152.7600 O   0  0  0  0  0  0  0  0  0  0  0  0
  160.4310  206.2850  150.7470 O   0  0  0  0  0  0  0  0  0  0  0  0
  160.7450  206.8950  149.4940 C   0  0  2  0  0  3  0  0  0  0  0  0
  161.4460  207.3040  154.0930 C   0  0  0  0  0  0  0  0  0  0  0  0
  161.5820  207.9640  151.9580 C   0  0  0  0  0  0  0  0  0  0  0  0
  161.2420  209.0820  148.5310 O   0  0  0  0  0  0  0  0  0  0  0  0
  161.5960  203.6070  147.8160 C   0  0  0  0  0  0  0  0  0  0  0  0
  162.4100  204.0300  146.7600 C   0  0  0  0  0  3  0  0  0  0  0  0
  161.3330  205.9060  148.5380 C   0  0  0  0  0  0  0  0  0  0  0  0
  162.6850  205.3900  146.5900 C   0  0  0  0  0  3  0  0  0  0  0  0
  161.0590  204.5450  148.7040 C   0  0  0  0  0  3  0  0  0  0  0  0
  162.1480  206.3280  147.4780 C   0  0  0  0  0  3  0  0  0  0  0  0
  161.3220  202.2570  147.9830 O   0  0  0  0  0  1  0  0  0  0  0  0
  161.7780  208.6750  156.1840 C   0  0  0  0  0  2  0  0  0  0  0  0
  162.3890  211.0650  154.6990 F   0  0  0  0  0  0  0  0  0  0  0  0
  160.7460  209.7180  155.7910 C   0  0  2  0  0  3  0  0  0  0  0  0
  161.4080  211.0940  155.6750 C   0  0  2  0  0  3  0  0  0  0  0  0
  159.4420  212.2120  156.4080 C   0  0  0  0  0  2  0  0  0  0  0  0
  158.6670  210.9040  156.5440 C   0  0  0  0  0  2  0  0  0  0  0  0
  159.6410  209.7710  156.8460 C   0  0  0  0  0  2  0  0  0  0  0  0
  160.4120  212.1050  155.3200 N   0  0  0  0  0  2  0  0  0  0  0  0
  2 14  2  0  0  0  0
  3  8  1  0  0  0  0
  3 18  2  0  0  0  0
  4 15  1  6  0  0  0
  4 18  1  0  0  0  0
  4 10  1  0  0  0  0
  5  6  2  0  0  0  0
  6  2  1  0  0  0  0
  7 17  2  0  0  0  0
  8  1  1  6  0  0  0
  8  2  1  0  0  0  0
  9 27  1  0  0  0  0
 10 17  1  0  0  0  0
 11  1  2  0  0  0  0
 11  5  1  0  0  0  0
 12 19  1  6  0  0  0
 12  3  1  0  0  0  0
 13 19  1  0  0  0  0
 13  1  1  0  0  0  0
 16 22  1  6  0  0  0
 16 12  1  0  0  0  0
 16 15  1  0  0  0  0
 17  9  1  0  0  0  0
 18  7  1  0  0  0  0
 20 26  1  0  0  0  0
 20 24  1  0  0  0  0
 21 20  2  0  0  0  0
 22 24  2  0  0  0  0
 23 21  1  0  0  0  0
 23 25  2  0  0  0  0
 25 22  1  0  0  0  0
 29 27  1  1  0  0  0
 29 33  1  0  0  0  0
 30 28  1  6  0  0  0
 30 29  1  0  0  0  0
 31 32  1  0  0  0  0
 32 33  1  0  0  0  0
 34 30  1  0  0  0  0
 34 31  1  0  0  0  0
M  END
>  <MODEL>
2

>  <REMARK>
 VINA RESULT:      -7.3      2.574      5.394
  Name = 
  3 active torsions:
  status: ('A' for Active; 'I' for Inactive)
    1  A    between atoms: C_3  and  C_13
    2  A    between atoms: C_3  and  N_17
    3  A    between atoms: C_12  and  C_28
                            x       y       z     vdW  Elec       q    Type
                         _______ _______ _______ _____ _____    ______ ____

>  <TORSDO>
F 3

$$$$
=
 OpenBabel11062408033D

 34 39  0  0  1  0  0  0  0  0999 V2000
  160.1720  212.8870  150.0120 C   0  0  0  0  0  0  0  0  0  0  0  0
  161.9920  211.1710  149.9790 C   0  0  0  0  0  0  0  0  0  0  0  0
  160.3240  211.2440  151.9210 C   0  0  0  0  0  0  0  0  0  0  0  0
  160.1440  209.8770  153.9340 C   0  0  1  0  0  3  0  0  0  0  0  0
  161.9320  212.9300  148.3060 C   0  0  0  0  0  3  0  0  0  0  0  0
  162.5200  211.8310  148.7760 C   0  0  0  0  0  3  0  0  0  0  0  0
  160.7190  208.8400  151.7810 N   0  0  0  0  0  0  0  0  0  0  0  0
  160.5780  211.4870  150.4370 C   0  0  1  0  0  3  0  0  0  0  0  0
  161.2590  206.5540  152.1300 N   0  0  0  0  0  2  0  0  0  0  0  0
  160.7920  208.2230  154.3490 S   0  0  0  0  0  0  0  0  0  0  0  0
  160.7820  213.5260  149.0060 C   0  0  0  0  0  3  0  0  0  0  0  0
  159.8020  212.3350  152.8410 C   0  0  1  0  0  3  0  0  0  0  0  0
  158.9750  213.7720  150.9930 S   0  0  0  0  0  0  0  0  0  0  0  0
  162.6980  210.3040  150.5590 O   0  0  0  0  0  0  0  0  0  0  0  0
  160.8540  210.8850  154.6240 O   0  0  0  0  0  0  0  0  0  0  0  0
  160.3480  212.1770  154.2850 C   0  0  2  0  0  3  0  0  0  0  0  0
  160.9230  207.8610  152.5950 C   0  0  0  0  0  0  0  0  0  0  0  0
  160.3710  210.0270  152.4700 C   0  0  0  0  0  0  0  0  0  0  0  0
  160.0270  213.6290  152.3490 O   0  0  0  0  0  0  0  0  0  0  0  0
  157.1150  212.6570  156.2000 C   0  0  0  0  0  0  0  0  0  0  0  0
  157.5100  213.5470  157.2030 C   0  0  0  0  0  3  0  0  0  0  0  0
  159.3680  212.6640  155.3040 C   0  0  0  0  0  0  0  0  0  0  0  0
  158.8320  213.9960  157.2610 C   0  0  0  0  0  3  0  0  0  0  0  0
  158.0440  212.2170  155.2510 C   0  0  0  0  0  3  0  0  0  0  0  0
  159.7610  213.5560  156.3120 C   0  0  0  0  0  3  0  0  0  0  0  0
  155.8020  212.2110  156.1440 O   0  0  0  0  0  1  0  0  0  0  0  0
  161.3860  206.2460  150.7130 C   0  0  0  0  0  2  0  0  0  0  0  0
  161.3870  204.9310  148.1510 F   0  0  0  0  0  0  0  0  0  0  0  0
  161.6180  204.7570  150.5230 C   0  0  2  0  0  3  0  0  0  0  0  0
  160.8950  204.2700  149.2630 C   0  0  2  0  0  3  0  0  0  0  0  0
  160.4750  202.1300  150.2120 C   0  0  0  0  0  2  0  0  0  0  0  0
  161.1910  202.4910  151.5110 C   0  0  0  0  0  2  0  0  0  0  0  0
  161.0930  203.9950  151.7400 C   0  0  0  0  0  2  0  0  0  0  0  0
  161.0980  202.8310  149.0900 N   0  0  0  0  0  2  0  0  0  0  0  0
  1  8  1  0  0  0  0
  1 13  1  0  0  0  0
  2 14  2  0  0  0  0
  3 18  2  0  0  0  0
  4 18  1  6  0  0  0
  4 10  1  0  0  0  0
  4 15  1  0  0  0  0
  5  6  2  0  0  0  0
  5 11  1  0  0  0  0
  6  2  1  0  0  0  0
  7 18  1  0  0  0  0
  7 17  2  0  0  0  0
  8  2  1  1  0  0  0
  8  3  1  0  0  0  0
  9 17  1  0  0  0  0
 11  1  2  0  0  0  0
 12  3  1  6  0  0  0
 12 16  1  0  0  0  0
 13 19  1  0  0  0  0
 16 15  1  0  0  0  0
 16 22  1  1  0  0  0
 17 10  1  0  0  0  0
 19 12  1  0  0  0  0
 20 21  1  0  0  0  0
 21 23  2  0  0  0  0
 22 25  2  0  0  0  0
 24 22  1  0  0  0  0
 24 20  2  0  0  0  0
 25 23  1  0  0  0  0
 26 20  1  0  0  0  0
 27  9  1  0  0  0  0
 29 27  1  1  0  0  0
 29 33  1  0  0  0  0
 30 28  1  6  0  0  0
 30 29  1  0  0  0  0
 31 32  1  0  0  0  0
 32 33  1  0  0  0  0
 34 30  1  0  0  0  0
 34 31  1  0  0  0  0
M  END
>  <MODEL>
3

>  <REMARK>
 VINA RESULT:      -6.8      3.732      8.432
  Name = 
  3 active torsions:
  status: ('A' for Active; 'I' for Inactive)
    1  A    between atoms: C_3  and  C_13
    2  A    between atoms: C_3  and  N_17
    3  A    between atoms: C_12  and  C_28
                            x       y       z     vdW  Elec       q    Type
                         _______ _______ _______ _____ _____    ______ ____

>  <TORSDO>
F 3

$$$$
=
 OpenBabel11062408033D

 34 39  0  0  1  0  0  0  0  0999 V2000
  161.0130  207.5610  155.1300 C   0  0  0  0  0  0  0  0  0  0  0  0
  161.6150  209.9730  155.4020 C   0  0  0  0  0  0  0  0  0  0  0  0
  160.9800  209.0550  153.0970 C   0  0  0  0  0  0  0  0  0  0  0  0
  160.8530  210.1430  150.9170 C   0  0  1  0  0  3  0  0  0  0  0  0
  161.8590  208.4290  157.2610 C   0  0  0  0  0  3  0  0  0  0  0  0
  161.9510  209.6770  156.8020 C   0  0  0  0  0  3  0  0  0  0  0  0
  160.0660  211.3120  152.9310 N   0  0  0  0  0  0  0  0  0  0  0  0
  160.7950  208.9700  154.6080 C   0  0  1  0  0  3  0  0  0  0  0  0
  159.4940  213.5470  152.3670 N   0  0  0  0  0  2  0  0  0  0  0  0
  160.7000  211.8940  150.4320 S   0  0  0  0  0  0  0  0  0  0  0  0
  161.4710  207.3260  156.3660 C   0  0  0  0  0  3  0  0  0  0  0  0
  161.4140  207.8580  152.2670 C   0  0  1  0  0  3  0  0  0  0  0  0
  160.8250  206.1890  154.0070 S   0  0  0  0  0  0  0  0  0  0  0  0
  161.9520  211.0850  154.9160 O   0  0  0  0  0  0  0  0  0  0  0  0
  162.1530  209.6570  150.6520 O   0  0  0  0  0  0  0  0  0  0  0  0
  162.2670  208.2880  151.0450 C   0  0  2  0  0  3  0  0  0  0  0  0
  160.0270  212.2600  152.0560 C   0  0  0  0  0  0  0  0  0  0  0  0
  160.6070  210.1220  152.3850 C   0  0  0  0  0  0  0  0  0  0  0  0
  162.0610  206.8680  153.0190 O   0  0  0  0  0  0  0  0  0  0  0  0
  161.1960  205.2900  148.9920 C   0  0  0  0  0  0  0  0  0  0  0  0
  161.6750  205.6300  147.7230 C   0  0  0  0  0  3  0  0  0  0  0  0
  162.0710  207.3690  149.8820 C   0  0  0  0  0  0  0  0  0  0  0  0
  162.3510  206.8380  147.5300 C   0  0  0  0  0  3  0  0  0  0  0  0
  161.3940  206.1590  150.0700 C   0  0  0  0  0  3  0  0  0  0  0  0
  162.5490  207.7070  148.6080 C   0  0  0  0  0  3  0  0  0  0  0  0
  160.5240  204.0910  149.1830 O   0  0  0  0  0  1  0  0  0  0  0  0
  158.9590  213.8650  153.6820 C   0  0  0  0  0  2  0  0  0  0  0  0
  157.0740  213.9140  155.8580 F   0  0  0  0  0  0  0  0  0  0  0  0
  157.5290  214.3610  153.5560 C   0  0  2  0  0  3  0  0  0  0  0  0
  156.6340  213.6470  154.5740 C   0  0  2  0  0  3  0  0  0  0  0  0
  154.7540  213.7180  153.1190 C   0  0  0  0  0  2  0  0  0  0  0  0
  155.5370  214.4530  152.0340 C   0  0  0  0  0  2  0  0  0  0  0  0
  157.0130  214.0890  152.1430 C   0  0  0  0  0  2  0  0  0  0  0  0
  155.2510  214.1060  154.4390 N   0  0  0  0  0  2  0  0  0  0  0  0
  1 11  2  0  0  0  0
  2  6  1  0  0  0  0
  4 10  1  1  0  0  0
  4 18  1  0  0  0  0
  6  5  2  0  0  0  0
  8  3  1  6  0  0  0
  8  1  1  0  0  0  0
  8  2  1  0  0  0  0
  9 27  1  0  0  0  0
 10 17  1  0  0  0  0
 11  5  1  0  0  0  0
 12 19  1  1  0  0  0
 12  3  1  0  0  0  0
 13  1  1  0  0  0  0
 14  2  2  0  0  0  0
 15  4  1  0  0  0  0
 15 16  1  0  0  0  0
 16 22  1  6  0  0  0
 16 12  1  0  0  0  0
 17  9  1  0  0  0  0
 17  7  2  0  0  0  0
 18  7  1  0  0  0  0
 18  3  2  0  0  0  0
 19 13  1  0  0  0  0
 20 26  1  0  0  0  0
 20 24  1  0  0  0  0
 21 20  2  0  0  0  0
 22 24  2  0  0  0  0
 23 21  1  0  0  0  0
 23 25  2  0  0  0  0
 25 22  1  0  0  0  0
 29 27  1  6  0  0  0
 29 30  1  0  0  0  0
 30 28  1  1  0  0  0
 31 34  1  0  0  0  0
 32 33  1  0  0  0  0
 32 31  1  0  0  0  0
 33 29  1  0  0  0  0
 34 30  1  0  0  0  0
M  END
>  <MODEL>
4

>  <REMARK>
 VINA RESULT:      -6.6      2.374      3.076
  Name = 
  3 active torsions:
  status: ('A' for Active; 'I' for Inactive)
    1  A    between atoms: C_3  and  C_13
    2  A    between atoms: C_3  and  N_17
    3  A    between atoms: C_12  and  C_28
                            x       y       z     vdW  Elec       q    Type
                         _______ _______ _______ _____ _____    ______ ____

>  <TORSDO>
F 3

$$$$
=
 OpenBabel11062408033D

 34 39  0  0  1  0  0  0  0  0999 V2000
  162.2130  209.9390  149.2280 C   0  0  0  0  0  0  0  0  0  0  0  0
  160.9550  210.6170  151.2810 C   0  0  0  0  0  0  0  0  0  0  0  0
  161.6240  208.1700  150.9290 C   0  0  0  0  0  0  0  0  0  0  0  0
  161.2310  206.1870  152.2950 C   0  0  1  0  0  3  0  0  0  0  0  0
  161.3420  212.2140  149.4930 C   0  0  0  0  0  3  0  0  0  0  0  0
  160.8470  211.9650  150.7050 C   0  0  0  0  0  3  0  0  0  0  0  0
  161.8160  208.3250  153.3560 N   0  0  0  0  0  0  0  0  0  0  0  0
  161.9600  209.6390  150.6940 C   0  0  1  0  0  3  0  0  0  0  0  0
  161.6520  208.1010  155.7150 N   0  0  0  0  0  2  0  0  0  0  0  0
  160.8180  205.9810  154.0590 S   0  0  0  0  0  0  0  0  0  0  0  0
  161.9560  211.1390  148.6960 C   0  0  0  0  0  3  0  0  0  0  0  0
  161.4890  207.1790  149.7840 C   0  0  1  0  0  3  0  0  0  0  0  0
  162.6950  208.6040  148.1470 S   0  0  0  0  0  0  0  0  0  0  0  0
  160.2640  210.3290  152.2930 O   0  0  0  0  0  0  0  0  0  0  0  0
  160.1130  205.9050  151.4780 O   0  0  0  0  0  0  0  0  0  0  0  0
  160.4420  206.0790  150.0990 C   0  0  2  0  0  3  0  0  0  0  0  0
  161.4970  207.6120  154.3830 C   0  0  0  0  0  0  0  0  0  0  0  0
  161.6020  207.6210  152.1460 C   0  0  0  0  0  0  0  0  0  0  0  0
  161.2310  207.7910  148.5490 O   0  0  0  0  0  0  0  0  0  0  0  0
  160.9730  202.3630  149.5900 C   0  0  0  0  0  0  0  0  0  0  0  0
  161.4380  202.3210  148.2720 C   0  0  0  0  0  3  0  0  0  0  0  0
  160.7960  204.7770  149.4540 C   0  0  0  0  0  0  0  0  0  0  0  0
  161.5810  203.5050  147.5420 C   0  0  0  0  0  3  0  0  0  0  0  0
  160.6530  203.5900  150.1800 C   0  0  0  0  0  3  0  0  0  0  0  0
  161.2610  204.7320  148.1320 C   0  0  0  0  0  3  0  0  0  0  0  0
  160.8310  201.1870  150.3130 O   0  0  0  0  0  1  0  0  0  0  0  0
  162.1850  209.4260  155.9950 C   0  0  0  0  0  2  0  0  0  0  0  0
  159.6870  208.7430  157.2540 F   0  0  0  0  0  0  0  0  0  0  0  0
  161.0470  210.4080  156.2140 C   0  0  2  0  0  3  0  0  0  0  0  0
  159.7070  209.6660  156.2240 C   0  0  2  0  0  3  0  0  0  0  0  0
  158.5630  211.5150  155.2610 C   0  0  0  0  0  2  0  0  0  0  0  0
  159.8310  212.3640  155.2190 C   0  0  0  0  0  2  0  0  0  0  0  0
  161.0450  211.4500  155.0950 C   0  0  0  0  0  2  0  0  0  0  0  0
  158.6080  210.6130  156.4110 N   0  0  0  0  0  2  0  0  0  0  0  0
  2 14  2  0  0  0  0
  3 18  2  0  0  0  0
  4 15  1  6  0  0  0
  4 10  1  0  0  0  0
  5  6  2  0  0  0  0
  6  2  1  0  0  0  0
  7 17  2  0  0  0  0
  8  1  1  6  0  0  0
  8  3  1  0  0  0  0
  8  2  1  0  0  0  0
  9 27  1  0  0  0  0
 10 17  1  0  0  0  0
 11  1  2  0  0  0  0
 11  5  1  0  0  0  0
 12 19  1  6  0  0  0
 12 16  1  0  0  0  0
 12  3  1  0  0  0  0
 13 19  1  0  0  0  0
 13  1  1  0  0  0  0
 16 22  1  1  0  0  0
 16 15  1  0  0  0  0
 17  9  1  0  0  0  0
 18  4  1  0  0  0  0
 18  7  1  0  0  0  0
 20 24  1  0  0  0  0
 20 26  1  0  0  0  0
 21 20  2  0  0  0  0
 22 24  2  0  0  0  0
 23 25  2  0  0  0  0
 23 21  1  0  0  0  0
 25 22  1  0  0  0  0
 29 27  1  6  0  0  0
 29 30  1  0  0  0  0
 30 34  1  0  0  0  0
 30 28  1  1  0  0  0
 31 34  1  0  0  0  0
 32 31  1  0  0  0  0
 33 32  1  0  0  0  0
 33 29  1  0  0  0  0
M  END
>  <MODEL>
5

>  <REMARK>
 VINA RESULT:      -6.2      2.769      5.254
  Name = 
  3 active torsions:
  status: ('A' for Active; 'I' for Inactive)
    1  A    between atoms: C_3  and  C_13
    2  A    between atoms: C_3  and  N_17
    3  A    between atoms: C_12  and  C_28
                            x       y       z     vdW  Elec       q    Type
                         _______ _______ _______ _____ _____    ______ ____

>  <TORSDO>
F 3

$$$$
=
 OpenBabel11062408033D

 34 39  0  0  1  0  0  0  0  0999 V2000
  160.3590  213.0240  149.8340 C   0  0  0  0  0  0  0  0  0  0  0  0
  162.2110  211.5020  149.1160 C   0  0  0  0  0  0  0  0  0  0  0  0
  160.7520  210.8950  151.1320 C   0  0  0  0  0  0  0  0  0  0  0  0
  160.8190  208.9800  152.6420 C   0  0  1  0  0  3  0  0  0  0  0  0
  161.9310  213.6760  148.0690 C   0  0  0  0  0  3  0  0  0  0  0  0
  162.5940  212.5210  148.1280 C   0  0  0  0  0  3  0  0  0  0  0  0
  161.1940  208.6710  150.2320 N   0  0  0  0  0  0  0  0  0  0  0  0
  160.8440  211.5860  149.7750 C   0  0  1  0  0  3  0  0  0  0  0  0
  161.8280  206.4190  149.8200 N   0  0  0  0  0  2  0  0  0  0  0  0
  161.5500  207.3180  152.4740 S   0  0  0  0  0  0  0  0  0  0  0  0
  160.8440  213.9680  149.0190 C   0  0  0  0  0  3  0  0  0  0  0  0
  160.3000  211.6300  152.3830 C   0  0  1  0  0  3  0  0  0  0  0  0
  159.2470  213.5040  151.1420 S   0  0  0  0  0  0  0  0  0  0  0  0
  162.9960  210.5430  149.3390 O   0  0  0  0  0  0  0  0  0  0  0  0
  161.5700  209.7740  153.5380 O   0  0  0  0  0  0  0  0  0  0  0  0
  160.9970  211.0770  153.6550 C   0  0  2  0  0  3  0  0  0  0  0  0
  161.5070  207.5050  150.6890 C   0  0  0  0  0  0  0  0  0  0  0  0
  160.8880  209.5750  151.2780 C   0  0  0  0  0  0  0  0  0  0  0  0
  160.4370  213.0210  152.2890 O   0  0  0  0  0  0  0  0  0  0  0  0
  157.8860  211.2700  155.8080 C   0  0  0  0  0  0  0  0  0  0  0  0
  158.4350  211.3590  157.0910 C   0  0  0  0  0  3  0  0  0  0  0  0
  160.1150  211.1800  154.8580 C   0  0  0  0  0  0  0  0  0  0  0  0
  159.8220  211.3580  157.2610 C   0  0  0  0  0  3  0  0  0  0  0  0
  158.7260  211.1800  154.6930 C   0  0  0  0  0  3  0  0  0  0  0  0
  160.6620  211.2690  156.1460 C   0  0  0  0  0  3  0  0  0  0  0  0
  156.5090  211.2700  155.6400 O   0  0  0  0  0  1  0  0  0  0  0  0
  161.8150  206.5580  148.3710 C   0  0  0  0  0  2  0  0  0  0  0  0
  162.5540  206.2280  145.6080 F   0  0  0  0  0  0  0  0  0  0  0  0
  162.0800  205.2120  147.7170 C   0  0  2  0  0  3  0  0  0  0  0  0
  161.7530  205.2820  146.2220 C   0  0  2  0  0  3  0  0  0  0  0  0
  161.0550  203.0100  146.1690 C   0  0  0  0  0  2  0  0  0  0  0  0
  161.3630  202.8100  147.6500 C   0  0  0  0  0  2  0  0  0  0  0  0
  161.2150  204.1400  148.3790 C   0  0  0  0  0  2  0  0  0  0  0  0
  161.9840  203.9810  145.5950 N   0  0  0  0  0  2  0  0  0  0  0  0
  1 13  1  0  0  0  0
  2 14  2  0  0  0  0
  3 18  2  0  0  0  0
  4 18  1  6  0  0  0
  4 15  1  0  0  0  0
  5  6  2  0  0  0  0
  5 11  1  0  0  0  0
  6  2  1  0  0  0  0
  7 17  2  0  0  0  0
  7 18  1  0  0  0  0
  8  2  1  1  0  0  0
  8  1  1  0  0  0  0
  8  3  1  0  0  0  0
  9 17  1  0  0  0  0
 10  4  1  0  0  0  0
 11  1  2  0  0  0  0
 12  3  1  6  0  0  0
 12 16  1  0  0  0  0
 13 19  1  0  0  0  0
 15 16  1  0  0  0  0
 16 22  1  1  0  0  0
 17 10  1  0  0  0  0
 19 12  1  0  0  0  0
 20 21  1  0  0  0  0
 21 23  2  0  0  0  0
 22 25  2  0  0  0  0
 24 22  1  0  0  0  0
 24 20  2  0  0  0  0
 25 23  1  0  0  0  0
 26 20  1  0  0  0  0
 27  9  1  0  0  0  0
 29 27  1  1  0  0  0
 29 33  1  0  0  0  0
 30 28  1  6  0  0  0
 30 29  1  0  0  0  0
 31 32  1  0  0  0  0
 32 33  1  0  0  0  0
 34 31  1  0  0  0  0
 34 30  1  0  0  0  0
M  END
>  <MODEL>
6

>  <REMARK>
 VINA RESULT:      -5.8      3.626      7.865
  Name = 
  3 active torsions:
  status: ('A' for Active; 'I' for Inactive)
    1  A    between atoms: C_3  and  C_13
    2  A    between atoms: C_3  and  N_17
    3  A    between atoms: C_12  and  C_28
                            x       y       z     vdW  Elec       q    Type
                         _______ _______ _______ _____ _____    ______ ____

>  <TORSDO>
F 3

$$$$
=
 OpenBabel11062408033D

 34 39  0  0  1  0  0  0  0  0999 V2000
  162.5730  208.8380  149.0430 C   0  0  0  0  0  0  0  0  0  0  0  0
  161.2170  209.6240  150.9920 C   0  0  0  0  0  0  0  0  0  0  0  0
  161.7570  207.1350  150.7170 C   0  0  0  0  0  0  0  0  0  0  0  0
  161.1460  205.2020  152.0740 C   0  0  1  0  0  3  0  0  0  0  0  0
  161.8280  211.1670  149.2180 C   0  0  0  0  0  3  0  0  0  0  0  0
  161.2340  210.9670  150.3950 C   0  0  0  0  0  3  0  0  0  0  0  0
  161.7850  207.3180  153.1500 N   0  0  0  0  0  0  0  0  0  0  0  0
  162.1980  208.5780  150.4910 C   0  0  1  0  0  3  0  0  0  0  0  0
  161.4410  207.1410  155.4940 N   0  0  0  0  0  2  0  0  0  0  0  0
  160.5970  205.0500  153.8070 S   0  0  0  0  0  0  0  0  0  0  0  0
  162.4300  210.0440  148.4800 C   0  0  0  0  0  3  0  0  0  0  0  0
  161.6430  206.1370  149.5770 C   0  0  1  0  0  3  0  0  0  0  0  0
  163.0480  207.4600  148.0160 S   0  0  0  0  0  0  0  0  0  0  0  0
  160.4390  209.3950  151.9550 O   0  0  0  0  0  0  0  0  0  0  0  0
  160.0740  204.9760  151.1830 O   0  0  0  0  0  0  0  0  0  0  0  0
  160.5100  205.1070  149.8290 C   0  0  2  0  0  3  0  0  0  0  0  0
  161.3500  206.6420  154.1600 C   0  0  0  0  0  0  0  0  0  0  0  0
  161.6150  206.6090  151.9370 C   0  0  0  0  0  0  0  0  0  0  0  0
  161.5120  206.7440  148.3200 O   0  0  0  0  0  0  0  0  0  0  0  0
  161.2370  202.4250  147.2560 C   0  0  0  0  0  0  0  0  0  0  0  0
  161.4330  201.3020  148.0650 C   0  0  0  0  0  3  0  0  0  0  0  0
  160.8280  203.7760  149.2260 C   0  0  0  0  0  0  0  0  0  0  0  0
  161.3300  201.4130  149.4540 C   0  0  0  0  0  3  0  0  0  0  0  0
  160.9340  203.6600  147.8360 C   0  0  0  0  0  3  0  0  0  0  0  0
  161.0270  202.6480  150.0350 C   0  0  0  0  0  3  0  0  0  0  0  0
  161.3410  202.3130  145.8760 O   0  0  0  0  0  1  0  0  0  0  0  0
  162.0330  208.4360  155.7960 C   0  0  0  0  0  2  0  0  0  0  0  0
  162.3240  210.6490  153.9760 F   0  0  0  0  0  0  0  0  0  0  0  0
  160.9980  209.5350  155.6220 C   0  0  2  0  0  3  0  0  0  0  0  0
  161.6820  210.8350  155.1870 C   0  0  2  0  0  3  0  0  0  0  0  0
  160.0960  212.1730  156.3500 C   0  0  0  0  0  2  0  0  0  0  0  0
  159.3160  210.9510  156.8280 C   0  0  0  0  0  2  0  0  0  0  0  0
  160.2620  209.7620  156.9420 C   0  0  0  0  0  2  0  0  0  0  0  0
  160.6910  211.9010  155.0420 N   0  0  0  0  0  2  0  0  0  0  0  0
  2 14  2  0  0  0  0
  3 18  2  0  0  0  0
  4 15  1  6  0  0  0
  4 10  1  0  0  0  0
  5  6  2  0  0  0  0
  6  2  1  0  0  0  0
  7 17  2  0  0  0  0
  8  1  1  6  0  0  0
  8  3  1  0  0  0  0
  8  2  1  0  0  0  0
  9 27  1  0  0  0  0
 10 17  1  0  0  0  0
 11  1  2  0  0  0  0
 11  5  1  0  0  0  0
 12 19  1  6  0  0  0
 12 16  1  0  0  0  0
 12  3  1  0  0  0  0
 13 19  1  0  0  0  0
 13  1  1  0  0  0  0
 16 22  1  1  0  0  0
 16 15  1  0  0  0  0
 17  9  1  0  0  0  0
 18  4  1  0  0  0  0
 18  7  1  0  0  0  0
 20 24  2  0  0  0  0
 20 21  1  0  0  0  0
 21 23  2  0  0  0  0
 22 25  2  0  0  0  0
 23 25  1  0  0  0  0
 24 22  1  0  0  0  0
 26 20  1  0  0  0  0
 29 27  1  1  0  0  0
 29 33  1  0  0  0  0
 30 28  1  6  0  0  0
 30 29  1  0  0  0  0
 31 32  1  0  0  0  0
 32 33  1  0  0  0  0
 34 30  1  0  0  0  0
 34 31  1  0  0  0  0
M  END
>  <MODEL>
7

>  <REMARK>
 VINA RESULT:      -5.3      2.777      5.482
  Name = 
  3 active torsions:
  status: ('A' for Active; 'I' for Inactive)
    1  A    between atoms: C_3  and  C_13
    2  A    between atoms: C_3  and  N_17
    3  A    between atoms: C_12  and  C_28
                            x       y       z     vdW  Elec       q    Type
                         _______ _______ _______ _____ _____    ______ ____

>  <TORSDO>
F 3

$$$$
=
 OpenBabel11062408033D

 34 39  0  0  1  0  0  0  0  0999 V2000
  162.2450  208.8470  151.4510 C   0  0  0  0  0  0  0  0  0  0  0  0
  161.6640  209.4580  149.0960 C   0  0  0  0  0  0  0  0  0  0  0  0
  161.0860  211.0470  151.0200 C   0  0  0  0  0  0  0  0  0  0  0  0
  159.9660  213.2150  151.0290 C   0  0  1  0  0  3  0  0  0  0  0  0
  162.5560  207.2590  149.6100 C   0  0  0  0  0  3  0  0  0  0  0  0
  162.1320  208.1250  148.6900 C   0  0  0  0  0  3  0  0  0  0  0  0
  161.5790  212.6620  149.2590 N   0  0  0  0  0  0  0  0  0  0  0  0
  162.0360  209.9880  150.4710 C   0  0  1  0  0  3  0  0  0  0  0  0
  161.5770  214.3900  147.6290 N   0  0  0  0  0  2  0  0  0  0  0  0
  159.6910  214.4530  149.7190 S   0  0  0  0  0  0  0  0  0  0  0  0
  162.5180  207.6030  151.0410 C   0  0  0  0  0  3  0  0  0  0  0  0
  160.3910  210.8910  152.3620 C   0  0  1  0  0  3  0  0  0  0  0  0
  161.9410  209.1350  153.1840 S   0  0  0  0  0  0  0  0  0  0  0  0
  161.0270  210.1600  148.2670 O   0  0  0  0  0  0  0  0  0  0  0  0
  158.7660  212.5390  151.3460 O   0  0  0  0  0  0  0  0  0  0  0  0
  158.9920  211.5640  152.3650 C   0  0  2  0  0  3  0  0  0  0  0  0
  161.0760  213.7610  148.8080 C   0  0  0  0  0  0  0  0  0  0  0  0
  160.9400  212.2470  150.4520 C   0  0  0  0  0  0  0  0  0  0  0  0
  160.3180  209.5600  152.7970 O   0  0  0  0  0  0  0  0  0  0  0  0
  156.9470  212.8730  155.2720 C   0  0  0  0  0  0  0  0  0  0  0  0
  157.9320  213.0760  156.2420 C   0  0  0  0  0  3  0  0  0  0  0  0
  158.6360  212.0940  153.7170 C   0  0  0  0  0  0  0  0  0  0  0  0
  159.2690  212.7880  155.9550 C   0  0  0  0  0  3  0  0  0  0  0  0
  157.2990  212.3820  154.0100 C   0  0  0  0  0  3  0  0  0  0  0  0
  159.6210  212.2970  154.6930 C   0  0  0  0  0  3  0  0  0  0  0  0
  155.6190  213.1590  155.5590 O   0  0  0  0  0  1  0  0  0  0  0  0
  162.6870  213.8350  146.8700 C   0  0  0  0  0  2  0  0  0  0  0  0
  164.2040  213.1910  144.5080 F   0  0  0  0  0  0  0  0  0  0  0  0
  162.1610  212.9800  145.7290 C   0  0  2  0  0  3  0  0  0  0  0  0
  162.8370  213.3850  144.4150 C   0  0  2  0  0  3  0  0  0  0  0  0
  160.8920  212.8750  143.1440 C   0  0  0  0  0  2  0  0  0  0  0  0
  160.1200  212.4230  144.3800 C   0  0  0  0  0  2  0  0  0  0  0  0
  160.6490  213.1640  145.6030 C   0  0  0  0  0  2  0  0  0  0  0  0
  162.3150  212.5800  143.3110 N   0  0  0  0  0  2  0  0  0  0  0  0
  1 13  1  0  0  0  0
  4 10  1  6  0  0  0
  4 15  1  0  0  0  0
  5 11  1  0  0  0  0
  6  2  1  0  0  0  0
  6  5  2  0  0  0  0
  7 18  1  0  0  0  0
  8  2  1  6  0  0  0
  8  3  1  0  0  0  0
  8  1  1  0  0  0  0
  9 17  1  0  0  0  0
 11  1  2  0  0  0  0
 12  3  1  6  0  0  0
 12 16  1  0  0  0  0
 12 19  1  0  0  0  0
 14  2  2  0  0  0  0
 15 16  1  0  0  0  0
 16 22  1  1  0  0  0
 17  7  2  0  0  0  0
 17 10  1  0  0  0  0
 18  3  2  0  0  0  0
 18  4  1  0  0  0  0
 19 13  1  0  0  0  0
 20 26  1  0  0  0  0
 20 21  1  0  0  0  0
 22 24  1  0  0  0  0
 22 25  2  0  0  0  0
 23 21  2  0  0  0  0
 24 20  2  0  0  0  0
 25 23  1  0  0  0  0
 27  9  1  0  0  0  0
 29 27  1  1  0  0  0
 30 28  1  1  0  0  0
 30 29  1  0  0  0  0
 31 34  1  0  0  0  0
 31 32  1  0  0  0  0
 32 33  1  0  0  0  0
 33 29  1  0  0  0  0
 34 30  1  0  0  0  0
M  END
>  <MODEL>
8

>  <REMARK>
 VINA RESULT:      -5.2      3.958      6.957
  Name = 
  3 active torsions:
  status: ('A' for Active; 'I' for Inactive)
    1  A    between atoms: C_3  and  C_13
    2  A    between atoms: C_3  and  N_17
    3  A    between atoms: C_12  and  C_28
                            x       y       z     vdW  Elec       q    Type
                         _______ _______ _______ _____ _____    ______ ____

>  <TORSDO>
F 3

$$$$
