=
 OpenBabel11062410533D

 32 36  0  0  1  0  0  0  0  0999 V2000
  161.2750  205.1840  149.7790 C   0  0  0  0  0  0  0  0  0  0  0  0
  160.5340  208.9550  152.9470 C   0  0  2  0  0  3  0  0  0  0  0  0
  159.6310  211.2880  153.0560 C   0  0  0  0  0  0  0  0  0  0  0  0
  159.3810  212.4810  153.8550 C   0  0  0  0  0  0  0  0  0  0  0  0
  161.8210  207.5780  151.2440 C   0  0  1  0  0  3  0  0  0  0  0  0
  160.9470  206.4810  153.2270 C   0  0  0  0  0  2  0  0  0  0  0  0
  159.5930  213.8500  155.5670 N   0  0  0  0  0  0  0  0  0  0  0  0
  161.2780  205.2250  151.2770 C   0  0  0  0  0  2  0  0  0  0  0  0
  161.0470  207.8620  153.8940 C   0  0  2  0  0  3  0  0  0  0  0  0
  160.3360  207.9070  155.2590 C   0  0  2  0  0  3  0  0  0  0  0  0
  160.9960  210.3590  154.9870 C   0  0  2  0  0  3  0  0  0  0  0  0
  158.7070  214.3910  154.7060 C   0  0  0  0  0  3  0  0  0  0  0  0
  161.1210  206.4770  149.0320 C   0  0  0  0  0  2  0  0  0  0  0  0
  160.8840  206.5500  151.7590 N   0  0  2  0  0  0  0  0  0  0  0  0
  158.5430  213.5520  153.6050 C   0  0  0  0  0  3  0  0  0  0  0  0
  161.9570  207.5620  149.7100 C   0  0  0  0  0  2  0  0  0  0  0  0
  161.3860  204.0080  149.1540 C   0  0  0  0  0  3  0  0  0  0  0  0
  160.2940  209.3230  155.8800 C   0  0  1  0  0  3  0  0  0  0  0  0
  161.0600  211.7800  155.5940 C   0  0  0  0  0  2  0  0  0  0  0  0
  161.4000  208.9880  151.6870 C   0  0  0  0  0  2  0  0  0  0  0  0
  159.0900  211.1510  151.9250 O   0  0  0  0  0  0  0  0  0  0  0  0
  160.0390  214.4520  156.8110 C   0  0  0  0  0  1  0  0  0  0  0  0
  160.4920  210.2680  153.5990 N   0  0  0  0  0  0  0  0  0  0  0  0
  159.9920  212.6790  155.0520 C   0  0  0  0  0  0  0  0  0  0  0  0
  160.0770  206.9160  157.2240 C   0  0  0  0  0  1  0  0  0  0  0  0
  160.9620  207.0310  156.1500 O   0  0  0  0  0  0  0  0  0  0  0  0
  158.7830  210.7630  157.2540 C   0  0  0  0  0  1  0  0  0  0  0  0
  158.8480  209.7210  156.1550 C   0  0  0  0  0  2  0  0  0  0  0  0
  161.3800  203.8780  147.6630 C   0  0  0  0  0  2  0  0  0  0  0  0
  161.0630  202.4750  147.2810 C   0  0  0  0  0  0  0  0  0  0  0  0
  160.9830  201.4910  148.2570 O   0  0  0  0  0  1  0  0  0  0  0  0
  160.8980  202.1760  146.0710 O   0  0  0  0  0  0  0  0  0  0  0  0
  1  8  1  0  0  0  0
  2 20  1  6  0  0  0
  2 23  1  0  0  0  0
  2  9  1  0  0  0  0
  3 23  1  0  0  0  0
  3  4  1  0  0  0  0
  4 24  2  0  0  0  0
  5 16  1  6  0  0  0
  5 20  1  0  0  0  0
  5 14  1  0  0  0  0
  7 22  1  0  0  0  0
  9  6  1  6  0  0  0
  9 10  1  0  0  0  0
 10 18  1  0  0  0  0
 10 26  1  1  0  0  0
 11 19  1  1  0  0  0
 11 18  1  0  0  0  0
 12  7  1  0  0  0  0
 13 16  1  0  0  0  0
 13  1  1  0  0  0  0
 14  8  1  6  0  0  0
 14  6  1  0  0  0  0
 15  4  1  0  0  0  0
 15 12  2  0  0  0  0
 17  1  2  0  0  0  0
 18 28  1  6  0  0  0
 21  3  2  0  0  0  0
 23 11  1  0  0  0  0
 24  7  1  0  0  0  0
 24 19  1  0  0  0  0
 26 25  1  0  0  0  0
 28 27  1  0  0  0  0
 29 17  1  0  0  0  0
 30 29  1  0  0  0  0
 30 31  1  0  0  0  0
 32 30  2  0  0  0  0
M  END
>  <MODEL>
1

>  <REMARK>
 VINA RESULT:      -7.5      0.000      0.000
  Name = 
  4 active torsions:
  status: ('A' for Active; 'I' for Inactive)
    1  A    between atoms: C_1  and  C_10
    2  A    between atoms: C_10  and  C_24
    3  A    between atoms: O_13  and  C_15
    4  A    between atoms: C_25  and  C_26
                            x       y       z     vdW  Elec       q    Type
                         _______ _______ _______ _____ _____    ______ ____

>  <TORSDO>
F 4

$$$$
=
 OpenBabel11062410533D

 32 36  0  0  1  0  0  0  0  0999 V2000
  162.2230  205.3700  146.9700 C   0  0  0  0  0  0  0  0  0  0  0  0
  161.3160  207.5700  151.3440 C   0  0  2  0  0  3  0  0  0  0  0  0
  160.9440  207.0590  153.7680 C   0  0  0  0  0  0  0  0  0  0  0  0
  160.6500  207.5570  155.1050 C   0  0  0  0  0  0  0  0  0  0  0  0
  160.7150  206.4670  149.1380 C   0  0  1  0  0  3  0  0  0  0  0  0
  162.2210  208.3730  149.1290 C   0  0  0  0  0  2  0  0  0  0  0  0
  159.9660  209.0010  156.6210 N   0  0  0  0  0  0  0  0  0  0  0  0
  162.3560  206.8000  147.3970 C   0  0  0  0  0  2  0  0  0  0  0  0
  161.5170  208.7870  150.4310 C   0  0  2  0  0  3  0  0  0  0  0  0
  162.2490  209.9310  151.1550 C   0  0  2  0  0  3  0  0  0  0  0  0
  160.4330  209.3770  152.8620 C   0  0  2  0  0  3  0  0  0  0  0  0
  160.3690  207.8830  157.2610 C   0  0  0  0  0  3  0  0  0  0  0  0
  161.6340  204.3890  147.9420 C   0  0  0  0  0  2  0  0  0  0  0  0
  162.0860  206.9380  148.8300 N   0  0  2  0  0  0  0  0  0  0  0  0
  160.8130  206.9410  156.3330 C   0  0  0  0  0  3  0  0  0  0  0  0
  160.4440  205.0280  148.6580 C   0  0  0  0  0  2  0  0  0  0  0  0
  162.6460  205.0050  145.7560 C   0  0  0  0  0  3  0  0  0  0  0  0
  161.6470  210.2650  152.5400 C   0  0  1  0  0  3  0  0  0  0  0  0
  159.7350  209.7190  154.1990 C   0  0  0  0  0  2  0  0  0  0  0  0
  160.4220  206.5460  150.6440 C   0  0  0  0  0  2  0  0  0  0  0  0
  161.3610  205.8800  153.6010 O   0  0  0  0  0  0  0  0  0  0  0  0
  159.4120  210.1840  157.2560 C   0  0  0  0  0  1  0  0  0  0  0  0
  160.7670  207.9510  152.6510 N   0  0  0  0  0  0  0  0  0  0  0  0
  160.1510  208.8040  155.3090 C   0  0  0  0  0  0  0  0  0  0  0  0
  161.0180  211.7000  150.6350 C   0  0  0  0  0  1  0  0  0  0  0  0
  162.2390  211.0810  150.3590 O   0  0  0  0  0  0  0  0  0  0  0  0
  162.3600  210.9690  154.8290 C   0  0  0  0  0  1  0  0  0  0  0  0
  162.7230  210.1390  153.6130 C   0  0  0  0  0  2  0  0  0  0  0  0
  162.5610  203.5970  145.2560 C   0  0  0  0  0  2  0  0  0  0  0  0
  161.1350  203.2070  145.0910 C   0  0  0  0  0  0  0  0  0  0  0  0
  160.6900  201.9820  145.5730 O   0  0  0  0  0  1  0  0  0  0  0  0
  160.3390  203.9710  144.4880 O   0  0  0  0  0  0  0  0  0  0  0  0
  1  8  1  0  0  0  0
  1 13  1  0  0  0  0
  2 20  1  6  0  0  0
  2 23  1  0  0  0  0
  3  4  1  0  0  0  0
  4 24  2  0  0  0  0
  4 15  1  0  0  0  0
  5 16  1  1  0  0  0
  5 20  1  0  0  0  0
  7 22  1  0  0  0  0
  7 12  1  0  0  0  0
  9  6  1  6  0  0  0
  9 10  1  0  0  0  0
  9  2  1  0  0  0  0
 10 26  1  6  0  0  0
 10 18  1  0  0  0  0
 11 19  1  1  0  0  0
 13 16  1  0  0  0  0
 14  8  1  6  0  0  0
 14  6  1  0  0  0  0
 14  5  1  0  0  0  0
 15 12  2  0  0  0  0
 17  1  2  0  0  0  0
 18 11  1  0  0  0  0
 18 28  1  1  0  0  0
 19 24  1  0  0  0  0
 21  3  2  0  0  0  0
 23 11  1  0  0  0  0
 23  3  1  0  0  0  0
 24  7  1  0  0  0  0
 26 25  1  0  0  0  0
 28 27  1  0  0  0  0
 29 17  1  0  0  0  0
 30 29  1  0  0  0  0
 30 31  1  0  0  0  0
 32 30  2  0  0  0  0
M  END
>  <MODEL>
2

>  <REMARK>
 VINA RESULT:      -6.6      2.279      4.388
  Name = 
  4 active torsions:
  status: ('A' for Active; 'I' for Inactive)
    1  A    between atoms: C_1  and  C_10
    2  A    between atoms: C_10  and  C_24
    3  A    between atoms: O_13  and  C_15
    4  A    between atoms: C_25  and  C_26
                            x       y       z     vdW  Elec       q    Type
                         _______ _______ _______ _____ _____    ______ ____

>  <TORSDO>
F 4

$$$$
=
 OpenBabel11062410533D

 32 36  0  0  1  0  0  0  0  0999 V2000
  161.3650  202.3620  147.9070 C   0  0  0  0  0  0  0  0  0  0  0  0
  161.1740  206.1960  151.0790 C   0  0  2  0  0  3  0  0  0  0  0  0
  161.2810  206.7390  153.5220 C   0  0  0  0  0  0  0  0  0  0  0  0
  161.2140  207.7530  154.5660 C   0  0  0  0  0  0  0  0  0  0  0  0
  160.2310  204.3020  149.6750 C   0  0  1  0  0  3  0  0  0  0  0  0
  161.6150  205.9850  148.6030 C   0  0  0  0  0  2  0  0  0  0  0  0
  160.7510  209.7140  155.4560 N   0  0  0  0  0  0  0  0  0  0  0  0
  161.5050  203.8360  147.6770 C   0  0  0  0  0  2  0  0  0  0  0  0
  161.1440  206.9210  149.7270 C   0  0  2  0  0  3  0  0  0  0  0  0
  161.9410  208.2380  149.7670 C   0  0  2  0  0  3  0  0  0  0  0  0
  160.4990  208.4940  151.8580 C   0  0  2  0  0  3  0  0  0  0  0  0
  161.3200  208.9460  156.4090 C   0  0  0  0  0  3  0  0  0  0  0  0
  161.0140  201.8870  149.2870 C   0  0  0  0  0  2  0  0  0  0  0  0
  161.4980  204.5600  148.9490 N   0  0  2  0  0  0  0  0  0  0  0  0
  161.6300  207.6930  155.8840 C   0  0  0  0  0  3  0  0  0  0  0  0
  159.9470  202.8020  149.8870 C   0  0  0  0  0  2  0  0  0  0  0  0
  161.5750  201.5160  146.8940 C   0  0  0  0  0  3  0  0  0  0  0  0
  161.5880  209.1310  150.9790 C   0  0  1  0  0  3  0  0  0  0  0  0
  160.0430  209.3790  153.0430 C   0  0  0  0  0  2  0  0  0  0  0  0
  160.2180  205.0040  151.0420 C   0  0  0  0  0  2  0  0  0  0  0  0
  161.7160  205.5840  153.7780 O   0  0  0  0  0  0  0  0  0  0  0  0
  160.2670  211.0710  155.6410 C   0  0  0  0  0  1  0  0  0  0  0  0
  160.8570  207.0980  152.1920 N   0  0  0  0  0  0  0  0  0  0  0  0
  160.7000  208.9890  154.3300 C   0  0  0  0  0  0  0  0  0  0  0  0
  162.0320  210.2810  148.9120 C   0  0  0  0  0  1  0  0  0  0  0  0
  161.7280  208.9580  148.5870 O   0  0  0  0  0  0  0  0  0  0  0  0
  162.7230  210.7540  152.5040 C   0  0  0  0  0  1  0  0  0  0  0  0
  162.8480  209.4240  151.7860 C   0  0  0  0  0  2  0  0  0  0  0  0
  161.4670  200.0310  147.0400 C   0  0  0  0  0  2  0  0  0  0  0  0
  161.0030  199.4300  145.7610 C   0  0  0  0  0  0  0  0  0  0  0  0
  160.2370  200.1810  144.8780 O   0  0  0  0  0  0  0  0  0  0  0  0
  161.2770  198.2330  145.4920 O   0  0  0  0  0  1  0  0  0  0  0  0
  1 13  1  0  0  0  0
  2 20  1  6  0  0  0
  2 23  1  0  0  0  0
  3 21  2  0  0  0  0
  3  4  1  0  0  0  0
  4 15  1  0  0  0  0
  5 16  1  1  0  0  0
  5 20  1  0  0  0  0
  6 14  1  0  0  0  0
  7 22  1  0  0  0  0
  7 12  1  0  0  0  0
  8  1  1  0  0  0  0
  9  6  1  6  0  0  0
  9 10  1  0  0  0  0
  9  2  1  0  0  0  0
 10 26  1  6  0  0  0
 10 18  1  0  0  0  0
 11 23  1  0  0  0  0
 11 19  1  1  0  0  0
 13 16  1  0  0  0  0
 14  8  1  6  0  0  0
 14  5  1  0  0  0  0
 15 12  2  0  0  0  0
 17 29  1  0  0  0  0
 17  1  2  0  0  0  0
 18 28  1  1  0  0  0
 18 11  1  0  0  0  0
 19 24  1  0  0  0  0
 23  3  1  0  0  0  0
 24  4  2  0  0  0  0
 24  7  1  0  0  0  0
 26 25  1  0  0  0  0
 28 27  1  0  0  0  0
 30 29  1  0  0  0  0
 31 30  2  0  0  0  0
 32 30  1  0  0  0  0
M  END
>  <MODEL>
3

>  <REMARK>
 VINA RESULT:      -6.4      2.209      4.942
  Name = 
  4 active torsions:
  status: ('A' for Active; 'I' for Inactive)
    1  A    between atoms: C_1  and  C_10
    2  A    between atoms: C_10  and  C_24
    3  A    between atoms: O_13  and  C_15
    4  A    between atoms: C_25  and  C_26
                            x       y       z     vdW  Elec       q    Type
                         _______ _______ _______ _____ _____    ______ ____

>  <TORSDO>
F 4

$$$$
=
 OpenBabel11062410533D

 32 36  0  0  1  0  0  0  0  0999 V2000
  161.9220  206.4590  147.9430 C   0  0  0  0  0  0  0  0  0  0  0  0
  161.0220  209.1620  152.0270 C   0  0  2  0  0  3  0  0  0  0  0  0
  159.9950  211.3210  152.7750 C   0  0  0  0  0  0  0  0  0  0  0  0
  159.6920  212.2300  153.8720 C   0  0  0  0  0  0  0  0  0  0  0  0
  162.3580  208.3820  150.0130 C   0  0  1  0  0  3  0  0  0  0  0  0
  161.5720  206.7330  151.6140 C   0  0  0  0  0  2  0  0  0  0  0  0
  159.8530  213.0830  155.8960 N   0  0  0  0  0  0  0  0  0  0  0  0
  161.9440  206.0850  149.3930 C   0  0  0  0  0  2  0  0  0  0  0  0
  161.6060  207.8800  152.6370 C   0  0  2  0  0  3  0  0  0  0  0  0
  160.9130  207.5080  153.9600 C   0  0  2  0  0  3  0  0  0  0  0  0
  161.4350  209.9720  154.3770 C   0  0  2  0  0  3  0  0  0  0  0  0
  158.9260  213.7910  155.2170 C   0  0  0  0  0  3  0  0  0  0  0  0
  161.6880  207.8970  147.5820 C   0  0  0  0  0  2  0  0  0  0  0  0
  161.4860  207.2020  150.2220 N   0  0  2  0  0  0  0  0  0  0  0  0
  158.7930  213.2800  153.9260 C   0  0  0  0  0  3  0  0  0  0  0  0
  162.4740  208.7980  148.5340 C   0  0  0  0  0  2  0  0  0  0  0  0
  162.0880  205.5100  147.0170 C   0  0  0  0  0  3  0  0  0  0  0  0
  160.8020  208.6920  154.9480 C   0  0  1  0  0  3  0  0  0  0  0  0
  161.4300  211.1720  155.3530 C   0  0  0  0  0  2  0  0  0  0  0  0
  161.8670  209.5900  150.8270 C   0  0  0  0  0  2  0  0  0  0  0  0
  159.4470  211.4700  151.6500 O   0  0  0  0  0  0  0  0  0  0  0  0
  160.2820  213.3430  157.2590 C   0  0  0  0  0  1  0  0  0  0  0  0
  160.9180  210.2400  153.0170 N   0  0  0  0  0  0  0  0  0  0  0  0
  160.3080  212.1240  155.0790 C   0  0  0  0  0  0  0  0  0  0  0  0
  160.9090  205.3040  154.1930 C   0  0  0  0  0  1  0  0  0  0  0  0
  161.5970  206.4560  154.5760 O   0  0  0  0  0  0  0  0  0  0  0  0
  158.7770  207.6990  156.0240 C   0  0  0  0  0  1  0  0  0  0  0  0
  159.3400  208.9180  155.3190 C   0  0  0  0  0  2  0  0  0  0  0  0
  162.0690  205.7950  145.5480 C   0  0  0  0  0  2  0  0  0  0  0  0
  160.7430  205.4320  144.9810 C   0  0  0  0  0  0  0  0  0  0  0  0
  160.6670  204.6330  143.8470 O   0  0  0  0  0  0  0  0  0  0  0  0
  159.6900  205.8730  145.5100 O   0  0  0  0  0  1  0  0  0  0  0  0
  1  8  1  0  0  0  0
  2 20  1  6  0  0  0
  2  9  1  0  0  0  0
  2 23  1  0  0  0  0
  3 23  1  0  0  0  0
  3  4  1  0  0  0  0
  4 15  1  0  0  0  0
  4 24  2  0  0  0  0
  5 16  1  6  0  0  0
  5 14  1  0  0  0  0
  5 20  1  0  0  0  0
  7 22  1  0  0  0  0
  9  6  1  6  0  0  0
  9 10  1  0  0  0  0
 10 26  1  1  0  0  0
 10 18  1  0  0  0  0
 11 18  1  0  0  0  0
 11 19  1  1  0  0  0
 12  7  1  0  0  0  0
 13  1  1  0  0  0  0
 13 16  1  0  0  0  0
 14  8  1  6  0  0  0
 14  6  1  0  0  0  0
 15 12  2  0  0  0  0
 17  1  2  0  0  0  0
 18 28  1  6  0  0  0
 21  3  2  0  0  0  0
 23 11  1  0  0  0  0
 24 19  1  0  0  0  0
 24  7  1  0  0  0  0
 25 26  1  0  0  0  0
 28 27  1  0  0  0  0
 29 17  1  0  0  0  0
 30 32  1  0  0  0  0
 30 29  1  0  0  0  0
 31 30  2  0  0  0  0
M  END
>  <MODEL>
4

>  <REMARK>
 VINA RESULT:      -5.4      1.727      2.119
  Name = 
  4 active torsions:
  status: ('A' for Active; 'I' for Inactive)
    1  A    between atoms: C_1  and  C_10
    2  A    between atoms: C_10  and  C_24
    3  A    between atoms: O_13  and  C_15
    4  A    between atoms: C_25  and  C_26
                            x       y       z     vdW  Elec       q    Type
                         _______ _______ _______ _____ _____    ______ ____

>  <TORSDO>
F 4

$$$$
=
 OpenBabel11062410533D

 32 36  0  0  1  0  0  0  0  0999 V2000
  160.7770  213.0710  146.0810 C   0  0  0  0  0  0  0  0  0  0  0  0
  160.8400  211.3120  150.7390 C   0  0  2  0  0  3  0  0  0  0  0  0
  159.6880  211.5490  152.9510 C   0  0  0  0  0  0  0  0  0  0  0  0
  159.6070  211.1530  154.3500 C   0  0  0  0  0  0  0  0  0  0  0  0
  161.4830  212.8750  148.8450 C   0  0  1  0  0  3  0  0  0  0  0  0
  161.7480  210.4810  148.5360 C   0  0  0  0  0  2  0  0  0  0  0  0
  160.2970  210.2710  156.2470 N   0  0  0  0  0  0  0  0  0  0  0  0
  161.4180  211.8460  146.6610 C   0  0  0  0  0  2  0  0  0  0  0  0
  161.8880  210.4160  150.0650 C   0  0  2  0  0  3  0  0  0  0  0  0
  161.8360  208.9730  150.5980 C   0  0  2  0  0  3  0  0  0  0  0  0
  161.8870  210.2850  152.7880 C   0  0  2  0  0  3  0  0  0  0  0  0
  159.0480  210.7460  156.4370 C   0  0  0  0  0  3  0  0  0  0  0  0
  160.1000  214.0300  147.0160 C   0  0  0  0  0  2  0  0  0  0  0  0
  161.0490  211.6890  148.0690 N   0  0  2  0  0  0  0  0  0  0  0  0
  158.5730  211.3140  155.2550 C   0  0  0  0  0  3  0  0  0  0  0  0
  160.9480  214.2030  148.2750 C   0  0  0  0  0  2  0  0  0  0  0  0
  160.8080  213.2640  144.7590 C   0  0  0  0  0  3  0  0  0  0  0  0
  161.8240  208.8910  152.1430 C   0  0  1  0  0  3  0  0  0  0  0  0
  161.9620  210.2660  154.3330 C   0  0  0  0  0  2  0  0  0  0  0  0
  161.0600  212.7640  150.3180 C   0  0  0  0  0  2  0  0  0  0  0  0
  158.7460  212.1900  152.4110 O   0  0  0  0  0  0  0  0  0  0  0  0
  161.1250  209.6400  157.2610 C   0  0  0  0  0  1  0  0  0  0  0  0
  160.8590  211.1720  152.2000 N   0  0  0  0  0  0  0  0  0  0  0  0
  160.6290  210.5080  154.9710 C   0  0  0  0  0  0  0  0  0  0  0  0
  162.3570  207.1780  149.4080 C   0  0  0  0  0  1  0  0  0  0  0  0
  162.9240  208.2450  150.1070 O   0  0  0  0  0  0  0  0  0  0  0  0
  160.9930  206.7890  153.2080 C   0  0  0  0  0  1  0  0  0  0  0  0
  160.5920  208.1220  152.6080 C   0  0  0  0  0  2  0  0  0  0  0  0
  160.1840  214.4530  144.0980 C   0  0  0  0  0  2  0  0  0  0  0  0
  158.8790  214.0680  143.4950 C   0  0  0  0  0  0  0  0  0  0  0  0
  158.8270  213.6150  142.1830 O   0  0  0  0  0  0  0  0  0  0  0  0
  157.8200  214.1830  144.1630 O   0  0  0  0  0  1  0  0  0  0  0  0
  1  8  1  0  0  0  0
  1 13  1  0  0  0  0
  2 20  1  1  0  0  0
  2 23  1  0  0  0  0
  3  4  1  0  0  0  0
  4 24  2  0  0  0  0
  4 15  1  0  0  0  0
  5 16  1  6  0  0  0
  5 20  1  0  0  0  0
  7 12  1  0  0  0  0
  7 22  1  0  0  0  0
  9  6  1  6  0  0  0
  9 10  1  0  0  0  0
  9  2  1  0  0  0  0
 10 26  1  1  0  0  0
 10 18  1  0  0  0  0
 11 19  1  1  0  0  0
 13 16  1  0  0  0  0
 14  8  1  6  0  0  0
 14  6  1  0  0  0  0
 14  5  1  0  0  0  0
 15 12  2  0  0  0  0
 17  1  2  0  0  0  0
 18 28  1  6  0  0  0
 18 11  1  0  0  0  0
 19 24  1  0  0  0  0
 21  3  2  0  0  0  0
 23 11  1  0  0  0  0
 23  3  1  0  0  0  0
 24  7  1  0  0  0  0
 25 26  1  0  0  0  0
 28 27  1  0  0  0  0
 29 17  1  0  0  0  0
 30 29  1  0  0  0  0
 30 32  1  0  0  0  0
 31 30  2  0  0  0  0
M  END
>  <MODEL>
5

>  <REMARK>
 VINA RESULT:      -4.9      4.666      6.689
  Name = 
  4 active torsions:
  status: ('A' for Active; 'I' for Inactive)
    1  A    between atoms: C_1  and  C_10
    2  A    between atoms: C_10  and  C_24
    3  A    between atoms: O_13  and  C_15
    4  A    between atoms: C_25  and  C_26
                            x       y       z     vdW  Elec       q    Type
                         _______ _______ _______ _____ _____    ______ ____

>  <TORSDO>
F 4

$$$$
