=
 OpenBabel11062410483D

 32 36  0  0  0  0  0  0  0  0999 V2000
  161.3680  203.7300  146.9920 C   0  0  0  0  0  3  0  0  0  0  0  0
  161.2130  207.2850  150.8930 C   0  0  0  0  0  0  0  0  0  0  0  0
  162.2180  211.3360  148.3200 C   0  0  0  0  0  3  0  0  0  0  0  0
  162.1480  212.0430  149.4490 C   0  0  0  0  0  3  0  0  0  0  0  0
  161.0940  205.0980  149.8230 C   0  0  0  0  0  0  0  0  0  0  0  0
  161.5580  207.0890  148.5090 C   0  0  0  0  0  3  0  0  0  0  0  0
  161.4600  205.0200  147.2830 C   0  0  0  0  0  3  0  0  0  0  0  0
  161.9880  209.9230  148.3550 N   0  0  0  0  0  2  0  0  0  0  0  0
  161.4850  207.8860  149.6550 C   0  0  0  0  0  0  0  0  0  0  0  0
  161.6840  209.2720  149.5990 C   0  0  0  0  0  0  0  0  0  0  0  0
  161.3070  209.3920  152.0020 C   0  0  0  0  0  0  0  0  0  0  0  0
  160.4260  201.1170  150.0650 S   0  0  0  0  0  1  0  0  0  0  0  0
  160.8840  202.6110  149.1780 C   0  0  0  0  0  0  0  0  0  0  0  0
  161.3660  205.7030  148.5730 C   0  0  0  0  0  0  0  0  0  0  0  0
  160.8880  203.8010  150.0430 C   0  0  0  0  0  3  0  0  0  0  0  0
  161.1440  202.5650  147.8540 C   0  0  0  0  0  0  0  0  0  0  0  0
  161.8320  211.3650  150.7220 C   0  0  0  0  0  3  0  0  0  0  0  0
  161.6040  210.0400  150.7800 C   0  0  0  0  0  0  0  0  0  0  0  0
  161.0210  205.9070  150.9650 C   0  0  0  0  0  3  0  0  0  0  0  0
  161.1350  208.0410  152.0190 N   0  0  0  0  0  0  0  0  0  0  0  0
  162.2190  210.6940  155.4140 C   0  0  0  0  0  0  0  0  0  0  0  0
  161.1000  211.4580  155.7480 C   0  0  0  0  0  3  0  0  0  0  0  0
  160.0650  210.8840  153.6280 C   0  0  0  0  0  0  0  0  0  0  0  0
  158.9410  212.2910  155.2130 F   0  0  0  0  0  0  0  0  0  0  0  0
  160.0250  211.5550  154.8610 C   0  0  0  0  0  0  0  0  0  0  0  0
  162.2680  210.0270  154.1890 C   0  0  0  0  0  3  0  0  0  0  0  0
  163.2560  210.5970  156.2800 F   0  0  0  0  0  0  0  0  0  0  0  0
  158.8770  210.9550  152.7240 C   0  0  0  0  0  1  0  0  0  0  0  0
  161.2060  210.1250  153.2820 C   0  0  0  0  0  0  0  0  0  0  0  0
  161.1550  201.3150  147.1540 N   0  0  0  0  0  2  0  0  0  0  0  0
  160.5470  201.1330  145.9010 C   0  0  0  0  0  0  0  0  0  0  0  0
  160.0470  200.9830  144.8680 N   0  0  0  0  0  0  0  0  0  0  0  0
  1  7  2  0  0  0  0
  1 16  1  0  0  0  0
  2 19  2  0  0  0  0
  2 20  1  0  0  0  0
  3  8  1  0  0  0  0
  3  4  2  0  0  0  0
  4 17  1  0  0  0  0
  5 15  2  0  0  0  0
  5 19  1  0  0  0  0
  6 14  2  0  0  0  0
  6  9  1  0  0  0  0
  7 14  1  0  0  0  0
  8 10  1  0  0  0  0
  9  2  1  0  0  0  0
 10  9  2  0  0  0  0
 10 18  1  0  0  0  0
 11 20  2  0  0  0  0
 11 29  1  0  0  0  0
 13 15  1  0  0  0  0
 13 12  1  0  0  0  0
 14  5  1  0  0  0  0
 16 13  2  0  0  0  0
 17 18  2  0  0  0  0
 18 11  1  0  0  0  0
 21 22  1  0  0  0  0
 21 27  1  0  0  0  0
 23 25  1  0  0  0  0
 25 24  1  0  0  0  0
 25 22  2  0  0  0  0
 26 21  2  0  0  0  0
 28 23  1  0  0  0  0
 29 23  2  0  0  0  0
 29 26  1  0  0  0  0
 30 16  1  0  0  0  0
 31 30  1  0  0  0  0
 32 31  3  0  0  0  0
M  END
>  <MODEL>
1

>  <REMARK>
 VINA RESULT:      -9.0      0.000      0.000
  Name = 
  3 active torsions:
  status: ('A' for Active; 'I' for Inactive)
    1  A    between atoms: C_1  and  N_10
    2  A    between atoms: N_10  and  C_24
    3  A    between atoms: C_16  and  C_32
                            x       y       z     vdW  Elec       q    Type
                         _______ _______ _______ _____ _____    ______ ____

>  <TORSDO>
F 3

$$$$
=
 OpenBabel11062410483D

 32 36  0  0  0  0  0  0  0  0999 V2000
  160.9550  207.7780  155.4990 C   0  0  0  0  0  3  0  0  0  0  0  0
  161.0280  206.0690  150.5030 C   0  0  0  0  0  0  0  0  0  0  0  0
  161.1910  201.2360  151.3170 C   0  0  0  0  0  3  0  0  0  0  0  0
  161.2220  201.0380  149.9980 C   0  0  0  0  0  3  0  0  0  0  0  0
  160.9770  207.6650  152.3450 C   0  0  0  0  0  0  0  0  0  0  0  0
  161.0200  205.2760  152.7860 C   0  0  0  0  0  3  0  0  0  0  0  0
  160.9530  206.7020  154.7240 C   0  0  0  0  0  3  0  0  0  0  0  0
  161.1190  202.5710  151.8310 N   0  0  0  0  0  0  0  0  0  0  0  0
  161.0400  205.0030  151.4160 C   0  0  0  0  0  0  0  0  0  0  0  0
  161.0820  203.6900  150.9300 C   0  0  0  0  0  0  0  0  0  0  0  0
  161.0680  204.5640  148.6570 C   0  0  0  0  0  0  0  0  0  0  0  0
  160.7790  211.4850  153.6580 S   0  0  0  0  0  1  0  0  0  0  0  0
  160.9340  209.7120  153.9100 C   0  0  0  0  0  0  0  0  0  0  0  0
  160.9880  206.5910  153.2670 C   0  0  0  0  0  0  0  0  0  0  0  0
  160.9450  208.9610  152.6460 C   0  0  0  0  0  3  0  0  0  0  0  0
  160.9900  209.2040  155.1600 C   0  0  0  0  0  0  0  0  0  0  0  0
  161.1780  202.1950  149.0800 C   0  0  0  0  0  3  0  0  0  0  0  0
  161.1030  203.4570  149.5370 C   0  0  0  0  0  0  0  0  0  0  0  0
  160.9960  207.3800  150.9730 C   0  0  0  0  0  3  0  0  0  0  0  0
  161.0450  205.8260  149.1670 N   0  0  0  0  0  2  0  0  0  0  0  0
  160.7550  202.9560  145.2670 C   0  0  0  0  0  0  0  0  0  0  0  0
  161.1190  203.9970  144.4120 C   0  0  0  0  0  3  0  0  0  0  0  0
  161.4750  205.4540  146.3210 C   0  0  0  0  0  0  0  0  0  0  0  0
  161.8450  206.2340  144.0830 F   0  0  0  0  0  0  0  0  0  0  0  0
  161.4800  205.2420  144.9330 C   0  0  0  0  0  0  0  0  0  0  0  0
  160.7440  203.1600  146.6480 C   0  0  0  0  0  3  0  0  0  0  0  0
  160.4130  201.7490  144.7580 F   0  0  0  0  0  0  0  0  0  0  0  0
  161.9230  206.7770  146.8550 C   0  0  0  0  0  1  0  0  0  0  0  0
  161.0890  204.4060  147.1860 C   0  0  0  0  0  0  0  0  0  0  0  0
  161.0250  210.0700  156.3010 N   0  0  0  0  0  2  0  0  0  0  0  0
  162.2150  210.5980  156.8270 C   0  0  0  0  0  0  0  0  0  0  0  0
  163.1960  211.0320  157.2610 N   0  0  0  0  0  0  0  0  0  0  0  0
  2 19  2  0  0  0  0
  2  9  1  0  0  0  0
  3  8  2  0  0  0  0
  4  3  1  0  0  0  0
  5 15  2  0  0  0  0
  5 14  1  0  0  0  0
  6 14  2  0  0  0  0
  7  1  2  0  0  0  0
  9  6  1  0  0  0  0
 10  9  2  0  0  0  0
 10  8  1  0  0  0  0
 11 20  1  0  0  0  0
 11 18  2  0  0  0  0
 12 13  1  0  0  0  0
 13 16  2  0  0  0  0
 14  7  1  0  0  0  0
 15 13  1  0  0  0  0
 16  1  1  0  0  0  0
 16 30  1  0  0  0  0
 17 18  1  0  0  0  0
 17  4  2  0  0  0  0
 18 10  1  0  0  0  0
 19  5  1  0  0  0  0
 20  2  1  0  0  0  0
 21 26  1  0  0  0  0
 22 25  1  0  0  0  0
 22 21  2  0  0  0  0
 23 28  1  0  0  0  0
 23 29  1  0  0  0  0
 24 25  1  0  0  0  0
 25 23  2  0  0  0  0
 26 29  2  0  0  0  0
 27 21  1  0  0  0  0
 29 11  1  0  0  0  0
 30 31  1  0  0  0  0
 31 32  3  0  0  0  0
M  END
>  <MODEL>
2

>  <REMARK>
 VINA RESULT:      -8.5      4.623      9.513
  Name = 
  3 active torsions:
  status: ('A' for Active; 'I' for Inactive)
    1  A    between atoms: C_1  and  N_10
    2  A    between atoms: N_10  and  C_24
    3  A    between atoms: C_16  and  C_32
                            x       y       z     vdW  Elec       q    Type
                         _______ _______ _______ _____ _____    ______ ____

>  <TORSDO>
F 3

$$$$
=
 OpenBabel11062410483D

 32 36  0  0  0  0  0  0  0  0999 V2000
  161.4530  203.4540  146.9360 C   0  0  0  0  0  3  0  0  0  0  0  0
  161.0010  206.8050  150.9920 C   0  0  0  0  0  0  0  0  0  0  0  0
  162.2440  210.9710  148.7250 C   0  0  0  0  0  3  0  0  0  0  0  0
  162.0860  211.6200  149.8800 C   0  0  0  0  0  3  0  0  0  0  0  0
  160.9550  204.6780  149.8030 C   0  0  0  0  0  0  0  0  0  0  0  0
  161.5400  206.7280  148.6370 C   0  0  0  0  0  3  0  0  0  0  0  0
  161.5290  204.7260  147.3010 C   0  0  0  0  0  3  0  0  0  0  0  0
  162.0020  209.5610  148.6670 N   0  0  0  0  0  2  0  0  0  0  0  0
  161.3780  207.4660  149.8130 C   0  0  0  0  0  0  0  0  0  0  0  0
  161.5920  208.8500  149.8460 C   0  0  0  0  0  0  0  0  0  0  0  0
  161.0180  208.8510  152.2130 C   0  0  0  0  0  0  0  0  0  0  0  0
  160.2410  200.6970  149.7820 S   0  0  0  0  0  1  0  0  0  0  0  0
  160.7810  202.2300  149.0140 C   0  0  0  0  0  0  0  0  0  0  0  0
  161.3340  205.3430  148.6120 C   0  0  0  0  0  0  0  0  0  0  0  0
  160.7220  203.3740  149.9370 C   0  0  0  0  0  3  0  0  0  0  0  0
  161.1500  202.2490  147.7150 C   0  0  0  0  0  0  0  0  0  0  0  0
  161.6610  210.8810  151.0860 C   0  0  0  0  0  3  0  0  0  0  0  0
  161.4200  209.5580  151.0550 C   0  0  0  0  0  0  0  0  0  0  0  0
  160.7940  205.4270  150.9750 C   0  0  0  0  0  3  0  0  0  0  0  0
  160.8360  207.5030  152.1450 N   0  0  0  0  0  0  0  0  0  0  0  0
  160.3120  211.5610  154.7280 C   0  0  0  0  0  0  0  0  0  0  0  0
  160.4380  210.8800  155.9400 C   0  0  0  0  0  3  0  0  0  0  0  0
  160.9620  208.8330  154.7450 C   0  0  0  0  0  0  0  0  0  0  0  0
  160.8940  208.8830  157.1420 F   0  0  0  0  0  0  0  0  0  0  0  0
  160.7620  209.5220  155.9520 C   0  0  0  0  0  0  0  0  0  0  0  0
  160.5050  210.8830  153.5240 C   0  0  0  0  0  3  0  0  0  0  0  0
  160.0060  212.8800  154.7210 F   0  0  0  0  0  0  0  0  0  0  0  0
  161.3660  207.3940  154.7880 C   0  0  0  0  0  1  0  0  0  0  0  0
  160.8160  209.5180  153.5170 C   0  0  0  0  0  0  0  0  0  0  0  0
  161.2090  201.0360  146.9540 N   0  0  0  0  0  2  0  0  0  0  0  0
  160.5530  200.8700  145.7240 C   0  0  0  0  0  0  0  0  0  0  0  0
  160.0120  200.7330  144.7100 N   0  0  0  0  0  0  0  0  0  0  0  0
  1  7  2  0  0  0  0
  1 16  1  0  0  0  0
  2 20  1  0  0  0  0
  3  4  2  0  0  0  0
  4 17  1  0  0  0  0
  5 15  2  0  0  0  0
  5 19  1  0  0  0  0
  6  9  1  0  0  0  0
  7 14  1  0  0  0  0
  8  3  1  0  0  0  0
  8 10  1  0  0  0  0
  9 10  2  0  0  0  0
  9  2  1  0  0  0  0
 10 18  1  0  0  0  0
 11 29  1  0  0  0  0
 13 12  1  0  0  0  0
 13 15  1  0  0  0  0
 14  6  2  0  0  0  0
 14  5  1  0  0  0  0
 16 13  2  0  0  0  0
 18 17  2  0  0  0  0
 18 11  1  0  0  0  0
 19  2  2  0  0  0  0
 20 11  2  0  0  0  0
 21 22  1  0  0  0  0
 22 25  2  0  0  0  0
 23 28  1  0  0  0  0
 23 25  1  0  0  0  0
 25 24  1  0  0  0  0
 26 21  2  0  0  0  0
 27 21  1  0  0  0  0
 29 26  1  0  0  0  0
 29 23  2  0  0  0  0
 30 16  1  0  0  0  0
 31 30  1  0  0  0  0
 32 31  3  0  0  0  0
M  END
>  <MODEL>
3

>  <REMARK>
 VINA RESULT:      -8.0      1.019      1.662
  Name = 
  3 active torsions:
  status: ('A' for Active; 'I' for Inactive)
    1  A    between atoms: C_1  and  N_10
    2  A    between atoms: N_10  and  C_24
    3  A    between atoms: C_16  and  C_32
                            x       y       z     vdW  Elec       q    Type
                         _______ _______ _______ _____ _____    ______ ____

>  <TORSDO>
F 3

$$$$
=
 OpenBabel11062410483D

 32 36  0  0  0  0  0  0  0  0999 V2000
  161.2070  210.8360  153.8950 C   0  0  0  0  0  3  0  0  0  0  0  0
  161.2010  206.1810  151.4020 C   0  0  0  0  0  0  0  0  0  0  0  0
  161.2030  207.7620  146.7610 C   0  0  0  0  0  3  0  0  0  0  0  0
  161.1820  206.4930  146.3520 C   0  0  0  0  0  3  0  0  0  0  0  0
  161.1930  207.7410  153.2750 C   0  0  0  0  0  0  0  0  0  0  0  0
  161.2320  208.5620  150.9880 C   0  0  0  0  0  3  0  0  0  0  0  0
  161.2460  210.2440  152.7090 C   0  0  0  0  0  3  0  0  0  0  0  0
  161.2280  208.0540  148.1630 N   0  0  0  0  0  2  0  0  0  0  0  0
  161.2230  207.2530  150.4970 C   0  0  0  0  0  0  0  0  0  0  0  0
  161.2290  206.9850  149.1220 C   0  0  0  0  0  0  0  0  0  0  0  0
  161.2160  204.6010  149.6190 C   0  0  0  0  0  0  0  0  0  0  0  0
  161.2570  208.4210  157.2610 S   0  0  0  0  0  1  0  0  0  0  0  0
  161.1630  208.9560  155.5480 C   0  0  0  0  0  0  0  0  0  0  0  0
  161.2180  208.8240  152.3640 C   0  0  0  0  0  0  0  0  0  0  0  0
  161.1800  207.8290  154.6030 C   0  0  0  0  0  3  0  0  0  0  0  0
  161.1230  210.2720  155.2460 C   0  0  0  0  0  0  0  0  0  0  0  0
  161.1870  205.4010  147.3460 C   0  0  0  0  0  3  0  0  0  0  0  0
  161.2170  205.6480  148.6680 C   0  0  0  0  0  0  0  0  0  0  0  0
  161.1870  206.4330  152.7720 C   0  0  0  0  0  3  0  0  0  0  0  0
  161.1950  204.9010  150.9470 N   0  0  0  0  0  0  0  0  0  0  0  0
  161.1330  201.5340  147.4370 C   0  0  0  0  0  0  0  0  0  0  0  0
  161.1520  200.5020  148.3770 C   0  0  0  0  0  3  0  0  0  0  0  0
  161.2040  202.1310  150.1770 C   0  0  0  0  0  0  0  0  0  0  0  0
  161.1900  199.7770  150.6380 F   0  0  0  0  0  0  0  0  0  0  0  0
  161.1870  200.7950  149.7420 C   0  0  0  0  0  0  0  0  0  0  0  0
  161.1540  202.8630  147.8610 C   0  0  0  0  0  3  0  0  0  0  0  0
  161.0920  201.2450  146.1150 F   0  0  0  0  0  0  0  0  0  0  0  0
  161.1810  202.4170  151.6440 C   0  0  0  0  0  1  0  0  0  0  0  0
  161.2030  203.1750  149.2250 C   0  0  0  0  0  0  0  0  0  0  0  0
  161.0560  211.2590  156.2830 N   0  0  0  0  0  2  0  0  0  0  0  0
  160.2620  212.4130  156.1930 C   0  0  0  0  0  0  0  0  0  0  0  0
  159.6080  213.3650  156.1180 N   0  0  0  0  0  0  0  0  0  0  0  0
  1 16  1  0  0  0  0
  2 19  2  0  0  0  0
  3  8  1  0  0  0  0
  4  3  2  0  0  0  0
  4 17  1  0  0  0  0
  5 15  2  0  0  0  0
  6 14  2  0  0  0  0
  7  1  2  0  0  0  0
  8 10  1  0  0  0  0
  9  6  1  0  0  0  0
  9  2  1  0  0  0  0
 10  9  2  0  0  0  0
 11 20  2  0  0  0  0
 13 12  1  0  0  0  0
 14  7  1  0  0  0  0
 14  5  1  0  0  0  0
 15 13  1  0  0  0  0
 16 13  2  0  0  0  0
 16 30  1  0  0  0  0
 17 18  2  0  0  0  0
 18 10  1  0  0  0  0
 18 11  1  0  0  0  0
 19  5  1  0  0  0  0
 20  2  1  0  0  0  0
 21 26  2  0  0  0  0
 21 22  1  0  0  0  0
 22 25  2  0  0  0  0
 23 28  1  0  0  0  0
 25 23  1  0  0  0  0
 25 24  1  0  0  0  0
 26 29  1  0  0  0  0
 27 21  1  0  0  0  0
 29 11  1  0  0  0  0
 29 23  2  0  0  0  0
 31 30  1  0  0  0  0
 32 31  3  0  0  0  0
M  END
>  <MODEL>
4

>  <REMARK>
 VINA RESULT:      -7.2      4.341      9.006
  Name = 
  3 active torsions:
  status: ('A' for Active; 'I' for Inactive)
    1  A    between atoms: C_1  and  N_10
    2  A    between atoms: N_10  and  C_24
    3  A    between atoms: C_16  and  C_32
                            x       y       z     vdW  Elec       q    Type
                         _______ _______ _______ _____ _____    ______ ____

>  <TORSDO>
F 3

$$$$
=
 OpenBabel11062410483D

 32 36  0  0  1  0  0  0  0  0999 V2000
  161.6060  203.8340  149.6860 C   0  0  0  0  0  3  0  0  0  0  0  0
  160.6830  208.3740  152.2210 C   0  0  0  0  0  0  0  0  0  0  0  0
  160.7170  206.7280  156.8390 C   0  0  0  0  0  3  0  0  0  0  0  0
  160.4590  207.9670  157.2590 C   0  0  0  0  0  3  0  0  0  0  0  0
  161.0370  206.8700  150.3350 C   0  0  0  0  0  0  0  0  0  0  0  0
  161.0970  206.0250  152.6120 C   0  0  0  0  0  3  0  0  0  0  0  0
  161.4840  204.4020  150.8780 C   0  0  0  0  0  3  0  0  0  0  0  0
  160.8620  206.4710  155.4380 N   0  0  0  0  0  0  0  0  0  0  0  0
  160.8410  207.3030  153.1150 C   0  0  0  0  0  0  0  0  0  0  0  0
  160.7300  207.5420  154.4910 C   0  0  1  0  0  3  0  0  0  0  0  0
  160.3390  209.8990  154.0180 C   0  0  0  0  0  0  0  0  0  0  0  0
  161.4190  206.2860  146.3520 S   0  0  0  0  0  1  0  0  0  0  0  0
  161.3290  205.7110  148.0520 C   0  0  0  0  0  0  0  0  0  0  0  0
  161.1980  205.7900  151.2350 C   0  0  0  0  0  0  0  0  0  0  0  0
  161.1060  206.8060  149.0070 C   0  0  0  0  0  3  0  0  0  0  0  0
  161.4970  204.4010  148.3380 C   0  0  0  0  0  0  0  0  0  0  0  0
  160.3300  209.0630  156.2780 C   0  0  0  0  0  3  0  0  0  0  0  0
  160.4690  208.8490  154.9570 C   0  0  0  0  0  0  0  0  0  0  0  0
  160.7830  208.1480  150.8490 C   0  0  0  0  0  3  0  0  0  0  0  0
  160.4370  209.6250  152.6880 N   0  0  0  0  0  0  0  0  0  0  0  0
  160.3640  213.0560  156.0680 C   0  0  0  0  0  0  0  0  0  0  0  0
  159.5830  213.9170  155.2960 C   0  0  0  0  0  3  0  0  0  0  0  0
  159.2580  212.1600  153.6510 C   0  0  0  0  0  0  0  0  0  0  0  0
  158.2610  214.3230  153.3650 F   0  0  0  0  0  0  0  0  0  0  0  0
  159.0290  213.4740  154.0920 C   0  0  0  0  0  0  0  0  0  0  0  0
  160.5990  211.7510  155.6360 C   0  0  0  0  0  3  0  0  0  0  0  0
  160.8920  213.4880  157.2390 F   0  0  0  0  0  0  0  0  0  0  0  0
  158.6060  211.6930  152.3900 C   0  0  0  0  0  1  0  0  0  0  0  0
  160.0650  211.2950  154.4250 C   0  0  0  0  0  0  0  0  0  0  0  0
  161.6520  203.4370  147.2890 N   0  0  0  0  0  2  0  0  0  0  0  0
  161.1830  202.1170  147.3860 C   0  0  0  0  0  0  0  0  0  0  0  0
  160.7970  201.0290  147.4650 N   0  0  0  0  0  0  0  0  0  0  0  0
  1  7  1  0  0  0  0
  2 20  2  0  0  0  0
  2  9  1  0  0  0  0
  3  4  1  0  0  0  0
  5 19  2  0  0  0  0
  5 14  1  0  0  0  0
  6  9  2  0  0  0  0
  7 14  2  0  0  0  0
  8  3  2  0  0  0  0
 10  9  1  6  0  0  0
 10 18  1  0  0  0  0
 10  8  1  0  0  0  0
 11 29  1  0  0  0  0
 11 18  2  0  0  0  0
 12 13  1  0  0  0  0
 13 16  1  0  0  0  0
 13 15  2  0  0  0  0
 14  6  1  0  0  0  0
 15  5  1  0  0  0  0
 16  1  2  0  0  0  0
 17  4  2  0  0  0  0
 18 17  1  0  0  0  0
 19  2  1  0  0  0  0
 20 11  1  0  0  0  0
 21 27  1  0  0  0  0
 22 21  2  0  0  0  0
 23 25  2  0  0  0  0
 23 29  1  0  0  0  0
 24 25  1  0  0  0  0
 25 22  1  0  0  0  0
 26 21  1  0  0  0  0
 28 23  1  0  0  0  0
 29 26  2  0  0  0  0
 30 31  1  0  0  0  0
 30 16  1  0  0  0  0
 31 32  3  0  0  0  0
M  END
>  <MODEL>
5

>  <REMARK>
 VINA RESULT:      -6.8      2.381      4.140
  Name = 
  3 active torsions:
  status: ('A' for Active; 'I' for Inactive)
    1  A    between atoms: C_1  and  N_10
    2  A    between atoms: N_10  and  C_24
    3  A    between atoms: C_16  and  C_32
                            x       y       z     vdW  Elec       q    Type
                         _______ _______ _______ _____ _____    ______ ____

>  <TORSDO>
F 3

$$$$
