=
 OpenBabel11052422053D

 25 29  0  0  1  0  0  0  0  0999 V2000
  161.0170  209.2350  152.5450 C   0  0  0  0  0  0  0  0  0  0  0  0
  161.5890  209.0110  151.2920 C   0  0  0  0  0  0  0  0  0  0  0  0
  160.4700  211.5050  151.9720 C   0  0  0  0  0  3  0  0  0  0  0  0
  160.8590  208.4420  153.6540 C   0  0  1  0  0  3  0  0  0  0  0  0
  160.2440  207.3910  156.1390 C   0  0  0  0  0  3  0  0  0  0  0  0
  161.0330  211.2980  150.7450 N   0  0  0  0  0  0  0  0  0  0  0  0
  160.2180  209.2240  154.5920 C   0  0  0  0  0  0  0  0  0  0  0  0
  159.8960  208.7250  155.8530 C   0  0  0  0  0  3  0  0  0  0  0  0
  162.1720  209.9050  149.0550 C   0  0  0  0  0  0  0  0  0  0  0  0
  162.3310  210.8810  148.2740 O   0  0  0  0  0  0  0  0  0  0  0  0
  162.2700  207.7130  150.9420 C   0  0  0  0  0  2  0  0  0  0  0  0
  160.8990  206.5960  155.1750 C   0  0  0  0  0  3  0  0  0  0  0  0
  160.4650  210.4520  152.8800 C   0  0  0  0  0  0  0  0  0  0  0  0
  159.9640  210.4720  154.1370 N   0  0  0  0  0  0  0  0  0  0  0  0
  162.5810  208.5940  148.6550 N   0  0  0  0  0  2  0  0  0  0  0  0
  161.2160  207.1180  153.9080 C   0  0  0  0  0  3  0  0  0  0  0  0
  162.2070  207.4150  149.4390 C   0  0  2  0  0  3  0  0  0  0  0  0
  161.5860  210.0950  150.3880 C   0  0  0  0  0  0  0  0  0  0  0  0
  160.8090  206.9440  149.0560 C   0  0  0  0  0  2  0  0  0  0  0  0
  160.8010  203.1260  149.0770 N   0  0  0  0  0  0  0  0  0  0  0  0
  160.7860  201.6480  149.2760 C   0  0  0  0  0  2  0  0  0  0  0  0
  160.9310  202.1170  147.9870 C   0  0  0  0  0  2  0  0  0  0  0  0
  160.8370  205.5510  148.6340 N   0  0  0  0  0  2  0  0  0  0  0  0
  160.7390  204.4640  149.5570 C   0  0  0  0  0  0  0  0  0  0  0  0
  160.5970  204.6800  150.7900 O   0  0  0  0  0  0  0  0  0  0  0  0
  1 13  2  0  0  0  0
  1  4  1  0  0  0  0
  2  1  1  0  0  0  0
  3 13  1  0  0  0  0
  4 16  1  6  0  0  0
  4  7  1  0  0  0  0
  6  3  2  0  0  0  0
  7  8  1  0  0  0  0
  8  5  2  0  0  0  0
  9 18  1  0  0  0  0
 10  9  2  0  0  0  0
 11  2  1  0  0  0  0
 12  5  1  0  0  0  0
 13 14  1  0  0  0  0
 14  7  2  0  0  0  0
 15  9  1  0  0  0  0
 15 17  1  0  0  0  0
 16 12  2  0  0  0  0
 17 19  1  6  0  0  0
 17 11  1  0  0  0  0
 18  6  1  0  0  0  0
 18  2  2  0  0  0  0
 20 21  1  0  0  0  0
 20 24  1  0  0  0  0
 22 20  1  0  0  0  0
 22 21  1  0  0  0  0
 23 19  1  0  0  0  0
 23 24  1  0  0  0  0
 24 25  2  0  0  0  0
M  END
>  <MODEL>
1

>  <REMARK>
 VINA RESULT:      -7.9      0.000      0.000
  Name = 
  2 active torsions:
  status: ('A' for Active; 'I' for Inactive)
    1  A    between atoms: C_6  and  N_15
    2  A    between atoms: C_6  and  C_23
                            x       y       z     vdW  Elec       q    Type
                         _______ _______ _______ _____ _____    ______ ____

>  <TORSDO>
F 2

$$$$
=
 OpenBabel11052422053D

 25 29  0  0  1  0  0  0  0  0999 V2000
  161.1530  207.5310  152.5850 C   0  0  0  0  0  0  0  0  0  0  0  0
  161.1210  208.8290  153.0960 C   0  0  0  0  0  0  0  0  0  0  0  0
  161.2020  206.5810  154.7930 C   0  0  0  0  0  3  0  0  0  0  0  0
  161.1620  207.0330  151.3060 C   0  0  0  0  0  0  0  0  0  0  0  0
  161.1920  205.4360  149.0460 C   0  0  0  0  0  3  0  0  0  0  0  0
  161.1780  207.8480  155.3040 N   0  0  0  0  0  0  0  0  0  0  0  0
  161.1990  205.6600  151.4340 C   0  0  0  0  0  0  0  0  0  0  0  0
  161.2170  204.8280  150.3160 C   0  0  0  0  0  2  0  0  0  0  0  0
  161.1030  210.3060  155.0870 C   0  0  0  0  0  0  0  0  0  0  0  0
  161.2730  210.4780  156.3240 O   0  0  0  0  0  0  0  0  0  0  0  0
  161.1660  210.0440  152.2050 C   0  0  0  0  0  2  0  0  0  0  0  0
  161.1530  206.8410  148.9210 C   0  0  0  0  0  3  0  0  0  0  0  0
  161.1880  206.4290  153.4100 C   0  0  0  0  0  0  0  0  0  0  0  0
  161.2170  205.2620  152.7270 N   0  0  0  0  0  0  0  0  0  0  0  0
  160.8880  211.4310  154.2310 N   0  0  0  0  0  2  0  0  0  0  0  0
  161.1370  207.6630  150.0630 C   0  0  0  0  0  3  0  0  0  0  0  0
  160.4650  211.2520  152.8400 C   0  0  2  0  0  3  0  0  0  0  0  0
  161.1400  208.9590  154.5020 C   0  0  0  0  0  0  0  0  0  0  0  0
  158.9530  211.0800  152.7630 C   0  0  0  0  0  2  0  0  0  0  0  0
  156.8910  213.0160  155.3280 N   0  0  0  0  0  0  0  0  0  0  0  0
  156.0560  213.6040  156.4150 C   0  0  0  0  0  2  0  0  0  0  0  0
  156.5070  214.4530  155.4270 C   0  0  0  0  0  2  0  0  0  0  0  0
  158.2800  212.1520  153.4840 N   0  0  0  0  0  2  0  0  0  0  0  0
  157.5470  211.9270  154.6900 C   0  0  0  0  0  0  0  0  0  0  0  0
  157.4780  210.7740  155.1940 O   0  0  0  0  0  0  0  0  0  0  0  0
  1  2  2  0  0  0  0
  1 13  1  0  0  0  0
  2 18  1  0  0  0  0
  3  6  1  0  0  0  0
  4  7  1  0  0  0  0
  4  1  1  0  0  0  0
  5  8  1  0  0  0  0
  7 14  2  0  0  0  0
  8  7  1  0  0  0  0
  9 10  2  0  0  0  0
 11 17  1  0  0  0  0
 11  2  1  0  0  0  0
 12  5  2  0  0  0  0
 12 16  1  0  0  0  0
 13  3  2  0  0  0  0
 14 13  1  0  0  0  0
 15  9  1  0  0  0  0
 16  4  2  0  0  0  0
 17 19  1  1  0  0  0
 17 15  1  0  0  0  0
 18  9  1  0  0  0  0
 18  6  2  0  0  0  0
 19 23  1  0  0  0  0
 20 22  1  0  0  0  0
 20 21  1  0  0  0  0
 22 21  1  0  0  0  0
 23 24  1  0  0  0  0
 24 25  2  0  0  0  0
 24 20  1  0  0  0  0
M  END
>  <MODEL>
2

>  <REMARK>
 VINA RESULT:      -7.7      3.428      7.407
  Name = 
  2 active torsions:
  status: ('A' for Active; 'I' for Inactive)
    1  A    between atoms: C_6  and  N_15
    2  A    between atoms: C_6  and  C_23
                            x       y       z     vdW  Elec       q    Type
                         _______ _______ _______ _____ _____    ______ ____

>  <TORSDO>
F 2

$$$$
=
 OpenBabel11052422053D

 25 29  0  0  1  0  0  0  0  0999 V2000
  161.3640  204.7330  148.4940 C   0  0  0  0  0  0  0  0  0  0  0  0
  161.2060  205.9790  149.1020 C   0  0  0  0  0  0  0  0  0  0  0  0
  162.5070  205.7100  146.6180 C   0  0  0  0  0  3  0  0  0  0  0  0
  160.9870  203.4640  148.8550 C   0  0  0  0  0  0  0  0  0  0  0  0
  160.5260  200.7390  149.0060 C   0  0  0  0  0  3  0  0  0  0  0  0
  162.3520  206.9360  147.2010 N   0  0  0  0  0  0  0  0  0  0  0  0
  161.4240  202.6350  147.8420 C   0  0  0  0  0  0  0  0  0  0  0  0
  161.2060  201.2590  147.8880 C   0  0  0  0  0  2  0  0  0  0  0  0
  161.5830  208.4270  149.0120 C   0  0  0  0  0  0  0  0  0  0  0  0
  161.8870  209.4650  148.3660 O   0  0  0  0  0  0  0  0  0  0  0  0
  160.4350  206.1520  150.3860 C   0  0  0  0  0  2  0  0  0  0  0  0
  160.0830  201.5920  150.0390 C   0  0  0  0  0  3  0  0  0  0  0  0
  162.0040  204.5970  147.2820 C   0  0  0  0  0  0  0  0  0  0  0  0
  162.0550  203.3130  146.8570 N   0  0  0  0  0  0  0  0  0  0  0  0
  161.0780  208.5370  150.3460 N   0  0  0  0  0  2  0  0  0  0  0  0
  160.3120  202.9780  149.9740 C   0  0  0  0  0  3  0  0  0  0  0  0
  160.9310  207.3560  151.1980 C   0  0  2  0  0  3  0  0  0  0  0  0
  161.7220  207.0960  148.4090 C   0  0  0  0  0  0  0  0  0  0  0  0
  162.2550  207.0210  151.8760 C   0  0  0  0  0  2  0  0  0  0  0  0
  161.3750  207.6070  155.5450 N   0  0  0  0  0  0  0  0  0  0  0  0
  160.8870  207.7140  156.9500 C   0  0  0  0  0  2  0  0  0  0  0  0
  161.9560  208.5050  156.5840 C   0  0  0  0  0  2  0  0  0  0  0  0
  162.2640  207.5100  153.2470 N   0  0  0  0  0  2  0  0  0  0  0  0
  161.3250  207.0670  154.2290 C   0  0  0  0  0  0  0  0  0  0  0  0
  160.4560  206.2020  153.9420 O   0  0  0  0  0  0  0  0  0  0  0  0
  1  4  1  0  0  0  0
  1  2  1  0  0  0  0
  2 11  1  0  0  0  0
  3  6  2  0  0  0  0
  3 13  1  0  0  0  0
  4 16  2  0  0  0  0
  5 12  2  0  0  0  0
  6 18  1  0  0  0  0
  7  8  1  0  0  0  0
  7  4  1  0  0  0  0
  8  5  1  0  0  0  0
  9 15  1  0  0  0  0
 10  9  2  0  0  0  0
 11 17  1  0  0  0  0
 13  1  2  0  0  0  0
 14 13  1  0  0  0  0
 14  7  2  0  0  0  0
 15 17  1  0  0  0  0
 16 12  1  0  0  0  0
 17 19  1  6  0  0  0
 18  9  1  0  0  0  0
 18  2  2  0  0  0  0
 19 23  1  0  0  0  0
 20 22  1  0  0  0  0
 20 21  1  0  0  0  0
 22 21  1  0  0  0  0
 23 24  1  0  0  0  0
 24 20  1  0  0  0  0
 25 24  2  0  0  0  0
M  END
>  <MODEL>
3

>  <REMARK>
 VINA RESULT:      -7.7      2.188      6.791
  Name = 
  2 active torsions:
  status: ('A' for Active; 'I' for Inactive)
    1  A    between atoms: C_6  and  N_15
    2  A    between atoms: C_6  and  C_23
                            x       y       z     vdW  Elec       q    Type
                         _______ _______ _______ _____ _____    ______ ____

>  <TORSDO>
F 2

$$$$
=
 OpenBabel11052422053D

 25 29  0  0  1  0  0  0  0  0999 V2000
  161.5180  204.7820  149.2880 C   0  0  0  0  0  0  0  0  0  0  0  0
  161.7980  205.5830  150.3950 C   0  0  0  0  0  0  0  0  0  0  0  0
  160.4890  203.1040  150.6680 C   0  0  0  0  0  3  0  0  0  0  0  0
  161.7630  204.9280  147.9450 C   0  0  0  0  0  0  0  0  0  0  0  0
  161.9440  204.6270  145.2000 C   0  0  0  0  0  3  0  0  0  0  0  0
  160.7650  203.8770  151.7600 N   0  0  0  0  0  0  0  0  0  0  0  0
  161.2490  203.7980  147.3410 C   0  0  0  0  0  0  0  0  0  0  0  0
  161.3260  203.6170  145.9610 C   0  0  0  0  0  2  0  0  0  0  0  0
  161.6720  205.8970  152.8510 C   0  0  0  0  0  0  0  0  0  0  0  0
  161.4770  205.4320  154.0050 O   0  0  0  0  0  0  0  0  0  0  0  0
  162.5760  206.8690  150.2780 C   0  0  0  0  0  2  0  0  0  0  0  0
  162.4660  205.7800  145.8240 C   0  0  0  0  0  3  0  0  0  0  0  0
  160.8740  203.5710  149.4160 C   0  0  0  0  0  0  0  0  0  0  0  0
  160.6950  202.9440  148.2310 N   0  0  0  0  0  0  0  0  0  0  0  0
  162.1780  207.2250  152.6900 N   0  0  0  0  0  2  0  0  0  0  0  0
  162.3790  205.9450  147.2170 C   0  0  0  0  0  3  0  0  0  0  0  0
  162.2000  207.8720  151.3770 C   0  0  2  0  0  3  0  0  0  0  0  0
  161.4020  205.0870  151.6560 C   0  0  0  0  0  0  0  0  0  0  0  0
  160.8460  208.5010  151.0720 C   0  0  0  0  0  2  0  0  0  0  0  0
  159.8320  211.0810  153.6980 N   0  0  0  0  0  0  0  0  0  0  0  0
  159.5220  212.2180  154.6120 C   0  0  0  0  0  2  0  0  0  0  0  0
  159.1460  210.9540  155.0150 C   0  0  0  0  0  2  0  0  0  0  0  0
  160.2950  209.1290  152.2640 N   0  0  0  0  0  2  0  0  0  0  0  0
  160.3690  210.5370  152.4970 C   0  0  0  0  0  0  0  0  0  0  0  0
  160.9030  211.3010  151.6500 O   0  0  0  0  0  0  0  0  0  0  0  0
  1 13  1  0  0  0  0
  1  2  2  0  0  0  0
  2 18  1  0  0  0  0
  3  6  1  0  0  0  0
  4  1  1  0  0  0  0
  5 12  2  0  0  0  0
  5  8  1  0  0  0  0
  7  4  1  0  0  0  0
  7 14  2  0  0  0  0
  8  7  1  0  0  0  0
  9 10  2  0  0  0  0
 11  2  1  0  0  0  0
 11 17  1  0  0  0  0
 12 16  1  0  0  0  0
 13  3  2  0  0  0  0
 14 13  1  0  0  0  0
 15  9  1  0  0  0  0
 16  4  2  0  0  0  0
 17 19  1  6  0  0  0
 17 15  1  0  0  0  0
 18  6  2  0  0  0  0
 18  9  1  0  0  0  0
 19 23  1  0  0  0  0
 20 21  1  0  0  0  0
 20 22  1  0  0  0  0
 21 22  1  0  0  0  0
 23 24  1  0  0  0  0
 24 20  1  0  0  0  0
 25 24  2  0  0  0  0
M  END
>  <MODEL>
4

>  <REMARK>
 VINA RESULT:      -7.6      2.342      7.673
  Name = 
  2 active torsions:
  status: ('A' for Active; 'I' for Inactive)
    1  A    between atoms: C_6  and  N_15
    2  A    between atoms: C_6  and  C_23
                            x       y       z     vdW  Elec       q    Type
                         _______ _______ _______ _____ _____    ______ ____

>  <TORSDO>
F 2

$$$$
=
 OpenBabel11052422053D

 25 29  0  0  1  0  0  0  0  0999 V2000
  161.3540  206.7060  151.3450 C   0  0  0  0  0  0  0  0  0  0  0  0
  161.4660  207.7470  152.2670 C   0  0  0  0  0  0  0  0  0  0  0  0
  161.0790  205.0830  153.0970 C   0  0  0  0  0  3  0  0  0  0  0  0
  161.4010  206.6660  149.9730 C   0  0  0  0  0  0  0  0  0  0  0  0
  161.3930  205.9270  147.3070 C   0  0  0  0  0  3  0  0  0  0  0  0
  161.1930  206.0940  154.0080 N   0  0  0  0  0  0  0  0  0  0  0  0
  161.2290  205.3410  149.6270 C   0  0  0  0  0  0  0  0  0  0  0  0
  161.2220  204.9370  148.2930 C   0  0  0  0  0  2  0  0  0  0  0  0
  161.4900  208.4620  154.6400 C   0  0  0  0  0  0  0  0  0  0  0  0
  161.5770  208.1840  155.8660 O   0  0  0  0  0  0  0  0  0  0  0  0
  161.7610  209.1640  151.8450 C   0  0  0  0  0  2  0  0  0  0  0  0
  161.5670  207.2800  147.6670 C   0  0  0  0  0  3  0  0  0  0  0  0
  161.1600  205.4030  151.7460 C   0  0  0  0  0  0  0  0  0  0  0  0
  161.0790  204.5400  150.7060 N   0  0  0  0  0  0  0  0  0  0  0  0
  161.5130  209.8260  154.2120 N   0  0  0  0  0  2  0  0  0  0  0  0
  161.5720  207.6670  149.0190 C   0  0  0  0  0  3  0  0  0  0  0  0
  161.1890  210.1910  152.8310 C   0  0  2  0  0  3  0  0  0  0  0  0
  161.3830  207.3990  153.6330 C   0  0  0  0  0  0  0  0  0  0  0  0
  159.6800  210.3050  152.6530 C   0  0  0  0  0  2  0  0  0  0  0  0
  158.0450  212.9760  154.8370 N   0  0  0  0  0  0  0  0  0  0  0  0
  157.3590  213.8760  155.8080 C   0  0  0  0  0  2  0  0  0  0  0  0
  157.8680  214.4460  154.6600 C   0  0  0  0  0  2  0  0  0  0  0  0
  159.2000  211.5810  153.1650 N   0  0  0  0  0  2  0  0  0  0  0  0
  158.5100  211.7010  154.4110 C   0  0  0  0  0  0  0  0  0  0  0  0
  158.3110  210.6890  155.1340 O   0  0  0  0  0  0  0  0  0  0  0  0
  1 13  1  0  0  0  0
  1  2  2  0  0  0  0
  2 18  1  0  0  0  0
  3  6  1  0  0  0  0
  4  1  1  0  0  0  0
  5 12  2  0  0  0  0
  5  8  1  0  0  0  0
  7  4  1  0  0  0  0
  7 14  2  0  0  0  0
  8  7  1  0  0  0  0
  9 10  2  0  0  0  0
 11  2  1  0  0  0  0
 11 17  1  0  0  0  0
 12 16  1  0  0  0  0
 13  3  2  0  0  0  0
 14 13  1  0  0  0  0
 15  9  1  0  0  0  0
 16  4  2  0  0  0  0
 17 19  1  1  0  0  0
 17 15  1  0  0  0  0
 18  6  2  0  0  0  0
 18  9  1  0  0  0  0
 19 23  1  0  0  0  0
 20 21  1  0  0  0  0
 22 20  1  0  0  0  0
 22 21  1  0  0  0  0
 23 24  1  0  0  0  0
 24 20  1  0  0  0  0
 24 25  2  0  0  0  0
M  END
>  <MODEL>
5

>  <REMARK>
 VINA RESULT:      -7.6      3.042      7.506
  Name = 
  2 active torsions:
  status: ('A' for Active; 'I' for Inactive)
    1  A    between atoms: C_6  and  N_15
    2  A    between atoms: C_6  and  C_23
                            x       y       z     vdW  Elec       q    Type
                         _______ _______ _______ _____ _____    ______ ____

>  <TORSDO>
F 2

$$$$
=
 OpenBabel11052422053D

 25 29  0  0  1  0  0  0  0  0999 V2000
  161.3210  207.0070  151.5880 C   0  0  0  0  0  0  0  0  0  0  0  0
  161.4320  208.1080  152.4380 C   0  0  0  0  0  0  0  0  0  0  0  0
  161.0090  205.5090  153.4420 C   0  0  0  0  0  3  0  0  0  0  0  0
  161.3820  206.8740  150.2230 C   0  0  0  0  0  0  0  0  0  0  0  0
  161.3970  205.9560  147.6120 C   0  0  0  0  0  3  0  0  0  0  0  0
  161.1240  206.5780  154.2850 N   0  0  0  0  0  0  0  0  0  0  0  0
  161.2010  205.5310  149.9650 C   0  0  0  0  0  0  0  0  0  0  0  0
  161.2050  205.0370  148.6610 C   0  0  0  0  0  2  0  0  0  0  0  0
  161.4380  208.9810  154.7590 C   0  0  0  0  0  0  0  0  0  0  0  0
  161.5080  208.7860  156.0010 O   0  0  0  0  0  0  0  0  0  0  0  0
  161.7470  209.4900  151.9260 C   0  0  0  0  0  2  0  0  0  0  0  0
  161.5810  207.3290  147.8830 C   0  0  0  0  0  3  0  0  0  0  0  0
  161.1090  205.7360  152.0740 C   0  0  0  0  0  0  0  0  0  0  0  0
  161.0310  204.8060  151.0940 N   0  0  0  0  0  0  0  0  0  0  0  0
  161.4790  210.3130  154.2400 N   0  0  0  0  0  2  0  0  0  0  0  0
  161.5740  207.8070  149.2050 C   0  0  0  0  0  3  0  0  0  0  0  0
  161.1740  210.5860  152.8340 C   0  0  2  0  0  3  0  0  0  0  0  0
  161.3310  207.8540  153.8240 C   0  0  0  0  0  0  0  0  0  0  0  0
  159.6680  210.7020  152.6300 C   0  0  0  0  0  2  0  0  0  0  0  0
  157.5210  212.5120  155.2170 N   0  0  0  0  0  0  0  0  0  0  0  0
  156.6360  213.3390  156.0860 C   0  0  0  0  0  2  0  0  0  0  0  0
  157.3200  212.2990  156.6790 C   0  0  0  0  0  2  0  0  0  0  0  0
  159.0120  211.0800  153.8740 N   0  0  0  0  0  2  0  0  0  0  0  0
  158.1060  212.1820  153.9630 C   0  0  0  0  0  0  0  0  0  0  0  0
  157.8190  212.8610  152.9410 O   0  0  0  0  0  0  0  0  0  0  0  0
  1 13  1  0  0  0  0
  1  2  2  0  0  0  0
  2 18  1  0  0  0  0
  3  6  1  0  0  0  0
  4  1  1  0  0  0  0
  5 12  2  0  0  0  0
  5  8  1  0  0  0  0
  7  4  1  0  0  0  0
  7 14  2  0  0  0  0
  8  7  1  0  0  0  0
  9 10  2  0  0  0  0
 11  2  1  0  0  0  0
 11 17  1  0  0  0  0
 12 16  1  0  0  0  0
 13  3  2  0  0  0  0
 14 13  1  0  0  0  0
 15  9  1  0  0  0  0
 16  4  2  0  0  0  0
 17 19  1  1  0  0  0
 17 15  1  0  0  0  0
 18  6  2  0  0  0  0
 18  9  1  0  0  0  0
 19 23  1  0  0  0  0
 20 21  1  0  0  0  0
 20 22  1  0  0  0  0
 21 22  1  0  0  0  0
 23 24  1  0  0  0  0
 24 20  1  0  0  0  0
 25 24  2  0  0  0  0
M  END
>  <MODEL>
6

>  <REMARK>
 VINA RESULT:      -7.5      2.946      7.428
  Name = 
  2 active torsions:
  status: ('A' for Active; 'I' for Inactive)
    1  A    between atoms: C_6  and  N_15
    2  A    between atoms: C_6  and  C_23
                            x       y       z     vdW  Elec       q    Type
                         _______ _______ _______ _____ _____    ______ ____

>  <TORSDO>
F 2

$$$$
=
 OpenBabel11052422053D

 25 29  0  0  1  0  0  0  0  0999 V2000
  160.9240  209.3210  152.8010 C   0  0  0  0  0  0  0  0  0  0  0  0
  161.5140  209.0710  151.5620 C   0  0  0  0  0  0  0  0  0  0  0  0
  160.4030  211.5840  152.1820 C   0  0  0  0  0  3  0  0  0  0  0  0
  160.7420  208.5470  153.9210 C   0  0  1  0  0  3  0  0  0  0  0  0
  160.0780  207.5430  156.4120 C   0  0  0  0  0  3  0  0  0  0  0  0
  160.9850  211.3530  150.9680 N   0  0  0  0  0  0  0  0  0  0  0  0
  160.0910  209.3500  154.8350 C   0  0  0  0  0  0  0  0  0  0  0  0
  159.7450  208.8740  156.0980 C   0  0  0  0  0  3  0  0  0  0  0  0
  162.1410  209.9230  149.3200 C   0  0  0  0  0  0  0  0  0  0  0  0
  162.3200  210.8840  148.5250 O   0  0  0  0  0  0  0  0  0  0  0  0
  162.1920  207.7620  151.2460 C   0  0  0  0  0  2  0  0  0  0  0  0
  160.7430  206.7270  155.4730 C   0  0  0  0  0  3  0  0  0  0  0  0
  160.3750  210.5460  153.1070 C   0  0  0  0  0  0  0  0  0  0  0  0
  159.8540  210.5920  154.3550 N   0  0  0  0  0  0  0  0  0  0  0  0
  162.5470  208.6030  148.9500 N   0  0  0  0  0  2  0  0  0  0  0  0
  161.0840  207.2260  154.2030 C   0  0  0  0  0  3  0  0  0  0  0  0
  162.1510  207.4390  149.7460 C   0  0  2  0  0  3  0  0  0  0  0  0
  161.5340  210.1400  150.6400 C   0  0  0  0  0  0  0  0  0  0  0  0
  160.7560  206.9720  149.3490 C   0  0  0  0  0  2  0  0  0  0  0  0
  161.1830  204.6080  146.3810 N   0  0  0  0  0  0  0  0  0  0  0  0
  161.4140  203.5570  145.3480 C   0  0  0  0  0  2  0  0  0  0  0  0
  160.9770  204.7910  144.9150 C   0  0  0  0  0  2  0  0  0  0  0  0
  160.7680  206.4190  148.0020 N   0  0  0  0  0  2  0  0  0  0  0  0
  161.1700  205.0750  147.7240 C   0  0  0  0  0  0  0  0  0  0  0  0
  161.5110  204.3020  148.6580 O   0  0  0  0  0  0  0  0  0  0  0  0
  1 13  2  0  0  0  0
  1  4  1  0  0  0  0
  2  1  1  0  0  0  0
  3 13  1  0  0  0  0
  4 16  1  6  0  0  0
  4  7  1  0  0  0  0
  6  3  2  0  0  0  0
  7  8  1  0  0  0  0
  8  5  2  0  0  0  0
  9 18  1  0  0  0  0
 10  9  2  0  0  0  0
 11  2  1  0  0  0  0
 12  5  1  0  0  0  0
 13 14  1  0  0  0  0
 14  7  2  0  0  0  0
 15  9  1  0  0  0  0
 15 17  1  0  0  0  0
 16 12  2  0  0  0  0
 17 19  1  6  0  0  0
 17 11  1  0  0  0  0
 18  6  1  0  0  0  0
 18  2  2  0  0  0  0
 20 24  1  0  0  0  0
 21 20  1  0  0  0  0
 22 21  1  0  0  0  0
 22 20  1  0  0  0  0
 23 19  1  0  0  0  0
 24 23  1  0  0  0  0
 24 25  2  0  0  0  0
M  END
>  <MODEL>
7

>  <REMARK>
 VINA RESULT:      -7.4      1.343      1.522
  Name = 
  2 active torsions:
  status: ('A' for Active; 'I' for Inactive)
    1  A    between atoms: C_6  and  N_15
    2  A    between atoms: C_6  and  C_23
                            x       y       z     vdW  Elec       q    Type
                         _______ _______ _______ _____ _____    ______ ____

>  <TORSDO>
F 2

$$$$
=
 OpenBabel11052422053D

 25 29  0  0  1  0  0  0  0  0999 V2000
  161.3570  207.1020  151.7840 C   0  0  0  0  0  0  0  0  0  0  0  0
  161.4780  208.1280  152.7220 C   0  0  0  0  0  0  0  0  0  0  0  0
  161.0690  205.4550  153.5120 C   0  0  0  0  0  3  0  0  0  0  0  0
  161.4020  207.0820  150.4120 C   0  0  0  0  0  0  0  0  0  0  0  0
  161.3860  206.3840  147.7350 C   0  0  0  0  0  3  0  0  0  0  0  0
  161.1930  206.4510  154.4390 N   0  0  0  0  0  0  0  0  0  0  0  0
  161.2190  205.7650  150.0460 C   0  0  0  0  0  0  0  0  0  0  0  0
  161.2070  205.3810  148.7060 C   0  0  0  0  0  2  0  0  0  0  0  0
  161.5110  208.8060  155.1060 C   0  0  0  0  0  0  0  0  0  0  0  0
  161.5970  208.5090  156.3270 O   0  0  0  0  0  0  0  0  0  0  0  0
  161.7850  209.5490  152.3220 C   0  0  0  0  0  2  0  0  0  0  0  0
  161.5720  207.7300  148.1160 C   0  0  0  0  0  3  0  0  0  0  0  0
  161.1520  205.7950  152.1660 C   0  0  0  0  0  0  0  0  0  0  0  0
  161.0630  204.9490  151.1140 N   0  0  0  0  0  0  0  0  0  0  0  0
  161.5450  210.1770  154.6990 N   0  0  0  0  0  2  0  0  0  0  0  0
  161.5810  208.0970  149.4730 C   0  0  0  0  0  3  0  0  0  0  0  0
  161.2230  210.5650  153.3240 C   0  0  2  0  0  3  0  0  0  0  0  0
  161.3940  207.7600  154.0830 C   0  0  0  0  0  0  0  0  0  0  0  0
  159.7150  210.6950  153.1480 C   0  0  0  0  0  2  0  0  0  0  0  0
  158.1570  213.3660  150.9090 N   0  0  0  0  0  0  0  0  0  0  0  0
  157.4380  214.4530  150.1840 C   0  0  0  0  0  2  0  0  0  0  0  0
  158.3710  213.7240  149.4770 C   0  0  0  0  0  2  0  0  0  0  0  0
  159.4050  211.5470  152.0090 N   0  0  0  0  0  2  0  0  0  0  0  0
  158.4280  212.5890  152.0690 C   0  0  0  0  0  0  0  0  0  0  0  0
  157.8080  212.8260  153.1390 O   0  0  0  0  0  0  0  0  0  0  0  0
  1 13  1  0  0  0  0
  1  2  2  0  0  0  0
  2 18  1  0  0  0  0
  3  6  1  0  0  0  0
  4  1  1  0  0  0  0
  5 12  2  0  0  0  0
  5  8  1  0  0  0  0
  7  4  1  0  0  0  0
  7 14  2  0  0  0  0
  8  7  1  0  0  0  0
  9 10  2  0  0  0  0
 11  2  1  0  0  0  0
 11 17  1  0  0  0  0
 12 16  1  0  0  0  0
 13  3  2  0  0  0  0
 14 13  1  0  0  0  0
 15  9  1  0  0  0  0
 16  4  2  0  0  0  0
 17 19  1  1  0  0  0
 17 15  1  0  0  0  0
 18  6  2  0  0  0  0
 18  9  1  0  0  0  0
 20 24  1  0  0  0  0
 21 20  1  0  0  0  0
 22 21  1  0  0  0  0
 22 20  1  0  0  0  0
 23 24  1  0  0  0  0
 23 19  1  0  0  0  0
 24 25  2  0  0  0  0
M  END
>  <MODEL>
8

>  <REMARK>
 VINA RESULT:      -7.3      2.877      7.147
  Name = 
  2 active torsions:
  status: ('A' for Active; 'I' for Inactive)
    1  A    between atoms: C_6  and  N_15
    2  A    between atoms: C_6  and  C_23
                            x       y       z     vdW  Elec       q    Type
                         _______ _______ _______ _____ _____    ______ ____

>  <TORSDO>
F 2

$$$$
=
 OpenBabel11052422053D

 25 29  0  0  1  0  0  0  0  0999 V2000
  161.5270  204.5540  149.3190 C   0  0  0  0  0  0  0  0  0  0  0  0
  161.8250  205.3960  150.3920 C   0  0  0  0  0  0  0  0  0  0  0  0
  160.3340  203.0320  150.7470 C   0  0  0  0  0  3  0  0  0  0  0  0
  161.8290  204.6070  147.9810 C   0  0  0  0  0  0  0  0  0  0  0  0
  162.0850  204.1400  145.2660 C   0  0  0  0  0  3  0  0  0  0  0  0
  160.6250  203.8450  151.8050 N   0  0  0  0  0  0  0  0  0  0  0  0
  161.2580  203.4830  147.4200 C   0  0  0  0  0  0  0  0  0  0  0  0
  161.3710  203.2190  146.0560 C   0  0  0  0  0  2  0  0  0  0  0  0
  161.6340  205.8570  152.8200 C   0  0  0  0  0  0  0  0  0  0  0  0
  161.3670  205.4720  153.9900 O   0  0  0  0  0  0  0  0  0  0  0  0
  162.6950  206.6170  150.2360 C   0  0  0  0  0  2  0  0  0  0  0  0
  162.6660  205.2880  145.8460 C   0  0  0  0  0  3  0  0  0  0  0  0
  160.7950  203.4000  149.4880 C   0  0  0  0  0  0  0  0  0  0  0  0
  160.6140  202.7200  148.3320 N   0  0  0  0  0  0  0  0  0  0  0  0
  162.2380  207.1350  152.6080 N   0  0  0  0  0  2  0  0  0  0  0  0
  162.5410  205.5360  147.2250 C   0  0  0  0  0  3  0  0  0  0  0  0
  162.3530  207.7040  151.2640 C   0  0  2  0  0  3  0  0  0  0  0  0
  161.3500  205.0000  151.6620 C   0  0  0  0  0  0  0  0  0  0  0  0
  161.0580  208.4060  150.8720 C   0  0  0  0  0  2  0  0  0  0  0  0
  162.0750  211.2910  148.5870 N   0  0  0  0  0  0  0  0  0  0  0  0
  162.5120  212.2840  147.5640 C   0  0  0  0  0  2  0  0  0  0  0  0
  162.1560  212.7630  148.8070 C   0  0  0  0  0  2  0  0  0  0  0  0
  161.3370  209.7380  150.3530 N   0  0  0  0  0  2  0  0  0  0  0  0
  161.7960  209.9640  149.0190 C   0  0  0  0  0  0  0  0  0  0  0  0
  161.9550  209.0010  148.2230 O   0  0  0  0  0  0  0  0  0  0  0  0
  1 13  1  0  0  0  0
  1  2  2  0  0  0  0
  2 18  1  0  0  0  0
  3  6  1  0  0  0  0
  4  1  1  0  0  0  0
  5 12  2  0  0  0  0
  5  8  1  0  0  0  0
  7  4  1  0  0  0  0
  7 14  2  0  0  0  0
  8  7  1  0  0  0  0
  9 10  2  0  0  0  0
 11  2  1  0  0  0  0
 11 17  1  0  0  0  0
 12 16  1  0  0  0  0
 13  3  2  0  0  0  0
 14 13  1  0  0  0  0
 15  9  1  0  0  0  0
 16  4  2  0  0  0  0
 17 19  1  6  0  0  0
 17 15  1  0  0  0  0
 18  6  2  0  0  0  0
 18  9  1  0  0  0  0
 20 22  1  0  0  0  0
 20 24  1  0  0  0  0
 21 20  1  0  0  0  0
 21 22  1  0  0  0  0
 23 19  1  0  0  0  0
 24 23  1  0  0  0  0
 25 24  2  0  0  0  0
M  END
>  <MODEL>
9

>  <REMARK>
 VINA RESULT:      -7.1      2.501      7.482
  Name = 
  2 active torsions:
  status: ('A' for Active; 'I' for Inactive)
    1  A    between atoms: C_6  and  N_15
    2  A    between atoms: C_6  and  C_23
                            x       y       z     vdW  Elec       q    Type
                         _______ _______ _______ _____ _____    ______ ____

>  <TORSDO>
F 2

$$$$
