=
 OpenBabel11062410043D

 43 47  0  0  1  0  0  0  0  0999 V2000
  161.6450  208.9210  148.5400 N   0  0  0  0  0  2  0  0  0  0  0  0
  161.8010  209.7430  149.6400 C   0  0  1  0  0  3  0  0  0  0  0  0
  161.5100  207.4550  148.7990 C   0  0  0  0  0  2  0  0  0  0  0  0
  162.1170  209.3540  150.8340 C   0  0  0  0  0  2  0  0  0  0  0  0
  161.8080  208.0180  151.1420 C   0  0  1  0  0  3  0  0  0  0  0  0
  162.1390  207.0450  150.1030 N   0  0  0  0  0  2  0  0  0  0  0  0
  160.8250  210.5340  155.4600 C   0  0  0  0  0  0  0  0  0  0  0  0
  161.9510  206.2180  152.8740 N   0  0  0  0  0  0  0  0  0  0  0  0
  160.8370  208.2840  154.5240 C   0  0  0  0  0  0  0  0  0  0  0  0
  161.5610  210.9410  154.3480 C   0  0  0  0  0  3  0  0  0  0  0  0
  160.4840  211.5530  156.5110 C   0  0  0  0  0  1  0  0  0  0  0  0
  161.8050  208.6330  153.5590 C   0  0  0  0  0  0  0  0  0  0  0  0
  160.4170  209.1940  155.5380 C   0  0  0  0  0  3  0  0  0  0  0  0
  162.0690  210.0330  153.4590 C   0  0  0  0  0  3  0  0  0  0  0  0
  162.2750  207.6550  152.5730 C   0  0  2  0  0  3  0  0  0  0  0  0
  160.4940  206.1560  153.1770 C   0  0  0  0  0  2  0  0  0  0  0  0
  160.0520  207.0330  154.3510 C   0  0  0  0  0  2  0  0  0  0  0  0
  162.0480  205.2460  151.7770 C   0  0  0  0  0  2  0  0  0  0  0  0
  161.0080  203.7480  152.0150 S   0  0  0  0  0  0  0  0  0  0  0  0
  161.3380  204.0790  149.2650 C   0  0  0  0  0  3  0  0  0  0  0  0
  160.9360  202.2270  147.7490 C   0  0  0  0  0  0  0  0  0  0  0  0
  160.8540  201.8670  150.1540 C   0  0  0  0  0  3  0  0  0  0  0  0
  161.3440  203.5660  147.9720 C   0  0  0  0  0  3  0  0  0  0  0  0
  161.0510  203.1920  150.3340 C   0  0  0  0  0  0  0  0  0  0  0  0
  160.7380  201.3790  148.8470 C   0  0  0  0  0  3  0  0  0  0  0  0
  160.4140  201.1890  145.4620 N   0  0  0  0  0  0  0  0  0  0  0  0
  160.7460  201.6480  146.4830 C   0  0  0  0  0  0  0  0  0  0  0  0
  161.9630  211.2460  149.3980 C   0  0  0  0  0  2  0  0  0  0  0  0
  162.1820  211.5690  148.0760 O   0  0  0  0  0  0  0  0  0  0  0  0
  163.1090  212.6220  147.9150 C   0  0  0  0  0  2  0  0  0  0  0  0
  162.4390  213.5760  146.9700 C   0  0  0  0  0  2  0  0  0  0  0  0
  161.1560  213.1610  146.5280 N   0  0  0  0  0  0  0  0  0  0  0  0
  161.2390  212.8320  145.0750 C   0  0  0  0  0  0  0  0  0  0  0  0
  160.1370  212.0900  143.0890 C   0  0  0  0  0  3  0  0  0  0  0  0
  162.4110  212.8520  142.9930 C   0  0  0  0  0  3  0  0  0  0  0  0
  161.2330  212.4700  142.3570 C   0  0  0  0  0  3  0  0  0  0  0  0
  162.4100  213.0780  144.3900 C   0  0  0  0  0  3  0  0  0  0  0  0
  160.1490  212.2650  144.4880 C   0  0  0  0  0  3  0  0  0  0  0  0
  160.0980  214.1260  146.8100 C   0  0  0  0  0  2  0  0  0  0  0  0
  159.1010  213.8070  147.9550 C   0  0  0  0  0  2  0  0  0  0  0  0
  157.7310  213.2900  147.5510 C   0  0  0  0  0  2  0  0  0  0  0  0
  156.6000  214.1190  149.6760 C   0  0  0  0  0  1  0  0  0  0  0  0
  157.0270  212.9280  148.8150 C   0  0  0  0  0  2  0  0  0  0  0  0
  1  3  1  0  0  0  0
  1  2  1  0  0  0  0
  2 28  1  6  0  0  0
  2  4  1  0  0  0  0
  3  6  1  0  0  0  0
  5  4  1  6  0  0  0
  5 15  1  0  0  0  0
  6  5  1  0  0  0  0
  7 13  1  0  0  0  0
  7 11  1  0  0  0  0
  8 16  1  0  0  0  0
  9 13  2  0  0  0  0
 10  7  2  0  0  0  0
 12  9  1  0  0  0  0
 14 12  2  0  0  0  0
 14 10  1  0  0  0  0
 15  8  1  0  0  0  0
 15 12  1  1  0  0  0
 16 17  1  0  0  0  0
 17  9  1  0  0  0  0
 18 19  1  0  0  0  0
 18  8  1  0  0  0  0
 20 24  1  0  0  0  0
 21 23  1  0  0  0  0
 21 25  2  0  0  0  0
 22 24  2  0  0  0  0
 23 20  2  0  0  0  0
 24 19  1  0  0  0  0
 25 22  1  0  0  0  0
 26 27  3  0  0  0  0
 27 21  1  0  0  0  0
 29 28  1  0  0  0  0
 30 29  1  0  0  0  0
 31 30  1  0  0  0  0
 32 39  1  0  0  0  0
 32 31  1  0  0  0  0
 33 32  1  0  0  0  0
 34 38  2  0  0  0  0
 35 37  1  0  0  0  0
 36 35  2  0  0  0  0
 36 34  1  0  0  0  0
 37 33  2  0  0  0  0
 38 33  1  0  0  0  0
 39 40  1  0  0  0  0
 41 40  1  0  0  0  0
 41 43  1  0  0  0  0
 43 42  1  0  0  0  0
M  END
>  <MODEL>
1

>  <REMARK>
 VINA RESULT:      -7.4      0.000      0.000
  Name = 
  15 active torsions:
  status: ('A' for Active; 'I' for Inactive)
    1  A    between atoms: S_1  and  C_34
    2  A    between atoms: S_1  and  C_35
    3  A    between atoms: C_3  and  C_4
    4  A    between atoms: C_3  and  O_12
    5  A    between atoms: C_4  and  N_14
    6  A    between atoms: C_6  and  C_17
    7  A    between atoms: N_8  and  C_34
    8  A    between atoms: C_10  and  C_22
    9  A    between atoms: C_10  and  C_41
   10  A    between atoms: C_11  and  N_14
   11  A    between atoms: O_12  and  C_17
   12  A    between atoms: N_14  and  C_41
   13  A    between atoms: C_19  and  C_37
   14  A    between atoms: C_22  and  C_42
   15  A    between atoms: C_27  and  C_30
                            x       y       z     vdW  Elec       q    Type
                         _______ _______ _______ _____ _____    ______ ____

>  <TORSDO>
F 15

$$$$
=
 OpenBabel11062410043D

 43 47  0  0  1  0  0  0  0  0999 V2000
  161.9790  209.5220  150.6390 N   0  0  0  0  0  2  0  0  0  0  0  0
  161.9020  209.8210  149.2910 C   0  0  1  0  0  3  0  0  0  0  0  0
  161.4360  210.5340  151.5940 C   0  0  0  0  0  2  0  0  0  0  0  0
  161.6640  210.9910  148.7910 C   0  0  0  0  0  2  0  0  0  0  0  0
  160.9740  211.8840  149.6290 C   0  0  1  0  0  3  0  0  0  0  0  0
  161.4350  211.9230  151.0150 N   0  0  0  0  0  2  0  0  0  0  0  0
  162.5450  213.2750  144.9880 C   0  0  0  0  0  0  0  0  0  0  0  0
  159.3520  213.6870  149.0150 N   0  0  0  0  0  0  0  0  0  0  0  0
  160.5980  213.3690  146.4500 C   0  0  0  0  0  0  0  0  0  0  0  0
  163.2980  212.9170  146.1060 C   0  0  0  0  0  3  0  0  0  0  0  0
  163.2430  213.4180  143.6640 C   0  0  0  0  0  1  0  0  0  0  0  0
  161.3970  213.2850  147.6090 C   0  0  0  0  0  0  0  0  0  0  0  0
  161.1640  213.4670  145.1450 C   0  0  0  0  0  3  0  0  0  0  0  0
  162.7670  212.9620  147.3650 C   0  0  0  0  0  3  0  0  0  0  0  0
  160.7920  213.2610  148.9440 C   0  0  2  0  0  3  0  0  0  0  0  0
  158.6180  212.9110  147.9770 C   0  0  0  0  0  2  0  0  0  0  0  0
  159.1370  213.1100  146.5500 C   0  0  0  0  0  2  0  0  0  0  0  0
  158.5870  213.3340  150.2170 C   0  0  0  0  0  2  0  0  0  0  0  0
  158.8860  214.4520  151.6460 S   0  0  0  0  0  0  0  0  0  0  0  0
  158.7110  212.3240  153.4400 C   0  0  0  0  0  3  0  0  0  0  0  0
  156.6490  211.9030  154.6490 C   0  0  0  0  0  0  0  0  0  0  0  0
  156.8560  213.8860  153.2540 C   0  0  0  0  0  3  0  0  0  0  0  0
  158.0060  211.5880  154.3870 C   0  0  0  0  0  3  0  0  0  0  0  0
  158.0780  213.4560  152.8680 C   0  0  0  0  0  0  0  0  0  0  0  0
  156.1030  213.0760  154.1120 C   0  0  0  0  0  3  0  0  0  0  0  0
  155.2000  210.5270  156.2570 N   0  0  0  0  0  0  0  0  0  0  0  0
  155.7910  211.1390  155.4570 C   0  0  0  0  0  0  0  0  0  0  0  0
  162.4720  208.8090  148.2950 C   0  0  0  0  0  2  0  0  0  0  0  0
  162.2370  207.4970  148.6490 O   0  0  0  0  0  0  0  0  0  0  0  0
  161.2380  206.8870  147.8610 C   0  0  0  0  0  2  0  0  0  0  0  0
  160.4210  206.0890  148.8340 C   0  0  0  0  0  2  0  0  0  0  0  0
  161.1850  205.3480  149.7730 N   0  0  0  0  0  0  0  0  0  0  0  0
  161.1220  203.9040  149.4000 C   0  0  0  0  0  0  0  0  0  0  0  0
  160.6480  201.6530  150.0450 C   0  0  0  0  0  3  0  0  0  0  0  0
  161.1750  202.1670  147.7610 C   0  0  0  0  0  3  0  0  0  0  0  0
  160.7150  201.2770  148.7280 C   0  0  0  0  0  3  0  0  0  0  0  0
  161.3500  203.5310  148.0920 C   0  0  0  0  0  3  0  0  0  0  0  0
  160.8720  203.0030  150.3880 C   0  0  0  0  0  3  0  0  0  0  0  0
  160.7880  205.5710  151.1590 C   0  0  0  0  0  2  0  0  0  0  0  0
  161.7520  206.3670  152.0780 C   0  0  0  0  0  2  0  0  0  0  0  0
  161.1240  207.3710  153.0300 C   0  0  0  0  0  2  0  0  0  0  0  0
  160.7880  207.4300  155.5530 C   0  0  0  0  0  1  0  0  0  0  0  0
  160.7560  206.6120  154.2600 C   0  0  0  0  0  2  0  0  0  0  0  0
  1  3  1  0  0  0  0
  2 28  1  6  0  0  0
  2  1  1  0  0  0  0
  4  2  1  0  0  0  0
  5  4  1  6  0  0  0
  5  6  1  0  0  0  0
  6  3  1  0  0  0  0
  7 13  2  0  0  0  0
  7 10  1  0  0  0  0
  8 18  1  0  0  0  0
  9 17  1  0  0  0  0
  9 12  2  0  0  0  0
 10 14  2  0  0  0  0
 11  7  1  0  0  0  0
 13  9  1  0  0  0  0
 14 12  1  0  0  0  0
 15 12  1  6  0  0  0
 15  8  1  0  0  0  0
 15  5  1  0  0  0  0
 16  8  1  0  0  0  0
 17 16  1  0  0  0  0
 18 19  1  0  0  0  0
 19 24  1  0  0  0  0
 20 23  1  0  0  0  0
 21 27  1  0  0  0  0
 22 25  2  0  0  0  0
 23 21  2  0  0  0  0
 24 22  1  0  0  0  0
 24 20  2  0  0  0  0
 25 21  1  0  0  0  0
 27 26  3  0  0  0  0
 28 29  1  0  0  0  0
 30 29  1  0  0  0  0
 30 31  1  0  0  0  0
 31 32  1  0  0  0  0
 32 39  1  0  0  0  0
 33 32  1  0  0  0  0
 33 38  1  0  0  0  0
 34 38  2  0  0  0  0
 35 37  1  0  0  0  0
 35 36  2  0  0  0  0
 36 34  1  0  0  0  0
 37 33  2  0  0  0  0
 39 40  1  0  0  0  0
 40 41  1  0  0  0  0
 41 43  1  0  0  0  0
 43 42  1  0  0  0  0
M  END
>  <MODEL>
2

>  <REMARK>
 VINA RESULT:      -7.4      3.025      9.580
  Name = 
  15 active torsions:
  status: ('A' for Active; 'I' for Inactive)
    1  A    between atoms: S_1  and  C_34
    2  A    between atoms: S_1  and  C_35
    3  A    between atoms: C_3  and  C_4
    4  A    between atoms: C_3  and  O_12
    5  A    between atoms: C_4  and  N_14
    6  A    between atoms: C_6  and  C_17
    7  A    between atoms: N_8  and  C_34
    8  A    between atoms: C_10  and  C_22
    9  A    between atoms: C_10  and  C_41
   10  A    between atoms: C_11  and  N_14
   11  A    between atoms: O_12  and  C_17
   12  A    between atoms: N_14  and  C_41
   13  A    between atoms: C_19  and  C_37
   14  A    between atoms: C_22  and  C_42
   15  A    between atoms: C_27  and  C_30
                            x       y       z     vdW  Elec       q    Type
                         _______ _______ _______ _____ _____    ______ ____

>  <TORSDO>
F 15

$$$$
=
 OpenBabel11062410043D

 43 47  0  0  1  0  0  0  0  0999 V2000
  161.5680  208.7750  148.6660 N   0  0  0  0  0  2  0  0  0  0  0  0
  161.8840  209.6270  149.7080 C   0  0  1  0  0  3  0  0  0  0  0  0
  161.2560  207.3560  149.0170 C   0  0  0  0  0  2  0  0  0  0  0  0
  162.2020  209.2650  150.9090 C   0  0  0  0  0  2  0  0  0  0  0  0
  161.7370  208.0000  151.3080 C   0  0  1  0  0  3  0  0  0  0  0  0
  161.8870  206.9370  150.3170 N   0  0  0  0  0  2  0  0  0  0  0  0
  160.7600  210.5430  155.6120 C   0  0  0  0  0  0  0  0  0  0  0  0
  161.9170  206.2180  153.0550 N   0  0  0  0  0  0  0  0  0  0  0  0
  160.7910  208.2850  154.6960 C   0  0  0  0  0  0  0  0  0  0  0  0
  161.4810  210.9490  154.4900 C   0  0  0  0  0  3  0  0  0  0  0  0
  160.4160  211.5680  156.6570 C   0  0  0  0  0  1  0  0  0  0  0  0
  161.7470  208.6370  153.7200 C   0  0  0  0  0  0  0  0  0  0  0  0
  160.3690  209.1990  155.7060 C   0  0  0  0  0  3  0  0  0  0  0  0
  161.9930  210.0390  153.6050 C   0  0  0  0  0  3  0  0  0  0  0  0
  162.2210  207.6560  152.7380 C   0  0  2  0  0  3  0  0  0  0  0  0
  160.4630  206.1410  153.3710 C   0  0  0  0  0  2  0  0  0  0  0  0
  160.0200  207.0230  154.5410 C   0  0  0  0  0  2  0  0  0  0  0  0
  162.0160  205.2370  151.9670 C   0  0  0  0  0  2  0  0  0  0  0  0
  161.0070  203.7230  152.2330 S   0  0  0  0  0  0  0  0  0  0  0  0
  161.2030  204.0510  149.4700 C   0  0  0  0  0  3  0  0  0  0  0  0
  160.9000  202.1560  147.9840 C   0  0  0  0  0  0  0  0  0  0  0  0
  160.9400  201.8160  150.3920 C   0  0  0  0  0  3  0  0  0  0  0  0
  161.2030  203.5270  148.1810 C   0  0  0  0  0  3  0  0  0  0  0  0
  161.0320  203.1550  150.5550 C   0  0  0  0  0  0  0  0  0  0  0  0
  160.8150  201.3070  149.0950 C   0  0  0  0  0  3  0  0  0  0  0  0
  160.6680  201.1700  145.6280 N   0  0  0  0  0  0  0  0  0  0  0  0
  160.7110  201.5500  146.7310 C   0  0  0  0  0  0  0  0  0  0  0  0
  162.2290  211.0800  149.3700 C   0  0  0  0  0  2  0  0  0  0  0  0
  161.8270  211.4600  148.1070 O   0  0  0  0  0  0  0  0  0  0  0  0
  162.6260  212.4900  147.5640 C   0  0  0  0  0  2  0  0  0  0  0  0
  161.8610  213.7500  147.8430 C   0  0  0  0  0  2  0  0  0  0  0  0
  160.8900  214.0770  146.8610 N   0  0  0  0  0  0  0  0  0  0  0  0
  159.5490  213.6580  147.3650 C   0  0  0  0  0  0  0  0  0  0  0  0
  157.8810  213.7940  149.0720 C   0  0  0  0  0  3  0  0  0  0  0  0
  157.4310  212.6030  147.0380 C   0  0  0  0  0  3  0  0  0  0  0  0
  156.9960  213.1630  148.2360 C   0  0  0  0  0  3  0  0  0  0  0  0
  158.7340  212.8870  146.5650 C   0  0  0  0  0  3  0  0  0  0  0  0
  159.1980  214.0350  148.6260 C   0  0  0  0  0  3  0  0  0  0  0  0
  161.1760  213.5170  145.5440 C   0  0  0  0  0  2  0  0  0  0  0  0
  162.0990  214.3220  144.5920 C   0  0  0  0  0  2  0  0  0  0  0  0
  162.9860  213.5210  143.6530 C   0  0  0  0  0  2  0  0  0  0  0  0
  162.2850  212.3390  141.5100 C   0  0  0  0  0  1  0  0  0  0  0  0
  162.1120  212.4890  143.0240 C   0  0  0  0  0  2  0  0  0  0  0  0
  1  3  1  0  0  0  0
  1  2  1  0  0  0  0
  2 28  1  6  0  0  0
  2  4  1  0  0  0  0
  3  6  1  0  0  0  0
  5  4  1  6  0  0  0
  5 15  1  0  0  0  0
  6  5  1  0  0  0  0
  7 13  1  0  0  0  0
  7 11  1  0  0  0  0
  8 16  1  0  0  0  0
  9 13  2  0  0  0  0
 10  7  2  0  0  0  0
 12  9  1  0  0  0  0
 14 12  2  0  0  0  0
 14 10  1  0  0  0  0
 15  8  1  0  0  0  0
 15 12  1  1  0  0  0
 16 17  1  0  0  0  0
 17  9  1  0  0  0  0
 18 19  1  0  0  0  0
 18  8  1  0  0  0  0
 20 24  1  0  0  0  0
 21 23  1  0  0  0  0
 21 25  2  0  0  0  0
 22 24  2  0  0  0  0
 23 20  2  0  0  0  0
 24 19  1  0  0  0  0
 25 22  1  0  0  0  0
 26 27  3  0  0  0  0
 27 21  1  0  0  0  0
 29 28  1  0  0  0  0
 30 31  1  0  0  0  0
 30 29  1  0  0  0  0
 32 33  1  0  0  0  0
 32 31  1  0  0  0  0
 33 38  1  0  0  0  0
 35 36  2  0  0  0  0
 36 34  1  0  0  0  0
 37 35  1  0  0  0  0
 37 33  2  0  0  0  0
 38 34  2  0  0  0  0
 39 32  1  0  0  0  0
 40 39  1  0  0  0  0
 41 40  1  0  0  0  0
 42 43  1  0  0  0  0
 43 41  1  0  0  0  0
M  END
>  <MODEL>
3

>  <REMARK>
 VINA RESULT:      -7.2      0.678      3.120
  Name = 
  15 active torsions:
  status: ('A' for Active; 'I' for Inactive)
    1  A    between atoms: S_1  and  C_34
    2  A    between atoms: S_1  and  C_35
    3  A    between atoms: C_3  and  C_4
    4  A    between atoms: C_3  and  O_12
    5  A    between atoms: C_4  and  N_14
    6  A    between atoms: C_6  and  C_17
    7  A    between atoms: N_8  and  C_34
    8  A    between atoms: C_10  and  C_22
    9  A    between atoms: C_10  and  C_41
   10  A    between atoms: C_11  and  N_14
   11  A    between atoms: O_12  and  C_17
   12  A    between atoms: N_14  and  C_41
   13  A    between atoms: C_19  and  C_37
   14  A    between atoms: C_22  and  C_42
   15  A    between atoms: C_27  and  C_30
                            x       y       z     vdW  Elec       q    Type
                         _______ _______ _______ _____ _____    ______ ____

>  <TORSDO>
F 15

$$$$
=
 OpenBabel11062410043D

 43 47  0  0  1  0  0  0  0  0999 V2000
  160.8190  206.1640  153.7070 N   0  0  0  0  0  2  0  0  0  0  0  0
  161.1090  206.8880  152.5650 C   0  0  1  0  0  3  0  0  0  0  0  0
  160.4950  206.9390  154.9420 C   0  0  0  0  0  2  0  0  0  0  0  0
  161.3960  208.1500  152.5250 C   0  0  0  0  0  2  0  0  0  0  0  0
  160.9180  208.9190  153.6010 C   0  0  1  0  0  3  0  0  0  0  0  0
  161.0920  208.3200  154.9230 N   0  0  0  0  0  2  0  0  0  0  0  0
  161.5770  211.5930  149.3170 C   0  0  0  0  0  0  0  0  0  0  0  0
  160.5190  211.2710  154.3530 N   0  0  0  0  0  0  0  0  0  0  0  0
  160.5550  211.7480  151.5230 C   0  0  0  0  0  0  0  0  0  0  0  0
  162.2760  210.4790  149.7790 C   0  0  0  0  0  3  0  0  0  0  0  0
  161.8130  212.0580  147.9060 C   0  0  0  0  0  1  0  0  0  0  0  0
  161.4570  210.8090  152.0660 C   0  0  0  0  0  0  0  0  0  0  0  0
  160.6690  212.2210  150.1830 C   0  0  0  0  0  3  0  0  0  0  0  0
  162.2570  210.1250  151.1000 C   0  0  0  0  0  3  0  0  0  0  0  0
  161.3640  210.3960  153.4700 C   0  0  2  0  0  3  0  0  0  0  0  0
  159.2120  211.4530  153.6610 C   0  0  0  0  0  2  0  0  0  0  0  0
  159.3120  212.0810  152.2690 C   0  0  0  0  0  2  0  0  0  0  0  0
  160.0770  210.7270  155.6420 C   0  0  0  0  0  2  0  0  0  0  0  0
  160.2400  211.9060  157.0450 S   0  0  0  0  0  0  0  0  0  0  0  0
  158.3640  213.9240  156.6160 C   0  0  0  0  0  3  0  0  0  0  0  0
  156.0040  213.5090  157.0030 C   0  0  0  0  0  0  0  0  0  0  0  0
  157.6020  211.6820  157.1720 C   0  0  0  0  0  3  0  0  0  0  0  0
  157.0460  214.3700  156.5770 C   0  0  0  0  0  3  0  0  0  0  0  0
  158.6000  212.5680  156.9560 C   0  0  0  0  0  0  0  0  0  0  0  0
  156.2890  212.1600  157.2540 C   0  0  0  0  0  3  0  0  0  0  0  0
  153.6050  214.3790  157.2610 N   0  0  0  0  0  0  0  0  0  0  0  0
  154.6620  213.8930  157.1610 C   0  0  0  0  0  0  0  0  0  0  0  0
  161.4650  206.1150  151.2930 C   0  0  0  0  0  2  0  0  0  0  0  0
  160.4560  205.2840  150.8550 O   0  0  0  0  0  0  0  0  0  0  0  0
  160.6900  203.9270  151.1630 C   0  0  0  0  0  2  0  0  0  0  0  0
  161.5200  203.4160  150.0210 C   0  0  0  0  0  2  0  0  0  0  0  0
  160.9350  203.6020  148.7420 N   0  0  0  0  0  0  0  0  0  0  0  0
  160.9850  202.3050  148.0050 C   0  0  0  0  0  0  0  0  0  0  0  0
  160.7380  201.1230  145.9430 C   0  0  0  0  0  3  0  0  0  0  0  0
  161.5610  199.9890  147.8920 C   0  0  0  0  0  3  0  0  0  0  0  0
  161.3190  200.0230  146.5210 C   0  0  0  0  0  3  0  0  0  0  0  0
  161.4280  201.1720  148.6560 C   0  0  0  0  0  3  0  0  0  0  0  0
  160.5550  202.2900  146.7140 C   0  0  0  0  0  3  0  0  0  0  0  0
  161.5350  204.6890  147.9750 C   0  0  0  0  0  2  0  0  0  0  0  0
  160.6460  205.9060  147.6120 C   0  0  0  0  0  2  0  0  0  0  0  0
  160.7460  206.4330  146.1900 C   0  0  0  0  0  2  0  0  0  0  0  0
  161.4710  205.4120  143.9730 C   0  0  0  0  0  1  0  0  0  0  0  0
  161.7120  205.5460  145.4790 C   0  0  0  0  0  2  0  0  0  0  0  0
  1  3  1  0  0  0  0
  2 28  1  1  0  0  0
  2  1  1  0  0  0  0
  4  2  1  0  0  0  0
  5  4  1  6  0  0  0
  5  6  1  0  0  0  0
  6  3  1  0  0  0  0
  7 10  2  0  0  0  0
  7 13  1  0  0  0  0
  8 18  1  0  0  0  0
  9 12  1  0  0  0  0
  9 17  1  0  0  0  0
 10 14  1  0  0  0  0
 11  7  1  0  0  0  0
 13  9  2  0  0  0  0
 14 12  2  0  0  0  0
 15 12  1  6  0  0  0
 15  5  1  0  0  0  0
 15  8  1  0  0  0  0
 16  8  1  0  0  0  0
 17 16  1  0  0  0  0
 18 19  1  0  0  0  0
 20 24  1  0  0  0  0
 21 27  1  0  0  0  0
 21 25  2  0  0  0  0
 22 25  1  0  0  0  0
 23 20  2  0  0  0  0
 23 21  1  0  0  0  0
 24 19  1  0  0  0  0
 24 22  2  0  0  0  0
 27 26  3  0  0  0  0
 29 30  1  0  0  0  0
 29 28  1  0  0  0  0
 31 30  1  0  0  0  0
 32 31  1  0  0  0  0
 33 37  1  0  0  0  0
 33 32  1  0  0  0  0
 34 36  2  0  0  0  0
 34 38  1  0  0  0  0
 35 37  2  0  0  0  0
 36 35  1  0  0  0  0
 38 33  2  0  0  0  0
 39 32  1  0  0  0  0
 40 39  1  0  0  0  0
 41 40  1  0  0  0  0
 42 43  1  0  0  0  0
 43 41  1  0  0  0  0
M  END
>  <MODEL>
4

>  <REMARK>
 VINA RESULT:      -6.6      3.654      9.693
  Name = 
  15 active torsions:
  status: ('A' for Active; 'I' for Inactive)
    1  A    between atoms: S_1  and  C_34
    2  A    between atoms: S_1  and  C_35
    3  A    between atoms: C_3  and  C_4
    4  A    between atoms: C_3  and  O_12
    5  A    between atoms: C_4  and  N_14
    6  A    between atoms: C_6  and  C_17
    7  A    between atoms: N_8  and  C_34
    8  A    between atoms: C_10  and  C_22
    9  A    between atoms: C_10  and  C_41
   10  A    between atoms: C_11  and  N_14
   11  A    between atoms: O_12  and  C_17
   12  A    between atoms: N_14  and  C_41
   13  A    between atoms: C_19  and  C_37
   14  A    between atoms: C_22  and  C_42
   15  A    between atoms: C_27  and  C_30
                            x       y       z     vdW  Elec       q    Type
                         _______ _______ _______ _____ _____    ______ ____

>  <TORSDO>
F 15

$$$$
=
 OpenBabel11062410043D

 43 47  0  0  1  0  0  0  0  0999 V2000
  162.3380  210.1610  149.6030 N   0  0  0  0  0  2  0  0  0  0  0  0
  161.9250  209.0940  150.3780 C   0  0  1  0  0  3  0  0  0  0  0  0
  161.9710  211.5300  150.0760 C   0  0  0  0  0  2  0  0  0  0  0  0
  161.0280  209.1420  151.3110 C   0  0  0  0  0  2  0  0  0  0  0  0
  160.8210  210.4040  151.8940 C   0  0  1  0  0  3  0  0  0  0  0  0
  160.7500  211.5220  150.9560 N   0  0  0  0  0  2  0  0  0  0  0  0
  160.7240  207.6410  156.1720 C   0  0  0  0  0  0  0  0  0  0  0  0
  159.3140  211.7390  153.3790 N   0  0  0  0  0  0  0  0  0  0  0  0
  160.2910  209.8930  155.3450 C   0  0  0  0  0  0  0  0  0  0  0  0
  160.7320  207.2150  154.8450 C   0  0  0  0  0  3  0  0  0  0  0  0
  160.9320  206.6220  157.2580 C   0  0  0  0  0  1  0  0  0  0  0  0
  160.0240  209.4200  154.0430 C   0  0  0  0  0  0  0  0  0  0  0  0
  160.5410  209.0080  156.4350 C   0  0  0  0  0  3  0  0  0  0  0  0
  160.3570  208.0480  153.8270 C   0  0  0  0  0  3  0  0  0  0  0  0
  159.6950  210.3480  152.9550 C   0  0  2  0  0  3  0  0  0  0  0  0
  160.3710  212.2140  154.3140 C   0  0  0  0  0  2  0  0  0  0  0  0
  160.5600  211.3400  155.5560 C   0  0  0  0  0  2  0  0  0  0  0  0
  159.3440  212.8000  152.3640 C   0  0  0  0  0  2  0  0  0  0  0  0
  157.6840  213.4630  151.9290 S   0  0  0  0  0  0  0  0  0  0  0  0
  159.1060  214.3470  149.6980 C   0  0  0  0  0  3  0  0  0  0  0  0
  158.2330  213.9820  147.4630 C   0  0  0  0  0  0  0  0  0  0  0  0
  157.0920  213.0180  149.3840 C   0  0  0  0  0  3  0  0  0  0  0  0
  159.2600  214.4520  148.3200 C   0  0  0  0  0  3  0  0  0  0  0  0
  157.9770  213.6440  150.1920 C   0  0  0  0  0  0  0  0  0  0  0  0
  157.1810  213.2310  148.0030 C   0  0  0  0  0  3  0  0  0  0  0  0
  157.9930  214.3420  144.9350 N   0  0  0  0  0  0  0  0  0  0  0  0
  158.1990  214.1760  146.0720 C   0  0  0  0  0  0  0  0  0  0  0  0
  162.2710  207.6810  149.9020 C   0  0  0  0  0  2  0  0  0  0  0  0
  162.7870  207.6430  148.6240 O   0  0  0  0  0  0  0  0  0  0  0  0
  162.6920  206.3660  148.0320 C   0  0  0  0  0  2  0  0  0  0  0  0
  161.2360  206.0160  148.1130 C   0  0  0  0  0  2  0  0  0  0  0  0
  160.9570  204.6310  147.9830 N   0  0  0  0  0  0  0  0  0  0  0  0
  160.8810  204.0330  149.3480 C   0  0  0  0  0  0  0  0  0  0  0  0
  160.9900  202.0840  150.7270 C   0  0  0  0  0  3  0  0  0  0  0  0
  160.8030  204.2590  151.7250 C   0  0  0  0  0  3  0  0  0  0  0  0
  161.0310  202.8890  151.8360 C   0  0  0  0  0  3  0  0  0  0  0  0
  160.7640  204.8600  150.4450 C   0  0  0  0  0  3  0  0  0  0  0  0
  160.8980  202.6750  149.4500 C   0  0  0  0  0  3  0  0  0  0  0  0
  161.9010  203.9200  147.1270 C   0  0  0  0  0  2  0  0  0  0  0  0
  161.5400  203.7390  145.6300 C   0  0  0  0  0  2  0  0  0  0  0  0
  160.1800  203.1400  145.3160 C   0  0  0  0  0  2  0  0  0  0  0  0
  160.8540  200.9760  146.4760 C   0  0  0  0  0  1  0  0  0  0  0  0
  160.3850  201.6680  145.1940 C   0  0  0  0  0  2  0  0  0  0  0  0
  1  3  1  0  0  0  0
  1  2  1  0  0  0  0
  2 28  1  6  0  0  0
  2  4  1  0  0  0  0
  3  6  1  0  0  0  0
  5  4  1  6  0  0  0
  5 15  1  0  0  0  0
  6  5  1  0  0  0  0
  7 13  1  0  0  0  0
  7 11  1  0  0  0  0
  8 16  1  0  0  0  0
  9 17  1  0  0  0  0
  9 13  2  0  0  0  0
 10  7  2  0  0  0  0
 12  9  1  0  0  0  0
 14 12  2  0  0  0  0
 14 10  1  0  0  0  0
 15  8  1  0  0  0  0
 15 12  1  1  0  0  0
 16 17  1  0  0  0  0
 18  8  1  0  0  0  0
 19 18  1  0  0  0  0
 20 24  1  0  0  0  0
 21 25  2  0  0  0  0
 21 23  1  0  0  0  0
 22 24  2  0  0  0  0
 23 20  2  0  0  0  0
 24 19  1  0  0  0  0
 25 22  1  0  0  0  0
 26 27  3  0  0  0  0
 27 21  1  0  0  0  0
 29 28  1  0  0  0  0
 30 31  1  0  0  0  0
 30 29  1  0  0  0  0
 32 31  1  0  0  0  0
 32 33  1  0  0  0  0
 33 38  2  0  0  0  0
 33 37  1  0  0  0  0
 34 36  2  0  0  0  0
 35 36  1  0  0  0  0
 37 35  2  0  0  0  0
 38 34  1  0  0  0  0
 39 32  1  0  0  0  0
 40 39  1  0  0  0  0
 41 40  1  0  0  0  0
 43 41  1  0  0  0  0
 43 42  1  0  0  0  0
M  END
>  <MODEL>
5

>  <REMARK>
 VINA RESULT:      -6.5      2.948      8.674
  Name = 
  15 active torsions:
  status: ('A' for Active; 'I' for Inactive)
    1  A    between atoms: S_1  and  C_34
    2  A    between atoms: S_1  and  C_35
    3  A    between atoms: C_3  and  C_4
    4  A    between atoms: C_3  and  O_12
    5  A    between atoms: C_4  and  N_14
    6  A    between atoms: C_6  and  C_17
    7  A    between atoms: N_8  and  C_34
    8  A    between atoms: C_10  and  C_22
    9  A    between atoms: C_10  and  C_41
   10  A    between atoms: C_11  and  N_14
   11  A    between atoms: O_12  and  C_17
   12  A    between atoms: N_14  and  C_41
   13  A    between atoms: C_19  and  C_37
   14  A    between atoms: C_22  and  C_42
   15  A    between atoms: C_27  and  C_30
                            x       y       z     vdW  Elec       q    Type
                         _______ _______ _______ _____ _____    ______ ____

>  <TORSDO>
F 15

$$$$
=
 OpenBabel11062410043D

 43 47  0  0  1  0  0  0  0  0999 V2000
  162.7750  206.5840  147.1590 N   0  0  0  0  0  2  0  0  0  0  0  0
  161.6270  206.6230  147.9280 C   0  0  1  0  0  3  0  0  0  0  0  0
  163.0810  205.3020  146.4560 C   0  0  0  0  0  2  0  0  0  0  0  0
  160.9460  205.5940  148.3210 C   0  0  0  0  0  2  0  0  0  0  0  0
  161.0880  204.4350  147.5370 C   0  0  1  0  0  3  0  0  0  0  0  0
  162.4560  204.1140  147.1360 N   0  0  0  0  0  2  0  0  0  0  0  0
  161.0910  199.5740  146.0180 C   0  0  0  0  0  0  0  0  0  0  0  0
  160.4510  203.2060  149.6220 N   0  0  0  0  0  0  0  0  0  0  0  0
  161.2140  200.9430  148.0300 C   0  0  0  0  0  0  0  0  0  0  0  0
  160.6660  200.7120  145.3360 C   0  0  0  0  0  3  0  0  0  0  0  0
  161.2070  198.2800  145.2610 C   0  0  0  0  0  1  0  0  0  0  0  0
  160.5260  202.0080  147.4120 C   0  0  0  0  0  0  0  0  0  0  0  0
  161.4110  199.6900  147.3800 C   0  0  0  0  0  3  0  0  0  0  0  0
  160.3530  201.8660  146.0010 C   0  0  0  0  0  3  0  0  0  0  0  0
  160.2710  203.2610  148.1300 C   0  0  2  0  0  3  0  0  0  0  0  0
  161.7860  202.5960  149.8750 C   0  0  0  0  0  2  0  0  0  0  0  0
  161.9650  201.1920  149.2900 C   0  0  0  0  0  2  0  0  0  0  0  0
  160.5840  204.4750  150.3460 C   0  0  0  0  0  2  0  0  0  0  0  0
  161.8950  204.4640  151.6360 S   0  0  0  0  0  0  0  0  0  0  0  0
  161.2190  207.1690  151.7010 C   0  0  0  0  0  3  0  0  0  0  0  0
  160.8290  208.2870  153.8200 C   0  0  0  0  0  0  0  0  0  0  0  0
  161.2050  205.8840  153.7660 C   0  0  0  0  0  3  0  0  0  0  0  0
  160.8550  208.3140  152.4020 C   0  0  0  0  0  3  0  0  0  0  0  0
  161.4200  205.9720  152.4340 C   0  0  0  0  0  0  0  0  0  0  0  0
  160.9620  207.0610  154.4840 C   0  0  0  0  0  3  0  0  0  0  0  0
  160.6380  210.3090  155.3870 N   0  0  0  0  0  0  0  0  0  0  0  0
  160.6370  209.4120  154.6380 C   0  0  0  0  0  0  0  0  0  0  0  0
  161.3040  207.9200  148.6750 C   0  0  0  0  0  2  0  0  0  0  0  0
  162.2610  208.8990  148.5150 O   0  0  0  0  0  0  0  0  0  0  0  0
  161.9560  210.0850  149.2170 C   0  0  0  0  0  2  0  0  0  0  0  0
  161.8740  211.1430  148.1560 C   0  0  0  0  0  2  0  0  0  0  0  0
  161.8750  212.4720  148.6510 N   0  0  0  0  0  0  0  0  0  0  0  0
  160.4630  212.9500  148.7250 C   0  0  0  0  0  0  0  0  0  0  0  0
  158.7150  213.9470  150.0140 C   0  0  0  0  0  3  0  0  0  0  0  0
  158.3890  213.5070  147.6780 C   0  0  0  0  0  3  0  0  0  0  0  0
  157.9770  214.0990  148.8690 C   0  0  0  0  0  3  0  0  0  0  0  0
  159.6850  212.9470  147.5870 C   0  0  0  0  0  3  0  0  0  0  0  0
  159.9870  213.3430  149.9390 C   0  0  0  0  0  3  0  0  0  0  0  0
  162.7200  213.3830  147.8860 C   0  0  0  0  0  2  0  0  0  0  0  0
  163.0800  212.9980  146.4280 C   0  0  0  0  0  2  0  0  0  0  0  0
  162.5210  213.8800  145.3240 C   0  0  0  0  0  2  0  0  0  0  0  0
  162.0060  212.5800  143.1970 C   0  0  0  0  0  1  0  0  0  0  0  0
  163.0410  213.3290  144.0390 C   0  0  0  0  0  2  0  0  0  0  0  0
  1  2  1  0  0  0  0
  2  4  1  0  0  0  0
  2 28  1  1  0  0  0
  3  6  1  0  0  0  0
  3  1  1  0  0  0  0
  5 15  1  0  0  0  0
  5  4  1  1  0  0  0
  6  5  1  0  0  0  0
  7 13  1  0  0  0  0
  8 16  1  0  0  0  0
  8 18  1  0  0  0  0
  9 17  1  0  0  0  0
 10 14  1  0  0  0  0
 10  7  2  0  0  0  0
 11  7  1  0  0  0  0
 12  9  1  0  0  0  0
 13  9  2  0  0  0  0
 14 12  2  0  0  0  0
 15 12  1  6  0  0  0
 15  8  1  0  0  0  0
 17 16  1  0  0  0  0
 18 19  1  0  0  0  0
 19 24  1  0  0  0  0
 20 23  2  0  0  0  0
 20 24  1  0  0  0  0
 21 25  2  0  0  0  0
 21 27  1  0  0  0  0
 22 25  1  0  0  0  0
 23 21  1  0  0  0  0
 24 22  2  0  0  0  0
 27 26  3  0  0  0  0
 29 28  1  0  0  0  0
 29 30  1  0  0  0  0
 31 32  1  0  0  0  0
 31 30  1  0  0  0  0
 32 33  1  0  0  0  0
 33 38  1  0  0  0  0
 35 36  2  0  0  0  0
 36 34  1  0  0  0  0
 37 35  1  0  0  0  0
 37 33  2  0  0  0  0
 38 34  2  0  0  0  0
 39 32  1  0  0  0  0
 40 39  1  0  0  0  0
 41 40  1  0  0  0  0
 42 43  1  0  0  0  0
 43 41  1  0  0  0  0
M  END
>  <MODEL>
6

>  <REMARK>
 VINA RESULT:      -6.5      1.923      7.483
  Name = 
  15 active torsions:
  status: ('A' for Active; 'I' for Inactive)
    1  A    between atoms: S_1  and  C_34
    2  A    between atoms: S_1  and  C_35
    3  A    between atoms: C_3  and  C_4
    4  A    between atoms: C_3  and  O_12
    5  A    between atoms: C_4  and  N_14
    6  A    between atoms: C_6  and  C_17
    7  A    between atoms: N_8  and  C_34
    8  A    between atoms: C_10  and  C_22
    9  A    between atoms: C_10  and  C_41
   10  A    between atoms: C_11  and  N_14
   11  A    between atoms: O_12  and  C_17
   12  A    between atoms: N_14  and  C_41
   13  A    between atoms: C_19  and  C_37
   14  A    between atoms: C_22  and  C_42
   15  A    between atoms: C_27  and  C_30
                            x       y       z     vdW  Elec       q    Type
                         _______ _______ _______ _____ _____    ______ ____

>  <TORSDO>
F 15

$$$$
=
 OpenBabel11062410043D

 43 47  0  0  1  0  0  0  0  0999 V2000
  162.8590  206.6360  147.3330 N   0  0  0  0  0  2  0  0  0  0  0  0
  161.6720  206.6810  148.0410 C   0  0  1  0  0  3  0  0  0  0  0  0
  163.2010  205.3480  146.6570 C   0  0  0  0  0  2  0  0  0  0  0  0
  160.9720  205.6550  148.4060 C   0  0  0  0  0  2  0  0  0  0  0  0
  161.1520  204.4900  147.6390 C   0  0  1  0  0  3  0  0  0  0  0  0
  162.5390  204.1660  147.3130 N   0  0  0  0  0  2  0  0  0  0  0  0
  161.0990  199.6550  146.0390 C   0  0  0  0  0  0  0  0  0  0  0  0
  160.4580  203.2380  149.6910 N   0  0  0  0  0  0  0  0  0  0  0  0
  161.2100  200.9890  148.0760 C   0  0  0  0  0  0  0  0  0  0  0  0
  160.7070  200.8120  145.3680 C   0  0  0  0  0  3  0  0  0  0  0  0
  161.2060  198.3720  145.2620 C   0  0  0  0  0  1  0  0  0  0  0  0
  160.5520  202.0760  147.4630 C   0  0  0  0  0  0  0  0  0  0  0  0
  161.3970  199.7430  147.4080 C   0  0  0  0  0  3  0  0  0  0  0  0
  160.4020  201.9600  146.0470 C   0  0  0  0  0  3  0  0  0  0  0  0
  160.3050  203.3210  148.1980 C   0  0  2  0  0  3  0  0  0  0  0  0
  161.7770  202.6000  149.9580 C   0  0  0  0  0  2  0  0  0  0  0  0
  161.9410  201.2040  149.3520 C   0  0  0  0  0  2  0  0  0  0  0  0
  160.5990  204.4930  150.4390 C   0  0  0  0  0  2  0  0  0  0  0  0
  161.5650  204.3280  151.9960 S   0  0  0  0  0  0  0  0  0  0  0  0
  161.2120  207.0840  151.7550 C   0  0  0  0  0  3  0  0  0  0  0  0
  160.8960  208.4590  153.7300 C   0  0  0  0  0  0  0  0  0  0  0  0
  160.9870  206.0370  153.9380 C   0  0  0  0  0  3  0  0  0  0  0  0
  160.9660  208.3310  152.3200 C   0  0  0  0  0  3  0  0  0  0  0  0
  161.2490  205.9570  152.6150 C   0  0  0  0  0  0  0  0  0  0  0  0
  160.8640  207.3030  154.5210 C   0  0  0  0  0  3  0  0  0  0  0  0
  160.8950  210.7380  154.9060 N   0  0  0  0  0  0  0  0  0  0  0  0
  160.8140  209.6790  154.4210 C   0  0  0  0  0  0  0  0  0  0  0  0
  161.3120  207.9830  148.7600 C   0  0  0  0  0  2  0  0  0  0  0  0
  162.0950  209.0540  148.3830 O   0  0  0  0  0  0  0  0  0  0  0  0
  161.8700  210.2030  149.1700 C   0  0  0  0  0  2  0  0  0  0  0  0
  162.3210  211.3470  148.3100 C   0  0  0  0  0  2  0  0  0  0  0  0
  161.3390  212.3500  148.1050 N   0  0  0  0  0  0  0  0  0  0  0  0
  161.1970  212.5800  146.6380 C   0  0  0  0  0  0  0  0  0  0  0  0
  159.7790  212.6590  144.7160 C   0  0  0  0  0  3  0  0  0  0  0  0
  162.0760  213.3340  144.5480 C   0  0  0  0  0  3  0  0  0  0  0  0
  160.7950  213.2500  144.0090 C   0  0  0  0  0  3  0  0  0  0  0  0
  162.2820  213.0270  145.9130 C   0  0  0  0  0  3  0  0  0  0  0  0
  159.9950  212.3030  146.0640 C   0  0  0  0  0  3  0  0  0  0  0  0
  161.6060  213.5890  148.8290 C   0  0  0  0  0  2  0  0  0  0  0  0
  160.3960  214.4050  149.3540 C   0  0  0  0  0  2  0  0  0  0  0  0
  159.1140  213.6380  149.6260 C   0  0  0  0  0  2  0  0  0  0  0  0
  159.5800  212.3600  151.7780 C   0  0  0  0  0  1  0  0  0  0  0  0
  158.9590  213.5880  151.1090 C   0  0  0  0  0  2  0  0  0  0  0  0
  1  2  1  0  0  0  0
  2  4  1  0  0  0  0
  2 28  1  1  0  0  0
  3  6  1  0  0  0  0
  3  1  1  0  0  0  0
  5 15  1  0  0  0  0
  5  4  1  1  0  0  0
  6  5  1  0  0  0  0
  7 13  1  0  0  0  0
  8 16  1  0  0  0  0
  8 18  1  0  0  0  0
  9 17  1  0  0  0  0
 10  7  2  0  0  0  0
 10 14  1  0  0  0  0
 11  7  1  0  0  0  0
 12  9  1  0  0  0  0
 13  9  2  0  0  0  0
 14 12  2  0  0  0  0
 15 12  1  6  0  0  0
 15  8  1  0  0  0  0
 17 16  1  0  0  0  0
 18 19  1  0  0  0  0
 19 24  1  0  0  0  0
 20 23  2  0  0  0  0
 20 24  1  0  0  0  0
 21 27  1  0  0  0  0
 21 25  2  0  0  0  0
 22 25  1  0  0  0  0
 23 21  1  0  0  0  0
 24 22  2  0  0  0  0
 27 26  3  0  0  0  0
 29 28  1  0  0  0  0
 29 30  1  0  0  0  0
 31 30  1  0  0  0  0
 32 31  1  0  0  0  0
 32 39  1  0  0  0  0
 33 32  1  0  0  0  0
 34 38  2  0  0  0  0
 35 37  1  0  0  0  0
 36 35  2  0  0  0  0
 36 34  1  0  0  0  0
 37 33  2  0  0  0  0
 38 33  1  0  0  0  0
 39 40  1  0  0  0  0
 40 41  1  0  0  0  0
 41 43  1  0  0  0  0
 43 42  1  0  0  0  0
M  END
>  <MODEL>
7

>  <REMARK>
 VINA RESULT:      -6.4      2.007      6.897
  Name = 
  15 active torsions:
  status: ('A' for Active; 'I' for Inactive)
    1  A    between atoms: S_1  and  C_34
    2  A    between atoms: S_1  and  C_35
    3  A    between atoms: C_3  and  C_4
    4  A    between atoms: C_3  and  O_12
    5  A    between atoms: C_4  and  N_14
    6  A    between atoms: C_6  and  C_17
    7  A    between atoms: N_8  and  C_34
    8  A    between atoms: C_10  and  C_22
    9  A    between atoms: C_10  and  C_41
   10  A    between atoms: C_11  and  N_14
   11  A    between atoms: O_12  and  C_17
   12  A    between atoms: N_14  and  C_41
   13  A    between atoms: C_19  and  C_37
   14  A    between atoms: C_22  and  C_42
   15  A    between atoms: C_27  and  C_30
                            x       y       z     vdW  Elec       q    Type
                         _______ _______ _______ _____ _____    ______ ____

>  <TORSDO>
F 15

$$$$
=
 OpenBabel11062410043D

 43 47  0  0  1  0  0  0  0  0999 V2000
  160.8780  208.5450  152.9660 N   0  0  0  0  0  2  0  0  0  0  0  0
  161.4130  209.0640  151.8010 C   0  0  1  0  0  3  0  0  0  0  0  0
  159.9500  209.4230  153.7400 C   0  0  0  0  0  2  0  0  0  0  0  0
  161.4100  210.3140  151.4610 C   0  0  0  0  0  2  0  0  0  0  0  0
  160.4050  211.1030  152.0470 C   0  0  1  0  0  3  0  0  0  0  0  0
  160.1920  210.8840  153.4760 N   0  0  0  0  0  2  0  0  0  0  0  0
  160.2880  212.9510  147.3030 C   0  0  0  0  0  0  0  0  0  0  0  0
  159.5720  213.4380  152.3850 N   0  0  0  0  0  0  0  0  0  0  0  0
  159.3670  213.3420  149.5250 C   0  0  0  0  0  0  0  0  0  0  0  0
  161.2210  212.1050  147.8990 C   0  0  0  0  0  3  0  0  0  0  0  0
  160.3520  213.1630  145.8150 C   0  0  0  0  0  1  0  0  0  0  0  0
  160.4680  212.7190  150.1490 C   0  0  0  0  0  0  0  0  0  0  0  0
  159.3150  213.5530  148.1160 C   0  0  0  0  0  3  0  0  0  0  0  0
  161.3420  212.0220  149.2590 C   0  0  0  0  0  3  0  0  0  0  0  0
  160.5320  212.5820  151.6080 C   0  0  2  0  0  3  0  0  0  0  0  0
  158.2220  213.2260  151.7910 C   0  0  0  0  0  2  0  0  0  0  0  0
  158.1220  213.5730  150.3040 C   0  0  0  0  0  2  0  0  0  0  0  0
  159.3160  213.0850  153.7870 C   0  0  0  0  0  2  0  0  0  0  0  0
  158.4400  214.3940  154.7380 S   0  0  0  0  0  0  0  0  0  0  0  0
  157.7020  212.4500  156.5970 C   0  0  0  0  0  3  0  0  0  0  0  0
  155.4280  211.6060  156.6530 C   0  0  0  0  0  0  0  0  0  0  0  0
  156.0020  213.4500  155.1740 C   0  0  0  0  0  3  0  0  0  0  0  0
  156.7410  211.6370  157.1870 C   0  0  0  0  0  3  0  0  0  0  0  0
  157.2910  213.3260  155.5600 C   0  0  0  0  0  0  0  0  0  0  0  0
  155.0620  212.5450  155.6810 C   0  0  0  0  0  3  0  0  0  0  0  0
  153.6450  209.8640  157.2610 N   0  0  0  0  0  0  0  0  0  0  0  0
  154.4210  210.7130  157.0560 C   0  0  0  0  0  0  0  0  0  0  0  0
  162.3830  208.1910  151.0020 C   0  0  0  0  0  2  0  0  0  0  0  0
  162.2970  208.3790  149.6390 O   0  0  0  0  0  0  0  0  0  0  0  0
  162.4010  207.1740  148.9120 C   0  0  0  0  0  2  0  0  0  0  0  0
  161.1980  206.3770  149.3210 C   0  0  0  0  0  2  0  0  0  0  0  0
  160.8290  205.3580  148.4050 N   0  0  0  0  0  0  0  0  0  0  0  0
  160.9470  204.0390  149.0920 C   0  0  0  0  0  0  0  0  0  0  0  0
  161.1070  202.8150  151.1390 C   0  0  0  0  0  3  0  0  0  0  0  0
  160.8890  201.6510  149.0520 C   0  0  0  0  0  3  0  0  0  0  0  0
  160.8880  201.6540  150.4440 C   0  0  0  0  0  3  0  0  0  0  0  0
  160.8800  202.8790  148.3500 C   0  0  0  0  0  3  0  0  0  0  0  0
  161.1510  204.0390  150.4380 C   0  0  0  0  0  3  0  0  0  0  0  0
  161.5820  205.3920  147.1560 C   0  0  0  0  0  2  0  0  0  0  0  0
  160.8170  205.7210  145.8480 C   0  0  0  0  0  2  0  0  0  0  0  0
  161.0490  204.7980  144.6630 C   0  0  0  0  0  2  0  0  0  0  0  0
  160.6690  202.3590  145.2890 C   0  0  0  0  0  1  0  0  0  0  0  0
  161.6370  203.5420  145.2150 C   0  0  0  0  0  2  0  0  0  0  0  0
  1  3  1  0  0  0  0
  2 28  1  1  0  0  0
  2  1  1  0  0  0  0
  4  2  1  0  0  0  0
  5  4  1  1  0  0  0
  5  6  1  0  0  0  0
  6  3  1  0  0  0  0
  7 10  2  0  0  0  0
  7 13  1  0  0  0  0
  8 18  1  0  0  0  0
  9 12  1  0  0  0  0
  9 17  1  0  0  0  0
 10 14  1  0  0  0  0
 11  7  1  0  0  0  0
 13  9  2  0  0  0  0
 14 12  2  0  0  0  0
 15 12  1  6  0  0  0
 15  5  1  0  0  0  0
 15  8  1  0  0  0  0
 16  8  1  0  0  0  0
 17 16  1  0  0  0  0
 18 19  1  0  0  0  0
 19 24  1  0  0  0  0
 20 23  1  0  0  0  0
 21 27  1  0  0  0  0
 21 23  2  0  0  0  0
 22 24  1  0  0  0  0
 22 25  2  0  0  0  0
 24 20  2  0  0  0  0
 25 21  1  0  0  0  0
 27 26  3  0  0  0  0
 29 28  1  0  0  0  0
 30 31  1  0  0  0  0
 30 29  1  0  0  0  0
 32 33  1  0  0  0  0
 32 31  1  0  0  0  0
 33 38  1  0  0  0  0
 35 36  2  0  0  0  0
 36 34  1  0  0  0  0
 37 35  1  0  0  0  0
 37 33  2  0  0  0  0
 38 34  2  0  0  0  0
 39 32  1  0  0  0  0
 40 39  1  0  0  0  0
 41 43  1  0  0  0  0
 41 40  1  0  0  0  0
 43 42  1  0  0  0  0
M  END
>  <MODEL>
8

>  <REMARK>
 VINA RESULT:      -6.4      3.645      9.630
  Name = 
  15 active torsions:
  status: ('A' for Active; 'I' for Inactive)
    1  A    between atoms: S_1  and  C_34
    2  A    between atoms: S_1  and  C_35
    3  A    between atoms: C_3  and  C_4
    4  A    between atoms: C_3  and  O_12
    5  A    between atoms: C_4  and  N_14
    6  A    between atoms: C_6  and  C_17
    7  A    between atoms: N_8  and  C_34
    8  A    between atoms: C_10  and  C_22
    9  A    between atoms: C_10  and  C_41
   10  A    between atoms: C_11  and  N_14
   11  A    between atoms: O_12  and  C_17
   12  A    between atoms: N_14  and  C_41
   13  A    between atoms: C_19  and  C_37
   14  A    between atoms: C_22  and  C_42
   15  A    between atoms: C_27  and  C_30
                            x       y       z     vdW  Elec       q    Type
                         _______ _______ _______ _____ _____    ______ ____

>  <TORSDO>
F 15

$$$$
=
 OpenBabel11062410043D

 43 47  0  0  1  0  0  0  0  0999 V2000
  161.8540  211.4500  150.0950 N   0  0  0  0  0  2  0  0  0  0  0  0
  161.6600  210.3100  150.8520 C   0  0  1  0  0  3  0  0  0  0  0  0
  161.2010  212.7060  150.5750 C   0  0  0  0  0  2  0  0  0  0  0  0
  160.7590  210.1570  151.7690 C   0  0  0  0  0  2  0  0  0  0  0  0
  160.2840  211.3410  152.3610 C   0  0  1  0  0  3  0  0  0  0  0  0
  159.9950  212.4310  151.4320 N   0  0  0  0  0  2  0  0  0  0  0  0
  160.5190  208.0990  156.2830 C   0  0  0  0  0  0  0  0  0  0  0  0
  158.6490  212.3180  153.9830 N   0  0  0  0  0  0  0  0  0  0  0  0
  159.8370  210.3710  155.7240 C   0  0  0  0  0  0  0  0  0  0  0  0
  160.5660  207.8360  154.9140 C   0  0  0  0  0  3  0  0  0  0  0  0
  160.8460  206.9890  157.2420 C   0  0  0  0  0  1  0  0  0  0  0  0
  159.6140  210.0290  154.3740 C   0  0  0  0  0  0  0  0  0  0  0  0
  160.1900  209.3970  156.7040 C   0  0  0  0  0  3  0  0  0  0  0  0
  160.0940  208.7370  154.0000 C   0  0  0  0  0  3  0  0  0  0  0  0
  159.1780  211.0370  153.4010 C   0  0  2  0  0  3  0  0  0  0  0  0
  159.6540  212.7930  154.9740 C   0  0  0  0  0  2  0  0  0  0  0  0
  159.9460  211.8040  156.1060 C   0  0  0  0  0  2  0  0  0  0  0  0
  158.5560  213.4880  153.1000 C   0  0  0  0  0  2  0  0  0  0  0  0
  156.8590  214.1830  152.9610 S   0  0  0  0  0  0  0  0  0  0  0  0
  155.5780  214.1710  150.4830 C   0  0  0  0  0  3  0  0  0  0  0  0
  156.8730  214.2240  148.4320 C   0  0  0  0  0  0  0  0  0  0  0  0
  157.9920  214.4530  150.5800 C   0  0  0  0  0  3  0  0  0  0  0  0
  155.6200  214.2250  149.0940 C   0  0  0  0  0  3  0  0  0  0  0  0
  156.8030  214.2540  151.1920 C   0  0  0  0  0  0  0  0  0  0  0  0
  158.0450  214.3820  149.1830 C   0  0  0  0  0  3  0  0  0  0  0  0
  157.0740  214.1630  145.8750 N   0  0  0  0  0  0  0  0  0  0  0  0
  157.0440  214.1150  147.0410 C   0  0  0  0  0  0  0  0  0  0  0  0
  162.3010  209.0070  150.3690 C   0  0  0  0  0  2  0  0  0  0  0  0
  162.1990  208.8170  149.0070 O   0  0  0  0  0  0  0  0  0  0  0  0
  162.6140  207.5310  148.5990 C   0  0  0  0  0  2  0  0  0  0  0  0
  161.3780  206.6860  148.6900 C   0  0  0  0  0  2  0  0  0  0  0  0
  161.5720  205.3230  148.3470 N   0  0  0  0  0  0  0  0  0  0  0  0
  161.2940  205.1570  146.8910 C   0  0  0  0  0  0  0  0  0  0  0  0
  160.5650  206.1280  144.8330 C   0  0  0  0  0  3  0  0  0  0  0  0
  161.4330  203.8910  144.8700 C   0  0  0  0  0  3  0  0  0  0  0  0
  161.0170  205.0180  144.1660 C   0  0  0  0  0  3  0  0  0  0  0  0
  161.6140  203.9680  146.2710 C   0  0  0  0  0  3  0  0  0  0  0  0
  160.6960  206.1900  146.2360 C   0  0  0  0  0  3  0  0  0  0  0  0
  160.7910  204.3970  149.1610 C   0  0  0  0  0  2  0  0  0  0  0  0
  160.5360  204.7630  150.6460 C   0  0  0  0  0  2  0  0  0  0  0  0
  161.4490  204.1240  151.6800 C   0  0  0  0  0  2  0  0  0  0  0  0
  162.5070  206.2800  152.5250 C   0  0  0  0  0  1  0  0  0  0  0  0
  161.5690  205.1020  152.7990 C   0  0  0  0  0  2  0  0  0  0  0  0
  1  3  1  0  0  0  0
  1  2  1  0  0  0  0
  2 28  1  6  0  0  0
  2  4  1  0  0  0  0
  3  6  1  0  0  0  0
  5  4  1  6  0  0  0
  5 15  1  0  0  0  0
  6  5  1  0  0  0  0
  7 13  1  0  0  0  0
  7 11  1  0  0  0  0
  8 16  1  0  0  0  0
  9 17  1  0  0  0  0
  9 13  2  0  0  0  0
 10  7  2  0  0  0  0
 12  9  1  0  0  0  0
 14 12  2  0  0  0  0
 14 10  1  0  0  0  0
 15  8  1  0  0  0  0
 15 12  1  1  0  0  0
 16 17  1  0  0  0  0
 18  8  1  0  0  0  0
 19 18  1  0  0  0  0
 20 24  1  0  0  0  0
 21 23  1  0  0  0  0
 21 25  2  0  0  0  0
 22 24  2  0  0  0  0
 23 20  2  0  0  0  0
 24 19  1  0  0  0  0
 25 22  1  0  0  0  0
 26 27  3  0  0  0  0
 27 21  1  0  0  0  0
 29 28  1  0  0  0  0
 30 31  1  0  0  0  0
 30 29  1  0  0  0  0
 32 31  1  0  0  0  0
 32 39  1  0  0  0  0
 33 32  1  0  0  0  0
 34 38  1  0  0  0  0
 35 37  2  0  0  0  0
 36 34  2  0  0  0  0
 36 35  1  0  0  0  0
 37 33  1  0  0  0  0
 38 33  2  0  0  0  0
 39 40  1  0  0  0  0
 40 41  1  0  0  0  0
 41 43  1  0  0  0  0
 42 43  1  0  0  0  0
M  END
>  <MODEL>
9

>  <REMARK>
 VINA RESULT:      -6.4      3.477      8.108
  Name = 
  15 active torsions:
  status: ('A' for Active; 'I' for Inactive)
    1  A    between atoms: S_1  and  C_34
    2  A    between atoms: S_1  and  C_35
    3  A    between atoms: C_3  and  C_4
    4  A    between atoms: C_3  and  O_12
    5  A    between atoms: C_4  and  N_14
    6  A    between atoms: C_6  and  C_17
    7  A    between atoms: N_8  and  C_34
    8  A    between atoms: C_10  and  C_22
    9  A    between atoms: C_10  and  C_41
   10  A    between atoms: C_11  and  N_14
   11  A    between atoms: O_12  and  C_17
   12  A    between atoms: N_14  and  C_41
   13  A    between atoms: C_19  and  C_37
   14  A    between atoms: C_22  and  C_42
   15  A    between atoms: C_27  and  C_30
                            x       y       z     vdW  Elec       q    Type
                         _______ _______ _______ _____ _____    ______ ____

>  <TORSDO>
F 15

$$$$
