=
 OpenBabel11052422473D

 28 33  0  0  1  0  0  0  0  0999 V2000
  161.6200  207.9360  152.5090 C   0  0  0  0  0  0  0  0  0  0  0  0
  159.0680  210.6350  153.2840 C   0  0  0  0  0  2  0  0  0  0  0  0
  161.6620  208.6510  157.2610 C   0  0  0  0  0  1  0  0  0  0  0  0
  159.0970  213.3350  154.9860 C   0  0  0  0  0  2  0  0  0  0  0  0
  161.2890  211.1340  154.4520 N   0  0  2  0  0  0  0  0  0  0  0  0
  158.8040  212.9290  152.5940 N   0  0  0  0  0  0  0  0  0  0  0  0
  159.8920  211.5180  154.1970 C   0  0  1  0  0  0  0  0  0  0  0  0
  160.3970  211.7790  156.8460 S   0  0  0  0  0  0  0  0  0  0  0  0
  159.7770  212.9320  153.6820 C   0  0  2  0  0  3  0  0  0  0  0  0
  161.0910  208.3230  154.8580 C   0  0  0  0  0  0  0  0  0  0  0  0
  161.9260  210.2520  153.4650 C   0  0  0  0  0  2  0  0  0  0  0  0
  159.1910  211.9010  155.4860 C   0  0  1  0  0  3  0  0  0  0  0  0
  160.7340  206.1340  153.8680 C   0  0  0  0  0  3  0  0  0  0  0  0
  160.9430  209.2290  156.0520 C   0  0  2  0  0  3  0  0  0  0  0  0
  160.6750  206.9890  154.9670 C   0  0  0  0  0  3  0  0  0  0  0  0
  159.3860  213.6850  151.5010 C   0  0  0  0  0  1  0  0  0  0  0  0
  158.6880  211.5460  152.1370 C   0  0  0  0  0  2  0  0  0  0  0  0
  161.4210  210.6750  155.8330 C   0  0  1  0  0  3  0  0  0  0  0  0
  161.2040  206.6060  152.6450 C   0  0  0  0  0  3  0  0  0  0  0  0
  161.5310  208.8100  153.6130 C   0  0  0  0  0  0  0  0  0  0  0  0
  162.1070  208.4130  151.1670 C   0  0  0  0  0  2  0  0  0  0  0  0
  161.1330  208.1640  149.9910 C   0  0  2  0  0  3  0  0  0  0  0  0
  162.1840  206.2890  148.0370 C   0  0  0  0  0  2  0  0  0  0  0  0
  160.6100  206.7190  149.9530 C   0  0  0  0  0  2  0  0  0  0  0  0
  162.1050  209.9860  148.7310 C   0  0  0  0  0  1  0  0  0  0  0  0
  161.6010  208.6220  148.6650 N   0  0  0  0  0  0  0  0  0  0  0  0
  162.6540  207.7490  148.1440 C   0  0  0  0  0  2  0  0  0  0  0  0
  160.7650  206.0870  148.5700 C   0  0  0  0  0  2  0  0  0  0  0  0
  1 19  2  0  0  0  0
  1 20  1  0  0  0  0
  5 11  1  6  0  0  0
  5 18  1  0  0  0  0
  6  9  1  0  0  0  0
  7  2  1  6  0  0  0
  7  5  1  0  0  0  0
  7 12  1  0  0  0  0
  9  7  1  0  0  0  0
  9  4  1  1  0  0  0
 10 15  1  0  0  0  0
 10 14  1  0  0  0  0
 11 20  1  0  0  0  0
 12  4  1  6  0  0  0
 12  8  1  0  0  0  0
 13 15  2  0  0  0  0
 14  3  1  1  0  0  0
 16  6  1  0  0  0  0
 17  6  1  0  0  0  0
 17  2  1  0  0  0  0
 18 14  1  0  0  0  0
 18  8  1  1  0  0  0
 19 13  1  0  0  0  0
 20 10  2  0  0  0  0
 21  1  1  0  0  0  0
 22 21  1  1  0  0  0
 23 27  1  0  0  0  0
 23 28  1  0  0  0  0
 24 22  1  0  0  0  0
 26 25  1  0  0  0  0
 26 22  1  0  0  0  0
 27 26  1  0  0  0  0
 28 24  1  0  0  0  0
M  END
>  <MODEL>
1

>  <REMARK>
 VINA RESULT:      -7.1      0.000      0.000
  Name = 
  2 active torsions:
  status: ('A' for Active; 'I' for Inactive)
    1  A    between atoms: C_1  and  C_2
    2  A    between atoms: C_2  and  C_3
                            x       y       z     vdW  Elec       q    Type
                         _______ _______ _______ _____ _____    ______ ____

>  <TORSDO>
F 2

$$$$
=
 OpenBabel11052422473D

 28 33  0  0  1  0  0  0  0  0999 V2000
  160.7980  207.9180  153.1850 C   0  0  0  0  0  0  0  0  0  0  0  0
  158.5930  210.7220  154.4780 C   0  0  0  0  0  2  0  0  0  0  0  0
  162.7580  209.5420  157.2600 C   0  0  0  0  0  1  0  0  0  0  0  0
  159.1120  213.7010  155.4980 C   0  0  0  0  0  2  0  0  0  0  0  0
  161.0510  211.4330  154.4840 N   0  0  2  0  0  0  0  0  0  0  0  0
  157.8820  212.8380  153.5710 N   0  0  0  0  0  0  0  0  0  0  0  0
  159.6480  211.7630  154.7830 C   0  0  1  0  0  0  0  0  0  0  0  0
  161.1890  212.5340  156.8740 S   0  0  0  0  0  0  0  0  0  0  0  0
  159.2170  213.0510  154.1240 C   0  0  2  0  0  3  0  0  0  0  0  0
  161.2660  208.7550  155.4270 C   0  0  0  0  0  0  0  0  0  0  0  0
  161.2860  210.3750  153.4940 C   0  0  0  0  0  2  0  0  0  0  0  0
  159.5200  212.3920  156.1570 C   0  0  1  0  0  3  0  0  0  0  0  0
  160.7060  206.4170  155.0880 C   0  0  0  0  0  3  0  0  0  0  0  0
  161.5570  209.8760  156.3890 C   0  0  2  0  0  3  0  0  0  0  0  0
  161.0420  207.4680  155.9370 C   0  0  0  0  0  3  0  0  0  0  0  0
  157.8930  213.3660  152.2190 C   0  0  0  0  0  1  0  0  0  0  0  0
  157.6970  211.3940  153.4590 C   0  0  0  0  0  2  0  0  0  0  0  0
  161.7820  211.2500  155.7360 C   0  0  1  0  0  3  0  0  0  0  0  0
  160.5840  206.6400  153.7180 C   0  0  0  0  0  3  0  0  0  0  0  0
  161.1060  208.9900  154.0490 C   0  0  0  0  0  0  0  0  0  0  0  0
  160.6410  208.1230  151.7020 C   0  0  0  0  0  2  0  0  0  0  0  0
  161.8230  207.6140  150.8430 C   0  0  2  0  0  3  0  0  0  0  0  0
  161.1460  207.3760  148.0270 C   0  0  0  0  0  2  0  0  0  0  0  0
  162.3220  208.6690  149.8400 C   0  0  0  0  0  2  0  0  0  0  0  0
  161.1440  205.3170  151.1750 C   0  0  0  0  0  1  0  0  0  0  0  0
  161.6310  206.2920  150.2110 N   0  0  0  0  0  0  0  0  0  0  0  0
  160.6860  206.3700  149.0950 C   0  0  0  0  0  2  0  0  0  0  0  0
  162.4310  208.1070  148.4230 C   0  0  0  0  0  2  0  0  0  0  0  0
  1 19  2  0  0  0  0
  1 20  1  0  0  0  0
  5 11  1  6  0  0  0
  5  7  1  0  0  0  0
  5 18  1  0  0  0  0
  6  9  1  0  0  0  0
  7  2  1  6  0  0  0
  7 12  1  0  0  0  0
  9  7  1  0  0  0  0
  9  4  1  1  0  0  0
 10 15  1  0  0  0  0
 10 14  1  0  0  0  0
 11 20  1  0  0  0  0
 12  4  1  6  0  0  0
 12  8  1  0  0  0  0
 13 15  2  0  0  0  0
 14  3  1  6  0  0  0
 16  6  1  0  0  0  0
 17  6  1  0  0  0  0
 17  2  1  0  0  0  0
 18 14  1  0  0  0  0
 18  8  1  1  0  0  0
 19 13  1  0  0  0  0
 20 10  2  0  0  0  0
 21  1  1  0  0  0  0
 22 21  1  6  0  0  0
 23 28  1  0  0  0  0
 23 27  1  0  0  0  0
 24 22  1  0  0  0  0
 26 22  1  0  0  0  0
 26 25  1  0  0  0  0
 27 26  1  0  0  0  0
 28 24  1  0  0  0  0
M  END
>  <MODEL>
2

>  <REMARK>
 VINA RESULT:      -6.1      1.174      1.752
  Name = 
  2 active torsions:
  status: ('A' for Active; 'I' for Inactive)
    1  A    between atoms: C_1  and  C_2
    2  A    between atoms: C_2  and  C_3
                            x       y       z     vdW  Elec       q    Type
                         _______ _______ _______ _____ _____    ______ ____

>  <TORSDO>
F 2

$$$$
=
 OpenBabel11052422473D

 28 33  0  0  1  0  0  0  0  0999 V2000
  161.8140  209.9740  150.5440 C   0  0  0  0  0  0  0  0  0  0  0  0
  158.9220  210.8210  152.8500 C   0  0  0  0  0  2  0  0  0  0  0  0
  161.7570  206.7020  154.0630 C   0  0  0  0  0  1  0  0  0  0  0  0
  158.5870  211.1600  156.0050 C   0  0  0  0  0  2  0  0  0  0  0  0
  161.0560  210.4010  154.1980 N   0  0  2  0  0  0  0  0  0  0  0  0
  158.3520  212.7550  154.1690 N   0  0  0  0  0  0  0  0  0  0  0  0
  159.6190  210.7210  154.1900 C   0  0  1  0  0  0  0  0  0  0  0  0
  160.0840  208.8530  156.0960 S   0  0  0  0  0  0  0  0  0  0  0  0
  159.3160  211.9870  154.9530 C   0  0  2  0  0  3  0  0  0  0  0  0
  161.2360  208.3310  152.2520 C   0  0  0  0  0  0  0  0  0  0  0  0
  161.8050  210.6810  152.9670 C   0  0  0  0  0  2  0  0  0  0  0  0
  158.8720  209.8910  155.2160 C   0  0  1  0  0  3  0  0  0  0  0  0
  161.1770  207.7230  149.9020 C   0  0  0  0  0  3  0  0  0  0  0  0
  160.9680  207.9440  153.6830 C   0  0  2  0  0  3  0  0  0  0  0  0
  161.0030  207.3870  151.2420 C   0  0  0  0  0  3  0  0  0  0  0  0
  158.8280  214.1260  154.1360 C   0  0  0  0  0  1  0  0  0  0  0  0
  158.4230  212.2490  152.8010 C   0  0  0  0  0  2  0  0  0  0  0  0
  161.2470  209.0480  154.7170 C   0  0  1  0  0  3  0  0  0  0  0  0
  161.5810  209.0110  149.5550 C   0  0  0  0  0  3  0  0  0  0  0  0
  161.6070  209.6420  151.9010 C   0  0  0  0  0  0  0  0  0  0  0  0
  162.2330  211.3580  150.1290 C   0  0  0  0  0  2  0  0  0  0  0  0
  161.7300  211.8040  148.7350 C   0  0  2  0  0  3  0  0  0  0  0  0
  162.8100  214.3740  147.9180 C   0  0  0  0  0  2  0  0  0  0  0  0
  162.8590  211.8670  147.6920 C   0  0  0  0  0  2  0  0  0  0  0  0
  159.8380  212.9400  149.7230 C   0  0  0  0  0  1  0  0  0  0  0  0
  160.8870  213.0180  148.7180 N   0  0  0  0  0  0  0  0  0  0  0  0
  161.6860  214.2210  148.9550 C   0  0  0  0  0  2  0  0  0  0  0  0
  162.8730  213.1980  146.9410 C   0  0  0  0  0  2  0  0  0  0  0  0
  1 20  1  0  0  0  0
  5 11  1  6  0  0  0
  5 18  1  0  0  0  0
  6  9  1  0  0  0  0
  7  2  1  6  0  0  0
  7  5  1  0  0  0  0
  7  9  1  0  0  0  0
  7 12  1  0  0  0  0
  9  4  1  1  0  0  0
 10 14  1  0  0  0  0
 12  4  1  1  0  0  0
 12  8  1  0  0  0  0
 13 15  2  0  0  0  0
 14  3  1  1  0  0  0
 14 18  1  0  0  0  0
 15 10  1  0  0  0  0
 16  6  1  0  0  0  0
 17  2  1  0  0  0  0
 17  6  1  0  0  0  0
 18  8  1  1  0  0  0
 19 13  1  0  0  0  0
 19  1  2  0  0  0  0
 20 10  2  0  0  0  0
 20 11  1  0  0  0  0
 21  1  1  0  0  0  0
 22 21  1  1  0  0  0
 23 27  1  0  0  0  0
 24 22  1  0  0  0  0
 26 22  1  0  0  0  0
 26 27  1  0  0  0  0
 26 25  1  0  0  0  0
 28 24  1  0  0  0  0
 28 23  1  0  0  0  0
M  END
>  <MODEL>
3

>  <REMARK>
 VINA RESULT:      -5.8      2.041      3.734
  Name = 
  2 active torsions:
  status: ('A' for Active; 'I' for Inactive)
    1  A    between atoms: C_1  and  C_2
    2  A    between atoms: C_2  and  C_3
                            x       y       z     vdW  Elec       q    Type
                         _______ _______ _______ _____ _____    ______ ____

>  <TORSDO>
F 2

$$$$
=
 OpenBabel11052422473D

 28 33  0  0  1  0  0  0  0  0999 V2000
  160.9920  208.6490  151.1720 C   0  0  0  0  0  0  0  0  0  0  0  0
  161.8030  209.4960  154.7810 C   0  0  0  0  0  2  0  0  0  0  0  0
  159.7120  213.2210  151.9120 C   0  0  0  0  0  1  0  0  0  0  0  0
  160.2010  210.8490  157.1870 C   0  0  0  0  0  2  0  0  0  0  0  0
  159.4250  210.2370  154.1940 N   0  0  2  0  0  0  0  0  0  0  0  0
  161.1030  208.5960  156.9040 N   0  0  0  0  0  0  0  0  0  0  0  0
  160.5060  210.1610  155.1900 C   0  0  1  0  0  0  0  0  0  0  0  0
  159.4380  212.6500  155.2520 S   0  0  0  0  0  0  0  0  0  0  0  0
  160.0490  209.5110  156.4730 C   0  0  2  0  0  3  0  0  0  0  0  0
  160.8200  210.9910  151.8290 C   0  0  0  0  0  0  0  0  0  0  0  0
  159.4720  209.2720  153.0890 C   0  0  0  0  0  2  0  0  0  0  0  0
  160.6870  211.4900  155.8960 C   0  0  1  0  0  3  0  0  0  0  0  0
  162.3320  210.3290  150.0480 C   0  0  0  0  0  3  0  0  0  0  0  0
  160.2990  212.0810  152.7290 C   0  0  2  0  0  3  0  0  0  0  0  0
  161.7760  211.3170  150.8570 C   0  0  0  0  0  3  0  0  0  0  0  0
  160.4590  207.3450  157.2610 C   0  0  0  0  0  1  0  0  0  0  0  0
  161.9310  208.3250  155.7310 C   0  0  0  0  0  2  0  0  0  0  0  0
  159.2590  211.6240  153.7660 C   0  0  1  0  0  3  0  0  0  0  0  0
  161.9420  209.0010  150.2050 C   0  0  0  0  0  3  0  0  0  0  0  0
  160.4530  209.6450  152.0140 C   0  0  0  0  0  0  0  0  0  0  0  0
  160.6080  207.2010  151.3220 C   0  0  0  0  0  2  0  0  0  0  0  0
  161.5780  206.1950  150.6590 C   0  0  2  0  0  3  0  0  0  0  0  0
  160.5870  203.4650  150.7280 C   0  0  0  0  0  2  0  0  0  0  0  0
  160.9910  205.5580  149.3880 C   0  0  0  0  0  2  0  0  0  0  0  0
  162.7060  205.8130  152.7640 C   0  0  0  0  0  1  0  0  0  0  0  0
  162.1720  205.1870  151.5640 N   0  0  0  0  0  0  0  0  0  0  0  0
  161.1860  204.1770  151.9520 C   0  0  0  0  0  2  0  0  0  0  0  0
  161.1040  204.0330  149.4050 C   0  0  0  0  0  2  0  0  0  0  0  0
  1 21  1  0  0  0  0
  1 20  1  0  0  0  0
  2 17  1  0  0  0  0
  5 11  1  6  0  0  0
  5  7  1  0  0  0  0
  6 16  1  0  0  0  0
  7  2  1  6  0  0  0
  7 12  1  0  0  0  0
  7  9  1  0  0  0  0
  8 12  1  0  0  0  0
  9  6  1  0  0  0  0
  9  4  1  1  0  0  0
 10 20  2  0  0  0  0
 10 14  1  0  0  0  0
 12  4  1  1  0  0  0
 13 19  1  0  0  0  0
 13 15  2  0  0  0  0
 14  3  1  6  0  0  0
 14 18  1  0  0  0  0
 15 10  1  0  0  0  0
 17  6  1  0  0  0  0
 18  5  1  0  0  0  0
 18  8  1  1  0  0  0
 19  1  2  0  0  0  0
 20 11  1  0  0  0  0
 22 21  1  1  0  0  0
 22 26  1  0  0  0  0
 23 27  1  0  0  0  0
 24 28  1  0  0  0  0
 24 22  1  0  0  0  0
 26 27  1  0  0  0  0
 26 25  1  0  0  0  0
 28 23  1  0  0  0  0
M  END
>  <MODEL>
4

>  <REMARK>
 VINA RESULT:      -5.4      1.985      4.318
  Name = 
  2 active torsions:
  status: ('A' for Active; 'I' for Inactive)
    1  A    between atoms: C_1  and  C_2
    2  A    between atoms: C_2  and  C_3
                            x       y       z     vdW  Elec       q    Type
                         _______ _______ _______ _____ _____    ______ ____

>  <TORSDO>
F 2

$$$$
=
 OpenBabel11052422473D

 28 33  0  0  1  0  0  0  0  0999 V2000
  160.4310  211.3070  154.5860 C   0  0  0  0  0  0  0  0  0  0  0  0
  162.5900  209.8800  151.8100 C   0  0  0  0  0  2  0  0  0  0  0  0
  160.8300  206.5780  155.3420 C   0  0  0  0  0  1  0  0  0  0  0  0
  162.3260  207.4180  149.7970 C   0  0  0  0  0  2  0  0  0  0  0  0
  160.4690  208.4810  152.1100 N   0  0  2  0  0  0  0  0  0  0  0  0
  162.4010  209.8300  149.4090 N   0  0  0  0  0  0  0  0  0  0  0  0
  161.7470  208.6880  151.4120 C   0  0  1  0  0  0  0  0  0  0  0  0
  161.5180  206.0650  152.0520 S   0  0  0  0  0  0  0  0  0  0  0  0
  161.5730  208.7380  149.9130 C   0  0  2  0  0  3  0  0  0  0  0  0
  161.1620  208.9920  154.8240 C   0  0  0  0  0  0  0  0  0  0  0  0
  159.8720  209.6540  152.7610 C   0  0  0  0  0  2  0  0  0  0  0  0
  162.5230  207.3890  151.3050 C   0  0  1  0  0  3  0  0  0  0  0  0
  161.7470  210.6390  156.5100 C   0  0  0  0  0  3  0  0  0  0  0  0
  161.3000  207.5850  154.3050 C   0  0  2  0  0  3  0  0  0  0  0  0
  161.7960  209.3330  156.0270 C   0  0  0  0  0  3  0  0  0  0  0  0
  161.5810  210.5920  148.4850 C   0  0  0  0  0  1  0  0  0  0  0  0
  162.6830  210.7040  150.5440 C   0  0  0  0  0  2  0  0  0  0  0  0
  160.5750  207.3090  152.9770 C   0  0  1  0  0  3  0  0  0  0  0  0
  161.0680  211.6210  155.7920 C   0  0  0  0  0  3  0  0  0  0  0  0
  160.5070  209.9910  154.0800 C   0  0  0  0  0  0  0  0  0  0  0  0
  159.7210  212.3980  153.8310 C   0  0  0  0  0  2  0  0  0  0  0  0
  158.7260  213.2340  154.6720 C   0  0  2  0  0  3  0  0  0  0  0  0
  156.0940  212.0150  154.8390 C   0  0  0  0  0  2  0  0  0  0  0  0
  158.2920  212.5150  155.9600 C   0  0  0  0  0  2  0  0  0  0  0  0
  158.0100  214.4530  152.7100 C   0  0  0  0  0  1  0  0  0  0  0  0
  157.5750  213.7930  153.9310 N   0  0  0  0  0  0  0  0  0  0  0  0
  156.6070  212.7490  153.5890 C   0  0  0  0  0  2  0  0  0  0  0  0
  156.7720  212.4960  156.1230 C   0  0  0  0  0  2  0  0  0  0  0  0
  1 19  1  0  0  0  0
  5 11  1  1  0  0  0
  5 18  1  0  0  0  0
  6  9  1  0  0  0  0
  6 17  1  0  0  0  0
  7  2  1  1  0  0  0
  7  5  1  0  0  0  0
  9  4  1  6  0  0  0
  9  7  1  0  0  0  0
 10 15  2  0  0  0  0
 11 20  1  0  0  0  0
 12  4  1  6  0  0  0
 12  7  1  0  0  0  0
 12  8  1  0  0  0  0
 14 10  1  0  0  0  0
 14  3  1  1  0  0  0
 15 13  1  0  0  0  0
 16  6  1  0  0  0  0
 17  2  1  0  0  0  0
 18  8  1  6  0  0  0
 18 14  1  0  0  0  0
 19 13  2  0  0  0  0
 20  1  2  0  0  0  0
 20 10  1  0  0  0  0
 21  1  1  0  0  0  0
 22 21  1  6  0  0  0
 22 24  1  0  0  0  0
 23 28  1  0  0  0  0
 24 28  1  0  0  0  0
 25 26  1  0  0  0  0
 26 22  1  0  0  0  0
 27 26  1  0  0  0  0
 27 23  1  0  0  0  0
M  END
>  <MODEL>
5

>  <REMARK>
 VINA RESULT:      -5.1      2.144      6.179
  Name = 
  2 active torsions:
  status: ('A' for Active; 'I' for Inactive)
    1  A    between atoms: C_1  and  C_2
    2  A    between atoms: C_2  and  C_3
                            x       y       z     vdW  Elec       q    Type
                         _______ _______ _______ _____ _____    ______ ____

>  <TORSDO>
F 2

$$$$
=
 OpenBabel11052422473D

 28 33  0  0  1  0  0  0  0  0999 V2000
  160.4000  210.7910  154.7270 C   0  0  0  0  0  0  0  0  0  0  0  0
  162.5800  209.8750  151.7590 C   0  0  0  0  0  2  0  0  0  0  0  0
  161.0070  206.0240  154.7880 C   0  0  0  0  0  1  0  0  0  0  0  0
  162.3920  207.7200  149.4130 C   0  0  0  0  0  2  0  0  0  0  0  0
  160.5230  208.3570  151.8690 N   0  0  2  0  0  0  0  0  0  0  0  0
  162.3600  210.1640  149.3770 N   0  0  0  0  0  0  0  0  0  0  0  0
  161.7820  208.7170  151.1980 C   0  0  1  0  0  0  0  0  0  0  0  0
  161.6720  206.0220  151.4540 S   0  0  0  0  0  0  0  0  0  0  0  0
  161.5860  208.9750  149.7240 C   0  0  2  0  0  3  0  0  0  0  0  0
  161.2300  208.5000  154.6230 C   0  0  0  0  0  0  0  0  0  0  0  0
  159.8860  209.3960  152.6860 C   0  0  0  0  0  2  0  0  0  0  0  0
  162.6100  207.4830  150.8990 C   0  0  1  0  0  3  0  0  0  0  0  0
  161.7690  209.9110  156.5250 C   0  0  0  0  0  3  0  0  0  0  0  0
  161.4210  207.1900  153.9040 C   0  0  2  0  0  3  0  0  0  0  0  0
  161.8660  208.6910  155.8580 C   0  0  0  0  0  3  0  0  0  0  0  0
  161.4970  211.0150  148.5790 C   0  0  0  0  0  1  0  0  0  0  0  0
  162.6200  210.8770  150.6240 C   0  0  0  0  0  2  0  0  0  0  0  0
  160.6890  207.0780  152.5560 C   0  0  1  0  0  3  0  0  0  0  0  0
  161.0390  210.9560  155.9620 C   0  0  0  0  0  3  0  0  0  0  0  0
  160.5240  209.5670  154.0360 C   0  0  0  0  0  0  0  0  0  0  0  0
  159.6340  211.9480  154.1440 C   0  0  0  0  0  2  0  0  0  0  0  0
  158.3690  212.3600  154.9330 C   0  0  2  0  0  3  0  0  0  0  0  0
  156.4590  213.8290  153.3100 C   0  0  0  0  0  2  0  0  0  0  0  0
  157.0990  211.6610  154.4180 C   0  0  0  0  0  2  0  0  0  0  0  0
  159.3910  214.4530  155.5830 C   0  0  0  0  0  1  0  0  0  0  0  0
  158.1710  213.8140  155.1120 N   0  0  0  0  0  0  0  0  0  0  0  0
  157.7530  214.4500  153.8610 C   0  0  0  0  0  2  0  0  0  0  0  0
  155.9650  212.6520  154.1530 C   0  0  0  0  0  2  0  0  0  0  0  0
  1 19  1  0  0  0  0
  5 18  1  0  0  0  0
  5 11  1  1  0  0  0
  6  9  1  0  0  0  0
  6 17  1  0  0  0  0
  7  2  1  1  0  0  0
  7  5  1  0  0  0  0
  9  4  1  6  0  0  0
  9  7  1  0  0  0  0
 10 15  2  0  0  0  0
 11 20  1  0  0  0  0
 12  4  1  6  0  0  0
 12  7  1  0  0  0  0
 12  8  1  0  0  0  0
 14 10  1  0  0  0  0
 14  3  1  1  0  0  0
 15 13  1  0  0  0  0
 16  6  1  0  0  0  0
 17  2  1  0  0  0  0
 18  8  1  6  0  0  0
 18 14  1  0  0  0  0
 19 13  2  0  0  0  0
 20 10  1  0  0  0  0
 20  1  2  0  0  0  0
 21  1  1  0  0  0  0
 22 21  1  6  0  0  0
 22 26  1  0  0  0  0
 23 27  1  0  0  0  0
 23 28  1  0  0  0  0
 24 22  1  0  0  0  0
 26 25  1  0  0  0  0
 27 26  1  0  0  0  0
 28 24  1  0  0  0  0
M  END
>  <MODEL>
6

>  <REMARK>
 VINA RESULT:      -5.0      2.270      6.195
  Name = 
  2 active torsions:
  status: ('A' for Active; 'I' for Inactive)
    1  A    between atoms: C_1  and  C_2
    2  A    between atoms: C_2  and  C_3
                            x       y       z     vdW  Elec       q    Type
                         _______ _______ _______ _____ _____    ______ ____

>  <TORSDO>
F 2

$$$$
