=
 OpenBabel11062407463D

 34 38  0  0  1  0  0  0  0  0999 V2000
  161.8890  207.3030  150.4620 N   0  0  0  0  0  0  0  0  0  0  0  0
  161.6200  208.4400  148.3570 C   0  0  0  0  0  2  0  0  0  0  0  0
  162.6550  208.5460  150.5440 C   0  0  0  0  0  2  0  0  0  0  0  0
  162.4800  209.3120  149.2380 C   0  0  2  0  0  3  0  0  0  0  0  0
  161.7030  207.0830  149.0220 C   0  0  2  0  0  3  0  0  0  0  0  0
  161.4390  204.0060  147.7160 C   0  0  0  0  0  0  0  0  0  0  0  0
  160.8120  205.7280  146.1060 C   0  0  0  0  0  0  0  0  0  0  0  0
  160.5510  206.1230  148.6640 C   0  0  1  0  0  3  0  0  0  0  0  0
  162.3660  203.9150  145.3850 C   0  0  0  0  0  2  0  0  0  0  0  0
  161.4380  204.9910  145.0560 N   0  0  0  0  0  2  0  0  0  0  0  0
  160.9290  205.2370  147.4930 C   0  0  0  0  0  0  0  0  0  0  0  0
  161.8350  203.1090  146.5720 C   0  0  0  0  0  2  0  0  0  0  0  0
  160.2260  205.3330  149.8160 O   0  0  0  0  0  0  0  0  0  0  0  0
  161.4380  203.4420  149.0750 C   0  0  0  0  0  3  0  0  0  0  0  0
  160.1500  206.7650  145.8400 O   0  0  0  0  0  0  0  0  0  0  0  0
  160.8320  204.0950  150.0640 C   0  0  0  0  0  3  0  0  0  0  0  0
  161.8270  210.6690  149.4730 C   0  0  0  0  0  2  0  0  0  0  0  0
  162.4220  211.6660  148.6490 O   0  0  0  0  0  0  0  0  0  0  0  0
  163.1830  214.2830  148.0380 O   0  0  0  0  0  1  0  0  0  0  0  0
  161.6990  212.4000  147.7040 C   0  0  0  0  0  0  0  0  0  0  0  0
  162.0870  213.7120  147.4040 C   0  0  0  0  0  0  0  0  0  0  0  0
  160.2710  213.8710  145.8270 C   0  0  0  0  0  3  0  0  0  0  0  0
  159.9060  212.5960  146.1270 N   0  0  0  0  0  0  0  0  0  0  0  0
  160.5890  211.8560  147.0420 C   0  0  0  0  0  3  0  0  0  0  0  0
  161.3700  214.4530  146.4620 C   0  0  0  0  0  3  0  0  0  0  0  0
  160.6060  207.5620  151.1210 C   0  0  0  0  0  2  0  0  0  0  0  0
  161.1730  208.3310  155.2990 C   0  0  0  0  0  0  0  0  0  0  0  0
  160.7530  209.1420  153.0560 C   0  0  0  0  0  3  0  0  0  0  0  0
  161.2240  207.0190  154.8150 C   0  0  0  0  0  3  0  0  0  0  0  0
  160.9330  209.3910  154.4190 C   0  0  0  0  0  3  0  0  0  0  0  0
  161.0430  206.7690  153.4520 C   0  0  0  0  0  3  0  0  0  0  0  0
  160.8140  207.8310  152.5700 C   0  0  0  0  0  0  0  0  0  0  0  0
  161.3970  208.6500  157.0440 S   0  0  0  0  0  0  0  0  0  0  0  0
  162.6660  210.3190  156.6750 S   0  0  0  0  0  1  0  0  0  0  0  0
  1  3  1  0  0  0  0
  1 26  1  0  0  0  0
  2  4  1  0  0  0  0
  4 17  1  1  0  0  0
  4  3  1  0  0  0  0
  5  2  1  6  0  0  0
  5  1  1  0  0  0  0
  6 14  1  0  0  0  0
  7 11  1  0  0  0  0
  8 11  1  6  0  0  0
  8  5  1  0  0  0  0
  8 13  1  0  0  0  0
  9 12  1  0  0  0  0
 10  9  1  0  0  0  0
 10  7  1  0  0  0  0
 11  6  2  0  0  0  0
 12  6  1  0  0  0  0
 13 16  1  0  0  0  0
 14 16  2  0  0  0  0
 15  7  2  0  0  0  0
 18 17  1  0  0  0  0
 20 18  1  0  0  0  0
 21 20  1  0  0  0  0
 21 19  1  0  0  0  0
 22 23  2  0  0  0  0
 22 25  1  0  0  0  0
 23 24  1  0  0  0  0
 24 20  2  0  0  0  0
 25 21  2  0  0  0  0
 26 32  1  0  0  0  0
 27 33  1  0  0  0  0
 28 30  1  0  0  0  0
 29 27  1  0  0  0  0
 30 27  2  0  0  0  0
 31 29  2  0  0  0  0
 32 28  2  0  0  0  0
 32 31  1  0  0  0  0
 34 33  1  0  0  0  0
M  END
>  <MODEL>
1

>  <REMARK>
 VINA RESULT:      -7.8      0.000      0.000
  Name = 
  7 active torsions:
  status: ('A' for Active; 'I' for Inactive)
    1  A    between atoms: O_3  and  C_13
    2  A    between atoms: O_3  and  C_17
    3  A    between atoms: C_4  and  C_31
    4  A    between atoms: N_5  and  C_26
    5  A    between atoms: S_7  and  C_8
    6  A    between atoms: C_17  and  C_29
    7  A    between atoms: C_26  and  C_28
                            x       y       z     vdW  Elec       q    Type
                         _______ _______ _______ _____ _____    ______ ____

>  <TORSDO>
F 7

$$$$
=
 OpenBabel11062407463D

 34 38  0  0  1  0  0  0  0  0999 V2000
  160.8060  207.5800  152.0430 N   0  0  0  0  0  0  0  0  0  0  0  0
  161.8330  209.7500  152.2200 C   0  0  0  0  0  2  0  0  0  0  0  0
  160.7140  208.2070  150.7260 C   0  0  0  0  0  2  0  0  0  0  0  0
  161.3870  209.5740  150.7900 C   0  0  2  0  0  3  0  0  0  0  0  0
  161.0400  208.6990  152.9650 C   0  0  2  0  0  3  0  0  0  0  0  0
  160.1570  209.0290  156.1840 C   0  0  0  0  0  0  0  0  0  0  0  0
  161.9690  210.5470  155.5830 C   0  0  0  0  0  0  0  0  0  0  0  0
  161.6360  208.2940  154.3280 C   0  0  1  0  0  3  0  0  0  0  0  0
  160.0200  211.4440  156.8550 C   0  0  0  0  0  2  0  0  0  0  0  0
  161.4010  211.5690  156.4020 N   0  0  0  0  0  2  0  0  0  0  0  0
  161.2350  209.2780  155.4090 C   0  0  0  0  0  0  0  0  0  0  0  0
  159.7290  209.9970  157.2570 C   0  0  0  0  0  2  0  0  0  0  0  0
  161.1910  206.9700  154.6570 O   0  0  0  0  0  0  0  0  0  0  0  0
  159.4930  207.7170  156.1240 C   0  0  0  0  0  3  0  0  0  0  0  0
  163.0930  210.7240  155.0440 O   0  0  0  0  0  0  0  0  0  0  0  0
  160.0230  206.7380  155.3930 C   0  0  0  0  0  3  0  0  0  0  0  0
  162.5690  209.6560  149.8310 C   0  0  0  0  0  2  0  0  0  0  0  0
  162.1990  210.3170  148.6260 O   0  0  0  0  0  0  0  0  0  0  0  0
  164.0910  211.8890  147.3050 O   0  0  0  0  0  1  0  0  0  0  0  0
  162.0210  211.7010  148.5440 C   0  0  0  0  0  0  0  0  0  0  0  0
  162.9740  212.4820  147.8800 C   0  0  0  0  0  0  0  0  0  0  0  0
  161.6780  214.4530  148.3730 C   0  0  0  0  0  3  0  0  0  0  0  0
  160.7590  213.6830  149.0130 N   0  0  0  0  0  0  0  0  0  0  0  0
  160.9040  212.3340  149.1100 C   0  0  0  0  0  3  0  0  0  0  0  0
  162.8040  213.8660  147.7940 C   0  0  0  0  0  3  0  0  0  0  0  0
  161.9670  206.6890  151.9990 C   0  0  0  0  0  2  0  0  0  0  0  0
  160.8790  202.8520  150.4290 C   0  0  0  0  0  0  0  0  0  0  0  0
  161.5410  205.1540  150.0690 C   0  0  0  0  0  3  0  0  0  0  0  0
  160.9260  203.0550  151.8130 C   0  0  0  0  0  3  0  0  0  0  0  0
  161.1910  203.9010  149.5580 C   0  0  0  0  0  3  0  0  0  0  0  0
  161.2760  204.3080  152.3240 C   0  0  0  0  0  3  0  0  0  0  0  0
  161.5780  205.3600  151.4530 C   0  0  0  0  0  0  0  0  0  0  0  0
  160.4370  201.2480  149.7750 S   0  0  0  0  0  0  0  0  0  0  0  0
  160.8880  201.8300  147.7770 S   0  0  0  0  0  1  0  0  0  0  0  0
  1  5  1  0  0  0  0
  3  4  1  0  0  0  0
  3  1  1  0  0  0  0
  4 17  1  6  0  0  0
  4  2  1  0  0  0  0
  5  2  1  6  0  0  0
  5  8  1  0  0  0  0
  6 12  1  0  0  0  0
  7 10  1  0  0  0  0
  8 13  1  1  0  0  0
  8 11  1  0  0  0  0
  9 12  1  0  0  0  0
 10  9  1  0  0  0  0
 11  7  1  0  0  0  0
 11  6  2  0  0  0  0
 13 16  1  0  0  0  0
 14  6  1  0  0  0  0
 15  7  2  0  0  0  0
 16 14  2  0  0  0  0
 18 17  1  0  0  0  0
 19 21  1  0  0  0  0
 20 18  1  0  0  0  0
 20 24  1  0  0  0  0
 21 20  2  0  0  0  0
 22 23  1  0  0  0  0
 23 24  2  0  0  0  0
 25 21  1  0  0  0  0
 25 22  2  0  0  0  0
 26  1  1  0  0  0  0
 27 29  1  0  0  0  0
 28 32  2  0  0  0  0
 29 31  2  0  0  0  0
 30 28  1  0  0  0  0
 30 27  2  0  0  0  0
 32 26  1  0  0  0  0
 32 31  1  0  0  0  0
 33 27  1  0  0  0  0
 34 33  1  0  0  0  0
M  END
>  <MODEL>
2

>  <REMARK>
 VINA RESULT:      -6.7      3.731      6.933
  Name = 
  7 active torsions:
  status: ('A' for Active; 'I' for Inactive)
    1  A    between atoms: O_3  and  C_13
    2  A    between atoms: O_3  and  C_17
    3  A    between atoms: C_4  and  C_31
    4  A    between atoms: N_5  and  C_26
    5  A    between atoms: S_7  and  C_8
    6  A    between atoms: C_17  and  C_29
    7  A    between atoms: C_26  and  C_28
                            x       y       z     vdW  Elec       q    Type
                         _______ _______ _______ _____ _____    ______ ____

>  <TORSDO>
F 7

$$$$
=
 OpenBabel11062407463D

 34 38  0  0  1  0  0  0  0  0999 V2000
  160.7180  206.6870  151.4820 N   0  0  0  0  0  0  0  0  0  0  0  0
  161.8500  208.7500  150.9710 C   0  0  0  0  0  2  0  0  0  0  0  0
  160.5610  206.9180  150.0470 C   0  0  0  0  0  2  0  0  0  0  0  0
  161.2970  208.2020  149.6780 C   0  0  2  0  0  3  0  0  0  0  0  0
  161.0650  208.0050  152.0290 C   0  0  2  0  0  3  0  0  0  0  0  0
  160.1910  208.8200  155.1620 C   0  0  0  0  0  0  0  0  0  0  0  0
  161.7340  210.4470  154.2030 C   0  0  0  0  0  0  0  0  0  0  0  0
  161.7380  207.9680  153.4160 C   0  0  1  0  0  3  0  0  0  0  0  0
  159.6880  211.2710  155.3670 C   0  0  0  0  0  2  0  0  0  0  0  0
  161.0260  211.5120  154.8370 N   0  0  0  0  0  2  0  0  0  0  0  0
  161.2050  209.0730  154.3070 C   0  0  0  0  0  0  0  0  0  0  0  0
  159.6330  209.9030  156.0500 C   0  0  0  0  0  2  0  0  0  0  0  0
  161.5110  206.6820  154.0110 O   0  0  0  0  0  0  0  0  0  0  0  0
  159.7390  207.4370  155.3830 C   0  0  0  0  0  3  0  0  0  0  0  0
  162.8080  210.6820  153.5890 O   0  0  0  0  0  0  0  0  0  0  0  0
  160.4040  206.4260  154.8290 C   0  0  0  0  0  3  0  0  0  0  0  0
  162.4110  207.9340  148.6730 C   0  0  0  0  0  2  0  0  0  0  0  0
  162.3850  206.5790  148.2380 O   0  0  0  0  0  0  0  0  0  0  0  0
  163.8110  204.7720  146.6570 O   0  0  0  0  0  1  0  0  0  0  0  0
  161.8800  206.1910  146.9930 C   0  0  0  0  0  0  0  0  0  0  0  0
  162.6020  205.2860  146.2060 C   0  0  0  0  0  0  0  0  0  0  0  0
  160.8880  205.4120  144.5170 C   0  0  0  0  0  3  0  0  0  0  0  0
  160.1970  206.2910  145.2910 N   0  0  0  0  0  0  0  0  0  0  0  0
  160.6620  206.6870  146.5070 C   0  0  0  0  0  3  0  0  0  0  0  0
  162.1050  204.8930  144.9620 C   0  0  0  0  0  3  0  0  0  0  0  0
  161.8340  205.7490  151.6330 C   0  0  0  0  0  2  0  0  0  0  0  0
  160.9740  202.0430  149.6590 C   0  0  0  0  0  0  0  0  0  0  0  0
  161.2470  204.4490  149.5770 C   0  0  0  0  0  3  0  0  0  0  0  0
  161.2610  202.0570  151.0280 C   0  0  0  0  0  3  0  0  0  0  0  0
  160.9720  203.2390  148.9330 C   0  0  0  0  0  3  0  0  0  0  0  0
  161.5370  203.2670  151.6720 C   0  0  0  0  0  3  0  0  0  0  0  0
  161.5230  204.4640  150.9490 C   0  0  0  0  0  0  0  0  0  0  0  0
  160.6290  200.4960  148.8330 S   0  0  0  0  0  0  0  0  0  0  0  0
  160.8680  201.3600  146.9020 S   0  0  0  0  0  1  0  0  0  0  0  0
  1 26  1  0  0  0  0
  1  5  1  0  0  0  0
  3  1  1  0  0  0  0
  4 17  1  6  0  0  0
  4  3  1  0  0  0  0
  4  2  1  0  0  0  0
  5  2  1  6  0  0  0
  5  8  1  0  0  0  0
  6 14  1  0  0  0  0
  6 12  1  0  0  0  0
  7 11  1  0  0  0  0
  7 10  1  0  0  0  0
  8 13  1  1  0  0  0
  8 11  1  0  0  0  0
  9 12  1  0  0  0  0
 10  9  1  0  0  0  0
 11  6  2  0  0  0  0
 13 16  1  0  0  0  0
 15  7  2  0  0  0  0
 16 14  2  0  0  0  0
 18 17  1  0  0  0  0
 20 18  1  0  0  0  0
 21 19  1  0  0  0  0
 21 20  2  0  0  0  0
 22 25  2  0  0  0  0
 22 23  1  0  0  0  0
 23 24  2  0  0  0  0
 24 20  1  0  0  0  0
 25 21  1  0  0  0  0
 27 29  1  0  0  0  0
 28 32  2  0  0  0  0
 29 31  2  0  0  0  0
 30 28  1  0  0  0  0
 30 27  2  0  0  0  0
 32 26  1  0  0  0  0
 32 31  1  0  0  0  0
 33 27  1  0  0  0  0
 34 33  1  0  0  0  0
M  END
>  <MODEL>
3

>  <REMARK>
 VINA RESULT:      -6.7      4.340      7.581
  Name = 
  7 active torsions:
  status: ('A' for Active; 'I' for Inactive)
    1  A    between atoms: O_3  and  C_13
    2  A    between atoms: O_3  and  C_17
    3  A    between atoms: C_4  and  C_31
    4  A    between atoms: N_5  and  C_26
    5  A    between atoms: S_7  and  C_8
    6  A    between atoms: C_17  and  C_29
    7  A    between atoms: C_26  and  C_28
                            x       y       z     vdW  Elec       q    Type
                         _______ _______ _______ _____ _____    ______ ____

>  <TORSDO>
F 7

$$$$
=
 OpenBabel11062407463D

 34 38  0  0  1  0  0  0  0  0999 V2000
  161.1790  208.4660  150.1320 N   0  0  0  0  0  0  0  0  0  0  0  0
  162.3240  208.7820  148.0380 C   0  0  0  0  0  2  0  0  0  0  0  0
  160.9490  207.2650  149.3310 C   0  0  0  0  0  2  0  0  0  0  0  0
  161.6900  207.4140  148.0070 C   0  0  2  0  0  3  0  0  0  0  0  0
  161.5830  209.4850  149.1540 C   0  0  2  0  0  3  0  0  0  0  0  0
  161.1840  212.8150  149.1640 C   0  0  0  0  0  0  0  0  0  0  0  0
  163.0070  212.1270  147.6970 C   0  0  0  0  0  0  0  0  0  0  0  0
  162.3290  210.6920  149.7570 C   0  0  1  0  0  3  0  0  0  0  0  0
  161.3280  213.7630  146.8440 C   0  0  0  0  0  2  0  0  0  0  0  0
  162.6390  213.1300  146.7490 N   0  0  0  0  0  2  0  0  0  0  0  0
  162.1600  211.9230  148.8880 C   0  0  0  0  0  0  0  0  0  0  0  0
  160.9850  214.0400  148.3090 C   0  0  0  0  0  2  0  0  0  0  0  0
  161.8340  210.9340  151.0820 O   0  0  0  0  0  0  0  0  0  0  0  0
  160.4180  212.7080  150.4160 C   0  0  0  0  0  3  0  0  0  0  0  0
  164.0550  211.4520  147.5240 O   0  0  0  0  0  0  0  0  0  0  0  0
  160.7640  211.8030  151.3290 C   0  0  0  0  0  3  0  0  0  0  0  0
  162.7420  206.3250  147.8330 C   0  0  0  0  0  2  0  0  0  0  0  0
  162.5460  205.6220  146.6110 O   0  0  0  0  0  0  0  0  0  0  0  0
  161.4270  204.7480  144.2060 O   0  0  0  0  0  1  0  0  0  0  0  0
  161.9230  204.3720  146.5450 C   0  0  0  0  0  0  0  0  0  0  0  0
  161.3640  203.9420  145.3360 C   0  0  0  0  0  0  0  0  0  0  0  0
  160.6830  201.8900  146.4000 C   0  0  0  0  0  3  0  0  0  0  0  0
  161.2310  202.3200  147.5680 N   0  0  0  0  0  0  0  0  0  0  0  0
  161.8430  203.5300  147.6630 C   0  0  0  0  0  3  0  0  0  0  0  0
  160.7400  202.6940  145.2610 C   0  0  0  0  0  3  0  0  0  0  0  0
  162.2810  208.1520  151.0450 C   0  0  0  0  0  2  0  0  0  0  0  0
  160.7380  207.3080  154.9530 C   0  0  0  0  0  0  0  0  0  0  0  0
  161.3480  208.9080  153.2400 C   0  0  0  0  0  3  0  0  0  0  0  0
  161.1360  206.2600  154.1160 C   0  0  0  0  0  3  0  0  0  0  0  0
  160.8400  208.6320  154.5120 C   0  0  0  0  0  3  0  0  0  0  0  0
  161.6440  206.5360  152.8430 C   0  0  0  0  0  3  0  0  0  0  0  0
  161.7560  207.8610  152.4070 C   0  0  0  0  0  0  0  0  0  0  0  0
  160.0820  206.9540  156.5780 S   0  0  0  0  0  0  0  0  0  0  0  0
  160.4290  208.9420  157.2570 S   0  0  0  0  0  1  0  0  0  0  0  0
  1 26  1  0  0  0  0
  3  1  1  0  0  0  0
  4 17  1  1  0  0  0
  4  2  1  0  0  0  0
  4  3  1  0  0  0  0
  5  2  1  6  0  0  0
  5  8  1  0  0  0  0
  5  1  1  0  0  0  0
  6 14  1  0  0  0  0
  7 11  1  0  0  0  0
  8 11  1  6  0  0  0
  8 13  1  0  0  0  0
  9 12  1  0  0  0  0
 10  9  1  0  0  0  0
 10  7  1  0  0  0  0
 11  6  2  0  0  0  0
 12  6  1  0  0  0  0
 13 16  1  0  0  0  0
 14 16  2  0  0  0  0
 15  7  2  0  0  0  0
 18 17  1  0  0  0  0
 19 21  1  0  0  0  0
 20 18  1  0  0  0  0
 20 24  1  0  0  0  0
 21 20  2  0  0  0  0
 22 23  1  0  0  0  0
 23 24  2  0  0  0  0
 25 21  1  0  0  0  0
 25 22  2  0  0  0  0
 26 32  1  0  0  0  0
 27 33  1  0  0  0  0
 28 30  2  0  0  0  0
 29 27  2  0  0  0  0
 30 27  1  0  0  0  0
 31 29  1  0  0  0  0
 32 31  2  0  0  0  0
 32 28  1  0  0  0  0
 33 34  1  0  0  0  0
M  END
>  <MODEL>
4

>  <REMARK>
 VINA RESULT:      -6.4      1.781      6.783
  Name = 
  7 active torsions:
  status: ('A' for Active; 'I' for Inactive)
    1  A    between atoms: O_3  and  C_13
    2  A    between atoms: O_3  and  C_17
    3  A    between atoms: C_4  and  C_31
    4  A    between atoms: N_5  and  C_26
    5  A    between atoms: S_7  and  C_8
    6  A    between atoms: C_17  and  C_29
    7  A    between atoms: C_26  and  C_28
                            x       y       z     vdW  Elec       q    Type
                         _______ _______ _______ _____ _____    ______ ____

>  <TORSDO>
F 7

$$$$
=
 OpenBabel11062407463D

 34 38  0  0  1  0  0  0  0  0999 V2000
  161.8940  207.1910  151.6340 N   0  0  0  0  0  0  0  0  0  0  0  0
  160.8360  205.8050  153.2950 C   0  0  0  0  0  2  0  0  0  0  0  0
  162.3030  205.8130  151.3670 C   0  0  0  0  0  2  0  0  0  0  0  0
  161.6230  204.8980  152.3800 C   0  0  2  0  0  3  0  0  0  0  0  0
  161.4300  207.1700  153.0280 C   0  0  2  0  0  3  0  0  0  0  0  0
  161.7450  209.9620  154.8590 C   0  0  0  0  0  0  0  0  0  0  0  0
  160.4290  208.2650  156.0160 C   0  0  0  0  0  0  0  0  0  0  0  0
  160.5200  208.3520  153.4180 C   0  0  1  0  0  3  0  0  0  0  0  0
  162.2490  209.4320  157.2610 C   0  0  0  0  0  2  0  0  0  0  0  0
  161.0320  208.6270  157.2590 N   0  0  0  0  0  2  0  0  0  0  0  0
  160.9060  208.9070  154.7750 C   0  0  0  0  0  0  0  0  0  0  0  0
  162.1550  210.5260  156.1950 C   0  0  0  0  0  2  0  0  0  0  0  0
  160.6130  209.3670  152.4090 O   0  0  0  0  0  0  0  0  0  0  0  0
  162.1250  210.7020  153.6450 C   0  0  0  0  0  3  0  0  0  0  0  0
  159.4870  207.4310  155.9930 O   0  0  0  0  0  0  0  0  0  0  0  0
  161.5510  210.4050  152.4810 C   0  0  0  0  0  3  0  0  0  0  0  0
  160.7130  203.8870  151.6930 C   0  0  0  0  0  2  0  0  0  0  0  0
  161.4780  202.8730  151.0500 O   0  0  0  0  0  0  0  0  0  0  0  0
  159.9840  200.5820  150.4870 O   0  0  0  0  0  1  0  0  0  0  0  0
  161.2640  202.4880  149.7230 C   0  0  0  0  0  0  0  0  0  0  0  0
  160.5150  201.3370  149.4500 C   0  0  0  0  0  0  0  0  0  0  0  0
  160.8320  201.7110  147.0900 C   0  0  0  0  0  3  0  0  0  0  0  0
  161.5570  202.8270  147.3700 N   0  0  0  0  0  0  0  0  0  0  0  0
  161.7820  203.2270  148.6500 C   0  0  0  0  0  3  0  0  0  0  0  0
  160.2970  200.9450  148.1270 C   0  0  0  0  0  3  0  0  0  0  0  0
  160.7860  207.4810  150.7200 C   0  0  0  0  0  2  0  0  0  0  0  0
  161.7870  206.3060  146.7210 C   0  0  0  0  0  0  0  0  0  0  0  0
  160.1790  206.4390  148.5280 C   0  0  0  0  0  3  0  0  0  0  0  0
  162.7420  206.9380  147.5260 C   0  0  0  0  0  3  0  0  0  0  0  0
  160.5040  206.0610  147.2220 C   0  0  0  0  0  3  0  0  0  0  0  0
  162.4160  207.3170  148.8310 C   0  0  0  0  0  3  0  0  0  0  0  0
  161.1370  207.0620  149.3350 C   0  0  0  0  0  0  0  0  0  0  0  0
  162.2020  205.8270  145.0500 S   0  0  0  0  0  0  0  0  0  0  0  0
  160.3670  204.7790  144.7910 S   0  0  0  0  0  1  0  0  0  0  0  0
  1  5  1  0  0  0  0
  3  1  1  0  0  0  0
  3  4  1  0  0  0  0
  4 17  1  6  0  0  0
  4  2  1  0  0  0  0
  5  2  1  6  0  0  0
  5  8  1  0  0  0  0
  6 12  1  0  0  0  0
  7 10  1  0  0  0  0
  8 13  1  6  0  0  0
  8 11  1  0  0  0  0
 10  9  1  0  0  0  0
 11  6  2  0  0  0  0
 11  7  1  0  0  0  0
 12  9  1  0  0  0  0
 13 16  1  0  0  0  0
 14  6  1  0  0  0  0
 15  7  2  0  0  0  0
 16 14  2  0  0  0  0
 18 17  1  0  0  0  0
 20 18  1  0  0  0  0
 21 20  1  0  0  0  0
 21 19  1  0  0  0  0
 22 23  2  0  0  0  0
 22 25  1  0  0  0  0
 23 24  1  0  0  0  0
 24 20  2  0  0  0  0
 25 21  2  0  0  0  0
 26  1  1  0  0  0  0
 27 30  2  0  0  0  0
 27 29  1  0  0  0  0
 28 32  2  0  0  0  0
 29 31  2  0  0  0  0
 30 28  1  0  0  0  0
 31 32  1  0  0  0  0
 32 26  1  0  0  0  0
 33 27  1  0  0  0  0
 34 33  1  0  0  0  0
M  END
>  <MODEL>
5

>  <REMARK>
 VINA RESULT:      -6.4      4.711      9.088
  Name = 
  7 active torsions:
  status: ('A' for Active; 'I' for Inactive)
    1  A    between atoms: O_3  and  C_13
    2  A    between atoms: O_3  and  C_17
    3  A    between atoms: C_4  and  C_31
    4  A    between atoms: N_5  and  C_26
    5  A    between atoms: S_7  and  C_8
    6  A    between atoms: C_17  and  C_29
    7  A    between atoms: C_26  and  C_28
                            x       y       z     vdW  Elec       q    Type
                         _______ _______ _______ _____ _____    ______ ____

>  <TORSDO>
F 7

$$$$
=
 OpenBabel11062407463D

 34 38  0  0  1  0  0  0  0  0999 V2000
  160.9810  207.1310  151.1300 N   0  0  0  0  0  0  0  0  0  0  0  0
  161.3910  205.5690  152.9150 C   0  0  0  0  0  2  0  0  0  0  0  0
  160.4320  207.7190  152.3500 C   0  0  0  0  0  2  0  0  0  0  0  0
  160.7030  206.7720  153.5120 C   0  0  2  0  0  3  0  0  0  0  0  0
  161.1000  205.6990  151.4360 C   0  0  2  0  0  3  0  0  0  0  0  0
  160.8200  203.4600  148.9550 C   0  0  0  0  0  0  0  0  0  0  0  0
  161.5790  202.4230  151.0280 C   0  0  0  0  0  0  0  0  0  0  0  0
  162.0710  204.9260  150.5220 C   0  0  1  0  0  3  0  0  0  0  0  0
  159.7300  201.3430  149.7490 C   0  0  0  0  0  2  0  0  0  0  0  0
  160.7820  201.2700  150.7580 N   0  0  0  0  0  2  0  0  0  0  0  0
  161.4880  203.5850  150.1230 C   0  0  0  0  0  0  0  0  0  0  0  0
  160.2180  202.1420  148.5390 C   0  0  0  0  0  2  0  0  0  0  0  0
  162.3560  205.7220  149.3630 O   0  0  0  0  0  0  0  0  0  0  0  0
  160.8310  204.5600  147.9780 C   0  0  0  0  0  3  0  0  0  0  0  0
  162.3660  202.4280  152.0100 O   0  0  0  0  0  0  0  0  0  0  0  0
  161.5940  205.6300  148.1920 C   0  0  0  0  0  3  0  0  0  0  0  0
  161.5750  207.4310  154.5750 C   0  0  0  0  0  2  0  0  0  0  0  0
  161.5910  208.8450  154.4090 O   0  0  0  0  0  0  0  0  0  0  0  0
  163.1810  210.7030  155.7580 O   0  0  0  0  0  1  0  0  0  0  0  0
  161.0100  209.7240  155.3280 C   0  0  0  0  0  0  0  0  0  0  0  0
  161.8140  210.6520  156.0010 C   0  0  0  0  0  0  0  0  0  0  0  0
  159.8670  211.4760  157.1580 C   0  0  0  0  0  3  0  0  0  0  0  0
  159.0980  210.5700  156.4970 N   0  0  0  0  0  0  0  0  0  0  0  0
  159.6340  209.7030  155.5970 C   0  0  0  0  0  3  0  0  0  0  0  0
  161.2420  211.5330  156.9210 C   0  0  0  0  0  3  0  0  0  0  0  0
  162.3020  207.7340  150.9360 C   0  0  0  0  0  2  0  0  0  0  0  0
  161.8910  211.5540  149.0360 C   0  0  0  0  0  0  0  0  0  0  0  0
  162.0960  209.1460  148.8800 C   0  0  0  0  0  3  0  0  0  0  0  0
  161.9560  211.4690  150.4310 C   0  0  0  0  0  3  0  0  0  0  0  0
  161.9560  210.3910  148.2610 C   0  0  0  0  0  3  0  0  0  0  0  0
  162.0950  210.2230  151.0500 C   0  0  0  0  0  3  0  0  0  0  0  0
  162.1710  209.0620  150.2740 C   0  0  0  0  0  0  0  0  0  0  0  0
  161.7060  213.1470  148.2450 S   0  0  0  0  0  0  0  0  0  0  0  0
  160.4240  212.3590  146.7390 S   0  0  0  0  0  1  0  0  0  0  0  0
  1  5  1  0  0  0  0
  1  3  1  0  0  0  0
  2  4  1  0  0  0  0
  3  4  1  0  0  0  0
  4 17  1  1  0  0  0
  5  2  1  1  0  0  0
  6 11  2  0  0  0  0
  7 15  2  0  0  0  0
  8 13  1  6  0  0  0
  8  5  1  0  0  0  0
  9 10  1  0  0  0  0
 10  7  1  0  0  0  0
 11  8  1  0  0  0  0
 11  7  1  0  0  0  0
 12  6  1  0  0  0  0
 12  9  1  0  0  0  0
 14 16  2  0  0  0  0
 14  6  1  0  0  0  0
 16 13  1  0  0  0  0
 18 17  1  0  0  0  0
 18 20  1  0  0  0  0
 19 21  1  0  0  0  0
 20 24  2  0  0  0  0
 20 21  1  0  0  0  0
 21 25  2  0  0  0  0
 23 22  2  0  0  0  0
 24 23  1  0  0  0  0
 25 22  1  0  0  0  0
 26  1  1  0  0  0  0
 27 29  1  0  0  0  0
 28 32  2  0  0  0  0
 29 31  2  0  0  0  0
 30 28  1  0  0  0  0
 30 27  2  0  0  0  0
 32 26  1  0  0  0  0
 32 31  1  0  0  0  0
 33 27  1  0  0  0  0
 34 33  1  0  0  0  0
M  END
>  <MODEL>
6

>  <REMARK>
 VINA RESULT:      -5.6      3.811      6.465
  Name = 
  7 active torsions:
  status: ('A' for Active; 'I' for Inactive)
    1  A    between atoms: O_3  and  C_13
    2  A    between atoms: O_3  and  C_17
    3  A    between atoms: C_4  and  C_31
    4  A    between atoms: N_5  and  C_26
    5  A    between atoms: S_7  and  C_8
    6  A    between atoms: C_17  and  C_29
    7  A    between atoms: C_26  and  C_28
                            x       y       z     vdW  Elec       q    Type
                         _______ _______ _______ _____ _____    ______ ____

>  <TORSDO>
F 7

$$$$
=
 OpenBabel11062407463D

 34 38  0  0  1  0  0  0  0  0999 V2000
  161.8980  206.6580  150.8440 N   0  0  0  0  0  0  0  0  0  0  0  0
  161.6170  206.6270  148.4530 C   0  0  0  0  0  2  0  0  0  0  0  0
  162.7200  207.7380  150.3010 C   0  0  0  0  0  2  0  0  0  0  0  0
  162.5410  207.7720  148.7870 C   0  0  2  0  0  3  0  0  0  0  0  0
  161.6590  205.7700  149.6990 C   0  0  2  0  0  3  0  0  0  0  0  0
  161.2230  202.4800  150.1810 C   0  0  0  0  0  0  0  0  0  0  0  0
  160.6870  203.1370  147.8950 C   0  0  0  0  0  0  0  0  0  0  0  0
  160.4550  204.8200  149.8640 C   0  0  1  0  0  3  0  0  0  0  0  0
  162.1370  201.1420  148.2640 C   0  0  0  0  0  2  0  0  0  0  0  0
  161.2680  201.9310  147.3980 N   0  0  0  0  0  2  0  0  0  0  0  0
  160.7810  203.4360  149.3370 C   0  0  0  0  0  0  0  0  0  0  0  0
  161.5660  201.0990  149.6830 C   0  0  0  0  0  2  0  0  0  0  0  0
  160.0910  204.7640  151.2500 O   0  0  0  0  0  0  0  0  0  0  0  0
  161.1960  202.7080  151.6350 C   0  0  0  0  0  3  0  0  0  0  0  0
  160.0810  203.9130  147.1100 O   0  0  0  0  0  0  0  0  0  0  0  0
  160.6290  203.8100  152.1230 C   0  0  0  0  0  3  0  0  0  0  0  0
  161.9570  209.1020  148.3270 C   0  0  0  0  0  2  0  0  0  0  0  0
  162.3320  210.1530  149.2110 O   0  0  0  0  0  0  0  0  0  0  0  0
  163.8340  211.7830  147.5120 O   0  0  0  0  0  1  0  0  0  0  0  0
  161.9560  211.4840  149.0090 C   0  0  0  0  0  0  0  0  0  0  0  0
  162.7150  212.2950  148.1570 C   0  0  0  0  0  0  0  0  0  0  0  0
  161.2200  214.1320  148.5990 C   0  0  0  0  0  3  0  0  0  0  0  0
  160.4910  213.3340  149.4240 N   0  0  0  0  0  0  0  0  0  0  0  0
  160.8310  212.0350  149.6400 C   0  0  0  0  0  3  0  0  0  0  0  0
  162.3470  213.6260  147.9500 C   0  0  0  0  0  3  0  0  0  0  0  0
  160.6470  207.2750  151.2950 C   0  0  0  0  0  2  0  0  0  0  0  0
  161.2100  209.0510  155.1560 C   0  0  0  0  0  0  0  0  0  0  0  0
  161.0180  207.0780  153.7620 C   0  0  0  0  0  3  0  0  0  0  0  0
  161.0330  209.8630  154.0300 C   0  0  0  0  0  3  0  0  0  0  0  0
  161.2070  207.6580  155.0200 C   0  0  0  0  0  3  0  0  0  0  0  0
  160.8450  209.2830  152.7720 C   0  0  0  0  0  3  0  0  0  0  0  0
  160.8310  207.8900  152.6380 C   0  0  0  0  0  0  0  0  0  0  0  0
  161.4570  209.7920  156.7630 S   0  0  0  0  0  0  0  0  0  0  0  0
  160.4140  211.5650  156.2130 S   0  0  0  0  0  1  0  0  0  0  0  0
  1 26  1  0  0  0  0
  2  4  1  0  0  0  0
  3  1  1  0  0  0  0
  4 17  1  1  0  0  0
  4  3  1  0  0  0  0
  5  2  1  6  0  0  0
  5  8  1  0  0  0  0
  5  1  1  0  0  0  0
  6 14  1  0  0  0  0
  7 11  1  0  0  0  0
  8 11  1  1  0  0  0
  8 13  1  0  0  0  0
  9 12  1  0  0  0  0
 10  7  1  0  0  0  0
 10  9  1  0  0  0  0
 11  6  2  0  0  0  0
 12  6  1  0  0  0  0
 13 16  1  0  0  0  0
 14 16  2  0  0  0  0
 15  7  2  0  0  0  0
 17 18  1  0  0  0  0
 19 21  1  0  0  0  0
 20 18  1  0  0  0  0
 20 24  1  0  0  0  0
 21 20  2  0  0  0  0
 22 23  1  0  0  0  0
 23 24  2  0  0  0  0
 25 21  1  0  0  0  0
 25 22  2  0  0  0  0
 26 32  1  0  0  0  0
 27 33  1  0  0  0  0
 28 30  2  0  0  0  0
 29 27  2  0  0  0  0
 30 27  1  0  0  0  0
 31 29  1  0  0  0  0
 32 31  2  0  0  0  0
 32 28  1  0  0  0  0
 34 33  1  0  0  0  0
M  END
>  <MODEL>
7

>  <REMARK>
 VINA RESULT:      -5.6      1.755      2.355
  Name = 
  7 active torsions:
  status: ('A' for Active; 'I' for Inactive)
    1  A    between atoms: O_3  and  C_13
    2  A    between atoms: O_3  and  C_17
    3  A    between atoms: C_4  and  C_31
    4  A    between atoms: N_5  and  C_26
    5  A    between atoms: S_7  and  C_8
    6  A    between atoms: C_17  and  C_29
    7  A    between atoms: C_26  and  C_28
                            x       y       z     vdW  Elec       q    Type
                         _______ _______ _______ _____ _____    ______ ____

>  <TORSDO>
F 7

$$$$
=
 OpenBabel11062407463D

 34 38  0  0  1  0  0  0  0  0999 V2000
  160.9220  206.3030  149.0130 N   0  0  0  0  0  0  0  0  0  0  0  0
  161.2180  204.3010  150.3170 C   0  0  0  0  0  2  0  0  0  0  0  0
  160.2600  206.5250  150.2970 C   0  0  0  0  0  2  0  0  0  0  0  0
  160.4560  205.2880  151.1660 C   0  0  2  0  0  3  0  0  0  0  0  0
  161.0480  204.8430  148.9140 C   0  0  2  0  0  3  0  0  0  0  0  0
  161.0340  203.6050  145.7980 C   0  0  0  0  0  0  0  0  0  0  0  0
  161.4820  201.8730  147.4560 C   0  0  0  0  0  0  0  0  0  0  0  0
  162.1090  204.3570  147.9070 C   0  0  1  0  0  3  0  0  0  0  0  0
  159.7890  201.4290  145.6790 C   0  0  0  0  0  2  0  0  0  0  0  0
  160.6940  200.9420  146.7140 N   0  0  0  0  0  2  0  0  0  0  0  0
  161.5450  203.2770  147.0040 C   0  0  0  0  0  0  0  0  0  0  0  0
  160.4560  202.5540  144.8860 C   0  0  0  0  0  2  0  0  0  0  0  0
  162.5680  205.4760  147.1350 O   0  0  0  0  0  0  0  0  0  0  0  0
  161.2070  204.9670  145.2680 C   0  0  0  0  0  3  0  0  0  0  0  0
  162.1310  201.4870  148.4630 O   0  0  0  0  0  0  0  0  0  0  0  0
  161.9650  205.8430  145.9250 C   0  0  0  0  0  3  0  0  0  0  0  0
  161.2210  205.6200  152.4410 C   0  0  0  0  0  2  0  0  0  0  0  0
  161.0970  207.0020  152.7600 O   0  0  0  0  0  0  0  0  0  0  0  0
  161.1820  209.7370  153.3200 O   0  0  0  0  0  1  0  0  0  0  0  0
  160.8010  207.4610  154.0480 C   0  0  0  0  0  0  0  0  0  0  0  0
  160.8470  208.8330  154.3200 C   0  0  0  0  0  0  0  0  0  0  0  0
  160.2150  208.3850  156.6020 C   0  0  0  0  0  3  0  0  0  0  0  0
  160.1730  207.0550  156.3240 N   0  0  0  0  0  0  0  0  0  0  0  0
  160.4560  206.5780  155.0810 C   0  0  0  0  0  3  0  0  0  0  0  0
  160.5530  209.3000  155.6030 C   0  0  0  0  0  3  0  0  0  0  0  0
  162.2400  206.9350  149.1100 C   0  0  0  0  0  2  0  0  0  0  0  0
  161.8180  211.2000  149.0470 C   0  0  0  0  0  0  0  0  0  0  0  0
  161.7240  209.0660  147.9040 C   0  0  0  0  0  3  0  0  0  0  0  0
  162.1890  210.5500  150.2290 C   0  0  0  0  0  3  0  0  0  0  0  0
  161.5810  210.4560  147.8860 C   0  0  0  0  0  3  0  0  0  0  0  0
  162.3310  209.1590  150.2480 C   0  0  0  0  0  3  0  0  0  0  0  0
  162.1050  208.4170  149.0840 C   0  0  0  0  0  0  0  0  0  0  0  0
  161.6300  212.9770  149.0240 S   0  0  0  0  0  0  0  0  0  0  0  0
  162.2330  213.1130  146.9870 S   0  0  0  0  0  1  0  0  0  0  0  0
  1 26  1  0  0  0  0
  1  3  1  0  0  0  0
  2  4  1  0  0  0  0
  3  4  1  0  0  0  0
  4 17  1  1  0  0  0
  5  1  1  0  0  0  0
  5  2  1  1  0  0  0
  6 11  2  0  0  0  0
  7 15  2  0  0  0  0
  8 11  1  6  0  0  0
  8  5  1  0  0  0  0
  9 10  1  0  0  0  0
 10  7  1  0  0  0  0
 11  7  1  0  0  0  0
 12  9  1  0  0  0  0
 12  6  1  0  0  0  0
 13  8  1  0  0  0  0
 14  6  1  0  0  0  0
 14 16  2  0  0  0  0
 16 13  1  0  0  0  0
 17 18  1  0  0  0  0
 18 20  1  0  0  0  0
 19 21  1  0  0  0  0
 20 21  2  0  0  0  0
 20 24  1  0  0  0  0
 21 25  1  0  0  0  0
 23 22  1  0  0  0  0
 24 23  2  0  0  0  0
 25 22  2  0  0  0  0
 27 29  1  0  0  0  0
 28 32  2  0  0  0  0
 29 31  2  0  0  0  0
 30 28  1  0  0  0  0
 30 27  2  0  0  0  0
 32 26  1  0  0  0  0
 32 31  1  0  0  0  0
 33 27  1  0  0  0  0
 34 33  1  0  0  0  0
M  END
>  <MODEL>
8

>  <REMARK>
 VINA RESULT:      -5.4      3.411      6.306
  Name = 
  7 active torsions:
  status: ('A' for Active; 'I' for Inactive)
    1  A    between atoms: O_3  and  C_13
    2  A    between atoms: O_3  and  C_17
    3  A    between atoms: C_4  and  C_31
    4  A    between atoms: N_5  and  C_26
    5  A    between atoms: S_7  and  C_8
    6  A    between atoms: C_17  and  C_29
    7  A    between atoms: C_26  and  C_28
                            x       y       z     vdW  Elec       q    Type
                         _______ _______ _______ _____ _____    ______ ____

>  <TORSDO>
F 7

$$$$
=
 OpenBabel11062407463D

 34 38  0  0  1  0  0  0  0  0999 V2000
  161.1220  208.1050  150.7890 N   0  0  0  0  0  0  0  0  0  0  0  0
  161.9770  210.2730  151.3940 C   0  0  0  0  0  2  0  0  0  0  0  0
  160.8320  209.0070  149.6760 C   0  0  0  0  0  2  0  0  0  0  0  0
  161.3910  210.3860  150.0090 C   0  0  2  0  0  3  0  0  0  0  0  0
  161.3630  208.9990  151.9300 C   0  0  2  0  0  3  0  0  0  0  0  0
  160.6100  207.8370  154.9850 C   0  0  0  0  0  0  0  0  0  0  0  0
  161.7690  209.9810  155.0930 C   0  0  0  0  0  0  0  0  0  0  0  0
  162.1380  208.3550  153.0970 C   0  0  1  0  0  3  0  0  0  0  0  0
  159.7100  209.6560  156.4620 C   0  0  0  0  0  2  0  0  0  0  0  0
  160.9400  210.3880  156.1810 N   0  0  0  0  0  2  0  0  0  0  0  0
  161.4950  208.6920  154.4270 C   0  0  0  0  0  0  0  0  0  0  0  0
  159.9450  208.1530  156.3000 C   0  0  0  0  0  2  0  0  0  0  0  0
  162.1840  206.9350  152.9000 O   0  0  0  0  0  0  0  0  0  0  0  0
  160.4220  206.4940  154.4150 C   0  0  0  0  0  3  0  0  0  0  0  0
  162.7340  210.7030  154.7320 O   0  0  0  0  0  0  0  0  0  0  0  0
  161.2060  206.0790  153.4220 C   0  0  0  0  0  3  0  0  0  0  0  0
  162.4480  210.8150  148.9980 C   0  0  0  0  0  2  0  0  0  0  0  0
  162.3760  212.2160  148.7540 O   0  0  0  0  0  0  0  0  0  0  0  0
  160.4960  213.8830  149.9730 O   0  0  0  0  0  1  0  0  0  0  0  0
  161.3620  212.8010  147.9890 C   0  0  0  0  0  0  0  0  0  0  0  0
  160.4240  213.6350  148.6080 C   0  0  0  0  0  0  0  0  0  0  0  0
  159.3430  213.9720  146.4800 C   0  0  0  0  0  3  0  0  0  0  0  0
  160.2620  213.1610  145.8920 N   0  0  0  0  0  0  0  0  0  0  0  0
  161.2590  212.5770  146.6080 C   0  0  0  0  0  3  0  0  0  0  0  0
  159.4080  214.2240  147.8520 C   0  0  0  0  0  3  0  0  0  0  0  0
  162.3430  207.3790  150.4290 C   0  0  0  0  0  2  0  0  0  0  0  0
  161.5920  204.6550  147.2060 C   0  0  0  0  0  0  0  0  0  0  0  0
  162.4670  206.7680  148.0060 C   0  0  0  0  0  3  0  0  0  0  0  0
  161.2060  204.3220  148.5090 C   0  0  0  0  0  3  0  0  0  0  0  0
  162.2270  205.8770  146.9560 C   0  0  0  0  0  3  0  0  0  0  0  0
  161.4470  205.2130  149.5590 C   0  0  0  0  0  3  0  0  0  0  0  0
  162.0720  206.4390  149.3070 C   0  0  0  0  0  0  0  0  0  0  0  0
  161.2900  203.5140  145.8640 S   0  0  0  0  0  0  0  0  0  0  0  0
  161.2070  205.0780  144.4220 S   0  0  0  0  0  1  0  0  0  0  0  0
  1  5  1  0  0  0  0
  3  4  1  0  0  0  0
  3  1  1  0  0  0  0
  4 17  1  6  0  0  0
  4  2  1  0  0  0  0
  5  2  1  6  0  0  0
  5  8  1  0  0  0  0
  6 12  1  0  0  0  0
  7 10  1  0  0  0  0
  8 13  1  6  0  0  0
  8 11  1  0  0  0  0
 10  9  1  0  0  0  0
 11  6  2  0  0  0  0
 11  7  1  0  0  0  0
 12  9  1  0  0  0  0
 13 16  1  0  0  0  0
 14  6  1  0  0  0  0
 15  7  2  0  0  0  0
 16 14  2  0  0  0  0
 18 17  1  0  0  0  0
 20 21  1  0  0  0  0
 20 18  1  0  0  0  0
 21 19  1  0  0  0  0
 22 25  1  0  0  0  0
 23 22  2  0  0  0  0
 23 24  1  0  0  0  0
 24 20  2  0  0  0  0
 25 21  2  0  0  0  0
 26  1  1  0  0  0  0
 27 29  1  0  0  0  0
 28 32  2  0  0  0  0
 29 31  2  0  0  0  0
 30 27  2  0  0  0  0
 30 28  1  0  0  0  0
 32 31  1  0  0  0  0
 32 26  1  0  0  0  0
 33 27  1  0  0  0  0
 34 33  1  0  0  0  0
M  END
>  <MODEL>
9

>  <REMARK>
 VINA RESULT:      -5.0      3.751      6.690
  Name = 
  7 active torsions:
  status: ('A' for Active; 'I' for Inactive)
    1  A    between atoms: O_3  and  C_13
    2  A    between atoms: O_3  and  C_17
    3  A    between atoms: C_4  and  C_31
    4  A    between atoms: N_5  and  C_26
    5  A    between atoms: S_7  and  C_8
    6  A    between atoms: C_17  and  C_29
    7  A    between atoms: C_26  and  C_28
                            x       y       z     vdW  Elec       q    Type
                         _______ _______ _______ _____ _____    ______ ____

>  <TORSDO>
F 7

$$$$
