=
 OpenBabel11062409063D

 37 41  0  0  1  0  0  0  0  0999 V2000
  161.6380  209.3060  150.1990 C   0  0  0  0  0  0  0  0  0  0  0  0
  162.4910  207.9320  148.4380 O   0  0  0  0  0  0  0  0  0  0  0  0
  161.1310  208.1090  150.9760 C   0  0  2  0  0  3  0  0  0  0  0  0
  161.7710  209.1100  148.6980 C   0  0  2  0  0  3  0  0  0  0  0  0
  161.4670  208.2100  152.4600 C   0  0  0  0  0  2  0  0  0  0  0  0
  162.4600  210.2800  148.0020 C   0  0  0  0  0  2  0  0  0  0  0  0
  161.6830  206.8540  148.8440 C   0  0  2  0  0  3  0  0  0  0  0  0
  161.7400  210.5320  150.7780 C   0  0  0  0  0  0  0  0  0  0  0  0
  161.8840  211.5930  148.5030 C   0  0  0  0  0  2  0  0  0  0  0  0
  162.1940  211.7320  149.9880 C   0  0  0  0  0  2  0  0  0  0  0  0
  161.6340  206.7830  150.3850 C   0  0  2  0  0  3  0  0  0  0  0  0
  160.9580  209.5460  152.9820 C   0  0  2  0  0  3  0  0  0  0  0  0
  161.6720  210.6990  152.2770 C   0  0  0  0  0  2  0  0  0  0  0  0
  160.0880  204.8300  149.7860 C   0  0  0  0  0  2  0  0  0  0  0  0
  160.8720  203.6130  149.3230 C   0  0  0  0  0  2  0  0  0  0  0  0
  161.1710  202.3400  151.4640 N   0  0  0  0  0  0  0  0  0  0  0  0
  160.4680  202.4080  150.1730 C   0  0  2  0  0  3  0  0  0  0  0  0
  160.8100  203.4720  152.3310 C   0  0  0  0  0  2  0  0  0  0  0  0
  161.5330  204.7780  151.9630 C   0  0  1  0  0  3  0  0  0  0  0  0
  162.6220  202.2260  151.3040 C   0  0  0  0  0  1  0  0  0  0  0  0
  160.7820  205.6130  150.9130 C   0  0  1  0  0  3  0  0  0  0  0  0
  160.4940  205.6060  154.0740 C   0  0  0  0  0  1  0  0  0  0  0  0
  161.7480  205.6100  153.2190 C   0  0  0  0  0  2  0  0  0  0  0  0
  161.0220  201.3870  147.9610 C   0  0  0  0  0  1  0  0  0  0  0  0
  160.6280  201.1050  149.3970 C   0  0  0  0  0  2  0  0  0  0  0  0
  160.1410  209.0830  155.2960 C   0  0  0  0  0  3  0  0  0  0  0  0
  161.1210  209.6400  154.4650 C   0  0  0  0  0  0  0  0  0  0  0  0
  162.2350  210.2740  155.0370 C   0  0  0  0  0  3  0  0  0  0  0  0
  163.5450  211.0220  157.0280 C   0  0  0  0  0  1  0  0  0  0  0  0
  161.3830  209.7900  157.2510 C   0  0  0  0  0  3  0  0  0  0  0  0
  162.3640  210.3490  156.4270 C   0  0  0  0  0  0  0  0  0  0  0  0
  160.2720  209.1580  156.6860 C   0  0  0  0  0  3  0  0  0  0  0  0
  162.2120  205.6490  148.3090 O   0  0  0  0  0  0  0  0  0  0  0  0
  162.3150  205.4370  146.9350 C   0  0  0  0  0  0  0  0  0  0  0  0
  163.3260  204.8400  146.4780 O   0  0  0  0  0  0  0  0  0  0  0  0
  161.3030  205.8770  146.0770 O   0  0  0  0  0  0  0  0  0  0  0  0
  161.2090  205.4260  144.7360 C   0  0  0  0  0  1  0  0  0  0  0  0
  1  8  2  0  0  0  0
  1  3  1  0  0  0  0
  2  4  1  0  0  0  0
  2  7  1  0  0  0  0
  3  5  1  1  0  0  0
  4  6  1  1  0  0  0
  4  1  1  0  0  0  0
  5 12  1  0  0  0  0
  6  9  1  0  0  0  0
  7 33  1  6  0  0  0
  7 11  1  0  0  0  0
  8 13  1  0  0  0  0
  9 10  1  0  0  0  0
 10  8  1  0  0  0  0
 11 21  1  6  0  0  0
 11  3  1  0  0  0  0
 12 27  1  1  0  0  0
 13 12  1  0  0  0  0
 15 14  1  0  0  0  0
 15 17  1  0  0  0  0
 16 18  1  0  0  0  0
 17 25  1  6  0  0  0
 17 16  1  0  0  0  0
 19 18  1  0  0  0  0
 19 23  1  1  0  0  0
 20 16  1  0  0  0  0
 21 14  1  6  0  0  0
 21 19  1  0  0  0  0
 23 22  1  0  0  0  0
 24 25  1  0  0  0  0
 26 32  1  0  0  0  0
 27 28  1  0  0  0  0
 27 26  2  0  0  0  0
 28 31  2  0  0  0  0
 31 29  1  0  0  0  0
 31 30  1  0  0  0  0
 32 30  2  0  0  0  0
 34 33  1  0  0  0  0
 35 34  2  0  0  0  0
 36 34  1  0  0  0  0
 37 36  1  0  0  0  0
M  END
>  <MODEL>
1

>  <REMARK>
 VINA RESULT:      -7.1      0.000      0.000
  Name = 
  7 active torsions:
  status: ('A' for Active; 'I' for Inactive)
    1  A    between atoms: O_3  and  C_21
    2  A    between atoms: C_6  and  C_31
    3  A    between atoms: C_17  and  C_23
    4  A    between atoms: C_20  and  O_25
    5  A    between atoms: C_21  and  O_25
    6  A    between atoms: C_27  and  C_33
    7  A    between atoms: C_29  and  C_36
                            x       y       z     vdW  Elec       q    Type
                         _______ _______ _______ _____ _____    ______ ____

>  <TORSDO>
F 7

$$$$
=
 OpenBabel11062409063D

 37 41  0  0  1  0  0  0  0  0999 V2000
  160.2050  212.4230  151.5570 C   0  0  0  0  0  0  0  0  0  0  0  0
  158.5040  214.0540  151.9590 O   0  0  0  0  0  0  0  0  0  0  0  0
  159.9840  211.7630  152.9030 C   0  0  2  0  0  3  0  0  0  0  0  0
  159.8090  213.8870  151.4670 C   0  0  2  0  0  3  0  0  0  0  0  0
  159.9490  210.2430  152.7920 C   0  0  0  0  0  2  0  0  0  0  0  0
  159.8790  214.4380  150.0460 C   0  0  0  0  0  2  0  0  0  0  0  0
  158.5480  213.8060  153.3440 C   0  0  2  0  0  3  0  0  0  0  0  0
  160.9240  211.8090  150.5810 C   0  0  0  0  0  0  0  0  0  0  0  0
  161.1790  214.0080  149.3880 C   0  0  0  0  0  2  0  0  0  0  0  0
  161.1890  212.4900  149.2620 C   0  0  0  0  0  2  0  0  0  0  0  0
  158.7230  212.2950  153.6030 C   0  0  2  0  0  3  0  0  0  0  0  0
  161.2110  209.7810  152.0780 C   0  0  2  0  0  3  0  0  0  0  0  0
  161.2510  210.3370  150.6550 C   0  0  0  0  0  2  0  0  0  0  0  0
  158.3510  210.4790  155.3730 C   0  0  0  0  0  2  0  0  0  0  0  0
  159.5300  209.5230  155.4560 C   0  0  0  0  0  2  0  0  0  0  0  0
  160.9300  210.5780  157.2510 N   0  0  0  0  0  0  0  0  0  0  0  0
  160.0260  209.4700  156.9010 C   0  0  2  0  0  3  0  0  0  0  0  0
  160.2340  211.8720  157.2050 C   0  0  0  0  0  2  0  0  0  0  0  0
  160.0550  212.4190  155.7790 C   0  0  1  0  0  3  0  0  0  0  0  0
  162.1420  210.5890  156.4300 C   0  0  0  0  0  1  0  0  0  0  0  0
  158.7620  211.9360  155.1010 C   0  0  1  0  0  3  0  0  0  0  0  0
  159.2370  214.4530  156.9690 C   0  0  0  0  0  1  0  0  0  0  0  0
  160.0760  213.9400  155.8140 C   0  0  0  0  0  2  0  0  0  0  0  0
  159.9160  207.0020  156.5260 C   0  0  0  0  0  1  0  0  0  0  0  0
  160.6680  208.1230  157.2160 C   0  0  0  0  0  2  0  0  0  0  0  0
  161.5270  207.6170  153.2840 C   0  0  0  0  0  3  0  0  0  0  0  0
  161.3110  208.2890  152.0750 C   0  0  0  0  0  0  0  0  0  0  0  0
  161.1900  207.5530  150.8850 C   0  0  0  0  0  3  0  0  0  0  0  0
  161.1570  205.3850  149.6460 C   0  0  0  0  0  1  0  0  0  0  0  0
  161.5020  205.4940  152.1190 C   0  0  0  0  0  3  0  0  0  0  0  0
  161.2860  206.1590  150.9090 C   0  0  0  0  0  0  0  0  0  0  0  0
  161.6230  206.2220  153.3050 C   0  0  0  0  0  3  0  0  0  0  0  0
  157.3460  214.2750  153.9400 O   0  0  0  0  0  0  0  0  0  0  0  0
  156.1050  213.7240  153.6200 C   0  0  0  0  0  0  0  0  0  0  0  0
  155.5450  214.0570  152.5420 O   0  0  0  0  0  0  0  0  0  0  0  0
  155.4970  212.8100  154.4840 O   0  0  0  0  0  0  0  0  0  0  0  0
  155.4820  213.0030  155.8890 C   0  0  0  0  0  1  0  0  0  0  0  0
  1  3  1  0  0  0  0
  2  7  1  0  0  0  0
  3  5  1  6  0  0  0
  3 11  1  0  0  0  0
  4  6  1  6  0  0  0
  4  1  1  0  0  0  0
  4  2  1  0  0  0  0
  7 11  1  0  0  0  0
  7 33  1  1  0  0  0
  8 13  1  0  0  0  0
  8  1  2  0  0  0  0
  9  6  1  0  0  0  0
 10  9  1  0  0  0  0
 10  8  1  0  0  0  0
 11 21  1  1  0  0  0
 12 27  1  6  0  0  0
 12  5  1  0  0  0  0
 13 12  1  0  0  0  0
 14 15  1  0  0  0  0
 15 17  1  0  0  0  0
 17 25  1  6  0  0  0
 17 16  1  0  0  0  0
 18 16  1  0  0  0  0
 19 23  1  1  0  0  0
 19 18  1  0  0  0  0
 20 16  1  0  0  0  0
 21 14  1  6  0  0  0
 21 19  1  0  0  0  0
 23 22  1  0  0  0  0
 24 25  1  0  0  0  0
 26 32  1  0  0  0  0
 27 26  2  0  0  0  0
 28 31  2  0  0  0  0
 28 27  1  0  0  0  0
 29 31  1  0  0  0  0
 30 32  2  0  0  0  0
 31 30  1  0  0  0  0
 34 33  1  0  0  0  0
 34 36  1  0  0  0  0
 35 34  2  0  0  0  0
 36 37  1  0  0  0  0
M  END
>  <MODEL>
2

>  <REMARK>
 VINA RESULT:      -6.9      4.422      8.119
  Name = 
  7 active torsions:
  status: ('A' for Active; 'I' for Inactive)
    1  A    between atoms: O_3  and  C_21
    2  A    between atoms: C_6  and  C_31
    3  A    between atoms: C_17  and  C_23
    4  A    between atoms: C_20  and  O_25
    5  A    between atoms: C_21  and  O_25
    6  A    between atoms: C_27  and  C_33
    7  A    between atoms: C_29  and  C_36
                            x       y       z     vdW  Elec       q    Type
                         _______ _______ _______ _____ _____    ______ ____

>  <TORSDO>
F 7

$$$$
=
 OpenBabel11062409063D

 37 41  0  0  1  0  0  0  0  0999 V2000
  161.3000  207.9810  150.9220 C   0  0  0  0  0  0  0  0  0  0  0  0
  161.8260  207.0560  153.0630 O   0  0  0  0  0  0  0  0  0  0  0  0
  161.1920  209.3850  151.4820 C   0  0  2  0  0  3  0  0  0  0  0  0
  161.0470  206.8560  151.9110 C   0  0  2  0  0  3  0  0  0  0  0  0
  161.9000  210.4050  150.5980 C   0  0  0  0  0  2  0  0  0  0  0  0
  161.3550  205.4760  151.3350 C   0  0  0  0  0  2  0  0  0  0  0  0
  161.3150  208.1930  153.7160 C   0  0  2  0  0  3  0  0  0  0  0  0
  161.3840  207.7610  149.5840 C   0  0  0  0  0  0  0  0  0  0  0  0
  160.7590  205.3510  149.9440 C   0  0  0  0  0  2  0  0  0  0  0  0
  161.4370  206.3610  149.0260 C   0  0  0  0  0  2  0  0  0  0  0  0
  161.6960  209.4660  152.9310 C   0  0  2  0  0  3  0  0  0  0  0  0
  161.3720  210.2660  149.1780 C   0  0  2  0  0  3  0  0  0  0  0  0
  161.7020  208.8800  148.6220 C   0  0  0  0  0  2  0  0  0  0  0  0
  159.7470  211.1120  153.1860 C   0  0  0  0  0  2  0  0  0  0  0  0
  158.7010  210.5980  154.1610 C   0  0  0  0  0  2  0  0  0  0  0  0
  159.4630  211.6160  156.3250 N   0  0  0  0  0  0  0  0  0  0  0  0
  158.4670  211.6560  155.2410 C   0  0  2  0  0  3  0  0  0  0  0  0
  160.8040  211.9610  155.8330 C   0  0  0  0  0  2  0  0  0  0  0  0
  161.5020  210.8030  155.0980 C   0  0  1  0  0  3  0  0  0  0  0  0
  159.4620  210.3360  157.0350 C   0  0  0  0  0  1  0  0  0  0  0  0
  161.1890  210.7620  153.5940 C   0  0  1  0  0  3  0  0  0  0  0  0
  163.3370  210.8910  156.7850 C   0  0  0  0  0  1  0  0  0  0  0  0
  163.0060  210.9060  155.3050 C   0  0  0  0  0  2  0  0  0  0  0  0
  156.0380  211.5300  154.6730 C   0  0  0  0  0  1  0  0  0  0  0  0
  157.0510  211.5720  155.8000 C   0  0  0  0  0  2  0  0  0  0  0  0
  163.2360  211.7690  148.4700 C   0  0  0  0  0  3  0  0  0  0  0  0
  161.9140  211.3420  148.2930 C   0  0  0  0  0  0  0  0  0  0  0  0
  161.1250  211.9290  147.2920 C   0  0  0  0  0  3  0  0  0  0  0  0
  160.8160  213.5510  145.4180 C   0  0  0  0  0  1  0  0  0  0  0  0
  162.9760  213.3550  146.6580 C   0  0  0  0  0  3  0  0  0  0  0  0
  161.6560  212.9330  146.4770 C   0  0  0  0  0  0  0  0  0  0  0  0
  163.7650  212.7740  147.6550 C   0  0  0  0  0  3  0  0  0  0  0  0
  161.8420  208.2480  155.0350 O   0  0  0  0  0  0  0  0  0  0  0  0
  161.2680  207.5330  156.0860 C   0  0  0  0  0  0  0  0  0  0  0  0
  161.6850  207.7240  157.2590 O   0  0  0  0  0  0  0  0  0  0  0  0
  160.2390  206.6210  155.8380 O   0  0  0  0  0  0  0  0  0  0  0  0
  158.8760  206.9530  156.0490 C   0  0  0  0  0  1  0  0  0  0  0  0
  1  3  1  0  0  0  0
  1  4  1  0  0  0  0
  2  7  1  0  0  0  0
  3  5  1  6  0  0  0
  3 11  1  0  0  0  0
  4  6  1  6  0  0  0
  4  2  1  0  0  0  0
  7 33  1  1  0  0  0
  8  1  2  0  0  0  0
  9  6  1  0  0  0  0
 10  8  1  0  0  0  0
 10  9  1  0  0  0  0
 11 21  1  1  0  0  0
 11  7  1  0  0  0  0
 12 27  1  6  0  0  0
 12  5  1  0  0  0  0
 13 12  1  0  0  0  0
 13  8  1  0  0  0  0
 14 15  1  0  0  0  0
 15 17  1  0  0  0  0
 16 20  1  0  0  0  0
 17 25  1  1  0  0  0
 17 16  1  0  0  0  0
 18 16  1  0  0  0  0
 19 23  1  6  0  0  0
 19 18  1  0  0  0  0
 21 14  1  1  0  0  0
 21 19  1  0  0  0  0
 23 22  1  0  0  0  0
 24 25  1  0  0  0  0
 27 26  1  0  0  0  0
 28 27  2  0  0  0  0
 29 31  1  0  0  0  0
 30 32  1  0  0  0  0
 31 30  2  0  0  0  0
 31 28  1  0  0  0  0
 32 26  2  0  0  0  0
 33 34  1  0  0  0  0
 34 35  2  0  0  0  0
 36 37  1  0  0  0  0
 36 34  1  0  0  0  0
M  END
>  <MODEL>
3

>  <REMARK>
 VINA RESULT:      -6.4      3.483      8.123
  Name = 
  7 active torsions:
  status: ('A' for Active; 'I' for Inactive)
    1  A    between atoms: O_3  and  C_21
    2  A    between atoms: C_6  and  C_31
    3  A    between atoms: C_17  and  C_23
    4  A    between atoms: C_20  and  O_25
    5  A    between atoms: C_21  and  O_25
    6  A    between atoms: C_27  and  C_33
    7  A    between atoms: C_29  and  C_36
                            x       y       z     vdW  Elec       q    Type
                         _______ _______ _______ _____ _____    ______ ____

>  <TORSDO>
F 7

$$$$
=
 OpenBabel11062409063D

 37 41  0  0  1  0  0  0  0  0999 V2000
  161.4020  210.3880  150.2230 C   0  0  0  0  0  0  0  0  0  0  0  0
  160.2700  212.3000  151.1040 O   0  0  0  0  0  0  0  0  0  0  0  0
  161.2440  209.6150  151.5160 C   0  0  2  0  0  3  0  0  0  0  0  0
  161.3880  211.9010  150.3530 C   0  0  2  0  0  3  0  0  0  0  0  0
  160.8000  208.1780  151.2690 C   0  0  0  0  0  2  0  0  0  0  0  0
  161.3620  212.6150  149.0040 C   0  0  0  0  0  2  0  0  0  0  0  0
  160.4780  211.8550  152.4230 C   0  0  2  0  0  3  0  0  0  0  0  0
  161.7660  209.7660  149.0700 C   0  0  0  0  0  0  0  0  0  0  0  0
  162.3790  211.9890  148.0670 C   0  0  0  0  0  2  0  0  0  0  0  0
  161.9760  210.5440  147.7970 C   0  0  0  0  0  2  0  0  0  0  0  0
  160.2970  210.3240  152.4970 C   0  0  2  0  0  3  0  0  0  0  0  0
  161.7640  207.5360  150.2820 C   0  0  2  0  0  3  0  0  0  0  0  0
  161.7100  208.2620  148.9380 C   0  0  0  0  0  2  0  0  0  0  0  0
  161.9640  209.4740  154.2480 C   0  0  0  0  0  2  0  0  0  0  0  0
  162.6540  210.6190  154.9720 C   0  0  0  0  0  2  0  0  0  0  0  0
  161.1680  210.9440  156.9670 N   0  0  0  0  0  0  0  0  0  0  0  0
  162.4630  210.4420  156.4790 C   0  0  2  0  0  3  0  0  0  0  0  0
  160.0490  210.1670  156.4150 C   0  0  0  0  0  2  0  0  0  0  0  0
  159.6940  210.5500  154.9680 C   0  0  1  0  0  3  0  0  0  0  0  0
  160.9990  212.3780  156.7250 C   0  0  0  0  0  1  0  0  0  0  0  0
  160.4890  209.7580  153.9180 C   0  0  1  0  0  3  0  0  0  0  0  0
  157.4020  211.2750  155.6350 C   0  0  0  0  0  1  0  0  0  0  0  0
  158.2030  210.3460  154.7420 C   0  0  0  0  0  2  0  0  0  0  0  0
  164.6820  211.5760  156.3120 C   0  0  0  0  0  1  0  0  0  0  0  0
  163.6160  211.0620  157.2590 C   0  0  0  0  0  2  0  0  0  0  0  0
  161.0910  205.3280  151.2340 C   0  0  0  0  0  3  0  0  0  0  0  0
  161.4740  206.0790  150.1160 C   0  0  0  0  0  0  0  0  0  0  0  0
  161.5750  205.4530  148.8640 C   0  0  0  0  0  3  0  0  0  0  0  0
  161.4070  203.4320  147.4060 C   0  0  0  0  0  1  0  0  0  0  0  0
  160.9170  203.3450  149.8550 C   0  0  0  0  0  3  0  0  0  0  0  0
  161.2980  204.0900  148.7350 C   0  0  0  0  0  0  0  0  0  0  0  0
  160.8140  203.9640  151.1040 C   0  0  0  0  0  3  0  0  0  0  0  0
  159.5530  212.5050  153.2840 O   0  0  0  0  0  0  0  0  0  0  0  0
  158.9480  213.7120  152.9360 C   0  0  0  0  0  0  0  0  0  0  0  0
  159.4710  214.4260  152.0390 O   0  0  0  0  0  0  0  0  0  0  0  0
  157.7720  214.1200  153.5710 O   0  0  0  0  0  0  0  0  0  0  0  0
  156.4910  213.8380  153.0300 C   0  0  0  0  0  1  0  0  0  0  0  0
  1  4  1  0  0  0  0
  1  3  1  0  0  0  0
  2  7  1  0  0  0  0
  3  5  1  6  0  0  0
  3 11  1  0  0  0  0
  4  6  1  6  0  0  0
  4  2  1  0  0  0  0
  7 11  1  0  0  0  0
  7 33  1  1  0  0  0
  8  1  2  0  0  0  0
  9  6  1  0  0  0  0
 10  9  1  0  0  0  0
 10  8  1  0  0  0  0
 11 21  1  1  0  0  0
 12 27  1  6  0  0  0
 12  5  1  0  0  0  0
 13  8  1  0  0  0  0
 13 12  1  0  0  0  0
 14 15  1  0  0  0  0
 15 17  1  0  0  0  0
 17 16  1  0  0  0  0
 17 25  1  1  0  0  0
 18 16  1  0  0  0  0
 19 23  1  6  0  0  0
 19 18  1  0  0  0  0
 20 16  1  0  0  0  0
 21 14  1  1  0  0  0
 21 19  1  0  0  0  0
 23 22  1  0  0  0  0
 24 25  1  0  0  0  0
 27 26  2  0  0  0  0
 28 27  1  0  0  0  0
 29 31  1  0  0  0  0
 30 32  2  0  0  0  0
 31 28  2  0  0  0  0
 31 30  1  0  0  0  0
 32 26  1  0  0  0  0
 34 33  1  0  0  0  0
 34 36  1  0  0  0  0
 35 34  2  0  0  0  0
 37 36  1  0  0  0  0
M  END
>  <MODEL>
4

>  <REMARK>
 VINA RESULT:      -6.3      3.475      7.998
  Name = 
  7 active torsions:
  status: ('A' for Active; 'I' for Inactive)
    1  A    between atoms: O_3  and  C_21
    2  A    between atoms: C_6  and  C_31
    3  A    between atoms: C_17  and  C_23
    4  A    between atoms: C_20  and  O_25
    5  A    between atoms: C_21  and  O_25
    6  A    between atoms: C_27  and  C_33
    7  A    between atoms: C_29  and  C_36
                            x       y       z     vdW  Elec       q    Type
                         _______ _______ _______ _____ _____    ______ ____

>  <TORSDO>
F 7

$$$$
=
 OpenBabel11062409063D

 37 41  0  0  1  0  0  0  0  0999 V2000
  161.0200  208.7590  153.1330 C   0  0  0  0  0  0  0  0  0  0  0  0
  161.2060  207.7970  150.9520 O   0  0  0  0  0  0  0  0  0  0  0  0
  161.1100  210.1700  152.5900 C   0  0  2  0  0  3  0  0  0  0  0  0
  161.6620  207.6810  152.2760 C   0  0  2  0  0  3  0  0  0  0  0  0
  160.0740  211.0910  153.2260 C   0  0  0  0  0  2  0  0  0  0  0  0
  161.3750  206.2690  152.7790 C   0  0  0  0  0  2  0  0  0  0  0  0
  161.7380  208.9930  150.4340 C   0  0  2  0  0  3  0  0  0  0  0  0
  160.6040  208.5170  154.4040 C   0  0  0  0  0  0  0  0  0  0  0  0
  161.5810  206.2030  154.2820 C   0  0  0  0  0  2  0  0  0  0  0  0
  160.5660  207.1160  154.9590 C   0  0  0  0  0  2  0  0  0  0  0  0
  161.0120  210.2050  151.0570 C   0  0  2  0  0  3  0  0  0  0  0  0
  160.2110  211.0020  154.7390 C   0  0  2  0  0  3  0  0  0  0  0  0
  159.9070  209.5820  155.2180 C   0  0  0  0  0  2  0  0  0  0  0  0
  162.6050  211.3990  149.4440 C   0  0  0  0  0  2  0  0  0  0  0  0
  162.0530  211.4300  148.0280 C   0  0  0  0  0  2  0  0  0  0  0  0
  160.8360  213.6250  147.9920 N   0  0  0  0  0  0  0  0  0  0  0  0
  162.0210  212.8790  147.5380 C   0  0  2  0  0  3  0  0  0  0  0  0
  160.8310  213.7860  149.4530 C   0  0  0  0  0  2  0  0  0  0  0  0
  160.3730  212.5260  150.2060 C   0  0  1  0  0  3  0  0  0  0  0  0
  159.5870  213.0310  147.5120 C   0  0  0  0  0  1  0  0  0  0  0  0
  161.5240  211.5580  150.5260 C   0  0  1  0  0  3  0  0  0  0  0  0
  158.2690  213.4260  151.1990 C   0  0  0  0  0  1  0  0  0  0  0  0
  159.6730  212.9320  151.4950 C   0  0  0  0  0  2  0  0  0  0  0  0
  162.3360  214.3930  145.5760 C   0  0  0  0  0  1  0  0  0  0  0  0
  162.1640  212.9540  146.0220 C   0  0  0  0  0  2  0  0  0  0  0  0
  159.8380  212.7520  156.4800 C   0  0  0  0  0  3  0  0  0  0  0  0
  159.3260  211.9970  155.4180 C   0  0  0  0  0  0  0  0  0  0  0  0
  157.9970  212.1890  155.0100 C   0  0  0  0  0  3  0  0  0  0  0  0
  155.7830  213.3260  155.2250 C   0  0  0  0  0  1  0  0  0  0  0  0
  157.7070  213.8780  156.7200 C   0  0  0  0  0  3  0  0  0  0  0  0
  157.1910  213.1270  155.6610 C   0  0  0  0  0  0  0  0  0  0  0  0
  159.0300  213.6900  157.1300 C   0  0  0  0  0  3  0  0  0  0  0  0
  161.5850  208.9970  149.0220 O   0  0  0  0  0  0  0  0  0  0  0  0
  161.8500  207.8650  148.2510 C   0  0  0  0  0  0  0  0  0  0  0  0
  163.0160  207.3880  148.2400 O   0  0  0  0  0  0  0  0  0  0  0  0
  160.8310  207.2670  147.5050 O   0  0  0  0  0  0  0  0  0  0  0  0
  161.0430  206.0730  146.7690 C   0  0  0  0  0  1  0  0  0  0  0  0
  1  8  2  0  0  0  0
  2  4  1  0  0  0  0
  3  1  1  0  0  0  0
  3  5  1  1  0  0  0
  4  6  1  1  0  0  0
  4  1  1  0  0  0  0
  5 12  1  0  0  0  0
  6  9  1  0  0  0  0
  7 33  1  6  0  0  0
  7  2  1  0  0  0  0
  7 11  1  0  0  0  0
  8 10  1  0  0  0  0
  8 13  1  0  0  0  0
  9 10  1  0  0  0  0
 11 21  1  6  0  0  0
 11  3  1  0  0  0  0
 12 13  1  0  0  0  0
 12 27  1  1  0  0  0
 15 14  1  0  0  0  0
 16 18  1  0  0  0  0
 17 25  1  6  0  0  0
 17 16  1  0  0  0  0
 17 15  1  0  0  0  0
 18 19  1  0  0  0  0
 19 21  1  0  0  0  0
 19 23  1  1  0  0  0
 20 16  1  0  0  0  0
 21 14  1  6  0  0  0
 22 23  1  0  0  0  0
 24 25  1  0  0  0  0
 26 32  1  0  0  0  0
 27 26  2  0  0  0  0
 28 27  1  0  0  0  0
 28 31  2  0  0  0  0
 29 31  1  0  0  0  0
 30 32  2  0  0  0  0
 31 30  1  0  0  0  0
 34 33  1  0  0  0  0
 35 34  2  0  0  0  0
 36 34  1  0  0  0  0
 37 36  1  0  0  0  0
M  END
>  <MODEL>
5

>  <REMARK>
 VINA RESULT:      -5.7      3.277      6.765
  Name = 
  7 active torsions:
  status: ('A' for Active; 'I' for Inactive)
    1  A    between atoms: O_3  and  C_21
    2  A    between atoms: C_6  and  C_31
    3  A    between atoms: C_17  and  C_23
    4  A    between atoms: C_20  and  O_25
    5  A    between atoms: C_21  and  O_25
    6  A    between atoms: C_27  and  C_33
    7  A    between atoms: C_29  and  C_36
                            x       y       z     vdW  Elec       q    Type
                         _______ _______ _______ _____ _____    ______ ____

>  <TORSDO>
F 7

$$$$
=
 OpenBabel11062409063D

 37 41  0  0  1  0  0  0  0  0999 V2000
  161.2620  205.2060  151.1730 C   0  0  0  0  0  0  0  0  0  0  0  0
  160.7130  205.3270  148.8490 O   0  0  0  0  0  0  0  0  0  0  0  0
  161.7150  206.6510  151.2090 C   0  0  2  0  0  3  0  0  0  0  0  0
  161.3390  204.5240  149.8170 C   0  0  2  0  0  3  0  0  0  0  0  0
  161.1790  207.3850  152.4330 C   0  0  0  0  0  2  0  0  0  0  0  0
  160.6960  203.1400  149.8080 C   0  0  0  0  0  2  0  0  0  0  0  0
  161.5080  206.4770  148.6880 C   0  0  2  0  0  3  0  0  0  0  0  0
  161.0290  204.5110  152.3180 C   0  0  0  0  0  0  0  0  0  0  0  0
  161.1420  202.3550  151.0300 C   0  0  0  0  0  2  0  0  0  0  0  0
  160.6310  203.0580  152.2810 C   0  0  0  0  0  2  0  0  0  0  0  0
  161.3540  207.3990  149.9160 C   0  0  2  0  0  3  0  0  0  0  0  0
  161.5540  206.5900  153.6760 C   0  0  2  0  0  3  0  0  0  0  0  0
  160.8890  205.2140  153.6470 C   0  0  0  0  0  2  0  0  0  0  0  0
  162.5460  209.0470  148.3570 C   0  0  0  0  0  2  0  0  0  0  0  0
  161.5690  210.0110  147.7030 C   0  0  0  0  0  2  0  0  0  0  0  0
  161.6000  211.9470  149.2990 N   0  0  0  0  0  0  0  0  0  0  0  0
  162.0220  211.4450  147.9810 C   0  0  2  0  0  3  0  0  0  0  0  0
  162.2400  211.1970  150.3890 C   0  0  0  0  0  2  0  0  0  0  0  0
  161.5860  209.8320  150.6580 C   0  0  1  0  0  3  0  0  0  0  0  0
  160.1430  211.9710  149.4450 C   0  0  0  0  0  1  0  0  0  0  0  0
  162.1800  208.6960  149.8090 C   0  0  1  0  0  3  0  0  0  0  0  0
  161.2140  210.6370  152.9900 C   0  0  0  0  0  1  0  0  0  0  0  0
  161.7190  209.4890  152.1350 C   0  0  0  0  0  2  0  0  0  0  0  0
  162.1820  213.7670  147.0740 C   0  0  0  0  0  1  0  0  0  0  0  0
  161.5800  212.3900  146.8700 C   0  0  0  0  0  2  0  0  0  0  0  0
  160.0540  206.9510  155.6390 C   0  0  0  0  0  3  0  0  0  0  0  0
  161.1920  207.3350  154.9200 C   0  0  0  0  0  0  0  0  0  0  0  0
  161.9710  208.4090  155.3800 C   0  0  0  0  0  3  0  0  0  0  0  0
  162.4410  210.2250  157.0290 C   0  0  0  0  0  1  0  0  0  0  0  0
  160.4750  208.7010  157.2600 C   0  0  0  0  0  3  0  0  0  0  0  0
  161.6120  209.0890  156.5470 C   0  0  0  0  0  0  0  0  0  0  0  0
  159.6960  207.6320  156.8060 C   0  0  0  0  0  3  0  0  0  0  0  0
  161.1090  207.1560  147.5050 O   0  0  0  0  0  0  0  0  0  0  0  0
  161.1180  206.5300  146.2590 C   0  0  0  0  0  0  0  0  0  0  0  0
  160.0770  206.5570  145.5500 O   0  0  0  0  0  0  0  0  0  0  0  0
  162.2710  205.8870  145.8030 O   0  0  0  0  0  0  0  0  0  0  0  0
  162.3140  204.4840  145.5950 C   0  0  0  0  0  1  0  0  0  0  0  0
  1  3  1  0  0  0  0
  1  8  2  0  0  0  0
  2  4  1  0  0  0  0
  3  5  1  1  0  0  0
  4  6  1  1  0  0  0
  4  1  1  0  0  0  0
  5 12  1  0  0  0  0
  6  9  1  0  0  0  0
  7 33  1  6  0  0  0
  7  2  1  0  0  0  0
  7 11  1  0  0  0  0
  8 13  1  0  0  0  0
  9 10  1  0  0  0  0
 10  8  1  0  0  0  0
 11 21  1  6  0  0  0
 11  3  1  0  0  0  0
 12 27  1  1  0  0  0
 13 12  1  0  0  0  0
 15 17  1  0  0  0  0
 15 14  1  0  0  0  0
 16 20  1  0  0  0  0
 16 18  1  0  0  0  0
 17 25  1  6  0  0  0
 17 16  1  0  0  0  0
 18 19  1  0  0  0  0
 19 23  1  1  0  0  0
 21 14  1  6  0  0  0
 21 19  1  0  0  0  0
 23 22  1  0  0  0  0
 25 24  1  0  0  0  0
 26 32  1  0  0  0  0
 27 28  1  0  0  0  0
 27 26  2  0  0  0  0
 28 31  2  0  0  0  0
 31 29  1  0  0  0  0
 31 30  1  0  0  0  0
 32 30  2  0  0  0  0
 34 33  1  0  0  0  0
 35 34  2  0  0  0  0
 36 34  1  0  0  0  0
 37 36  1  0  0  0  0
M  END
>  <MODEL>
6

>  <REMARK>
 VINA RESULT:      -5.2      2.059      5.732
  Name = 
  7 active torsions:
  status: ('A' for Active; 'I' for Inactive)
    1  A    between atoms: O_3  and  C_21
    2  A    between atoms: C_6  and  C_31
    3  A    between atoms: C_17  and  C_23
    4  A    between atoms: C_20  and  O_25
    5  A    between atoms: C_21  and  O_25
    6  A    between atoms: C_27  and  C_33
    7  A    between atoms: C_29  and  C_36
                            x       y       z     vdW  Elec       q    Type
                         _______ _______ _______ _____ _____    ______ ____

>  <TORSDO>
F 7

$$$$
=
 OpenBabel11062409063D

 37 41  0  0  1  0  0  0  0  0999 V2000
  159.4430  212.3960  153.7710 C   0  0  0  0  0  0  0  0  0  0  0  0
  158.9810  210.5170  155.1760 O   0  0  0  0  0  0  0  0  0  0  0  0
  160.3430  211.5810  152.8650 C   0  0  2  0  0  3  0  0  0  0  0  0
  159.3040  211.8840  155.1950 C   0  0  2  0  0  3  0  0  0  0  0  0
  160.0670  211.8590  151.3910 C   0  0  0  0  0  2  0  0  0  0  0  0
  158.2450  212.6340  155.9980 C   0  0  0  0  0  2  0  0  0  0  0  0
  160.1090  209.8320  154.6850 C   0  0  2  0  0  3  0  0  0  0  0  0
  158.9890  213.6210  153.3970 C   0  0  0  0  0  0  0  0  0  0  0  0
  158.4010  214.1310  155.7890 C   0  0  0  0  0  2  0  0  0  0  0  0
  158.1390  214.4530  154.3230 C   0  0  0  0  0  2  0  0  0  0  0  0
  160.2550  210.0770  153.1680 C   0  0  2  0  0  3  0  0  0  0  0  0
  160.1530  213.3600  151.1570 C   0  0  2  0  0  3  0  0  0  0  0  0
  159.0760  214.0860  151.9630 C   0  0  0  0  0  2  0  0  0  0  0  0
  161.8420  208.0710  153.3230 C   0  0  0  0  0  2  0  0  0  0  0  0
  161.2080  206.8080  152.7630 C   0  0  0  0  0  2  0  0  0  0  0  0
  161.9720  206.8580  150.3730 N   0  0  0  0  0  0  0  0  0  0  0  0
  162.1290  206.2220  151.6920 C   0  0  2  0  0  3  0  0  0  0  0  0
  162.3850  208.2690  150.4060 C   0  0  0  0  0  2  0  0  0  0  0  0
  161.3280  209.2000  151.0230 C   0  0  1  0  0  3  0  0  0  0  0  0
  160.6180  206.7050  149.8390 C   0  0  0  0  0  1  0  0  0  0  0  0
  161.4600  209.3430  152.5480 C   0  0  1  0  0  3  0  0  0  0  0  0
  161.9850  210.4520  148.9680 C   0  0  0  0  0  1  0  0  0  0  0  0
  161.4190  210.5720  150.3710 C   0  0  0  0  0  2  0  0  0  0  0  0
  160.8040  204.2420  152.4410 C   0  0  0  0  0  1  0  0  0  0  0  0
  161.9680  204.7100  151.5890 C   0  0  0  0  0  2  0  0  0  0  0  0
  158.7770  213.7660  149.1130 C   0  0  0  0  0  3  0  0  0  0  0  0
  160.0450  213.6850  149.7020 C   0  0  0  0  0  0  0  0  0  0  0  0
  161.1880  213.9110  148.9190 C   0  0  0  0  0  3  0  0  0  0  0  0
  162.2740  214.4520  146.7360 C   0  0  0  0  0  1  0  0  0  0  0  0
  159.7920  214.2930  146.9780 C   0  0  0  0  0  3  0  0  0  0  0  0
  161.0600  214.2140  147.5610 C   0  0  0  0  0  0  0  0  0  0  0  0
  158.6510  214.0690  147.7540 C   0  0  0  0  0  3  0  0  0  0  0  0
  159.9620  208.4440  154.9500 O   0  0  0  0  0  0  0  0  0  0  0  0
  159.9720  207.9390  156.2500 C   0  0  0  0  0  0  0  0  0  0  0  0
  159.3380  206.8800  156.5030 O   0  0  0  0  0  0  0  0  0  0  0  0
  160.6820  208.5980  157.2560 O   0  0  0  0  0  0  0  0  0  0  0  0
  162.0730  208.8540  157.1470 C   0  0  0  0  0  1  0  0  0  0  0  0
  1  4  1  0  0  0  0
  2  4  1  0  0  0  0
  3  5  1  6  0  0  0
  3 11  1  0  0  0  0
  3  1  1  0  0  0  0
  4  6  1  6  0  0  0
  7 33  1  6  0  0  0
  7  2  1  0  0  0  0
  8  1  2  0  0  0  0
  8 10  1  0  0  0  0
  9  6  1  0  0  0  0
 10  9  1  0  0  0  0
 11 21  1  1  0  0  0
 11  7  1  0  0  0  0
 12 27  1  6  0  0  0
 12  5  1  0  0  0  0
 12 13  1  0  0  0  0
 13  8  1  0  0  0  0
 15 14  1  0  0  0  0
 16 18  1  0  0  0  0
 16 17  1  0  0  0  0
 17 25  1  6  0  0  0
 17 15  1  0  0  0  0
 18 19  1  0  0  0  0
 19 23  1  6  0  0  0
 19 21  1  0  0  0  0
 20 16  1  0  0  0  0
 21 14  1  1  0  0  0
 22 23  1  0  0  0  0
 25 24  1  0  0  0  0
 26 27  1  0  0  0  0
 28 27  2  0  0  0  0
 29 31  1  0  0  0  0
 30 31  2  0  0  0  0
 30 32  1  0  0  0  0
 31 28  1  0  0  0  0
 32 26  2  0  0  0  0
 33 34  1  0  0  0  0
 34 35  2  0  0  0  0
 34 36  1  0  0  0  0
 37 36  1  0  0  0  0
M  END
>  <MODEL>
7

>  <REMARK>
 VINA RESULT:      -4.4      3.807      7.357
  Name = 
  7 active torsions:
  status: ('A' for Active; 'I' for Inactive)
    1  A    between atoms: O_3  and  C_21
    2  A    between atoms: C_6  and  C_31
    3  A    between atoms: C_17  and  C_23
    4  A    between atoms: C_20  and  O_25
    5  A    between atoms: C_21  and  O_25
    6  A    between atoms: C_27  and  C_33
    7  A    between atoms: C_29  and  C_36
                            x       y       z     vdW  Elec       q    Type
                         _______ _______ _______ _____ _____    ______ ____

>  <TORSDO>
F 7

$$$$
=
 OpenBabel11062409063D

 37 41  0  0  1  0  0  0  0  0999 V2000
  161.2700  207.4960  152.3780 C   0  0  0  0  0  0  0  0  0  0  0  0
  160.4560  205.2520  152.2620 O   0  0  0  0  0  0  0  0  0  0  0  0
  161.6880  207.4910  150.9220 C   0  0  2  0  0  3  0  0  0  0  0  0
  161.2090  206.1360  153.0520 C   0  0  2  0  0  3  0  0  0  0  0  0
  161.2780  208.7740  150.2080 C   0  0  0  0  0  2  0  0  0  0  0  0
  160.6040  206.1910  154.4520 C   0  0  0  0  0  2  0  0  0  0  0  0
  161.1980  205.0090  151.0910 C   0  0  2  0  0  3  0  0  0  0  0  0
  161.1880  208.6560  153.0830 C   0  0  0  0  0  0  0  0  0  0  0  0
  161.2060  207.3480  155.2310 C   0  0  0  0  0  2  0  0  0  0  0  0
  160.8250  208.6540  154.5460 C   0  0  0  0  0  2  0  0  0  0  0  0
  161.1630  206.2530  150.1780 C   0  0  2  0  0  3  0  0  0  0  0  0
  161.8130  209.9600  150.9980 C   0  0  2  0  0  3  0  0  0  0  0  0
  161.1840  209.9970  152.3910 C   0  0  0  0  0  2  0  0  0  0  0  0
  162.1960  204.5800  148.5340 C   0  0  0  0  0  2  0  0  0  0  0  0
  161.1480  203.9710  147.6180 C   0  0  0  0  0  2  0  0  0  0  0  0
  161.2220  205.5160  145.6420 N   0  0  0  0  0  0  0  0  0  0  0  0
  161.5730  204.1850  146.1650 C   0  0  2  0  0  3  0  0  0  0  0  0
  161.9570  206.5780  146.3440 C   0  0  0  0  0  2  0  0  0  0  0  0
  161.3660  206.9220  147.7220 C   0  0  1  0  0  3  0  0  0  0  0  0
  159.7780  205.7580  145.6590 C   0  0  0  0  0  1  0  0  0  0  0  0
  161.9380  206.0610  148.8600 C   0  0  1  0  0  3  0  0  0  0  0  0
  163.0800  208.7260  147.8860 C   0  0  0  0  0  1  0  0  0  0  0  0
  161.6060  208.3940  148.0230 C   0  0  0  0  0  2  0  0  0  0  0  0
  160.8110  201.8090  146.0510 C   0  0  0  0  0  1  0  0  0  0  0  0
  161.0280  203.0850  145.2610 C   0  0  0  0  0  2  0  0  0  0  0  0
  160.6790  212.1760  150.7990 C   0  0  0  0  0  3  0  0  0  0  0  0
  161.5770  211.2420  150.2670 C   0  0  0  0  0  0  0  0  0  0  0  0
  162.2400  211.5280  149.0630 C   0  0  0  0  0  3  0  0  0  0  0  0
  162.7070  213.0310  147.1240 C   0  0  0  0  0  1  0  0  0  0  0  0
  161.1050  213.6620  148.9350 C   0  0  0  0  0  3  0  0  0  0  0  0
  162.0030  212.7350  148.4000 C   0  0  0  0  0  0  0  0  0  0  0  0
  160.4430  213.3820  150.1340 C   0  0  0  0  0  3  0  0  0  0  0  0
  160.6490  203.8850  150.4170 O   0  0  0  0  0  0  0  0  0  0  0  0
  160.8390  202.5840  150.8820 C   0  0  0  0  0  0  0  0  0  0  0  0
  161.4420  202.4030  151.9740 O   0  0  0  0  0  0  0  0  0  0  0  0
  160.3600  201.4960  150.1480 O   0  0  0  0  0  0  0  0  0  0  0  0
  161.2060  200.7280  149.3070 C   0  0  0  0  0  1  0  0  0  0  0  0
  1  4  1  0  0  0  0
  1  8  2  0  0  0  0
  2  4  1  0  0  0  0
  3  5  1  6  0  0  0
  3  1  1  0  0  0  0
  4  6  1  1  0  0  0
  5 12  1  0  0  0  0
  6  9  1  0  0  0  0
  7 33  1  6  0  0  0
  7  2  1  0  0  0  0
  8 10  1  0  0  0  0
 10  9  1  0  0  0  0
 11 21  1  6  0  0  0
 11  3  1  0  0  0  0
 11  7  1  0  0  0  0
 12 27  1  6  0  0  0
 12 13  1  0  0  0  0
 13  8  1  0  0  0  0
 15 14  1  0  0  0  0
 16 20  1  0  0  0  0
 16 17  1  0  0  0  0
 16 18  1  0  0  0  0
 17 25  1  6  0  0  0
 17 15  1  0  0  0  0
 18 19  1  0  0  0  0
 19 23  1  1  0  0  0
 19 21  1  0  0  0  0
 21 14  1  6  0  0  0
 22 23  1  0  0  0  0
 25 24  1  0  0  0  0
 27 26  1  0  0  0  0
 28 27  2  0  0  0  0
 29 31  1  0  0  0  0
 30 32  1  0  0  0  0
 31 30  2  0  0  0  0
 31 28  1  0  0  0  0
 32 26  2  0  0  0  0
 33 34  1  0  0  0  0
 34 35  2  0  0  0  0
 36 34  1  0  0  0  0
 37 36  1  0  0  0  0
M  END
>  <MODEL>
8

>  <REMARK>
 VINA RESULT:      -4.4      2.362      5.518
  Name = 
  7 active torsions:
  status: ('A' for Active; 'I' for Inactive)
    1  A    between atoms: O_3  and  C_21
    2  A    between atoms: C_6  and  C_31
    3  A    between atoms: C_17  and  C_23
    4  A    between atoms: C_20  and  O_25
    5  A    between atoms: C_21  and  O_25
    6  A    between atoms: C_27  and  C_33
    7  A    between atoms: C_29  and  C_36
                            x       y       z     vdW  Elec       q    Type
                         _______ _______ _______ _____ _____    ______ ____

>  <TORSDO>
F 7

$$$$
=
 OpenBabel11062409063D

 37 41  0  0  1  0  0  0  0  0999 V2000
  161.2970  210.7590  150.8870 C   0  0  0  0  0  0  0  0  0  0  0  0
  160.1000  212.7580  151.4260 O   0  0  0  0  0  0  0  0  0  0  0  0
  161.1630  210.2200  152.2970 C   0  0  2  0  0  3  0  0  0  0  0  0
  161.2320  212.2710  150.7500 C   0  0  2  0  0  3  0  0  0  0  0  0
  160.7680  208.7480  152.3080 C   0  0  0  0  0  2  0  0  0  0  0  0
  161.1830  212.7360  149.2980 C   0  0  0  0  0  2  0  0  0  0  0  0
  160.3220  212.5580  152.8020 C   0  0  2  0  0  3  0  0  0  0  0  0
  161.6820  209.9570  149.8600 C   0  0  0  0  0  0  0  0  0  0  0  0
  162.2210  211.9890  148.4790 C   0  0  0  0  0  2  0  0  0  0  0  0
  161.8670  210.5070  148.4680 C   0  0  0  0  0  2  0  0  0  0  0  0
  160.1930  211.0580  153.1430 C   0  0  2  0  0  3  0  0  0  0  0  0
  161.7540  207.9750  151.4430 C   0  0  2  0  0  3  0  0  0  0  0  0
  161.6770  208.4530  149.9930 C   0  0  0  0  0  2  0  0  0  0  0  0
  159.1690  210.1100  155.2930 C   0  0  0  0  0  2  0  0  0  0  0  0
  159.2260  208.5910  155.3210 C   0  0  0  0  0  2  0  0  0  0  0  0
  161.3930  208.1730  156.5130 N   0  0  0  0  0  0  0  0  0  0  0  0
  159.9240  208.1430  156.6050 C   0  0  2  0  0  3  0  0  0  0  0  0
  161.8920  209.5460  156.3460 C   0  0  0  0  0  2  0  0  0  0  0  0
  161.7540  210.0750  154.9090 C   0  0  1  0  0  3  0  0  0  0  0  0
  161.9040  207.2840  155.4690 C   0  0  0  0  0  1  0  0  0  0  0  0
  160.4020  210.7570  154.6400 C   0  0  1  0  0  3  0  0  0  0  0  0
  163.8210  211.1430  155.8080 C   0  0  0  0  0  1  0  0  0  0  0  0
  162.8850  211.0510  154.6180 C   0  0  0  0  0  2  0  0  0  0  0  0
  158.5060  206.1740  156.0120 C   0  0  0  0  0  1  0  0  0  0  0  0
  159.4350  206.7700  157.0520 C   0  0  0  0  0  2  0  0  0  0  0  0
  161.4440  205.9020  152.7990 C   0  0  0  0  0  3  0  0  0  0  0  0
  161.5130  206.5030  151.5370 C   0  0  0  0  0  0  0  0  0  0  0  0
  161.3530  205.7160  150.3850 C   0  0  0  0  0  3  0  0  0  0  0  0
  160.9590  203.5130  149.2770 C   0  0  0  0  0  1  0  0  0  0  0  0
  161.0600  203.7470  151.7620 C   0  0  0  0  0  3  0  0  0  0  0  0
  161.1270  204.3420  150.4990 C   0  0  0  0  0  0  0  0  0  0  0  0
  161.2180  204.5270  152.9120 C   0  0  0  0  0  3  0  0  0  0  0  0
  159.3750  213.3170  153.5400 O   0  0  0  0  0  0  0  0  0  0  0  0
  158.0280  213.3590  153.1830 C   0  0  0  0  0  0  0  0  0  0  0  0
  157.6390  214.2220  152.3510 O   0  0  0  0  0  0  0  0  0  0  0  0
  157.1240  212.4500  153.7370 O   0  0  0  0  0  0  0  0  0  0  0  0
  156.2290  212.8190  154.7740 C   0  0  0  0  0  1  0  0  0  0  0  0
  1  3  1  0  0  0  0
  2  7  1  0  0  0  0
  3  5  1  6  0  0  0
  3 11  1  0  0  0  0
  4  6  1  6  0  0  0
  4  1  1  0  0  0  0
  4  2  1  0  0  0  0
  7 11  1  0  0  0  0
  7 33  1  1  0  0  0
  8 13  1  0  0  0  0
  8  1  2  0  0  0  0
  9  6  1  0  0  0  0
 10  9  1  0  0  0  0
 10  8  1  0  0  0  0
 11 21  1  1  0  0  0
 12 27  1  6  0  0  0
 12  5  1  0  0  0  0
 13 12  1  0  0  0  0
 14 15  1  0  0  0  0
 15 17  1  0  0  0  0
 16 17  1  0  0  0  0
 17 25  1  6  0  0  0
 18 16  1  0  0  0  0
 19 23  1  1  0  0  0
 19 18  1  0  0  0  0
 20 16  1  0  0  0  0
 21 19  1  0  0  0  0
 21 14  1  6  0  0  0
 23 22  1  0  0  0  0
 24 25  1  0  0  0  0
 26 32  1  0  0  0  0
 27 26  2  0  0  0  0
 28 31  2  0  0  0  0
 28 27  1  0  0  0  0
 29 31  1  0  0  0  0
 30 32  2  0  0  0  0
 31 30  1  0  0  0  0
 34 33  1  0  0  0  0
 34 36  1  0  0  0  0
 35 34  2  0  0  0  0
 36 37  1  0  0  0  0
M  END
>  <MODEL>
9

>  <REMARK>
 VINA RESULT:      -4.4      3.379      7.192
  Name = 
  7 active torsions:
  status: ('A' for Active; 'I' for Inactive)
    1  A    between atoms: O_3  and  C_21
    2  A    between atoms: C_6  and  C_31
    3  A    between atoms: C_17  and  C_23
    4  A    between atoms: C_20  and  O_25
    5  A    between atoms: C_21  and  O_25
    6  A    between atoms: C_27  and  C_33
    7  A    between atoms: C_29  and  C_36
                            x       y       z     vdW  Elec       q    Type
                         _______ _______ _______ _____ _____    ______ ____

>  <TORSDO>
F 7

$$$$
