=
 OpenBabel11052422193D

 25 28  0  0  1  0  0  0  0  0999 V2000
  161.0900  209.9070  154.9210 C   0  0  1  0  0  0  0  0  0  0  0  0
  161.6820  208.8300  153.9870 C   0  0  2  0  0  3  0  0  0  0  0  0
  159.6160  208.2450  156.1430 C   0  0  0  0  0  2  0  0  0  0  0  0
  160.9670  211.1800  154.3260 O   0  0  0  0  0  0  0  0  0  0  0  0
  160.1860  212.8330  155.7250 O   0  0  0  0  0  1  0  0  0  0  0  0
  160.6660  207.2030  155.7020 C   0  0  0  0  0  2  0  0  0  0  0  0
  159.8080  211.7750  154.8990 C   0  0  1  0  0  0  0  0  0  0  0  0
  158.9180  212.3030  153.7910 C   0  0  0  0  0  1  0  0  0  0  0  0
  161.2010  206.4400  153.3650 C   0  0  0  0  0  0  0  0  0  0  0  0
  161.0600  205.2340  153.7000 O   0  0  0  0  0  0  0  0  0  0  0  0
  161.4010  209.1010  152.5090 C   0  0  0  0  0  2  0  0  0  0  0  0
  159.6830  209.4800  155.2470 C   0  0  1  0  0  3  0  0  0  0  0  0
  159.0430  210.7380  155.7160 C   0  0  0  0  0  2  0  0  0  0  0  0
  161.2660  206.8030  151.9110 C   0  0  0  0  0  2  0  0  0  0  0  0
  162.0160  208.0440  151.7090 N   0  0  0  0  0  0  0  0  0  0  0  0
  161.1980  207.4800  154.3550 N   0  0  0  0  0  0  0  0  0  0  0  0
  161.9710  210.0240  156.1840 C   0  0  0  0  0  2  0  0  0  0  0  0
  163.2290  210.8390  155.9280 C   0  0  0  0  0  1  0  0  0  0  0  0
  161.8480  208.4090  150.3130 C   0  0  0  0  0  2  0  0  0  0  0  0
  162.2800  207.3630  149.4970 O   0  0  0  0  0  0  0  0  0  0  0  0
  160.8810  205.9670  148.0980 C   0  0  2  0  0  3  0  0  0  0  0  0
  161.9910  206.5800  147.2690 C   0  0  0  0  0  2  0  0  0  0  0  0
  161.3950  207.3710  148.4150 C   0  0  2  0  0  3  0  0  0  0  0  0
  161.1950  203.7910  148.3290 C   0  0  0  0  0  1  0  0  0  0  0  0
  161.4190  205.0120  148.9660 O   0  0  0  0  0  0  0  0  0  0  0  0
  1 12  1  0  0  0  0
  1 17  1  1  0  0  0
  2 11  1  6  0  0  0
  2 16  1  0  0  0  0
  2  1  1  0  0  0  0
  4  7  1  0  0  0  0
  4  1  1  0  0  0  0
  6  3  1  0  0  0  0
  7  8  1  6  0  0  0
  7 13  1  0  0  0  0
  7  5  1  0  0  0  0
  9 10  2  0  0  0  0
  9 16  1  0  0  0  0
 12 13  1  1  0  0  0
 12  3  1  0  0  0  0
 14  9  1  0  0  0  0
 15 14  1  0  0  0  0
 15 11  1  0  0  0  0
 16  6  1  0  0  0  0
 18 17  1  0  0  0  0
 19 15  1  0  0  0  0
 20 19  1  0  0  0  0
 21 23  1  0  0  0  0
 21 25  1  1  0  0  0
 22 21  1  0  0  0  0
 22 23  1  0  0  0  0
 23 20  1  1  0  0  0
 24 25  1  0  0  0  0
M  END
>  <MODEL>
1

>  <REMARK>
 VINA RESULT:      -6.4      0.000      0.000
  Name = 
  5 active torsions:
  status: ('A' for Active; 'I' for Inactive)
    1  A    between atoms: C_1  and  C_17
    2  A    between atoms: C_2  and  O_12
    3  A    between atoms: C_6  and  O_15
    4  A    between atoms: C_6  and  N_23
    5  A    between atoms: O_15  and  C_25
                            x       y       z     vdW  Elec       q    Type
                         _______ _______ _______ _____ _____    ______ ____

>  <TORSDO>
F 5

$$$$
=
 OpenBabel11052422193D

 25 28  0  0  1  0  0  0  0  0999 V2000
  161.1650  210.0990  154.7960 C   0  0  1  0  0  0  0  0  0  0  0  0
  161.7580  209.2120  153.6810 C   0  0  2  0  0  3  0  0  0  0  0  0
  159.6560  208.2540  155.6610 C   0  0  0  0  0  2  0  0  0  0  0  0
  161.0640  211.4640  154.4530 O   0  0  0  0  0  0  0  0  0  0  0  0
  160.2810  212.8300  156.1320 O   0  0  0  0  0  1  0  0  0  0  0  0
  160.7010  207.3020  155.0420 C   0  0  0  0  0  2  0  0  0  0  0  0
  159.9040  211.9540  155.1140 C   0  0  1  0  0  0  0  0  0  0  0  0
  159.0360  212.6950  154.1160 C   0  0  0  0  0  1  0  0  0  0  0  0
  161.2610  206.9910  152.6090 C   0  0  0  0  0  0  0  0  0  0  0  0
  161.1020  205.7450  152.7060 O   0  0  0  0  0  0  0  0  0  0  0  0
  161.5020  209.7630  152.2780 C   0  0  0  0  0  2  0  0  0  0  0  0
  159.7480  209.6360  155.0170 C   0  0  1  0  0  3  0  0  0  0  0  0
  159.1160  210.7910  155.7100 C   0  0  0  0  0  2  0  0  0  0  0  0
  161.3510  207.6230  151.2520 C   0  0  0  0  0  2  0  0  0  0  0  0
  162.1170  208.8690  151.2990 N   0  0  0  0  0  0  0  0  0  0  0  0
  161.2550  207.8220  153.7790 N   0  0  0  0  0  0  0  0  0  0  0  0
  162.0290  209.9610  156.0680 C   0  0  0  0  0  2  0  0  0  0  0  0
  163.2700  210.8380  156.0130 C   0  0  0  0  0  1  0  0  0  0  0  0
  161.9730  209.4960  149.9970 C   0  0  0  0  0  2  0  0  0  0  0  0
  161.7760  210.8690  150.1540 O   0  0  0  0  0  0  0  0  0  0  0  0
  161.6960  212.7880  148.6790 C   0  0  2  0  0  3  0  0  0  0  0  0
  161.2790  211.5410  147.9260 C   0  0  0  0  0  2  0  0  0  0  0  0
  162.3350  211.4390  149.0070 C   0  0  2  0  0  3  0  0  0  0  0  0
  159.7760  213.8670  148.8720 C   0  0  0  0  0  1  0  0  0  0  0  0
  160.7050  213.1280  149.6050 O   0  0  0  0  0  0  0  0  0  0  0  0
  1 12  1  0  0  0  0
  1 17  1  1  0  0  0
  2 11  1  6  0  0  0
  2 16  1  0  0  0  0
  2  1  1  0  0  0  0
  4  1  1  0  0  0  0
  4  7  1  0  0  0  0
  6  3  1  0  0  0  0
  7  8  1  6  0  0  0
  7 13  1  0  0  0  0
  7  5  1  0  0  0  0
  9 10  2  0  0  0  0
  9 16  1  0  0  0  0
 12  3  1  1  0  0  0
 12 13  1  0  0  0  0
 14 15  1  0  0  0  0
 14  9  1  0  0  0  0
 15 11  1  0  0  0  0
 16  6  1  0  0  0  0
 18 17  1  0  0  0  0
 19 20  1  0  0  0  0
 19 15  1  0  0  0  0
 21 23  1  0  0  0  0
 21 25  1  1  0  0  0
 22 21  1  0  0  0  0
 22 23  1  0  0  0  0
 23 20  1  1  0  0  0
 24 25  1  0  0  0  0
M  END
>  <MODEL>
2

>  <REMARK>
 VINA RESULT:      -5.4      2.219      3.362
  Name = 
  5 active torsions:
  status: ('A' for Active; 'I' for Inactive)
    1  A    between atoms: C_1  and  C_17
    2  A    between atoms: C_2  and  O_12
    3  A    between atoms: C_6  and  O_15
    4  A    between atoms: C_6  and  N_23
    5  A    between atoms: O_15  and  C_25
                            x       y       z     vdW  Elec       q    Type
                         _______ _______ _______ _____ _____    ______ ____

>  <TORSDO>
F 5

$$$$
=
 OpenBabel11052422193D

 25 28  0  0  1  0  0  0  0  0999 V2000
  160.9790  210.1230  153.9270 C   0  0  1  0  0  0  0  0  0  0  0  0
  161.5530  208.9360  153.1270 C   0  0  2  0  0  3  0  0  0  0  0  0
  159.9780  208.6260  155.7110 C   0  0  0  0  0  2  0  0  0  0  0  0
  160.5800  211.2160  153.1290 O   0  0  0  0  0  0  0  0  0  0  0  0
  159.8170  213.0450  154.2990 O   0  0  0  0  0  1  0  0  0  0  0  0
  161.0770  207.6270  155.2900 C   0  0  0  0  0  2  0  0  0  0  0  0
  159.4600  211.7990  153.7850 C   0  0  1  0  0  0  0  0  0  0  0  0
  158.3330  211.9770  152.7860 C   0  0  0  0  0  1  0  0  0  0  0  0
  161.3190  206.4310  153.0900 C   0  0  0  0  0  0  0  0  0  0  0  0
  161.4070  205.3200  153.6750 O   0  0  0  0  0  0  0  0  0  0  0  0
  160.9950  208.8460  151.7060 C   0  0  0  0  0  2  0  0  0  0  0  0
  159.7200  209.6350  154.5940 C   0  0  1  0  0  3  0  0  0  0  0  0
  158.9960  210.8930  154.9210 C   0  0  0  0  0  2  0  0  0  0  0  0
  161.0890  206.4720  151.6080 C   0  0  0  0  0  2  0  0  0  0  0  0
  161.6120  207.7090  151.0260 N   0  0  0  0  0  0  0  0  0  0  0  0
  161.3330  207.6560  153.8390 N   0  0  0  0  0  0  0  0  0  0  0  0
  162.0320  210.6040  154.9490 C   0  0  0  0  0  2  0  0  0  0  0  0
  161.3940  211.0690  156.2490 C   0  0  0  0  0  1  0  0  0  0  0  0
  161.1650  207.7410  149.6450 C   0  0  0  0  0  2  0  0  0  0  0  0
  161.7550  206.6940  148.9340 O   0  0  0  0  0  0  0  0  0  0  0  0
  161.2130  205.0750  147.2180 C   0  0  2  0  0  3  0  0  0  0  0  0
  160.8920  206.4720  146.7280 C   0  0  0  0  0  2  0  0  0  0  0  0
  160.7090  206.1370  148.1940 C   0  0  2  0  0  3  0  0  0  0  0  0
  163.0190  204.7930  145.9750 C   0  0  0  0  0  1  0  0  0  0  0  0
  162.6000  204.9150  147.3000 O   0  0  0  0  0  0  0  0  0  0  0  0
  1 12  1  0  0  0  0
  1 17  1  1  0  0  0
  2 11  1  6  0  0  0
  2 16  1  0  0  0  0
  2  1  1  0  0  0  0
  4  7  1  0  0  0  0
  4  1  1  0  0  0  0
  6  3  1  0  0  0  0
  7  8  1  6  0  0  0
  7  5  1  0  0  0  0
  7 13  1  0  0  0  0
  9 10  2  0  0  0  0
  9 16  1  0  0  0  0
 12 13  1  1  0  0  0
 12  3  1  0  0  0  0
 14  9  1  0  0  0  0
 15 14  1  0  0  0  0
 15 11  1  0  0  0  0
 16  6  1  0  0  0  0
 17 18  1  0  0  0  0
 19 15  1  0  0  0  0
 20 19  1  0  0  0  0
 21 25  1  1  0  0  0
 21 23  1  0  0  0  0
 22 21  1  0  0  0  0
 22 23  1  0  0  0  0
 23 20  1  1  0  0  0
 24 25  1  0  0  0  0
M  END
>  <MODEL>
3

>  <REMARK>
 VINA RESULT:      -4.4      1.101      1.265
  Name = 
  5 active torsions:
  status: ('A' for Active; 'I' for Inactive)
    1  A    between atoms: C_1  and  C_17
    2  A    between atoms: C_2  and  O_12
    3  A    between atoms: C_6  and  O_15
    4  A    between atoms: C_6  and  N_23
    5  A    between atoms: O_15  and  C_25
                            x       y       z     vdW  Elec       q    Type
                         _______ _______ _______ _____ _____    ______ ____

>  <TORSDO>
F 5

$$$$
=
 OpenBabel11052422193D

 25 28  0  0  1  0  0  0  0  0999 V2000
  161.0910  213.0950  148.1100 C   0  0  1  0  0  0  0  0  0  0  0  0
  161.7210  212.0230  149.0230 C   0  0  2  0  0  3  0  0  0  0  0  0
  159.3380  213.7350  149.8270 C   0  0  0  0  0  2  0  0  0  0  0  0
  161.1500  212.7870  146.7350 O   0  0  0  0  0  0  0  0  0  0  0  0
  160.3120  214.4140  145.3390 O   0  0  0  0  0  1  0  0  0  0  0  0
  160.3560  213.2020  150.8580 C   0  0  0  0  0  2  0  0  0  0  0  0
  159.9720  213.3350  146.1550 C   0  0  1  0  0  0  0  0  0  0  0  0
  159.2880  212.2740  145.3160 C   0  0  0  0  0  1  0  0  0  0  0  0
  161.1500  210.8350  151.1660 C   0  0  0  0  0  0  0  0  0  0  0  0
  160.8710  210.8750  152.3930 O   0  0  0  0  0  0  0  0  0  0  0  0
  161.6700  210.6190  148.4210 C   0  0  0  0  0  2  0  0  0  0  0  0
  159.6230  213.1490  148.4450 C   0  0  1  0  0  3  0  0  0  0  0  0
  159.0240  213.8060  147.2530 C   0  0  0  0  0  2  0  0  0  0  0  0
  161.4430  209.5150  150.5150 C   0  0  0  0  0  2  0  0  0  0  0  0
  162.3070  209.6840  149.3460 N   0  0  0  0  0  0  0  0  0  0  0  0
  161.0890  212.0230  150.3630 N   0  0  0  0  0  0  0  0  0  0  0  0
  161.7940  214.4480  148.3540 C   0  0  0  0  0  2  0  0  0  0  0  0
  163.2190  214.4530  147.8240 C   0  0  0  0  0  1  0  0  0  0  0  0
  162.3630  208.3940  148.6800 C   0  0  0  0  0  2  0  0  0  0  0  0
  161.3090  207.5910  149.1190 O   0  0  0  0  0  0  0  0  0  0  0  0
  160.7850  205.3840  148.2720 C   0  0  2  0  0  3  0  0  0  0  0  0
  162.0150  205.9270  147.5720 C   0  0  0  0  0  2  0  0  0  0  0  0
  160.9110  206.8800  147.9830 C   0  0  2  0  0  3  0  0  0  0  0  0
  161.0550  203.6940  149.6700 C   0  0  0  0  0  1  0  0  0  0  0  0
  161.0980  205.0860  149.6020 O   0  0  0  0  0  0  0  0  0  0  0  0
  1 17  1  1  0  0  0
  1 12  1  0  0  0  0
  1  2  1  0  0  0  0
  2 11  1  6  0  0  0
  2 16  1  0  0  0  0
  3  6  1  0  0  0  0
  4  1  1  0  0  0  0
  5  7  1  0  0  0  0
  7  8  1  6  0  0  0
  7  4  1  0  0  0  0
  7 13  1  0  0  0  0
  9 10  2  0  0  0  0
 11 15  1  0  0  0  0
 12 13  1  6  0  0  0
 12  3  1  0  0  0  0
 14  9  1  0  0  0  0
 15 14  1  0  0  0  0
 16  6  1  0  0  0  0
 16  9  1  0  0  0  0
 18 17  1  0  0  0  0
 19 20  1  0  0  0  0
 19 15  1  0  0  0  0
 21 25  1  1  0  0  0
 22 23  1  0  0  0  0
 22 21  1  0  0  0  0
 23 21  1  0  0  0  0
 23 20  1  1  0  0  0
 25 24  1  0  0  0  0
M  END
>  <MODEL>
4

>  <REMARK>
 VINA RESULT:      -4.4      4.354      6.267
  Name = 
  5 active torsions:
  status: ('A' for Active; 'I' for Inactive)
    1  A    between atoms: C_1  and  C_17
    2  A    between atoms: C_2  and  O_12
    3  A    between atoms: C_6  and  O_15
    4  A    between atoms: C_6  and  N_23
    5  A    between atoms: O_15  and  C_25
                            x       y       z     vdW  Elec       q    Type
                         _______ _______ _______ _____ _____    ______ ____

>  <TORSDO>
F 5

$$$$
=
 OpenBabel11052422193D

 25 28  0  0  1  0  0  0  0  0999 V2000
  160.5630  210.7730  154.8200 C   0  0  1  0  0  0  0  0  0  0  0  0
  161.0690  209.3180  154.9090 C   0  0  2  0  0  3  0  0  0  0  0  0
  159.0490  210.5240  156.8370 C   0  0  0  0  0  2  0  0  0  0  0  0
  160.4850  211.2760  153.5040 O   0  0  0  0  0  0  0  0  0  0  0  0
  159.8340  213.4780  153.3440 O   0  0  0  0  0  1  0  0  0  0  0  0
  160.0300  209.4100  157.2600 C   0  0  0  0  0  2  0  0  0  0  0  0
  159.3770  212.1680  153.4850 C   0  0  1  0  0  0  0  0  0  0  0  0
  158.4790  211.8250  152.3130 C   0  0  0  0  0  1  0  0  0  0  0  0
  160.4490  207.2050  156.1250 C   0  0  0  0  0  0  0  0  0  0  0  0
  160.2590  206.5840  157.2040 O   0  0  0  0  0  0  0  0  0  0  0  0
  160.7540  208.4970  153.6570 C   0  0  0  0  0  2  0  0  0  0  0  0
  159.1470  210.7780  155.3340 C   0  0  1  0  0  3  0  0  0  0  0  0
  158.5880  212.0420  154.7850 C   0  0  0  0  0  2  0  0  0  0  0  0
  160.4840  206.4470  154.8310 C   0  0  0  0  0  2  0  0  0  0  0  0
  161.2890  207.1480  153.8290 N   0  0  0  0  0  0  0  0  0  0  0  0
  160.5300  208.6380  156.1090 N   0  0  0  0  0  0  0  0  0  0  0  0
  161.4890  211.6850  155.6530 C   0  0  0  0  0  2  0  0  0  0  0  0
  162.8640  211.0670  155.8580 C   0  0  0  0  0  1  0  0  0  0  0  0
  161.0940  206.4470  152.5730 C   0  0  0  0  0  2  0  0  0  0  0  0
  161.0240  207.3660  151.5250 O   0  0  0  0  0  0  0  0  0  0  0  0
  162.0770  207.7380  149.3770 C   0  0  2  0  0  3  0  0  0  0  0  0
  160.8410  206.8810  149.2030 C   0  0  0  0  0  2  0  0  0  0  0  0
  161.6740  206.7380  150.4600 C   0  0  2  0  0  3  0  0  0  0  0  0
  162.2220  209.8340  148.6900 C   0  0  0  0  0  1  0  0  0  0  0  0
  161.6990  209.0420  149.7130 O   0  0  0  0  0  0  0  0  0  0  0  0
  1  2  1  0  0  0  0
  1 12  1  0  0  0  0
  1 17  1  1  0  0  0
  2 11  1  6  0  0  0
  2 16  1  0  0  0  0
  3  6  1  0  0  0  0
  4  1  1  0  0  0  0
  5  7  1  0  0  0  0
  7  8  1  6  0  0  0
  7  4  1  0  0  0  0
  7 13  1  0  0  0  0
  9 10  2  0  0  0  0
 11 15  1  0  0  0  0
 12 13  1  1  0  0  0
 12  3  1  0  0  0  0
 14  9  1  0  0  0  0
 15 14  1  0  0  0  0
 16  9  1  0  0  0  0
 16  6  1  0  0  0  0
 17 18  1  0  0  0  0
 19 15  1  0  0  0  0
 20 19  1  0  0  0  0
 21 25  1  1  0  0  0
 21 23  1  0  0  0  0
 22 21  1  0  0  0  0
 22 23  1  0  0  0  0
 23 20  1  1  0  0  0
 24 25  1  0  0  0  0
M  END
>  <MODEL>
5

>  <REMARK>
 VINA RESULT:      -4.4      1.688      2.591
  Name = 
  5 active torsions:
  status: ('A' for Active; 'I' for Inactive)
    1  A    between atoms: C_1  and  C_17
    2  A    between atoms: C_2  and  O_12
    3  A    between atoms: C_6  and  O_15
    4  A    between atoms: C_6  and  N_23
    5  A    between atoms: O_15  and  C_25
                            x       y       z     vdW  Elec       q    Type
                         _______ _______ _______ _____ _____    ______ ____

>  <TORSDO>
F 5

$$$$
=
 OpenBabel11052422193D

 25 28  0  0  1  0  0  0  0  0999 V2000
  160.8340  209.4290  153.9560 C   0  0  1  0  0  0  0  0  0  0  0  0
  160.7440  208.5030  152.7250 C   0  0  2  0  0  3  0  0  0  0  0  0
  162.7890  210.7370  153.0110 C   0  0  0  0  0  2  0  0  0  0  0  0
  160.4750  208.8070  155.1710 O   0  0  0  0  0  0  0  0  0  0  0  0
  160.4970  210.1900  157.0110 O   0  0  0  0  0  1  0  0  0  0  0  0
  162.2450  210.2880  151.6380 C   0  0  0  0  0  2  0  0  0  0  0  0
  161.2880  209.4020  156.1750 C   0  0  1  0  0  0  0  0  0  0  0  0
  161.9460  208.3100  156.9970 C   0  0  0  0  0  1  0  0  0  0  0  0
  162.1400  207.9540  150.7050 C   0  0  0  0  0  0  0  0  0  0  0  0
  162.7260  208.3220  149.6520 O   0  0  0  0  0  0  0  0  0  0  0  0
  160.9560  207.0270  153.0690 C   0  0  0  0  0  2  0  0  0  0  0  0
  162.2830  209.8090  154.1140 C   0  0  1  0  0  3  0  0  0  0  0  0
  162.3640  210.2680  155.5270 C   0  0  0  0  0  2  0  0  0  0  0  0
  161.9960  206.4900  151.0000 C   0  0  0  0  0  2  0  0  0  0  0  0
  160.8310  206.2340  151.8480 N   0  0  0  0  0  0  0  0  0  0  0  0
  161.7000  208.9190  151.6730 N   0  0  0  0  0  0  0  0  0  0  0  0
  159.9280  210.6590  153.7330 C   0  0  0  0  0  2  0  0  0  0  0  0
  158.9100  210.4250  152.6280 C   0  0  0  0  0  1  0  0  0  0  0  0
  160.8980  204.8360  152.2360 C   0  0  0  0  0  2  0  0  0  0  0  0
  160.2220  204.0540  151.2990 O   0  0  0  0  0  0  0  0  0  0  0  0
  161.4250  202.8560  149.5730 C   0  0  2  0  0  3  0  0  0  0  0  0
  160.3720  201.9560  150.1860 C   0  0  0  0  0  2  0  0  0  0  0  0
  161.0780  202.9760  151.0560 C   0  0  2  0  0  3  0  0  0  0  0  0
  161.5700  203.9410  147.6520 C   0  0  0  0  0  1  0  0  0  0  0  0
  160.8040  203.8530  148.8140 O   0  0  0  0  0  0  0  0  0  0  0  0
  1 17  1  6  0  0  0
  1 12  1  0  0  0  0
  1  4  1  0  0  0  0
  2 11  1  1  0  0  0
  2  1  1  0  0  0  0
  4  7  1  0  0  0  0
  6 16  1  0  0  0  0
  6  3  1  0  0  0  0
  7  8  1  1  0  0  0
  7  5  1  0  0  0  0
  9 14  1  0  0  0  0
  9 16  1  0  0  0  0
 10  9  2  0  0  0  0
 12  3  1  6  0  0  0
 12 13  1  0  0  0  0
 13  7  1  0  0  0  0
 14 15  1  0  0  0  0
 15 19  1  0  0  0  0
 15 11  1  0  0  0  0
 16  2  1  0  0  0  0
 18 17  1  0  0  0  0
 20 19  1  0  0  0  0
 21 25  1  6  0  0  0
 21 22  1  0  0  0  0
 21 23  1  0  0  0  0
 22 23  1  0  0  0  0
 23 20  1  6  0  0  0
 24 25  1  0  0  0  0
M  END
>  <MODEL>
6

>  <REMARK>
 VINA RESULT:      -3.9      1.832      3.725
  Name = 
  5 active torsions:
  status: ('A' for Active; 'I' for Inactive)
    1  A    between atoms: C_1  and  C_17
    2  A    between atoms: C_2  and  O_12
    3  A    between atoms: C_6  and  O_15
    4  A    between atoms: C_6  and  N_23
    5  A    between atoms: O_15  and  C_25
                            x       y       z     vdW  Elec       q    Type
                         _______ _______ _______ _____ _____    ______ ____

>  <TORSDO>
F 5

$$$$
=
 OpenBabel11052422193D

 25 28  0  0  1  0  0  0  0  0999 V2000
  159.5770  211.9760  154.9610 C   0  0  1  0  0  0  0  0  0  0  0  0
  160.7200  211.0350  154.5260 C   0  0  2  0  0  3  0  0  0  0  0  0
  158.4040  210.1710  156.3000 C   0  0  0  0  0  2  0  0  0  0  0  0
  159.2420  212.9570  154.0030 O   0  0  0  0  0  0  0  0  0  0  0  0
  157.6130  214.4420  154.6630 O   0  0  0  0  0  1  0  0  0  0  0  0
  159.8070  209.5360  156.4070 C   0  0  0  0  0  2  0  0  0  0  0  0
  157.8420  213.1740  154.1290 C   0  0  1  0  0  0  0  0  0  0  0  0
  157.1970  213.0860  152.7600 C   0  0  0  0  0  1  0  0  0  0  0  0
  161.2120  208.5680  154.5580 C   0  0  0  0  0  0  0  0  0  0  0  0
  161.3620  207.4950  155.2000 O   0  0  0  0  0  0  0  0  0  0  0  0
  160.8140  210.8690  153.0090 C   0  0  0  0  0  2  0  0  0  0  0  0
  158.3420  211.1260  155.1100 C   0  0  1  0  0  3  0  0  0  0  0  0
  157.2350  212.1180  155.0470 C   0  0  0  0  0  2  0  0  0  0  0  0
  161.5820  208.6210  153.1050 C   0  0  0  0  0  2  0  0  0  0  0  0
  161.9330  209.9820  152.6980 N   0  0  0  0  0  0  0  0  0  0  0  0
  160.5950  209.7090  155.1740 N   0  0  0  0  0  0  0  0  0  0  0  0
  159.9670  212.6740  156.2810 C   0  0  0  0  0  2  0  0  0  0  0  0
  161.2760  212.1410  156.8430 C   0  0  0  0  0  1  0  0  0  0  0  0
  162.0750  209.9610  151.2530 C   0  0  0  0  0  2  0  0  0  0  0  0
  162.4940  208.6960  150.8390 O   0  0  0  0  0  0  0  0  0  0  0  0
  161.5080  206.9460  149.4870 C   0  0  2  0  0  3  0  0  0  0  0  0
  162.6010  207.6470  148.7060 C   0  0  0  0  0  2  0  0  0  0  0  0
  161.7560  208.4420  149.6800 C   0  0  2  0  0  3  0  0  0  0  0  0
  161.3760  204.9860  150.5010 C   0  0  0  0  0  1  0  0  0  0  0  0
  162.0790  206.1910  150.5160 O   0  0  0  0  0  0  0  0  0  0  0  0
  1 12  1  0  0  0  0
  1 17  1  1  0  0  0
  2 11  1  6  0  0  0
  2  1  1  0  0  0  0
  2 16  1  0  0  0  0
  3  6  1  0  0  0  0
  4  7  1  0  0  0  0
  4  1  1  0  0  0  0
  7  8  1  6  0  0  0
  7  5  1  0  0  0  0
  7 13  1  0  0  0  0
  9 16  1  0  0  0  0
  9 10  2  0  0  0  0
 12 13  1  1  0  0  0
 12  3  1  0  0  0  0
 14  9  1  0  0  0  0
 15 11  1  0  0  0  0
 15 14  1  0  0  0  0
 16  6  1  0  0  0  0
 17 18  1  0  0  0  0
 19 15  1  0  0  0  0
 20 19  1  0  0  0  0
 21 23  1  0  0  0  0
 21 25  1  1  0  0  0
 22 21  1  0  0  0  0
 22 23  1  0  0  0  0
 23 20  1  1  0  0  0
 24 25  1  0  0  0  0
M  END
>  <MODEL>
7

>  <REMARK>
 VINA RESULT:      -3.7      1.826      2.362
  Name = 
  5 active torsions:
  status: ('A' for Active; 'I' for Inactive)
    1  A    between atoms: C_1  and  C_17
    2  A    between atoms: C_2  and  O_12
    3  A    between atoms: C_6  and  O_15
    4  A    between atoms: C_6  and  N_23
    5  A    between atoms: O_15  and  C_25
                            x       y       z     vdW  Elec       q    Type
                         _______ _______ _______ _____ _____    ______ ____

>  <TORSDO>
F 5

$$$$
=
 OpenBabel11052422193D

 25 28  0  0  1  0  0  0  0  0999 V2000
  161.1540  211.4750  139.8060 C   0  0  1  0  0  0  0  0  0  0  0  0
  159.8140  211.8330  140.4820 C   0  0  2  0  0  3  0  0  0  0  0  0
  162.5340  212.4220  141.7100 C   0  0  0  0  0  2  0  0  0  0  0  0
  161.1250  211.5410  138.3970 O   0  0  0  0  0  0  0  0  0  0  0  0
  163.0770  210.9100  137.3550 O   0  0  0  0  0  1  0  0  0  0  0  0
  161.2840  212.1390  142.5710 C   0  0  0  0  0  2  0  0  0  0  0  0
  162.4210  211.9630  137.9920 C   0  0  1  0  0  0  0  0  0  0  0  0
  162.2900  213.1250  137.0260 C   0  0  0  0  0  1  0  0  0  0  0  0
  159.0230  213.2300  142.4190 C   0  0  0  0  0  0  0  0  0  0  0  0
  159.0410  213.4960  143.6500 O   0  0  0  0  0  0  0  0  0  0  0  0
  158.9640  212.7960  139.6510 C   0  0  0  0  0  2  0  0  0  0  0  0
  162.1540  212.5180  140.2340 C   0  0  1  0  0  3  0  0  0  0  0  0
  163.2270  212.4020  139.2110 C   0  0  0  0  0  2  0  0  0  0  0  0
  158.0010  213.8820  141.5350 C   0  0  0  0  0  2  0  0  0  0  0  0
  157.7140  213.0560  140.3620 N   0  0  0  0  0  0  0  0  0  0  0  0
  160.0310  212.3900  141.8370 N   0  0  0  0  0  0  0  0  0  0  0  0
  161.5750  210.0530  140.2350 C   0  0  0  0  0  2  0  0  0  0  0  0
  160.9600  208.9830  139.3460 C   0  0  0  0  0  1  0  0  0  0  0  0
  156.8800  213.8570  139.4830 C   0  0  0  0  0  2  0  0  0  0  0  0
  156.0940  213.0210  138.6870 O   0  0  0  0  0  0  0  0  0  0  0  0
  155.1510  210.8460  139.1770 C   0  0  2  0  0  3  0  0  0  0  0  0
  154.0410  211.8410  138.9090 C   0  0  0  0  0  2  0  0  0  0  0  0
  155.3080  212.3070  139.5950 C   0  0  2  0  0  3  0  0  0  0  0  0
  155.8430  209.1810  137.8970 C   0  0  0  0  0  1  0  0  0  0  0  0
  155.8320  210.5730  137.9870 O   0  0  0  0  0  0  0  0  0  0  0  0
  1 12  1  0  0  0  0
  1 17  1  1  0  0  0
  1  2  1  0  0  0  0
  2 11  1  6  0  0  0
  2 16  1  0  0  0  0
  3  6  1  0  0  0  0
  4  1  1  0  0  0  0
  5  7  1  0  0  0  0
  7  8  1  6  0  0  0
  7  4  1  0  0  0  0
  7 13  1  0  0  0  0
  9 10  2  0  0  0  0
 11 15  1  0  0  0  0
 12 13  1  6  0  0  0
 12  3  1  0  0  0  0
 14  9  1  0  0  0  0
 15 14  1  0  0  0  0
 16  9  1  0  0  0  0
 16  6  1  0  0  0  0
 18 17  1  0  0  0  0
 19 15  1  0  0  0  0
 20 19  1  0  0  0  0
 21 25  1  6  0  0  0
 21 23  1  0  0  0  0
 22 21  1  0  0  0  0
 22 23  1  0  0  0  0
 23 20  1  6  0  0  0
 24 25  1  0  0  0  0
M  END
>  <MODEL>
8

>  <REMARK>
 VINA RESULT:      -3.6     11.611     14.580
  Name = 
  5 active torsions:
  status: ('A' for Active; 'I' for Inactive)
    1  A    between atoms: C_1  and  C_17
    2  A    between atoms: C_2  and  O_12
    3  A    between atoms: C_6  and  O_15
    4  A    between atoms: C_6  and  N_23
    5  A    between atoms: O_15  and  C_25
                            x       y       z     vdW  Elec       q    Type
                         _______ _______ _______ _____ _____    ______ ____

>  <TORSDO>
F 5

$$$$
=
 OpenBabel11052422193D

 25 28  0  0  1  0  0  0  0  0999 V2000
  160.2110  211.0210  139.4030 C   0  0  1  0  0  0  0  0  0  0  0  0
  158.7450  211.4880  139.2920 C   0  0  2  0  0  3  0  0  0  0  0  0
  161.0100  212.6260  137.6110 C   0  0  0  0  0  2  0  0  0  0  0  0
  160.3580  209.6570  139.7320 O   0  0  0  0  0  0  0  0  0  0  0  0
  162.5320  208.9540  140.0080 O   0  0  0  0  0  1  0  0  0  0  0  0
  159.7770  213.4650  138.0110 C   0  0  0  0  0  2  0  0  0  0  0  0
  161.5350  209.2130  139.0680 C   0  0  1  0  0  0  0  0  0  0  0  0
  161.2280  207.9400  138.3040 C   0  0  0  0  0  1  0  0  0  0  0  0
  157.3480  212.8770  137.7270 C   0  0  0  0  0  0  0  0  0  0  0  0
  157.1250  213.9710  137.1460 O   0  0  0  0  0  0  0  0  0  0  0  0
  157.7880  210.3650  138.8880 C   0  0  0  0  0  2  0  0  0  0  0  0
  160.8240  211.1710  138.0350 C   0  0  1  0  0  3  0  0  0  0  0  0
  162.0180  210.2860  138.0960 C   0  0  0  0  0  2  0  0  0  0  0  0
  156.3190  211.7860  137.6730 C   0  0  0  0  0  2  0  0  0  0  0  0
  156.4290  210.8980  138.8310 N   0  0  0  0  0  0  0  0  0  0  0  0
  158.6160  212.6250  138.3520 N   0  0  0  0  0  0  0  0  0  0  0  0
  160.9370  211.8750  140.4640 C   0  0  0  0  0  2  0  0  0  0  0  0
  160.5730  211.4580  141.8800 C   0  0  0  0  0  1  0  0  0  0  0  0
  155.5380  209.7780  138.5830 C   0  0  0  0  0  2  0  0  0  0  0  0
  154.6270  209.6590  139.6340 O   0  0  0  0  0  0  0  0  0  0  0  0
  152.5990  210.9790  139.5720 C   0  0  2  0  0  3  0  0  0  0  0  0
  152.2890  209.5810  140.0680 C   0  0  0  0  0  2  0  0  0  0  0  0
  153.3730  209.7790  139.0290 C   0  0  2  0  0  3  0  0  0  0  0  0
  152.3700  212.1310  141.4450 C   0  0  0  0  0  1  0  0  0  0  0  0
  153.3300  211.6690  140.5440 O   0  0  0  0  0  0  0  0  0  0  0  0
  1  4  1  0  0  0  0
  1 17  1  1  0  0  0
  2 11  1  6  0  0  0
  2  1  1  0  0  0  0
  3  6  1  0  0  0  0
  6 16  1  0  0  0  0
  7  8  1  6  0  0  0
  7  4  1  0  0  0  0
  7  5  1  0  0  0  0
  9 16  1  0  0  0  0
 10  9  2  0  0  0  0
 12  3  1  1  0  0  0
 12 13  1  0  0  0  0
 12  1  1  0  0  0  0
 13  7  1  0  0  0  0
 14  9  1  0  0  0  0
 14 15  1  0  0  0  0
 15 11  1  0  0  0  0
 16  2  1  0  0  0  0
 17 18  1  0  0  0  0
 19 15  1  0  0  0  0
 19 20  1  0  0  0  0
 21 22  1  0  0  0  0
 21 25  1  1  0  0  0
 23 21  1  0  0  0  0
 23 20  1  1  0  0  0
 23 22  1  0  0  0  0
 25 24  1  0  0  0  0
M  END
>  <MODEL>
9

>  <REMARK>
 VINA RESULT:      -3.5     12.611     15.601
  Name = 
  5 active torsions:
  status: ('A' for Active; 'I' for Inactive)
    1  A    between atoms: C_1  and  C_17
    2  A    between atoms: C_2  and  O_12
    3  A    between atoms: C_6  and  O_15
    4  A    between atoms: C_6  and  N_23
    5  A    between atoms: O_15  and  C_25
                            x       y       z     vdW  Elec       q    Type
                         _______ _______ _______ _____ _____    ______ ____

>  <TORSDO>
F 5

$$$$
