=
 OpenBabel11062408393D

 55 61  0  0  1  0  0  0  0  0999 V2000
  160.7310  213.3210  150.7450 C   0  0  0  0  0  2  0  0  0  0  0  0
  159.5380  209.1670  150.2360 C   0  0  0  0  0  1  0  0  0  0  0  0
  161.0390  208.3230  152.7560 O   0  0  0  0  0  1  0  0  0  0  0  0
  160.2770  209.6330  155.5380 C   0  0  0  0  0  3  0  0  0  0  0  0
  159.6600  209.7230  156.7870 C   0  0  0  0  0  3  0  0  0  0  0  0
  159.9990  212.0270  155.2200 C   0  0  0  0  0  0  0  0  0  0  0  0
  159.3910  212.1080  156.4800 C   0  0  0  0  0  3  0  0  0  0  0  0
  162.4970  210.4430  153.5770 O   0  0  0  0  0  1  0  0  0  0  0  0
  159.2170  210.9610  157.2570 C   0  0  0  0  0  3  0  0  0  0  0  0
  162.0400  214.4490  148.9320 C   0  0  0  0  0  2  0  0  0  0  0  0
  160.4460  210.7760  154.7400 C   0  0  0  0  0  0  0  0  0  0  0  0
  162.1260  211.8400  148.0560 C   0  0  1  0  0  3  0  0  0  0  0  0
  159.3080  213.4880  151.2360 C   0  0  0  0  0  2  0  0  0  0  0  0
  160.7270  212.2870  148.4790 C   0  0  0  0  0  2  0  0  0  0  0  0
  159.0610  213.5980  153.4420 C   0  0  1  0  0  3  0  0  0  0  0  0
  161.9930  209.9550  150.4960 C   0  0  0  0  0  2  0  0  0  0  0  0
  160.1880  213.2980  154.4420 C   0  0  0  0  0  2  0  0  0  0  0  0
  160.5540  209.9600  151.0490 C   0  0  2  0  0  3  0  0  0  0  0  0
  160.4890  209.5910  152.5250 C   0  0  2  0  0  3  0  0  0  0  0  0
  162.4020  214.3110  147.4590 C   0  0  0  0  0  2  0  0  0  0  0  0
  162.2670  208.8980  149.4280 C   0  0  1  0  0  3  0  0  0  0  0  0
  160.7900  213.6110  149.2590 C   0  0  1  0  0  3  0  0  0  0  0  0
  161.1320  210.6620  153.4110 C   0  0  2  0  0  3  0  0  0  0  0  0
  159.0880  212.6990  152.3690 O   0  0  0  0  0  0  0  0  0  0  0  0
  162.9910  209.5100  148.2280 C   0  0  0  0  0  2  0  0  0  0  0  0
  162.0880  210.4540  147.4410 C   0  0  0  0  0  2  0  0  0  0  0  0
  162.7590  212.8570  147.0990 C   0  0  0  0  0  2  0  0  0  0  0  0
  157.4100  214.4330  155.3660 C   0  0  0  0  0  3  0  0  0  0  0  0
  156.2630  212.3590  155.4440 N   0  0  0  0  0  0  0  0  0  0  0  0
  156.4920  213.3190  153.2020 C   0  0  0  0  0  2  0  0  0  0  0  0
  157.0190  212.2900  154.2050 C   0  0  1  0  0  3  0  0  0  0  0  0
  156.4620  213.5870  156.1970 C   0  0  0  0  0  3  0  0  0  0  0  0
  157.6770  213.6440  154.0880 C   0  0  1  0  0  0  0  0  0  0  0  0
  155.4230  211.2880  155.8970 C   0  0  0  0  0  0  0  0  0  0  0  0
  154.6900  211.4170  156.9960 C   0  0  0  0  0  2  0  0  0  0  0  0
  155.3980  209.9850  155.1760 C   0  0  0  0  0  1  0  0  0  0  0  0
  163.1350  207.8060  150.0230 C   0  0  0  0  0  2  0  0  0  0  0  0
  162.9730  206.6160  149.2860 O   0  0  0  0  0  0  0  0  0  0  0  0
  162.6530  204.0680  149.5320 O   0  0  0  0  0  1  0  0  0  0  0  0
  161.4830  204.6920  149.1000 C   0  0  2  0  0  0  0  0  0  0  0  0
  160.9850  206.6550  150.4920 O   0  0  0  0  0  1  0  0  0  0  0  0
  160.7900  205.8570  147.1500 C   0  0  1  0  0  3  0  0  0  0  0  0
  161.3940  204.5550  147.5640 C   0  0  2  0  0  3  0  0  0  0  0  0
  161.6020  206.2360  149.3060 C   0  0  1  0  0  0  0  0  0  0  0  0
  160.8950  206.7870  148.0940 C   0  0  0  0  0  2  0  0  0  0  0  0
  161.4620  202.0870  147.2950 C   0  0  0  0  0  2  0  0  0  0  0  0
  161.3830  202.7000  145.9150 C   0  0  0  0  0  2  0  0  0  0  0  0
  160.6320  203.3280  147.0660 C   0  0  0  0  0  3  0  0  0  0  0  0
  160.1900  206.1300  145.8020 C   0  0  0  0  0  2  0  0  0  0  0  0
  162.2690  206.0260  145.0640 C   0  0  0  0  0  1  0  0  0  0  0  0
  160.9850  205.5520  144.8020 O   0  0  0  0  0  0  0  0  0  0  0  0
  160.3910  204.0810  149.7920 O   0  0  0  0  0  0  0  0  0  0  0  0
  160.5120  203.6070  152.1440 C   0  0  0  0  0  1  0  0  0  0  0  0
  160.0270  201.8380  150.5100 C   0  0  0  0  0  1  0  0  0  0  0  0
  160.8050  203.1180  150.7370 C   0  0  0  0  0  3  0  0  0  0  0  0
  1 13  1  0  0  0  0
  4  5  1  0  0  0  0
  5  9  2  0  0  0  0
  6  7  2  0  0  0  0
  7  9  1  0  0  0  0
 10 22  1  0  0  0  0
 11  6  1  0  0  0  0
 11  4  2  0  0  0  0
 12 27  1  6  0  0  0
 12 14  1  0  0  0  0
 13 24  1  0  0  0  0
 15 33  1  0  0  0  0
 15 17  1  1  0  0  0
 16 18  1  0  0  0  0
 17  6  1  0  0  0  0
 18  2  1  6  0  0  0
 18 19  1  0  0  0  0
 19  3  1  6  0  0  0
 19 23  1  0  0  0  0
 20 10  1  0  0  0  0
 21 37  1  1  0  0  0
 21 16  1  0  0  0  0
 22 14  1  6  0  0  0
 22  1  1  0  0  0  0
 23  8  1  1  0  0  0
 23 11  1  0  0  0  0
 24 15  1  0  0  0  0
 25 21  1  0  0  0  0
 26 12  1  0  0  0  0
 26 25  1  0  0  0  0
 27 20  1  0  0  0  0
 28 32  2  0  0  0  0
 29 34  1  0  0  0  0
 29 32  1  0  0  0  0
 31 30  1  6  0  0  0
 31 29  1  0  0  0  0
 33 30  1  6  0  0  0
 33 31  1  0  0  0  0
 33 28  1  0  0  0  0
 34 35  2  0  0  0  0
 36 34  1  0  0  0  0
 38 44  1  0  0  0  0
 38 37  1  0  0  0  0
 40 44  1  0  0  0  0
 40 39  1  1  0  0  0
 40 52  1  0  0  0  0
 42 49  1  6  0  0  0
 42 43  1  0  0  0  0
 42 45  1  0  0  0  0
 43 48  1  1  0  0  0
 43 40  1  0  0  0  0
 44 41  1  1  0  0  0
 45 44  1  0  0  0  0
 47 48  1  0  0  0  0
 47 46  1  0  0  0  0
 48 46  1  0  0  0  0
 51 50  1  0  0  0  0
 51 49  1  0  0  0  0
 52 55  1  0  0  0  0
 54 55  1  0  0  0  0
 55 53  1  0  0  0  0
M  END
>  <MODEL>
1

>  <REMARK>
 VINA RESULT:       5.4      0.000      0.000
  Name = 
  10 active torsions:
  status: ('A' for Active; 'I' for Inactive)
    1  A    between atoms: C_6  and  O_46
    2  A    between atoms: C_8  and  O_22
    3  A    between atoms: C_8  and  C_43
    4  A    between atoms: C_10  and  N_32
    5  A    between atoms: C_12  and  C_30
    6  A    between atoms: C_14  and  C_38
    7  A    between atoms: C_20  and  O_22
    8  A    between atoms: C_30  and  O_50
    9  A    between atoms: C_33  and  C_52
   10  A    between atoms: O_46  and  C_53
                            x       y       z     vdW  Elec       q    Type
                         _______ _______ _______ _____ _____    ______ ____

>  <TORSDO>
F 10

$$$$
=
 OpenBabel11062408393D

 55 62  0  0  1  0  0  0  0  0999 V2000
  160.5990  213.1710  150.6550 C   0  0  0  0  0  2  0  0  0  0  0  0
  159.4900  208.9780  150.3010 C   0  0  0  0  0  1  0  0  0  0  0  0
  161.0340  208.2530  152.8320 O   0  0  0  0  0  1  0  0  0  0  0  0
  160.2720  209.6400  155.5760 C   0  0  0  0  0  3  0  0  0  0  0  0
  159.6660  209.7610  156.8280 C   0  0  0  0  0  3  0  0  0  0  0  0
  159.9390  212.0160  155.1800 C   0  0  0  0  0  0  0  0  0  0  0  0
  159.3420  212.1270  156.4430 C   0  0  0  0  0  3  0  0  0  0  0  0
  162.4540  210.4290  153.5640 O   0  0  0  0  0  1  0  0  0  0  0  0
  159.2010  211.0040  157.2610 C   0  0  0  0  0  3  0  0  0  0  0  0
  161.8650  214.2640  148.7920 C   0  0  0  0  0  2  0  0  0  0  0  0
  160.4080  210.7590  154.7380 C   0  0  0  0  0  0  0  0  0  0  0  0
  161.9980  211.6280  148.0040 C   0  0  1  0  0  3  0  0  0  0  0  0
  159.1770  213.3250  151.1560 C   0  0  0  0  0  2  0  0  0  0  0  0
  160.5940  212.0610  148.4270 C   0  0  0  0  0  2  0  0  0  0  0  0
  158.9500  213.5050  153.3600 C   0  0  1  0  0  3  0  0  0  0  0  0
  161.9290  209.8260  150.5080 C   0  0  0  0  0  2  0  0  0  0  0  0
  160.0930  213.2630  154.3570 C   0  0  0  0  0  2  0  0  0  0  0  0
  160.4970  209.8200  151.0750 C   0  0  2  0  0  3  0  0  0  0  0  0
  160.4550  209.5000  152.5640 C   0  0  2  0  0  3  0  0  0  0  0  0
  162.2150  214.0830  147.3200 C   0  0  0  0  0  2  0  0  0  0  0  0
  162.2160  208.7400  149.4730 C   0  0  1  0  0  3  0  0  0  0  0  0
  160.6360  213.4110  149.1600 C   0  0  1  0  0  3  0  0  0  0  0  0
  161.0830  210.6140  153.4060 C   0  0  2  0  0  3  0  0  0  0  0  0
  158.9850  212.5710  152.3180 O   0  0  0  0  0  0  0  0  0  0  0  0
  162.9150  209.3250  148.2460 C   0  0  0  0  0  2  0  0  0  0  0  0
  161.9830  210.2220  147.4370 C   0  0  0  0  0  2  0  0  0  0  0  0
  162.5990  212.6260  147.0060 C   0  0  0  0  0  2  0  0  0  0  0  0
  157.2960  214.3840  155.2620 C   0  0  0  0  0  3  0  0  0  0  0  0
  156.2070  212.2860  155.4480 N   0  0  0  0  0  0  0  0  0  0  0  0
  156.3870  213.1470  153.1620 C   0  0  0  0  0  2  0  0  0  0  0  0
  156.9520  212.1790  154.2050 C   0  0  1  0  0  3  0  0  0  0  0  0
  156.3810  213.5520  156.1410 C   0  0  0  0  0  3  0  0  0  0  0  0
  157.5720  213.5440  154.0190 C   0  0  1  0  0  0  0  0  0  0  0  0
  155.4010  211.2150  155.9600 C   0  0  0  0  0  0  0  0  0  0  0  0
  155.3750  210.0340  155.3560 C   0  0  0  0  0  2  0  0  0  0  0  0
  154.5290  211.4230  157.1510 C   0  0  0  0  0  1  0  0  0  0  0  0
  163.1120  207.6870  150.0960 C   0  0  0  0  0  2  0  0  0  0  0  0
  163.0400  206.4970  149.3450 O   0  0  0  0  0  0  0  0  0  0  0  0
  162.3720  204.5870  150.9450 O   0  0  0  0  0  0  0  0  0  0  0  0
  161.4360  204.7510  149.9230 C   0  0  2  0  0  0  0  0  0  0  0  0
  160.8260  207.1190  149.6820 O   0  0  0  0  0  1  0  0  0  0  0  0
  161.4200  204.4710  147.5650 C   0  0  1  0  0  3  0  0  0  0  0  0
  161.7370  203.7170  148.8150 C   0  0  2  0  0  3  0  0  0  0  0  0
  161.6780  206.1150  149.2010 C   0  0  1  0  0  0  0  0  0  0  0  0
  161.3820  205.7840  147.7610 C   0  0  0  0  0  2  0  0  0  0  0  0
  161.9800  201.2800  149.2240 C   0  0  0  0  0  2  0  0  0  0  0  0
  161.4150  201.4610  147.8330 C   0  0  0  0  0  2  0  0  0  0  0  0
  160.9930  202.3890  148.9480 C   0  0  0  0  0  3  0  0  0  0  0  0
  161.2290  203.8440  146.2150 C   0  0  0  0  0  2  0  0  0  0  0  0
  160.0820  204.6090  144.4900 C   0  0  0  0  0  1  0  0  0  0  0  0
  161.2440  204.8370  145.2240 O   0  0  0  0  0  0  0  0  0  0  0  0
  160.1380  204.6050  150.5030 O   0  0  0  0  0  0  0  0  0  0  0  0
  159.6020  203.2470  152.4100 C   0  0  0  0  0  1  0  0  0  0  0  0
  161.6000  204.6750  152.3830 C   0  0  0  0  0  2  0  0  0  0  0  0
  160.1640  204.5660  151.9140 C   0  0  1  0  0  3  0  0  0  0  0  0
  1 13  1  0  0  0  0
  4  5  1  0  0  0  0
  5  9  2  0  0  0  0
  6  7  2  0  0  0  0
  7  9  1  0  0  0  0
 10 22  1  0  0  0  0
 11  6  1  0  0  0  0
 11  4  2  0  0  0  0
 12 27  1  6  0  0  0
 12 14  1  0  0  0  0
 13 24  1  0  0  0  0
 15 33  1  0  0  0  0
 15 17  1  1  0  0  0
 16 18  1  0  0  0  0
 17  6  1  0  0  0  0
 18  2  1  6  0  0  0
 18 19  1  0  0  0  0
 19  3  1  6  0  0  0
 19 23  1  0  0  0  0
 20 10  1  0  0  0  0
 21 37  1  1  0  0  0
 21 16  1  0  0  0  0
 22 14  1  6  0  0  0
 22  1  1  0  0  0  0
 23  8  1  1  0  0  0
 23 11  1  0  0  0  0
 24 15  1  0  0  0  0
 25 21  1  0  0  0  0
 26 12  1  0  0  0  0
 26 25  1  0  0  0  0
 27 20  1  0  0  0  0
 28 32  2  0  0  0  0
 29 34  1  0  0  0  0
 29 32  1  0  0  0  0
 31 30  1  6  0  0  0
 31 29  1  0  0  0  0
 33 30  1  6  0  0  0
 33 31  1  0  0  0  0
 33 28  1  0  0  0  0
 34 36  1  0  0  0  0
 35 34  2  0  0  0  0
 38 37  1  0  0  0  0
 39 54  1  0  0  0  0
 40 52  1  1  0  0  0
 40 39  1  0  0  0  0
 42 49  1  6  0  0  0
 42 45  1  0  0  0  0
 42 43  1  0  0  0  0
 43 48  1  1  0  0  0
 43 40  1  0  0  0  0
 44 38  1  0  0  0  0
 44 41  1  1  0  0  0
 44 40  1  0  0  0  0
 45 44  1  0  0  0  0
 47 48  1  0  0  0  0
 47 46  1  0  0  0  0
 48 46  1  0  0  0  0
 50 51  1  0  0  0  0
 51 49  1  0  0  0  0
 52 55  1  0  0  0  0
 55 54  1  0  0  0  0
 55 53  1  6  0  0  0
M  END
>  <MODEL>
2

>  <REMARK>
 VINA RESULT:       8.0      0.762      1.141
  Name = 
  10 active torsions:
  status: ('A' for Active; 'I' for Inactive)
    1  A    between atoms: C_6  and  O_46
    2  A    between atoms: C_8  and  O_22
    3  A    between atoms: C_8  and  C_43
    4  A    between atoms: C_10  and  N_32
    5  A    between atoms: C_12  and  C_30
    6  A    between atoms: C_14  and  C_38
    7  A    between atoms: C_20  and  O_22
    8  A    between atoms: C_30  and  O_50
    9  A    between atoms: C_33  and  C_52
   10  A    between atoms: O_46  and  C_53
                            x       y       z     vdW  Elec       q    Type
                         _______ _______ _______ _____ _____    ______ ____

>  <TORSDO>
F 10

$$$$
=
 OpenBabel11062408393D

 55 61  0  0  1  0  0  0  0  0999 V2000
  160.9780  212.4500  151.2130 C   0  0  0  0  0  2  0  0  0  0  0  0
  159.4730  208.5100  150.1450 C   0  0  0  0  0  1  0  0  0  0  0  0
  161.4600  207.1360  152.0100 O   0  0  0  0  0  1  0  0  0  0  0  0
  161.4260  207.8180  155.1030 C   0  0  0  0  0  3  0  0  0  0  0  0
  161.1160  207.6400  156.4520 C   0  0  0  0  0  3  0  0  0  0  0  0
  161.2150  210.2260  155.3650 C   0  0  0  0  0  0  0  0  0  0  0  0
  160.9160  210.0360  156.7210 C   0  0  0  0  0  3  0  0  0  0  0  0
  163.1810  209.0210  152.8890 O   0  0  0  0  0  1  0  0  0  0  0  0
  160.8610  208.7500  157.2610 C   0  0  0  0  0  3  0  0  0  0  0  0
  161.9000  213.9360  149.4210 C   0  0  0  0  0  2  0  0  0  0  0  0
  161.4720  209.1060  154.5440 C   0  0  0  0  0  0  0  0  0  0  0  0
  161.6390  211.5770  148.0250 C   0  0  1  0  0  3  0  0  0  0  0  0
  159.7160  212.5150  152.0480 C   0  0  0  0  0  2  0  0  0  0  0  0
  160.4010  211.9300  148.8480 C   0  0  0  0  0  2  0  0  0  0  0  0
  159.9850  212.1480  154.2240 C   0  0  1  0  0  3  0  0  0  0  0  0
  161.9620  209.2110  149.9800 C   0  0  0  0  0  2  0  0  0  0  0  0
  161.2920  211.6340  154.8470 C   0  0  0  0  0  2  0  0  0  0  0  0
  160.6900  209.1040  150.8430 C   0  0  2  0  0  3  0  0  0  0  0  0
  160.9430  208.4260  152.1840 C   0  0  2  0  0  3  0  0  0  0  0  0
  161.9080  214.1170  147.9080 C   0  0  0  0  0  2  0  0  0  0  0  0
  161.9270  208.4080  148.6810 C   0  0  1  0  0  3  0  0  0  0  0  0
  160.7120  213.0530  149.8490 C   0  0  1  0  0  3  0  0  0  0  0  0
  161.8290  209.2770  153.0970 C   0  0  2  0  0  3  0  0  0  0  0  0
  159.7170  211.5020  153.0120 O   0  0  0  0  0  0  0  0  0  0  0  0
  162.3910  209.2610  147.5000 C   0  0  0  0  0  2  0  0  0  0  0  0
  161.3850  210.3560  147.1610 C   0  0  0  0  0  2  0  0  0  0  0  0
  162.0930  212.7730  147.1800 C   0  0  0  0  0  2  0  0  0  0  0  0
  157.9320  210.8040  155.2740 C   0  0  0  0  0  3  0  0  0  0  0  0
  156.5510  212.7310  155.3370 N   0  0  0  0  0  0  0  0  0  0  0  0
  158.7660  213.0250  156.3410 C   0  0  0  0  0  2  0  0  0  0  0  0
  157.8830  213.2670  155.1140 C   0  0  1  0  0  3  0  0  0  0  0  0
  156.4970  211.2800  155.4180 C   0  0  0  0  0  3  0  0  0  0  0  0
  158.7900  212.0610  155.1720 C   0  0  1  0  0  0  0  0  0  0  0  0
  155.3880  213.5650  155.4310 C   0  0  0  0  0  0  0  0  0  0  0  0
  155.1080  214.4510  154.4840 C   0  0  0  0  0  2  0  0  0  0  0  0
  154.4970  213.4950  156.6240 C   0  0  0  0  0  1  0  0  0  0  0  0
  162.8450  207.2100  148.8150 C   0  0  0  0  0  2  0  0  0  0  0  0
  162.6910  206.3650  147.6980 O   0  0  0  0  0  0  0  0  0  0  0  0
  162.8990  203.9240  148.5070 O   0  0  0  0  0  1  0  0  0  0  0  0
  161.6540  204.1670  147.9260 C   0  0  2  0  0  0  0  0  0  0  0  0
  160.6650  206.2260  148.8300 O   0  0  0  0  0  1  0  0  0  0  0  0
  160.8620  204.7000  145.7510 C   0  0  1  0  0  3  0  0  0  0  0  0
  161.6980  203.6840  146.4590 C   0  0  2  0  0  3  0  0  0  0  0  0
  161.4320  205.7060  147.7790 C   0  0  1  0  0  0  0  0  0  0  0  0
  160.7070  205.8120  146.4620 C   0  0  0  0  0  2  0  0  0  0  0  0
  159.9980  202.2270  145.3850 C   0  0  0  0  0  2  0  0  0  0  0  0
  159.8930  202.0340  146.8810 C   0  0  0  0  0  2  0  0  0  0  0  0
  161.2450  202.2420  146.2380 C   0  0  0  0  0  3  0  0  0  0  0  0
  160.3080  204.5370  144.3670 C   0  0  0  0  0  2  0  0  0  0  0  0
  161.7330  206.1830  144.0030 C   0  0  0  0  0  1  0  0  0  0  0  0
  161.2290  205.0190  143.4260 O   0  0  0  0  0  0  0  0  0  0  0  0
  160.6720  203.4960  148.7190 O   0  0  0  0  0  0  0  0  0  0  0  0
  160.2260  203.8990  151.0440 C   0  0  0  0  0  1  0  0  0  0  0  0
  161.0380  201.7170  150.2620 C   0  0  0  0  0  1  0  0  0  0  0  0
  161.1190  203.2110  150.0270 C   0  0  0  0  0  3  0  0  0  0  0  0
  1 13  1  0  0  0  0
  4  5  1  0  0  0  0
  5  9  2  0  0  0  0
  6  7  2  0  0  0  0
  7  9  1  0  0  0  0
 10 22  1  0  0  0  0
 11  4  2  0  0  0  0
 11  6  1  0  0  0  0
 12 26  1  6  0  0  0
 12 14  1  0  0  0  0
 13 24  1  0  0  0  0
 15 17  1  1  0  0  0
 15 33  1  0  0  0  0
 16 18  1  0  0  0  0
 17  6  1  0  0  0  0
 18  2  1  6  0  0  0
 18 19  1  0  0  0  0
 19  3  1  6  0  0  0
 19 23  1  0  0  0  0
 20 10  1  0  0  0  0
 21 37  1  1  0  0  0
 21 16  1  0  0  0  0
 22 14  1  6  0  0  0
 22  1  1  0  0  0  0
 23  8  1  1  0  0  0
 23 11  1  0  0  0  0
 24 15  1  0  0  0  0
 25 21  1  0  0  0  0
 26 25  1  0  0  0  0
 27 20  1  0  0  0  0
 27 12  1  0  0  0  0
 28 32  2  0  0  0  0
 29 32  1  0  0  0  0
 29 34  1  0  0  0  0
 31 33  1  0  0  0  0
 31 29  1  0  0  0  0
 31 30  1  1  0  0  0
 33 28  1  1  0  0  0
 33 30  1  0  0  0  0
 34 36  1  0  0  0  0
 35 34  2  0  0  0  0
 38 44  1  0  0  0  0
 38 37  1  0  0  0  0
 40 39  1  1  0  0  0
 40 52  1  0  0  0  0
 42 49  1  6  0  0  0
 42 43  1  0  0  0  0
 42 45  1  0  0  0  0
 43 48  1  1  0  0  0
 43 40  1  0  0  0  0
 44 40  1  0  0  0  0
 44 41  1  1  0  0  0
 45 44  1  0  0  0  0
 46 48  1  0  0  0  0
 46 47  1  0  0  0  0
 48 47  1  0  0  0  0
 51 50  1  0  0  0  0
 51 49  1  0  0  0  0
 52 55  1  0  0  0  0
 55 54  1  0  0  0  0
 55 53  1  0  0  0  0
M  END
>  <MODEL>
3

>  <REMARK>
 VINA RESULT:       8.1      1.310      1.853
  Name = 
  10 active torsions:
  status: ('A' for Active; 'I' for Inactive)
    1  A    between atoms: C_6  and  O_46
    2  A    between atoms: C_8  and  O_22
    3  A    between atoms: C_8  and  C_43
    4  A    between atoms: C_10  and  N_32
    5  A    between atoms: C_12  and  C_30
    6  A    between atoms: C_14  and  C_38
    7  A    between atoms: C_20  and  O_22
    8  A    between atoms: C_30  and  O_50
    9  A    between atoms: C_33  and  C_52
   10  A    between atoms: O_46  and  C_53
                            x       y       z     vdW  Elec       q    Type
                         _______ _______ _______ _____ _____    ______ ____

>  <TORSDO>
F 10

$$$$
