=
 OpenBabel11062410363D

 32 37  0  0  1  0  0  0  0  0999 V2000
  160.4090  202.8490  151.2070 O   0  0  0  0  0  0  0  0  0  0  0  0
  161.8310  207.8190  150.8380 C   0  0  1  0  0  3  0  0  0  0  0  0
  160.4280  208.6850  155.4920 C   0  0  0  0  0  3  0  0  0  0  0  0
  160.0940  209.9960  155.1630 C   0  0  0  0  0  3  0  0  0  0  0  0
  162.0700  209.8270  149.3610 C   0  0  0  0  0  0  0  0  0  0  0  0
  161.8660  211.2550  149.1330 C   0  0  0  0  0  0  0  0  0  0  0  0
  161.1350  205.4910  150.2170 C   0  0  1  0  0  3  0  0  0  0  0  0
  161.9040  205.9780  152.5800 C   0  0  0  0  0  2  0  0  0  0  0  0
  161.1930  213.3290  149.4930 N   0  0  0  0  0  0  0  0  0  0  0  0
  161.2910  203.6520  151.9430 C   0  0  0  0  0  2  0  0  0  0  0  0
  160.9610  207.8390  154.5220 C   0  0  0  0  0  3  0  0  0  0  0  0
  161.6660  207.4310  152.2820 C   0  0  0  0  0  0  0  0  0  0  0  0
  161.1730  208.2840  153.2030 C   0  0  0  0  0  0  0  0  0  0  0  0
  161.0400  210.1030  151.6200 C   0  0  0  0  0  0  0  0  0  0  0  0
  161.8040  213.4370  148.2320 N   0  0  0  0  0  0  0  0  0  0  0  0
  160.9570  203.6380  148.9660 C   0  0  0  0  0  2  0  0  0  0  0  0
  160.9770  205.1270  151.7100 C   0  0  2  0  0  3  0  0  0  0  0  0
  162.2740  212.0690  147.9500 C   0  0  0  0  0  3  0  0  0  0  0  0
  160.2330  204.7420  149.4470 O   0  0  0  0  0  0  0  0  0  0  0  0
  161.0880  202.5260  150.0210 C   0  0  2  0  0  3  0  0  0  0  0  0
  160.2980  210.4590  153.8630 C   0  0  0  0  0  3  0  0  0  0  0  0
  160.8390  209.6240  152.8660 C   0  0  0  0  0  0  0  0  0  0  0  0
  160.6430  211.5320  151.2760 C   0  0  0  0  0  2  0  0  0  0  0  0
  160.8720  206.9820  149.9920 C   0  0  0  0  0  2  0  0  0  0  0  0
  162.6360  209.1210  148.4840 O   0  0  0  0  0  0  0  0  0  0  0  0
  160.5620  214.4530  150.1630 C   0  0  0  0  0  1  0  0  0  0  0  0
  161.6250  209.2510  150.6030 N   0  0  0  0  0  0  0  0  0  0  0  0
  161.2600  212.0160  149.9970 C   0  0  0  0  0  0  0  0  0  0  0  0
  160.5510  201.2250  149.4500 C   0  0  0  0  0  2  0  0  0  0  0  0
  161.0960  200.9880  148.0840 C   0  0  0  0  0  0  0  0  0  0  0  0
  160.5720  201.6750  146.9980 O   0  0  0  0  0  0  0  0  0  0  0  0
  162.0520  200.1870  147.9190 O   0  0  0  0  0  1  0  0  0  0  0  0
  1 10  1  0  0  0  0
  2 24  1  6  0  0  0
  2 12  1  0  0  0  0
  4  3  1  0  0  0  0
  5 27  1  0  0  0  0
  6  5  1  0  0  0  0
  6 28  2  0  0  0  0
  7 24  1  1  0  0  0
  7 17  1  0  0  0  0
  9 28  1  0  0  0  0
  9 26  1  0  0  0  0
 11  3  2  0  0  0  0
 12  8  1  0  0  0  0
 12 13  2  0  0  0  0
 13 11  1  0  0  0  0
 14 22  2  0  0  0  0
 15  9  1  0  0  0  0
 16 19  1  0  0  0  0
 16 20  1  0  0  0  0
 17 10  1  6  0  0  0
 17  8  1  0  0  0  0
 18 15  2  0  0  0  0
 18  6  1  0  0  0  0
 19  7  1  0  0  0  0
 20 29  1  6  0  0  0
 20  1  1  0  0  0  0
 21  4  2  0  0  0  0
 22 13  1  0  0  0  0
 22 21  1  0  0  0  0
 23 14  1  0  0  0  0
 25  5  2  0  0  0  0
 27  2  1  0  0  0  0
 27 14  1  0  0  0  0
 28 23  1  0  0  0  0
 30 29  1  0  0  0  0
 31 30  2  0  0  0  0
 32 30  1  0  0  0  0
M  END
>  <MODEL>
1

>  <REMARK>
 VINA RESULT:      -9.2      0.000      0.000
  Name = 
  2 active torsions:
  status: ('A' for Active; 'I' for Inactive)
    1  A    between atoms: C_1  and  C_10
    2  A    between atoms: C_10  and  C_24
                            x       y       z     vdW  Elec       q    Type
                         _______ _______ _______ _____ _____    ______ ____

>  <TORSDO>
F 2

$$$$
=
 OpenBabel11062410363D

 32 37  0  0  1  0  0  0  0  0999 V2000
  160.7070  203.0240  149.4580 O   0  0  0  0  0  0  0  0  0  0  0  0
  161.7470  208.0110  150.4080 C   0  0  1  0  0  3  0  0  0  0  0  0
  160.5390  207.4760  155.1650 C   0  0  0  0  0  3  0  0  0  0  0  0
  160.0940  208.7940  155.2160 C   0  0  0  0  0  3  0  0  0  0  0  0
  161.7610  210.3550  149.5260 C   0  0  0  0  0  0  0  0  0  0  0  0
  161.4440  211.7690  149.7010 C   0  0  0  0  0  0  0  0  0  0  0  0
  161.1870  205.8860  149.2000 C   0  0  1  0  0  3  0  0  0  0  0  0
  162.0450  205.7830  151.5800 C   0  0  0  0  0  2  0  0  0  0  0  0
  160.6430  213.6070  150.6330 N   0  0  0  0  0  0  0  0  0  0  0  0
  161.5680  203.6710  150.3550 C   0  0  0  0  0  2  0  0  0  0  0  0
  161.0780  206.9690  153.9850 C   0  0  0  0  0  3  0  0  0  0  0  0
  161.6880  207.2370  151.6970 C   0  0  0  0  0  0  0  0  0  0  0  0
  161.1860  207.7670  152.8310 C   0  0  0  0  0  0  0  0  0  0  0  0
  160.8370  209.9270  151.8070 C   0  0  0  0  0  0  0  0  0  0  0  0
  161.1760  214.1000  149.4300 N   0  0  0  0  0  0  0  0  0  0  0  0
  161.0750  204.4290  147.4990 C   0  0  0  0  0  2  0  0  0  0  0  0
  161.1370  205.1230  150.5430 C   0  0  2  0  0  3  0  0  0  0  0  0
  161.7280  212.9020  148.7710 C   0  0  0  0  0  3  0  0  0  0  0  0
  160.3020  205.2980  148.2860 O   0  0  0  0  0  0  0  0  0  0  0  0
  161.3430  203.0890  148.2070 C   0  0  2  0  0  3  0  0  0  0  0  0
  160.1940  209.6040  154.0850 C   0  0  0  0  0  3  0  0  0  0  0  0
  160.7390  209.1160  152.8820 C   0  0  0  0  0  0  0  0  0  0  0  0
  160.3210  211.3570  151.8780 C   0  0  0  0  0  2  0  0  0  0  0  0
  160.8060  207.3550  149.3980 C   0  0  0  0  0  2  0  0  0  0  0  0
  162.3290  209.9600  148.4720 O   0  0  0  0  0  0  0  0  0  0  0  0
  159.9710  214.4520  151.6040 C   0  0  0  0  0  1  0  0  0  0  0  0
  161.4260  209.4310  150.5780 N   0  0  0  0  0  0  0  0  0  0  0  0
  160.8320  212.2170  150.7590 C   0  0  0  0  0  0  0  0  0  0  0  0
  160.8700  201.9490  147.3210 C   0  0  0  0  0  2  0  0  0  0  0  0
  161.3930  200.6460  147.8210 C   0  0  0  0  0  0  0  0  0  0  0  0
  161.5740  200.4460  149.1830 O   0  0  0  0  0  1  0  0  0  0  0  0
  161.6420  199.7160  147.0110 O   0  0  0  0  0  0  0  0  0  0  0  0
  1 10  1  0  0  0  0
  2 24  1  6  0  0  0
  2 27  1  0  0  0  0
  2 12  1  0  0  0  0
  3  4  1  0  0  0  0
  5  6  1  0  0  0  0
  5 27  1  0  0  0  0
  6 28  2  0  0  0  0
  7 24  1  1  0  0  0
  7 17  1  0  0  0  0
  8 12  1  0  0  0  0
  9 28  1  0  0  0  0
  9 26  1  0  0  0  0
 11  3  2  0  0  0  0
 12 13  2  0  0  0  0
 13 22  1  0  0  0  0
 13 11  1  0  0  0  0
 14 23  1  0  0  0  0
 14 22  2  0  0  0  0
 15  9  1  0  0  0  0
 16 20  1  0  0  0  0
 16 19  1  0  0  0  0
 17 10  1  6  0  0  0
 17  8  1  0  0  0  0
 18 15  2  0  0  0  0
 18  6  1  0  0  0  0
 19  7  1  0  0  0  0
 20 29  1  6  0  0  0
 20  1  1  0  0  0  0
 21  4  2  0  0  0  0
 22 21  1  0  0  0  0
 25  5  2  0  0  0  0
 27 14  1  0  0  0  0
 28 23  1  0  0  0  0
 29 30  1  0  0  0  0
 30 31  1  0  0  0  0
 32 30  2  0  0  0  0
M  END
>  <MODEL>
2

>  <REMARK>
 VINA RESULT:      -8.3      1.084      1.245
  Name = 
  2 active torsions:
  status: ('A' for Active; 'I' for Inactive)
    1  A    between atoms: C_1  and  C_10
    2  A    between atoms: C_10  and  C_24
                            x       y       z     vdW  Elec       q    Type
                         _______ _______ _______ _____ _____    ______ ____

>  <TORSDO>
F 2

$$$$
=
 OpenBabel11062410363D

 32 37  0  0  1  0  0  0  0  0999 V2000
  161.6250  202.9320  148.0980 O   0  0  0  0  0  0  0  0  0  0  0  0
  160.6930  206.5820  151.6570 C   0  0  1  0  0  3  0  0  0  0  0  0
  162.2170  210.1310  148.5820 C   0  0  0  0  0  3  0  0  0  0  0  0
  162.6750  210.8870  149.6580 C   0  0  0  0  0  3  0  0  0  0  0  0
  160.6380  207.1720  154.0900 C   0  0  0  0  0  0  0  0  0  0  0  0
  160.9790  208.0920  155.1720 C   0  0  0  0  0  0  0  0  0  0  0  0
  161.1520  204.3570  150.5950 C   0  0  1  0  0  3  0  0  0  0  0  0
  160.4570  206.3140  149.1470 C   0  0  0  0  0  2  0  0  0  0  0  0
  161.8560  209.8460  156.1930 N   0  0  0  0  0  0  0  0  0  0  0  0
  160.8330  204.0880  148.1020 C   0  0  0  0  0  2  0  0  0  0  0  0
  161.5950  208.9050  148.8080 C   0  0  0  0  0  3  0  0  0  0  0  0
  160.8330  207.2060  150.2950 C   0  0  0  0  0  0  0  0  0  0  0  0
  161.4150  208.4090  150.1130 C   0  0  0  0  0  0  0  0  0  0  0  0
  161.7120  208.7570  152.4850 C   0  0  0  0  0  0  0  0  0  0  0  0
  161.2460  209.1630  157.2590 N   0  0  0  0  0  0  0  0  0  0  0  0
  161.1360  202.1280  150.3480 C   0  0  0  0  0  2  0  0  0  0  0  0
  161.2870  205.0320  149.2120 C   0  0  2  0  0  3  0  0  0  0  0  0
  160.6410  207.9800  156.6210 C   0  0  0  0  0  3  0  0  0  0  0  0
  161.9690  203.2180  150.6500 O   0  0  0  0  0  0  0  0  0  0  0  0
  160.9060  201.9750  148.8340 C   0  0  2  0  0  3  0  0  0  0  0  0
  162.5060  210.4160  150.9590 C   0  0  0  0  0  3  0  0  0  0  0  0
  161.8760  209.1820  151.2140 C   0  0  0  0  0  0  0  0  0  0  0  0
  162.2430  209.5880  153.6440 C   0  0  0  0  0  2  0  0  0  0  0  0
  161.5580  205.3220  151.7100 C   0  0  0  0  0  2  0  0  0  0  0  0
  159.9970  206.1150  154.3370 O   0  0  0  0  0  0  0  0  0  0  0  0
  162.5990  211.0810  156.3690 C   0  0  0  0  0  1  0  0  0  0  0  0
  161.0360  207.5000  152.7460 N   0  0  0  0  0  0  0  0  0  0  0  0
  161.6640  209.1790  154.9670 C   0  0  0  0  0  0  0  0  0  0  0  0
  161.3080  200.5750  148.4030 C   0  0  0  0  0  2  0  0  0  0  0  0
  161.1160  200.4030  146.9350 C   0  0  0  0  0  0  0  0  0  0  0  0
  160.4550  201.3790  146.2030 O   0  0  0  0  0  0  0  0  0  0  0  0
  161.5800  199.3880  146.3550 O   0  0  0  0  0  1  0  0  0  0  0  0
  1 10  1  0  0  0  0
  1 20  1  0  0  0  0
  2 24  1  6  0  0  0
  2 27  1  0  0  0  0
  3 11  2  0  0  0  0
  3  4  1  0  0  0  0
  4 21  2  0  0  0  0
  5 25  2  0  0  0  0
  5  6  1  0  0  0  0
  6 18  1  0  0  0  0
  7 19  1  0  0  0  0
  7 24  1  1  0  0  0
  8 17  1  0  0  0  0
  8 12  1  0  0  0  0
  9 26  1  0  0  0  0
  9 15  1  0  0  0  0
 11 13  1  0  0  0  0
 12  2  1  0  0  0  0
 13 12  2  0  0  0  0
 13 22  1  0  0  0  0
 14 27  1  0  0  0  0
 14 23  1  0  0  0  0
 16 19  1  0  0  0  0
 17 10  1  6  0  0  0
 17  7  1  0  0  0  0
 18 15  2  0  0  0  0
 20 29  1  6  0  0  0
 20 16  1  0  0  0  0
 21 22  1  0  0  0  0
 22 14  2  0  0  0  0
 23 28  1  0  0  0  0
 27  5  1  0  0  0  0
 28  6  2  0  0  0  0
 28  9  1  0  0  0  0
 30 29  1  0  0  0  0
 31 30  2  0  0  0  0
 32 30  1  0  0  0  0
M  END
>  <MODEL>
3

>  <REMARK>
 VINA RESULT:      -7.6      2.609      4.763
  Name = 
  2 active torsions:
  status: ('A' for Active; 'I' for Inactive)
    1  A    between atoms: C_1  and  C_10
    2  A    between atoms: C_10  and  C_24
                            x       y       z     vdW  Elec       q    Type
                         _______ _______ _______ _____ _____    ______ ____

>  <TORSDO>
F 2

$$$$
=
 OpenBabel11062410363D

 32 37  0  0  1  0  0  0  0  0999 V2000
  160.9450  203.1880  150.2930 O   0  0  0  0  0  0  0  0  0  0  0  0
  161.4270  208.2160  151.4530 C   0  0  1  0  0  3  0  0  0  0  0  0
  160.3430  207.3450  156.1900 C   0  0  0  0  0  3  0  0  0  0  0  0
  159.7530  208.6010  156.3010 C   0  0  0  0  0  3  0  0  0  0  0  0
  161.1670  210.5810  150.6730 C   0  0  0  0  0  0  0  0  0  0  0  0
  160.6950  211.9420  150.9120 C   0  0  0  0  0  0  0  0  0  0  0  0
  161.0960  206.0940  150.1570 C   0  0  1  0  0  3  0  0  0  0  0  0
  161.9890  205.9880  152.5240 C   0  0  0  0  0  2  0  0  0  0  0  0
  159.7030  213.6360  151.9290 N   0  0  0  0  0  0  0  0  0  0  0  0
  161.7380  203.8890  151.2120 C   0  0  0  0  0  2  0  0  0  0  0  0
  160.9220  206.9530  154.9850 C   0  0  0  0  0  3  0  0  0  0  0  0
  161.4720  207.3860  152.7070 C   0  0  0  0  0  0  0  0  0  0  0  0
  160.9260  207.8070  153.8660 C   0  0  0  0  0  0  0  0  0  0  0  0
  160.3240  209.9550  152.9400 C   0  0  0  0  0  0  0  0  0  0  0  0
  160.1630  214.2370  150.7450 N   0  0  0  0  0  0  0  0  0  0  0  0
  161.1300  204.7080  148.3950 C   0  0  0  0  0  2  0  0  0  0  0  0
  161.1490  205.2740  151.4650 C   0  0  2  0  0  3  0  0  0  0  0  0
  160.8390  213.1390  150.0310 C   0  0  0  0  0  3  0  0  0  0  0  0
  160.2720  205.4500  149.2240 O   0  0  0  0  0  0  0  0  0  0  0  0
  161.5550  203.3770  149.0420 C   0  0  2  0  0  3  0  0  0  0  0  0
  159.7480  209.4650  155.2060 C   0  0  0  0  0  3  0  0  0  0  0  0
  160.3300  209.0930  153.9790 C   0  0  0  0  0  0  0  0  0  0  0  0
  159.6510  211.3130  153.0770 C   0  0  0  0  0  2  0  0  0  0  0  0
  160.5550  207.5010  150.4210 C   0  0  0  0  0  2  0  0  0  0  0  0
  161.7640  210.2980  149.5990 O   0  0  0  0  0  0  0  0  0  0  0  0
  158.9520  214.3580  152.9410 C   0  0  0  0  0  1  0  0  0  0  0  0
  160.9510  209.5820  151.6860 N   0  0  0  0  0  0  0  0  0  0  0  0
  160.0490  212.2720  151.9930 C   0  0  0  0  0  0  0  0  0  0  0  0
  161.2030  202.2300  148.1100 C   0  0  0  0  0  2  0  0  0  0  0  0
  161.2300  202.6810  146.6910 C   0  0  0  0  0  0  0  0  0  0  0  0
  162.0840  203.7030  146.3020 O   0  0  0  0  0  1  0  0  0  0  0  0
  160.4990  202.1140  145.8370 O   0  0  0  0  0  0  0  0  0  0  0  0
  1 10  1  0  0  0  0
  2 24  1  6  0  0  0
  2 27  1  0  0  0  0
  2 12  1  0  0  0  0
  3  4  1  0  0  0  0
  5  6  1  0  0  0  0
  5 27  1  0  0  0  0
  6 28  2  0  0  0  0
  7 24  1  1  0  0  0
  7 17  1  0  0  0  0
  8 12  1  0  0  0  0
  9 28  1  0  0  0  0
  9 26  1  0  0  0  0
 11  3  2  0  0  0  0
 12 13  2  0  0  0  0
 13 22  1  0  0  0  0
 13 11  1  0  0  0  0
 14 23  1  0  0  0  0
 14 22  2  0  0  0  0
 15  9  1  0  0  0  0
 16 20  1  0  0  0  0
 16 19  1  0  0  0  0
 17 10  1  6  0  0  0
 17  8  1  0  0  0  0
 18 15  2  0  0  0  0
 18  6  1  0  0  0  0
 19  7  1  0  0  0  0
 20 29  1  6  0  0  0
 20  1  1  0  0  0  0
 21  4  2  0  0  0  0
 22 21  1  0  0  0  0
 25  5  2  0  0  0  0
 27 14  1  0  0  0  0
 28 23  1  0  0  0  0
 30 29  1  0  0  0  0
 31 30  1  0  0  0  0
 32 30  2  0  0  0  0
M  END
>  <MODEL>
4

>  <REMARK>
 VINA RESULT:      -7.4      1.419      1.826
  Name = 
  2 active torsions:
  status: ('A' for Active; 'I' for Inactive)
    1  A    between atoms: C_1  and  C_10
    2  A    between atoms: C_10  and  C_24
                            x       y       z     vdW  Elec       q    Type
                         _______ _______ _______ _____ _____    ______ ____

>  <TORSDO>
F 2

$$$$
=
 OpenBabel11062410363D

 32 37  0  0  1  0  0  0  0  0999 V2000
  159.6150  212.1390  155.0320 O   0  0  0  0  0  0  0  0  0  0  0  0
  161.4150  207.8510  152.7470 C   0  0  1  0  0  3  0  0  0  0  0  0
  162.3320  210.3210  148.5720 C   0  0  0  0  0  3  0  0  0  0  0  0
  162.0760  209.1770  147.8210 C   0  0  0  0  0  3  0  0  0  0  0  0
  161.2630  205.3590  152.5490 C   0  0  0  0  0  0  0  0  0  0  0  0
  161.1830  204.1630  151.7140 C   0  0  0  0  0  0  0  0  0  0  0  0
  160.1970  209.3740  154.3230 C   0  0  1  0  0  3  0  0  0  0  0  0
  161.9840  210.3200  152.7990 C   0  0  0  0  0  2  0  0  0  0  0  0
  161.0350  202.9240  149.8890 N   0  0  0  0  0  0  0  0  0  0  0  0
  160.8340  211.8180  154.4190 C   0  0  0  0  0  2  0  0  0  0  0  0
  162.2610  210.2710  149.9630 C   0  0  0  0  0  3  0  0  0  0  0  0
  161.8470  209.0700  151.9790 C   0  0  0  0  0  0  0  0  0  0  0  0
  161.9340  209.0770  150.6330 C   0  0  0  0  0  0  0  0  0  0  0  0
  161.3770  206.7330  150.4660 C   0  0  0  0  0  0  0  0  0  0  0  0
  161.0400  201.9500  150.9030 N   0  0  0  0  0  0  0  0  0  0  0  0
  159.2300  210.0500  156.2300 C   0  0  0  0  0  2  0  0  0  0  0  0
  160.6610  210.6040  153.5110 C   0  0  2  0  0  3  0  0  0  0  0  0
  161.1410  202.7350  152.1460 C   0  0  0  0  0  3  0  0  0  0  0  0
  158.9540  209.6370  154.9160 O   0  0  0  0  0  0  0  0  0  0  0  0
  159.6530  211.5290  156.2960 C   0  0  2  0  0  3  0  0  0  0  0  0
  161.7520  207.9830  148.4650 C   0  0  0  0  0  3  0  0  0  0  0  0
  161.6780  207.9060  149.8690 C   0  0  0  0  0  0  0  0  0  0  0  0
  161.0760  205.5010  149.6240 C   0  0  0  0  0  2  0  0  0  0  0  0
  160.0750  208.1440  153.4210 C   0  0  0  0  0  2  0  0  0  0  0  0
  161.2820  205.2530  153.8050 O   0  0  0  0  0  0  0  0  0  0  0  0
  160.9280  202.5950  148.4790 C   0  0  0  0  0  1  0  0  0  0  0  0
  161.3310  206.6480  151.9130 N   0  0  0  0  0  0  0  0  0  0  0  0
  161.1310  204.2270  150.4150 C   0  0  0  0  0  0  0  0  0  0  0  0
  158.7420  212.2690  157.2610 C   0  0  0  0  0  2  0  0  0  0  0  0
  157.5190  212.7530  156.5600 C   0  0  0  0  0  0  0  0  0  0  0  0
  156.4770  211.8750  156.2960 O   0  0  0  0  0  1  0  0  0  0  0  0
  157.4190  213.9640  156.2340 O   0  0  0  0  0  0  0  0  0  0  0  0
  1 20  1  0  0  0  0
  2 24  1  6  0  0  0
  3 11  2  0  0  0  0
  4 21  2  0  0  0  0
  4  3  1  0  0  0  0
  5 25  2  0  0  0  0
  6 18  1  0  0  0  0
  6  5  1  0  0  0  0
  7 24  1  6  0  0  0
  7 19  1  0  0  0  0
  9 28  1  0  0  0  0
  9 15  1  0  0  0  0
 10  1  1  0  0  0  0
 11 13  1  0  0  0  0
 12  2  1  0  0  0  0
 12  8  1  0  0  0  0
 13 12  2  0  0  0  0
 14 27  1  0  0  0  0
 15 18  2  0  0  0  0
 16 20  1  0  0  0  0
 17  8  1  1  0  0  0
 17  7  1  0  0  0  0
 17 10  1  0  0  0  0
 19 16  1  0  0  0  0
 20 29  1  1  0  0  0
 21 22  1  0  0  0  0
 22 14  2  0  0  0  0
 22 13  1  0  0  0  0
 23 28  1  0  0  0  0
 23 14  1  0  0  0  0
 26  9  1  0  0  0  0
 27  5  1  0  0  0  0
 27  2  1  0  0  0  0
 28  6  2  0  0  0  0
 30 29  1  0  0  0  0
 31 30  1  0  0  0  0
 32 30  2  0  0  0  0
M  END
>  <MODEL>
5

>  <REMARK>
 VINA RESULT:      -7.0      3.990      8.666
  Name = 
  2 active torsions:
  status: ('A' for Active; 'I' for Inactive)
    1  A    between atoms: C_1  and  C_10
    2  A    between atoms: C_10  and  C_24
                            x       y       z     vdW  Elec       q    Type
                         _______ _______ _______ _____ _____    ______ ____

>  <TORSDO>
F 2

$$$$
