=
 OpenBabel11052422513D

 28 30  0  0  1  0  0  0  0  0999 V2000
  161.0200  208.2560  153.1160 C   0  0  1  0  0  3  0  0  0  0  0  0
  160.2060  206.9830  156.4530 C   0  0  0  0  0  3  0  0  0  0  0  0
  160.8480  207.9280  154.5640 C   0  0  0  0  0  0  0  0  0  0  0  0
  161.1820  208.0230  156.8210 N   0  0  0  0  0  0  0  0  0  0  0  0
  160.0760  207.0040  155.0010 N   0  0  0  0  0  0  0  0  0  0  0  0
  161.5510  208.5800  155.5900 N   0  0  0  0  0  2  0  0  0  0  0  0
  161.3220  209.7400  152.8890 C   0  0  1  0  0  3  0  0  0  0  0  0
  162.4240  209.9670  151.8640 C   0  0  0  0  0  1  0  0  0  0  0  0
  160.1110  210.4320  152.4770 N   0  0  0  0  0  2  0  0  0  0  0  0
  160.2180  211.8190  152.9110 C   0  0  1  0  0  3  0  0  0  0  0  0
  160.2070  212.6500  151.8060 F   0  0  0  0  0  0  0  0  0  0  0  0
  157.9380  212.5990  153.2920 C   0  0  0  0  0  2  0  0  0  0  0  0
  159.0880  212.1840  153.8280 C   0  0  0  0  0  0  0  0  0  0  0  0
  159.2130  211.9590  155.3090 C   0  0  1  0  0  3  0  0  0  0  0  0
  158.5370  210.6630  155.7250 C   0  0  0  0  0  1  0  0  0  0  0  0
  160.6100  211.9350  155.7060 N   0  0  0  0  0  1  0  0  0  0  0  0
  162.0190  207.3250  152.4330 C   0  0  0  0  0  2  0  0  0  0  0  0
  161.2270  204.5340  152.1290 C   0  0  0  0  0  3  0  0  0  0  0  0
  160.3760  205.0510  149.7730 C   0  0  2  0  0  3  0  0  0  0  0  0
  161.4360  206.8010  151.1610 C   0  0  0  0  0  0  0  0  0  0  0  0
  160.9440  202.7460  150.4750 C   0  0  0  0  0  0  0  0  0  0  0  0
  161.0560  205.5170  151.0410 C   0  0  0  0  0  0  0  0  0  0  0  0
  161.0700  207.1780  148.7640 C   0  0  0  0  0  3  0  0  0  0  0  0
  160.6400  203.5990  149.4870 C   0  0  0  0  0  3  0  0  0  0  0  0
  160.6510  205.9260  148.5860 C   0  0  0  0  0  3  0  0  0  0  0  0
  161.1720  201.0510  150.1100 Cl  0  0  0  0  0  0  0  0  0  0  0  0
  161.1600  203.2280  151.8570 C   0  0  0  0  0  3  0  0  0  0  0  0
  161.3590  207.6560  150.0510 O   0  0  0  0  0  0  0  0  0  0  0  0
  1 17  1  1  0  0  0
  1  3  1  0  0  0  0
  2  4  2  0  0  0  0
  3  5  2  0  0  0  0
  3  6  1  0  0  0  0
  5  2  1  0  0  0  0
  6  4  1  0  0  0  0
  7  8  1  6  0  0  0
  7  1  1  0  0  0  0
  9  7  1  0  0  0  0
  9 10  1  0  0  0  0
 10 11  1  6  0  0  0
 10 13  1  0  0  0  0
 12 13  2  0  0  0  0
 13 14  1  0  0  0  0
 14 16  1  0  0  0  0
 14 15  1  6  0  0  0
 19 25  1  6  0  0  0
 19 22  1  0  0  0  0
 20 17  1  0  0  0  0
 21 27  1  0  0  0  0
 22 20  2  0  0  0  0
 22 18  1  0  0  0  0
 23 28  1  0  0  0  0
 24 19  1  0  0  0  0
 24 21  2  0  0  0  0
 25 23  2  0  0  0  0
 26 21  1  0  0  0  0
 27 18  2  0  0  0  0
 28 20  1  0  0  0  0
M  END
>  <MODEL>
1

>  <REMARK>
 VINA RESULT:      -7.7      0.000      0.000
  Name = 
  8 active torsions:
  status: ('A' for Active; 'I' for Inactive)
    1  A    between atoms: C_1  and  N_2
    2  A    between atoms: C_1  and  C_27
    3  A    between atoms: N_2  and  C_3
    4  A    between atoms: C_3  and  C_11
    5  A    between atoms: C_6  and  C_11
    6  A    between atoms: C_10  and  C_17
    7  A    between atoms: C_16  and  C_27
    8  A    between atoms: C_17  and  C_27
                            x       y       z     vdW  Elec       q    Type
                         _______ _______ _______ _____ _____    ______ ____

>  <TORSDO>
F 8

$$$$
=
 OpenBabel11052422513D

 28 30  0  0  1  0  0  0  0  0999 V2000
  161.2130  206.6160  151.4800 C   0  0  1  0  0  3  0  0  0  0  0  0
  162.4070  210.0250  150.8670 C   0  0  0  0  0  3  0  0  0  0  0  0
  161.4870  208.0810  151.3660 C   0  0  0  0  0  0  0  0  0  0  0  0
  161.1480  210.3300  151.5680 N   0  0  0  0  0  0  0  0  0  0  0  0
  162.5180  208.5730  150.7880 N   0  0  0  0  0  0  0  0  0  0  0  0
  160.6140  209.0670  151.8550 N   0  0  0  0  0  2  0  0  0  0  0  0
  160.9210  206.1900  152.9200 C   0  0  1  0  0  3  0  0  0  0  0  0
  161.2280  204.7210  153.1750 C   0  0  0  0  0  1  0  0  0  0  0  0
  161.6780  207.0210  153.8440 N   0  0  0  0  0  2  0  0  0  0  0  0
  160.7470  207.5600  154.8280 C   0  0  1  0  0  3  0  0  0  0  0  0
  160.2920  206.5380  155.6390 F   0  0  0  0  0  0  0  0  0  0  0  0
  161.8550  208.2820  156.8770 C   0  0  0  0  0  2  0  0  0  0  0  0
  161.4030  208.6160  155.6670 C   0  0  0  0  0  0  0  0  0  0  0  0
  161.6600  209.9840  155.0970 C   0  0  1  0  0  3  0  0  0  0  0  0
  160.4050  210.8390  155.1380 C   0  0  0  0  0  1  0  0  0  0  0  0
  162.7310  210.6460  155.8210 N   0  0  0  0  0  1  0  0  0  0  0  0
  160.1500  206.1540  150.4860 C   0  0  0  0  0  2  0  0  0  0  0  0
  161.1670  206.4160  147.7640 C   0  0  0  0  0  3  0  0  0  0  0  0
  161.7370  203.9220  147.7560 C   0  0  2  0  0  3  0  0  0  0  0  0
  160.6560  204.9800  149.7120 C   0  0  0  0  0  0  0  0  0  0  0  0
  161.4560  205.1990  145.6540 C   0  0  0  0  0  0  0  0  0  0  0  0
  161.1410  205.1170  148.4660 C   0  0  0  0  0  0  0  0  0  0  0  0
  160.7540  202.5350  149.5260 C   0  0  0  0  0  3  0  0  0  0  0  0
  161.5830  204.0130  146.2630 C   0  0  0  0  0  3  0  0  0  0  0  0
  161.2700  202.6050  148.2990 C   0  0  0  0  0  3  0  0  0  0  0  0
  161.3530  205.2660  143.9090 Cl  0  0  0  0  0  0  0  0  0  0  0  0
  161.3290  206.4480  146.4380 C   0  0  0  0  0  3  0  0  0  0  0  0
  160.5460  203.7010  150.2780 O   0  0  0  0  0  0  0  0  0  0  0  0
  1 17  1  6  0  0  0
  1  7  1  0  0  0  0
  2  4  2  0  0  0  0
  3  1  1  0  0  0  0
  3  6  1  0  0  0  0
  4  6  1  0  0  0  0
  5  2  1  0  0  0  0
  5  3  2  0  0  0  0
  7  8  1  6  0  0  0
  7  9  1  0  0  0  0
  9 10  1  0  0  0  0
 10 11  1  1  0  0  0
 10 13  1  0  0  0  0
 13 12  2  0  0  0  0
 14 15  1  1  0  0  0
 14 13  1  0  0  0  0
 14 16  1  0  0  0  0
 18 22  1  0  0  0  0
 19 24  1  6  0  0  0
 19 25  1  0  0  0  0
 19 22  1  0  0  0  0
 20 28  1  0  0  0  0
 20 17  1  0  0  0  0
 21 24  2  0  0  0  0
 21 27  1  0  0  0  0
 22 20  2  0  0  0  0
 23 28  1  0  0  0  0
 25 23  2  0  0  0  0
 26 21  1  0  0  0  0
 27 18  2  0  0  0  0
M  END
>  <MODEL>
2

>  <REMARK>
 VINA RESULT:      -7.2      2.732      4.612
  Name = 
  8 active torsions:
  status: ('A' for Active; 'I' for Inactive)
    1  A    between atoms: C_1  and  N_2
    2  A    between atoms: C_1  and  C_27
    3  A    between atoms: N_2  and  C_3
    4  A    between atoms: C_3  and  C_11
    5  A    between atoms: C_6  and  C_11
    6  A    between atoms: C_10  and  C_17
    7  A    between atoms: C_16  and  C_27
    8  A    between atoms: C_17  and  C_27
                            x       y       z     vdW  Elec       q    Type
                         _______ _______ _______ _____ _____    ______ ____

>  <TORSDO>
F 8

$$$$
=
 OpenBabel11052422513D

 28 30  0  0  1  0  0  0  0  0999 V2000
  161.4730  205.7320  149.8810 C   0  0  1  0  0  3  0  0  0  0  0  0
  160.7380  202.1770  150.3690 C   0  0  0  0  0  3  0  0  0  0  0  0
  161.2850  204.3150  150.3160 C   0  0  0  0  0  0  0  0  0  0  0  0
  161.4560  202.4510  151.6240 N   0  0  0  0  0  0  0  0  0  0  0  0
  160.6930  203.4230  149.6130 N   0  0  0  0  0  0  0  0  0  0  0  0
  161.7760  203.8110  151.5320 N   0  0  0  0  0  2  0  0  0  0  0  0
  161.6130  205.8600  148.3620 C   0  0  1  0  0  3  0  0  0  0  0  0
  162.3030  207.1490  147.9400 C   0  0  0  0  0  1  0  0  0  0  0  0
  162.3400  204.7140  147.8360 N   0  0  0  0  0  2  0  0  0  0  0  0
  162.5900  204.9540  146.4210 C   0  0  1  0  0  3  0  0  0  0  0  0
  163.8590  204.5100  146.0960 F   0  0  0  0  0  0  0  0  0  0  0  0
  161.3290  202.9600  145.8030 C   0  0  0  0  0  2  0  0  0  0  0  0
  161.5760  204.2500  145.5690 C   0  0  0  0  0  0  0  0  0  0  0  0
  160.7660  205.0220  144.5640 C   0  0  1  0  0  3  0  0  0  0  0  0
  160.0220  206.1690  145.2260 C   0  0  0  0  0  1  0  0  0  0  0  0
  161.6180  205.5330  143.5050 N   0  0  0  0  0  1  0  0  0  0  0  0
  160.4080  206.6570  150.4690 C   0  0  0  0  0  2  0  0  0  0  0  0
  160.6640  206.6760  153.3740 C   0  0  0  0  0  3  0  0  0  0  0  0
  161.9530  208.8810  153.2290 C   0  0  2  0  0  3  0  0  0  0  0  0
  161.0630  207.7840  151.1990 C   0  0  0  0  0  0  0  0  0  0  0  0
  160.8350  208.1640  155.3170 C   0  0  0  0  0  0  0  0  0  0  0  0
  161.1930  207.7710  152.5370 C   0  0  0  0  0  0  0  0  0  0  0  0
  161.8600  210.1020  151.1020 C   0  0  0  0  0  3  0  0  0  0  0  0
  161.4500  209.1300  154.6230 C   0  0  0  0  0  3  0  0  0  0  0  0
  162.0430  210.1420  152.4210 C   0  0  0  0  0  3  0  0  0  0  0  0
  160.3310  208.4710  156.9630 Cl  0  0  0  0  0  0  0  0  0  0  0  0
  160.5100  206.8640  154.6890 C   0  0  0  0  0  3  0  0  0  0  0  0
  161.4780  208.9090  150.4710 O   0  0  0  0  0  0  0  0  0  0  0  0
  1  3  1  0  0  0  0
  1 17  1  6  0  0  0
  2  4  2  0  0  0  0
  3  6  1  0  0  0  0
  5  3  2  0  0  0  0
  5  2  1  0  0  0  0
  6  4  1  0  0  0  0
  7  8  1  1  0  0  0
  7  1  1  0  0  0  0
  9  7  1  0  0  0  0
 10 11  1  6  0  0  0
 10  9  1  0  0  0  0
 13 12  2  0  0  0  0
 13 10  1  0  0  0  0
 14 15  1  1  0  0  0
 14 13  1  0  0  0  0
 16 14  1  0  0  0  0
 17 20  1  0  0  0  0
 18 27  2  0  0  0  0
 19 25  1  6  0  0  0
 19 24  1  0  0  0  0
 20 22  2  0  0  0  0
 21 26  1  0  0  0  0
 22 19  1  0  0  0  0
 22 18  1  0  0  0  0
 23 25  2  0  0  0  0
 24 21  2  0  0  0  0
 27 21  1  0  0  0  0
 28 23  1  0  0  0  0
 28 20  1  0  0  0  0
M  END
>  <MODEL>
3

>  <REMARK>
 VINA RESULT:      -7.1      4.506      7.786
  Name = 
  8 active torsions:
  status: ('A' for Active; 'I' for Inactive)
    1  A    between atoms: C_1  and  N_2
    2  A    between atoms: C_1  and  C_27
    3  A    between atoms: N_2  and  C_3
    4  A    between atoms: C_3  and  C_11
    5  A    between atoms: C_6  and  C_11
    6  A    between atoms: C_10  and  C_17
    7  A    between atoms: C_16  and  C_27
    8  A    between atoms: C_17  and  C_27
                            x       y       z     vdW  Elec       q    Type
                         _______ _______ _______ _____ _____    ______ ____

>  <TORSDO>
F 8

$$$$
=
 OpenBabel11052422513D

 28 30  0  0  1  0  0  0  0  0999 V2000
  161.3810  205.5340  149.6460 C   0  0  1  0  0  3  0  0  0  0  0  0
  160.6440  206.4860  146.1860 C   0  0  0  0  0  3  0  0  0  0  0  0
  161.3360  205.8750  148.1910 C   0  0  0  0  0  0  0  0  0  0  0  0
  162.0970  206.2750  146.0760 N   0  0  0  0  0  0  0  0  0  0  0  0
  160.2700  206.2120  147.5680 N   0  0  0  0  0  0  0  0  0  0  0  0
  162.4750  205.8950  147.3690 N   0  0  0  0  0  2  0  0  0  0  0  0
  161.2190  204.0330  149.8950 C   0  0  1  0  0  3  0  0  0  0  0  0
  160.5310  203.7260  151.2180 C   0  0  0  0  0  1  0  0  0  0  0  0
  160.4760  203.4280  148.7990 N   0  0  0  0  0  2  0  0  0  0  0  0
  160.6340  201.9830  148.8950 C   0  0  1  0  0  3  0  0  0  0  0  0
  159.4630  201.4220  149.3710 F   0  0  0  0  0  0  0  0  0  0  0  0
  161.6220  200.2240  147.5240 C   0  0  0  0  0  2  0  0  0  0  0  0
  160.9720  201.3890  147.5600 C   0  0  0  0  0  0  0  0  0  0  0  0
  160.4680  202.0320  146.2970 C   0  0  1  0  0  3  0  0  0  0  0  0
  161.5090  202.9660  145.7050 C   0  0  0  0  0  1  0  0  0  0  0  0
  160.1010  201.0210  145.3210 N   0  0  0  0  0  1  0  0  0  0  0  0
  162.6050  206.1320  150.3360 C   0  0  0  0  0  2  0  0  0  0  0  0
  161.8390  206.2680  153.1470 C   0  0  0  0  0  3  0  0  0  0  0  0
  161.6380  208.8100  152.9520 C   0  0  2  0  0  3  0  0  0  0  0  0
  162.2360  207.4210  150.9950 C   0  0  0  0  0  0  0  0  0  0  0  0
  160.5030  207.5510  154.7550 C   0  0  0  0  0  0  0  0  0  0  0  0
  161.9050  207.4730  152.2970 C   0  0  0  0  0  0  0  0  0  0  0  0
  161.5810  209.7660  150.6920 C   0  0  0  0  0  3  0  0  0  0  0  0
  160.6600  208.7010  154.0880 C   0  0  0  0  0  3  0  0  0  0  0  0
  161.2670  209.8920  151.9810 C   0  0  0  0  0  3  0  0  0  0  0  0
  159.4090  207.4860  156.1180 Cl  0  0  0  0  0  0  0  0  0  0  0  0
  161.1860  206.3150  154.3120 C   0  0  0  0  0  3  0  0  0  0  0  0
  162.1630  208.5830  150.2120 O   0  0  0  0  0  0  0  0  0  0  0  0
  1  7  1  0  0  0  0
  1 17  1  6  0  0  0
  2  5  1  0  0  0  0
  3  1  1  0  0  0  0
  4  2  2  0  0  0  0
  4  6  1  0  0  0  0
  5  3  2  0  0  0  0
  6  3  1  0  0  0  0
  7  8  1  1  0  0  0
  9 10  1  0  0  0  0
  9  7  1  0  0  0  0
 10 11  1  6  0  0  0
 12 13  2  0  0  0  0
 13 10  1  0  0  0  0
 14 15  1  6  0  0  0
 14 13  1  0  0  0  0
 16 14  1  0  0  0  0
 17 20  1  0  0  0  0
 18 27  2  0  0  0  0
 19 25  1  6  0  0  0
 19 24  1  0  0  0  0
 20 22  2  0  0  0  0
 21 26  1  0  0  0  0
 22 19  1  0  0  0  0
 22 18  1  0  0  0  0
 23 25  2  0  0  0  0
 24 21  2  0  0  0  0
 27 21  1  0  0  0  0
 28 23  1  0  0  0  0
 28 20  1  0  0  0  0
M  END
>  <MODEL>
4

>  <REMARK>
 VINA RESULT:      -7.1      4.811      8.492
  Name = 
  8 active torsions:
  status: ('A' for Active; 'I' for Inactive)
    1  A    between atoms: C_1  and  N_2
    2  A    between atoms: C_1  and  C_27
    3  A    between atoms: N_2  and  C_3
    4  A    between atoms: C_3  and  C_11
    5  A    between atoms: C_6  and  C_11
    6  A    between atoms: C_10  and  C_17
    7  A    between atoms: C_16  and  C_27
    8  A    between atoms: C_17  and  C_27
                            x       y       z     vdW  Elec       q    Type
                         _______ _______ _______ _____ _____    ______ ____

>  <TORSDO>
F 8

$$$$
=
 OpenBabel11052422513D

 28 30  0  0  1  0  0  0  0  0999 V2000
  161.2230  206.1130  151.3630 C   0  0  1  0  0  3  0  0  0  0  0  0
  162.3960  207.8880  148.3800 C   0  0  0  0  0  3  0  0  0  0  0  0
  161.4640  206.7800  150.0470 C   0  0  0  0  0  0  0  0  0  0  0  0
  161.0770  207.4460  147.8980 N   0  0  0  0  0  0  0  0  0  0  0  0
  162.5400  207.4060  149.7490 N   0  0  0  0  0  0  0  0  0  0  0  0
  160.5400  206.7540  148.9900 N   0  0  0  0  0  2  0  0  0  0  0  0
  161.3220  204.5890  151.2670 C   0  0  1  0  0  3  0  0  0  0  0  0
  160.9650  203.8920  152.5720 C   0  0  0  0  0  1  0  0  0  0  0  0
  160.4640  204.1040  150.1970 N   0  0  0  0  0  2  0  0  0  0  0  0
  160.9690  202.8050  149.7710 C   0  0  1  0  0  3  0  0  0  0  0  0
  160.0970  201.8150  150.1850 F   0  0  0  0  0  0  0  0  0  0  0  0
  161.7550  203.7520  147.6650 C   0  0  0  0  0  2  0  0  0  0  0  0
  161.1230  202.7510  148.2800 C   0  0  0  0  0  0  0  0  0  0  0  0
  160.6890  201.5290  147.5190 C   0  0  1  0  0  3  0  0  0  0  0  0
  160.7250  201.7740  146.0200 C   0  0  0  0  0  1  0  0  0  0  0  0
  161.5320  200.3940  147.8520 N   0  0  0  0  0  1  0  0  0  0  0  0
  162.0880  206.7060  152.4720 C   0  0  0  0  0  2  0  0  0  0  0  0
  160.8020  209.3210  152.3270 C   0  0  0  0  0  3  0  0  0  0  0  0
  159.6610  208.8640  154.5710 C   0  0  2  0  0  3  0  0  0  0  0  0
  161.2180  207.2240  153.5720 C   0  0  0  0  0  0  0  0  0  0  0  0
  159.9480  211.1640  153.7020 C   0  0  0  0  0  0  0  0  0  0  0  0
  160.6150  208.4220  153.4830 C   0  0  0  0  0  0  0  0  0  0  0  0
  160.5190  206.9960  155.9120 C   0  0  0  0  0  3  0  0  0  0  0  0
  159.6280  210.3590  154.7240 C   0  0  0  0  0  3  0  0  0  0  0  0
  159.8730  208.1610  155.8790 C   0  0  0  0  0  3  0  0  0  0  0  0
  159.8260  212.8970  153.8990 Cl  0  0  0  0  0  0  0  0  0  0  0  0
  160.4730  210.6120  152.4340 C   0  0  0  0  0  3  0  0  0  0  0  0
  161.0980  206.4690  154.7480 O   0  0  0  0  0  0  0  0  0  0  0  0
  1 17  1  1  0  0  0
  2  5  1  0  0  0  0
  3  1  1  0  0  0  0
  4  2  2  0  0  0  0
  4  6  1  0  0  0  0
  5  3  2  0  0  0  0
  6  3  1  0  0  0  0
  7  1  1  0  0  0  0
  7  8  1  1  0  0  0
  9  7  1  0  0  0  0
 10 11  1  6  0  0  0
 10  9  1  0  0  0  0
 12 13  2  0  0  0  0
 13 10  1  0  0  0  0
 14 15  1  6  0  0  0
 14 16  1  0  0  0  0
 14 13  1  0  0  0  0
 17 20  1  0  0  0  0
 18 27  2  0  0  0  0
 18 22  1  0  0  0  0
 19 24  1  1  0  0  0
 19 25  1  0  0  0  0
 20 28  1  0  0  0  0
 21 26  1  0  0  0  0
 21 24  2  0  0  0  0
 22 20  2  0  0  0  0
 22 19  1  0  0  0  0
 25 23  2  0  0  0  0
 27 21  1  0  0  0  0
 28 23  1  0  0  0  0
M  END
>  <MODEL>
5

>  <REMARK>
 VINA RESULT:      -7.0      4.459      8.380
  Name = 
  8 active torsions:
  status: ('A' for Active; 'I' for Inactive)
    1  A    between atoms: C_1  and  N_2
    2  A    between atoms: C_1  and  C_27
    3  A    between atoms: N_2  and  C_3
    4  A    between atoms: C_3  and  C_11
    5  A    between atoms: C_6  and  C_11
    6  A    between atoms: C_10  and  C_17
    7  A    between atoms: C_16  and  C_27
    8  A    between atoms: C_17  and  C_27
                            x       y       z     vdW  Elec       q    Type
                         _______ _______ _______ _____ _____    ______ ____

>  <TORSDO>
F 8

$$$$
=
 OpenBabel11052422513D

 28 30  0  0  1  0  0  0  0  0999 V2000
  161.6680  205.9490  148.4990 C   0  0  1  0  0  3  0  0  0  0  0  0
  161.9850  205.9380  144.8490 C   0  0  0  0  0  3  0  0  0  0  0  0
  161.5460  206.0240  147.0110 C   0  0  0  0  0  0  0  0  0  0  0  0
  160.5620  206.2950  144.9690 N   0  0  0  0  0  0  0  0  0  0  0  0
  162.5080  205.7830  146.2010 N   0  0  0  0  0  0  0  0  0  0  0  0
  160.3450  206.3320  146.3520 N   0  0  0  0  0  2  0  0  0  0  0  0
  161.9710  207.3120  149.1260 C   0  0  1  0  0  3  0  0  0  0  0  0
  161.8340  208.4600  148.1360 C   0  0  0  0  0  1  0  0  0  0  0  0
  161.0970  207.5350  150.2680 N   0  0  0  0  0  2  0  0  0  0  0  0
  161.9350  207.8530  151.4170 C   0  0  1  0  0  3  0  0  0  0  0  0
  162.7780  208.9000  151.0960 F   0  0  0  0  0  0  0  0  0  0  0  0
  160.5300  209.4320  152.6350 C   0  0  0  0  0  2  0  0  0  0  0  0
  161.0980  208.2250  152.6050 C   0  0  0  0  0  0  0  0  0  0  0  0
  160.8040  207.2070  153.6720 C   0  0  1  0  0  3  0  0  0  0  0  0
  161.4910  205.8850  153.3720 C   0  0  0  0  0  1  0  0  0  0  0  0
  161.2240  207.6950  154.9740 N   0  0  0  0  0  1  0  0  0  0  0  0
  160.4720  205.2440  149.1360 C   0  0  0  0  0  2  0  0  0  0  0  0
  161.1210  203.1630  147.1970 C   0  0  0  0  0  3  0  0  0  0  0  0
  161.6670  201.5660  149.1190 C   0  0  2  0  0  3  0  0  0  0  0  0
  160.8620  203.8630  149.5550 C   0  0  0  0  0  0  0  0  0  0  0  0
  161.1190  200.7340  146.8540 C   0  0  0  0  0  0  0  0  0  0  0  0
  161.1780  202.9200  148.6520 C   0  0  0  0  0  0  0  0  0  0  0  0
  160.9170  202.2090  151.3660 C   0  0  0  0  0  3  0  0  0  0  0  0
  161.3170  200.4710  148.1520 C   0  0  0  0  0  3  0  0  0  0  0  0
  161.2660  201.2350  150.5270 C   0  0  0  0  0  3  0  0  0  0  0  0
  160.7860  199.4210  145.7480 Cl  0  0  0  0  0  0  0  0  0  0  0  0
  161.1060  202.1270  146.3530 C   0  0  0  0  0  3  0  0  0  0  0  0
  160.8190  203.5360  150.9180 O   0  0  0  0  0  0  0  0  0  0  0  0
  1  7  1  0  0  0  0
  1 17  1  1  0  0  0
  2  4  2  0  0  0  0
  2  5  1  0  0  0  0
  3  1  1  0  0  0  0
  4  6  1  0  0  0  0
  5  3  2  0  0  0  0
  6  3  1  0  0  0  0
  7  8  1  6  0  0  0
  7  9  1  0  0  0  0
  9 10  1  0  0  0  0
 10 11  1  6  0  0  0
 10 13  1  0  0  0  0
 13 12  2  0  0  0  0
 13 14  1  0  0  0  0
 14 15  1  6  0  0  0
 14 16  1  0  0  0  0
 17 20  1  0  0  0  0
 18 22  1  0  0  0  0
 19 24  1  6  0  0  0
 19 25  1  0  0  0  0
 20 28  1  0  0  0  0
 21 24  2  0  0  0  0
 22 19  1  0  0  0  0
 22 20  2  0  0  0  0
 25 23  2  0  0  0  0
 26 21  1  0  0  0  0
 27 21  1  0  0  0  0
 27 18  2  0  0  0  0
 28 23  1  0  0  0  0
M  END
>  <MODEL>
6

>  <REMARK>
 VINA RESULT:      -6.9      3.561      5.986
  Name = 
  8 active torsions:
  status: ('A' for Active; 'I' for Inactive)
    1  A    between atoms: C_1  and  N_2
    2  A    between atoms: C_1  and  C_27
    3  A    between atoms: N_2  and  C_3
    4  A    between atoms: C_3  and  C_11
    5  A    between atoms: C_6  and  C_11
    6  A    between atoms: C_10  and  C_17
    7  A    between atoms: C_16  and  C_27
    8  A    between atoms: C_17  and  C_27
                            x       y       z     vdW  Elec       q    Type
                         _______ _______ _______ _____ _____    ______ ____

>  <TORSDO>
F 8

$$$$
=
 OpenBabel11052422513D

 28 30  0  0  1  0  0  0  0  0999 V2000
  161.2310  208.5910  151.9940 C   0  0  1  0  0  3  0  0  0  0  0  0
  160.4180  207.4130  155.3660 C   0  0  0  0  0  3  0  0  0  0  0  0
  160.8360  208.3620  153.4180 C   0  0  0  0  0  0  0  0  0  0  0  0
  160.1760  208.8550  155.5470 N   0  0  0  0  0  0  0  0  0  0  0  0
  160.8370  207.2140  153.9840 N   0  0  0  0  0  0  0  0  0  0  0  0
  160.4590  209.3980  154.2880 N   0  0  0  0  0  2  0  0  0  0  0  0
  161.5790  210.0550  151.7160 C   0  0  1  0  0  3  0  0  0  0  0  0
  163.0800  210.3090  151.6900 C   0  0  0  0  0  1  0  0  0  0  0  0
  160.9850  210.4730  150.4560 N   0  0  0  0  0  2  0  0  0  0  0  0
  162.0350  211.0690  149.6400 C   0  0  1  0  0  3  0  0  0  0  0  0
  162.4040  210.1820  148.6460 F   0  0  0  0  0  0  0  0  0  0  0  0
  160.7530  213.1420  149.7230 C   0  0  0  0  0  2  0  0  0  0  0  0
  161.5730  212.3550  149.0230 C   0  0  0  0  0  0  0  0  0  0  0  0
  162.1320  212.8030  147.7010 C   0  0  1  0  0  3  0  0  0  0  0  0
  161.0630  212.7920  146.6220 C   0  0  0  0  0  1  0  0  0  0  0  0
  162.7050  214.1340  147.8130 N   0  0  0  0  0  1  0  0  0  0  0  0
  162.3130  207.6150  151.5370 C   0  0  0  0  0  2  0  0  0  0  0  0
  161.1170  204.9550  151.5270 C   0  0  0  0  0  3  0  0  0  0  0  0
  160.8090  205.1220  148.9930 C   0  0  2  0  0  3  0  0  0  0  0  0
  161.8880  206.9420  150.2720 C   0  0  0  0  0  0  0  0  0  0  0  0
  160.8330  202.9390  150.1590 C   0  0  0  0  0  0  0  0  0  0  0  0
  161.3190  205.7250  150.2830 C   0  0  0  0  0  0  0  0  0  0  0  0
  162.0320  206.8990  147.8230 C   0  0  0  0  0  3  0  0  0  0  0  0
  160.8650  203.6200  149.0060 C   0  0  0  0  0  3  0  0  0  0  0  0
  161.4420  205.7060  147.7650 C   0  0  0  0  0  3  0  0  0  0  0  0
  160.8260  201.1900  150.1280 Cl  0  0  0  0  0  0  0  0  0  0  0  0
  160.8760  203.6420  151.4600 C   0  0  0  0  0  3  0  0  0  0  0  0
  162.1620  207.5710  149.0480 O   0  0  0  0  0  0  0  0  0  0  0  0
  1 17  1  1  0  0  0
  1  3  1  0  0  0  0
  2  4  2  0  0  0  0
  3  5  2  0  0  0  0
  3  6  1  0  0  0  0
  5  2  1  0  0  0  0
  6  4  1  0  0  0  0
  7  8  1  6  0  0  0
  7  1  1  0  0  0  0
  9  7  1  0  0  0  0
 10 11  1  6  0  0  0
 10  9  1  0  0  0  0
 13 10  1  0  0  0  0
 13 12  2  0  0  0  0
 14 15  1  6  0  0  0
 14 16  1  0  0  0  0
 14 13  1  0  0  0  0
 19 25  1  6  0  0  0
 19 24  1  0  0  0  0
 19 22  1  0  0  0  0
 20 22  2  0  0  0  0
 20 17  1  0  0  0  0
 21 27  1  0  0  0  0
 22 18  1  0  0  0  0
 23 28  1  0  0  0  0
 24 21  2  0  0  0  0
 25 23  2  0  0  0  0
 26 21  1  0  0  0  0
 27 18  2  0  0  0  0
 28 20  1  0  0  0  0
M  END
>  <MODEL>
7

>  <REMARK>
 VINA RESULT:      -6.9      2.560      3.525
  Name = 
  8 active torsions:
  status: ('A' for Active; 'I' for Inactive)
    1  A    between atoms: C_1  and  N_2
    2  A    between atoms: C_1  and  C_27
    3  A    between atoms: N_2  and  C_3
    4  A    between atoms: C_3  and  C_11
    5  A    between atoms: C_6  and  C_11
    6  A    between atoms: C_10  and  C_17
    7  A    between atoms: C_16  and  C_27
    8  A    between atoms: C_17  and  C_27
                            x       y       z     vdW  Elec       q    Type
                         _______ _______ _______ _____ _____    ______ ____

>  <TORSDO>
F 8

$$$$
=
 OpenBabel11052422513D

 28 30  0  0  1  0  0  0  0  0999 V2000
  161.2580  205.4710  149.2230 C   0  0  1  0  0  3  0  0  0  0  0  0
  160.7520  202.2290  150.8540 C   0  0  0  0  0  3  0  0  0  0  0  0
  161.2060  204.2460  150.0780 C   0  0  0  0  0  0  0  0  0  0  0  0
  161.6910  202.8390  151.8100 N   0  0  0  0  0  0  0  0  0  0  0  0
  160.5190  203.2030  149.7940 N   0  0  0  0  0  0  0  0  0  0  0  0
  161.9410  204.1050  151.2670 N   0  0  0  0  0  2  0  0  0  0  0  0
  161.0390  205.1540  147.7420 C   0  0  1  0  0  3  0  0  0  0  0  0
  160.8860  206.4050  146.8880 C   0  0  0  0  0  1  0  0  0  0  0  0
  162.1410  204.3460  147.2420 N   0  0  0  0  0  2  0  0  0  0  0  0
  162.0600  204.3270  145.7870 C   0  0  1  0  0  3  0  0  0  0  0  0
  163.2770  203.9340  145.2630 F   0  0  0  0  0  0  0  0  0  0  0  0
  160.0340  203.8640  144.5110 C   0  0  0  0  0  2  0  0  0  0  0  0
  160.9840  203.3920  145.3200 C   0  0  0  0  0  0  0  0  0  0  0  0
  161.0570  201.9280  145.6550 C   0  0  1  0  0  3  0  0  0  0  0  0
  160.8320  201.6930  147.1390 C   0  0  0  0  0  1  0  0  0  0  0  0
  160.0790  201.1790  144.8850 N   0  0  0  0  0  1  0  0  0  0  0  0
  160.3400  206.5730  149.7470 C   0  0  0  0  0  2  0  0  0  0  0  0
  160.8520  207.4000  152.4970 C   0  0  0  0  0  3  0  0  0  0  0  0
  162.2930  209.3280  151.6320 C   0  0  2  0  0  3  0  0  0  0  0  0
  161.1440  207.7900  150.0720 C   0  0  0  0  0  0  0  0  0  0  0  0
  161.3100  209.3570  153.9030 C   0  0  0  0  0  0  0  0  0  0  0  0
  161.3900  208.1480  151.3440 C   0  0  0  0  0  0  0  0  0  0  0  0
  162.1110  209.8890  149.2490 C   0  0  0  0  0  3  0  0  0  0  0  0
  161.9370  210.0160  152.9190 C   0  0  0  0  0  3  0  0  0  0  0  0
  162.4120  210.2870  150.4850 C   0  0  0  0  0  3  0  0  0  0  0  0
  160.9790  210.1730  155.4130 Cl  0  0  0  0  0  0  0  0  0  0  0  0
  160.8290  207.9720  153.7050 C   0  0  0  0  0  3  0  0  0  0  0  0
  161.5820  208.6100  149.0220 O   0  0  0  0  0  0  0  0  0  0  0  0
  1 17  1  1  0  0  0
  1  3  1  0  0  0  0
  2  4  2  0  0  0  0
  3  6  1  0  0  0  0
  5  3  2  0  0  0  0
  5  2  1  0  0  0  0
  6  4  1  0  0  0  0
  7  8  1  6  0  0  0
  7  1  1  0  0  0  0
  9  7  1  0  0  0  0
 10 11  1  6  0  0  0
 10  9  1  0  0  0  0
 12 13  2  0  0  0  0
 13 14  1  0  0  0  0
 13 10  1  0  0  0  0
 14 15  1  1  0  0  0
 16 14  1  0  0  0  0
 17 20  1  0  0  0  0
 18 27  2  0  0  0  0
 19 25  1  6  0  0  0
 19 24  1  0  0  0  0
 20 22  2  0  0  0  0
 21 26  1  0  0  0  0
 22 19  1  0  0  0  0
 22 18  1  0  0  0  0
 23 25  2  0  0  0  0
 24 21  2  0  0  0  0
 27 21  1  0  0  0  0
 28 23  1  0  0  0  0
 28 20  1  0  0  0  0
M  END
>  <MODEL>
8

>  <REMARK>
 VINA RESULT:      -6.9      4.809      8.188
  Name = 
  8 active torsions:
  status: ('A' for Active; 'I' for Inactive)
    1  A    between atoms: C_1  and  N_2
    2  A    between atoms: C_1  and  C_27
    3  A    between atoms: N_2  and  C_3
    4  A    between atoms: C_3  and  C_11
    5  A    between atoms: C_6  and  C_11
    6  A    between atoms: C_10  and  C_17
    7  A    between atoms: C_16  and  C_27
    8  A    between atoms: C_17  and  C_27
                            x       y       z     vdW  Elec       q    Type
                         _______ _______ _______ _____ _____    ______ ____

>  <TORSDO>
F 8

$$$$
=
 OpenBabel11052422513D

 28 30  0  0  1  0  0  0  0  0999 V2000
  161.0690  208.2670  153.0930 C   0  0  1  0  0  3  0  0  0  0  0  0
  161.0450  208.2150  156.7560 C   0  0  0  0  0  3  0  0  0  0  0  0
  160.9130  208.0290  154.5610 C   0  0  0  0  0  0  0  0  0  0  0  0
  160.1670  207.0640  156.4910 N   0  0  0  0  0  0  0  0  0  0  0  0
  161.4540  208.7550  155.4650 N   0  0  0  0  0  0  0  0  0  0  0  0
  160.1210  206.9980  155.0930 N   0  0  0  0  0  2  0  0  0  0  0  0
  161.0590  209.7570  152.7430 C   0  0  1  0  0  3  0  0  0  0  0  0
  161.8010  210.0640  151.4500 C   0  0  0  0  0  1  0  0  0  0  0  0
  159.6870  210.2330  152.6510 N   0  0  0  0  0  2  0  0  0  0  0  0
  159.5250  211.3220  153.6050 C   0  0  1  0  0  3  0  0  0  0  0  0
  160.7640  211.6910  154.0970 F   0  0  0  0  0  0  0  0  0  0  0  0
  159.1650  212.7980  151.6980 C   0  0  0  0  0  2  0  0  0  0  0  0
  158.8630  212.5060  152.9640 C   0  0  0  0  0  0  0  0  0  0  0  0
  157.7880  213.2590  153.6960 C   0  0  1  0  0  3  0  0  0  0  0  0
  158.3700  214.0820  154.8320 C   0  0  0  0  0  1  0  0  0  0  0  0
  157.0590  214.1240  152.7840 N   0  0  0  0  0  1  0  0  0  0  0  0
  162.2690  207.5200  152.5170 C   0  0  0  0  0  2  0  0  0  0  0  0
  162.1860  207.2840  149.6100 C   0  0  0  0  0  3  0  0  0  0  0  0
  161.4220  204.8540  149.8470 C   0  0  2  0  0  3  0  0  0  0  0  0
  161.8100  206.2710  151.8360 C   0  0  0  0  0  0  0  0  0  0  0  0
  161.0370  206.1420  147.7690 C   0  0  0  0  0  0  0  0  0  0  0  0
  161.7960  206.1690  150.4960 C   0  0  0  0  0  0  0  0  0  0  0  0
  160.6310  204.1310  152.0550 C   0  0  0  0  0  3  0  0  0  0  0  0
  160.7880  205.0470  148.4980 C   0  0  0  0  0  3  0  0  0  0  0  0
  160.6140  203.9540  150.7340 C   0  0  0  0  0  3  0  0  0  0  0  0
  160.3380  206.2940  146.1730 Cl  0  0  0  0  0  0  0  0  0  0  0  0
  161.8350  207.2590  148.3210 C   0  0  0  0  0  3  0  0  0  0  0  0
  161.3130  205.2190  152.6190 O   0  0  0  0  0  0  0  0  0  0  0  0
  1 17  1  1  0  0  0
  1  3  1  0  0  0  0
  3  6  1  0  0  0  0
  3  5  2  0  0  0  0
  4  2  2  0  0  0  0
  5  2  1  0  0  0  0
  6  4  1  0  0  0  0
  7  8  1  6  0  0  0
  7  1  1  0  0  0  0
  9  7  1  0  0  0  0
  9 10  1  0  0  0  0
 10 11  1  6  0  0  0
 12 13  2  0  0  0  0
 13 10  1  0  0  0  0
 13 14  1  0  0  0  0
 14 15  1  1  0  0  0
 16 14  1  0  0  0  0
 18 22  1  0  0  0  0
 19 24  1  6  0  0  0
 19 22  1  0  0  0  0
 19 25  1  0  0  0  0
 20 17  1  0  0  0  0
 20 28  1  0  0  0  0
 21 27  1  0  0  0  0
 21 24  2  0  0  0  0
 22 20  2  0  0  0  0
 23 28  1  0  0  0  0
 25 23  2  0  0  0  0
 26 21  1  0  0  0  0
 27 18  2  0  0  0  0
M  END
>  <MODEL>
9

>  <REMARK>
 VINA RESULT:      -6.7      1.996      2.848
  Name = 
  8 active torsions:
  status: ('A' for Active; 'I' for Inactive)
    1  A    between atoms: C_1  and  N_2
    2  A    between atoms: C_1  and  C_27
    3  A    between atoms: N_2  and  C_3
    4  A    between atoms: C_3  and  C_11
    5  A    between atoms: C_6  and  C_11
    6  A    between atoms: C_10  and  C_17
    7  A    between atoms: C_16  and  C_27
    8  A    between atoms: C_17  and  C_27
                            x       y       z     vdW  Elec       q    Type
                         _______ _______ _______ _____ _____    ______ ____

>  <TORSDO>
F 8

$$$$
