=
 OpenBabel11062409043D

 37 42  0  0  1  0  0  0  0  0999 V2000
  156.1340  211.3330  139.9920 C   0  0  0  0  0  2  0  0  0  0  0  0
  160.8290  212.4170  140.3530 C   0  0  0  0  0  0  0  0  0  0  0  0
  154.9290  210.5330  139.5090 C   0  0  0  0  0  2  0  0  0  0  0  0
  159.6630  210.2960  137.4770 O   0  0  0  0  0  0  0  0  0  0  0  0
  159.0220  213.0260  141.8890 C   0  0  0  0  0  2  0  0  0  0  0  0
  159.8860  211.5150  139.6010 C   0  0  2  0  0  3  0  0  0  0  0  0
  155.6770  208.7120  137.9670 C   0  0  2  0  0  3  0  0  0  0  0  0
  160.4170  213.1230  141.4230 C   0  0  0  0  0  0  0  0  0  0  0  0
  160.4810  211.1640  138.2130 C   0  0  1  0  0  3  0  0  0  0  0  0
  161.3350  213.9860  141.7690 O   0  0  0  0  0  0  0  0  0  0  0  0
  155.2280  209.0470  139.3900 C   0  0  2  0  0  3  0  0  0  0  0  0
  158.1260  213.0460  140.6300 C   0  0  2  0  0  3  0  0  0  0  0  0
  162.7910  212.8110  138.7480 C   0  0  0  0  0  2  0  0  0  0  0  0
  162.3470  213.9240  140.9480 N   0  0  0  0  0  0  0  0  0  0  0  0
  157.1110  209.1500  137.6970 C   0  0  0  0  0  2  0  0  0  0  0  0
  158.5710  211.0310  137.0110 C   0  0  0  0  0  2  0  0  0  0  0  0
  162.0600  212.9670  140.0410 C   0  0  0  0  0  0  0  0  0  0  0  0
  158.5140  212.1110  139.5250 N   0  0  2  0  0  0  0  0  0  0  0  0
  161.8070  210.5420  138.3920 N   0  0  0  0  0  0  0  0  0  0  0  0
  157.3430  210.6590  137.8340 C   0  0  2  0  0  3  0  0  0  0  0  0
  154.8080  209.2480  137.0110 O   0  0  0  0  0  1  0  0  0  0  0  0
  157.5050  211.0330  139.3260 C   0  0  2  0  0  3  0  0  0  0  0  0
  163.0320  211.3460  138.4040 C   0  0  0  0  0  2  0  0  0  0  0  0
  161.9380  208.7300  140.0540 C   0  0  0  0  0  3  0  0  0  0  0  0
  161.9410  209.1450  138.7150 C   0  0  0  0  0  0  0  0  0  0  0  0
  162.1220  208.1880  137.7050 C   0  0  0  0  0  3  0  0  0  0  0  0
  162.4600  205.9230  137.0450 F   0  0  0  0  0  0  0  0  0  0  0  0
  162.2700  206.4340  139.3630 C   0  0  0  0  0  3  0  0  0  0  0  0
  162.2820  206.8380  138.0260 C   0  0  0  0  0  0  0  0  0  0  0  0
  162.0980  207.3790  140.3760 C   0  0  0  0  0  3  0  0  0  0  0  0
  153.0530  209.0640  140.3720 O   0  0  0  0  0  1  0  0  0  0  0  0
  153.9860  208.2430  139.7360 C   0  0  0  0  0  2  0  0  0  0  0  0
  157.9860  214.4530  140.0700 C   0  0  0  0  0  2  0  0  0  0  0  0
  157.3550  214.4320  138.7240 C   0  0  0  0  0  0  0  0  0  0  0  0
  158.0830  214.3580  137.7000 O   0  0  0  0  0  0  0  0  0  0  0  0
  155.9660  214.4440  138.6150 O   0  0  0  0  0  0  0  0  0  0  0  0
  155.3100  214.2010  137.3780 C   0  0  0  0  0  1  0  0  0  0  0  0
  2  8  2  0  0  0  0
  3  1  1  0  0  0  0
  6  2  1  6  0  0  0
  7 21  1  6  0  0  0
  7 11  1  0  0  0  0
  8 10  1  0  0  0  0
  8  5  1  0  0  0  0
  9  4  1  1  0  0  0
  9 19  1  0  0  0  0
  9  6  1  0  0  0  0
 11  3  1  0  0  0  0
 11 32  1  6  0  0  0
 12 33  1  6  0  0  0
 12  5  1  0  0  0  0
 13 17  1  0  0  0  0
 14 10  1  0  0  0  0
 15 20  1  0  0  0  0
 15  7  1  0  0  0  0
 16  4  1  0  0  0  0
 16 20  1  0  0  0  0
 17  2  1  0  0  0  0
 17 14  2  0  0  0  0
 18  6  1  0  0  0  0
 18 12  1  0  0  0  0
 19 23  1  0  0  0  0
 19 25  1  0  0  0  0
 20 22  1  0  0  0  0
 22 18  1  0  0  0  0
 22  1  1  0  0  0  0
 23 13  1  0  0  0  0
 24 30  1  0  0  0  0
 25 24  2  0  0  0  0
 26 29  2  0  0  0  0
 26 25  1  0  0  0  0
 27 29  1  0  0  0  0
 28 30  2  0  0  0  0
 29 28  1  0  0  0  0
 32 31  1  0  0  0  0
 34 33  1  0  0  0  0
 35 34  2  0  0  0  0
 36 34  1  0  0  0  0
 37 36  1  0  0  0  0
M  END
>  <MODEL>
1

>  <REMARK>
 VINA RESULT:      -4.3      0.000      0.000
  Name = 
  5 active torsions:
  status: ('A' for Active; 'I' for Inactive)
    1  A    between atoms: O_3  and  C_21
    2  A    between atoms: C_6  and  N_31
    3  A    between atoms: C_17  and  C_23
    4  A    between atoms: C_20  and  C_25
    5  A    between atoms: C_21  and  C_25
                            x       y       z     vdW  Elec       q    Type
                         _______ _______ _______ _____ _____    ______ ____

>  <TORSDO>
F 5

$$$$
=
 OpenBabel11062409043D

 37 42  0  0  1  0  0  0  0  0999 V2000
  156.8500  213.5160  150.2350 C   0  0  0  0  0  2  0  0  0  0  0  0
  158.6050  211.3350  154.1730 C   0  0  0  0  0  0  0  0  0  0  0  0
  156.8470  213.9390  148.7690 C   0  0  0  0  0  2  0  0  0  0  0  0
  160.9340  212.1040  151.3240 O   0  0  0  0  0  0  0  0  0  0  0  0
  156.2880  211.9820  153.7180 C   0  0  0  0  0  2  0  0  0  0  0  0
  158.9800  211.6800  152.7560 C   0  0  2  0  0  3  0  0  0  0  0  0
  158.9250  213.1240  147.6420 C   0  0  2  0  0  3  0  0  0  0  0  0
  157.3430  211.4820  154.6180 C   0  0  0  0  0  0  0  0  0  0  0  0
  160.5190  211.8180  152.6320 C   0  0  1  0  0  3  0  0  0  0  0  0
  157.3060  211.3330  155.9160 O   0  0  0  0  0  0  0  0  0  0  0  0
  157.4310  212.8740  147.8560 C   0  0  2  0  0  3  0  0  0  0  0  0
  156.9020  213.1490  152.9130 C   0  0  2  0  0  3  0  0  0  0  0  0
  160.8280  211.2790  155.4510 C   0  0  0  0  0  2  0  0  0  0  0  0
  158.5070  211.1310  156.3820 N   0  0  0  0  0  0  0  0  0  0  0  0
  159.7560  212.7200  148.8530 C   0  0  0  0  0  2  0  0  0  0  0  0
  160.6220  213.4400  151.0600 C   0  0  0  0  0  2  0  0  0  0  0  0
  159.3470  211.1410  155.3250 C   0  0  0  0  0  0  0  0  0  0  0  0
  158.2350  212.8880  152.2780 N   0  0  2  0  0  0  0  0  0  0  0  0
  161.1600  210.5670  153.0790 N   0  0  0  0  0  0  0  0  0  0  0  0
  159.4120  213.4860  150.1350 C   0  0  2  0  0  3  0  0  0  0  0  0
  159.1800  214.4530  147.2880 O   0  0  0  0  0  1  0  0  0  0  0  0
  158.1520  212.8750  150.7910 C   0  0  2  0  0  3  0  0  0  0  0  0
  161.5690  210.3750  154.4740 C   0  0  0  0  0  2  0  0  0  0  0  0
  160.8260  208.1690  152.6280 C   0  0  0  0  0  3  0  0  0  0  0  0
  161.2720  209.4290  152.2040 C   0  0  0  0  0  0  0  0  0  0  0  0
  161.8670  209.5500  150.9390 C   0  0  0  0  0  3  0  0  0  0  0  0
  162.5790  208.5640  148.8900 F   0  0  0  0  0  0  0  0  0  0  0  0
  161.5470  207.1880  150.5370 C   0  0  0  0  0  3  0  0  0  0  0  0
  162.0000  208.4370  150.1060 C   0  0  0  0  0  0  0  0  0  0  0  0
  160.9600  207.0540  151.7960 C   0  0  0  0  0  3  0  0  0  0  0  0
  157.6390  212.7610  145.4810 O   0  0  0  0  0  1  0  0  0  0  0  0
  156.7130  212.8940  146.5170 C   0  0  0  0  0  2  0  0  0  0  0  0
  156.9840  214.4180  153.7470 C   0  0  0  0  0  2  0  0  0  0  0  0
  155.9150  214.4470  154.7800 C   0  0  0  0  0  0  0  0  0  0  0  0
  154.7080  214.4310  154.4220 O   0  0  0  0  0  0  0  0  0  0  0  0
  156.2610  214.4440  156.1300 O   0  0  0  0  0  0  0  0  0  0  0  0
  157.6160  214.4530  156.5560 C   0  0  0  0  0  1  0  0  0  0  0  0
  1 22  1  0  0  0  0
  2  8  2  0  0  0  0
  2 17  1  0  0  0  0
  3  1  1  0  0  0  0
  5  8  1  0  0  0  0
  6  2  1  1  0  0  0
  7 21  1  1  0  0  0
  7 11  1  0  0  0  0
  7 15  1  0  0  0  0
  8 10  1  0  0  0  0
  9  4  1  6  0  0  0
  9  6  1  0  0  0  0
  9 19  1  0  0  0  0
 10 14  1  0  0  0  0
 11 32  1  6  0  0  0
 11  3  1  0  0  0  0
 12  5  1  0  0  0  0
 12 33  1  1  0  0  0
 15 20  1  0  0  0  0
 16  4  1  0  0  0  0
 17 13  1  0  0  0  0
 17 14  2  0  0  0  0
 18  6  1  0  0  0  0
 18 12  1  0  0  0  0
 19 23  1  0  0  0  0
 20 22  1  0  0  0  0
 20 16  1  0  0  0  0
 22 18  1  0  0  0  0
 23 13  1  0  0  0  0
 25 24  1  0  0  0  0
 25 19  1  0  0  0  0
 26 25  2  0  0  0  0
 27 29  1  0  0  0  0
 28 30  1  0  0  0  0
 29 28  2  0  0  0  0
 29 26  1  0  0  0  0
 30 24  2  0  0  0  0
 31 32  1  0  0  0  0
 33 34  1  0  0  0  0
 34 36  1  0  0  0  0
 35 34  2  0  0  0  0
 36 37  1  0  0  0  0
M  END
>  <MODEL>
2

>  <REMARK>
 VINA RESULT:      -4.1     11.232     13.530
  Name = 
  5 active torsions:
  status: ('A' for Active; 'I' for Inactive)
    1  A    between atoms: O_3  and  C_21
    2  A    between atoms: C_6  and  N_31
    3  A    between atoms: C_17  and  C_23
    4  A    between atoms: C_20  and  C_25
    5  A    between atoms: C_21  and  C_25
                            x       y       z     vdW  Elec       q    Type
                         _______ _______ _______ _____ _____    ______ ____

>  <TORSDO>
F 5

$$$$
=
 OpenBabel11062409043D

 37 42  0  0  1  0  0  0  0  0999 V2000
  159.8030  212.9160  150.5090 C   0  0  0  0  0  2  0  0  0  0  0  0
  159.7590  209.5460  153.9720 C   0  0  0  0  0  0  0  0  0  0  0  0
  160.1650  213.4990  149.1460 C   0  0  0  0  0  2  0  0  0  0  0  0
  162.4070  209.3900  151.3090 O   0  0  0  0  0  0  0  0  0  0  0  0
  158.1840  211.3940  153.6490 C   0  0  0  0  0  2  0  0  0  0  0  0
  160.3940  209.8560  152.6420 C   0  0  2  0  0  3  0  0  0  0  0  0
  161.6020  211.8890  147.8830 C   0  0  2  0  0  3  0  0  0  0  0  0
  158.7260  210.2730  154.4390 C   0  0  0  0  0  0  0  0  0  0  0  0
  161.7790  209.1680  152.5420 C   0  0  1  0  0  3  0  0  0  0  0  0
  158.4900  209.9650  155.6870 O   0  0  0  0  0  0  0  0  0  0  0  0
  160.1870  212.4460  148.0500 C   0  0  2  0  0  3  0  0  0  0  0  0
  159.3950  212.1620  153.0720 C   0  0  2  0  0  3  0  0  0  0  0  0
  161.4850  208.1110  155.2130 C   0  0  0  0  0  2  0  0  0  0  0  0
  159.3550  209.0810  156.1050 N   0  0  0  0  0  0  0  0  0  0  0  0
  161.9750  210.9190  148.9970 C   0  0  0  0  0  2  0  0  0  0  0  0
  162.8720  210.7070  151.2970 C   0  0  0  0  0  2  0  0  0  0  0  0
  160.1720  208.8080  155.0670 C   0  0  0  0  0  0  0  0  0  0  0  0
  160.4450  211.3330  152.3970 N   0  0  2  0  0  0  0  0  0  0  0  0
  161.6210  207.7150  152.7490 N   0  0  0  0  0  0  0  0  0  0  0  0
  161.9620  211.5380  150.4000 C   0  0  2  0  0  3  0  0  0  0  0  0
  162.5510  212.9130  147.7800 O   0  0  0  0  0  1  0  0  0  0  0  0
  160.5130  211.6000  150.9330 C   0  0  2  0  0  3  0  0  0  0  0  0
  161.7300  207.1180  154.0830 C   0  0  0  0  0  2  0  0  0  0  0  0
  160.9980  205.4830  151.9180 C   0  0  0  0  0  3  0  0  0  0  0  0
  161.2020  206.8490  151.6790 C   0  0  0  0  0  0  0  0  0  0  0  0
  161.0360  207.3440  150.3750 C   0  0  0  0  0  3  0  0  0  0  0  0
  160.5070  206.9780  148.0810 F   0  0  0  0  0  0  0  0  0  0  0  0
  160.4530  205.1340  149.5860 C   0  0  0  0  0  3  0  0  0  0  0  0
  160.6600  206.4920  149.3340 C   0  0  0  0  0  0  0  0  0  0  0  0
  160.6220  204.6300  150.8770 C   0  0  0  0  0  3  0  0  0  0  0  0
  160.0210  212.1970  145.6830 O   0  0  0  0  0  1  0  0  0  0  0  0
  159.7210  213.0580  146.7400 C   0  0  0  0  0  2  0  0  0  0  0  0
  160.0500  213.0400  154.1270 C   0  0  0  0  0  2  0  0  0  0  0  0
  159.0280  213.7350  154.9520 C   0  0  0  0  0  0  0  0  0  0  0  0
  158.1600  214.4530  154.3890 O   0  0  0  0  0  0  0  0  0  0  0  0
  159.0120  213.5450  156.3330 O   0  0  0  0  0  0  0  0  0  0  0  0
  160.0140  212.7890  156.9970 C   0  0  0  0  0  1  0  0  0  0  0  0
  1 22  1  0  0  0  0
  2  8  2  0  0  0  0
  2 17  1  0  0  0  0
  3  1  1  0  0  0  0
  5  8  1  0  0  0  0
  6  2  1  1  0  0  0
  7 21  1  1  0  0  0
  7 11  1  0  0  0  0
  7 15  1  0  0  0  0
  8 10  1  0  0  0  0
  9  4  1  6  0  0  0
  9  6  1  0  0  0  0
  9 19  1  0  0  0  0
 10 14  1  0  0  0  0
 11 32  1  6  0  0  0
 11  3  1  0  0  0  0
 12  5  1  0  0  0  0
 12 33  1  1  0  0  0
 15 20  1  0  0  0  0
 16  4  1  0  0  0  0
 17 13  1  0  0  0  0
 17 14  2  0  0  0  0
 18  6  1  0  0  0  0
 18 12  1  0  0  0  0
 19 23  1  0  0  0  0
 20 22  1  0  0  0  0
 20 16  1  0  0  0  0
 22 18  1  0  0  0  0
 23 13  1  0  0  0  0
 25 24  1  0  0  0  0
 25 19  1  0  0  0  0
 26 25  2  0  0  0  0
 27 29  1  0  0  0  0
 28 30  1  0  0  0  0
 29 28  2  0  0  0  0
 29 26  1  0  0  0  0
 30 24  2  0  0  0  0
 31 32  1  0  0  0  0
 33 34  1  0  0  0  0
 34 36  1  0  0  0  0
 35 34  2  0  0  0  0
 36 37  1  0  0  0  0
M  END
>  <MODEL>
3

>  <REMARK>
 VINA RESULT:      -3.8     11.298     13.734
  Name = 
  5 active torsions:
  status: ('A' for Active; 'I' for Inactive)
    1  A    between atoms: O_3  and  C_21
    2  A    between atoms: C_6  and  N_31
    3  A    between atoms: C_17  and  C_23
    4  A    between atoms: C_20  and  C_25
    5  A    between atoms: C_21  and  C_25
                            x       y       z     vdW  Elec       q    Type
                         _______ _______ _______ _____ _____    ______ ____

>  <TORSDO>
F 5

$$$$
=
 OpenBabel11062409043D

 37 42  0  0  1  0  0  0  0  0999 V2000
  158.4080  211.0600  155.6200 C   0  0  0  0  0  2  0  0  0  0  0  0
  160.4170  211.4000  151.2380 C   0  0  0  0  0  0  0  0  0  0  0  0
  157.4700  211.4700  156.7510 C   0  0  0  0  0  2  0  0  0  0  0  0
  158.6960  214.4080  152.6940 O   0  0  0  0  0  0  0  0  0  0  0  0
  160.2950  209.4310  152.6890 C   0  0  0  0  0  2  0  0  0  0  0  0
  159.4940  212.1420  152.1680 C   0  0  2  0  0  3  0  0  0  0  0  0
  156.2000  213.5240  156.1030 C   0  0  2  0  0  3  0  0  0  0  0  0
  160.7900  210.1310  151.4900 C   0  0  0  0  0  0  0  0  0  0  0  0
  159.5620  213.6640  151.8810 C   0  0  1  0  0  3  0  0  0  0  0  0
  161.7500  209.7780  150.6760 O   0  0  0  0  0  0  0  0  0  0  0  0
  156.1410  212.0020  156.2400 C   0  0  2  0  0  3  0  0  0  0  0  0
  160.3620  210.4410  153.8570 C   0  0  2  0  0  3  0  0  0  0  0  0
  161.5440  213.2230  149.8290 C   0  0  0  0  0  2  0  0  0  0  0  0
  162.0780  210.7760  149.9030 N   0  0  0  0  0  0  0  0  0  0  0  0
  156.9910  213.9630  154.8770 C   0  0  0  0  0  2  0  0  0  0  0  0
  159.2470  214.4530  153.9760 C   0  0  0  0  0  2  0  0  0  0  0  0
  161.2770  211.8110  150.2350 C   0  0  0  0  0  0  0  0  0  0  0  0
  159.7720  211.7950  153.5980 N   0  0  2  0  0  0  0  0  0  0  0  0
  159.2280  213.9110  150.4650 N   0  0  0  0  0  0  0  0  0  0  0  0
  158.4570  213.5150  154.8810 C   0  0  2  0  0  3  0  0  0  0  0  0
  156.7070  214.1270  157.2600 O   0  0  0  0  0  1  0  0  0  0  0  0
  158.5570  212.0410  154.4230 C   0  0  2  0  0  3  0  0  0  0  0  0
  160.2660  213.9520  149.4320 C   0  0  0  0  0  2  0  0  0  0  0  0
  157.5680  213.9580  148.6480 C   0  0  0  0  0  3  0  0  0  0  0  0
  157.8610  213.9690  150.0190 C   0  0  0  0  0  0  0  0  0  0  0  0
  156.8070  214.0850  150.9390 C   0  0  0  0  0  3  0  0  0  0  0  0
  154.4780  214.2870  151.3950 F   0  0  0  0  0  0  0  0  0  0  0  0
  155.2040  214.1530  149.1320 C   0  0  0  0  0  3  0  0  0  0  0  0
  155.4850  214.1720  150.4990 C   0  0  0  0  0  0  0  0  0  0  0  0
  156.2440  214.0450  148.2060 C   0  0  0  0  0  3  0  0  0  0  0  0
  154.4670  210.4010  156.8120 O   0  0  0  0  0  1  0  0  0  0  0  0
  155.0300  211.6180  157.2020 C   0  0  0  0  0  2  0  0  0  0  0  0
  161.7850  210.6040  154.3700 C   0  0  0  0  0  2  0  0  0  0  0  0
  161.9680  209.9020  155.6670 C   0  0  0  0  0  0  0  0  0  0  0  0
  162.4260  210.5340  156.6550 O   0  0  0  0  0  0  0  0  0  0  0  0
  161.5840  208.5670  155.7880 O   0  0  0  0  0  0  0  0  0  0  0  0
  160.5590  208.1600  156.6820 C   0  0  0  0  0  1  0  0  0  0  0  0
  1  3  1  0  0  0  0
  2  8  2  0  0  0  0
  4 16  1  0  0  0  0
  5 12  1  0  0  0  0
  6  2  1  6  0  0  0
  6 18  1  0  0  0  0
  7 11  1  0  0  0  0
  7 21  1  1  0  0  0
  8  5  1  0  0  0  0
  9  6  1  0  0  0  0
  9  4  1  1  0  0  0
 10  8  1  0  0  0  0
 11  3  1  0  0  0  0
 11 32  1  1  0  0  0
 12 33  1  6  0  0  0
 13 17  1  0  0  0  0
 14 17  2  0  0  0  0
 14 10  1  0  0  0  0
 15 20  1  0  0  0  0
 15  7  1  0  0  0  0
 16 20  1  0  0  0  0
 17  2  1  0  0  0  0
 18 12  1  0  0  0  0
 18 22  1  0  0  0  0
 19  9  1  0  0  0  0
 22 20  1  0  0  0  0
 22  1  1  0  0  0  0
 23 13  1  0  0  0  0
 23 19  1  0  0  0  0
 24 25  1  0  0  0  0
 25 19  1  0  0  0  0
 25 26  2  0  0  0  0
 28 29  2  0  0  0  0
 29 26  1  0  0  0  0
 29 27  1  0  0  0  0
 30 24  2  0  0  0  0
 30 28  1  0  0  0  0
 31 32  1  0  0  0  0
 33 34  1  0  0  0  0
 34 36  1  0  0  0  0
 34 35  2  0  0  0  0
 36 37  1  0  0  0  0
M  END
>  <MODEL>
4

>  <REMARK>
 VINA RESULT:      -3.1     12.291     15.302
  Name = 
  5 active torsions:
  status: ('A' for Active; 'I' for Inactive)
    1  A    between atoms: O_3  and  C_21
    2  A    between atoms: C_6  and  N_31
    3  A    between atoms: C_17  and  C_23
    4  A    between atoms: C_20  and  C_25
    5  A    between atoms: C_21  and  C_25
                            x       y       z     vdW  Elec       q    Type
                         _______ _______ _______ _____ _____    ______ ____

>  <TORSDO>
F 5

$$$$
=
 OpenBabel11062409043D

 37 42  0  0  1  0  0  0  0  0999 V2000
  160.0880  212.5070  151.1750 C   0  0  0  0  0  2  0  0  0  0  0  0
  160.0710  208.5520  153.9500 C   0  0  0  0  0  0  0  0  0  0  0  0
  160.4190  213.3280  149.9320 C   0  0  0  0  0  2  0  0  0  0  0  0
  162.6220  208.8430  151.2050 O   0  0  0  0  0  0  0  0  0  0  0  0
  158.5360  210.4590  154.0370 C   0  0  0  0  0  2  0  0  0  0  0  0
  160.6680  209.0920  152.6780 C   0  0  2  0  0  3  0  0  0  0  0  0
  161.7680  211.9540  148.3370 C   0  0  2  0  0  3  0  0  0  0  0  0
  159.0740  209.2000  154.5830 C   0  0  0  0  0  0  0  0  0  0  0  0
  162.0310  208.4070  152.3990 C   0  0  1  0  0  3  0  0  0  0  0  0
  158.8730  208.6680  155.7600 O   0  0  0  0  0  0  0  0  0  0  0  0
  160.3760  212.4980  148.6590 C   0  0  2  0  0  3  0  0  0  0  0  0
  159.7470  211.2960  153.5670 C   0  0  2  0  0  3  0  0  0  0  0  0
  161.7990  206.8760  154.8360 C   0  0  0  0  0  2  0  0  0  0  0  0
  159.7270  207.7050  155.9740 N   0  0  0  0  0  0  0  0  0  0  0  0
  162.1530  210.7850  149.2360 C   0  0  0  0  0  2  0  0  0  0  0  0
  163.1210  210.1290  151.4210 C   0  0  0  0  0  2  0  0  0  0  0  0
  160.5010  207.6140  154.8720 C   0  0  0  0  0  0  0  0  0  0  0  0
  160.7510  210.5870  152.7100 N   0  0  2  0  0  0  0  0  0  0  0  0
  161.8410  206.9450  152.3380 N   0  0  0  0  0  0  0  0  0  0  0  0
  162.2050  211.1310  150.7290 C   0  0  2  0  0  3  0  0  0  0  0  0
  162.7400  212.9590  148.3900 O   0  0  0  0  0  1  0  0  0  0  0  0
  160.7760  211.1220  151.3200 C   0  0  2  0  0  3  0  0  0  0  0  0
  161.9790  206.1070  153.5320 C   0  0  0  0  0  2  0  0  0  0  0  0
  161.0290  207.0690  150.0170 C   0  0  0  0  0  3  0  0  0  0  0  0
  161.3630  206.3020  151.1420 C   0  0  0  0  0  0  0  0  0  0  0  0
  161.1790  204.9110  151.0970 C   0  0  0  0  0  3  0  0  0  0  0  0
  160.5090  202.9550  149.9130 F   0  0  0  0  0  0  0  0  0  0  0  0
  160.3630  205.0690  148.8270 C   0  0  0  0  0  3  0  0  0  0  0  0
  160.6860  204.2960  149.9440 C   0  0  0  0  0  0  0  0  0  0  0  0
  160.5350  206.4540  148.8630 C   0  0  0  0  0  3  0  0  0  0  0  0
  159.8970  212.6070  146.3240 O   0  0  0  0  0  1  0  0  0  0  0  0
  159.8820  213.3520  147.5040 C   0  0  0  0  0  2  0  0  0  0  0  0
  160.4600  211.9490  154.7410 C   0  0  0  0  0  2  0  0  0  0  0  0
  161.5090  211.0520  155.2930 C   0  0  0  0  0  0  0  0  0  0  0  0
  162.4660  210.6920  154.5590 O   0  0  0  0  0  0  0  0  0  0  0  0
  161.4460  210.6600  156.6290 O   0  0  0  0  0  0  0  0  0  0  0  0
  162.2730  209.6280  157.1470 C   0  0  0  0  0  1  0  0  0  0  0  0
  1 22  1  0  0  0  0
  2  8  2  0  0  0  0
  2 17  1  0  0  0  0
  3  1  1  0  0  0  0
  4 16  1  0  0  0  0
  5  8  1  0  0  0  0
  6 18  1  0  0  0  0
  6  2  1  1  0  0  0
  7 21  1  1  0  0  0
  7 11  1  0  0  0  0
  7 15  1  0  0  0  0
  8 10  1  0  0  0  0
  9  4  1  6  0  0  0
  9  6  1  0  0  0  0
 10 14  1  0  0  0  0
 11 32  1  6  0  0  0
 11  3  1  0  0  0  0
 12  5  1  0  0  0  0
 12 33  1  1  0  0  0
 13 17  1  0  0  0  0
 15 20  1  0  0  0  0
 17 14  2  0  0  0  0
 18 12  1  0  0  0  0
 19  9  1  0  0  0  0
 19 23  1  0  0  0  0
 20 22  1  0  0  0  0
 20 16  1  0  0  0  0
 22 18  1  0  0  0  0
 23 13  1  0  0  0  0
 24 25  1  0  0  0  0
 25 19  1  0  0  0  0
 26 25  2  0  0  0  0
 27 29  1  0  0  0  0
 28 30  1  0  0  0  0
 28 29  2  0  0  0  0
 29 26  1  0  0  0  0
 30 24  2  0  0  0  0
 31 32  1  0  0  0  0
 33 34  1  0  0  0  0
 34 36  1  0  0  0  0
 35 34  2  0  0  0  0
 36 37  1  0  0  0  0
M  END
>  <MODEL>
5

>  <REMARK>
 VINA RESULT:      -2.0     11.584     14.102
  Name = 
  5 active torsions:
  status: ('A' for Active; 'I' for Inactive)
    1  A    between atoms: O_3  and  C_21
    2  A    between atoms: C_6  and  N_31
    3  A    between atoms: C_17  and  C_23
    4  A    between atoms: C_20  and  C_25
    5  A    between atoms: C_21  and  C_25
                            x       y       z     vdW  Elec       q    Type
                         _______ _______ _______ _____ _____    ______ ____

>  <TORSDO>
F 5

$$$$
=
 OpenBabel11062409043D

 37 42  0  0  1  0  0  0  0  0999 V2000
  159.8310  212.7350  151.2420 C   0  0  0  0  0  2  0  0  0  0  0  0
  160.6590  208.2920  152.9530 C   0  0  0  0  0  0  0  0  0  0  0  0
  159.8650  213.8480  150.2000 C   0  0  0  0  0  2  0  0  0  0  0  0
  162.6610  209.5180  150.0180 O   0  0  0  0  0  0  0  0  0  0  0  0
  158.9920  209.9140  153.7200 C   0  0  0  0  0  2  0  0  0  0  0  0
  160.9760  209.1750  151.7750 C   0  0  2  0  0  3  0  0  0  0  0  0
  161.0410  213.0530  148.1410 C   0  0  2  0  0  3  0  0  0  0  0  0
  159.7300  208.6460  153.8620 C   0  0  0  0  0  0  0  0  0  0  0  0
  162.3270  208.7540  151.1440 C   0  0  1  0  0  3  0  0  0  0  0  0
  159.7850  207.8430  154.8920 O   0  0  0  0  0  0  0  0  0  0  0  0
  159.6810  213.3250  148.7850 C   0  0  2  0  0  3  0  0  0  0  0  0
  160.0210  210.9860  153.2950 C   0  0  2  0  0  3  0  0  0  0  0  0
  162.6610  206.7010  153.1460 C   0  0  0  0  0  2  0  0  0  0  0  0
  160.7490  206.9770  154.7400 N   0  0  0  0  0  0  0  0  0  0  0  0
  161.6820  211.7740  148.6660 C   0  0  0  0  0  2  0  0  0  0  0  0
  163.0680  210.7780  150.4620 C   0  0  0  0  0  2  0  0  0  0  0  0
  161.3270  207.2360  153.5480 C   0  0  0  0  0  0  0  0  0  0  0  0
  160.9240  210.6230  152.1550 N   0  0  2  0  0  0  0  0  0  0  0  0
  162.2660  207.3300  150.7600 N   0  0  0  0  0  0  0  0  0  0  0  0
  161.9570  211.7810  150.1740 C   0  0  2  0  0  3  0  0  0  0  0  0
  161.9100  214.1390  148.2930 O   0  0  0  0  0  1  0  0  0  0  0  0
  160.6590  211.4530  150.9470 C   0  0  2  0  0  3  0  0  0  0  0  0
  162.6850  206.2720  151.6830 C   0  0  0  0  0  2  0  0  0  0  0  0
  160.3040  206.5240  149.5100 C   0  0  0  0  0  3  0  0  0  0  0  0
  161.6510  206.9140  149.5270 C   0  0  0  0  0  0  0  0  0  0  0  0
  162.3940  206.8470  148.3380 C   0  0  0  0  0  3  0  0  0  0  0  0
  162.5270  206.3480  146.0130 F   0  0  0  0  0  0  0  0  0  0  0  0
  160.4570  206.0330  147.1450 C   0  0  0  0  0  3  0  0  0  0  0  0
  161.8000  206.4120  147.1520 C   0  0  0  0  0  0  0  0  0  0  0  0
  159.7090  206.0890  148.3220 C   0  0  0  0  0  3  0  0  0  0  0  0
  158.9180  213.9560  146.6140 O   0  0  0  0  0  1  0  0  0  0  0  0
  158.9180  214.3430  147.9550 C   0  0  0  0  0  2  0  0  0  0  0  0
  160.8630  211.4470  154.4750 C   0  0  0  0  0  2  0  0  0  0  0  0
  160.0210  212.1190  155.5000 C   0  0  0  0  0  0  0  0  0  0  0  0
  160.2690  211.9370  156.7210 O   0  0  0  0  0  0  0  0  0  0  0  0
  159.0020  212.9800  155.0980 O   0  0  0  0  0  0  0  0  0  0  0  0
  159.0190  214.3630  155.4180 C   0  0  0  0  0  1  0  0  0  0  0  0
  2 17  1  0  0  0  0
  2  8  2  0  0  0  0
  3  1  1  0  0  0  0
  4 16  1  0  0  0  0
  5  8  1  0  0  0  0
  6 18  1  0  0  0  0
  6  2  1  1  0  0  0
  7 21  1  1  0  0  0
  7 15  1  0  0  0  0
  7 11  1  0  0  0  0
  8 10  1  0  0  0  0
  9  4  1  6  0  0  0
  9  6  1  0  0  0  0
 11 32  1  6  0  0  0
 11  3  1  0  0  0  0
 12  5  1  0  0  0  0
 12 33  1  1  0  0  0
 13 17  1  0  0  0  0
 14 10  1  0  0  0  0
 15 20  1  0  0  0  0
 17 14  2  0  0  0  0
 18 12  1  0  0  0  0
 19  9  1  0  0  0  0
 19 23  1  0  0  0  0
 20 16  1  0  0  0  0
 20 22  1  0  0  0  0
 22  1  1  0  0  0  0
 22 18  1  0  0  0  0
 23 13  1  0  0  0  0
 24 25  1  0  0  0  0
 25 19  1  0  0  0  0
 26 25  2  0  0  0  0
 27 29  1  0  0  0  0
 28 29  2  0  0  0  0
 28 30  1  0  0  0  0
 29 26  1  0  0  0  0
 30 24  2  0  0  0  0
 31 32  1  0  0  0  0
 33 34  1  0  0  0  0
 34 35  2  0  0  0  0
 36 37  1  0  0  0  0
 36 34  1  0  0  0  0
M  END
>  <MODEL>
6

>  <REMARK>
 VINA RESULT:      -1.9     10.684     13.180
  Name = 
  5 active torsions:
  status: ('A' for Active; 'I' for Inactive)
    1  A    between atoms: O_3  and  C_21
    2  A    between atoms: C_6  and  N_31
    3  A    between atoms: C_17  and  C_23
    4  A    between atoms: C_20  and  C_25
    5  A    between atoms: C_21  and  C_25
                            x       y       z     vdW  Elec       q    Type
                         _______ _______ _______ _____ _____    ______ ____

>  <TORSDO>
F 5

$$$$
=
 OpenBabel11062409043D

 37 42  0  0  1  0  0  0  0  0999 V2000
  161.4860  210.7350  149.6080 C   0  0  0  0  0  2  0  0  0  0  0  0
  161.5180  207.5970  153.2820 C   0  0  0  0  0  0  0  0  0  0  0  0
  161.2960  212.0990  148.9500 C   0  0  0  0  0  2  0  0  0  0  0  0
  159.5540  210.7850  153.6220 O   0  0  0  0  0  0  0  0  0  0  0  0
  162.7120  207.4310  151.1510 C   0  0  0  0  0  2  0  0  0  0  0  0
  161.1160  209.0090  152.9470 C   0  0  2  0  0  3  0  0  0  0  0  0
  160.5070  213.7600  150.6440 C   0  0  2  0  0  3  0  0  0  0  0  0
  162.2630  206.8630  152.4350 C   0  0  0  0  0  0  0  0  0  0  0  0
  159.9510  209.4620  153.8630 C   0  0  1  0  0  3  0  0  0  0  0  0
  162.2990  205.6190  152.8340 O   0  0  0  0  0  0  0  0  0  0  0  0
  161.7130  213.2450  149.8570 C   0  0  2  0  0  3  0  0  0  0  0  0
  161.5120  208.2050  150.5600 C   0  0  2  0  0  3  0  0  0  0  0  0
  159.9080  206.8750  155.1440 C   0  0  0  0  0  2  0  0  0  0  0  0
  161.5670  205.4670  153.9040 N   0  0  0  0  0  0  0  0  0  0  0  0
  160.1230  212.8290  151.7870 C   0  0  0  0  0  2  0  0  0  0  0  0
  158.8420  210.8050  152.4210 C   0  0  0  0  0  2  0  0  0  0  0  0
  161.0520  206.6770  154.2040 C   0  0  0  0  0  0  0  0  0  0  0  0
  160.8130  209.1530  151.4870 N   0  0  2  0  0  0  0  0  0  0  0  0
  160.3590  209.3290  155.2750 N   0  0  0  0  0  0  0  0  0  0  0  0
  159.7240  211.4170  151.3400 C   0  0  2  0  0  3  0  0  0  0  0  0
  159.4100  213.9970  149.8090 O   0  0  0  0  0  1  0  0  0  0  0  0
  160.9910  210.5730  151.0720 C   0  0  2  0  0  3  0  0  0  0  0  0
  160.1060  208.0990  156.0300 C   0  0  0  0  0  2  0  0  0  0  0  0
  162.4900  210.0760  156.2550 C   0  0  0  0  0  3  0  0  0  0  0  0
  161.1540  210.3400  155.9220 C   0  0  0  0  0  0  0  0  0  0  0  0
  160.5980  211.5800  156.2700 C   0  0  0  0  0  3  0  0  0  0  0  0
  160.8190  213.7360  157.2600 F   0  0  0  0  0  0  0  0  0  0  0  0
  162.6980  212.2740  157.2460 C   0  0  0  0  0  3  0  0  0  0  0  0
  161.3660  212.5450  156.9250 C   0  0  0  0  0  0  0  0  0  0  0  0
  163.2600  211.0410  156.9100 C   0  0  0  0  0  3  0  0  0  0  0  0
  162.9510  213.8460  147.9080 O   0  0  0  0  0  1  0  0  0  0  0  0
  162.3000  214.3720  149.0250 C   0  0  0  0  0  2  0  0  0  0  0  0
  160.4910  207.2620  149.9440 C   0  0  0  0  0  2  0  0  0  0  0  0
  161.0050  206.6690  148.6810 C   0  0  0  0  0  0  0  0  0  0  0  0
  161.4850  207.4220  147.7940 O   0  0  0  0  0  0  0  0  0  0  0  0
  160.9950  205.2850  148.5160 O   0  0  0  0  0  0  0  0  0  0  0  0
  160.9320  204.3990  149.6240 C   0  0  0  0  0  1  0  0  0  0  0  0
  1 22  1  0  0  0  0
  2 17  1  0  0  0  0
  3  1  1  0  0  0  0
  3 11  1  0  0  0  0
  5  8  1  0  0  0  0
  6  2  1  6  0  0  0
  6  9  1  0  0  0  0
  7 21  1  6  0  0  0
  7 15  1  0  0  0  0
  8 10  1  0  0  0  0
  8  2  2  0  0  0  0
  9  4  1  6  0  0  0
  9 19  1  0  0  0  0
 10 14  1  0  0  0  0
 11 32  1  6  0  0  0
 11  7  1  0  0  0  0
 12 33  1  1  0  0  0
 12  5  1  0  0  0  0
 12 18  1  0  0  0  0
 13 23  1  0  0  0  0
 14 17  2  0  0  0  0
 16  4  1  0  0  0  0
 17 13  1  0  0  0  0
 18  6  1  0  0  0  0
 19 25  1  0  0  0  0
 19 23  1  0  0  0  0
 20 15  1  0  0  0  0
 20 16  1  0  0  0  0
 22 20  1  0  0  0  0
 22 18  1  0  0  0  0
 24 30  1  0  0  0  0
 25 24  2  0  0  0  0
 25 26  1  0  0  0  0
 26 29  2  0  0  0  0
 29 28  1  0  0  0  0
 29 27  1  0  0  0  0
 30 28  2  0  0  0  0
 31 32  1  0  0  0  0
 34 33  1  0  0  0  0
 35 34  2  0  0  0  0
 36 34  1  0  0  0  0
 36 37  1  0  0  0  0
M  END
>  <MODEL>
7

>  <REMARK>
 VINA RESULT:      -1.7     12.279     15.144
  Name = 
  5 active torsions:
  status: ('A' for Active; 'I' for Inactive)
    1  A    between atoms: O_3  and  C_21
    2  A    between atoms: C_6  and  N_31
    3  A    between atoms: C_17  and  C_23
    4  A    between atoms: C_20  and  C_25
    5  A    between atoms: C_21  and  C_25
                            x       y       z     vdW  Elec       q    Type
                         _______ _______ _______ _____ _____    ______ ____

>  <TORSDO>
F 5

$$$$
=
 OpenBabel11062409043D

 37 42  0  0  1  0  0  0  0  0999 V2000
  158.4680  213.5130  149.3400 C   0  0  0  0  0  2  0  0  0  0  0  0
  160.0730  210.4210  152.6880 C   0  0  0  0  0  0  0  0  0  0  0  0
  158.3840  214.1260  147.9450 C   0  0  0  0  0  2  0  0  0  0  0  0
  162.1170  210.9680  149.5820 O   0  0  0  0  0  0  0  0  0  0  0  0
  157.9810  211.6940  152.6950 C   0  0  0  0  0  2  0  0  0  0  0  0
  160.3330  210.8560  151.2700 C   0  0  2  0  0  3  0  0  0  0  0  0
  159.9880  212.9770  146.4100 C   0  0  2  0  0  3  0  0  0  0  0  0
  158.9700  210.8200  153.3500 C   0  0  0  0  0  0  0  0  0  0  0  0
  161.8200  210.6140  150.9050 C   0  0  1  0  0  3  0  0  0  0  0  0
  159.0690  210.5020  154.6140 O   0  0  0  0  0  0  0  0  0  0  0  0
  158.5260  213.0880  146.8440 C   0  0  2  0  0  3  0  0  0  0  0  0
  158.7770  212.7690  151.9200 C   0  0  2  0  0  3  0  0  0  0  0  0
  162.3470  209.6200  153.5630 C   0  0  0  0  0  2  0  0  0  0  0  0
  160.2210  209.9370  154.8500 N   0  0  0  0  0  0  0  0  0  0  0  0
  160.8320  212.2070  147.4170 C   0  0  0  0  0  2  0  0  0  0  0  0
  162.1510  212.3620  149.5100 C   0  0  0  0  0  2  0  0  0  0  0  0
  160.8810  209.8830  153.6740 C   0  0  0  0  0  0  0  0  0  0  0  0
  159.8900  212.2690  151.0480 N   0  0  2  0  0  0  0  0  0  0  0  0
  162.1490  209.1900  151.1100 N   0  0  0  0  0  0  0  0  0  0  0  0
  160.8860  212.8460  148.8100 C   0  0  2  0  0  3  0  0  0  0  0  0
  160.5470  214.2340  146.1540 O   0  0  0  0  0  1  0  0  0  0  0  0
  159.6070  212.4890  149.6020 C   0  0  2  0  0  3  0  0  0  0  0  0
  162.6730  208.7050  152.3890 C   0  0  0  0  0  2  0  0  0  0  0  0
  160.6650  207.4250  150.2490 C   0  0  0  0  0  3  0  0  0  0  0  0
  161.8260  208.1980  150.1180 C   0  0  0  0  0  0  0  0  0  0  0  0
  162.6870  207.9560  149.0360 C   0  0  0  0  0  3  0  0  0  0  0  0
  163.2220  206.7430  147.0570 F   0  0  0  0  0  0  0  0  0  0  0  0
  161.2200  206.2110  148.2300 C   0  0  0  0  0  3  0  0  0  0  0  0
  162.3840  206.9700  148.0940 C   0  0  0  0  0  0  0  0  0  0  0  0
  160.3610  206.4380  149.3070 C   0  0  0  0  0  3  0  0  0  0  0  0
  156.6480  214.3390  146.0680 O   0  0  0  0  0  1  0  0  0  0  0  0
  157.6670  213.4810  145.6540 C   0  0  0  0  0  2  0  0  0  0  0  0
  159.3150  213.8430  152.8530 C   0  0  0  0  0  2  0  0  0  0  0  0
  158.3250  214.1740  153.9120 C   0  0  0  0  0  0  0  0  0  0  0  0
  157.1410  214.4530  153.5870 O   0  0  0  0  0  0  0  0  0  0  0  0
  158.7060  214.1240  155.2510 O   0  0  0  0  0  0  0  0  0  0  0  0
  159.9220  213.5140  155.6610 C   0  0  0  0  0  1  0  0  0  0  0  0
  1 22  1  0  0  0  0
  2  8  2  0  0  0  0
  2 17  1  0  0  0  0
  3  1  1  0  0  0  0
  5  8  1  0  0  0  0
  6  2  1  1  0  0  0
  7 21  1  1  0  0  0
  7 11  1  0  0  0  0
  7 15  1  0  0  0  0
  8 10  1  0  0  0  0
  9  4  1  6  0  0  0
  9 19  1  0  0  0  0
  9  6  1  0  0  0  0
 10 14  1  0  0  0  0
 11 32  1  6  0  0  0
 11  3  1  0  0  0  0
 12  5  1  0  0  0  0
 12 33  1  1  0  0  0
 13 17  1  0  0  0  0
 15 20  1  0  0  0  0
 16  4  1  0  0  0  0
 17 14  2  0  0  0  0
 18  6  1  0  0  0  0
 18 12  1  0  0  0  0
 19 23  1  0  0  0  0
 20 16  1  0  0  0  0
 20 22  1  0  0  0  0
 22 18  1  0  0  0  0
 23 13  1  0  0  0  0
 25 24  1  0  0  0  0
 25 19  1  0  0  0  0
 26 25  2  0  0  0  0
 27 29  1  0  0  0  0
 28 30  1  0  0  0  0
 29 28  2  0  0  0  0
 29 26  1  0  0  0  0
 30 24  2  0  0  0  0
 32 31  1  0  0  0  0
 33 34  1  0  0  0  0
 34 36  1  0  0  0  0
 35 34  2  0  0  0  0
 36 37  1  0  0  0  0
M  END
>  <MODEL>
8

>  <REMARK>
 VINA RESULT:      -1.5      9.922     12.268
  Name = 
  5 active torsions:
  status: ('A' for Active; 'I' for Inactive)
    1  A    between atoms: O_3  and  C_21
    2  A    between atoms: C_6  and  N_31
    3  A    between atoms: C_17  and  C_23
    4  A    between atoms: C_20  and  C_25
    5  A    between atoms: C_21  and  C_25
                            x       y       z     vdW  Elec       q    Type
                         _______ _______ _______ _____ _____    ______ ____

>  <TORSDO>
F 5

$$$$
