=
 OpenBabel11052422243D

 31 36  0  0  1  0  0  0  0  0999 V2000
  161.3390  200.7610  148.8520 C   0  0  0  0  0  0  0  0  0  0  0  0
  161.2760  204.4830  148.4330 N   0  0  0  0  0  0  0  0  0  0  0  0
  161.5950  204.7970  147.0550 C   0  0  2  0  0  3  0  0  0  0  0  0
  163.2620  204.5380  145.2020 C   0  0  0  0  0  2  0  0  0  0  0  0
  161.1190  203.1740  148.9910 C   0  0  0  0  0  0  0  0  0  0  0  0
  160.6980  200.6340  150.0890 C   0  0  0  0  0  3  0  0  0  0  0  0
  163.0620  204.5870  146.7220 C   0  0  0  0  0  2  0  0  0  0  0  0
  160.3620  205.5220  150.5750 C   0  0  2  0  0  3  0  0  0  0  0  0
  161.7360  199.6540  148.1780 F   0  0  0  0  0  0  0  0  0  0  0  0
  160.5350  206.7630  148.1600 C   0  0  2  0  0  3  0  0  0  0  0  0
  162.8060  205.8150  144.4670 C   0  0  0  0  0  2  0  0  0  0  0  0
  160.0510  204.1740  150.9570 O   0  0  0  0  0  0  0  0  0  0  0  0
  160.6140  205.6020  149.0630 C   0  0  1  0  0  0  0  0  0  0  0  0
  161.5440  202.0280  148.2980 C   0  0  0  0  0  3  0  0  0  0  0  0
  161.2710  205.9180  144.3880 C   0  0  0  0  0  2  0  0  0  0  0  0
  160.4930  203.0410  150.2470 C   0  0  0  0  0  0  0  0  0  0  0  0
  160.2760  201.7710  150.7830 C   0  0  0  0  0  3  0  0  0  0  0  0
  159.4230  205.9240  148.3830 O   0  0  0  0  0  0  0  0  0  0  0  0
  161.3110  206.2920  146.9210 C   0  0  2  0  0  3  0  0  0  0  0  0
  160.6210  206.6190  145.5990 C   0  0  0  0  0  2  0  0  0  0  0  0
  161.8990  207.4750  151.0640 C   0  0  0  0  0  2  0  0  0  0  0  0
  161.0600  207.2910  152.3130 C   0  0  1  0  0  3  0  0  0  0  0  0
  161.4710  206.0780  151.4900 C   0  0  1  0  0  3  0  0  0  0  0  0
  161.9490  207.3470  153.5420 C   0  0  0  0  0  2  0  0  0  0  0  0
  161.1450  207.4910  154.8330 C   0  0  0  0  0  2  0  0  0  0  0  0
  162.1480  208.4120  156.7800 O   0  0  0  0  0  0  0  0  0  0  0  0
  161.5800  208.6550  155.6810 C   0  0  0  0  0  0  0  0  0  0  0  0
  161.3860  210.0190  155.2870 N   0  0  0  0  0  2  0  0  0  0  0  0
  160.4600  210.5200  154.3150 C   0  0  0  0  0  0  0  0  0  0  0  0
  160.9430  210.8570  153.0180 N   0  0  0  0  0  1  0  0  0  0  0  0
  158.9940  211.0930  154.7800 S   0  0  0  0  0  0  0  0  0  0  0  0
  1  6  1  0  0  0  0
  2  5  1  0  0  0  0
  2 13  1  0  0  0  0
  3  7  1  1  0  0  0
  3  2  1  0  0  0  0
  4  7  1  0  0  0  0
  5 16  2  0  0  0  0
  6 17  2  0  0  0  0
  8 12  1  1  0  0  0
  8 23  1  0  0  0  0
  9  1  1  0  0  0  0
 10 18  1  6  0  0  0
 10 13  1  0  0  0  0
 11  4  1  0  0  0  0
 13 18  1  6  0  0  0
 13  8  1  0  0  0  0
 14  1  2  0  0  0  0
 14  5  1  0  0  0  0
 15 11  1  0  0  0  0
 15 20  1  0  0  0  0
 16 17  1  0  0  0  0
 16 12  1  0  0  0  0
 19 20  1  6  0  0  0
 19  3  1  0  0  0  0
 19 10  1  0  0  0  0
 21 22  1  0  0  0  0
 22 24  1  1  0  0  0
 23 21  1  6  0  0  0
 23 22  1  0  0  0  0
 24 25  1  0  0  0  0
 25 27  1  0  0  0  0
 27 26  2  0  0  0  0
 28 27  1  0  0  0  0
 29 31  2  0  0  0  0
 29 28  1  0  0  0  0
 30 29  1  0  0  0  0
M  END
>  <MODEL>
1

>  <REMARK>
 VINA RESULT:      -6.2      0.000      0.000
  Name = 
  5 active torsions:
  status: ('A' for Active; 'I' for Inactive)
    1  A    between atoms: C_1  and  N_24
    2  A    between atoms: C_3  and  C_9
    3  A    between atoms: C_3  and  C_22
    4  A    between atoms: C_15  and  C_23
    5  A    between atoms: C_19  and  C_22
                            x       y       z     vdW  Elec       q    Type
                         _______ _______ _______ _____ _____    ______ ____

>  <TORSDO>
F 5

$$$$
=
 OpenBabel11052422243D

 31 36  0  0  1  0  0  0  0  0999 V2000
  161.3930  201.0650  149.2380 C   0  0  0  0  0  0  0  0  0  0  0  0
  161.2640  204.7010  148.3490 N   0  0  0  0  0  0  0  0  0  0  0  0
  161.5340  204.8390  146.9320 C   0  0  2  0  0  3  0  0  0  0  0  0
  163.1440  204.3610  145.0720 C   0  0  0  0  0  2  0  0  0  0  0  0
  161.1440  203.4740  149.0740 C   0  0  0  0  0  0  0  0  0  0  0  0
  160.7940  201.0910  150.5020 C   0  0  0  0  0  3  0  0  0  0  0  0
  162.9930  204.6030  146.5790 C   0  0  0  0  0  2  0  0  0  0  0  0
  160.4050  205.9970  150.3700 C   0  0  2  0  0  3  0  0  0  0  0  0
  161.7840  199.8850  148.6980 F   0  0  0  0  0  0  0  0  0  0  0  0
  160.4830  206.9200  147.8110 C   0  0  2  0  0  3  0  0  0  0  0  0
  162.6460  205.5280  144.1950 C   0  0  0  0  0  2  0  0  0  0  0  0
  160.1260  204.7060  150.9310 O   0  0  0  0  0  0  0  0  0  0  0  0
  160.6080  205.8850  148.8530 C   0  0  1  0  0  0  0  0  0  0  0  0
  161.5630  202.2520  148.5190 C   0  0  0  0  0  3  0  0  0  0  0  0
  161.1080  205.6050  144.1560 C   0  0  0  0  0  2  0  0  0  0  0  0
  160.5610  203.4960  150.3580 C   0  0  0  0  0  0  0  0  0  0  0  0
  160.3790  202.3030  151.0590 C   0  0  0  0  0  3  0  0  0  0  0  0
  159.3910  206.1060  148.1780 O   0  0  0  0  0  0  0  0  0  0  0  0
  161.2240  206.3010  146.6180 C   0  0  2  0  0  3  0  0  0  0  0  0
  160.4880  206.4490  145.2880 C   0  0  0  0  0  2  0  0  0  0  0  0
  162.2630  207.7190  150.3310 C   0  0  0  0  0  2  0  0  0  0  0  0
  161.3170  208.1610  151.4310 C   0  0  1  0  0  3  0  0  0  0  0  0
  161.5350  206.6780  151.1680 C   0  0  1  0  0  3  0  0  0  0  0  0
  162.1100  208.5400  152.6680 C   0  0  0  0  0  2  0  0  0  0  0  0
  161.2110  208.9890  153.8180 C   0  0  0  0  0  2  0  0  0  0  0  0
  160.7530  206.8260  154.6860 O   0  0  0  0  0  0  0  0  0  0  0  0
  161.1410  207.9960  154.9460 C   0  0  0  0  0  0  0  0  0  0  0  0
  161.5090  208.3220  156.2920 N   0  0  0  0  0  2  0  0  0  0  0  0
  161.6020  209.6280  156.8760 C   0  0  0  0  0  0  0  0  0  0  0  0
  160.4030  210.2930  157.2610 N   0  0  0  0  0  1  0  0  0  0  0  0
  162.9760  210.5110  156.7220 S   0  0  0  0  0  0  0  0  0  0  0  0
  1  6  1  0  0  0  0
  2 13  1  0  0  0  0
  2  5  1  0  0  0  0
  3  7  1  1  0  0  0
  3  2  1  0  0  0  0
  4  7  1  0  0  0  0
  5 16  2  0  0  0  0
  6 17  2  0  0  0  0
  8 12  1  1  0  0  0
  8 23  1  0  0  0  0
  9  1  1  0  0  0  0
 10 18  1  6  0  0  0
 10 13  1  0  0  0  0
 11  4  1  0  0  0  0
 13 18  1  6  0  0  0
 13  8  1  0  0  0  0
 14  5  1  0  0  0  0
 14  1  2  0  0  0  0
 15 11  1  0  0  0  0
 15 20  1  0  0  0  0
 16 12  1  0  0  0  0
 16 17  1  0  0  0  0
 19 20  1  6  0  0  0
 19  3  1  0  0  0  0
 19 10  1  0  0  0  0
 21 22  1  0  0  0  0
 22 24  1  1  0  0  0
 23 21  1  6  0  0  0
 23 22  1  0  0  0  0
 24 25  1  0  0  0  0
 25 27  1  0  0  0  0
 26 27  2  0  0  0  0
 27 28  1  0  0  0  0
 28 29  1  0  0  0  0
 29 30  1  0  0  0  0
 31 29  2  0  0  0  0
M  END
>  <MODEL>
2

>  <REMARK>
 VINA RESULT:      -6.1      1.428      1.533
  Name = 
  5 active torsions:
  status: ('A' for Active; 'I' for Inactive)
    1  A    between atoms: C_1  and  N_24
    2  A    between atoms: C_3  and  C_9
    3  A    between atoms: C_3  and  C_22
    4  A    between atoms: C_15  and  C_23
    5  A    between atoms: C_19  and  C_22
                            x       y       z     vdW  Elec       q    Type
                         _______ _______ _______ _____ _____    ______ ____

>  <TORSDO>
F 5

$$$$
=
 OpenBabel11052422243D

 31 36  0  0  1  0  0  0  0  0999 V2000
  161.4060  201.8380  150.3310 C   0  0  0  0  0  0  0  0  0  0  0  0
  161.3060  205.1840  148.6520 N   0  0  0  0  0  0  0  0  0  0  0  0
  161.4450  204.9880  147.2240 C   0  0  2  0  0  3  0  0  0  0  0  0
  162.8570  204.0240  145.3910 C   0  0  0  0  0  2  0  0  0  0  0  0
  161.2160  204.1590  149.6460 C   0  0  0  0  0  0  0  0  0  0  0  0
  160.9300  202.1770  151.6030 C   0  0  0  0  0  3  0  0  0  0  0  0
  162.8560  204.6050  146.8120 C   0  0  0  0  0  2  0  0  0  0  0  0
  160.6800  206.9420  150.3910 C   0  0  2  0  0  3  0  0  0  0  0  0
  161.7090  200.5490  150.0430 F   0  0  0  0  0  0  0  0  0  0  0  0
  160.5450  207.2630  147.6920 C   0  0  2  0  0  3  0  0  0  0  0  0
  162.3160  204.9890  144.3180 C   0  0  0  0  0  2  0  0  0  0  0  0
  160.4160  205.8260  151.2530 O   0  0  0  0  0  0  0  0  0  0  0  0
  160.7350  206.4830  148.9270 C   0  0  1  0  0  0  0  0  0  0  0  0
  161.5440  202.8240  149.3500 C   0  0  0  0  0  3  0  0  0  0  0  0
  160.7830  205.1330  144.3920 C   0  0  0  0  0  2  0  0  0  0  0  0
  160.7580  204.4980  150.9350 C   0  0  0  0  0  0  0  0  0  0  0  0
  160.6060  203.5030  151.9020 C   0  0  0  0  0  3  0  0  0  0  0  0
  159.4680  206.6090  148.3250 O   0  0  0  0  0  0  0  0  0  0  0  0
  161.1520  206.3560  146.6120 C   0  0  2  0  0  3  0  0  0  0  0  0
  160.2990  206.2410  145.3510 C   0  0  0  0  0  2  0  0  0  0  0  0
  162.3910  208.7430  149.8960 C   0  0  0  0  0  2  0  0  0  0  0  0
  161.6500  209.2110  151.1330 C   0  0  1  0  0  3  0  0  0  0  0  0
  161.9000  207.7260  150.9140 C   0  0  1  0  0  3  0  0  0  0  0  0
  162.6420  209.7070  152.1690 C   0  0  0  0  0  2  0  0  0  0  0  0
  161.9600  210.4540  153.3130 C   0  0  0  0  0  2  0  0  0  0  0  0
  159.6070  210.7770  153.2920 O   0  0  0  0  0  0  0  0  0  0  0  0
  160.5520  209.9920  153.5740 C   0  0  0  0  0  0  0  0  0  0  0  0
  160.2440  208.7020  154.1150 N   0  0  0  0  0  2  0  0  0  0  0  0
  161.1210  207.8320  154.8420 C   0  0  0  0  0  0  0  0  0  0  0  0
  161.3630  206.5230  154.3360 N   0  0  0  0  0  1  0  0  0  0  0  0
  161.4990  208.1520  156.4070 S   0  0  0  0  0  0  0  0  0  0  0  0
  1  6  1  0  0  0  0
  2 13  1  0  0  0  0
  2  5  1  0  0  0  0
  3  7  1  1  0  0  0
  3  2  1  0  0  0  0
  4  7  1  0  0  0  0
  5 16  2  0  0  0  0
  6 17  2  0  0  0  0
  8 23  1  0  0  0  0
  8 12  1  1  0  0  0
  9  1  1  0  0  0  0
 10 18  1  6  0  0  0
 10 13  1  0  0  0  0
 11 15  1  0  0  0  0
 11  4  1  0  0  0  0
 13 18  1  1  0  0  0
 13  8  1  0  0  0  0
 14  5  1  0  0  0  0
 14  1  2  0  0  0  0
 15 20  1  0  0  0  0
 16 12  1  0  0  0  0
 16 17  1  0  0  0  0
 19 20  1  6  0  0  0
 19  3  1  0  0  0  0
 19 10  1  0  0  0  0
 21 22  1  0  0  0  0
 22 24  1  1  0  0  0
 23 21  1  6  0  0  0
 23 22  1  0  0  0  0
 24 25  1  0  0  0  0
 25 27  1  0  0  0  0
 26 27  2  0  0  0  0
 27 28  1  0  0  0  0
 28 29  1  0  0  0  0
 29 31  2  0  0  0  0
 30 29  1  0  0  0  0
M  END
>  <MODEL>
3

>  <REMARK>
 VINA RESULT:      -6.1      1.796      2.173
  Name = 
  5 active torsions:
  status: ('A' for Active; 'I' for Inactive)
    1  A    between atoms: C_1  and  N_24
    2  A    between atoms: C_3  and  C_9
    3  A    between atoms: C_3  and  C_22
    4  A    between atoms: C_15  and  C_23
    5  A    between atoms: C_19  and  C_22
                            x       y       z     vdW  Elec       q    Type
                         _______ _______ _______ _____ _____    ______ ____

>  <TORSDO>
F 5

$$$$
=
 OpenBabel11052422243D

 31 36  0  0  1  0  0  0  0  0999 V2000
  161.3860  201.8140  150.3150 C   0  0  0  0  0  0  0  0  0  0  0  0
  161.2910  205.1680  148.6490 N   0  0  0  0  0  0  0  0  0  0  0  0
  161.4320  204.9770  147.2200 C   0  0  2  0  0  3  0  0  0  0  0  0
  162.8450  204.0190  145.3860 C   0  0  0  0  0  2  0  0  0  0  0  0
  161.2000  204.1380  149.6390 C   0  0  0  0  0  0  0  0  0  0  0  0
  160.9090  202.1490  151.5870 C   0  0  0  0  0  3  0  0  0  0  0  0
  162.8430  204.5940  146.8080 C   0  0  0  0  0  2  0  0  0  0  0  0
  160.6660  206.9190  150.3940 C   0  0  2  0  0  3  0  0  0  0  0  0
  161.6870  200.5260  150.0220 F   0  0  0  0  0  0  0  0  0  0  0  0
  160.5340  207.2520  147.6970 C   0  0  2  0  0  3  0  0  0  0  0  0
  162.3060  204.9890  144.3160 C   0  0  0  0  0  2  0  0  0  0  0  0
  160.4000  205.8000  151.2520 O   0  0  0  0  0  0  0  0  0  0  0  0
  160.7230  206.4660  148.9290 C   0  0  1  0  0  0  0  0  0  0  0  0
  161.5260  202.8050  149.3380 C   0  0  0  0  0  3  0  0  0  0  0  0
  160.7740  205.1350  144.3890 C   0  0  0  0  0  2  0  0  0  0  0  0
  160.7400  204.4730  150.9290 C   0  0  0  0  0  0  0  0  0  0  0  0
  160.5870  203.4730  151.8920 C   0  0  0  0  0  3  0  0  0  0  0  0
  159.4560  206.5960  148.3260 O   0  0  0  0  0  0  0  0  0  0  0  0
  161.1410  206.3480  146.6140 C   0  0  2  0  0  3  0  0  0  0  0  0
  160.2890  206.2390  145.3520 C   0  0  0  0  0  2  0  0  0  0  0  0
  162.3120  208.7950  149.9570 C   0  0  0  0  0  2  0  0  0  0  0  0
  161.6100  209.1590  151.2500 C   0  0  1  0  0  3  0  0  0  0  0  0
  161.8870  207.6990  150.9230 C   0  0  1  0  0  3  0  0  0  0  0  0
  162.6300  209.6120  152.2780 C   0  0  0  0  0  2  0  0  0  0  0  0
  161.9910  210.3980  153.4220 C   0  0  0  0  0  2  0  0  0  0  0  0
  161.1610  208.4150  154.4330 O   0  0  0  0  0  0  0  0  0  0  0  0
  160.9330  209.6240  154.1620 C   0  0  0  0  0  0  0  0  0  0  0  0
  159.6930  210.2070  154.5790 N   0  0  0  0  0  2  0  0  0  0  0  0
  159.0750  211.3960  154.0670 C   0  0  0  0  0  0  0  0  0  0  0  0
  158.6250  211.4070  152.7160 N   0  0  0  0  0  1  0  0  0  0  0  0
  159.2570  212.8280  154.8470 S   0  0  0  0  0  0  0  0  0  0  0  0
  1  6  1  0  0  0  0
  2 13  1  0  0  0  0
  2  5  1  0  0  0  0
  3  7  1  1  0  0  0
  3  2  1  0  0  0  0
  4  7  1  0  0  0  0
  5 16  2  0  0  0  0
  6 17  2  0  0  0  0
  8 23  1  0  0  0  0
  8 12  1  1  0  0  0
  9  1  1  0  0  0  0
 10 18  1  6  0  0  0
 10 13  1  0  0  0  0
 11 15  1  0  0  0  0
 11  4  1  0  0  0  0
 13 18  1  1  0  0  0
 13  8  1  0  0  0  0
 14  5  1  0  0  0  0
 14  1  2  0  0  0  0
 15 20  1  0  0  0  0
 16 12  1  0  0  0  0
 16 17  1  0  0  0  0
 19 20  1  6  0  0  0
 19  3  1  0  0  0  0
 19 10  1  0  0  0  0
 21 22  1  0  0  0  0
 22 24  1  1  0  0  0
 23 21  1  6  0  0  0
 23 22  1  0  0  0  0
 24 25  1  0  0  0  0
 25 27  1  0  0  0  0
 27 26  2  0  0  0  0
 27 28  1  0  0  0  0
 29 28  1  0  0  0  0
 29 31  2  0  0  0  0
 30 29  1  0  0  0  0
M  END
>  <MODEL>
4

>  <REMARK>
 VINA RESULT:      -6.0      1.426      1.671
  Name = 
  5 active torsions:
  status: ('A' for Active; 'I' for Inactive)
    1  A    between atoms: C_1  and  N_24
    2  A    between atoms: C_3  and  C_9
    3  A    between atoms: C_3  and  C_22
    4  A    between atoms: C_15  and  C_23
    5  A    between atoms: C_19  and  C_22
                            x       y       z     vdW  Elec       q    Type
                         _______ _______ _______ _____ _____    ______ ____

>  <TORSDO>
F 5

$$$$
=
 OpenBabel11052422243D

 31 36  0  0  1  0  0  0  0  0999 V2000
  159.6600  210.2150  156.3040 C   0  0  0  0  0  0  0  0  0  0  0  0
  160.4200  210.4460  152.6440 N   0  0  0  0  0  0  0  0  0  0  0  0
  159.9640  211.7330  152.1590 C   0  0  2  0  0  3  0  0  0  0  0  0
  158.0140  213.2900  151.9320 C   0  0  0  0  0  2  0  0  0  0  0  0
  160.3900  209.9910  154.0000 C   0  0  0  0  0  0  0  0  0  0  0  0
  160.4450  209.1120  156.6570 C   0  0  0  0  0  3  0  0  0  0  0  0
  158.4520  211.8250  152.0510 C   0  0  0  0  0  2  0  0  0  0  0  0
  161.8470  208.4380  151.9870 C   0  0  2  0  0  3  0  0  0  0  0  0
  158.9450  210.8690  157.2520 F   0  0  0  0  0  0  0  0  0  0  0  0
  161.5620  210.7220  150.5370 C   0  0  2  0  0  3  0  0  0  0  0  0
  158.6040  214.0250  150.7110 C   0  0  0  0  0  2  0  0  0  0  0  0
  161.9300  208.1830  153.3970 O   0  0  0  0  0  0  0  0  0  0  0  0
  161.3870  209.8790  151.7320 C   0  0  1  0  0  0  0  0  0  0  0  0
  159.6370  210.6610  154.9790 C   0  0  0  0  0  3  0  0  0  0  0  0
  160.0960  214.3550  150.9020 C   0  0  0  0  0  2  0  0  0  0  0  0
  161.1610  208.8660  154.3580 C   0  0  0  0  0  0  0  0  0  0  0  0
  161.1920  208.4400  155.6870 C   0  0  0  0  0  3  0  0  0  0  0  0
  162.4990  210.7320  151.5910 O   0  0  0  0  0  0  0  0  0  0  0  0
  160.5250  211.8350  150.7420 C   0  0  2  0  0  3  0  0  0  0  0  0
  161.0550  213.2360  150.4440 C   0  0  0  0  0  2  0  0  0  0  0  0
  161.0360  207.4710  149.7910 C   0  0  0  0  0  2  0  0  0  0  0  0
  161.8540  206.3740  150.4440 C   0  0  1  0  0  3  0  0  0  0  0  0
  161.0310  207.3220  151.3050 C   0  0  1  0  0  3  0  0  0  0  0  0
  161.1090  205.0550  150.3540 C   0  0  0  0  0  2  0  0  0  0  0  0
  160.7270  204.7020  148.9180 C   0  0  0  0  0  2  0  0  0  0  0  0
  161.1830  202.4160  149.3780 O   0  0  0  0  0  0  0  0  0  0  0  0
  161.1670  203.3230  148.5040 C   0  0  0  0  0  0  0  0  0  0  0  0
  161.5540  203.0010  147.1620 N   0  0  0  0  0  2  0  0  0  0  0  0
  161.9710  203.9100  146.1350 C   0  0  0  0  0  0  0  0  0  0  0  0
  163.0980  204.7460  146.3770 N   0  0  0  0  0  1  0  0  0  0  0  0
  160.9570  204.2950  144.9030 S   0  0  0  0  0  0  0  0  0  0  0  0
  1  6  1  0  0  0  0
  1  9  1  0  0  0  0
  2  5  1  0  0  0  0
  3  7  1  6  0  0  0
  3  2  1  0  0  0  0
  4  7  1  0  0  0  0
  5 16  2  0  0  0  0
  5 14  1  0  0  0  0
  8 12  1  1  0  0  0
 10 19  1  0  0  0  0
 10 18  1  1  0  0  0
 10 13  1  0  0  0  0
 11 15  1  0  0  0  0
 11  4  1  0  0  0  0
 12 16  1  0  0  0  0
 13 18  1  1  0  0  0
 13  8  1  0  0  0  0
 13  2  1  0  0  0  0
 14  1  2  0  0  0  0
 16 17  1  0  0  0  0
 17  6  2  0  0  0  0
 19 20  1  1  0  0  0
 19  3  1  0  0  0  0
 20 15  1  0  0  0  0
 21 22  1  0  0  0  0
 22 24  1  6  0  0  0
 22 23  1  0  0  0  0
 23 21  1  6  0  0  0
 23  8  1  0  0  0  0
 25 24  1  0  0  0  0
 27 25  1  0  0  0  0
 27 26  2  0  0  0  0
 28 27  1  0  0  0  0
 29 30  1  0  0  0  0
 29 28  1  0  0  0  0
 31 29  2  0  0  0  0
M  END
>  <MODEL>
5

>  <REMARK>
 VINA RESULT:      -5.5      4.376      8.726
  Name = 
  5 active torsions:
  status: ('A' for Active; 'I' for Inactive)
    1  A    between atoms: C_1  and  N_24
    2  A    between atoms: C_3  and  C_9
    3  A    between atoms: C_3  and  C_22
    4  A    between atoms: C_15  and  C_23
    5  A    between atoms: C_19  and  C_22
                            x       y       z     vdW  Elec       q    Type
                         _______ _______ _______ _____ _____    ______ ____

>  <TORSDO>
F 5

$$$$
=
 OpenBabel11052422243D

 31 36  0  0  1  0  0  0  0  0999 V2000
  156.7100  214.2010  146.2500 C   0  0  0  0  0  0  0  0  0  0  0  0
  160.2990  213.1330  146.3240 N   0  0  0  0  0  0  0  0  0  0  0  0
  160.8140  213.1530  144.9700 C   0  0  2  0  0  3  0  0  0  0  0  0
  160.5280  212.3020  142.6300 C   0  0  0  0  0  2  0  0  0  0  0  0
  158.9940  213.5460  146.7420 C   0  0  0  0  0  0  0  0  0  0  0  0
  156.4900  214.4480  147.6090 C   0  0  0  0  0  3  0  0  0  0  0  0
  160.2880  212.0110  144.1170 C   0  0  0  0  0  2  0  0  0  0  0  0
  161.0420  212.9640  148.7580 C   0  0  2  0  0  3  0  0  0  0  0  0
  155.7170  214.4180  145.3530 F   0  0  0  0  0  0  0  0  0  0  0  0
  162.6960  213.1120  146.6020 C   0  0  2  0  0  3  0  0  0  0  0  0
  162.0120  212.5000  142.2610 C   0  0  0  0  0  2  0  0  0  0  0  0
  159.7820  213.5800  149.0620 O   0  0  0  0  0  0  0  0  0  0  0  0
  161.3860  213.1610  147.2750 C   0  0  1  0  0  0  0  0  0  0  0  0
  157.9620  213.7570  145.8130 C   0  0  0  0  0  3  0  0  0  0  0  0
  162.5500  213.8610  142.7420 C   0  0  0  0  0  2  0  0  0  0  0  0
  158.7600  213.7760  148.1130 C   0  0  0  0  0  0  0  0  0  0  0  0
  157.5130  214.2370  148.5370 C   0  0  0  0  0  3  0  0  0  0  0  0
  162.1690  214.3200  147.1040 O   0  0  0  0  0  0  0  0  0  0  0  0
  162.3190  212.9460  145.1230 C   0  0  2  0  0  3  0  0  0  0  0  0
  163.1130  213.8460  144.1790 C   0  0  0  0  0  2  0  0  0  0  0  0
  162.1990  210.7110  148.6870 C   0  0  0  0  0  2  0  0  0  0  0  0
  162.2590  211.1580  150.1340 C   0  0  1  0  0  3  0  0  0  0  0  0
  161.0500  211.5140  149.2810 C   0  0  1  0  0  3  0  0  0  0  0  0
  161.8690  210.0070  151.0430 C   0  0  0  0  0  2  0  0  0  0  0  0
  162.1860  208.6460  150.4240 C   0  0  0  0  0  2  0  0  0  0  0  0
  161.6830  207.5220  152.4550 O   0  0  0  0  0  0  0  0  0  0  0  0
  161.6150  207.4890  151.1970 C   0  0  0  0  0  0  0  0  0  0  0  0
  160.9890  206.3650  150.5660 N   0  0  0  0  0  2  0  0  0  0  0  0
  161.1360  205.9400  149.2050 C   0  0  0  0  0  0  0  0  0  0  0  0
  160.9080  206.8850  148.1640 N   0  0  0  0  0  1  0  0  0  0  0  0
  161.1420  204.3430  148.8290 S   0  0  0  0  0  0  0  0  0  0  0  0
  1  6  1  0  0  0  0
  2  5  1  0  0  0  0
  2 13  1  0  0  0  0
  3  7  1  6  0  0  0
  3 19  1  0  0  0  0
  3  2  1  0  0  0  0
  4  7  1  0  0  0  0
  5 16  2  0  0  0  0
  6 17  2  0  0  0  0
  8 12  1  6  0  0  0
  8 23  1  0  0  0  0
  9  1  1  0  0  0  0
 10 18  1  6  0  0  0
 10 13  1  0  0  0  0
 11  4  1  0  0  0  0
 11 15  1  0  0  0  0
 13 18  1  1  0  0  0
 13  8  1  0  0  0  0
 14  1  2  0  0  0  0
 14  5  1  0  0  0  0
 15 20  1  0  0  0  0
 16 17  1  0  0  0  0
 16 12  1  0  0  0  0
 19 20  1  6  0  0  0
 19 10  1  0  0  0  0
 21 22  1  0  0  0  0
 22 24  1  1  0  0  0
 23 21  1  6  0  0  0
 23 22  1  0  0  0  0
 25 24  1  0  0  0  0
 25 27  1  0  0  0  0
 27 26  2  0  0  0  0
 28 27  1  0  0  0  0
 29 28  1  0  0  0  0
 30 29  1  0  0  0  0
 31 29  2  0  0  0  0
M  END
>  <MODEL>
6

>  <REMARK>
 VINA RESULT:      -5.4      6.838      8.929
  Name = 
  5 active torsions:
  status: ('A' for Active; 'I' for Inactive)
    1  A    between atoms: C_1  and  N_24
    2  A    between atoms: C_3  and  C_9
    3  A    between atoms: C_3  and  C_22
    4  A    between atoms: C_15  and  C_23
    5  A    between atoms: C_19  and  C_22
                            x       y       z     vdW  Elec       q    Type
                         _______ _______ _______ _____ _____    ______ ____

>  <TORSDO>
F 5

$$$$
=
 OpenBabel11052422243D

 31 36  0  0  1  0  0  0  0  0999 V2000
  156.7470  214.0300  145.9490 C   0  0  0  0  0  0  0  0  0  0  0  0
  160.3980  213.2040  145.8320 N   0  0  0  0  0  0  0  0  0  0  0  0
  160.8660  213.3730  144.4710 C   0  0  2  0  0  3  0  0  0  0  0  0
  160.5590  212.7070  142.0750 C   0  0  0  0  0  2  0  0  0  0  0  0
  159.0840  213.4910  146.3200 C   0  0  0  0  0  0  0  0  0  0  0  0
  156.5570  214.1460  147.3300 C   0  0  0  0  0  3  0  0  0  0  0  0
  160.3860  212.2750  143.5370 C   0  0  0  0  0  2  0  0  0  0  0  0
  161.2300  212.8780  148.2210 C   0  0  2  0  0  3  0  0  0  0  0  0
  155.7130  214.2550  145.1010 F   0  0  0  0  0  0  0  0  0  0  0  0
  162.7990  213.3200  146.0420 C   0  0  2  0  0  3  0  0  0  0  0  0
  162.0130  213.0350  141.6840 C   0  0  0  0  0  2  0  0  0  0  0  0
  159.9430  213.3800  148.6120 O   0  0  0  0  0  0  0  0  0  0  0  0
  161.5110  213.2240  146.7520 C   0  0  1  0  0  0  0  0  0  0  0  0
  158.0100  213.7110  145.4410 C   0  0  0  0  0  3  0  0  0  0  0  0
  162.4780  214.3830  142.2670 C   0  0  0  0  0  2  0  0  0  0  0  0
  158.8810  213.5870  147.7120 C   0  0  0  0  0  0  0  0  0  0  0  0
  157.6200  213.9260  148.2080 C   0  0  0  0  0  3  0  0  0  0  0  0
  162.2120  214.4430  146.6610 O   0  0  0  0  0  0  0  0  0  0  0  0
  162.3850  213.2550  144.5650 C   0  0  2  0  0  3  0  0  0  0  0  0
  163.0880  214.2840  143.6810 C   0  0  0  0  0  2  0  0  0  0  0  0
  162.7210  210.8310  148.2700 C   0  0  0  0  0  2  0  0  0  0  0  0
  162.3610  211.1120  149.7160 C   0  0  1  0  0  3  0  0  0  0  0  0
  161.3490  211.3930  148.6150 C   0  0  1  0  0  3  0  0  0  0  0  0
  161.9590  209.8210  150.4050 C   0  0  0  0  0  2  0  0  0  0  0  0
  162.0600  209.9190  151.9260 C   0  0  0  0  0  2  0  0  0  0  0  0
  160.5340  208.1770  152.4540 O   0  0  0  0  0  0  0  0  0  0  0  0
  160.8500  209.3820  152.6420 C   0  0  0  0  0  0  0  0  0  0  0  0
  160.0570  210.1770  153.5320 N   0  0  0  0  0  2  0  0  0  0  0  0
  159.9920  211.6070  153.5970 C   0  0  0  0  0  0  0  0  0  0  0  0
  160.0790  212.2390  154.8700 N   0  0  0  0  0  1  0  0  0  0  0  0
  159.4150  212.4720  152.3280 S   0  0  0  0  0  0  0  0  0  0  0  0
  1  6  1  0  0  0  0
  2  5  1  0  0  0  0
  2 13  1  0  0  0  0
  3  7  1  6  0  0  0
  3 19  1  0  0  0  0
  3  2  1  0  0  0  0
  4  7  1  0  0  0  0
  5 16  2  0  0  0  0
  6 17  2  0  0  0  0
  8 12  1  6  0  0  0
  8 23  1  0  0  0  0
  9  1  1  0  0  0  0
 10 18  1  6  0  0  0
 10 13  1  0  0  0  0
 11  4  1  0  0  0  0
 11 15  1  0  0  0  0
 13 18  1  1  0  0  0
 13  8  1  0  0  0  0
 14  1  2  0  0  0  0
 14  5  1  0  0  0  0
 15 20  1  0  0  0  0
 16 17  1  0  0  0  0
 16 12  1  0  0  0  0
 19 20  1  6  0  0  0
 19 10  1  0  0  0  0
 21 22  1  0  0  0  0
 22 24  1  1  0  0  0
 23 21  1  6  0  0  0
 23 22  1  0  0  0  0
 24 25  1  0  0  0  0
 25 27  1  0  0  0  0
 26 27  2  0  0  0  0
 27 28  1  0  0  0  0
 28 29  1  0  0  0  0
 29 30  1  0  0  0  0
 31 29  2  0  0  0  0
M  END
>  <MODEL>
7

>  <REMARK>
 VINA RESULT:      -5.0      6.804      8.667
  Name = 
  5 active torsions:
  status: ('A' for Active; 'I' for Inactive)
    1  A    between atoms: C_1  and  N_24
    2  A    between atoms: C_3  and  C_9
    3  A    between atoms: C_3  and  C_22
    4  A    between atoms: C_15  and  C_23
    5  A    between atoms: C_19  and  C_22
                            x       y       z     vdW  Elec       q    Type
                         _______ _______ _______ _____ _____    ______ ____

>  <TORSDO>
F 5

$$$$
=
 OpenBabel11052422243D

 31 36  0  0  1  0  0  0  0  0999 V2000
  161.1860  207.2030  147.3740 C   0  0  0  0  0  0  0  0  0  0  0  0
  161.2340  205.4240  150.6690 N   0  0  0  0  0  0  0  0  0  0  0  0
  161.1000  204.0020  150.4280 C   0  0  2  0  0  3  0  0  0  0  0  0
  159.7060  202.1980  149.3860 C   0  0  0  0  0  2  0  0  0  0  0  0
  161.3380  206.4480  149.6750 C   0  0  0  0  0  0  0  0  0  0  0  0
  161.6550  208.4640  147.7590 C   0  0  0  0  0  3  0  0  0  0  0  0
  159.6960  203.6000  150.0090 C   0  0  0  0  0  2  0  0  0  0  0  0
  161.8280  207.1090  152.4890 C   0  0  2  0  0  3  0  0  0  0  0  0
  160.9050  206.9540  146.0710 F   0  0  0  0  0  0  0  0  0  0  0  0
  161.9610  204.4020  152.7310 C   0  0  2  0  0  3  0  0  0  0  0  0
  160.2340  201.0970  150.3270 C   0  0  0  0  0  2  0  0  0  0  0  0
  162.1090  208.0050  151.4030 O   0  0  0  0  0  0  0  0  0  0  0  0
  161.7820  205.6600  151.9850 C   0  0  1  0  0  0  0  0  0  0  0  0
  161.0340  206.1920  148.3280 C   0  0  0  0  0  3  0  0  0  0  0  0
  161.7630  201.1680  150.4990 C   0  0  0  0  0  2  0  0  0  0  0  0
  161.7890  207.7270  150.0610 C   0  0  0  0  0  0  0  0  0  0  0  0
  161.9560  208.7240  149.0980 C   0  0  0  0  0  3  0  0  0  0  0  0
  163.0480  205.0560  152.1140 O   0  0  0  0  0  0  0  0  0  0  0  0
  161.3710  203.3500  151.7820 C   0  0  2  0  0  3  0  0  0  0  0  0
  162.2280  202.0940  151.6420 C   0  0  0  0  0  2  0  0  0  0  0  0
  160.4820  206.9370  154.6280 C   0  0  0  0  0  2  0  0  0  0  0  0
  160.9190  208.3860  154.5350 C   0  0  1  0  0  3  0  0  0  0  0  0
  160.5940  207.6080  153.2670 C   0  0  1  0  0  3  0  0  0  0  0  0
  159.7450  209.2970  154.8400 C   0  0  0  0  0  2  0  0  0  0  0  0
  160.0790  210.7700  154.6110 C   0  0  0  0  0  2  0  0  0  0  0  0
  160.2810  211.2370  152.2910 O   0  0  0  0  0  0  0  0  0  0  0  0
  159.5460  211.3100  153.3120 C   0  0  0  0  0  0  0  0  0  0  0  0
  158.2410  211.8870  153.1880 N   0  0  0  0  0  2  0  0  0  0  0  0
  157.4170  212.4090  154.2390 C   0  0  0  0  0  0  0  0  0  0  0  0
  157.7860  213.6420  154.8490 N   0  0  0  0  0  1  0  0  0  0  0  0
  156.3420  211.4400  155.0120 S   0  0  0  0  0  0  0  0  0  0  0  0
  1  6  2  0  0  0  0
  1 14  1  0  0  0  0
  2 13  1  0  0  0  0
  3  7  1  1  0  0  0
  3  2  1  0  0  0  0
  3 19  1  0  0  0  0
  4  7  1  0  0  0  0
  4 11  1  0  0  0  0
  5 16  1  0  0  0  0
  5  2  1  0  0  0  0
  6 17  1  0  0  0  0
  8 12  1  6  0  0  0
  8 23  1  0  0  0  0
  9  1  1  0  0  0  0
 10 18  1  6  0  0  0
 11 15  1  0  0  0  0
 13 18  1  6  0  0  0
 13  8  1  0  0  0  0
 13 10  1  0  0  0  0
 14  5  2  0  0  0  0
 15 20  1  0  0  0  0
 16 12  1  0  0  0  0
 17 16  2  0  0  0  0
 19 20  1  6  0  0  0
 19 10  1  0  0  0  0
 22 21  1  0  0  0  0
 22 24  1  1  0  0  0
 23 22  1  0  0  0  0
 23 21  1  1  0  0  0
 25 24  1  0  0  0  0
 26 27  2  0  0  0  0
 27 25  1  0  0  0  0
 28 27  1  0  0  0  0
 28 29  1  0  0  0  0
 29 30  1  0  0  0  0
 29 31  2  0  0  0  0
M  END
>  <MODEL>
8

>  <REMARK>
 VINA RESULT:      -4.7      2.779      5.140
  Name = 
  5 active torsions:
  status: ('A' for Active; 'I' for Inactive)
    1  A    between atoms: C_1  and  N_24
    2  A    between atoms: C_3  and  C_9
    3  A    between atoms: C_3  and  C_22
    4  A    between atoms: C_15  and  C_23
    5  A    between atoms: C_19  and  C_22
                            x       y       z     vdW  Elec       q    Type
                         _______ _______ _______ _____ _____    ______ ____

>  <TORSDO>
F 5

$$$$
=
 OpenBabel11052422243D

 31 36  0  0  1  0  0  0  0  0999 V2000
  161.4140  206.6970  146.8840 C   0  0  0  0  0  0  0  0  0  0  0  0
  161.3440  205.2470  150.3360 N   0  0  0  0  0  0  0  0  0  0  0  0
  161.1240  203.8180  150.2320 C   0  0  2  0  0  3  0  0  0  0  0  0
  159.6240  202.0100  149.3580 C   0  0  0  0  0  2  0  0  0  0  0  0
  161.5140  206.1610  149.2490 C   0  0  0  0  0  0  0  0  0  0  0  0
  161.9580  207.9590  147.1500 C   0  0  0  0  0  3  0  0  0  0  0  0
  159.6990  203.4640  149.8420 C   0  0  0  0  0  2  0  0  0  0  0  0
  162.0350  207.0610  151.9900 C   0  0  2  0  0  3  0  0  0  0  0  0
  161.1220  206.3400  145.6090 F   0  0  0  0  0  0  0  0  0  0  0  0
  162.0020  204.3870  152.4930 C   0  0  2  0  0  3  0  0  0  0  0  0
  160.0810  200.9750  150.4050 C   0  0  0  0  0  2  0  0  0  0  0  0
  162.3740  207.8280  150.8250 O   0  0  0  0  0  0  0  0  0  0  0  0
  161.9020  205.5760  151.6280 C   0  0  1  0  0  0  0  0  0  0  0  0
  161.1970  205.7950  147.9300 C   0  0  0  0  0  3  0  0  0  0  0  0
  161.6110  200.9700  150.5820 C   0  0  0  0  0  2  0  0  0  0  0  0
  162.0410  207.4420  149.5130 C   0  0  0  0  0  0  0  0  0  0  0  0
  162.2710  208.3280  148.4590 C   0  0  0  0  0  3  0  0  0  0  0  0
  163.1280  204.9110  151.8250 O   0  0  0  0  0  0  0  0  0  0  0  0
  161.3510  203.2860  151.6450 C   0  0  2  0  0  3  0  0  0  0  0  0
  162.1290  201.9720  151.6350 C   0  0  0  0  0  2  0  0  0  0  0  0
  160.7410  207.2630  154.1580 C   0  0  0  0  0  2  0  0  0  0  0  0
  161.2060  208.6670  153.8260 C   0  0  1  0  0  3  0  0  0  0  0  0
  160.8320  207.7070  152.7060 C   0  0  1  0  0  3  0  0  0  0  0  0
  160.0600  209.6440  154.0090 C   0  0  0  0  0  2  0  0  0  0  0  0
  160.5460  211.0500  154.3550 C   0  0  0  0  0  2  0  0  0  0  0  0
  159.2920  212.3590  155.8910 O   0  0  0  0  0  0  0  0  0  0  0  0
  160.1860  211.4810  155.7510 C   0  0  0  0  0  0  0  0  0  0  0  0
  160.8050  210.9280  156.9190 N   0  0  0  0  0  2  0  0  0  0  0  0
  162.0580  210.2370  156.9940 C   0  0  0  0  0  0  0  0  0  0  0  0
  162.0540  208.8380  157.2610 N   0  0  0  0  0  1  0  0  0  0  0  0
  163.4570  211.0720  157.1960 S   0  0  0  0  0  0  0  0  0  0  0  0
  1  6  2  0  0  0  0
  1 14  1  0  0  0  0
  2 13  1  0  0  0  0
  3  7  1  1  0  0  0
  3  2  1  0  0  0  0
  3 19  1  0  0  0  0
  4  7  1  0  0  0  0
  4 11  1  0  0  0  0
  5 16  1  0  0  0  0
  5  2  1  0  0  0  0
  6 17  1  0  0  0  0
  8 12  1  6  0  0  0
  8 23  1  0  0  0  0
  9  1  1  0  0  0  0
 10 18  1  6  0  0  0
 11 15  1  0  0  0  0
 13 18  1  6  0  0  0
 13  8  1  0  0  0  0
 13 10  1  0  0  0  0
 14  5  2  0  0  0  0
 15 20  1  0  0  0  0
 16 12  1  0  0  0  0
 17 16  2  0  0  0  0
 19 20  1  6  0  0  0
 19 10  1  0  0  0  0
 22 24  1  1  0  0  0
 22 21  1  0  0  0  0
 23 22  1  0  0  0  0
 23 21  1  1  0  0  0
 24 25  1  0  0  0  0
 25 27  1  0  0  0  0
 27 26  2  0  0  0  0
 27 28  1  0  0  0  0
 28 29  1  0  0  0  0
 29 31  2  0  0  0  0
 29 30  1  0  0  0  0
M  END
>  <MODEL>
9

>  <REMARK>
 VINA RESULT:      -4.3      2.652      5.000
  Name = 
  5 active torsions:
  status: ('A' for Active; 'I' for Inactive)
    1  A    between atoms: C_1  and  N_24
    2  A    between atoms: C_3  and  C_9
    3  A    between atoms: C_3  and  C_22
    4  A    between atoms: C_15  and  C_23
    5  A    between atoms: C_19  and  C_22
                            x       y       z     vdW  Elec       q    Type
                         _______ _______ _______ _____ _____    ______ ____

>  <TORSDO>
F 5

$$$$
