=
 OpenBabel11052421563D

 30 34  0  0  1  0  0  0  0  0999 V2000
  161.5050  210.2440  151.4720 N   0  0  0  0  0  2  0  0  0  0  0  0
  161.4210  208.1330  150.2130 C   0  0  0  0  0  0  0  0  0  0  0  0
  161.1030  208.0750  155.2100 C   0  0  0  0  0  2  0  0  0  0  0  0
  161.1290  211.0220  152.6510 C   0  0  2  0  0  3  0  0  0  0  0  0
  161.5740  208.8630  156.4270 C   0  0  0  0  0  2  0  0  0  0  0  0
  161.2640  206.7440  150.1930 C   0  0  0  0  0  3  0  0  0  0  0  0
  161.6590  208.9870  148.6980 Cl  0  0  0  0  0  0  0  0  0  0  0  0
  161.1930  208.8620  153.9200 C   0  0  0  0  0  0  0  0  0  0  0  0
  161.0660  206.0430  151.3850 C   0  0  0  0  0  3  0  0  0  0  0  0
  161.3660  208.8230  151.4320 C   0  0  0  0  0  0  0  0  0  0  0  0
  161.2130  210.2190  153.9280 C   0  0  0  0  0  0  0  0  0  0  0  0
  160.8920  210.2190  156.4320 C   0  0  0  0  0  2  0  0  0  0  0  0
  161.3470  211.0030  155.2090 C   0  0  0  0  0  2  0  0  0  0  0  0
  161.0270  206.7280  152.6010 C   0  0  0  0  0  3  0  0  0  0  0  0
  161.1760  208.1230  152.6350 C   0  0  0  0  0  0  0  0  0  0  0  0
  159.7350  211.6510  152.4960 C   0  0  2  0  0  3  0  0  0  0  0  0
  160.8360  213.0430  150.4000 S   0  0  0  0  0  0  0  0  0  0  0  0
  159.5780  212.6330  151.3660 C   0  0  0  0  0  0  0  0  0  0  0  0
  157.4480  214.0730  150.2530 C   0  0  0  0  0  0  0  0  0  0  0  0
  157.0870  213.6970  151.4570 O   0  0  0  0  0  0  0  0  0  0  0  0
  158.2830  213.1420  151.0650 N   0  0  0  0  0  0  0  0  0  0  0  0
  157.3660  213.1880  148.9900 C   0  0  0  0  0  2  0  0  0  0  0  0
  156.1250  213.6670  149.5720 C   0  0  0  0  0  2  0  0  0  0  0  0
  159.0130  213.4260  153.9610 O   0  0  0  0  0  1  0  0  0  0  0  0
  159.0250  212.0390  153.7990 C   0  0  1  0  0  3  0  0  0  0  0  0
  157.6280  211.4330  153.9890 C   0  0  0  0  0  2  0  0  0  0  0  0
  157.2960  211.0830  155.4370 C   0  0  0  0  0  2  0  0  0  0  0  0
  155.1990  211.2810  156.7740 O   0  0  0  0  0  1  0  0  0  0  0  0
  155.8330  210.8600  155.6140 C   0  0  0  0  0  0  0  0  0  0  0  0
  155.1730  210.2850  154.7100 O   0  0  0  0  0  0  0  0  0  0  0  0
  1  4  1  0  0  0  0
  2 10  1  0  0  0  0
  3  5  1  0  0  0  0
  4 16  1  6  0  0  0
  4 11  1  0  0  0  0
  5 12  1  0  0  0  0
  6  2  2  0  0  0  0
  6  9  1  0  0  0  0
  7  2  1  0  0  0  0
  8 11  2  0  0  0  0
  8  3  1  0  0  0  0
  9 14  2  0  0  0  0
 10  1  1  0  0  0  0
 10 15  2  0  0  0  0
 11 13  1  0  0  0  0
 13 12  1  0  0  0  0
 14 15  1  0  0  0  0
 15  8  1  0  0  0  0
 16 18  1  6  0  0  0
 16 25  1  0  0  0  0
 17 18  2  0  0  0  0
 19 21  1  0  0  0  0
 19 20  1  0  0  0  0
 21 18  1  0  0  0  0
 21 20  1  0  0  0  0
 22 23  1  0  0  0  0
 22 19  1  0  0  0  0
 23 19  1  0  0  0  0
 25 24  1  6  0  0  0
 25 26  1  0  0  0  0
 26 27  1  0  0  0  0
 27 29  1  0  0  0  0
 29 28  1  0  0  0  0
 30 29  2  0  0  0  0
M  END
>  <MODEL>
1

>  <REMARK>
 VINA RESULT:      -6.2      0.000      0.000
  Name = 
  7 active torsions:
  status: ('A' for Active; 'I' for Inactive)
    1  A    between atoms: C_4  and  C_13
    2  A    between atoms: C_7  and  C_15
    3  A    between atoms: C_7  and  C_16
    4  A    between atoms: C_8  and  N_12
    5  A    between atoms: C_8  and  C_13
    6  A    between atoms: C_13  and  C_30
    7  A    between atoms: C_16  and  C_30
                            x       y       z     vdW  Elec       q    Type
                         _______ _______ _______ _____ _____    ______ ____

>  <TORSDO>
F 7

$$$$
=
 OpenBabel11052421563D

 30 34  0  0  1  0  0  0  0  0999 V2000
  160.2840  209.0080  151.8840 N   0  0  0  0  0  2  0  0  0  0  0  0
  160.3920  209.9220  154.1650 C   0  0  0  0  0  0  0  0  0  0  0  0
  161.3980  205.0830  153.3650 C   0  0  0  0  0  2  0  0  0  0  0  0
  160.7430  208.0330  150.8950 C   0  0  2  0  0  3  0  0  0  0  0  0
  161.0270  203.9460  152.4200 C   0  0  0  0  0  2  0  0  0  0  0  0
  160.6750  209.7500  155.5230 C   0  0  0  0  0  3  0  0  0  0  0  0
  159.8680  211.4980  153.5950 Cl  0  0  0  0  0  0  0  0  0  0  0  0
  161.0580  206.4500  152.8130 C   0  0  0  0  0  0  0  0  0  0  0  0
  161.1000  208.5080  155.9990 C   0  0  0  0  0  3  0  0  0  0  0  0
  160.5490  208.8470  153.2780 C   0  0  0  0  0  0  0  0  0  0  0  0
  160.9120  206.6500  151.4780 C   0  0  0  0  0  0  0  0  0  0  0  0
  161.5730  204.2530  151.0380 C   0  0  0  0  0  2  0  0  0  0  0  0
  160.8820  205.5000  150.5030 C   0  0  0  0  0  2  0  0  0  0  0  0
  161.2410  207.4320  155.1200 C   0  0  0  0  0  3  0  0  0  0  0  0
  160.9680  207.5930  153.7530 C   0  0  0  0  0  0  0  0  0  0  0  0
  162.0380  208.4930  150.2050 C   0  0  2  0  0  3  0  0  0  0  0  0
  163.1150  210.3990  151.8630 S   0  0  0  0  0  0  0  0  0  0  0  0
  162.4410  209.9230  150.4480 C   0  0  0  0  0  0  0  0  0  0  0  0
  161.4430  211.6020  148.4400 C   0  0  0  0  0  0  0  0  0  0  0  0
  162.6900  211.3240  148.1410 O   0  0  0  0  0  0  0  0  0  0  0  0
  162.3280  210.8650  149.3860 N   0  0  0  0  0  0  0  0  0  0  0  0
  160.9960  212.7000  149.4290 C   0  0  0  0  0  2  0  0  0  0  0  0
  161.5600  213.1140  148.1570 C   0  0  0  0  0  2  0  0  0  0  0  0
  163.1690  206.9440  148.7420 O   0  0  0  0  0  1  0  0  0  0  0  0
  162.2470  207.9920  148.7700 C   0  0  1  0  0  3  0  0  0  0  0  0
  160.9640  207.6410  148.0050 C   0  0  0  0  0  2  0  0  0  0  0  0
  160.9130  206.1990  147.5100 C   0  0  0  0  0  2  0  0  0  0  0  0
  162.3890  205.9350  145.5160 O   0  0  0  0  0  1  0  0  0  0  0  0
  161.1170  206.1300  146.0350 C   0  0  0  0  0  0  0  0  0  0  0  0
  160.1340  206.2530  145.2600 O   0  0  0  0  0  0  0  0  0  0  0  0
  1 10  1  0  0  0  0
  2  6  1  0  0  0  0
  4 16  1  1  0  0  0
  4 11  1  0  0  0  0
  4  1  1  0  0  0  0
  5  3  1  0  0  0  0
  6  9  2  0  0  0  0
  7  2  1  0  0  0  0
  8  3  1  0  0  0  0
  8 15  1  0  0  0  0
 10 15  1  0  0  0  0
 10  2  2  0  0  0  0
 11  8  2  0  0  0  0
 12  5  1  0  0  0  0
 13 12  1  0  0  0  0
 13 11  1  0  0  0  0
 14  9  1  0  0  0  0
 15 14  2  0  0  0  0
 16 18  1  6  0  0  0
 18 17  2  0  0  0  0
 19 21  1  0  0  0  0
 19 22  1  0  0  0  0
 20 19  1  0  0  0  0
 20 21  1  0  0  0  0
 21 18  1  0  0  0  0
 23 19  1  0  0  0  0
 23 22  1  0  0  0  0
 25 24  1  1  0  0  0
 25 16  1  0  0  0  0
 26 25  1  0  0  0  0
 27 26  1  0  0  0  0
 28 29  1  0  0  0  0
 29 27  1  0  0  0  0
 30 29  2  0  0  0  0
M  END
>  <MODEL>
2

>  <REMARK>
 VINA RESULT:      -6.1      4.233      6.624
  Name = 
  7 active torsions:
  status: ('A' for Active; 'I' for Inactive)
    1  A    between atoms: C_4  and  C_13
    2  A    between atoms: C_7  and  C_15
    3  A    between atoms: C_7  and  C_16
    4  A    between atoms: C_8  and  N_12
    5  A    between atoms: C_8  and  C_13
    6  A    between atoms: C_13  and  C_30
    7  A    between atoms: C_16  and  C_30
                            x       y       z     vdW  Elec       q    Type
                         _______ _______ _______ _____ _____    ______ ____

>  <TORSDO>
F 7

$$$$
=
 OpenBabel11052421563D

 30 34  0  0  1  0  0  0  0  0999 V2000
  160.4410  205.0200  150.1860 N   0  0  0  0  0  2  0  0  0  0  0  0
  160.5440  202.6850  150.9530 C   0  0  0  0  0  0  0  0  0  0  0  0
  161.5440  203.7880  146.1720 C   0  0  0  0  0  2  0  0  0  0  0  0
  160.9020  206.0670  149.2760 C   0  0  2  0  0  3  0  0  0  0  0  0
  161.1740  204.8050  145.0980 C   0  0  0  0  0  2  0  0  0  0  0  0
  160.8220  201.3400  150.6940 C   0  0  0  0  0  3  0  0  0  0  0  0
  160.0250  203.1550  152.5620 Cl  0  0  0  0  0  0  0  0  0  0  0  0
  161.2080  204.2530  147.5720 C   0  0  0  0  0  0  0  0  0  0  0  0
  161.2440  200.9420  149.4230 C   0  0  0  0  0  3  0  0  0  0  0  0
  160.7010  203.6380  149.9360 C   0  0  0  0  0  0  0  0  0  0  0  0
  161.0660  205.5730  147.8570 C   0  0  0  0  0  0  0  0  0  0  0  0
  161.7240  206.1630  145.4930 C   0  0  0  0  0  2  0  0  0  0  0  0
  161.0370  206.6200  146.7720 C   0  0  0  0  0  2  0  0  0  0  0  0
  161.3860  201.8880  148.4060 C   0  0  0  0  0  3  0  0  0  0  0  0
  161.1170  203.2420  148.6540 C   0  0  0  0  0  0  0  0  0  0  0  0
  162.1990  206.7230  149.7750 C   0  0  2  0  0  3  0  0  0  0  0  0
  163.2740  205.4880  151.9810 S   0  0  0  0  0  0  0  0  0  0  0  0
  162.4220  206.6900  151.2640 C   0  0  0  0  0  0  0  0  0  0  0  0
  160.8280  208.4660  152.7300 C   0  0  0  0  0  0  0  0  0  0  0  0
  161.8790  209.1310  152.3090 O   0  0  0  0  0  0  0  0  0  0  0  0
  161.9680  207.7810  152.0570 N   0  0  0  0  0  0  0  0  0  0  0  0
  160.7950  207.5710  153.9870 C   0  0  0  0  0  2  0  0  0  0  0  0
  160.8830  209.0080  154.1730 C   0  0  0  0  0  2  0  0  0  0  0  0
  163.1960  207.7830  147.8520 O   0  0  0  0  0  1  0  0  0  0  0  0
  162.5970  208.0350  149.0870 C   0  0  1  0  0  3  0  0  0  0  0  0
  161.4780  209.0800  148.9740 C   0  0  0  0  0  2  0  0  0  0  0  0
  161.8860  210.4760  149.4320 C   0  0  0  0  0  2  0  0  0  0  0  0
  163.1180  212.1710  148.0760 O   0  0  0  0  0  1  0  0  0  0  0  0
  161.9710  211.4160  148.2780 C   0  0  0  0  0  0  0  0  0  0  0  0
  160.9980  211.5280  147.4870 O   0  0  0  0  0  0  0  0  0  0  0  0
  2  7  1  0  0  0  0
  3  8  1  0  0  0  0
  4 16  1  1  0  0  0
  4  1  1  0  0  0  0
  5 12  1  0  0  0  0
  5  3  1  0  0  0  0
  6  2  1  0  0  0  0
  8 11  2  0  0  0  0
  8 15  1  0  0  0  0
  9  6  2  0  0  0  0
 10  1  1  0  0  0  0
 10  2  2  0  0  0  0
 11  4  1  0  0  0  0
 12 13  1  0  0  0  0
 13 11  1  0  0  0  0
 14 15  2  0  0  0  0
 14  9  1  0  0  0  0
 15 10  1  0  0  0  0
 16 18  1  1  0  0  0
 18 17  2  0  0  0  0
 18 21  1  0  0  0  0
 19 22  1  0  0  0  0
 19 23  1  0  0  0  0
 20 19  1  0  0  0  0
 21 20  1  0  0  0  0
 21 19  1  0  0  0  0
 22 23  1  0  0  0  0
 25 24  1  6  0  0  0
 25 16  1  0  0  0  0
 26 25  1  0  0  0  0
 26 27  1  0  0  0  0
 28 29  1  0  0  0  0
 29 27  1  0  0  0  0
 30 29  2  0  0  0  0
M  END
>  <MODEL>
3

>  <REMARK>
 VINA RESULT:      -6.1      4.509      7.933
  Name = 
  7 active torsions:
  status: ('A' for Active; 'I' for Inactive)
    1  A    between atoms: C_4  and  C_13
    2  A    between atoms: C_7  and  C_15
    3  A    between atoms: C_7  and  C_16
    4  A    between atoms: C_8  and  N_12
    5  A    between atoms: C_8  and  C_13
    6  A    between atoms: C_13  and  C_30
    7  A    between atoms: C_16  and  C_30
                            x       y       z     vdW  Elec       q    Type
                         _______ _______ _______ _____ _____    ______ ____

>  <TORSDO>
F 7

$$$$
=
 OpenBabel11052421563D

 30 34  0  0  1  0  0  0  0  0999 V2000
  161.9250  209.4420  151.1030 N   0  0  0  0  0  2  0  0  0  0  0  0
  161.6080  207.3800  149.8000 C   0  0  0  0  0  0  0  0  0  0  0  0
  160.9250  207.3290  154.7600 C   0  0  0  0  0  2  0  0  0  0  0  0
  161.5900  210.2590  152.2680 C   0  0  2  0  0  3  0  0  0  0  0  0
  161.4230  208.0240  156.0220 C   0  0  0  0  0  2  0  0  0  0  0  0
  161.2410  206.0330  149.7420 C   0  0  0  0  0  3  0  0  0  0  0  0
  162.0850  208.2000  148.3220 Cl  0  0  0  0  0  0  0  0  0  0  0  0
  161.2280  208.1040  153.4960 C   0  0  0  0  0  0  0  0  0  0  0  0
  160.8520  205.3610  150.9020 C   0  0  0  0  0  3  0  0  0  0  0  0
  161.5730  208.0600  151.0260 C   0  0  0  0  0  0  0  0  0  0  0  0
  161.4570  209.4410  153.5310 C   0  0  0  0  0  0  0  0  0  0  0  0
  160.9590  209.4690  156.0060 C   0  0  0  0  0  2  0  0  0  0  0  0
  161.6170  210.1840  154.8340 C   0  0  0  0  0  2  0  0  0  0  0  0
  160.8310  206.0330  152.1260 C   0  0  0  0  0  3  0  0  0  0  0  0
  161.1900  207.3870  152.1980 C   0  0  0  0  0  0  0  0  0  0  0  0
  160.3240  211.0970  152.0280 C   0  0  2  0  0  3  0  0  0  0  0  0
  159.6890  213.6570  151.2600 S   0  0  0  0  0  0  0  0  0  0  0  0
  160.4610  212.2280  151.0440 C   0  0  0  0  0  0  0  0  0  0  0  0
  161.5800  212.1490  148.4770 C   0  0  0  0  0  0  0  0  0  0  0  0
  162.3040  211.3720  149.2500 O   0  0  0  0  0  0  0  0  0  0  0  0
  161.3630  212.0900  149.9510 N   0  0  0  0  0  0  0  0  0  0  0  0
  161.7320  213.6820  148.3770 C   0  0  0  0  0  2  0  0  0  0  0  0
  162.7820  212.8520  147.8150 C   0  0  0  0  0  2  0  0  0  0  0  0
  159.9420  212.5770  153.8940 O   0  0  0  0  0  1  0  0  0  0  0  0
  159.4840  211.4150  153.2710 C   0  0  1  0  0  3  0  0  0  0  0  0
  157.9660  211.4530  153.0440 C   0  0  0  0  0  2  0  0  0  0  0  0
  157.2070  212.2910  154.0670 C   0  0  0  0  0  2  0  0  0  0  0  0
  155.5820  210.6570  155.0250 O   0  0  0  0  0  0  0  0  0  0  0  0
  156.7120  211.4470  155.1910 C   0  0  0  0  0  0  0  0  0  0  0  0
  157.3170  211.4540  156.2950 O   0  0  0  0  0  1  0  0  0  0  0  0
  1  4  1  0  0  0  0
  2 10  1  0  0  0  0
  3  5  1  0  0  0  0
  4 16  1  6  0  0  0
  4 11  1  0  0  0  0
  6  2  2  0  0  0  0
  6  9  1  0  0  0  0
  7  2  1  0  0  0  0
  8 11  2  0  0  0  0
  8  3  1  0  0  0  0
  9 14  2  0  0  0  0
 10  1  1  0  0  0  0
 10 15  2  0  0  0  0
 11 13  1  0  0  0  0
 12  5  1  0  0  0  0
 13 12  1  0  0  0  0
 14 15  1  0  0  0  0
 15  8  1  0  0  0  0
 16 18  1  1  0  0  0
 16 25  1  0  0  0  0
 18 17  2  0  0  0  0
 19 20  1  0  0  0  0
 19 21  1  0  0  0  0
 20 21  1  0  0  0  0
 21 18  1  0  0  0  0
 22 19  1  0  0  0  0
 23 22  1  0  0  0  0
 23 19  1  0  0  0  0
 25 24  1  6  0  0  0
 26 25  1  0  0  0  0
 26 27  1  0  0  0  0
 27 29  1  0  0  0  0
 28 29  2  0  0  0  0
 29 30  1  0  0  0  0
M  END
>  <MODEL>
4

>  <REMARK>
 VINA RESULT:      -5.5      1.990      2.434
  Name = 
  7 active torsions:
  status: ('A' for Active; 'I' for Inactive)
    1  A    between atoms: C_4  and  C_13
    2  A    between atoms: C_7  and  C_15
    3  A    between atoms: C_7  and  C_16
    4  A    between atoms: C_8  and  N_12
    5  A    between atoms: C_8  and  C_13
    6  A    between atoms: C_13  and  C_30
    7  A    between atoms: C_16  and  C_30
                            x       y       z     vdW  Elec       q    Type
                         _______ _______ _______ _____ _____    ______ ____

>  <TORSDO>
F 7

$$$$
=
 OpenBabel11052421563D

 30 34  0  0  1  0  0  0  0  0999 V2000
  162.1400  206.8770  151.4770 N   0  0  0  0  0  2  0  0  0  0  0  0
  161.1520  207.1080  153.7170 C   0  0  0  0  0  0  0  0  0  0  0  0
  161.2300  211.0300  150.6050 C   0  0  0  0  0  2  0  0  0  0  0  0
  162.1870  207.2840  150.0730 C   0  0  2  0  0  3  0  0  0  0  0  0
  162.0620  211.6120  149.4680 C   0  0  0  0  0  2  0  0  0  0  0  0
  160.4720  207.8810  154.6630 C   0  0  0  0  0  3  0  0  0  0  0  0
  161.5810  205.4530  154.1150 Cl  0  0  0  0  0  0  0  0  0  0  0  0
  161.5140  209.5660  150.8610 C   0  0  0  0  0  0  0  0  0  0  0  0
  160.1140  209.1970  154.3680 C   0  0  0  0  0  3  0  0  0  0  0  0
  161.4630  207.6560  152.4640 C   0  0  0  0  0  0  0  0  0  0  0  0
  162.0550  208.7780  149.8970 C   0  0  0  0  0  0  0  0  0  0  0  0
  161.9560  210.6980  148.2610 C   0  0  0  0  0  2  0  0  0  0  0  0
  162.5810  209.3530  148.6060 C   0  0  0  0  0  2  0  0  0  0  0  0
  160.4370  209.7480  153.1250 C   0  0  0  0  0  3  0  0  0  0  0  0
  161.1130  208.9820  152.1640 C   0  0  0  0  0  0  0  0  0  0  0  0
  161.1340  206.5440  149.2320 C   0  0  2  0  0  3  0  0  0  0  0  0
  160.0820  204.7400  151.0170 S   0  0  0  0  0  0  0  0  0  0  0  0
  160.8620  205.1160  149.6270 C   0  0  0  0  0  0  0  0  0  0  0  0
  161.5790  202.6420  148.5260 C   0  0  0  0  0  0  0  0  0  0  0  0
  161.9560  203.5750  147.6830 O   0  0  0  0  0  0  0  0  0  0  0  0
  161.2020  204.0710  148.7220 N   0  0  0  0  0  0  0  0  0  0  0  0
  160.1510  202.0630  148.6210 C   0  0  0  0  0  2  0  0  0  0  0  0
  160.9500  201.7270  147.4550 C   0  0  0  0  0  2  0  0  0  0  0  0
  162.4570  206.5710  147.2160 O   0  0  0  0  0  1  0  0  0  0  0  0
  161.1770  206.8040  147.7210 C   0  0  1  0  0  3  0  0  0  0  0  0
  160.1010  206.0790  146.9010 C   0  0  0  0  0  2  0  0  0  0  0  0
  160.2850  206.2030  145.3920 C   0  0  0  0  0  2  0  0  0  0  0  0
  160.0770  203.8770  144.5110 O   0  0  0  0  0  0  0  0  0  0  0  0
  160.8840  204.9640  144.8200 C   0  0  0  0  0  0  0  0  0  0  0  0
  162.1250  204.9010  144.6220 O   0  0  0  0  0  1  0  0  0  0  0  0
  1 10  1  0  0  0  0
  2  7  1  0  0  0  0
  2  6  1  0  0  0  0
  3  8  1  0  0  0  0
  4 16  1  6  0  0  0
  4  1  1  0  0  0  0
  5  3  1  0  0  0  0
  8 15  1  0  0  0  0
  9  6  2  0  0  0  0
 10  2  2  0  0  0  0
 11  4  1  0  0  0  0
 11  8  2  0  0  0  0
 12 13  1  0  0  0  0
 12  5  1  0  0  0  0
 13 11  1  0  0  0  0
 14  9  1  0  0  0  0
 15 10  1  0  0  0  0
 15 14  2  0  0  0  0
 16 18  1  6  0  0  0
 18 17  2  0  0  0  0
 19 22  1  0  0  0  0
 19 21  1  0  0  0  0
 20 19  1  0  0  0  0
 20 21  1  0  0  0  0
 21 18  1  0  0  0  0
 23 19  1  0  0  0  0
 23 22  1  0  0  0  0
 25 24  1  6  0  0  0
 25 16  1  0  0  0  0
 26 25  1  0  0  0  0
 27 26  1  0  0  0  0
 28 29  2  0  0  0  0
 29 27  1  0  0  0  0
 30 29  1  0  0  0  0
M  END
>  <MODEL>
5

>  <REMARK>
 VINA RESULT:      -5.5      5.497      8.584
  Name = 
  7 active torsions:
  status: ('A' for Active; 'I' for Inactive)
    1  A    between atoms: C_4  and  C_13
    2  A    between atoms: C_7  and  C_15
    3  A    between atoms: C_7  and  C_16
    4  A    between atoms: C_8  and  N_12
    5  A    between atoms: C_8  and  C_13
    6  A    between atoms: C_13  and  C_30
    7  A    between atoms: C_16  and  C_30
                            x       y       z     vdW  Elec       q    Type
                         _______ _______ _______ _____ _____    ______ ____

>  <TORSDO>
F 7

$$$$
=
 OpenBabel11052421563D

 30 34  0  0  1  0  0  0  0  0999 V2000
  162.0710  210.3350  152.6960 N   0  0  0  0  0  2  0  0  0  0  0  0
  161.9860  208.8740  150.7190 C   0  0  0  0  0  0  0  0  0  0  0  0
  160.4740  207.1440  155.1680 C   0  0  0  0  0  2  0  0  0  0  0  0
  161.5410  210.7140  154.0050 C   0  0  2  0  0  3  0  0  0  0  0  0
  160.7500  207.3290  156.6560 C   0  0  0  0  0  2  0  0  0  0  0  0
  161.6380  207.6530  150.1340 C   0  0  0  0  0  3  0  0  0  0  0  0
  162.7020  210.1270  149.7200 Cl  0  0  0  0  0  0  0  0  0  0  0  0
  160.9840  208.2910  154.3230 C   0  0  0  0  0  0  0  0  0  0  0  0
  161.0600  206.6430  150.9060 C   0  0  0  0  0  3  0  0  0  0  0  0
  161.7420  209.0870  152.0830 C   0  0  0  0  0  0  0  0  0  0  0  0
  161.1990  209.5180  154.8620 C   0  0  0  0  0  0  0  0  0  0  0  0
  160.2910  208.7140  157.0750 C   0  0  0  0  0  2  0  0  0  0  0  0
  161.1350  209.7530  156.3500 C   0  0  0  0  0  2  0  0  0  0  0  0
  160.8310  206.8500  152.2680 C   0  0  0  0  0  3  0  0  0  0  0  0
  161.1680  208.0720  152.8670 C   0  0  0  0  0  0  0  0  0  0  0  0
  160.3310  211.6540  153.8760 C   0  0  2  0  0  3  0  0  0  0  0  0
  160.0810  212.9530  156.2830 S   0  0  0  0  0  0  0  0  0  0  0  0
  159.5540  211.9030  155.1410 C   0  0  0  0  0  0  0  0  0  0  0  0
  156.8860  211.3890  155.8200 C   0  0  0  0  0  0  0  0  0  0  0  0
  157.4970  210.2330  155.7120 O   0  0  0  0  0  0  0  0  0  0  0  0
  158.2810  211.2880  155.3050 N   0  0  0  0  0  0  0  0  0  0  0  0
  156.3140  212.1990  154.6360 C   0  0  0  0  0  2  0  0  0  0  0  0
  155.6410  210.9690  155.0120 C   0  0  0  0  0  2  0  0  0  0  0  0
  158.5810  210.4230  152.7620 O   0  0  0  0  0  1  0  0  0  0  0  0
  159.4790  211.4810  152.6120 C   0  0  1  0  0  3  0  0  0  0  0  0
  158.7790  212.7540  152.1160 C   0  0  0  0  0  2  0  0  0  0  0  0
  159.7060  213.7320  151.4020 C   0  0  0  0  0  2  0  0  0  0  0  0
  160.8360  213.0050  149.2990 O   0  0  0  0  0  1  0  0  0  0  0  0
  159.7020  213.4990  149.9300 C   0  0  0  0  0  0  0  0  0  0  0  0
  158.6690  213.7530  149.2570 O   0  0  0  0  0  0  0  0  0  0  0  0
  1  4  1  0  0  0  0
  2 10  1  0  0  0  0
  3  5  1  0  0  0  0
  4 16  1  6  0  0  0
  4 11  1  0  0  0  0
  5 12  1  0  0  0  0
  6  2  2  0  0  0  0
  6  9  1  0  0  0  0
  7  2  1  0  0  0  0
  8 11  2  0  0  0  0
  8  3  1  0  0  0  0
  9 14  2  0  0  0  0
 10  1  1  0  0  0  0
 10 15  2  0  0  0  0
 11 13  1  0  0  0  0
 13 12  1  0  0  0  0
 14 15  1  0  0  0  0
 15  8  1  0  0  0  0
 16 18  1  1  0  0  0
 18 21  1  0  0  0  0
 18 17  2  0  0  0  0
 20 19  1  0  0  0  0
 21 20  1  0  0  0  0
 21 19  1  0  0  0  0
 22 23  1  0  0  0  0
 22 19  1  0  0  0  0
 23 19  1  0  0  0  0
 25 24  1  1  0  0  0
 25 16  1  0  0  0  0
 26 25  1  0  0  0  0
 27 26  1  0  0  0  0
 28 29  1  0  0  0  0
 29 27  1  0  0  0  0
 30 29  2  0  0  0  0
M  END
>  <MODEL>
6

>  <REMARK>
 VINA RESULT:      -5.4      2.116      4.015
  Name = 
  7 active torsions:
  status: ('A' for Active; 'I' for Inactive)
    1  A    between atoms: C_4  and  C_13
    2  A    between atoms: C_7  and  C_15
    3  A    between atoms: C_7  and  C_16
    4  A    between atoms: C_8  and  N_12
    5  A    between atoms: C_8  and  C_13
    6  A    between atoms: C_13  and  C_30
    7  A    between atoms: C_16  and  C_30
                            x       y       z     vdW  Elec       q    Type
                         _______ _______ _______ _____ _____    ______ ____

>  <TORSDO>
F 7

$$$$
=
 OpenBabel11052421563D

 30 34  0  0  1  0  0  0  0  0999 V2000
  161.7930  210.0960  152.8780 N   0  0  0  0  0  2  0  0  0  0  0  0
  160.3800  211.1920  154.5680 C   0  0  0  0  0  0  0  0  0  0  0  0
  160.3660  212.8530  149.8440 C   0  0  0  0  0  2  0  0  0  0  0  0
  162.0300  209.7260  151.4840 C   0  0  2  0  0  3  0  0  0  0  0  0
  161.2840  212.9540  148.6310 C   0  0  0  0  0  2  0  0  0  0  0  0
  159.4140  212.1460  154.8990 C   0  0  0  0  0  3  0  0  0  0  0  0
  161.0030  210.1350  155.8230 Cl  0  0  0  0  0  0  0  0  0  0  0  0
  160.8430  211.8460  150.8680 C   0  0  0  0  0  0  0  0  0  0  0  0
  158.8980  212.9930  153.9170 C   0  0  0  0  0  3  0  0  0  0  0  0
  160.8210  211.0780  153.2410 C   0  0  0  0  0  0  0  0  0  0  0  0
  161.6810  210.8360  150.5210 C   0  0  0  0  0  0  0  0  0  0  0  0
  161.5630  211.5580  148.1050 C   0  0  0  0  0  2  0  0  0  0  0  0
  162.3320  210.7780  149.1620 C   0  0  0  0  0  2  0  0  0  0  0  0
  159.3480  212.8910  152.5980 C   0  0  0  0  0  3  0  0  0  0  0  0
  160.3120  211.9330  152.2500 C   0  0  0  0  0  0  0  0  0  0  0  0
  161.2940  208.4300  151.1080 C   0  0  2  0  0  3  0  0  0  0  0  0
  160.5120  207.6590  153.6260 S   0  0  0  0  0  0  0  0  0  0  0  0
  161.2300  207.3750  152.1810 C   0  0  0  0  0  0  0  0  0  0  0  0
  161.7350  204.6210  152.2580 C   0  0  0  0  0  0  0  0  0  0  0  0
  162.7490  205.1940  151.6510 O   0  0  0  0  0  0  0  0  0  0  0  0
  161.7140  206.0670  151.8960 N   0  0  0  0  0  0  0  0  0  0  0  0
  160.3990  204.2460  151.5820 C   0  0  0  0  0  2  0  0  0  0  0  0
  161.5810  203.4780  151.2330 C   0  0  0  0  0  2  0  0  0  0  0  0
  162.8430  207.3980  149.5740 O   0  0  0  0  0  1  0  0  0  0  0  0
  161.5460  207.9010  149.6900 C   0  0  1  0  0  3  0  0  0  0  0  0
  160.5010  206.9070  149.1670 C   0  0  0  0  0  2  0  0  0  0  0  0
  161.0950  205.7360  148.3900 C   0  0  0  0  0  2  0  0  0  0  0  0
  160.0840  206.2040  146.1570 O   0  0  0  0  0  0  0  0  0  0  0  0
  161.2210  206.0610  146.9410 C   0  0  0  0  0  0  0  0  0  0  0  0
  162.3600  206.2030  146.4260 O   0  0  0  0  0  1  0  0  0  0  0  0
  1 10  1  0  0  0  0
  2  6  1  0  0  0  0
  2  7  1  0  0  0  0
  3  8  1  0  0  0  0
  4 16  1  6  0  0  0
  4  1  1  0  0  0  0
  5  3  1  0  0  0  0
  8 15  1  0  0  0  0
  9  6  2  0  0  0  0
 10  2  2  0  0  0  0
 11  8  2  0  0  0  0
 11  4  1  0  0  0  0
 12  5  1  0  0  0  0
 12 13  1  0  0  0  0
 13 11  1  0  0  0  0
 14  9  1  0  0  0  0
 15 14  2  0  0  0  0
 15 10  1  0  0  0  0
 16 18  1  1  0  0  0
 18 17  2  0  0  0  0
 20 21  1  0  0  0  0
 20 19  1  0  0  0  0
 21 18  1  0  0  0  0
 21 19  1  0  0  0  0
 22 19  1  0  0  0  0
 23 22  1  0  0  0  0
 23 19  1  0  0  0  0
 25 24  1  1  0  0  0
 25 16  1  0  0  0  0
 26 25  1  0  0  0  0
 27 26  1  0  0  0  0
 28 29  2  0  0  0  0
 29 27  1  0  0  0  0
 30 29  1  0  0  0  0
M  END
>  <MODEL>
7

>  <REMARK>
 VINA RESULT:      -5.4      4.414      7.777
  Name = 
  7 active torsions:
  status: ('A' for Active; 'I' for Inactive)
    1  A    between atoms: C_4  and  C_13
    2  A    between atoms: C_7  and  C_15
    3  A    between atoms: C_7  and  C_16
    4  A    between atoms: C_8  and  N_12
    5  A    between atoms: C_8  and  C_13
    6  A    between atoms: C_13  and  C_30
    7  A    between atoms: C_16  and  C_30
                            x       y       z     vdW  Elec       q    Type
                         _______ _______ _______ _____ _____    ______ ____

>  <TORSDO>
F 7

$$$$
=
 OpenBabel11052421563D

 30 34  0  0  1  0  0  0  0  0999 V2000
  159.6640  212.4600  154.5940 N   0  0  0  0  0  2  0  0  0  0  0  0
  157.4690  212.6770  155.6820 C   0  0  0  0  0  0  0  0  0  0  0  0
  157.8780  213.3330  150.7350 C   0  0  0  0  0  2  0  0  0  0  0  0
  160.4540  212.1290  153.4090 C   0  0  2  0  0  3  0  0  0  0  0  0
  158.8820  213.8100  149.6920 C   0  0  0  0  0  2  0  0  0  0  0  0
  156.0890  212.8760  155.5880 C   0  0  0  0  0  3  0  0  0  0  0  0
  158.1860  212.4020  157.2610 Cl  0  0  0  0  0  0  0  0  0  0  0  0
  158.5200  212.9760  152.0580 C   0  0  0  0  0  0  0  0  0  0  0  0
  155.4940  213.0900  154.3430 C   0  0  0  0  0  3  0  0  0  0  0  0
  158.2550  212.6810  154.5210 C   0  0  0  0  0  0  0  0  0  0  0  0
  159.8360  212.6530  152.1340 C   0  0  0  0  0  0  0  0  0  0  0  0
  160.0310  212.8210  149.6230 C   0  0  0  0  0  2  0  0  0  0  0  0
  160.7640  212.8240  150.9570 C   0  0  0  0  0  2  0  0  0  0  0  0
  156.2780  213.1090  153.1870 C   0  0  0  0  0  3  0  0  0  0  0  0
  157.6630  212.9040  153.2670 C   0  0  0  0  0  0  0  0  0  0  0  0
  160.7150  210.6180  153.3050 C   0  0  2  0  0  3  0  0  0  0  0  0
  162.4310  210.6930  155.4490 S   0  0  0  0  0  0  0  0  0  0  0  0
  161.2840  209.9630  154.5350 C   0  0  0  0  0  0  0  0  0  0  0  0
  160.8760  207.5210  155.8460 C   0  0  0  0  0  0  0  0  0  0  0  0
  160.2190  207.4760  154.7100 O   0  0  0  0  0  0  0  0  0  0  0  0
  160.7400  208.7220  154.9740 N   0  0  0  0  0  0  0  0  0  0  0  0
  160.3540  208.1790  157.1420 C   0  0  0  0  0  2  0  0  0  0  0  0
  159.7260  206.9470  156.7000 C   0  0  0  0  0  2  0  0  0  0  0  0
  162.6970  210.2210  151.9890 O   0  0  0  0  0  1  0  0  0  0  0  0
  161.3040  210.1290  151.9760 C   0  0  1  0  0  3  0  0  0  0  0  0
  160.8310  208.7410  151.5210 C   0  0  0  0  0  2  0  0  0  0  0  0
  161.9640  207.7970  151.1330 C   0  0  0  0  0  2  0  0  0  0  0  0
  161.5830  206.1050  149.3370 O   0  0  0  0  0  1  0  0  0  0  0  0
  161.8750  207.4150  149.6950 C   0  0  0  0  0  0  0  0  0  0  0  0
  162.0690  208.2810  148.8030 O   0  0  0  0  0  0  0  0  0  0  0  0
  2  7  1  0  0  0  0
  3  8  1  0  0  0  0
  4 16  1  6  0  0  0
  4  1  1  0  0  0  0
  5  3  1  0  0  0  0
  6  2  1  0  0  0  0
  8 11  2  0  0  0  0
  8 15  1  0  0  0  0
  9  6  2  0  0  0  0
 10  1  1  0  0  0  0
 10  2  2  0  0  0  0
 11  4  1  0  0  0  0
 12  5  1  0  0  0  0
 12 13  1  0  0  0  0
 13 11  1  0  0  0  0
 14 15  2  0  0  0  0
 14  9  1  0  0  0  0
 15 10  1  0  0  0  0
 16 18  1  1  0  0  0
 18 21  1  0  0  0  0
 18 17  2  0  0  0  0
 19 23  1  0  0  0  0
 19 22  1  0  0  0  0
 20 21  1  0  0  0  0
 20 19  1  0  0  0  0
 21 19  1  0  0  0  0
 23 22  1  0  0  0  0
 25 24  1  1  0  0  0
 25 16  1  0  0  0  0
 26 25  1  0  0  0  0
 27 26  1  0  0  0  0
 28 29  1  0  0  0  0
 29 27  1  0  0  0  0
 30 29  2  0  0  0  0
M  END
>  <MODEL>
8

>  <REMARK>
 VINA RESULT:      -4.7      3.712      7.321
  Name = 
  7 active torsions:
  status: ('A' for Active; 'I' for Inactive)
    1  A    between atoms: C_4  and  C_13
    2  A    between atoms: C_7  and  C_15
    3  A    between atoms: C_7  and  C_16
    4  A    between atoms: C_8  and  N_12
    5  A    between atoms: C_8  and  C_13
    6  A    between atoms: C_13  and  C_30
    7  A    between atoms: C_16  and  C_30
                            x       y       z     vdW  Elec       q    Type
                         _______ _______ _______ _____ _____    ______ ____

>  <TORSDO>
F 7

$$$$
=
 OpenBabel11052421563D

 30 34  0  0  1  0  0  0  0  0999 V2000
  160.3250  204.8420  150.1510 N   0  0  0  0  0  2  0  0  0  0  0  0
  160.4720  202.4870  150.8470 C   0  0  0  0  0  0  0  0  0  0  0  0
  161.8130  203.8070  146.2060 C   0  0  0  0  0  2  0  0  0  0  0  0
  160.8110  205.9410  149.3180 C   0  0  2  0  0  3  0  0  0  0  0  0
  161.4860  204.8460  145.1390 C   0  0  0  0  0  2  0  0  0  0  0  0
  160.8320  201.1660  150.5680 C   0  0  0  0  0  3  0  0  0  0  0  0
  159.7990  202.8750  152.4210 Cl  0  0  0  0  0  0  0  0  0  0  0  0
  161.3410  204.2060  147.5880 C   0  0  0  0  0  0  0  0  0  0  0  0
  161.3760  200.8340  149.3250 C   0  0  0  0  0  3  0  0  0  0  0  0
  160.6690  203.4820  149.8780 C   0  0  0  0  0  0  0  0  0  0  0  0
  161.1150  205.5070  147.9030 C   0  0  0  0  0  0  0  0  0  0  0  0
  161.9380  206.2110  145.6230 C   0  0  0  0  0  2  0  0  0  0  0  0
  161.1280  206.5900  146.8540 C   0  0  0  0  0  2  0  0  0  0  0  0
  161.5580  201.8220  148.3550 C   0  0  0  0  0  3  0  0  0  0  0  0
  161.2070  203.1530  148.6240 C   0  0  0  0  0  0  0  0  0  0  0  0
  162.0300  206.6330  149.9470 C   0  0  2  0  0  3  0  0  0  0  0  0
  163.5520  205.4420  151.8980 S   0  0  0  0  0  0  0  0  0  0  0  0
  162.2750  206.3400  151.4030 C   0  0  0  0  0  0  0  0  0  0  0  0
  160.4760  206.7590  153.5090 C   0  0  0  0  0  0  0  0  0  0  0  0
  160.4340  207.8180  152.7350 O   0  0  0  0  0  0  0  0  0  0  0  0
  161.4340  206.9420  152.3820 N   0  0  0  0  0  0  0  0  0  0  0  0
  161.5330  206.5090  154.6060 C   0  0  0  0  0  2  0  0  0  0  0  0
  160.5460  207.5500  154.8320 C   0  0  0  0  0  2  0  0  0  0  0  0
  161.1580  208.5910  148.8400 O   0  0  0  0  0  1  0  0  0  0  0  0
  162.2650  208.0900  149.5280 C   0  0  1  0  0  3  0  0  0  0  0  0
  162.7070  209.0330  150.6560 C   0  0  0  0  0  2  0  0  0  0  0  0
  161.9080  210.3300  150.7290 C   0  0  0  0  0  2  0  0  0  0  0  0
  160.2210  211.1750  152.3630 O   0  0  0  0  0  0  0  0  0  0  0  0
  161.4680  210.6120  152.1240 C   0  0  0  0  0  0  0  0  0  0  0  0
  162.2310  210.3440  153.0890 O   0  0  0  0  0  1  0  0  0  0  0  0
  2  7  1  0  0  0  0
  3  8  1  0  0  0  0
  4 16  1  1  0  0  0
  4  1  1  0  0  0  0
  5 12  1  0  0  0  0
  5  3  1  0  0  0  0
  6  2  1  0  0  0  0
  8 11  2  0  0  0  0
  8 15  1  0  0  0  0
  9  6  2  0  0  0  0
 10  1  1  0  0  0  0
 10  2  2  0  0  0  0
 11  4  1  0  0  0  0
 12 13  1  0  0  0  0
 13 11  1  0  0  0  0
 14 15  2  0  0  0  0
 14  9  1  0  0  0  0
 15 10  1  0  0  0  0
 16 18  1  1  0  0  0
 18 17  2  0  0  0  0
 18 21  1  0  0  0  0
 19 22  1  0  0  0  0
 19 23  1  0  0  0  0
 20 19  1  0  0  0  0
 21 20  1  0  0  0  0
 21 19  1  0  0  0  0
 22 23  1  0  0  0  0
 25 24  1  1  0  0  0
 25 16  1  0  0  0  0
 25 26  1  0  0  0  0
 26 27  1  0  0  0  0
 27 29  1  0  0  0  0
 29 28  2  0  0  0  0
 29 30  1  0  0  0  0
M  END
>  <MODEL>
9

>  <REMARK>
 VINA RESULT:      -4.6      4.228      7.634
  Name = 
  7 active torsions:
  status: ('A' for Active; 'I' for Inactive)
    1  A    between atoms: C_4  and  C_13
    2  A    between atoms: C_7  and  C_15
    3  A    between atoms: C_7  and  C_16
    4  A    between atoms: C_8  and  N_12
    5  A    between atoms: C_8  and  C_13
    6  A    between atoms: C_13  and  C_30
    7  A    between atoms: C_16  and  C_30
                            x       y       z     vdW  Elec       q    Type
                         _______ _______ _______ _____ _____    ______ ____

>  <TORSDO>
F 7

$$$$
