=
 OpenBabel11052423063D

 27 31  0  0  1  0  0  0  0  0999 V2000
  161.3700  209.2170  149.3430 N   0  0  0  0  0  2  0  0  0  0  0  0
  161.2860  211.0740  150.9220 C   0  0  0  0  0  0  0  0  0  0  0  0
  161.7990  209.0670  152.2400 N   0  0  0  0  0  2  0  0  0  0  0  0
  158.7830  212.1310  153.6610 N   0  0  0  0  0  0  0  0  0  0  0  0
  157.8980  210.5910  155.4180 N   0  0  0  0  0  1  0  0  0  0  0  0
  160.6860  212.3890  150.8270 N   0  0  0  0  0  0  0  0  0  0  0  0
  160.0580  210.3620  154.3240 C   0  0  0  0  0  0  0  0  0  0  0  0
  161.8760  205.6360  151.2430 C   0  0  0  0  0  3  0  0  0  0  0  0
  160.5150  209.1710  155.0980 C   0  0  0  0  0  1  0  0  0  0  0  0
  161.3100  205.6980  149.9710 C   0  0  0  0  0  0  0  0  0  0  0  0
  160.8830  211.1410  153.3530 C   0  0  2  0  0  3  0  0  0  0  0  0
  161.9700  210.4820  149.7340 C   0  0  2  0  0  3  0  0  0  0  0  0
  158.9180  211.0070  154.5150 C   0  0  0  0  0  0  0  0  0  0  0  0
  159.8980  212.2060  153.0100 C   0  0  0  0  0  0  0  0  0  0  0  0
  161.3730  208.1280  150.0520 C   0  0  0  0  0  0  0  0  0  0  0  0
  161.2820  210.4040  152.0960 C   0  0  1  0  0  3  0  0  0  0  0  0
  162.1160  206.8110  151.9540 C   0  0  0  0  0  3  0  0  0  0  0  0
  160.0150  212.9100  151.7810 N   0  0  0  0  0  2  0  0  0  0  0  0
  161.0150  204.4470  149.2250 C   0  0  0  0  0  1  0  0  0  0  0  0
  161.0760  206.9370  149.3760 C   0  0  0  0  0  3  0  0  0  0  0  0
  161.8190  208.0640  151.4050 C   0  0  0  0  0  0  0  0  0  0  0  0
  162.2430  213.1850  146.4000 C   0  0  0  0  0  3  0  0  0  0  0  0
  162.0550  211.4100  148.5600 C   0  0  0  0  0  0  0  0  0  0  0  0
  160.9460  211.6310  147.7280 C   0  0  0  0  0  3  0  0  0  0  0  0
  161.0420  212.5160  146.6490 C   0  0  0  0  0  3  0  0  0  0  0  0
  163.3490  212.9720  147.2300 C   0  0  0  0  0  3  0  0  0  0  0  0
  163.2530  212.0880  148.3090 C   0  0  0  0  0  3  0  0  0  0  0  0
  1 12  1  0  0  0  0
  1 15  1  0  0  0  0
  4 13  1  0  0  0  0
  6  2  2  0  0  0  0
  6 18  1  0  0  0  0
  7 13  2  0  0  0  0
  7  9  1  0  0  0  0
  8 17  1  0  0  0  0
 10  8  2  0  0  0  0
 11 14  1  6  0  0  0
 11  7  1  0  0  0  0
 12 23  1  6  0  0  0
 12  2  1  0  0  0  0
 13  5  1  0  0  0  0
 14  4  2  0  0  0  0
 15 21  1  0  0  0  0
 16  2  1  1  0  0  0
 16  3  1  0  0  0  0
 16 11  1  0  0  0  0
 18 14  1  0  0  0  0
 19 10  1  0  0  0  0
 20 10  1  0  0  0  0
 20 15  2  0  0  0  0
 21 17  2  0  0  0  0
 21  3  1  0  0  0  0
 22 25  2  0  0  0  0
 22 26  1  0  0  0  0
 24 23  2  0  0  0  0
 25 24  1  0  0  0  0
 26 27  2  0  0  0  0
 27 23  1  0  0  0  0
M  END
>  <MODEL>
1

>  <REMARK>
 VINA RESULT:      -6.7      0.000      0.000
  Name = 
  1 active torsions:
  status: ('A' for Active; 'I' for Inactive)
    1  A    between atoms: C_9  and  C_15
                            x       y       z     vdW  Elec       q    Type
                         _______ _______ _______ _____ _____    ______ ____

>  <TORSDO>
F 1

$$$$
=
 OpenBabel11052423063D

 27 31  0  0  1  0  0  0  0  0999 V2000
  161.7100  208.5370  150.7450 N   0  0  0  0  0  2  0  0  0  0  0  0
  160.9270  207.9910  152.9900 C   0  0  0  0  0  0  0  0  0  0  0  0
  160.3350  210.3410  152.6040 N   0  0  0  0  0  2  0  0  0  0  0  0
  162.1100  208.9570  156.5330 N   0  0  0  0  0  0  0  0  0  0  0  0
  162.5790  211.3010  157.2610 N   0  0  0  0  0  1  0  0  0  0  0  0
  161.2920  206.9250  153.9020 N   0  0  0  0  0  0  0  0  0  0  0  0
  161.0020  210.6720  155.5180 C   0  0  0  0  0  0  0  0  0  0  0  0
  161.1890  212.4950  149.8820 C   0  0  0  0  0  3  0  0  0  0  0  0
  160.5130  212.0500  155.2260 C   0  0  0  0  0  1  0  0  0  0  0  0
  162.1400  211.7340  149.2070 C   0  0  0  0  0  0  0  0  0  0  0  0
  160.4460  209.4090  154.9490 C   0  0  2  0  0  3  0  0  0  0  0  0
  160.8070  207.7090  151.5290 C   0  0  2  0  0  3  0  0  0  0  0  0
  161.8790  210.3550  156.4580 C   0  0  0  0  0  0  0  0  0  0  0  0
  161.2940  208.4270  155.6820 C   0  0  0  0  0  0  0  0  0  0  0  0
  161.6450  209.8300  150.6350 C   0  0  0  0  0  0  0  0  0  0  0  0
  160.6370  209.2240  153.4610 C   0  0  0  0  0  0  0  0  0  0  0  0
  160.5220  211.9570  150.9830 C   0  0  0  0  0  3  0  0  0  0  0  0
  161.4930  207.1240  155.1480 N   0  0  0  0  0  0  0  0  0  0  0  0
  162.8820  212.3170  148.0580 C   0  0  0  0  0  1  0  0  0  0  0  0
  162.3530  210.4060  149.5730 C   0  0  0  0  0  3  0  0  0  0  0  0
  160.7750  210.6490  151.4140 C   0  0  0  0  0  0  0  0  0  0  0  0
  161.2520  203.5620  150.4780 C   0  0  0  0  0  3  0  0  0  0  0  0
  160.9790  206.2610  151.1760 C   0  0  0  0  0  0  0  0  0  0  0  0
  161.2370  205.2990  152.1640 C   0  0  0  0  0  3  0  0  0  0  0  0
  161.3750  203.9520  151.8140 C   0  0  0  0  0  3  0  0  0  0  0  0
  160.9890  204.5170  149.4910 C   0  0  0  0  0  3  0  0  0  0  0  0
  160.8510  205.8640  149.8400 C   0  0  0  0  0  3  0  0  0  0  0  0
  1 12  1  0  0  0  0
  2 16  2  0  0  0  0
  2  6  1  0  0  0  0
  3 16  1  0  0  0  0
  6 18  2  0  0  0  0
  7 13  2  0  0  0  0
  8 17  1  0  0  0  0
  9  7  1  0  0  0  0
 10 20  1  0  0  0  0
 10  8  2  0  0  0  0
 11 16  1  6  0  0  0
 11  7  1  0  0  0  0
 11 14  1  0  0  0  0
 12 23  1  1  0  0  0
 12  2  1  0  0  0  0
 13  4  1  0  0  0  0
 13  5  1  0  0  0  0
 14  4  2  0  0  0  0
 15  1  1  0  0  0  0
 15 21  1  0  0  0  0
 17 21  2  0  0  0  0
 18 14  1  0  0  0  0
 19 10  1  0  0  0  0
 20 15  2  0  0  0  0
 21  3  1  0  0  0  0
 22 25  1  0  0  0  0
 23 24  1  0  0  0  0
 25 24  2  0  0  0  0
 26 27  1  0  0  0  0
 26 22  2  0  0  0  0
 27 23  2  0  0  0  0
M  END
>  <MODEL>
2

>  <REMARK>
 VINA RESULT:      -6.5      1.988      5.687
  Name = 
  1 active torsions:
  status: ('A' for Active; 'I' for Inactive)
    1  A    between atoms: C_9  and  C_15
                            x       y       z     vdW  Elec       q    Type
                         _______ _______ _______ _____ _____    ______ ____

>  <TORSDO>
F 1

$$$$
=
 OpenBabel11052423063D

 27 31  0  0  1  0  0  0  0  0999 V2000
  161.2090  210.7340  140.5780 N   0  0  0  0  0  2  0  0  0  0  0  0
  159.4110  210.6660  138.9300 C   0  0  0  0  0  0  0  0  0  0  0  0
  159.5990  213.0040  139.6520 N   0  0  0  0  0  2  0  0  0  0  0  0
  155.5740  210.9910  139.1590 N   0  0  0  0  0  0  0  0  0  0  0  0
  154.3950  212.8280  140.3760 N   0  0  0  0  0  1  0  0  0  0  0  0
  158.6030  209.5690  138.4360 N   0  0  0  0  0  0  0  0  0  0  0  0
  156.6040  213.0130  139.3750 C   0  0  0  0  0  0  0  0  0  0  0  0
  161.5840  214.4400  142.2560 C   0  0  0  0  0  3  0  0  0  0  0  0
  156.8190  214.4530  139.7030 C   0  0  0  0  0  1  0  0  0  0  0  0
  162.0480  213.3040  142.9160 C   0  0  0  0  0  0  0  0  0  0  0  0
  157.4980  212.1680  138.5280 C   0  0  2  0  0  3  0  0  0  0  0  0
  160.8660  210.4560  139.1920 C   0  0  2  0  0  3  0  0  0  0  0  0
  155.5030  212.3260  139.6350 C   0  0  0  0  0  0  0  0  0  0  0  0
  156.7000  210.9090  138.5290 C   0  0  0  0  0  0  0  0  0  0  0  0
  161.1370  211.8960  141.1550 C   0  0  0  0  0  0  0  0  0  0  0  0
  158.8700  211.8930  139.1000 C   0  0  1  0  0  3  0  0  0  0  0  0
  160.8280  214.3050  141.0910 C   0  0  0  0  0  3  0  0  0  0  0  0
  157.3390  209.6650  138.2740 N   0  0  0  0  0  2  0  0  0  0  0  0
  162.8200  213.4400  144.1780 C   0  0  0  0  0  1  0  0  0  0  0  0
  161.8390  212.0440  142.3580 C   0  0  0  0  0  3  0  0  0  0  0  0
  160.5420  213.0450  140.5540 C   0  0  0  0  0  0  0  0  0  0  0  0
  162.3340  206.5690  138.0800 C   0  0  0  0  0  3  0  0  0  0  0  0
  161.3640  209.1010  138.7880 C   0  0  0  0  0  0  0  0  0  0  0  0
  161.6490  208.8040  137.4460 C   0  0  0  0  0  3  0  0  0  0  0  0
  162.1310  207.5390  137.0940 C   0  0  0  0  0  3  0  0  0  0  0  0
  162.0570  206.8640  139.4190 C   0  0  0  0  0  3  0  0  0  0  0  0
  161.5750  208.1280  139.7710 C   0  0  0  0  0  3  0  0  0  0  0  0
  1 15  1  0  0  0  0
  2 12  1  0  0  0  0
  3 21  1  0  0  0  0
  4 13  1  0  0  0  0
  6  2  2  0  0  0  0
  7 13  2  0  0  0  0
  7  9  1  0  0  0  0
  8 10  1  0  0  0  0
 10 19  1  0  0  0  0
 11 14  1  1  0  0  0
 11 16  1  0  0  0  0
 11  7  1  0  0  0  0
 12 23  1  1  0  0  0
 12  1  1  0  0  0  0
 13  5  1  0  0  0  0
 14  4  2  0  0  0  0
 15 20  1  0  0  0  0
 16  2  1  6  0  0  0
 16  3  1  0  0  0  0
 17  8  2  0  0  0  0
 18  6  1  0  0  0  0
 18 14  1  0  0  0  0
 20 10  2  0  0  0  0
 21 17  1  0  0  0  0
 21 15  2  0  0  0  0
 22 26  1  0  0  0  0
 23 27  1  0  0  0  0
 24 23  2  0  0  0  0
 25 24  1  0  0  0  0
 25 22  2  0  0  0  0
 26 27  2  0  0  0  0
M  END
>  <MODEL>
3

>  <REMARK>
 VINA RESULT:      -5.5      9.291     12.529
  Name = 
  1 active torsions:
  status: ('A' for Active; 'I' for Inactive)
    1  A    between atoms: C_9  and  C_15
                            x       y       z     vdW  Elec       q    Type
                         _______ _______ _______ _____ _____    ______ ____

>  <TORSDO>
F 1

$$$$
=
 OpenBabel11052423063D

 27 31  0  0  1  0  0  0  0  0999 V2000
  160.7840  209.7050  151.6380 N   0  0  0  0  0  2  0  0  0  0  0  0
  159.9960  211.8590  152.4680 C   0  0  0  0  0  0  0  0  0  0  0  0
  160.4360  210.4750  154.4460 N   0  0  0  0  0  2  0  0  0  0  0  0
  156.7180  213.0400  154.1240 N   0  0  0  0  0  0  0  0  0  0  0  0
  155.6380  211.8920  156.0630 N   0  0  0  0  0  1  0  0  0  0  0  0
  159.2510  212.9220  151.8230 N   0  0  0  0  0  0  0  0  0  0  0  0
  158.0220  211.8670  155.5800 C   0  0  0  0  0  0  0  0  0  0  0  0
  161.3000  207.0140  154.6680 C   0  0  0  0  0  3  0  0  0  0  0  0
  158.4300  211.0780  156.7790 C   0  0  0  0  0  1  0  0  0  0  0  0
  161.0950  206.5870  153.3580 C   0  0  0  0  0  0  0  0  0  0  0  0
  158.9480  212.5110  154.6020 C   0  0  2  0  0  3  0  0  0  0  0  0
  161.0570  211.1310  151.7090 C   0  0  2  0  0  3  0  0  0  0  0  0
  156.7880  212.2620  155.3080 C   0  0  0  0  0  0  0  0  0  0  0  0
  157.9420  213.1820  153.7320 C   0  0  0  0  0  0  0  0  0  0  0  0
  160.7620  208.8890  152.6490 C   0  0  0  0  0  0  0  0  0  0  0  0
  159.7790  211.5620  153.7680 C   0  0  1  0  0  3  0  0  0  0  0  0
  161.1580  208.3640  154.9890 C   0  0  0  0  0  3  0  0  0  0  0  0
  158.2760  213.5210  152.3920 N   0  0  0  0  0  2  0  0  0  0  0  0
  161.2060  205.1440  153.0190 C   0  0  0  0  0  1  0  0  0  0  0  0
  160.8440  207.5220  152.3550 C   0  0  0  0  0  3  0  0  0  0  0  0
  160.8320  209.3110  154.0100 C   0  0  0  0  0  0  0  0  0  0  0  0
  161.8460  212.7080  147.7860 C   0  0  0  0  0  3  0  0  0  0  0  0
  161.3120  211.6880  150.3400 C   0  0  0  0  0  0  0  0  0  0  0  0
  160.8310  212.9540  149.9710 C   0  0  0  0  0  3  0  0  0  0  0  0
  161.0970  213.4610  148.6940 C   0  0  0  0  0  3  0  0  0  0  0  0
  162.3310  211.4490  148.1530 C   0  0  0  0  0  3  0  0  0  0  0  0
  162.0660  210.9410  149.4280 C   0  0  0  0  0  3  0  0  0  0  0  0
  1 12  1  0  0  0  0
  1 15  1  0  0  0  0
  4 13  1  0  0  0  0
  6 18  1  0  0  0  0
  6  2  2  0  0  0  0
  7  9  1  0  0  0  0
  8 17  1  0  0  0  0
 10  8  2  0  0  0  0
 11 14  1  6  0  0  0
 11  7  1  0  0  0  0
 12 23  1  6  0  0  0
 12  2  1  0  0  0  0
 13  7  2  0  0  0  0
 13  5  1  0  0  0  0
 14  4  2  0  0  0  0
 15 21  1  0  0  0  0
 16  2  1  1  0  0  0
 16  3  1  0  0  0  0
 16 11  1  0  0  0  0
 18 14  1  0  0  0  0
 19 10  1  0  0  0  0
 20 15  2  0  0  0  0
 20 10  1  0  0  0  0
 21  3  1  0  0  0  0
 21 17  2  0  0  0  0
 22 26  2  0  0  0  0
 22 25  1  0  0  0  0
 24 23  1  0  0  0  0
 25 24  2  0  0  0  0
 26 27  1  0  0  0  0
 27 23  2  0  0  0  0
M  END
>  <MODEL>
4

>  <REMARK>
 VINA RESULT:      -5.1      1.814      2.685
  Name = 
  1 active torsions:
  status: ('A' for Active; 'I' for Inactive)
    1  A    between atoms: C_9  and  C_15
                            x       y       z     vdW  Elec       q    Type
                         _______ _______ _______ _____ _____    ______ ____

>  <TORSDO>
F 1

$$$$
=
 OpenBabel11052423063D

 27 31  0  0  1  0  0  0  0  0999 V2000
  161.3650  209.9400  151.3450 N   0  0  0  0  0  2  0  0  0  0  0  0
  160.2190  209.8020  153.4930 C   0  0  0  0  0  0  0  0  0  0  0  0
  159.4000  211.8420  152.4020 N   0  0  0  0  0  2  0  0  0  0  0  0
  160.4980  211.7780  156.7940 N   0  0  0  0  0  0  0  0  0  0  0  0
  160.4770  214.2730  156.9380 N   0  0  0  0  0  1  0  0  0  0  0  0
  160.5310  209.0680  154.7030 N   0  0  0  0  0  0  0  0  0  0  0  0
  159.3970  212.9680  155.1920 C   0  0  0  0  0  0  0  0  0  0  0  0
  160.4920  213.4150  149.3830 C   0  0  0  0  0  3  0  0  0  0  0  0
  158.7940  214.1230  154.4660 C   0  0  0  0  0  1  0  0  0  0  0  0
  161.6590  212.7080  149.1020 C   0  0  0  0  0  0  0  0  0  0  0  0
  159.1510  211.5260  154.8960 C   0  0  2  0  0  3  0  0  0  0  0  0
  160.4430  209.1660  152.1610 C   0  0  2  0  0  3  0  0  0  0  0  0
  160.0960  213.0510  156.3130 C   0  0  0  0  0  0  0  0  0  0  0  0
  159.9570  210.9200  155.9930 C   0  0  0  0  0  0  0  0  0  0  0  0
  161.1470  211.1350  150.8850 C   0  0  0  0  0  0  0  0  0  0  0  0
  159.6700  211.0350  153.5630 C   0  0  0  0  0  0  0  0  0  0  0  0
  159.6930  213.0360  150.4630 C   0  0  0  0  0  3  0  0  0  0  0  0
  160.4400  209.5890  155.8660 N   0  0  0  0  0  0  0  0  0  0  0  0
  162.5340  213.1310  147.9780 C   0  0  0  0  0  1  0  0  0  0  0  0
  161.9730  211.5670  149.8390 C   0  0  0  0  0  3  0  0  0  0  0  0
  160.0300  211.9380  151.2630 C   0  0  0  0  0  0  0  0  0  0  0  0
  161.6710  205.0480  152.3370 C   0  0  0  0  0  3  0  0  0  0  0  0
  160.8830  207.7350  152.2400 C   0  0  0  0  0  0  0  0  0  0  0  0
  160.9110  207.0510  153.4650 C   0  0  0  0  0  3  0  0  0  0  0  0
  161.3060  205.7100  153.5120 C   0  0  0  0  0  3  0  0  0  0  0  0
  161.6390  205.7250  151.1130 C   0  0  0  0  0  3  0  0  0  0  0  0
  161.2440  207.0650  151.0650 C   0  0  0  0  0  3  0  0  0  0  0  0
  1 12  1  0  0  0  0
  2 16  2  0  0  0  0
  2  6  1  0  0  0  0
  3 16  1  0  0  0  0
  6 18  2  0  0  0  0
  7 13  2  0  0  0  0
  8 17  1  0  0  0  0
  9  7  1  0  0  0  0
 10  8  2  0  0  0  0
 10 20  1  0  0  0  0
 11 16  1  6  0  0  0
 11  7  1  0  0  0  0
 11 14  1  0  0  0  0
 12 23  1  1  0  0  0
 12  2  1  0  0  0  0
 13  4  1  0  0  0  0
 13  5  1  0  0  0  0
 14  4  2  0  0  0  0
 15 21  1  0  0  0  0
 15  1  1  0  0  0  0
 17 21  2  0  0  0  0
 18 14  1  0  0  0  0
 19 10  1  0  0  0  0
 20 15  2  0  0  0  0
 21  3  1  0  0  0  0
 22 25  1  0  0  0  0
 23 24  1  0  0  0  0
 24 25  2  0  0  0  0
 26 22  2  0  0  0  0
 27 26  1  0  0  0  0
 27 23  2  0  0  0  0
M  END
>  <MODEL>
5

>  <REMARK>
 VINA RESULT:      -4.9      2.003      5.677
  Name = 
  1 active torsions:
  status: ('A' for Active; 'I' for Inactive)
    1  A    between atoms: C_9  and  C_15
                            x       y       z     vdW  Elec       q    Type
                         _______ _______ _______ _____ _____    ______ ____

>  <TORSDO>
F 1

$$$$
=
 OpenBabel11052423063D

 27 31  0  0  1  0  0  0  0  0999 V2000
  161.3250  209.0160  147.9250 N   0  0  0  0  0  2  0  0  0  0  0  0
  161.9340  209.7440  150.1730 C   0  0  0  0  0  0  0  0  0  0  0  0
  162.5610  207.3750  150.0190 N   0  0  0  0  0  2  0  0  0  0  0  0
  160.4890  209.0480  153.6810 N   0  0  0  0  0  0  0  0  0  0  0  0
  159.9740  206.7640  154.5550 N   0  0  0  0  0  1  0  0  0  0  0  0
  161.4980  210.8750  150.9670 N   0  0  0  0  0  0  0  0  0  0  0  0
  161.6760  207.2690  152.8920 C   0  0  0  0  0  0  0  0  0  0  0  0
  161.9220  205.0070  147.4190 C   0  0  0  0  0  3  0  0  0  0  0  0
  162.1900  205.8760  152.7470 C   0  0  0  0  0  1  0  0  0  0  0  0
  161.0220  205.7040  146.6160 C   0  0  0  0  0  0  0  0  0  0  0  0
  162.2700  208.4880  152.2670 C   0  0  2  0  0  3  0  0  0  0  0  0
  162.1630  209.9110  148.7070 C   0  0  2  0  0  3  0  0  0  0  0  0
  160.7300  207.6510  153.7350 C   0  0  0  0  0  0  0  0  0  0  0  0
  161.3660  209.5170  152.8550 C   0  0  0  0  0  0  0  0  0  0  0  0
  161.4020  207.7190  147.9230 C   0  0  0  0  0  0  0  0  0  0  0  0
  162.1920  208.5540  150.7590 C   0  0  0  0  0  0  0  0  0  0  0  0
  162.5020  205.6360  148.5210 C   0  0  0  0  0  3  0  0  0  0  0  0
  161.2040  210.7720  152.2060 N   0  0  0  0  0  0  0  0  0  0  0  0
  160.3710  205.0260  145.4650 C   0  0  0  0  0  1  0  0  0  0  0  0
  160.7780  207.0550  146.8590 C   0  0  0  0  0  3  0  0  0  0  0  0
  162.2130  206.9710  148.8270 C   0  0  0  0  0  0  0  0  0  0  0  0
  161.7040  213.9450  147.2860 C   0  0  0  0  0  3  0  0  0  0  0  0
  162.0140  211.3250  148.2280 C   0  0  0  0  0  0  0  0  0  0  0  0
  163.0960  212.2180  148.2590 C   0  0  0  0  0  3  0  0  0  0  0  0
  162.9390  213.5270  147.7900 C   0  0  0  0  0  3  0  0  0  0  0  0
  160.6260  213.0550  147.2500 C   0  0  0  0  0  3  0  0  0  0  0  0
  160.7820  211.7470  147.7180 C   0  0  0  0  0  3  0  0  0  0  0  0
  1 12  1  0  0  0  0
  2 16  2  0  0  0  0
  2  6  1  0  0  0  0
  3 16  1  0  0  0  0
  4 13  1  0  0  0  0
  6 18  2  0  0  0  0
  7 13  2  0  0  0  0
  8 17  1  0  0  0  0
  9  7  1  0  0  0  0
 10 20  1  0  0  0  0
 10  8  2  0  0  0  0
 11 16  1  6  0  0  0
 11 14  1  0  0  0  0
 11  7  1  0  0  0  0
 12 23  1  6  0  0  0
 12  2  1  0  0  0  0
 13  5  1  0  0  0  0
 14  4  2  0  0  0  0
 15  1  1  0  0  0  0
 15 21  1  0  0  0  0
 17 21  2  0  0  0  0
 18 14  1  0  0  0  0
 19 10  1  0  0  0  0
 20 15  2  0  0  0  0
 21  3  1  0  0  0  0
 22 25  1  0  0  0  0
 23 24  1  0  0  0  0
 25 24  2  0  0  0  0
 26 22  2  0  0  0  0
 26 27  1  0  0  0  0
 27 23  2  0  0  0  0
M  END
>  <MODEL>
6

>  <REMARK>
 VINA RESULT:      -4.9      1.847      2.923
  Name = 
  1 active torsions:
  status: ('A' for Active; 'I' for Inactive)
    1  A    between atoms: C_9  and  C_15
                            x       y       z     vdW  Elec       q    Type
                         _______ _______ _______ _____ _____    ______ ____

>  <TORSDO>
F 1

$$$$
=
 OpenBabel11052423063D

 27 31  0  0  1  0  0  0  0  0999 V2000
  160.6700  209.5620  153.1760 N   0  0  0  0  0  2  0  0  0  0  0  0
  160.0790  211.7740  152.3350 C   0  0  0  0  0  0  0  0  0  0  0  0
  160.2080  211.9750  154.7780 N   0  0  0  0  0  2  0  0  0  0  0  0
  156.8480  213.8800  152.4150 N   0  0  0  0  0  0  0  0  0  0  0  0
  155.5020  214.3000  154.4780 N   0  0  0  0  0  1  0  0  0  0  0  0
  159.5120  212.2010  151.0720 N   0  0  0  0  0  0  0  0  0  0  0  0
  157.8960  213.8690  154.4400 C   0  0  0  0  0  0  0  0  0  0  0  0
  160.6450  209.4390  157.2590 C   0  0  0  0  0  3  0  0  0  0  0  0
  158.1200  214.0230  155.9070 C   0  0  0  0  0  1  0  0  0  0  0  0
  160.4880  208.2770  156.5070 C   0  0  0  0  0  0  0  0  0  0  0  0
  158.9610  213.6910  153.4080 C   0  0  2  0  0  3  0  0  0  0  0  0
  161.1010  210.6850  152.3600 C   0  0  2  0  0  3  0  0  0  0  0  0
  156.7400  214.0470  153.8200 C   0  0  0  0  0  0  0  0  0  0  0  0
  158.1060  213.6850  152.1870 C   0  0  0  0  0  0  0  0  0  0  0  0
  160.4790  209.5920  154.4620 C   0  0  0  0  0  0  0  0  0  0  0  0
  159.7340  212.3950  153.4850 C   0  0  1  0  0  3  0  0  0  0  0  0
  160.6370  210.6830  156.6270 C   0  0  0  0  0  3  0  0  0  0  0  0
  158.5750  213.0660  150.9960 N   0  0  0  0  0  2  0  0  0  0  0  0
  160.4550  206.9530  157.1800 C   0  0  0  0  0  1  0  0  0  0  0  0
  160.4220  208.3550  155.1170 C   0  0  0  0  0  3  0  0  0  0  0  0
  160.4970  210.7880  155.2380 C   0  0  0  0  0  0  0  0  0  0  0  0
  162.3330  209.2970  148.4800 C   0  0  0  0  0  3  0  0  0  0  0  0
  161.5190  210.2170  150.9980 C   0  0  0  0  0  0  0  0  0  0  0  0
  161.9050  211.1290  150.0040 C   0  0  0  0  0  3  0  0  0  0  0  0
  162.3100  210.6680  148.7470 C   0  0  0  0  0  3  0  0  0  0  0  0
  161.9540  208.3850  149.4700 C   0  0  0  0  0  3  0  0  0  0  0  0
  161.5500  208.8440  150.7270 C   0  0  0  0  0  3  0  0  0  0  0  0
  1 15  1  0  0  0  0
  2 12  1  0  0  0  0
  3 21  1  0  0  0  0
  4 13  1  0  0  0  0
  6  2  2  0  0  0  0
  7  9  1  0  0  0  0
 10 19  1  0  0  0  0
 10  8  2  0  0  0  0
 11 14  1  6  0  0  0
 11 16  1  0  0  0  0
 11  7  1  0  0  0  0
 12 23  1  6  0  0  0
 12  1  1  0  0  0  0
 13  7  2  0  0  0  0
 13  5  1  0  0  0  0
 14  4  2  0  0  0  0
 15 20  2  0  0  0  0
 15 21  1  0  0  0  0
 16  2  1  6  0  0  0
 16  3  1  0  0  0  0
 17  8  1  0  0  0  0
 18  6  1  0  0  0  0
 18 14  1  0  0  0  0
 20 10  1  0  0  0  0
 21 17  2  0  0  0  0
 22 25  2  0  0  0  0
 22 26  1  0  0  0  0
 24 23  2  0  0  0  0
 25 24  1  0  0  0  0
 26 27  2  0  0  0  0
 27 23  1  0  0  0  0
M  END
>  <MODEL>
7

>  <REMARK>
 VINA RESULT:      -4.9      2.126      4.498
  Name = 
  1 active torsions:
  status: ('A' for Active; 'I' for Inactive)
    1  A    between atoms: C_9  and  C_15
                            x       y       z     vdW  Elec       q    Type
                         _______ _______ _______ _____ _____    ______ ____

>  <TORSDO>
F 1

$$$$
=
 OpenBabel11052423063D

 27 31  0  0  1  0  0  0  0  0999 V2000
  161.0160  210.8690  150.3460 N   0  0  0  0  0  2  0  0  0  0  0  0
  159.9710  212.9960  150.9240 C   0  0  0  0  0  0  0  0  0  0  0  0
  160.4390  211.8570  153.0470 N   0  0  0  0  0  2  0  0  0  0  0  0
  156.5050  213.9740  152.3080 N   0  0  0  0  0  0  0  0  0  0  0  0
  155.4420  212.9050  154.3010 N   0  0  0  0  0  1  0  0  0  0  0  0
  159.1580  213.9090  150.1450 N   0  0  0  0  0  0  0  0  0  0  0  0
  157.8400  213.0860  153.9290 C   0  0  0  0  0  0  0  0  0  0  0  0
  161.6350  208.5420  153.6470 C   0  0  0  0  0  3  0  0  0  0  0  0
  158.2590  212.4600  155.2170 C   0  0  0  0  0  1  0  0  0  0  0  0
  161.5450  207.9750  152.3770 C   0  0  0  0  0  0  0  0  0  0  0  0
  158.7480  213.7300  152.9340 C   0  0  2  0  0  3  0  0  0  0  0  0
  161.1390  212.3170  150.2880 C   0  0  2  0  0  3  0  0  0  0  0  0
  156.5890  213.3210  153.5650 C   0  0  0  0  0  0  0  0  0  0  0  0
  157.7280  214.2070  151.9590 C   0  0  0  0  0  0  0  0  0  0  0  0
  161.0210  210.1530  151.4310 C   0  0  0  0  0  0  0  0  0  0  0  0
  159.7150  212.8010  152.2360 C   0  0  1  0  0  3  0  0  0  0  0  0
  161.3400  209.8940  153.8260 C   0  0  0  0  0  3  0  0  0  0  0  0
  158.0990  214.4530  150.6080 N   0  0  0  0  0  2  0  0  0  0  0  0
  161.8190  206.5270  152.1880 C   0  0  0  0  0  1  0  0  0  0  0  0
  161.2560  208.7810  151.2770 C   0  0  0  0  0  3  0  0  0  0  0  0
  160.9740  210.7050  152.7450 C   0  0  0  0  0  0  0  0  0  0  0  0
  161.9290  213.5480  146.2440 C   0  0  0  0  0  3  0  0  0  0  0  0
  161.4110  212.7660  148.8840 C   0  0  0  0  0  0  0  0  0  0  0  0
  162.1960  213.9010  148.6250 C   0  0  0  0  0  3  0  0  0  0  0  0
  162.4520  214.2910  147.3060 C   0  0  0  0  0  3  0  0  0  0  0  0
  161.1520  212.4140  146.4990 C   0  0  0  0  0  3  0  0  0  0  0  0
  160.8950  212.0230  147.8160 C   0  0  0  0  0  3  0  0  0  0  0  0
  1 15  1  0  0  0  0
  4 13  1  0  0  0  0
  6 18  1  0  0  0  0
  6  2  2  0  0  0  0
  7  9  1  0  0  0  0
  8 17  1  0  0  0  0
 10  8  2  0  0  0  0
 11 14  1  6  0  0  0
 11  7  1  0  0  0  0
 12 23  1  6  0  0  0
 12  1  1  0  0  0  0
 12  2  1  0  0  0  0
 13  7  2  0  0  0  0
 13  5  1  0  0  0  0
 14  4  2  0  0  0  0
 15 21  1  0  0  0  0
 16  2  1  1  0  0  0
 16 11  1  0  0  0  0
 16  3  1  0  0  0  0
 18 14  1  0  0  0  0
 19 10  1  0  0  0  0
 20 15  2  0  0  0  0
 20 10  1  0  0  0  0
 21  3  1  0  0  0  0
 21 17  2  0  0  0  0
 22 26  2  0  0  0  0
 22 25  1  0  0  0  0
 24 23  1  0  0  0  0
 25 24  2  0  0  0  0
 26 27  1  0  0  0  0
 27 23  2  0  0  0  0
M  END
>  <MODEL>
8

>  <REMARK>
 VINA RESULT:      -4.3      1.924      2.929
  Name = 
  1 active torsions:
  status: ('A' for Active; 'I' for Inactive)
    1  A    between atoms: C_9  and  C_15
                            x       y       z     vdW  Elec       q    Type
                         _______ _______ _______ _____ _____    ______ ____

>  <TORSDO>
F 1

$$$$
=
 OpenBabel11052423063D

 27 31  0  0  1  0  0  0  0  0999 V2000
  160.3970  212.5420  142.0790 N   0  0  0  0  0  2  0  0  0  0  0  0
  159.3050  213.0030  139.9470 C   0  0  0  0  0  0  0  0  0  0  0  0
  157.9730  214.1410  141.6670 N   0  0  0  0  0  2  0  0  0  0  0  0
  156.0220  211.7970  138.3200 N   0  0  0  0  0  0  0  0  0  0  0  0
  153.8020  211.8170  139.4670 N   0  0  0  0  0  1  0  0  0  0  0  0
  159.3850  212.3360  138.6630 N   0  0  0  0  0  0  0  0  0  0  0  0
  155.6350  213.3410  139.9520 C   0  0  0  0  0  0  0  0  0  0  0  0
  158.2510  214.0130  145.2280 C   0  0  0  0  0  3  0  0  0  0  0  0
  154.9150  214.1510  140.9770 C   0  0  0  0  0  1  0  0  0  0  0  0
  159.1560  212.9690  145.4040 C   0  0  0  0  0  0  0  0  0  0  0  0
  156.9880  213.6390  139.3950 C   0  0  2  0  0  3  0  0  0  0  0  0
  160.5370  213.1700  140.7750 C   0  0  2  0  0  3  0  0  0  0  0  0
  155.1090  212.3440  139.2570 C   0  0  0  0  0  0  0  0  0  0  0  0
  157.0800  212.5360  138.3980 C   0  0  0  0  0  0  0  0  0  0  0  0
  159.5650  212.9070  143.0080 C   0  0  0  0  0  0  0  0  0  0  0  0
  158.1350  213.5280  140.3740 C   0  0  1  0  0  3  0  0  0  0  0  0
  157.9380  214.4520  143.9410 C   0  0  0  0  0  3  0  0  0  0  0  0
  158.3540  212.0890  137.9510 N   0  0  0  0  0  2  0  0  0  0  0  0
  159.4620  212.4710  146.7700 C   0  0  0  0  0  1  0  0  0  0  0  0
  159.8190  212.4330  144.3010 C   0  0  0  0  0  3  0  0  0  0  0  0
  158.5360  213.8760  142.8140 C   0  0  0  0  0  0  0  0  0  0  0  0
  164.1170  211.8630  138.7810 C   0  0  0  0  0  3  0  0  0  0  0  0
  161.7900  212.7020  140.0970 C   0  0  0  0  0  0  0  0  0  0  0  0
  162.1780  211.3540  140.1390 C   0  0  0  0  0  3  0  0  0  0  0  0
  163.3410  210.9370  139.4830 C   0  0  0  0  0  3  0  0  0  0  0  0
  163.7300  213.2060  138.7310 C   0  0  0  0  0  3  0  0  0  0  0  0
  162.5670  213.6240  139.3860 C   0  0  0  0  0  3  0  0  0  0  0  0
  1 15  1  0  0  0  0
  2 12  1  0  0  0  0
  3 21  1  0  0  0  0
  4 14  2  0  0  0  0
  4 13  1  0  0  0  0
  6  2  2  0  0  0  0
  7  9  1  0  0  0  0
  8 10  1  0  0  0  0
 10 19  1  0  0  0  0
 11 14  1  6  0  0  0
 11  7  1  0  0  0  0
 11 16  1  0  0  0  0
 12 23  1  6  0  0  0
 12  1  1  0  0  0  0
 13  5  1  0  0  0  0
 13  7  2  0  0  0  0
 15 20  1  0  0  0  0
 16  2  1  6  0  0  0
 16  3  1  0  0  0  0
 17  8  2  0  0  0  0
 18 14  1  0  0  0  0
 18  6  1  0  0  0  0
 20 10  2  0  0  0  0
 21 15  2  0  0  0  0
 21 17  1  0  0  0  0
 22 25  1  0  0  0  0
 23 24  1  0  0  0  0
 25 24  2  0  0  0  0
 26 22  2  0  0  0  0
 26 27  1  0  0  0  0
 27 23  2  0  0  0  0
M  END
>  <MODEL>
9

>  <REMARK>
 VINA RESULT:      -3.8      7.869     11.709
  Name = 
  1 active torsions:
  status: ('A' for Active; 'I' for Inactive)
    1  A    between atoms: C_9  and  C_15
                            x       y       z     vdW  Elec       q    Type
                         _______ _______ _______ _____ _____    ______ ____

>  <TORSDO>
F 1

$$$$
