=
 OpenBabel11062409183D

 37 44  0  0  1  0  0  0  0  0999 V2000
  158.9080  211.2740  155.0950 C   0  0  1  0  0  3  0  0  0  0  0  0
  158.4500  214.1390  149.7030 C   0  0  0  0  0  2  0  0  0  0  0  0
  161.4320  210.9350  151.1330 C   0  0  2  0  0  3  0  0  0  0  0  0
  159.4570  211.7970  156.4320 C   0  0  1  0  0  3  0  0  0  0  0  0
  160.5770  208.1620  153.6210 C   0  0  0  0  0  2  0  0  0  0  0  0
  160.7990  213.2210  150.0480 C   0  0  1  0  0  3  0  0  0  0  0  0
  160.5390  209.9400  151.8460 C   0  0  1  0  0  3  0  0  0  0  0  0
  157.2320  212.8030  156.0550 C   0  0  0  0  0  1  0  0  0  0  0  0
  160.6800  212.2710  151.2580 C   0  0  1  0  0  3  0  0  0  0  0  0
  161.2950  208.7250  152.3930 C   0  0  2  0  0  3  0  0  0  0  0  0
  160.8430  212.5220  148.6960 C   0  0  0  0  0  2  0  0  0  0  0  0
  160.8070  212.2160  156.3670 O   0  0  0  0  0  0  0  0  0  0  0  0
  159.2880  211.9210  151.7730 C   0  0  2  0  0  3  0  0  0  0  0  0
  157.4740  213.1910  151.8110 C   0  0  0  0  0  2  0  0  0  0  0  0
  162.6610  209.3110  149.7260 C   0  0  0  0  0  2  0  0  0  0  0  0
  158.6450  212.7010  155.5240 C   0  0  2  0  0  3  0  0  0  0  0  0
  161.9610  211.4930  148.7170 C   0  0  0  0  0  2  0  0  0  0  0  0
  158.7070  213.0030  152.4420 O   0  0  0  0  0  0  0  0  0  0  0  0
  161.6440  211.1300  156.0120 C   0  0  2  0  0  3  0  0  0  0  0  0
  160.9360  208.9150  154.8990 C   0  0  0  0  0  2  0  0  0  0  0  0
  161.5990  210.4010  149.7090 C   0  0  2  0  0  3  0  0  0  0  0  0
  159.5240  210.7180  152.6880 C   0  0  2  0  0  3  0  0  0  0  0  0
  159.8920  214.4530  150.0800 C   0  0  0  0  0  2  0  0  0  0  0  0
  161.4680  207.6880  151.2900 C   0  0  0  0  0  0  0  0  0  0  0  0
  157.5280  214.3990  150.8840 C   0  0  0  0  0  2  0  0  0  0  0  0
  161.2210  210.4140  154.6980 C   0  0  1  0  0  3  0  0  0  0  0  0
  160.0390  211.1790  154.0760 C   0  0  2  0  0  3  0  0  0  0  0  0
  162.0750  207.9800  150.1170 C   0  0  0  0  0  3  0  0  0  0  0  0
  161.6810  205.5240  152.5630 C   0  0  0  0  0  2  0  0  0  0  0  0
  160.9270  206.2930  151.4780 C   0  0  2  0  0  3  0  0  0  0  0  0
  160.8640  205.5390  150.1740 C   0  0  0  0  0  3  0  0  0  0  0  0
  160.9240  203.5370  148.7830 C   0  0  0  0  0  1  0  0  0  0  0  0
  161.3640  203.3790  151.3190 C   0  0  0  0  0  2  0  0  0  0  0  0
  160.9870  204.2040  150.1120 C   0  0  0  0  0  0  0  0  0  0  0  0
  161.1230  204.1100  152.6410 C   0  0  0  0  0  2  0  0  0  0  0  0
  161.9760  210.2500  157.2180 C   0  0  0  0  0  2  0  0  0  0  0  0
  163.4640  209.9590  157.2600 C   0  0  0  0  0  1  0  0  0  0  0  0
  1 16  1  0  0  0  0
  1  4  1  0  0  0  0
  2 23  1  0  0  0  0
  2 25  1  0  0  0  0
  3  9  1  0  0  0  0
  3  7  1  0  0  0  0
  5 20  1  0  0  0  0
  6 23  1  0  0  0  0
  6  9  1  0  0  0  0
  7 10  1  0  0  0  0
  7 22  1  0  0  0  0
  9 13  1  0  0  0  0
 10  5  1  0  0  0  0
 11 17  1  0  0  0  0
 11  6  1  0  0  0  0
 12  4  1  0  0  0  0
 13 18  1  0  0  0  0
 13 22  1  0  0  0  0
 14 18  1  0  0  0  0
 15 28  1  0  0  0  0
 16  8  1  0  0  0  0
 16  4  1  0  0  0  0
 17 21  1  0  0  0  0
 19 12  1  0  0  0  0
 19 36  1  0  0  0  0
 21 15  1  0  0  0  0
 21  3  1  0  0  0  0
 22 27  1  0  0  0  0
 24 30  1  0  0  0  0
 24 10  1  0  0  0  0
 25 14  1  0  0  0  0
 26 20  1  0  0  0  0
 26 19  1  0  0  0  0
 27 26  1  0  0  0  0
 27  1  1  0  0  0  0
 28 24  2  0  0  0  0
 29 35  1  0  0  0  0
 30 29  1  0  0  0  0
 31 30  1  0  0  0  0
 32 34  1  0  0  0  0
 33 35  1  0  0  0  0
 34 31  2  0  0  0  0
 34 33  1  0  0  0  0
 36 37  1  0  0  0  0
M  END
>  <MODEL>
1

>  <REMARK>
 VINA RESULT:      -7.9      0.000      0.000
  Name = 
  2 active torsions:
  status: ('A' for Active; 'I' for Inactive)
    1  A    between atoms: C_6  and  C_31
    2  A    between atoms: C_11  and  C_26
                            x       y       z     vdW  Elec       q    Type
                         _______ _______ _______ _____ _____    ______ ____

>  <TORSDO>
F 2

$$$$
