=
 OpenBabel11052422103D

 25 27  0  0  1  0  0  0  0  0999 V2000
  162.1720  212.7010  140.1910 C   0  0  0  0  0  0  0  0  0  0  0  0
  162.4930  211.4250  139.5980 N   0  0  0  0  0  0  0  0  0  0  0  0
  160.9170  210.6930  137.0110 C   0  0  2  0  0  3  0  0  0  0  0  0
  159.8270  210.4470  139.3280 C   0  0  0  0  0  2  0  0  0  0  0  0
  162.0420  211.7270  137.1950 C   0  0  0  0  0  2  0  0  0  0  0  0
  161.4130  208.7160  138.3690 C   0  0  0  0  0  0  0  0  0  0  0  0
  161.8380  207.4660  138.4630 C   0  0  0  0  0  2  0  0  0  0  0  0
  159.6440  210.9090  137.8700 C   0  0  1  0  0  0  0  0  0  0  0  0
  162.1640  210.1660  140.2620 C   0  0  0  0  0  2  0  0  0  0  0  0
  162.2520  213.7460  139.4880 O   0  0  0  0  0  0  0  0  0  0  0  0
  161.3890  209.3520  137.1290 O   0  0  0  0  0  0  0  0  0  0  0  0
  160.9790  209.4600  139.5980 C   0  0  1  0  0  3  0  0  0  0  0  0
  163.0730  211.3590  138.2610 C   0  0  0  0  0  2  0  0  0  0  0  0
  159.2440  212.3770  137.8940 C   0  0  0  0  0  1  0  0  0  0  0  0
  161.7470  212.8300  141.6060 C   0  0  0  0  0  0  0  0  0  0  0  0
  160.9730  213.1320  144.2910 C   0  0  0  0  0  3  0  0  0  0  0  0
  160.3930  213.0350  141.9400 C   0  0  0  0  0  0  0  0  0  0  0  0
  160.0140  213.1800  143.2770 C   0  0  0  0  0  3  0  0  0  0  0  0
  162.3170  212.9380  143.9700 C   0  0  0  0  0  3  0  0  0  0  0  0
  159.4350  213.0730  140.9800 F   0  0  0  0  0  0  0  0  0  0  0  0
  162.7010  212.7910  142.6350 C   0  0  0  0  0  3  0  0  0  0  0  0
  157.2410  210.0010  137.8730 C   0  0  0  0  0  0  0  0  0  0  0  0
  156.9520  210.5760  138.9570 O   0  0  0  0  0  0  0  0  0  0  0  0
  156.0060  209.0180  137.0400 S   0  0  0  0  0  1  0  0  0  0  0  0
  158.5470  210.1290  137.2990 N   0  0  0  0  0  2  0  0  0  0  0  0
  1 15  1  0  0  0  0
  2  1  1  0  0  0  0
  2  9  1  0  0  0  0
  3 11  1  0  0  0  0
  3  5  1  1  0  0  0
  3  8  1  0  0  0  0
  5 13  1  0  0  0  0
  6  7  2  0  0  0  0
  6 12  1  0  0  0  0
  8 14  1  6  0  0  0
  8  4  1  0  0  0  0
 10  1  2  0  0  0  0
 11  6  1  0  0  0  0
 12  4  1  6  0  0  0
 12  9  1  0  0  0  0
 13  2  1  0  0  0  0
 15 17  2  0  0  0  0
 15 21  1  0  0  0  0
 17 18  1  0  0  0  0
 18 16  2  0  0  0  0
 19 16  1  0  0  0  0
 20 17  1  0  0  0  0
 21 19  2  0  0  0  0
 22 23  2  0  0  0  0
 24 22  1  0  0  0  0
 25  8  1  0  0  0  0
 25 22  1  0  0  0  0
M  END
>  <MODEL>
1

>  <REMARK>
 VINA RESULT:      -4.6      0.000      0.000
  Name = 
  2 active torsions:
  status: ('A' for Active; 'I' for Inactive)
    1  A    between atoms: C_1  and  C_5
    2  A    between atoms: C_15  and  N_21
                            x       y       z     vdW  Elec       q    Type
                         _______ _______ _______ _____ _____    ______ ____

>  <TORSDO>
F 2

$$$$
=
 OpenBabel11052422103D

 25 27  0  0  1  0  0  0  0  0999 V2000
  159.4140  212.5590  156.2500 C   0  0  0  0  0  0  0  0  0  0  0  0
  159.9340  211.3300  156.7990 N   0  0  0  0  0  0  0  0  0  0  0  0
  161.9340  209.7690  154.9880 C   0  0  2  0  0  3  0  0  0  0  0  0
  159.4000  209.6530  154.5530 C   0  0  0  0  0  2  0  0  0  0  0  0
  162.1560  211.0790  155.7660 C   0  0  0  0  0  2  0  0  0  0  0  0
  160.5510  208.2610  156.3340 C   0  0  0  0  0  0  0  0  0  0  0  0
  160.4410  207.2020  157.1220 C   0  0  0  0  0  2  0  0  0  0  0  0
  160.8010  209.7890  153.9280 C   0  0  1  0  0  0  0  0  0  0  0  0
  159.0790  210.1640  157.0130 C   0  0  0  0  0  2  0  0  0  0  0  0
  160.2200  213.4500  155.8600 O   0  0  0  0  0  0  0  0  0  0  0  0
  161.8030  208.6420  155.8510 O   0  0  0  0  0  0  0  0  0  0  0  0
  159.3360  209.0670  155.9770 C   0  0  1  0  0  3  0  0  0  0  0  0
  161.3610  211.1870  157.0660 C   0  0  0  0  0  2  0  0  0  0  0  0
  160.8280  211.0810  153.1240 C   0  0  0  0  0  1  0  0  0  0  0  0
  157.9600  212.8160  156.1260 C   0  0  0  0  0  0  0  0  0  0  0  0
  155.2120  213.3660  155.9050 C   0  0  0  0  0  3  0  0  0  0  0  0
  157.3220  212.7780  154.8690 C   0  0  0  0  0  0  0  0  0  0  0  0
  155.9540  213.0480  154.7660 C   0  0  0  0  0  3  0  0  0  0  0  0
  155.8360  213.4150  157.1530 C   0  0  0  0  0  3  0  0  0  0  0  0
  158.0120  212.4590  153.7450 F   0  0  0  0  0  0  0  0  0  0  0  0
  157.2020  213.1440  157.2610 C   0  0  0  0  0  3  0  0  0  0  0  0
  161.8860  208.6380  151.9040 C   0  0  0  0  0  0  0  0  0  0  0  0
  162.6010  209.6380  151.6310 O   0  0  0  0  0  0  0  0  0  0  0  0
  161.9980  207.1710  150.8920 S   0  0  0  0  0  1  0  0  0  0  0  0
  160.9840  208.6600  153.0160 N   0  0  0  0  0  2  0  0  0  0  0  0
  1  2  1  0  0  0  0
  2  9  1  0  0  0  0
  2 13  1  0  0  0  0
  3  5  1  1  0  0  0
  3 11  1  0  0  0  0
  5 13  1  0  0  0  0
  6  7  2  0  0  0  0
  8 14  1  6  0  0  0
  8  4  1  0  0  0  0
  8  3  1  0  0  0  0
 10  1  2  0  0  0  0
 11  6  1  0  0  0  0
 12  4  1  6  0  0  0
 12  6  1  0  0  0  0
 12  9  1  0  0  0  0
 15  1  1  0  0  0  0
 15 21  1  0  0  0  0
 16 19  1  0  0  0  0
 17 15  2  0  0  0  0
 18 17  1  0  0  0  0
 18 16  2  0  0  0  0
 19 21  2  0  0  0  0
 20 17  1  0  0  0  0
 22 25  1  0  0  0  0
 23 22  2  0  0  0  0
 24 22  1  0  0  0  0
 25  8  1  0  0  0  0
M  END
>  <MODEL>
2

>  <REMARK>
 VINA RESULT:      -4.0     13.095     16.033
  Name = 
  2 active torsions:
  status: ('A' for Active; 'I' for Inactive)
    1  A    between atoms: C_1  and  C_5
    2  A    between atoms: C_15  and  N_21
                            x       y       z     vdW  Elec       q    Type
                         _______ _______ _______ _____ _____    ______ ____

>  <TORSDO>
F 2

$$$$
=
 OpenBabel11052422103D

 25 27  0  0  1  0  0  0  0  0999 V2000
  160.2640  213.8420  141.7510 C   0  0  0  0  0  0  0  0  0  0  0  0
  161.3620  213.9310  140.8180 N   0  0  0  0  0  0  0  0  0  0  0  0
  161.1170  212.1720  138.2570 C   0  0  2  0  0  3  0  0  0  0  0  0
  161.8220  211.1330  140.5020 C   0  0  0  0  0  2  0  0  0  0  0  0
  160.3510  213.4570  138.6220 C   0  0  0  0  0  2  0  0  0  0  0  0
  163.4400  212.3820  139.0020 C   0  0  0  0  0  0  0  0  0  0  0  0
  164.7180  212.6000  138.7280 C   0  0  0  0  0  2  0  0  0  0  0  0
  160.9580  210.9810  139.2370 C   0  0  1  0  0  0  0  0  0  0  0  0
  162.6920  213.4220  141.1490 C   0  0  0  0  0  2  0  0  0  0  0  0
  159.0910  214.0700  141.3450 O   0  0  0  0  0  0  0  0  0  0  0  0
  162.4930  212.4220  137.9790 O   0  0  0  0  0  0  0  0  0  0  0  0
  163.0050  212.1160  140.4130 C   0  0  1  0  0  3  0  0  0  0  0  0
  161.1460  214.4480  139.4720 C   0  0  0  0  0  2  0  0  0  0  0  0
  159.5090  210.8270  139.6790 C   0  0  0  0  0  1  0  0  0  0  0  0
  160.4660  213.4910  143.1770 C   0  0  0  0  0  0  0  0  0  0  0  0
  160.7990  212.8660  145.8970 C   0  0  0  0  0  3  0  0  0  0  0  0
  160.1350  212.2090  143.6610 C   0  0  0  0  0  0  0  0  0  0  0  0
  160.3070  211.9030  145.0140 C   0  0  0  0  0  3  0  0  0  0  0  0
  161.1210  214.1410  145.4290 C   0  0  0  0  0  3  0  0  0  0  0  0
  159.6680  211.2460  142.8260 F   0  0  0  0  0  0  0  0  0  0  0  0
  160.9530  214.4510  144.0780 C   0  0  0  0  0  3  0  0  0  0  0  0
  161.6610  208.5100  139.2190 C   0  0  0  0  0  0  0  0  0  0  0  0
  161.5630  208.4020  140.4710 O   0  0  0  0  0  0  0  0  0  0  0  0
  162.1550  207.0960  138.2470 S   0  0  0  0  0  1  0  0  0  0  0  0
  161.3800  209.7530  138.5650 N   0  0  0  0  0  2  0  0  0  0  0  0
  1 15  1  0  0  0  0
  2  9  1  0  0  0  0
  2  1  1  0  0  0  0
  3  5  1  1  0  0  0
  3  8  1  0  0  0  0
  5 13  1  0  0  0  0
  6 12  1  0  0  0  0
  7  6  2  0  0  0  0
  8 14  1  1  0  0  0
  8  4  1  0  0  0  0
 10  1  2  0  0  0  0
 11  3  1  0  0  0  0
 11  6  1  0  0  0  0
 12  4  1  6  0  0  0
 12  9  1  0  0  0  0
 13  2  1  0  0  0  0
 15 17  2  0  0  0  0
 15 21  1  0  0  0  0
 17 18  1  0  0  0  0
 18 16  2  0  0  0  0
 19 16  1  0  0  0  0
 20 17  1  0  0  0  0
 21 19  2  0  0  0  0
 22 23  2  0  0  0  0
 24 22  1  0  0  0  0
 25 22  1  0  0  0  0
 25  8  1  0  0  0  0
M  END
>  <MODEL>
3

>  <REMARK>
 VINA RESULT:      -3.9      2.392      3.458
  Name = 
  2 active torsions:
  status: ('A' for Active; 'I' for Inactive)
    1  A    between atoms: C_1  and  C_5
    2  A    between atoms: C_15  and  N_21
                            x       y       z     vdW  Elec       q    Type
                         _______ _______ _______ _____ _____    ______ ____

>  <TORSDO>
F 2

$$$$
=
 OpenBabel11052422103D

 25 27  0  0  1  0  0  0  0  0999 V2000
  160.6960  207.1870  154.4510 C   0  0  0  0  0  0  0  0  0  0  0  0
  161.5430  207.9940  155.2970 N   0  0  0  0  0  0  0  0  0  0  0  0
  160.0980  210.1990  156.9600 C   0  0  2  0  0  3  0  0  0  0  0  0
  160.5950  210.5510  154.4600 C   0  0  0  0  0  2  0  0  0  0  0  0
  160.0860  208.6730  157.1640 C   0  0  0  0  0  2  0  0  0  0  0  0
  162.3400  210.8990  156.2670 C   0  0  0  0  0  0  0  0  0  0  0  0
  163.5100  211.4510  156.5530 C   0  0  0  0  0  2  0  0  0  0  0  0
  159.5660  210.7090  155.5960 C   0  0  1  0  0  0  0  0  0  0  0  0
  162.5190  208.9280  154.7390 C   0  0  0  0  0  2  0  0  0  0  0  0
  159.7140  206.5800  154.9600 O   0  0  0  0  0  0  0  0  0  0  0  0
  161.3680  210.7750  157.2580 O   0  0  0  0  0  0  0  0  0  0  0  0
  162.0670  210.3830  154.8840 C   0  0  1  0  0  3  0  0  0  0  0  0
  161.3760  207.9680  156.7460 C   0  0  0  0  0  2  0  0  0  0  0  0
  158.3040  209.9610  155.1870 C   0  0  0  0  0  1  0  0  0  0  0  0
  160.9400  207.0460  152.9960 C   0  0  0  0  0  0  0  0  0  0  0  0
  161.4610  206.8100  150.2440 C   0  0  0  0  0  3  0  0  0  0  0  0
  161.2130  205.7860  152.4260 C   0  0  0  0  0  0  0  0  0  0  0  0
  161.4670  205.6740  151.0550 C   0  0  0  0  0  3  0  0  0  0  0  0
  161.2020  208.0640  150.8000 C   0  0  0  0  0  3  0  0  0  0  0  0
  161.2120  204.6610  153.1840 F   0  0  0  0  0  0  0  0  0  0  0  0
  160.9460  208.1800  152.1680 C   0  0  0  0  0  3  0  0  0  0  0  0
  158.1820  212.6840  156.4810 C   0  0  0  0  0  0  0  0  0  0  0  0
  157.4050  211.9360  157.1330 O   0  0  0  0  0  0  0  0  0  0  0  0
  157.9460  214.4530  156.5230 S   0  0  0  0  0  1  0  0  0  0  0  0
  159.2550  212.1330  155.7080 N   0  0  0  0  0  2  0  0  0  0  0  0
  1 10  2  0  0  0  0
  1  2  1  0  0  0  0
  2 13  1  0  0  0  0
  3  5  1  6  0  0  0
  3 11  1  0  0  0  0
  4  8  1  0  0  0  0
  6  7  2  0  0  0  0
  6 11  1  0  0  0  0
  8 14  1  6  0  0  0
  8 25  1  0  0  0  0
  8  3  1  0  0  0  0
  9 12  1  0  0  0  0
  9  2  1  0  0  0  0
 12  4  1  1  0  0  0
 12  6  1  0  0  0  0
 13  5  1  0  0  0  0
 15  1  1  0  0  0  0
 16 19  2  0  0  0  0
 16 18  1  0  0  0  0
 17 15  1  0  0  0  0
 17 20  1  0  0  0  0
 18 17  2  0  0  0  0
 19 21  1  0  0  0  0
 21 15  2  0  0  0  0
 22 24  1  0  0  0  0
 22 23  2  0  0  0  0
 25 22  1  0  0  0  0
M  END
>  <MODEL>
4

>  <REMARK>
 VINA RESULT:      -3.4     13.483     16.382
  Name = 
  2 active torsions:
  status: ('A' for Active; 'I' for Inactive)
    1  A    between atoms: C_1  and  C_5
    2  A    between atoms: C_15  and  N_21
                            x       y       z     vdW  Elec       q    Type
                         _______ _______ _______ _____ _____    ______ ____

>  <TORSDO>
F 2

$$$$
=
 OpenBabel11052422103D

 25 27  0  0  1  0  0  0  0  0999 V2000
  160.6190  209.7270  154.9590 C   0  0  0  0  0  0  0  0  0  0  0  0
  160.7500  211.0680  154.4410 N   0  0  0  0  0  0  0  0  0  0  0  0
  158.3940  213.0080  155.0750 C   0  0  2  0  0  3  0  0  0  0  0  0
  158.1860  211.2530  153.2050 C   0  0  0  0  0  2  0  0  0  0  0  0
  159.4830  212.4700  156.0220 C   0  0  0  0  0  2  0  0  0  0  0  0
  159.3880  213.4630  152.8840 C   0  0  0  0  0  0  0  0  0  0  0  0
  159.8550  214.3240  151.9920 C   0  0  0  0  0  2  0  0  0  0  0  0
  157.4940  211.9430  154.3960 C   0  0  1  0  0  0  0  0  0  0  0  0
  160.7090  211.3440  153.0070 C   0  0  0  0  0  2  0  0  0  0  0  0
  160.4200  209.5600  156.1940 O   0  0  0  0  0  0  0  0  0  0  0  0
  158.9160  213.9220  154.1130 O   0  0  0  0  0  0  0  0  0  0  0  0
  159.3880  211.9920  152.5860 C   0  0  1  0  0  3  0  0  0  0  0  0
  160.8310  212.2050  155.3520 C   0  0  0  0  0  2  0  0  0  0  0  0
  157.0850  210.8610  155.3860 C   0  0  0  0  0  1  0  0  0  0  0  0
  160.7090  208.5320  154.0870 C   0  0  0  0  0  0  0  0  0  0  0  0
  160.9440  206.2820  152.4180 C   0  0  0  0  0  3  0  0  0  0  0  0
  160.7190  207.2340  154.6360 C   0  0  0  0  0  0  0  0  0  0  0  0
  160.8310  206.1180  153.8000 C   0  0  0  0  0  3  0  0  0  0  0  0
  160.9450  207.5640  151.8660 C   0  0  0  0  0  3  0  0  0  0  0  0
  160.5960  207.0400  155.9730 F   0  0  0  0  0  0  0  0  0  0  0  0
  160.8310  208.6820  152.6960 C   0  0  0  0  0  3  0  0  0  0  0  0
  155.5860  213.6570  154.5390 C   0  0  0  0  0  0  0  0  0  0  0  0
  155.9800  214.1060  155.6480 O   0  0  0  0  0  0  0  0  0  0  0  0
  154.1330  214.3540  153.7710 S   0  0  0  0  0  1  0  0  0  0  0  0
  156.2900  212.5950  153.8840 N   0  0  0  0  0  2  0  0  0  0  0  0
  1 10  2  0  0  0  0
  2  1  1  0  0  0  0
  2 13  1  0  0  0  0
  3  5  1  6  0  0  0
  4  8  1  0  0  0  0
  6 11  1  0  0  0  0
  7  6  2  0  0  0  0
  8  3  1  0  0  0  0
  8 14  1  1  0  0  0
  9  2  1  0  0  0  0
 11  3  1  0  0  0  0
 12  6  1  0  0  0  0
 12  9  1  1  0  0  0
 12  4  1  0  0  0  0
 13  5  1  0  0  0  0
 15 17  1  0  0  0  0
 15  1  1  0  0  0  0
 16 18  1  0  0  0  0
 17 20  1  0  0  0  0
 18 17  2  0  0  0  0
 19 16  2  0  0  0  0
 19 21  1  0  0  0  0
 21 15  2  0  0  0  0
 22 23  2  0  0  0  0
 24 22  1  0  0  0  0
 25  8  1  0  0  0  0
 25 22  1  0  0  0  0
M  END
>  <MODEL>
5

>  <REMARK>
 VINA RESULT:      -3.3     13.657     15.458
  Name = 
  2 active torsions:
  status: ('A' for Active; 'I' for Inactive)
    1  A    between atoms: C_1  and  C_5
    2  A    between atoms: C_15  and  N_21
                            x       y       z     vdW  Elec       q    Type
                         _______ _______ _______ _____ _____    ______ ____

>  <TORSDO>
F 2

$$$$
=
 OpenBabel11052422103D

 25 27  0  0  1  0  0  0  0  0999 V2000
  160.9730  210.9040  154.2860 C   0  0  0  0  0  0  0  0  0  0  0  0
  160.0190  211.9050  153.8710 N   0  0  0  0  0  0  0  0  0  0  0  0
  158.1350  212.9970  156.1010 C   0  0  2  0  0  3  0  0  0  0  0  0
  157.6910  210.7110  155.0090 C   0  0  0  0  0  2  0  0  0  0  0  0
  159.6360  213.2700  155.8850 C   0  0  0  0  0  2  0  0  0  0  0  0
  157.0160  212.9020  153.9250 C   0  0  0  0  0  0  0  0  0  0  0  0
  156.2500  213.4650  153.0030 C   0  0  0  0  0  2  0  0  0  0  0  0
  157.7360  211.5150  156.3210 C   0  0  1  0  0  0  0  0  0  0  0  0
  158.9140  211.5840  152.9700 C   0  0  0  0  0  2  0  0  0  0  0  0
  161.7580  211.1590  155.2410 O   0  0  0  0  0  0  0  0  0  0  0  0
  157.3260  213.5980  155.0930 O   0  0  0  0  0  0  0  0  0  0  0  0
  157.5730  211.5250  153.7060 C   0  0  1  0  0  3  0  0  0  0  0  0
  160.0790  213.2540  154.4230 C   0  0  0  0  0  2  0  0  0  0  0  0
  158.7130  210.8200  157.2600 C   0  0  0  0  0  1  0  0  0  0  0  0
  161.0620  209.5780  153.6280 C   0  0  0  0  0  0  0  0  0  0  0  0
  161.1660  207.0590  152.3870 C   0  0  0  0  0  3  0  0  0  0  0  0
  161.3920  209.4680  152.2620 C   0  0  0  0  0  0  0  0  0  0  0  0
  161.4460  208.2120  151.6510 C   0  0  0  0  0  3  0  0  0  0  0  0
  160.8300  207.1580  153.7380 C   0  0  0  0  0  3  0  0  0  0  0  0
  161.6830  210.5680  151.5230 F   0  0  0  0  0  0  0  0  0  0  0  0
  160.7760  208.4110  154.3530 C   0  0  0  0  0  3  0  0  0  0  0  0
  155.3090  210.6780  156.4150 C   0  0  0  0  0  0  0  0  0  0  0  0
  155.4470  209.9540  155.3930 O   0  0  0  0  0  0  0  0  0  0  0  0
  153.7370  210.7210  157.2610 S   0  0  0  0  0  1  0  0  0  0  0  0
  156.3980  211.4660  156.9100 N   0  0  0  0  0  2  0  0  0  0  0  0
  1 10  2  0  0  0  0
  2  1  1  0  0  0  0
  2 13  1  0  0  0  0
  3  5  1  6  0  0  0
  3  8  1  0  0  0  0
  4  8  1  0  0  0  0
  6 11  1  0  0  0  0
  7  6  2  0  0  0  0
  8 25  1  0  0  0  0
  8 14  1  1  0  0  0
  9  2  1  0  0  0  0
 11  3  1  0  0  0  0
 12  9  1  1  0  0  0
 12  6  1  0  0  0  0
 12  4  1  0  0  0  0
 13  5  1  0  0  0  0
 15  1  1  0  0  0  0
 15 21  1  0  0  0  0
 16 19  1  0  0  0  0
 17 15  2  0  0  0  0
 18 17  1  0  0  0  0
 18 16  2  0  0  0  0
 19 21  2  0  0  0  0
 20 17  1  0  0  0  0
 22 25  1  0  0  0  0
 22 24  1  0  0  0  0
 23 22  2  0  0  0  0
M  END
>  <MODEL>
6

>  <REMARK>
 VINA RESULT:      -3.0     13.692     15.838
  Name = 
  2 active torsions:
  status: ('A' for Active; 'I' for Inactive)
    1  A    between atoms: C_1  and  C_5
    2  A    between atoms: C_15  and  N_21
                            x       y       z     vdW  Elec       q    Type
                         _______ _______ _______ _____ _____    ______ ____

>  <TORSDO>
F 2

$$$$
=
 OpenBabel11052422103D

 25 27  0  0  1  0  0  0  0  0999 V2000
  161.5940  208.6910  153.7430 C   0  0  0  0  0  0  0  0  0  0  0  0
  161.5110  210.1050  153.4650 N   0  0  0  0  0  0  0  0  0  0  0  0
  159.6630  211.7560  155.3550 C   0  0  2  0  0  3  0  0  0  0  0  0
  158.6660  210.3270  153.4620 C   0  0  0  0  0  2  0  0  0  0  0  0
  161.0430  211.1400  155.6510 C   0  0  0  0  0  2  0  0  0  0  0  0
  159.6480  212.6320  153.0680 C   0  0  0  0  0  0  0  0  0  0  0  0
  159.7060  213.6570  152.2310 C   0  0  0  0  0  2  0  0  0  0  0  0
  158.5490  210.7630  154.9350 C   0  0  1  0  0  0  0  0  0  0  0  0
  160.8730  210.6120  152.2510 C   0  0  0  0  0  2  0  0  0  0  0  0
  161.9310  208.3080  154.8970 O   0  0  0  0  0  0  0  0  0  0  0  0
  159.7420  212.8490  154.4420 O   0  0  0  0  0  0  0  0  0  0  0  0
  159.5040  211.2340  152.5410 C   0  0  1  0  0  3  0  0  0  0  0  0
  161.9800  211.0780  154.4450 C   0  0  0  0  0  2  0  0  0  0  0  0
  158.5820  209.5080  155.7960 C   0  0  0  0  0  1  0  0  0  0  0  0
  161.2950  207.6650  152.7150 C   0  0  0  0  0  0  0  0  0  0  0  0
  160.7900  205.7270  150.7430 C   0  0  0  0  0  3  0  0  0  0  0  0
  161.0880  206.3180  153.0750 C   0  0  0  0  0  0  0  0  0  0  0  0
  160.8330  205.3590  152.0900 C   0  0  0  0  0  3  0  0  0  0  0  0
  161.0030  207.0570  150.3760 C   0  0  0  0  0  3  0  0  0  0  0  0
  161.1090  205.9310  154.3750 F   0  0  0  0  0  0  0  0  0  0  0  0
  161.2560  208.0190  151.3570 C   0  0  0  0  0  3  0  0  0  0  0  0
  156.8240  212.1320  156.2590 C   0  0  0  0  0  0  0  0  0  0  0  0
  157.5810  212.2470  157.2590 O   0  0  0  0  0  0  0  0  0  0  0  0
  155.2030  212.8790  156.2890 S   0  0  0  0  0  1  0  0  0  0  0  0
  157.2480  211.4130  155.0950 N   0  0  0  0  0  2  0  0  0  0  0  0
  1 10  2  0  0  0  0
  2  1  1  0  0  0  0
  2 13  1  0  0  0  0
  3  5  1  6  0  0  0
  4  8  1  0  0  0  0
  6 11  1  0  0  0  0
  7  6  2  0  0  0  0
  8 25  1  0  0  0  0
  8  3  1  0  0  0  0
  8 14  1  1  0  0  0
  9  2  1  0  0  0  0
 11  3  1  0  0  0  0
 12  9  1  1  0  0  0
 12  6  1  0  0  0  0
 12  4  1  0  0  0  0
 13  5  1  0  0  0  0
 15 17  1  0  0  0  0
 15  1  1  0  0  0  0
 16 18  1  0  0  0  0
 17 20  1  0  0  0  0
 18 17  2  0  0  0  0
 19 16  2  0  0  0  0
 19 21  1  0  0  0  0
 21 15  2  0  0  0  0
 22 24  1  0  0  0  0
 22 23  2  0  0  0  0
 25 22  1  0  0  0  0
M  END
>  <MODEL>
7

>  <REMARK>
 VINA RESULT:      -2.9     13.132     15.341
  Name = 
  2 active torsions:
  status: ('A' for Active; 'I' for Inactive)
    1  A    between atoms: C_1  and  C_5
    2  A    between atoms: C_15  and  N_21
                            x       y       z     vdW  Elec       q    Type
                         _______ _______ _______ _____ _____    ______ ____

>  <TORSDO>
F 2

$$$$
=
 OpenBabel11052422103D

 25 27  0  0  1  0  0  0  0  0999 V2000
  160.7720  207.3380  154.4390 C   0  0  0  0  0  0  0  0  0  0  0  0
  161.4570  208.1960  155.3770 N   0  0  0  0  0  0  0  0  0  0  0  0
  159.6930  210.3340  156.8020 C   0  0  2  0  0  3  0  0  0  0  0  0
  160.4960  210.6920  154.3840 C   0  0  0  0  0  2  0  0  0  0  0  0
  159.7330  208.8110  157.0260 C   0  0  0  0  0  2  0  0  0  0  0  0
  161.9670  211.1470  156.3990 C   0  0  0  0  0  0  0  0  0  0  0  0
  163.0590  211.7630  156.8280 C   0  0  0  0  0  2  0  0  0  0  0  0
  159.3200  210.8040  155.3720 C   0  0  1  0  0  0  0  0  0  0  0  0
  162.4480  209.1760  154.9380 C   0  0  0  0  0  2  0  0  0  0  0  0
  159.7640  206.6840  154.8240 O   0  0  0  0  0  0  0  0  0  0  0  0
  160.8800  210.9800  157.2560 O   0  0  0  0  0  0  0  0  0  0  0  0
  161.9060  210.6060  155.0000 C   0  0  1  0  0  3  0  0  0  0  0  0
  161.1010  208.1730  156.7920 C   0  0  0  0  0  2  0  0  0  0  0  0
  158.1630  209.9860  154.8120 C   0  0  0  0  0  1  0  0  0  0  0  0
  161.2130  207.1990  153.0310 C   0  0  0  0  0  0  0  0  0  0  0  0
  162.0100  206.8800  150.3540 C   0  0  0  0  0  3  0  0  0  0  0  0
  160.8250  208.1380  152.0530 C   0  0  0  0  0  0  0  0  0  0  0  0
  161.2290  207.9760  150.7240 C   0  0  0  0  0  3  0  0  0  0  0  0
  162.3920  205.9400  151.3130 C   0  0  0  0  0  3  0  0  0  0  0  0
  160.0780  209.2210  152.3830 F   0  0  0  0  0  0  0  0  0  0  0  0
  161.9930  206.0980  152.6420 C   0  0  0  0  0  3  0  0  0  0  0  0
  157.6620  212.6950  155.8970 C   0  0  0  0  0  0  0  0  0  0  0  0
  156.7780  211.8980  156.3120 O   0  0  0  0  0  0  0  0  0  0  0  0
  157.3390  214.4510  155.9020 S   0  0  0  0  0  1  0  0  0  0  0  0
  158.9230  212.2110  155.4220 N   0  0  0  0  0  2  0  0  0  0  0  0
  1 10  2  0  0  0  0
  1  2  1  0  0  0  0
  2 13  1  0  0  0  0
  3  5  1  6  0  0  0
  3 11  1  0  0  0  0
  4  8  1  0  0  0  0
  6  7  2  0  0  0  0
  6 11  1  0  0  0  0
  8 14  1  6  0  0  0
  8 25  1  0  0  0  0
  8  3  1  0  0  0  0
  9 12  1  0  0  0  0
  9  2  1  0  0  0  0
 12  4  1  1  0  0  0
 12  6  1  0  0  0  0
 13  5  1  0  0  0  0
 15  1  1  0  0  0  0
 16 18  2  0  0  0  0
 16 19  1  0  0  0  0
 17 20  1  0  0  0  0
 17 15  2  0  0  0  0
 18 17  1  0  0  0  0
 19 21  2  0  0  0  0
 21 15  1  0  0  0  0
 22 24  1  0  0  0  0
 22 23  2  0  0  0  0
 25 22  1  0  0  0  0
M  END
>  <MODEL>
8

>  <REMARK>
 VINA RESULT:      -2.7     13.333     16.151
  Name = 
  2 active torsions:
  status: ('A' for Active; 'I' for Inactive)
    1  A    between atoms: C_1  and  C_5
    2  A    between atoms: C_15  and  N_21
                            x       y       z     vdW  Elec       q    Type
                         _______ _______ _______ _____ _____    ______ ____

>  <TORSDO>
F 2

$$$$
