=
 OpenBabel11062410033D

 43 48  0  0  1  0  0  0  0  0999 V2000
  160.8790  207.0680  154.9070 C   0  0  0  0  0  0  0  0  0  0  0  0
  162.0370  206.5670  149.9610 N   0  0  1  0  0  0  0  0  0  0  0  0
  161.4590  209.1930  148.7390 C   0  0  2  0  0  3  0  0  0  0  0  0
  161.4780  206.1530  152.6140 C   0  0  1  0  0  3  0  0  0  0  0  0
  161.1520  208.3100  154.4750 C   0  0  0  0  0  3  0  0  0  0  0  0
  160.4800  206.8960  156.1920 F   0  0  0  0  0  0  0  0  0  0  0  0
  161.0890  207.5430  152.0940 C   0  0  1  0  0  3  0  0  0  0  0  0
  160.8340  205.8810  153.9730 C   0  0  0  0  0  2  0  0  0  0  0  0
  161.6000  208.5960  153.0680 C   0  0  0  0  0  2  0  0  0  0  0  0
  160.7710  208.6540  149.9230 N   0  0  0  0  0  2  0  0  0  0  0  0
  161.6800  207.8070  150.7000 C   0  0  2  0  0  3  0  0  0  0  0  0
  161.0200  205.5390  150.1860 C   0  0  0  0  0  2  0  0  0  0  0  0
  162.1280  206.7840  148.5070 C   0  0  1  0  0  3  0  0  0  0  0  0
  162.4850  208.2220  148.1430 C   0  0  0  0  0  2  0  0  0  0  0  0
  161.0790  205.0460  151.6340 C   0  0  0  0  0  2  0  0  0  0  0  0
  162.0870  210.5270  149.0130 C   0  0  0  0  0  0  0  0  0  0  0  0
  162.0690  211.5270  147.9920 N   0  0  0  0  0  2  0  0  0  0  0  0
  162.6260  210.7660  150.1270 O   0  0  0  0  0  0  0  0  0  0  0  0
  162.5570  213.6600  146.9030 C   0  0  0  0  0  2  0  0  0  0  0  0
  161.5500  213.9610  147.9950 C   0  0  2  0  0  3  0  0  0  0  0  0
  162.6080  212.8690  148.1950 C   0  0  1  0  0  3  0  0  0  0  0  0
  160.1710  213.4710  147.5480 C   0  0  2  0  0  3  0  0  0  0  0  0
  159.9680  213.7420  146.0640 C   0  0  0  0  0  1  0  0  0  0  0  0
  159.0410  214.0550  148.4150 C   0  0  1  0  0  3  0  0  0  0  0  0
  157.7630  213.2220  148.3860 C   0  0  0  0  0  2  0  0  0  0  0  0
  156.5420  214.1160  148.4770 C   0  0  0  0  0  1  0  0  0  0  0  0
  159.5060  214.2340  149.8530 C   0  0  0  0  0  2  0  0  0  0  0  0
  159.4680  213.0020  150.5220 O   0  0  0  0  0  0  0  0  0  0  0  0
  158.6280  214.0790  152.6090 C   0  0  0  0  0  2  0  0  0  0  0  0
  160.0730  211.9370  152.6830 C   0  0  0  0  0  2  0  0  0  0  0  0
  157.9510  212.1060  154.0070 C   0  0  0  0  0  2  0  0  0  0  0  0
  158.8470  211.1790  153.1920 C   0  0  0  0  0  2  0  0  0  0  0  0
  157.4530  213.2500  153.1290 C   0  0  0  0  0  2  0  0  0  0  0  0
  159.6760  213.2000  151.9050 C   0  0  0  0  0  3  0  0  0  0  0  0
  163.0530  205.7570  147.8280 C   0  0  0  0  0  2  0  0  0  0  0  0
  160.9670  204.3970  144.8530 C   0  0  0  0  0  2  0  0  0  0  0  0
  160.6530  203.0220  145.4060 C   0  0  0  0  0  0  0  0  0  0  0  0
  161.7660  203.5690  147.5800 C   0  0  0  0  0  2  0  0  0  0  0  0
  161.3840  205.4020  145.9240 C   0  0  0  0  0  2  0  0  0  0  0  0
  162.3990  204.7580  146.8620 C   0  0  1  0  0  3  0  0  0  0  0  0
  161.0670  202.6470  146.6220 C   0  0  0  0  0  3  0  0  0  0  0  0
  160.0490  200.6870  144.8770 C   0  0  0  0  0  1  0  0  0  0  0  0
  159.9770  202.0840  144.6240 O   0  0  0  0  0  0  0  0  0  0  0  0
  1  6  1  0  0  0  0
  2 12  1  6  0  0  0
  2 11  1  0  0  0  0
  3 16  1  1  0  0  0
  3 10  1  0  0  0  0
  4 15  1  6  0  0  0
  4  8  1  0  0  0  0
  5  1  2  0  0  0  0
  7  4  1  0  0  0  0
  7  9  1  1  0  0  0
  8  1  1  0  0  0  0
  9  5  1  0  0  0  0
 11 10  1  6  0  0  0
 11  7  1  0  0  0  0
 12 15  1  0  0  0  0
 13 35  1  1  0  0  0
 13  2  1  0  0  0  0
 14 13  1  0  0  0  0
 14  3  1  0  0  0  0
 16 18  2  0  0  0  0
 17 16  1  0  0  0  0
 19 20  1  0  0  0  0
 19 21  1  0  0  0  0
 20 22  1  6  0  0  0
 20 21  1  0  0  0  0
 21 17  1  6  0  0  0
 22 23  1  6  0  0  0
 22 24  1  0  0  0  0
 24 25  1  1  0  0  0
 24 27  1  0  0  0  0
 25 26  1  0  0  0  0
 27 28  1  0  0  0  0
 28 34  1  0  0  0  0
 29 33  1  0  0  0  0
 30 32  1  0  0  0  0
 32 31  1  0  0  0  0
 33 31  1  0  0  0  0
 34 29  1  0  0  0  0
 34 30  1  0  0  0  0
 36 37  1  0  0  0  0
 36 39  1  0  0  0  0
 37 41  2  0  0  0  0
 39 40  1  0  0  0  0
 40 38  1  0  0  0  0
 40 35  1  1  0  0  0
 41 38  1  0  0  0  0
 43 42  1  0  0  0  0
 43 37  1  0  0  0  0
M  END
>  <MODEL>
1

>  <REMARK>
 VINA RESULT:      -7.0      0.000      0.000
  Name = 
  11 active torsions:
  status: ('A' for Active; 'I' for Inactive)
    1  A    between atoms: C_1  and  C_34
    2  A    between atoms: C_1  and  C_35
    3  A    between atoms: C_2  and  C_13
    4  A    between atoms: C_4  and  C_12
    5  A    between atoms: C_4  and  C_22
    6  A    between atoms: N_6  and  C_17
    7  A    between atoms: C_10  and  C_22
    8  A    between atoms: C_14  and  C_22
    9  A    between atoms: C_14  and  O_41
   10  A    between atoms: C_19  and  O_37
   11  A    between atoms: C_40  and  O_41
                            x       y       z     vdW  Elec       q    Type
                         _______ _______ _______ _____ _____    ______ ____

>  <TORSDO>
F 11

$$$$
=
 OpenBabel11062410033D

 43 48  0  0  1  0  0  0  0  0999 V2000
  161.1640  202.9060  149.1700 C   0  0  0  0  0  0  0  0  0  0  0  0
  161.9810  207.9440  149.2680 N   0  0  1  0  0  0  0  0  0  0  0  0
  160.7150  208.9070  151.7560 C   0  0  2  0  0  3  0  0  0  0  0  0
  161.7590  205.3020  148.5670 C   0  0  1  0  0  3  0  0  0  0  0  0
  161.1070  203.2540  150.4660 C   0  0  0  0  0  3  0  0  0  0  0  0
  160.9250  201.6160  148.8290 F   0  0  0  0  0  0  0  0  0  0  0  0
  161.0200  205.6790  149.8570 C   0  0  1  0  0  3  0  0  0  0  0  0
  161.3120  203.9280  148.0670 C   0  0  0  0  0  2  0  0  0  0  0  0
  161.3570  204.6600  150.9380 C   0  0  0  0  0  2  0  0  0  0  0  0
  160.2720  207.7260  150.9980 N   0  0  0  0  0  2  0  0  0  0  0  0
  161.4140  207.0840  150.3400 C   0  0  2  0  0  3  0  0  0  0  0  0
  161.2490  207.7340  148.0180 C   0  0  0  0  0  2  0  0  0  0  0  0
  161.8970  209.3780  149.5910 C   0  0  1  0  0  3  0  0  0  0  0  0
  161.8820  209.6480  151.0930 C   0  0  0  0  0  2  0  0  0  0  0  0
  161.5420  206.3390  147.4620 C   0  0  0  0  0  2  0  0  0  0  0  0
  161.0420  208.5700  153.1800 C   0  0  0  0  0  0  0  0  0  0  0  0
  160.8680  209.5660  154.1900 N   0  0  0  0  0  2  0  0  0  0  0  0
  161.4670  207.4230  153.4860 O   0  0  0  0  0  0  0  0  0  0  0  0
  162.1490  210.2620  156.1510 C   0  0  0  0  0  2  0  0  0  0  0  0
  160.6890  210.4780  156.4990 C   0  0  2  0  0  3  0  0  0  0  0  0
  161.1080  209.3040  155.6050 C   0  0  1  0  0  3  0  0  0  0  0  0
  160.1820  211.7190  155.7620 C   0  0  2  0  0  3  0  0  0  0  0  0
  160.4490  212.9700  156.5870 C   0  0  0  0  0  1  0  0  0  0  0  0
  158.7030  211.5850  155.3550 C   0  0  1  0  0  3  0  0  0  0  0  0
  157.7640  211.3830  156.5410 C   0  0  0  0  0  2  0  0  0  0  0  0
  156.3330  211.2270  156.0660 C   0  0  0  0  0  1  0  0  0  0  0  0
  158.2580  212.7950  154.5470 C   0  0  0  0  0  2  0  0  0  0  0  0
  158.4240  212.5400  153.1770 O   0  0  0  0  0  0  0  0  0  0  0  0
  159.6970  214.1480  151.7570 C   0  0  0  0  0  2  0  0  0  0  0  0
  157.1250  213.9480  151.5960 C   0  0  0  0  0  2  0  0  0  0  0  0
  158.5490  213.9390  149.5340 C   0  0  0  0  0  2  0  0  0  0  0  0
  157.3010  213.3640  150.1940 C   0  0  0  0  0  2  0  0  0  0  0  0
  159.7850  213.5650  150.3460 C   0  0  0  0  0  2  0  0  0  0  0  0
  158.3830  213.7530  152.4540 C   0  0  0  0  0  3  0  0  0  0  0  0
  162.9710  210.1990  148.8550 C   0  0  0  0  0  2  0  0  0  0  0  0
  162.6720  213.6040  147.0180 C   0  0  0  0  0  2  0  0  0  0  0  0
  161.2430  213.4760  146.5340 C   0  0  0  0  0  0  0  0  0  0  0  0
  160.9580  211.3020  147.7410 C   0  0  0  0  0  2  0  0  0  0  0  0
  163.0100  212.6640  148.1720 C   0  0  0  0  0  2  0  0  0  0  0  0
  162.4790  211.2670  147.8660 C   0  0  1  0  0  3  0  0  0  0  0  0
  160.4990  212.4030  146.8290 C   0  0  0  0  0  3  0  0  0  0  0  0
  160.5740  214.2860  144.3000 C   0  0  0  0  0  1  0  0  0  0  0  0
  160.6860  214.4530  145.7070 O   0  0  0  0  0  0  0  0  0  0  0  0
  1  5  2  0  0  0  0
  2 12  1  6  0  0  0
  2 13  1  0  0  0  0
  2 11  1  0  0  0  0
  3 16  1  1  0  0  0
  4 15  1  6  0  0  0
  4  7  1  0  0  0  0
  5  9  1  0  0  0  0
  6  1  1  0  0  0  0
  7 11  1  0  0  0  0
  7  9  1  1  0  0  0
  8  4  1  0  0  0  0
  8  1  1  0  0  0  0
 10  3  1  0  0  0  0
 11 10  1  6  0  0  0
 13 35  1  6  0  0  0
 13 14  1  0  0  0  0
 14  3  1  0  0  0  0
 15 12  1  0  0  0  0
 16 18  2  0  0  0  0
 16 17  1  0  0  0  0
 19 20  1  0  0  0  0
 20 22  1  6  0  0  0
 21 17  1  6  0  0  0
 21 19  1  0  0  0  0
 21 20  1  0  0  0  0
 22 23  1  1  0  0  0
 24 27  1  1  0  0  0
 24 22  1  0  0  0  0
 24 25  1  0  0  0  0
 26 25  1  0  0  0  0
 28 27  1  0  0  0  0
 29 34  1  0  0  0  0
 30 34  1  0  0  0  0
 31 32  1  0  0  0  0
 31 33  1  0  0  0  0
 32 30  1  0  0  0  0
 33 29  1  0  0  0  0
 34 28  1  0  0  0  0
 36 39  1  0  0  0  0
 37 41  2  0  0  0  0
 37 36  1  0  0  0  0
 38 40  1  0  0  0  0
 40 39  1  0  0  0  0
 40 35  1  1  0  0  0
 41 38  1  0  0  0  0
 42 43  1  0  0  0  0
 43 37  1  0  0  0  0
M  END
>  <MODEL>
2

>  <REMARK>
 VINA RESULT:      -5.8      2.878      6.761
  Name = 
  11 active torsions:
  status: ('A' for Active; 'I' for Inactive)
    1  A    between atoms: C_1  and  C_34
    2  A    between atoms: C_1  and  C_35
    3  A    between atoms: C_2  and  C_13
    4  A    between atoms: C_4  and  C_12
    5  A    between atoms: C_4  and  C_22
    6  A    between atoms: N_6  and  C_17
    7  A    between atoms: C_10  and  C_22
    8  A    between atoms: C_14  and  C_22
    9  A    between atoms: C_14  and  O_41
   10  A    between atoms: C_19  and  O_37
   11  A    between atoms: C_40  and  O_41
                            x       y       z     vdW  Elec       q    Type
                         _______ _______ _______ _____ _____    ______ ____

>  <TORSDO>
F 11

$$$$
=
 OpenBabel11062410033D

 43 48  0  0  1  0  0  0  0  0999 V2000
  160.9310  202.7190  148.9320 C   0  0  0  0  0  0  0  0  0  0  0  0
  161.7960  207.7050  149.5990 N   0  0  1  0  0  0  0  0  0  0  0  0
  160.5510  208.3890  152.1880 C   0  0  2  0  0  3  0  0  0  0  0  0
  161.5460  205.1620  148.6030 C   0  0  1  0  0  3  0  0  0  0  0  0
  160.8830  202.9170  150.2600 C   0  0  0  0  0  3  0  0  0  0  0  0
  160.6790  201.4780  148.4470 F   0  0  0  0  0  0  0  0  0  0  0  0
  160.8160  205.3970  149.9320 C   0  0  1  0  0  3  0  0  0  0  0  0
  161.0840  203.8590  147.9530 C   0  0  0  0  0  2  0  0  0  0  0  0
  161.1490  204.2580  150.8870 C   0  0  0  0  0  2  0  0  0  0  0  0
  160.0940  207.3070  151.3030 N   0  0  0  0  0  2  0  0  0  0  0  0
  161.2260  206.7340  150.5700 C   0  0  2  0  0  3  0  0  0  0  0  0
  161.0570  207.6460  148.3380 C   0  0  0  0  0  2  0  0  0  0  0  0
  161.7270  209.0940  150.0850 C   0  0  1  0  0  3  0  0  0  0  0  0
  161.7220  209.1900  151.6070 C   0  0  0  0  0  2  0  0  0  0  0  0
  161.3340  206.3200  147.6250 C   0  0  0  0  0  2  0  0  0  0  0  0
  160.8810  207.8890  153.5630 C   0  0  0  0  0  0  0  0  0  0  0  0
  160.6850  208.7530  154.6850 N   0  0  0  0  0  2  0  0  0  0  0  0
  161.3270  206.7220  153.7310 O   0  0  0  0  0  0  0  0  0  0  0  0
  162.3320  208.7020  156.4900 C   0  0  0  0  0  2  0  0  0  0  0  0
  161.1570  209.5080  157.0090 C   0  0  2  0  0  3  0  0  0  0  0  0
  160.9270  208.3260  156.0590 C   0  0  1  0  0  3  0  0  0  0  0  0
  161.1720  210.8890  156.3500 C   0  0  2  0  0  3  0  0  0  0  0  0
  162.5910  211.4400  156.3100 C   0  0  0  0  0  1  0  0  0  0  0  0
  160.1820  211.8600  157.0190 C   0  0  1  0  0  3  0  0  0  0  0  0
  160.7600  213.2530  157.2500 C   0  0  0  0  0  2  0  0  0  0  0  0
  159.7950  214.3170  156.7660 C   0  0  0  0  0  1  0  0  0  0  0  0
  158.9010  211.9640  156.2030 C   0  0  0  0  0  2  0  0  0  0  0  0
  158.8950  210.9840  155.1980 O   0  0  0  0  0  0  0  0  0  0  0  0
  157.4960  212.8210  154.2540 C   0  0  0  0  0  2  0  0  0  0  0  0
  158.8880  211.2640  152.7310 C   0  0  0  0  0  2  0  0  0  0  0  0
  158.9690  213.7530  152.4470 C   0  0  0  0  0  2  0  0  0  0  0  0
  159.7770  212.4610  152.3920 C   0  0  0  0  0  2  0  0  0  0  0  0
  158.4280  213.9670  153.8560 C   0  0  0  0  0  2  0  0  0  0  0  0
  158.1740  211.4510  154.0770 C   0  0  0  0  0  3  0  0  0  0  0  0
  162.8060  209.9840  149.4410 C   0  0  0  0  0  2  0  0  0  0  0  0
  162.9370  212.8720  146.8530 C   0  0  0  0  0  2  0  0  0  0  0  0
  161.5390  213.4190  147.0540 C   0  0  0  0  0  0  0  0  0  0  0  0
  161.1060  211.8140  148.9250 C   0  0  0  0  0  2  0  0  0  0  0  0
  163.4270  212.0170  148.0180 C   0  0  0  0  0  2  0  0  0  0  0  0
  162.3300  211.0440  148.4360 C   0  0  1  0  0  3  0  0  0  0  0  0
  160.7060  212.8950  147.9610 C   0  0  0  0  0  3  0  0  0  0  0  0
  159.9960  214.2610  145.3190 C   0  0  0  0  0  1  0  0  0  0  0  0
  161.0600  214.4500  146.2420 O   0  0  0  0  0  0  0  0  0  0  0  0
  1  5  2  0  0  0  0
  2 12  1  6  0  0  0
  2 13  1  0  0  0  0
  2 11  1  0  0  0  0
  3 16  1  1  0  0  0
  4 15  1  6  0  0  0
  4  7  1  0  0  0  0
  5  9  1  0  0  0  0
  6  1  1  0  0  0  0
  7 11  1  0  0  0  0
  7  9  1  1  0  0  0
  8  4  1  0  0  0  0
  8  1  1  0  0  0  0
 10  3  1  0  0  0  0
 11 10  1  6  0  0  0
 13 35  1  1  0  0  0
 13 14  1  0  0  0  0
 14  3  1  0  0  0  0
 15 12  1  0  0  0  0
 16 18  2  0  0  0  0
 16 17  1  0  0  0  0
 19 20  1  0  0  0  0
 20 22  1  6  0  0  0
 21 17  1  6  0  0  0
 21 19  1  0  0  0  0
 21 20  1  0  0  0  0
 22 23  1  1  0  0  0
 22 24  1  0  0  0  0
 24 27  1  6  0  0  0
 24 25  1  0  0  0  0
 26 25  1  0  0  0  0
 28 27  1  0  0  0  0
 30 34  1  0  0  0  0
 31 33  1  0  0  0  0
 32 31  1  0  0  0  0
 32 30  1  0  0  0  0
 33 29  1  0  0  0  0
 34 29  1  0  0  0  0
 34 28  1  0  0  0  0
 36 37  1  0  0  0  0
 36 39  1  0  0  0  0
 37 41  2  0  0  0  0
 39 40  1  0  0  0  0
 40 38  1  0  0  0  0
 40 35  1  1  0  0  0
 41 38  1  0  0  0  0
 42 43  1  0  0  0  0
 43 37  1  0  0  0  0
M  END
>  <MODEL>
3

>  <REMARK>
 VINA RESULT:      -5.5      3.028      7.057
  Name = 
  11 active torsions:
  status: ('A' for Active; 'I' for Inactive)
    1  A    between atoms: C_1  and  C_34
    2  A    between atoms: C_1  and  C_35
    3  A    between atoms: C_2  and  C_13
    4  A    between atoms: C_4  and  C_12
    5  A    between atoms: C_4  and  C_22
    6  A    between atoms: N_6  and  C_17
    7  A    between atoms: C_10  and  C_22
    8  A    between atoms: C_14  and  C_22
    9  A    between atoms: C_14  and  O_41
   10  A    between atoms: C_19  and  O_37
   11  A    between atoms: C_40  and  O_41
                            x       y       z     vdW  Elec       q    Type
                         _______ _______ _______ _____ _____    ______ ____

>  <TORSDO>
F 11

$$$$
=
 OpenBabel11062410033D

 43 48  0  0  1  0  0  0  0  0999 V2000
  161.1240  201.9220  148.1470 C   0  0  0  0  0  0  0  0  0  0  0  0
  161.8380  206.9440  148.7160 N   0  0  1  0  0  0  0  0  0  0  0  0
  160.4930  207.6570  151.2460 C   0  0  2  0  0  3  0  0  0  0  0  0
  161.6860  204.3720  147.7760 C   0  0  1  0  0  3  0  0  0  0  0  0
  161.0280  202.1500  149.4660 C   0  0  0  0  0  3  0  0  0  0  0  0
  160.9190  200.6630  147.6850 F   0  0  0  0  0  0  0  0  0  0  0  0
  160.9080  204.6190  149.0750 C   0  0  1  0  0  3  0  0  0  0  0  0
  161.2790  203.0410  147.1440 C   0  0  0  0  0  2  0  0  0  0  0  0
  161.2390  203.5130  150.0690 C   0  0  0  0  0  2  0  0  0  0  0  0
  160.0920  206.5410  150.3740 N   0  0  0  0  0  2  0  0  0  0  0  0
  161.2620  205.9810  149.6920 C   0  0  2  0  0  3  0  0  0  0  0  0
  161.1420  206.8340  147.4340 C   0  0  0  0  0  2  0  0  0  0  0  0
  161.7170  208.3410  149.1640 C   0  0  1  0  0  3  0  0  0  0  0  0
  161.6610  208.4740  150.6830 C   0  0  0  0  0  2  0  0  0  0  0  0
  161.4760  205.5000  146.7630 C   0  0  0  0  0  2  0  0  0  0  0  0
  160.7910  207.1980  152.6430 C   0  0  0  0  0  0  0  0  0  0  0  0
  160.5810  208.1000  153.7320 N   0  0  0  0  0  2  0  0  0  0  0  0
  161.2240  206.0340  152.8570 O   0  0  0  0  0  0  0  0  0  0  0  0
  162.0330  208.3920  155.6760 C   0  0  0  0  0  2  0  0  0  0  0  0
  160.6660  208.9040  156.0860 C   0  0  2  0  0  3  0  0  0  0  0  0
  160.7920  207.7160  155.1240 C   0  0  1  0  0  3  0  0  0  0  0  0
  160.4270  210.2640  155.4260 C   0  0  2  0  0  3  0  0  0  0  0  0
  161.2210  211.3470  156.1440 C   0  0  0  0  0  1  0  0  0  0  0  0
  158.9280  210.6010  155.3230 C   0  0  1  0  0  3  0  0  0  0  0  0
  158.2510  210.7720  156.6800 C   0  0  0  0  0  2  0  0  0  0  0  0
  157.4850  212.0790  156.7310 C   0  0  0  0  0  1  0  0  0  0  0  0
  158.7170  211.8520  154.4810 C   0  0  0  0  0  2  0  0  0  0  0  0
  159.3130  211.6850  153.2220 O   0  0  0  0  0  0  0  0  0  0  0  0
  159.3790  212.9380  151.0670 C   0  0  0  0  0  2  0  0  0  0  0  0
  158.7530  214.1030  153.2880 C   0  0  0  0  0  2  0  0  0  0  0  0
  157.3530  214.4120  151.2320 C   0  0  0  0  0  2  0  0  0  0  0  0
  157.3320  214.2710  152.7510 C   0  0  0  0  0  2  0  0  0  0  0  0
  157.9380  213.1530  150.6020 C   0  0  0  0  0  2  0  0  0  0  0  0
  159.4860  212.9420  152.6020 C   0  0  0  0  0  3  0  0  0  0  0  0
  162.7930  209.2440  148.5330 C   0  0  0  0  0  2  0  0  0  0  0  0
  162.2320  213.0840  148.5080 C   0  0  0  0  0  2  0  0  0  0  0  0
  161.0350  213.1310  147.5800 C   0  0  0  0  0  0  0  0  0  0  0  0
  160.9370  210.6330  147.4670 C   0  0  0  0  0  2  0  0  0  0  0  0
  162.4630  211.7090  149.1300 C   0  0  0  0  0  2  0  0  0  0  0  0
  162.3470  210.6340  148.0550 C   0  0  1  0  0  3  0  0  0  0  0  0
  160.4950  212.0140  147.0780 C   0  0  0  0  0  3  0  0  0  0  0  0
  159.3640  214.4530  146.3320 C   0  0  0  0  0  1  0  0  0  0  0  0
  160.5070  214.3580  147.1710 O   0  0  0  0  0  0  0  0  0  0  0  0
  1  5  2  0  0  0  0
  2 12  1  6  0  0  0
  2 13  1  0  0  0  0
  2 11  1  0  0  0  0
  3 16  1  1  0  0  0
  4 15  1  6  0  0  0
  4  7  1  0  0  0  0
  5  9  1  0  0  0  0
  6  1  1  0  0  0  0
  7 11  1  0  0  0  0
  7  9  1  1  0  0  0
  8  4  1  0  0  0  0
  8  1  1  0  0  0  0
 10  3  1  0  0  0  0
 11 10  1  6  0  0  0
 13 35  1  1  0  0  0
 13 14  1  0  0  0  0
 14  3  1  0  0  0  0
 15 12  1  0  0  0  0
 16 18  2  0  0  0  0
 16 17  1  0  0  0  0
 19 20  1  0  0  0  0
 20 22  1  6  0  0  0
 21 17  1  6  0  0  0
 21 19  1  0  0  0  0
 21 20  1  0  0  0  0
 22 23  1  1  0  0  0
 24 27  1  6  0  0  0
 24 22  1  0  0  0  0
 24 25  1  0  0  0  0
 25 26  1  0  0  0  0
 28 27  1  0  0  0  0
 29 34  1  0  0  0  0
 31 32  1  0  0  0  0
 32 30  1  0  0  0  0
 33 29  1  0  0  0  0
 33 31  1  0  0  0  0
 34 28  1  0  0  0  0
 34 30  1  0  0  0  0
 36 39  1  0  0  0  0
 37 36  1  0  0  0  0
 38 40  1  0  0  0  0
 40 35  1  1  0  0  0
 40 39  1  0  0  0  0
 41 38  1  0  0  0  0
 41 37  2  0  0  0  0
 42 43  1  0  0  0  0
 43 37  1  0  0  0  0
M  END
>  <MODEL>
4

>  <REMARK>
 VINA RESULT:      -5.3      2.798      6.955
  Name = 
  11 active torsions:
  status: ('A' for Active; 'I' for Inactive)
    1  A    between atoms: C_1  and  C_34
    2  A    between atoms: C_1  and  C_35
    3  A    between atoms: C_2  and  C_13
    4  A    between atoms: C_4  and  C_12
    5  A    between atoms: C_4  and  C_22
    6  A    between atoms: N_6  and  C_17
    7  A    between atoms: C_10  and  C_22
    8  A    between atoms: C_14  and  C_22
    9  A    between atoms: C_14  and  O_41
   10  A    between atoms: C_19  and  O_37
   11  A    between atoms: C_40  and  O_41
                            x       y       z     vdW  Elec       q    Type
                         _______ _______ _______ _____ _____    ______ ____

>  <TORSDO>
F 11

$$$$
=
 OpenBabel11062410033D

 43 48  0  0  1  0  0  0  0  0999 V2000
  161.3330  213.7800  147.8430 C   0  0  0  0  0  0  0  0  0  0  0  0
  160.3060  212.5420  152.6870 N   0  0  1  0  0  0  0  0  0  0  0  0
  160.3960  209.5920  152.7900 C   0  0  2  0  0  3  0  0  0  0  0  0
  160.6420  213.8270  150.2880 C   0  0  1  0  0  3  0  0  0  0  0  0
  161.8900  212.5730  148.0300 C   0  0  0  0  0  3  0  0  0  0  0  0
  161.3990  214.3460  146.6120 F   0  0  0  0  0  0  0  0  0  0  0  0
  160.6670  212.2960  150.1950 C   0  0  1  0  0  3  0  0  0  0  0  0
  160.4890  214.4520  148.9010 C   0  0  0  0  0  2  0  0  0  0  0  0
  161.8660  211.8690  149.3600 C   0  0  0  0  0  2  0  0  0  0  0  0
  160.0380  210.3740  151.5970 N   0  0  0  0  0  2  0  0  0  0  0  0
  160.7590  211.6500  151.5870 C   0  0  2  0  0  3  0  0  0  0  0  0
  159.1270  213.3000  152.2640 C   0  0  0  0  0  2  0  0  0  0  0  0
  159.9360  211.7960  153.9020 C   0  0  1  0  0  3  0  0  0  0  0  0
  160.6660  210.4620  154.0240 C   0  0  0  0  0  2  0  0  0  0  0  0
  159.5140  214.3250  151.1950 C   0  0  0  0  0  2  0  0  0  0  0  0
  161.5480  208.6670  152.5310 C   0  0  0  0  0  0  0  0  0  0  0  0
  161.3140  207.2580  152.4920 N   0  0  0  0  0  2  0  0  0  0  0  0
  162.7090  209.1240  152.3510 O   0  0  0  0  0  0  0  0  0  0  0  0
  161.9130  204.8880  152.5370 C   0  0  0  0  0  2  0  0  0  0  0  0
  161.9640  205.3120  151.0820 C   0  0  2  0  0  3  0  0  0  0  0  0
  162.3670  206.2930  152.1910 C   0  0  1  0  0  3  0  0  0  0  0  0
  160.5350  205.4620  150.5570 C   0  0  2  0  0  3  0  0  0  0  0  0
  159.6850  204.2760  150.9920 C   0  0  0  0  0  1  0  0  0  0  0  0
  160.4990  205.6860  149.0340 C   0  0  1  0  0  3  0  0  0  0  0  0
  160.5110  207.1590  148.6380 C   0  0  0  0  0  2  0  0  0  0  0  0
  161.9310  207.6380  148.4110 C   0  0  0  0  0  1  0  0  0  0  0  0
  161.6550  204.9620  148.3590 C   0  0  0  0  0  2  0  0  0  0  0  0
  161.2050  203.7480  147.8180 O   0  0  0  0  0  0  0  0  0  0  0  0
  161.0470  202.7400  145.5420 C   0  0  0  0  0  2  0  0  0  0  0  0
  162.6990  204.6600  146.0560 C   0  0  0  0  0  2  0  0  0  0  0  0
  161.2070  204.7490  144.0440 C   0  0  0  0  0  2  0  0  0  0  0  0
  161.8610  205.5660  145.1530 C   0  0  0  0  0  2  0  0  0  0  0  0
  160.2700  203.7090  144.6500 C   0  0  0  0  0  2  0  0  0  0  0  0
  161.8760  203.4850  146.6030 C   0  0  0  0  0  3  0  0  0  0  0  0
  160.0680  212.6580  155.1700 C   0  0  0  0  0  2  0  0  0  0  0  0
  156.7070  212.2440  157.0650 C   0  0  0  0  0  2  0  0  0  0  0  0
  156.0780  213.5740  156.7030 C   0  0  0  0  0  0  0  0  0  0  0  0
  158.0040  214.1580  155.2160 C   0  0  0  0  0  2  0  0  0  0  0  0
  157.8450  211.8370  156.1330 C   0  0  0  0  0  2  0  0  0  0  0  0
  158.7680  213.0280  155.9030 C   0  0  1  0  0  3  0  0  0  0  0  0
  156.7020  214.4490  155.9060 C   0  0  0  0  0  3  0  0  0  0  0  0
  153.7660  214.4060  156.4560 C   0  0  0  0  0  1  0  0  0  0  0  0
  154.8500  213.9470  157.2530 O   0  0  0  0  0  0  0  0  0  0  0  0
  1  5  2  0  0  0  0
  1  8  1  0  0  0  0
  2 12  1  6  0  0  0
  2 13  1  0  0  0  0
  3 16  1  6  0  0  0
  3 14  1  0  0  0  0
  4  8  1  6  0  0  0
  4 15  1  0  0  0  0
  5  9  1  0  0  0  0
  6  1  1  0  0  0  0
  7  9  1  6  0  0  0
  7  4  1  0  0  0  0
  7 11  1  0  0  0  0
 10  3  1  0  0  0  0
 11 10  1  6  0  0  0
 11  2  1  0  0  0  0
 13 14  1  0  0  0  0
 13 35  1  1  0  0  0
 15 12  1  0  0  0  0
 17 16  1  0  0  0  0
 18 16  2  0  0  0  0
 20 22  1  1  0  0  0
 20 21  1  0  0  0  0
 20 19  1  0  0  0  0
 21 17  1  1  0  0  0
 21 19  1  0  0  0  0
 22 23  1  6  0  0  0
 24 27  1  6  0  0  0
 24 22  1  0  0  0  0
 25 24  1  0  0  0  0
 26 25  1  0  0  0  0
 28 27  1  0  0  0  0
 29 34  1  0  0  0  0
 30 34  1  0  0  0  0
 31 33  1  0  0  0  0
 31 32  1  0  0  0  0
 32 30  1  0  0  0  0
 33 29  1  0  0  0  0
 34 28  1  0  0  0  0
 37 36  1  0  0  0  0
 37 43  1  0  0  0  0
 38 40  1  0  0  0  0
 38 41  1  0  0  0  0
 39 36  1  0  0  0  0
 40 35  1  6  0  0  0
 40 39  1  0  0  0  0
 41 37  2  0  0  0  0
 42 43  1  0  0  0  0
M  END
>  <MODEL>
5

>  <REMARK>
 VINA RESULT:      -4.6      3.044     10.385
  Name = 
  11 active torsions:
  status: ('A' for Active; 'I' for Inactive)
    1  A    between atoms: C_1  and  C_34
    2  A    between atoms: C_1  and  C_35
    3  A    between atoms: C_2  and  C_13
    4  A    between atoms: C_4  and  C_12
    5  A    between atoms: C_4  and  C_22
    6  A    between atoms: N_6  and  C_17
    7  A    between atoms: C_10  and  C_22
    8  A    between atoms: C_14  and  C_22
    9  A    between atoms: C_14  and  O_41
   10  A    between atoms: C_19  and  O_37
   11  A    between atoms: C_40  and  O_41
                            x       y       z     vdW  Elec       q    Type
                         _______ _______ _______ _____ _____    ______ ____

>  <TORSDO>
F 11

$$$$
