=
 OpenBabel11062408313D

 32 36  0  0  1  0  0  0  0  0999 V2000
  160.8570  208.7120  153.9520 C   0  0  2  0  0  3  0  0  0  0  0  0
  159.4220  210.8080  154.1330 C   0  0  0  0  0  0  0  0  0  0  0  0
  160.8690  207.2190  154.2770 C   0  0  0  0  0  2  0  0  0  0  0  0
  159.6460  209.4070  154.6150 C   0  0  2  0  0  3  0  0  0  0  0  0
  159.5890  211.7480  155.1330 C   0  0  0  0  0  0  0  0  0  0  0  0
  159.0110  211.1970  152.8550 C   0  0  0  0  0  3  0  0  0  0  0  0
  158.9940  213.5120  153.6080 C   0  0  0  0  0  3  0  0  0  0  0  0
  159.9310  209.6630  156.0800 C   0  0  0  0  0  0  0  0  0  0  0  0
  159.3760  213.1070  154.8940 C   0  0  0  0  0  3  0  0  0  0  0  0
  160.1260  208.7100  157.0010 C   0  0  0  0  0  3  0  0  0  0  0  0
  160.1310  207.2510  156.6680 C   0  0  0  0  0  2  0  0  0  0  0  0
  158.8130  212.5600  152.5890 C   0  0  0  0  0  0  0  0  0  0  0  0
  159.9420  211.1250  156.4330 C   0  0  1  0  0  3  0  0  0  0  0  0
  161.2720  206.9280  155.7160 C   0  0  0  0  0  2  0  0  0  0  0  0
  161.3080  211.5970  156.9510 C   0  0  0  0  0  2  0  0  0  0  0  0
  162.7210  210.8080  156.1040 S   0  0  0  0  0  1  0  0  0  0  0  0
  160.8320  208.8440  152.4370 C   0  0  0  0  0  2  0  0  0  0  0  0
  160.7800  207.5550  151.8410 O   0  0  0  0  0  0  0  0  0  0  0  0
  162.4330  206.5570  146.6270 F   0  0  0  0  0  0  0  0  0  0  0  0
  162.1590  208.0840  148.4330 C   0  0  0  0  0  3  0  0  0  0  0  0
  161.1760  207.3150  150.5200 C   0  0  0  0  0  0  0  0  0  0  0  0
  161.4540  205.7830  148.6560 C   0  0  0  0  0  3  0  0  0  0  0  0
  161.7420  208.3380  149.7410 C   0  0  0  0  0  3  0  0  0  0  0  0
  161.0110  206.0310  149.9640 C   0  0  0  0  0  0  0  0  0  0  0  0
  162.0190  206.8070  147.8920 C   0  0  0  0  0  0  0  0  0  0  0  0
  160.9470  203.5670  150.2520 C   0  0  0  0  0  2  0  0  0  0  0  0
  161.5640  204.1490  151.5020 C   0  0  0  0  0  2  0  0  0  0  0  0
  160.4520  204.9020  150.7860 C   0  0  0  0  0  3  0  0  0  0  0  0
  158.4260  212.9940  151.2140 C   0  0  0  0  0  2  0  0  0  0  0  0
  157.3810  214.1040  151.2490 C   0  0  0  0  0  2  0  0  0  0  0  0
  157.0200  213.0670  149.0100 C   0  0  0  0  0  1  0  0  0  0  0  0
  156.5020  214.0850  150.0070 C   0  0  0  0  0  2  0  0  0  0  0  0
  1 17  1  6  0  0  0
  1  3  1  0  0  0  0
  1  4  1  0  0  0  0
  2  5  1  0  0  0  0
  3 14  1  0  0  0  0
  4  2  1  6  0  0  0
  4  8  1  0  0  0  0
  5 13  1  0  0  0  0
  6  2  2  0  0  0  0
  7  9  1  0  0  0  0
  8 13  1  0  0  0  0
  8 10  2  0  0  0  0
  9  5  2  0  0  0  0
 11 10  1  0  0  0  0
 12  6  1  0  0  0  0
 12  7  2  0  0  0  0
 13 15  1  6  0  0  0
 14 11  1  0  0  0  0
 16 15  1  0  0  0  0
 18 17  1  0  0  0  0
 19 25  1  0  0  0  0
 20 23  1  0  0  0  0
 21 18  1  0  0  0  0
 22 24  2  0  0  0  0
 23 21  2  0  0  0  0
 24 21  1  0  0  0  0
 24 28  1  0  0  0  0
 25 20  2  0  0  0  0
 25 22  1  0  0  0  0
 26 28  1  0  0  0  0
 26 27  1  0  0  0  0
 28 27  1  0  0  0  0
 29 30  1  0  0  0  0
 29 12  1  0  0  0  0
 31 32  1  0  0  0  0
 32 30  1  0  0  0  0
M  END
>  <MODEL>
1

>  <REMARK>
 VINA RESULT:      -7.8      0.000      0.000
  Name = 
  8 active torsions:
  status: ('A' for Active; 'I' for Inactive)
    1  A    between atoms: C_1  and  C_27
    2  A    between atoms: C_9  and  C_31
    3  A    between atoms: C_9  and  C_32
    4  A    between atoms: C_13  and  C_29
    5  A    between atoms: C_16  and  O_24
    6  A    between atoms: C_22  and  C_23
    7  A    between atoms: O_24  and  C_27
    8  A    between atoms: C_28  and  C_32
                            x       y       z     vdW  Elec       q    Type
                         _______ _______ _______ _____ _____    ______ ____

>  <TORSDO>
F 8

$$$$
=
 OpenBabel11062408313D

 32 36  0  0  1  0  0  0  0  0999 V2000
  160.9830  208.0340  149.3170 C   0  0  2  0  0  3  0  0  0  0  0  0
  161.5680  207.4130  151.7160 C   0  0  0  0  0  0  0  0  0  0  0  0
  161.5810  208.6040  148.0320 C   0  0  0  0  0  2  0  0  0  0  0  0
  161.9740  208.1780  150.4930 C   0  0  2  0  0  3  0  0  0  0  0  0
  161.2940  208.2370  152.7930 C   0  0  0  0  0  0  0  0  0  0  0  0
  161.5220  206.0230  151.8570 C   0  0  0  0  0  3  0  0  0  0  0  0
  160.8650  206.3190  154.1820 C   0  0  0  0  0  3  0  0  0  0  0  0
  161.9410  209.5930  151.0320 C   0  0  0  0  0  0  0  0  0  0  0  0
  160.9450  207.7110  154.0380 C   0  0  0  0  0  3  0  0  0  0  0  0
  162.3080  210.6830  150.3440 C   0  0  0  0  0  3  0  0  0  0  0  0
  162.7580  210.6280  148.9180 C   0  0  0  0  0  2  0  0  0  0  0  0
  161.1530  205.4760  153.0940 C   0  0  0  0  0  0  0  0  0  0  0  0
  161.4790  209.6710  152.4610 C   0  0  1  0  0  3  0  0  0  0  0  0
  161.6330  210.1260  148.0260 C   0  0  0  0  0  2  0  0  0  0  0  0
  160.1830  210.4770  152.6200 C   0  0  0  0  0  2  0  0  0  0  0  0
  160.1970  211.6030  154.0580 S   0  0  0  0  0  1  0  0  0  0  0  0
  160.6290  206.5800  149.0430 C   0  0  0  0  0  2  0  0  0  0  0  0
  161.6370  205.9810  148.2400 O   0  0  0  0  0  0  0  0  0  0  0  0
  160.9720  200.9710  145.9220 F   0  0  0  0  0  0  0  0  0  0  0  0
  161.0710  202.3280  147.8760 C   0  0  0  0  0  3  0  0  0  0  0  0
  161.4920  204.7140  147.6640 C   0  0  0  0  0  0  0  0  0  0  0  0
  161.4000  203.3030  145.6890 C   0  0  0  0  0  3  0  0  0  0  0  0
  161.2400  203.5840  148.4610 C   0  0  0  0  0  3  0  0  0  0  0  0
  161.5940  204.5670  146.2660 C   0  0  0  0  0  0  0  0  0  0  0  0
  161.1470  202.1880  146.4910 C   0  0  0  0  0  0  0  0  0  0  0  0
  161.2570  205.4980  143.9910 C   0  0  0  0  0  2  0  0  0  0  0  0
  160.4910  206.3750  144.9530 C   0  0  0  0  0  2  0  0  0  0  0  0
  161.8160  205.7620  145.3800 C   0  0  0  0  0  3  0  0  0  0  0  0
  161.0490  203.9940  153.2430 C   0  0  0  0  0  2  0  0  0  0  0  0
  160.8080  203.3090  151.9030 C   0  0  0  0  0  2  0  0  0  0  0  0
  161.0040  201.0510  150.8620 C   0  0  0  0  0  1  0  0  0  0  0  0
  161.6930  202.0830  151.7330 C   0  0  0  0  0  2  0  0  0  0  0  0
  1 17  1  6  0  0  0
  1  4  1  0  0  0  0
  2  6  2  0  0  0  0
  2  5  1  0  0  0  0
  3  1  1  0  0  0  0
  4  8  1  1  0  0  0
  4  2  1  0  0  0  0
  5  9  2  0  0  0  0
  6 12  1  0  0  0  0
  8 13  1  0  0  0  0
  9  7  1  0  0  0  0
 10  8  2  0  0  0  0
 11 10  1  0  0  0  0
 12 29  1  0  0  0  0
 12  7  2  0  0  0  0
 13 15  1  6  0  0  0
 13  5  1  0  0  0  0
 14  3  1  0  0  0  0
 14 11  1  0  0  0  0
 15 16  1  0  0  0  0
 18 17  1  0  0  0  0
 19 25  1  0  0  0  0
 20 23  1  0  0  0  0
 21 18  1  0  0  0  0
 21 23  2  0  0  0  0
 22 24  2  0  0  0  0
 22 25  1  0  0  0  0
 24 21  1  0  0  0  0
 25 20  2  0  0  0  0
 26 27  1  0  0  0  0
 26 28  1  0  0  0  0
 27 28  1  0  0  0  0
 28 24  1  0  0  0  0
 30 29  1  0  0  0  0
 31 32  1  0  0  0  0
 32 30  1  0  0  0  0
M  END
>  <MODEL>
2

>  <REMARK>
 VINA RESULT:      -7.7      3.022      6.776
  Name = 
  8 active torsions:
  status: ('A' for Active; 'I' for Inactive)
    1  A    between atoms: C_1  and  C_27
    2  A    between atoms: C_9  and  C_31
    3  A    between atoms: C_9  and  C_32
    4  A    between atoms: C_13  and  C_29
    5  A    between atoms: C_16  and  O_24
    6  A    between atoms: C_22  and  C_23
    7  A    between atoms: O_24  and  C_27
    8  A    between atoms: C_28  and  C_32
                            x       y       z     vdW  Elec       q    Type
                         _______ _______ _______ _____ _____    ______ ____

>  <TORSDO>
F 8

$$$$
=
 OpenBabel11062408313D

 32 36  0  0  1  0  0  0  0  0999 V2000
  162.2090  208.2500  150.2500 C   0  0  2  0  0  3  0  0  0  0  0  0
  160.9000  207.5690  152.3240 C   0  0  0  0  0  0  0  0  0  0  0  0
  162.0510  208.5440  148.7580 C   0  0  0  0  0  2  0  0  0  0  0  0
  160.9130  207.6410  150.8280 C   0  0  2  0  0  3  0  0  0  0  0  0
  160.8630  206.2690  152.7950 C   0  0  0  0  0  0  0  0  0  0  0  0
  160.8520  208.6470  153.2130 C   0  0  0  0  0  3  0  0  0  0  0  0
  160.7790  207.0670  155.0640 C   0  0  0  0  0  3  0  0  0  0  0  0
  160.8310  206.1680  150.4830 C   0  0  0  0  0  0  0  0  0  0  0  0
  160.7970  205.9950  154.1620 C   0  0  0  0  0  3  0  0  0  0  0  0
  160.7300  205.6780  149.2400 C   0  0  0  0  0  3  0  0  0  0  0  0
  160.7340  206.5470  148.0220 C   0  0  0  0  0  2  0  0  0  0  0  0
  160.8070  208.3920  154.5910 C   0  0  0  0  0  0  0  0  0  0  0  0
  160.8380  205.2760  151.6930 C   0  0  1  0  0  3  0  0  0  0  0  0
  162.0580  207.2850  147.9020 C   0  0  0  0  0  2  0  0  0  0  0  0
  162.0520  204.3380  151.7290 C   0  0  0  0  0  2  0  0  0  0  0  0
  161.6090  202.5680  151.6320 S   0  0  0  0  0  1  0  0  0  0  0  0
  162.5780  209.5600  150.9300 C   0  0  0  0  0  2  0  0  0  0  0  0
  162.2670  210.6520  150.0770 O   0  0  0  0  0  0  0  0  0  0  0  0
  158.3950  214.4530  151.2910 F   0  0  0  0  0  0  0  0  0  0  0  0
  159.7180  212.5900  151.9600 C   0  0  0  0  0  3  0  0  0  0  0  0
  161.2750  211.5920  150.3800 C   0  0  0  0  0  0  0  0  0  0  0  0
  159.9020  213.4850  149.7220 C   0  0  0  0  0  3  0  0  0  0  0  0
  160.6880  211.6330  151.6560 C   0  0  0  0  0  3  0  0  0  0  0  0
  160.8620  212.5140  149.3970 C   0  0  0  0  0  0  0  0  0  0  0  0
  159.3280  213.5180  150.9940 C   0  0  0  0  0  0  0  0  0  0  0  0
  161.2750  213.8700  147.3610 C   0  0  0  0  0  2  0  0  0  0  0  0
  162.6200  213.5580  147.9730 C   0  0  0  0  0  2  0  0  0  0  0  0
  161.5030  212.5270  148.0370 C   0  0  0  0  0  3  0  0  0  0  0  0
  160.8070  209.5330  155.5530 C   0  0  0  0  0  2  0  0  0  0  0  0
  161.7510  210.6450  155.1070 C   0  0  0  0  0  2  0  0  0  0  0  0
  162.7850  209.9310  157.2610 C   0  0  0  0  0  1  0  0  0  0  0  0
  163.0020  210.6980  155.9720 C   0  0  0  0  0  2  0  0  0  0  0  0
  1  4  1  0  0  0  0
  1 17  1  1  0  0  0
  2  5  2  0  0  0  0
  2  6  1  0  0  0  0
  3  1  1  0  0  0  0
  4  8  1  6  0  0  0
  4  2  1  0  0  0  0
  5  9  1  0  0  0  0
  6 12  2  0  0  0  0
  8 13  1  0  0  0  0
  9  7  2  0  0  0  0
 10  8  2  0  0  0  0
 11 10  1  0  0  0  0
 12  7  1  0  0  0  0
 12 29  1  0  0  0  0
 13 15  1  6  0  0  0
 13  5  1  0  0  0  0
 14 11  1  0  0  0  0
 14  3  1  0  0  0  0
 16 15  1  0  0  0  0
 18 21  1  0  0  0  0
 18 17  1  0  0  0  0
 21 23  2  0  0  0  0
 22 25  1  0  0  0  0
 23 20  1  0  0  0  0
 24 22  2  0  0  0  0
 24 21  1  0  0  0  0
 25 19  1  0  0  0  0
 25 20  2  0  0  0  0
 26 27  1  0  0  0  0
 26 28  1  0  0  0  0
 27 28  1  0  0  0  0
 28 24  1  0  0  0  0
 30 29  1  0  0  0  0
 30 32  1  0  0  0  0
 32 31  1  0  0  0  0
M  END
>  <MODEL>
3

>  <REMARK>
 VINA RESULT:      -7.7      3.250      7.209
  Name = 
  8 active torsions:
  status: ('A' for Active; 'I' for Inactive)
    1  A    between atoms: C_1  and  C_27
    2  A    between atoms: C_9  and  C_31
    3  A    between atoms: C_9  and  C_32
    4  A    between atoms: C_13  and  C_29
    5  A    between atoms: C_16  and  O_24
    6  A    between atoms: C_22  and  C_23
    7  A    between atoms: O_24  and  C_27
    8  A    between atoms: C_28  and  C_32
                            x       y       z     vdW  Elec       q    Type
                         _______ _______ _______ _____ _____    ______ ____

>  <TORSDO>
F 8

$$$$
=
 OpenBabel11062408313D

 32 36  0  0  1  0  0  0  0  0999 V2000
  161.4200  211.1480  149.6700 C   0  0  2  0  0  3  0  0  0  0  0  0
  160.3690  211.8050  151.8930 C   0  0  0  0  0  0  0  0  0  0  0  0
  162.4580  211.5930  148.6400 C   0  0  0  0  0  2  0  0  0  0  0  0
  161.1720  212.2600  150.7130 C   0  0  2  0  0  3  0  0  0  0  0  0
  159.1480  212.4470  151.9860 C   0  0  0  0  0  0  0  0  0  0  0  0
  160.7700  210.8970  152.8790 C   0  0  0  0  0  3  0  0  0  0  0  0
  158.6530  211.2650  154.0230 C   0  0  0  0  0  3  0  0  0  0  0  0
  160.2460  213.3140  150.1420 C   0  0  0  0  0  0  0  0  0  0  0  0
  158.2750  212.1960  153.0460 C   0  0  0  0  0  3  0  0  0  0  0  0
  160.5340  214.1000  149.0960 C   0  0  0  0  0  3  0  0  0  0  0  0
  161.8140  213.9910  148.3280 C   0  0  0  0  0  2  0  0  0  0  0  0
  159.8980  210.6160  153.9400 C   0  0  0  0  0  0  0  0  0  0  0  0
  158.9480  213.4300  150.8930 C   0  0  1  0  0  3  0  0  0  0  0  0
  161.9180  212.6280  147.6630 C   0  0  0  0  0  2  0  0  0  0  0  0
  157.7300  213.0930  150.0230 C   0  0  0  0  0  2  0  0  0  0  0  0
  156.5160  214.4530  149.9100 S   0  0  0  0  0  1  0  0  0  0  0  0
  161.9380  209.8690  150.3090 C   0  0  0  0  0  2  0  0  0  0  0  0
  161.8800  208.8020  149.3720 O   0  0  0  0  0  0  0  0  0  0  0  0
  160.5480  203.5950  150.7940 F   0  0  0  0  0  0  0  0  0  0  0  0
  160.9270  205.8580  151.4270 C   0  0  0  0  0  3  0  0  0  0  0  0
  161.5670  207.4890  149.7390 C   0  0  0  0  0  0  0  0  0  0  0  0
  161.1880  205.1700  149.1250 C   0  0  0  0  0  3  0  0  0  0  0  0
  161.2640  207.1660  151.0730 C   0  0  0  0  0  3  0  0  0  0  0  0
  161.5500  206.4750  148.7600 C   0  0  0  0  0  0  0  0  0  0  0  0
  160.8850  204.8620  150.4530 C   0  0  0  0  0  0  0  0  0  0  0  0
  161.9530  205.5130  146.5090 C   0  0  0  0  0  2  0  0  0  0  0  0
  160.6810  206.3230  146.4290 C   0  0  0  0  0  2  0  0  0  0  0  0
  161.8230  206.7950  147.3160 C   0  0  0  0  0  3  0  0  0  0  0  0
  160.2910  209.6100  154.9700 C   0  0  0  0  0  2  0  0  0  0  0  0
  161.0280  208.4280  154.3500 C   0  0  0  0  0  2  0  0  0  0  0  0
  159.7000  207.3580  156.1680 C   0  0  0  0  0  1  0  0  0  0  0  0
  160.5920  207.1080  154.9690 C   0  0  0  0  0  2  0  0  0  0  0  0
  1 17  1  1  0  0  0
  1  4  1  0  0  0  0
  2  5  2  0  0  0  0
  2  6  1  0  0  0  0
  3  1  1  0  0  0  0
  4  8  1  6  0  0  0
  4  2  1  0  0  0  0
  5  9  1  0  0  0  0
  6 12  2  0  0  0  0
  8 13  1  0  0  0  0
  9  7  2  0  0  0  0
 10  8  2  0  0  0  0
 11 10  1  0  0  0  0
 12  7  1  0  0  0  0
 12 29  1  0  0  0  0
 13 15  1  6  0  0  0
 13  5  1  0  0  0  0
 14 11  1  0  0  0  0
 14  3  1  0  0  0  0
 16 15  1  0  0  0  0
 18 21  1  0  0  0  0
 18 17  1  0  0  0  0
 21 23  2  0  0  0  0
 22 25  1  0  0  0  0
 23 20  1  0  0  0  0
 24 22  2  0  0  0  0
 24 21  1  0  0  0  0
 25 19  1  0  0  0  0
 25 20  2  0  0  0  0
 26 28  1  0  0  0  0
 27 26  1  0  0  0  0
 27 28  1  0  0  0  0
 28 24  1  0  0  0  0
 30 32  1  0  0  0  0
 30 29  1  0  0  0  0
 32 31  1  0  0  0  0
M  END
>  <MODEL>
4

>  <REMARK>
 VINA RESULT:      -7.4      2.748      5.863
  Name = 
  8 active torsions:
  status: ('A' for Active; 'I' for Inactive)
    1  A    between atoms: C_1  and  C_27
    2  A    between atoms: C_9  and  C_31
    3  A    between atoms: C_9  and  C_32
    4  A    between atoms: C_13  and  C_29
    5  A    between atoms: C_16  and  O_24
    6  A    between atoms: C_22  and  C_23
    7  A    between atoms: O_24  and  C_27
    8  A    between atoms: C_28  and  C_32
                            x       y       z     vdW  Elec       q    Type
                         _______ _______ _______ _____ _____    ______ ____

>  <TORSDO>
F 8

$$$$
=
 OpenBabel11062408313D

 32 36  0  0  1  0  0  0  0  0999 V2000
  161.4600  210.2400  150.0150 C   0  0  2  0  0  3  0  0  0  0  0  0
  161.0890  211.0280  152.4070 C   0  0  0  0  0  0  0  0  0  0  0  0
  162.2420  210.5580  148.7410 C   0  0  0  0  0  2  0  0  0  0  0  0
  161.6060  211.3810  151.0460 C   0  0  2  0  0  3  0  0  0  0  0  0
  160.0060  211.8020  152.7830 C   0  0  0  0  0  0  0  0  0  0  0  0
  161.6310  210.0890  153.2910 C   0  0  0  0  0  3  0  0  0  0  0  0
  159.9280  210.6980  154.9210 C   0  0  0  0  0  3  0  0  0  0  0  0
  160.6800  212.5260  150.6900 C   0  0  0  0  0  0  0  0  0  0  0  0
  159.4120  211.6570  154.0380 C   0  0  0  0  0  3  0  0  0  0  0  0
  160.7720  213.2660  149.5780 C   0  0  0  0  0  3  0  0  0  0  0  0
  161.7940  213.0100  148.5150 C   0  0  0  0  0  2  0  0  0  0  0  0
  161.0350  209.9150  154.5480 C   0  0  0  0  0  0  0  0  0  0  0  0
  159.6380  212.7910  151.7410 C   0  0  1  0  0  3  0  0  0  0  0  0
  161.5810  211.6380  147.8950 C   0  0  0  0  0  2  0  0  0  0  0  0
  158.2090  212.5830  151.2210 C   0  0  0  0  0  2  0  0  0  0  0  0
  157.3680  214.1380  150.7590 S   0  0  0  0  0  1  0  0  0  0  0  0
  161.9890  208.9170  150.5480 C   0  0  0  0  0  2  0  0  0  0  0  0
  161.0370  207.8870  150.3170 O   0  0  0  0  0  0  0  0  0  0  0  0
  161.7670  204.0000  146.4100 F   0  0  0  0  0  0  0  0  0  0  0  0
  161.7480  206.2970  147.0370 C   0  0  0  0  0  3  0  0  0  0  0  0
  161.1990  206.9150  149.3240 C   0  0  0  0  0  0  0  0  0  0  0  0
  161.2120  204.5810  148.6530 C   0  0  0  0  0  3  0  0  0  0  0  0
  161.5630  207.2750  148.0160 C   0  0  0  0  0  3  0  0  0  0  0  0
  161.0010  205.5550  149.6390 C   0  0  0  0  0  0  0  0  0  0  0  0
  161.5770  204.9500  147.3560 C   0  0  0  0  0  0  0  0  0  0  0  0
  160.8270  203.6290  151.1930 C   0  0  0  0  0  2  0  0  0  0  0  0
  161.8760  204.5610  151.7510 C   0  0  0  0  0  2  0  0  0  0  0  0
  160.6570  205.1320  151.0410 C   0  0  0  0  0  3  0  0  0  0  0  0
  161.5720  208.8800  155.4810 C   0  0  0  0  0  2  0  0  0  0  0  0
  160.4660  208.2560  156.3250 C   0  0  0  0  0  2  0  0  0  0  0  0
  160.7960  206.5780  154.5110 C   0  0  0  0  0  1  0  0  0  0  0  0
  159.9440  206.9700  155.7010 C   0  0  0  0  0  2  0  0  0  0  0  0
  1 17  1  1  0  0  0
  1  4  1  0  0  0  0
  2  5  2  0  0  0  0
  2  6  1  0  0  0  0
  3  1  1  0  0  0  0
  4  8  1  6  0  0  0
  4  2  1  0  0  0  0
  5  9  1  0  0  0  0
  6 12  2  0  0  0  0
  8 13  1  0  0  0  0
  9  7  2  0  0  0  0
 10  8  2  0  0  0  0
 11 10  1  0  0  0  0
 12  7  1  0  0  0  0
 12 29  1  0  0  0  0
 13 15  1  6  0  0  0
 13  5  1  0  0  0  0
 14 11  1  0  0  0  0
 14  3  1  0  0  0  0
 16 15  1  0  0  0  0
 18 17  1  0  0  0  0
 19 25  1  0  0  0  0
 20 25  2  0  0  0  0
 20 23  1  0  0  0  0
 21 24  1  0  0  0  0
 21 18  1  0  0  0  0
 22 24  2  0  0  0  0
 23 21  2  0  0  0  0
 24 28  1  0  0  0  0
 25 22  1  0  0  0  0
 26 27  1  0  0  0  0
 28 26  1  0  0  0  0
 28 27  1  0  0  0  0
 29 30  1  0  0  0  0
 31 32  1  0  0  0  0
 32 30  1  0  0  0  0
M  END
>  <MODEL>
5

>  <REMARK>
 VINA RESULT:      -7.2      2.312      5.293
  Name = 
  8 active torsions:
  status: ('A' for Active; 'I' for Inactive)
    1  A    between atoms: C_1  and  C_27
    2  A    between atoms: C_9  and  C_31
    3  A    between atoms: C_9  and  C_32
    4  A    between atoms: C_13  and  C_29
    5  A    between atoms: C_16  and  O_24
    6  A    between atoms: C_22  and  C_23
    7  A    between atoms: O_24  and  C_27
    8  A    between atoms: C_28  and  C_32
                            x       y       z     vdW  Elec       q    Type
                         _______ _______ _______ _____ _____    ______ ____

>  <TORSDO>
F 8

$$$$
=
 OpenBabel11062408313D

 32 36  0  0  1  0  0  0  0  0999 V2000
  160.0390  210.7940  153.2610 C   0  0  2  0  0  3  0  0  0  0  0  0
  161.2450  208.6630  152.5640 C   0  0  0  0  0  0  0  0  0  0  0  0
  160.2590  212.1450  153.9420 C   0  0  0  0  0  2  0  0  0  0  0  0
  161.2830  209.8920  153.4200 C   0  0  2  0  0  3  0  0  0  0  0  0
  161.2000  207.4980  153.3060 C   0  0  0  0  0  0  0  0  0  0  0  0
  161.3220  208.6130  151.1680 C   0  0  0  0  0  3  0  0  0  0  0  0
  161.2540  206.1820  151.2910 C   0  0  0  0  0  3  0  0  0  0  0  0
  161.3000  209.2650  154.7980 C   0  0  0  0  0  0  0  0  0  0  0  0
  161.2090  206.2450  152.6910 C   0  0  0  0  0  3  0  0  0  0  0  0
  161.4140  209.9450  155.9470 C   0  0  0  0  0  3  0  0  0  0  0  0
  161.4930  211.4380  156.0020 C   0  0  0  0  0  2  0  0  0  0  0  0
  161.3100  207.3640  150.5310 C   0  0  0  0  0  0  0  0  0  0  0  0
  161.2080  207.7640  154.7660 C   0  0  1  0  0  3  0  0  0  0  0  0
  160.2130  212.0570  155.4610 C   0  0  0  0  0  2  0  0  0  0  0  0
  159.9460  207.2340  155.4610 C   0  0  0  0  0  2  0  0  0  0  0  0
  160.1630  206.9600  157.2540 S   0  0  0  0  0  1  0  0  0  0  0  0
  159.7180  211.0730  151.8010 C   0  0  0  0  0  2  0  0  0  0  0  0
  160.3470  212.2780  151.3890 O   0  0  0  0  0  0  0  0  0  0  0  0
  162.1930  213.0140  146.1960 F   0  0  0  0  0  0  0  0  0  0  0  0
  162.3200  211.8520  148.2700 C   0  0  0  0  0  3  0  0  0  0  0  0
  160.8310  212.4750  150.0910 C   0  0  0  0  0  0  0  0  0  0  0  0
  160.7340  213.6520  147.9680 C   0  0  0  0  0  3  0  0  0  0  0  0
  161.8600  211.6670  149.5760 C   0  0  0  0  0  3  0  0  0  0  0  0
  160.2790  213.4910  149.2860 C   0  0  0  0  0  0  0  0  0  0  0  0
  161.7550  212.8410  147.4660 C   0  0  0  0  0  0  0  0  0  0  0  0
  158.0580  214.4480  148.7320 C   0  0  0  0  0  2  0  0  0  0  0  0
  157.8670  213.5260  149.9130 C   0  0  0  0  0  2  0  0  0  0  0  0
  159.1450  214.3410  149.7890 C   0  0  0  0  0  3  0  0  0  0  0  0
  161.3390  207.2970  149.0400 C   0  0  0  0  0  2  0  0  0  0  0  0
  160.4620  206.1680  148.5100 C   0  0  0  0  0  2  0  0  0  0  0  0
  162.4410  205.9430  147.0100 C   0  0  0  0  0  1  0  0  0  0  0  0
  161.2440  205.2280  147.6050 C   0  0  0  0  0  2  0  0  0  0  0  0
  1 17  1  6  0  0  0
  1  4  1  0  0  0  0
  1  3  1  0  0  0  0
  2  5  1  0  0  0  0
  3 14  1  0  0  0  0
  4  2  1  6  0  0  0
  4  8  1  0  0  0  0
  5 13  1  0  0  0  0
  6  2  2  0  0  0  0
  7  9  1  0  0  0  0
  8 10  2  0  0  0  0
  9  5  2  0  0  0  0
 10 11  1  0  0  0  0
 12  6  1  0  0  0  0
 12  7  2  0  0  0  0
 13  8  1  0  0  0  0
 13 15  1  6  0  0  0
 14 11  1  0  0  0  0
 15 16  1  0  0  0  0
 18 17  1  0  0  0  0
 19 25  1  0  0  0  0
 20 23  1  0  0  0  0
 21 18  1  0  0  0  0
 22 24  2  0  0  0  0
 23 21  2  0  0  0  0
 24 28  1  0  0  0  0
 24 21  1  0  0  0  0
 25 22  1  0  0  0  0
 25 20  2  0  0  0  0
 26 28  1  0  0  0  0
 26 27  1  0  0  0  0
 28 27  1  0  0  0  0
 29 12  1  0  0  0  0
 30 29  1  0  0  0  0
 31 32  1  0  0  0  0
 32 30  1  0  0  0  0
M  END
>  <MODEL>
6

>  <REMARK>
 VINA RESULT:      -6.9      2.525      6.321
  Name = 
  8 active torsions:
  status: ('A' for Active; 'I' for Inactive)
    1  A    between atoms: C_1  and  C_27
    2  A    between atoms: C_9  and  C_31
    3  A    between atoms: C_9  and  C_32
    4  A    between atoms: C_13  and  C_29
    5  A    between atoms: C_16  and  O_24
    6  A    between atoms: C_22  and  C_23
    7  A    between atoms: O_24  and  C_27
    8  A    between atoms: C_28  and  C_32
                            x       y       z     vdW  Elec       q    Type
                         _______ _______ _______ _____ _____    ______ ____

>  <TORSDO>
F 8

$$$$
=
 OpenBabel11062408313D

 32 36  0  0  1  0  0  0  0  0999 V2000
  161.7410  212.2250  148.5090 C   0  0  2  0  0  3  0  0  0  0  0  0
  159.9190  213.3450  149.8900 C   0  0  0  0  0  0  0  0  0  0  0  0
  163.0060  212.5200  147.7020 C   0  0  0  0  0  2  0  0  0  0  0  0
  161.0150  213.5360  148.8850 C   0  0  2  0  0  3  0  0  0  0  0  0
  158.6700  213.6490  149.3800 C   0  0  0  0  0  0  0  0  0  0  0  0
  160.0690  212.9810  151.2320 C   0  0  0  0  0  3  0  0  0  0  0  0
  157.6600  213.1870  151.5160 C   0  0  0  0  0  3  0  0  0  0  0  0
  160.2160  214.0470  147.7040 C   0  0  0  0  0  0  0  0  0  0  0  0
  157.5260  213.5810  150.1770 C   0  0  0  0  0  3  0  0  0  0  0  0
  160.7440  214.4530  146.5420 C   0  0  0  0  0  3  0  0  0  0  0  0
  162.2130  214.4040  146.2570 C   0  0  0  0  0  2  0  0  0  0  0  0
  158.9290  212.8870  152.0430 C   0  0  0  0  0  0  0  0  0  0  0  0
  158.7360  214.0920  147.9660 C   0  0  1  0  0  3  0  0  0  0  0  0
  162.7080  212.9660  146.2770 C   0  0  0  0  0  2  0  0  0  0  0  0
  157.9420  213.1710  147.0300 C   0  0  0  0  0  2  0  0  0  0  0  0
  156.6740  214.0480  146.0500 S   0  0  0  0  0  1  0  0  0  0  0  0
  162.1650  211.4340  149.7370 C   0  0  0  0  0  2  0  0  0  0  0  0
  161.9600  210.0460  149.5120 O   0  0  0  0  0  0  0  0  0  0  0  0
  160.8530  206.4280  153.5860 F   0  0  0  0  0  0  0  0  0  0  0  0
  160.9790  208.6800  152.8240 C   0  0  0  0  0  3  0  0  0  0  0  0
  161.7020  209.1410  150.5480 C   0  0  0  0  0  0  0  0  0  0  0  0
  161.5780  206.8540  151.3570 C   0  0  0  0  0  3  0  0  0  0  0  0
  161.2590  209.5900  151.8030 C   0  0  0  0  0  3  0  0  0  0  0  0
  161.8840  207.7600  150.3310 C   0  0  0  0  0  0  0  0  0  0  0  0
  161.1350  207.3120  152.6000 C   0  0  0  0  0  0  0  0  0  0  0  0
  161.5600  205.9640  148.6490 C   0  0  0  0  0  2  0  0  0  0  0  0
  161.1520  207.2650  148.0000 C   0  0  0  0  0  2  0  0  0  0  0  0
  162.3120  207.2430  148.9850 C   0  0  0  0  0  3  0  0  0  0  0  0
  159.0680  212.4490  153.4630 C   0  0  0  0  0  2  0  0  0  0  0  0
  157.9800  211.4550  153.8540 C   0  0  0  0  0  2  0  0  0  0  0  0
  156.0380  211.3160  155.4110 C   0  0  0  0  0  1  0  0  0  0  0  0
  157.5030  211.6790  155.2810 C   0  0  0  0  0  2  0  0  0  0  0  0
  1  4  1  0  0  0  0
  1 17  1  1  0  0  0
  2  6  1  0  0  0  0
  3  1  1  0  0  0  0
  4  8  1  6  0  0  0
  4  2  1  0  0  0  0
  5  2  2  0  0  0  0
  5  9  1  0  0  0  0
  6 12  2  0  0  0  0
  7 12  1  0  0  0  0
  8 13  1  0  0  0  0
  9  7  2  0  0  0  0
 10  8  2  0  0  0  0
 11 14  1  0  0  0  0
 11 10  1  0  0  0  0
 12 29  1  0  0  0  0
 13 15  1  6  0  0  0
 13  5  1  0  0  0  0
 14  3  1  0  0  0  0
 16 15  1  0  0  0  0
 18 17  1  0  0  0  0
 18 21  1  0  0  0  0
 21 23  1  0  0  0  0
 22 25  2  0  0  0  0
 23 20  2  0  0  0  0
 24 21  2  0  0  0  0
 24 22  1  0  0  0  0
 25 20  1  0  0  0  0
 25 19  1  0  0  0  0
 26 28  1  0  0  0  0
 27 26  1  0  0  0  0
 27 28  1  0  0  0  0
 28 24  1  0  0  0  0
 29 30  1  0  0  0  0
 30 32  1  0  0  0  0
 32 31  1  0  0  0  0
M  END
>  <MODEL>
7

>  <REMARK>
 VINA RESULT:      -6.8      3.637      6.677
  Name = 
  8 active torsions:
  status: ('A' for Active; 'I' for Inactive)
    1  A    between atoms: C_1  and  C_27
    2  A    between atoms: C_9  and  C_31
    3  A    between atoms: C_9  and  C_32
    4  A    between atoms: C_13  and  C_29
    5  A    between atoms: C_16  and  O_24
    6  A    between atoms: C_22  and  C_23
    7  A    between atoms: O_24  and  C_27
    8  A    between atoms: C_28  and  C_32
                            x       y       z     vdW  Elec       q    Type
                         _______ _______ _______ _____ _____    ______ ____

>  <TORSDO>
F 8

$$$$
=
 OpenBabel11062408313D

 32 36  0  0  1  0  0  0  0  0999 V2000
  162.2990  206.0970  148.3080 C   0  0  2  0  0  3  0  0  0  0  0  0
  160.9710  204.7170  149.9860 C   0  0  0  0  0  0  0  0  0  0  0  0
  162.1480  206.9430  147.0440 C   0  0  0  0  0  2  0  0  0  0  0  0
  160.9820  205.3550  148.6300 C   0  0  2  0  0  3  0  0  0  0  0  0
  160.8880  203.3380  149.9260 C   0  0  0  0  0  0  0  0  0  0  0  0
  160.9620  205.3760  151.2200 C   0  0  0  0  0  3  0  0  0  0  0  0
  160.8370  203.2120  152.3290 C   0  0  0  0  0  3  0  0  0  0  0  0
  160.8470  204.1290  147.7500 C   0  0  0  0  0  0  0  0  0  0  0  0
  160.8160  202.5650  151.0850 C   0  0  0  0  0  3  0  0  0  0  0  0
  160.7270  204.1540  146.4160 C   0  0  0  0  0  3  0  0  0  0  0  0
  160.7590  205.4220  145.6220 C   0  0  0  0  0  2  0  0  0  0  0  0
  160.9110  204.6150  152.3960 C   0  0  0  0  0  0  0  0  0  0  0  0
  160.8260  202.8420  148.5280 C   0  0  1  0  0  3  0  0  0  0  0  0
  162.1080  206.1070  145.7720 C   0  0  0  0  0  2  0  0  0  0  0  0
  162.0060  201.9240  148.1850 C   0  0  0  0  0  2  0  0  0  0  0  0
  161.4950  200.2940  147.5350 S   0  0  0  0  0  1  0  0  0  0  0  0
  162.7150  207.0350  149.4310 C   0  0  0  0  0  2  0  0  0  0  0  0
  162.4570  208.3810  149.0570 O   0  0  0  0  0  0  0  0  0  0  0  0
  160.4360  212.1640  152.5950 F   0  0  0  0  0  0  0  0  0  0  0  0
  161.0130  209.9030  152.1220 C   0  0  0  0  0  3  0  0  0  0  0  0
  161.9260  209.3250  149.9430 C   0  0  0  0  0  0  0  0  0  0  0  0
  161.3150  211.6210  150.4490 C   0  0  0  0  0  3  0  0  0  0  0  0
  161.5180  208.9510  151.2340 C   0  0  0  0  0  3  0  0  0  0  0  0
  161.8020  210.6700  149.5400 C   0  0  0  0  0  0  0  0  0  0  0  0
  160.9160  211.2380  151.7310 C   0  0  0  0  0  0  0  0  0  0  0  0
  161.5460  212.3790  147.7590 C   0  0  0  0  0  2  0  0  0  0  0  0
  162.9670  212.4640  148.2610 C   0  0  0  0  0  2  0  0  0  0  0  0
  162.2740  211.1130  148.1810 C   0  0  0  0  0  3  0  0  0  0  0  0
  160.9540  205.3020  153.7210 C   0  0  0  0  0  2  0  0  0  0  0  0
  160.9770  206.8190  153.5670 C   0  0  0  0  0  2  0  0  0  0  0  0
  160.0050  207.3280  155.8060 C   0  0  0  0  0  1  0  0  0  0  0  0
  161.2060  207.5130  154.9010 C   0  0  0  0  0  2  0  0  0  0  0  0
  1  4  1  0  0  0  0
  1 17  1  1  0  0  0
  2  6  1  0  0  0  0
  3  1  1  0  0  0  0
  4  8  1  6  0  0  0
  4  2  1  0  0  0  0
  5  2  2  0  0  0  0
  5  9  1  0  0  0  0
  6 12  2  0  0  0  0
  7 12  1  0  0  0  0
  8 13  1  0  0  0  0
  9  7  2  0  0  0  0
 10  8  2  0  0  0  0
 11 14  1  0  0  0  0
 11 10  1  0  0  0  0
 12 29  1  0  0  0  0
 13 15  1  6  0  0  0
 13  5  1  0  0  0  0
 14  3  1  0  0  0  0
 16 15  1  0  0  0  0
 18 17  1  0  0  0  0
 18 21  1  0  0  0  0
 21 23  1  0  0  0  0
 22 25  2  0  0  0  0
 23 20  2  0  0  0  0
 24 21  2  0  0  0  0
 24 22  1  0  0  0  0
 25 20  1  0  0  0  0
 25 19  1  0  0  0  0
 26 28  1  0  0  0  0
 26 27  1  0  0  0  0
 28 27  1  0  0  0  0
 28 24  1  0  0  0  0
 30 29  1  0  0  0  0
 30 32  1  0  0  0  0
 32 31  1  0  0  0  0
M  END
>  <MODEL>
8

>  <REMARK>
 VINA RESULT:      -6.8      3.872      8.577
  Name = 
  8 active torsions:
  status: ('A' for Active; 'I' for Inactive)
    1  A    between atoms: C_1  and  C_27
    2  A    between atoms: C_9  and  C_31
    3  A    between atoms: C_9  and  C_32
    4  A    between atoms: C_13  and  C_29
    5  A    between atoms: C_16  and  O_24
    6  A    between atoms: C_22  and  C_23
    7  A    between atoms: O_24  and  C_27
    8  A    between atoms: C_28  and  C_32
                            x       y       z     vdW  Elec       q    Type
                         _______ _______ _______ _____ _____    ______ ____

>  <TORSDO>
F 8

$$$$
=
 OpenBabel11062408313D

 32 36  0  0  1  0  0  0  0  0999 V2000
  159.8820  211.0170  153.7060 C   0  0  2  0  0  3  0  0  0  0  0  0
  161.3340  209.1810  152.7050 C   0  0  0  0  0  0  0  0  0  0  0  0
  159.9370  212.2530  154.6040 C   0  0  0  0  0  2  0  0  0  0  0  0
  161.2210  210.2490  153.7510 C   0  0  2  0  0  3  0  0  0  0  0  0
  161.4190  207.9120  153.2470 C   0  0  0  0  0  0  0  0  0  0  0  0
  161.4280  209.3700  151.3230 C   0  0  0  0  0  3  0  0  0  0  0  0
  161.6430  206.9610  151.0470 C   0  0  0  0  0  3  0  0  0  0  0  0
  161.2990  209.4090  155.0090 C   0  0  0  0  0  0  0  0  0  0  0  0
  161.5780  206.7860  152.4370 C   0  0  0  0  0  3  0  0  0  0  0  0
  161.3230  209.8980  156.2550 C   0  0  0  0  0  3  0  0  0  0  0  0
  161.2280  211.3620  156.5540 C   0  0  0  0  0  2  0  0  0  0  0  0
  161.5670  208.2500  150.4910 C   0  0  0  0  0  0  0  0  0  0  0  0
  161.3830  207.9330  154.7300 C   0  0  1  0  0  3  0  0  0  0  0  0
  159.8890  211.9120  156.0860 C   0  0  0  0  0  2  0  0  0  0  0  0
  160.1850  207.1560  155.2940 C   0  0  0  0  0  2  0  0  0  0  0  0
  160.2240  206.9770  157.1120 S   0  0  0  0  0  1  0  0  0  0  0  0
  159.5430  211.4950  152.3020 C   0  0  0  0  0  2  0  0  0  0  0  0
  159.0770  212.8360  152.3470 O   0  0  0  0  0  0  0  0  0  0  0  0
  154.4830  214.4530  149.6660 F   0  0  0  0  0  0  0  0  0  0  0  0
  156.6860  213.5540  149.5970 C   0  0  0  0  0  3  0  0  0  0  0  0
  157.9320  213.2630  151.6650 C   0  0  0  0  0  0  0  0  0  0  0  0
  155.6880  214.1910  151.7040 C   0  0  0  0  0  3  0  0  0  0  0  0
  157.8420  213.1500  150.2680 C   0  0  0  0  0  3  0  0  0  0  0  0
  156.8520  213.8100  152.3870 C   0  0  0  0  0  0  0  0  0  0  0  0
  155.6080  214.0710  150.3150 C   0  0  0  0  0  0  0  0  0  0  0  0
  155.5040  214.1530  154.4420 C   0  0  0  0  0  2  0  0  0  0  0  0
  156.1060  212.7700  154.5260 C   0  0  0  0  0  2  0  0  0  0  0  0
  156.8970  213.9020  153.8880 C   0  0  0  0  0  3  0  0  0  0  0  0
  161.6170  208.4340  149.0100 C   0  0  0  0  0  2  0  0  0  0  0  0
  162.2770  207.2460  148.3180 C   0  0  0  0  0  2  0  0  0  0  0  0
  161.9190  205.0680  147.1580 C   0  0  0  0  0  1  0  0  0  0  0  0
  161.2460  206.3130  147.7010 C   0  0  0  0  0  2  0  0  0  0  0  0
  1 17  1  6  0  0  0
  1  4  1  0  0  0  0
  1  3  1  0  0  0  0
  2  5  1  0  0  0  0
  3 14  1  0  0  0  0
  4  2  1  6  0  0  0
  4  8  1  0  0  0  0
  5 13  1  0  0  0  0
  6  2  2  0  0  0  0
  7  9  1  0  0  0  0
  8 10  2  0  0  0  0
  9  5  2  0  0  0  0
 10 11  1  0  0  0  0
 12  7  2  0  0  0  0
 12  6  1  0  0  0  0
 13  8  1  0  0  0  0
 13 15  1  6  0  0  0
 14 11  1  0  0  0  0
 15 16  1  0  0  0  0
 17 18  1  0  0  0  0
 19 25  1  0  0  0  0
 20 23  2  0  0  0  0
 20 25  1  0  0  0  0
 21 18  1  0  0  0  0
 21 24  2  0  0  0  0
 22 24  1  0  0  0  0
 23 21  1  0  0  0  0
 24 28  1  0  0  0  0
 25 22  2  0  0  0  0
 26 27  1  0  0  0  0
 28 26  1  0  0  0  0
 28 27  1  0  0  0  0
 29 12  1  0  0  0  0
 30 29  1  0  0  0  0
 31 32  1  0  0  0  0
 32 30  1  0  0  0  0
M  END
>  <MODEL>
9

>  <REMARK>
 VINA RESULT:      -6.7      2.788      7.109
  Name = 
  8 active torsions:
  status: ('A' for Active; 'I' for Inactive)
    1  A    between atoms: C_1  and  C_27
    2  A    between atoms: C_9  and  C_31
    3  A    between atoms: C_9  and  C_32
    4  A    between atoms: C_13  and  C_29
    5  A    between atoms: C_16  and  O_24
    6  A    between atoms: C_22  and  C_23
    7  A    between atoms: O_24  and  C_27
    8  A    between atoms: C_28  and  C_32
                            x       y       z     vdW  Elec       q    Type
                         _______ _______ _______ _____ _____    ______ ____

>  <TORSDO>
F 8

$$$$
