=
 OpenBabel11062409263D

 34 39  0  0  1  0  0  0  0  0999 V2000
  161.3010  205.3290  149.9680 C   0  0  0  0  0  0  0  0  0  0  0  0
  162.2160  203.6140  146.5300 C   0  0  0  0  0  2  0  0  0  0  0  0
  161.3480  202.7600  148.6500 C   0  0  0  0  0  3  0  0  0  0  0  0
  161.4000  206.3180  152.1070 C   0  0  0  0  0  0  0  0  0  0  0  0
  161.5340  206.3800  150.7630 O   0  0  0  0  0  0  0  0  0  0  0  0
  160.7530  204.0270  151.9340 C   0  0  0  0  0  0  0  0  0  0  0  0
  160.7390  202.7050  152.2030 N   0  0  0  0  0  2  0  0  0  0  0  0
  161.0510  205.1000  152.7610 C   0  0  0  0  0  3  0  0  0  0  0  0
  160.8700  202.9550  150.0250 C   0  0  0  0  0  0  0  0  0  0  0  0
  160.8220  204.1900  150.5450 C   0  0  0  0  0  0  0  0  0  0  0  0
  160.8140  202.0520  151.0360 N   0  0  0  0  0  0  0  0  0  0  0  0
  162.6670  204.9110  145.8540 C   0  0  0  0  0  2  0  0  0  0  0  0
  161.5070  205.8090  145.3990 C   0  0  2  0  0  3  0  0  0  0  0  0
  160.2690  205.7590  146.3020 C   0  0  0  0  0  2  0  0  0  0  0  0
  161.6900  203.8480  147.9190 C   0  0  0  0  0  0  0  0  0  0  0  0
  160.5510  206.1640  147.7510 C   0  0  0  0  0  2  0  0  0  0  0  0
  161.5850  205.2930  148.4820 C   0  0  0  0  0  0  0  0  0  0  0  0
  161.2150  208.6220  154.8290 C   0  0  0  0  0  2  0  0  0  0  0  0
  160.4500  209.6060  152.0290 C   0  0  0  0  0  2  0  0  0  0  0  0
  159.9730  212.1330  155.4980 C   0  0  0  0  0  0  0  0  0  0  0  0
  160.4550  210.8300  155.6660 C   0  0  0  0  0  3  0  0  0  0  0  0
  160.6300  209.9810  154.5680 C   0  0  0  0  0  0  0  0  0  0  0  0
  161.6660  207.5500  152.9090 C   0  0  1  0  0  3  0  0  0  0  0  0
  159.8540  211.7590  153.1040 C   0  0  0  0  0  3  0  0  0  0  0  0
  160.3460  210.4590  153.2630 C   0  0  0  0  0  0  0  0  0  0  0  0
  159.6720  212.5910  154.2090 C   0  0  0  0  0  3  0  0  0  0  0  0
  161.7360  208.7860  151.9950 C   0  0  0  0  0  2  0  0  0  0  0  0
  160.7040  207.6790  153.9290 O   0  0  0  0  0  0  0  0  0  0  0  0
  159.7930  212.9890  156.6360 N   0  0  0  0  0  0  0  0  0  0  0  0
  160.7800  213.4290  157.2600 O   0  0  0  0  0  0  0  0  0  0  0  0
  158.5280  213.3330  157.0520 O   0  0  0  0  0  0  0  0  0  0  0  0
  161.1220  205.4870  143.9940 C   0  0  0  0  0  0  0  0  0  0  0  0
  161.6600  206.2040  142.9320 O   0  0  0  0  0  0  0  0  0  0  0  0
  160.3020  204.5590  143.7690 O   0  0  0  0  0  1  0  0  0  0  0  0
  1 10  1  0  0  0  0
  1  5  1  0  0  0  0
  2 15  1  0  0  0  0
  3  9  1  0  0  0  0
  4  8  2  0  0  0  0
  5  4  1  0  0  0  0
  6  7  1  0  0  0  0
  6  8  1  0  0  0  0
  9 10  1  0  0  0  0
  9 11  2  0  0  0  0
 10  6  2  0  0  0  0
 11  7  1  0  0  0  0
 12  2  1  0  0  0  0
 13 32  1  6  0  0  0
 13 12  1  0  0  0  0
 13 14  1  0  0  0  0
 14 16  1  0  0  0  0
 15 17  1  0  0  0  0
 15  3  2  0  0  0  0
 16 17  1  0  0  0  0
 17  1  2  0  0  0  0
 19 25  1  0  0  0  0
 20 21  1  0  0  0  0
 20 29  1  0  0  0  0
 22 18  1  0  0  0  0
 22 21  2  0  0  0  0
 23  4  1  6  0  0  0
 23 28  1  0  0  0  0
 24 25  2  0  0  0  0
 24 26  1  0  0  0  0
 25 22  1  0  0  0  0
 26 20  2  0  0  0  0
 27 19  1  0  0  0  0
 27 23  1  0  0  0  0
 28 18  1  0  0  0  0
 29 31  2  0  0  0  0
 29 30  2  0  0  0  0
 33 32  2  0  0  0  0
 34 32  1  0  0  0  0
M  END
>  <MODEL>
1

>  <REMARK>
 VINA RESULT:      -9.7      0.000      0.000
  Name = 
  3 active torsions:
  status: ('A' for Active; 'I' for Inactive)
    1  A    between atoms: C_3  and  C_25
    2  A    between atoms: C_7  and  N_11
    3  A    between atoms: C_8  and  C_18
                            x       y       z     vdW  Elec       q    Type
                         _______ _______ _______ _____ _____    ______ ____

>  <TORSDO>
F 3

$$$$
=
 OpenBabel11062409263D

 34 39  0  0  1  0  0  0  0  0999 V2000
  159.9940  211.0080  153.9320 C   0  0  0  0  0  0  0  0  0  0  0  0
  156.7400  212.0250  155.9240 C   0  0  0  0  0  2  0  0  0  0  0  0
  159.1010  211.8670  156.5390 C   0  0  0  0  0  3  0  0  0  0  0  0
  161.7170  209.8000  152.8670 C   0  0  0  0  0  0  0  0  0  0  0  0
  160.4680  210.3140  152.8890 O   0  0  0  0  0  0  0  0  0  0  0  0
  162.1210  210.6920  155.0440 C   0  0  0  0  0  0  0  0  0  0  0  0
  162.5110  210.7170  156.3350 N   0  0  0  0  0  2  0  0  0  0  0  0
  162.5900  209.9240  153.9870 C   0  0  0  0  0  3  0  0  0  0  0  0
  160.5090  211.6100  156.2110 C   0  0  0  0  0  0  0  0  0  0  0  0
  160.8500  211.2740  154.9590 C   0  0  0  0  0  0  0  0  0  0  0  0
  161.5240  211.2770  157.0470 N   0  0  0  0  0  0  0  0  0  0  0  0
  155.7910  211.8140  154.7420 C   0  0  0  0  0  2  0  0  0  0  0  0
  155.8300  212.9470  153.7060 C   0  0  2  0  0  3  0  0  0  0  0  0
  157.2040  213.6040  153.5300 C   0  0  0  0  0  2  0  0  0  0  0  0
  158.1780  211.7990  155.5500 C   0  0  0  0  0  0  0  0  0  0  0  0
  158.3010  212.6270  153.1020 C   0  0  0  0  0  2  0  0  0  0  0  0
  158.5600  211.4700  154.0790 C   0  0  0  0  0  0  0  0  0  0  0  0
  161.9350  208.8730  149.4250 C   0  0  0  0  0  2  0  0  0  0  0  0
  161.1420  206.7280  151.4670 C   0  0  0  0  0  2  0  0  0  0  0  0
  161.1330  205.8970  147.2290 C   0  0  0  0  0  0  0  0  0  0  0  0
  161.4730  207.1820  147.6700 C   0  0  0  0  0  3  0  0  0  0  0  0
  161.4940  207.4910  149.0340 C   0  0  0  0  0  0  0  0  0  0  0  0
  162.1610  209.0550  151.6500 C   0  0  1  0  0  3  0  0  0  0  0  0
  160.8490  205.2020  149.5360 C   0  0  0  0  0  3  0  0  0  0  0  0
  161.1990  206.4790  149.9840 C   0  0  0  0  0  0  0  0  0  0  0  0
  160.8210  204.9100  148.1710 C   0  0  0  0  0  3  0  0  0  0  0  0
  162.3240  207.5560  151.9630 C   0  0  0  0  0  2  0  0  0  0  0  0
  161.2740  209.2960  150.5850 O   0  0  0  0  0  0  0  0  0  0  0  0
  161.1100  205.5990  145.8250 N   0  0  0  0  0  0  0  0  0  0  0  0
  160.2000  206.0450  145.0970 O   0  0  0  0  0  0  0  0  0  0  0  0
  162.0940  204.8170  145.2660 O   0  0  0  0  0  0  0  0  0  0  0  0
  154.8100  213.9850  154.0350 C   0  0  0  0  0  0  0  0  0  0  0  0
  154.6720  214.4520  155.3370 O   0  0  0  0  0  1  0  0  0  0  0  0
  154.0670  214.4390  153.1260 O   0  0  0  0  0  0  0  0  0  0  0  0
  1 17  2  0  0  0  0
  1 10  1  0  0  0  0
  4  5  1  0  0  0  0
  4  8  2  0  0  0  0
  5  1  1  0  0  0  0
  6  7  1  0  0  0  0
  7 11  1  0  0  0  0
  8  6  1  0  0  0  0
  9  3  1  0  0  0  0
  9 11  2  0  0  0  0
 10  6  2  0  0  0  0
 10  9  1  0  0  0  0
 12  2  1  0  0  0  0
 13 32  1  1  0  0  0
 13 12  1  0  0  0  0
 14 13  1  0  0  0  0
 15  2  1  0  0  0  0
 15  3  2  0  0  0  0
 16 14  1  0  0  0  0
 16 17  1  0  0  0  0
 17 15  1  0  0  0  0
 18 28  1  0  0  0  0
 19 27  1  0  0  0  0
 20 21  2  0  0  0  0
 20 26  1  0  0  0  0
 21 22  1  0  0  0  0
 22 18  1  0  0  0  0
 22 25  2  0  0  0  0
 23 27  1  0  0  0  0
 23  4  1  1  0  0  0
 24 25  1  0  0  0  0
 25 19  1  0  0  0  0
 26 24  2  0  0  0  0
 28 23  1  0  0  0  0
 29 20  1  0  0  0  0
 30 29  2  0  0  0  0
 31 29  2  0  0  0  0
 32 33  1  0  0  0  0
 34 32  2  0  0  0  0
M  END
>  <MODEL>
2

>  <REMARK>
 VINA RESULT:      -8.0      2.745     10.006
  Name = 
  3 active torsions:
  status: ('A' for Active; 'I' for Inactive)
    1  A    between atoms: C_3  and  C_25
    2  A    between atoms: C_7  and  N_11
    3  A    between atoms: C_8  and  C_18
                            x       y       z     vdW  Elec       q    Type
                         _______ _______ _______ _____ _____    ______ ____

>  <TORSDO>
F 3

$$$$
=
 OpenBabel11062409263D

 34 39  0  0  1  0  0  0  0  0999 V2000
  160.2780  208.8430  153.8900 C   0  0  0  0  0  0  0  0  0  0  0  0
  157.3290  211.0650  155.2890 C   0  0  0  0  0  2  0  0  0  0  0  0
  159.1180  209.7880  156.3590 C   0  0  0  0  0  3  0  0  0  0  0  0
  161.5620  207.0760  153.0010 C   0  0  0  0  0  0  0  0  0  0  0  0
  160.6960  208.1030  152.8560 O   0  0  0  0  0  0  0  0  0  0  0  0
  161.6570  207.4910  155.3490 C   0  0  0  0  0  0  0  0  0  0  0  0
  161.6310  207.2220  156.6710 N   0  0  0  0  0  2  0  0  0  0  0  0
  162.0430  206.6880  154.2850 C   0  0  0  0  0  3  0  0  0  0  0  0
  160.3170  208.9420  156.3000 C   0  0  0  0  0  0  0  0  0  0  0  0
  160.8310  208.5970  155.1110 C   0  0  0  0  0  0  0  0  0  0  0  0
  160.8100  208.1090  157.2500 N   0  0  0  0  0  0  0  0  0  0  0  0
  156.7640  211.4160  153.9110 C   0  0  0  0  0  2  0  0  0  0  0  0
  157.5720  212.4900  153.1650 C   0  0  2  0  0  3  0  0  0  0  0  0
  159.0800  212.4550  153.4340 C   0  0  0  0  0  2  0  0  0  0  0  0
  158.5800  210.2370  155.2000 C   0  0  0  0  0  0  0  0  0  0  0  0
  159.7380  211.1240  153.0630 C   0  0  0  0  0  2  0  0  0  0  0  0
  159.1950  209.8970  153.8130 C   0  0  0  0  0  0  0  0  0  0  0  0
  161.6220  206.0260  149.5880 C   0  0  0  0  0  2  0  0  0  0  0  0
  161.1500  203.9130  151.7570 C   0  0  0  0  0  2  0  0  0  0  0  0
  160.9220  202.9070  147.5630 C   0  0  0  0  0  0  0  0  0  0  0  0
  161.1840  204.2310  147.9330 C   0  0  0  0  0  3  0  0  0  0  0  0
  161.2720  204.5980  149.2800 C   0  0  0  0  0  0  0  0  0  0  0  0
  161.9830  206.3180  151.7840 C   0  0  1  0  0  3  0  0  0  0  0  0
  160.8530  202.2880  149.9080 C   0  0  0  0  0  3  0  0  0  0  0  0
  161.1260  203.6070  150.2840 C   0  0  0  0  0  0  0  0  0  0  0  0
  160.7560  201.9380  148.5610 C   0  0  0  0  0  3  0  0  0  0  0  0
  162.2900  204.8520  152.1380 C   0  0  0  0  0  2  0  0  0  0  0  0
  161.0090  206.4430  150.7760 O   0  0  0  0  0  0  0  0  0  0  0  0
  160.8290  202.5490  146.1770 N   0  0  0  0  0  0  0  0  0  0  0  0
  160.4760  201.4010  145.8410 O   0  0  0  0  0  0  0  0  0  0  0  0
  161.1280  203.4720  145.2010 O   0  0  0  0  0  0  0  0  0  0  0  0
  157.0330  213.8480  153.4710 C   0  0  0  0  0  0  0  0  0  0  0  0
  157.2980  214.4530  154.6940 O   0  0  0  0  0  1  0  0  0  0  0  0
  156.3330  214.4480  152.6150 O   0  0  0  0  0  0  0  0  0  0  0  0
  1 10  1  0  0  0  0
  4  8  2  0  0  0  0
  5  4  1  0  0  0  0
  5  1  1  0  0  0  0
  6  7  1  0  0  0  0
  7 11  1  0  0  0  0
  8  6  1  0  0  0  0
  9  3  1  0  0  0  0
  9 11  2  0  0  0  0
 10  6  2  0  0  0  0
 10  9  1  0  0  0  0
 12  2  1  0  0  0  0
 13 14  1  0  0  0  0
 13 32  1  1  0  0  0
 13 12  1  0  0  0  0
 15  2  1  0  0  0  0
 15  3  2  0  0  0  0
 16 14  1  0  0  0  0
 16 17  1  0  0  0  0
 17  1  2  0  0  0  0
 17 15  1  0  0  0  0
 18 28  1  0  0  0  0
 19 27  1  0  0  0  0
 20 21  2  0  0  0  0
 20 26  1  0  0  0  0
 21 22  1  0  0  0  0
 22 18  1  0  0  0  0
 22 25  2  0  0  0  0
 23 27  1  0  0  0  0
 23  4  1  1  0  0  0
 24 25  1  0  0  0  0
 25 19  1  0  0  0  0
 26 24  2  0  0  0  0
 28 23  1  0  0  0  0
 29 20  1  0  0  0  0
 30 29  2  0  0  0  0
 31 29  2  0  0  0  0
 32 33  1  0  0  0  0
 34 32  2  0  0  0  0
M  END
>  <MODEL>
3

>  <REMARK>
 VINA RESULT:      -7.2      2.463      9.682
  Name = 
  3 active torsions:
  status: ('A' for Active; 'I' for Inactive)
    1  A    between atoms: C_3  and  C_25
    2  A    between atoms: C_7  and  N_11
    3  A    between atoms: C_8  and  C_18
                            x       y       z     vdW  Elec       q    Type
                         _______ _______ _______ _____ _____    ______ ____

>  <TORSDO>
F 3

$$$$
=
 OpenBabel11062409263D

 34 39  0  0  1  0  0  0  0  0999 V2000
  161.2240  207.8060  151.0700 C   0  0  0  0  0  0  0  0  0  0  0  0
  160.8510  204.3520  149.1920 C   0  0  0  0  0  2  0  0  0  0  0  0
  161.8610  206.4920  148.5790 C   0  0  0  0  0  3  0  0  0  0  0  0
  160.8300  209.9400  151.9930 C   0  0  0  0  0  0  0  0  0  0  0  0
  160.7140  208.5940  152.0250 O   0  0  0  0  0  0  0  0  0  0  0  0
  162.0430  209.7860  149.9430 C   0  0  0  0  0  0  0  0  0  0  0  0
  162.3870  210.0570  148.6670 N   0  0  0  0  0  0  0  0  0  0  0  0
  161.4630  210.6040  150.9020 C   0  0  0  0  0  3  0  0  0  0  0  0
  162.2440  207.8770  148.8840 C   0  0  0  0  0  0  0  0  0  0  0  0
  161.9650  208.3950  150.0890 C   0  0  0  0  0  0  0  0  0  0  0  0
  162.5060  208.8900  148.0210 N   0  0  0  0  0  0  0  0  0  0  0  0
  160.1000  203.6630  150.3340 C   0  0  0  0  0  2  0  0  0  0  0  0
  161.0030  203.2320  151.5000 C   0  0  2  0  0  3  0  0  0  0  0  0
  162.1920  204.1630  151.7630 C   0  0  0  0  0  2  0  0  0  0  0  0
  161.2700  205.7520  149.5470 C   0  0  0  0  0  0  0  0  0  0  0  0
  161.7850  205.6040  152.0780 C   0  0  0  0  0  2  0  0  0  0  0  0
  160.9910  206.3140  150.9690 C   0  0  1  0  0  3  0  0  0  0  0  0
  158.7460  210.7180  154.7860 C   0  0  0  0  0  2  0  0  0  0  0  0
  158.6340  212.5460  152.3280 C   0  0  0  0  0  2  0  0  0  0  0  0
  155.9540  213.1170  155.6670 C   0  0  0  0  0  0  0  0  0  0  0  0
  156.8660  212.0550  155.6990 C   0  0  0  0  0  3  0  0  0  0  0  0
  157.7550  211.8390  154.6410 C   0  0  0  0  0  0  0  0  0  0  0  0
  160.2420  210.7340  153.1140 C   0  0  1  0  0  3  0  0  0  0  0  0
  156.8340  213.7790  153.5040 C   0  0  0  0  0  3  0  0  0  0  0  0
  157.7550  212.7270  153.5360 C   0  0  0  0  0  0  0  0  0  0  0  0
  155.9440  213.9770  154.5610 C   0  0  0  0  0  3  0  0  0  0  0  0
  160.0740  212.2080  152.7030 C   0  0  0  0  0  2  0  0  0  0  0  0
  159.0370  210.1470  153.5420 O   0  0  0  0  0  0  0  0  0  0  0  0
  155.0450  213.3210  156.7570 N   0  0  0  0  0  0  0  0  0  0  0  0
  154.9010  214.4530  157.2600 O   0  0  0  0  0  0  0  0  0  0  0  0
  154.3190  212.2660  157.2610 O   0  0  0  0  0  0  0  0  0  0  0  0
  161.4870  201.8370  151.2910 C   0  0  0  0  0  0  0  0  0  0  0  0
  160.8840  201.0130  150.3480 O   0  0  0  0  0  0  0  0  0  0  0  0
  162.4480  201.4010  151.9770 O   0  0  0  0  0  1  0  0  0  0  0  0
  1  5  1  0  0  0  0
  2 15  1  0  0  0  0
  2 12  1  0  0  0  0
  3  9  1  0  0  0  0
  3 15  2  0  0  0  0
  4  5  1  0  0  0  0
  6 10  1  0  0  0  0
  6  8  1  0  0  0  0
  7  6  2  0  0  0  0
  8  4  2  0  0  0  0
  9 10  1  0  0  0  0
 10  1  2  0  0  0  0
 11  7  1  0  0  0  0
 11  9  2  0  0  0  0
 12 13  1  0  0  0  0
 13 32  1  6  0  0  0
 13 14  1  0  0  0  0
 14 16  1  0  0  0  0
 15 17  1  0  0  0  0
 17  1  1  0  0  0  0
 17 16  1  1  0  0  0
 19 27  1  0  0  0  0
 19 25  1  0  0  0  0
 20 21  1  0  0  0  0
 20 29  1  0  0  0  0
 22 18  1  0  0  0  0
 22 21  2  0  0  0  0
 23  4  1  6  0  0  0
 23 28  1  0  0  0  0
 24 25  2  0  0  0  0
 24 26  1  0  0  0  0
 25 22  1  0  0  0  0
 26 20  2  0  0  0  0
 27 23  1  0  0  0  0
 28 18  1  0  0  0  0
 29 30  2  0  0  0  0
 29 31  2  0  0  0  0
 32 34  1  0  0  0  0
 33 32  2  0  0  0  0
M  END
>  <MODEL>
4

>  <REMARK>
 VINA RESULT:      -7.2      3.586      5.127
  Name = 
  3 active torsions:
  status: ('A' for Active; 'I' for Inactive)
    1  A    between atoms: C_3  and  C_25
    2  A    between atoms: C_7  and  N_11
    3  A    between atoms: C_8  and  C_18
                            x       y       z     vdW  Elec       q    Type
                         _______ _______ _______ _____ _____    ______ ____

>  <TORSDO>
F 3

$$$$
