=
 OpenBabel11052423043D

 28 30  0  0  1  0  0  0  0  0999 V2000
  160.9000  208.7010  151.3560 N   0  0  0  0  0  2  0  0  0  0  0  0
  160.5680  206.8780  153.3940 C   0  0  0  0  0  1  0  0  0  0  0  0
  161.3270  206.3670  152.1760 C   0  0  1  0  0  0  0  0  0  0  0  0
  161.3000  211.1210  148.7820 C   0  0  0  0  0  2  0  0  0  0  0  0
  161.0940  202.7200  151.6300 C   0  0  0  0  0  1  0  0  0  0  0  0
  162.7120  205.9010  152.5950 C   0  0  0  0  0  2  0  0  0  0  0  0
  160.0020  205.5910  150.2790 C   0  0  0  0  0  2  0  0  0  0  0  0
  161.7620  206.4800  148.7060 C   0  0  2  0  0  3  0  0  0  0  0  0
  160.6080  205.1610  151.6000 C   0  0  1  0  0  3  0  0  0  0  0  0
  161.9030  208.9210  147.9160 C   0  0  0  0  0  2  0  0  0  0  0  0
  160.7550  206.8290  149.8120 C   0  0  2  0  0  3  0  0  0  0  0  0
  162.8110  209.8250  150.2100 C   0  0  0  0  0  2  0  0  0  0  0  0
  162.6720  207.6510  148.2910 C   0  0  0  0  0  2  0  0  0  0  0  0
  161.9550  209.9810  148.9820 C   0  0  0  0  0  0  0  0  0  0  0  0
  161.6670  204.1010  151.3770 C   0  0  1  0  0  3  0  0  0  0  0  0
  161.9840  209.6730  151.4930 C   0  0  0  0  0  2  0  0  0  0  0  0
  161.4620  207.3900  151.0380 C   0  0  1  0  0  3  0  0  0  0  0  0
  162.7570  204.4010  152.3780 C   0  0  0  0  0  2  0  0  0  0  0  0
  161.0960  205.7870  147.5030 C   0  0  1  0  0  3  0  0  0  0  0  0
  159.9080  206.3420  145.7140 C   0  0  0  0  0  1  0  0  0  0  0  0
  161.1050  206.6210  146.3770 O   0  0  0  0  0  0  0  0  0  0  0  0
  161.7660  204.4450  147.1910 C   0  0  1  0  0  3  0  0  0  0  0  0
  161.2070  203.3800  148.0790 C   0  0  0  0  0  3  0  0  0  0  0  0
  161.1930  202.1130  147.6910 C   0  0  0  0  0  3  0  0  0  0  0  0
  160.6710  201.1380  148.5290 O   0  0  0  0  0  1  0  0  0  0  0  0
  161.5470  204.0970  145.8540 O   0  0  0  0  0  0  0  0  0  0  0  0
  162.7400  204.4140  145.2000 C   0  0  0  0  0  2  0  0  0  0  0  0
  163.8820  204.3820  146.1930 C   0  0  0  0  0  1  0  0  0  0  0  0
  1 16  1  0  0  0  0
  3  6  1  0  0  0  0
  3  2  1  1  0  0  0
  4 14  2  0  0  0  0
  8 19  1  6  0  0  0
  8 11  1  0  0  0  0
  9  7  1  6  0  0  0
  9  3  1  0  0  0  0
 10 13  1  0  0  0  0
 10 14  1  0  0  0  0
 11  7  1  1  0  0  0
 11 17  1  0  0  0  0
 12 16  1  0  0  0  0
 13  8  1  0  0  0  0
 14 12  1  0  0  0  0
 15  9  1  0  0  0  0
 15  5  1  1  0  0  0
 15 18  1  0  0  0  0
 17  1  1  1  0  0  0
 17  3  1  0  0  0  0
 18  6  1  0  0  0  0
 19 21  1  6  0  0  0
 20 21  1  0  0  0  0
 22 19  1  0  0  0  0
 22 23  1  1  0  0  0
 24 23  2  0  0  0  0
 24 25  1  0  0  0  0
 26 22  1  0  0  0  0
 27 26  1  0  0  0  0
 27 28  1  0  0  0  0
M  END
>  <MODEL>
1

>  <REMARK>
 VINA RESULT:      -4.7      0.000      0.000
  Name = 
  6 active torsions:
  status: ('A' for Active; 'I' for Inactive)
    1  A    between atoms: C_9  and  O_12
    2  A    between atoms: C_9  and  C_13
    3  A    between atoms: C_9  and  C_14
    4  A    between atoms: C_10  and  C_13
    5  A    between atoms: O_12  and  C_15
    6  A    between atoms: C_13  and  O_24
                            x       y       z     vdW  Elec       q    Type
                         _______ _______ _______ _____ _____    ______ ____

>  <TORSDO>
F 6

$$$$
=
 OpenBabel11052423043D

 28 30  0  0  1  0  0  0  0  0999 V2000
  160.6030  211.4010  156.1510 N   0  0  0  0  0  2  0  0  0  0  0  0
  159.2630  213.6770  155.3700 C   0  0  0  0  0  1  0  0  0  0  0  0
  158.9990  212.4380  154.5230 C   0  0  1  0  0  0  0  0  0  0  0  0
  162.3580  208.5060  157.2390 C   0  0  0  0  0  2  0  0  0  0  0  0
  158.0360  213.1360  151.0250 C   0  0  0  0  0  1  0  0  0  0  0  0
  157.5140  212.1150  154.5380 C   0  0  0  0  0  2  0  0  0  0  0  0
  160.6220  211.9110  152.7780 C   0  0  0  0  0  2  0  0  0  0  0  0
  160.2430  209.4510  153.1900 C   0  0  2  0  0  3  0  0  0  0  0  0
  159.3760  212.7200  153.0800 C   0  0  1  0  0  3  0  0  0  0  0  0
  161.4160  208.0900  155.0260 C   0  0  0  0  0  2  0  0  0  0  0  0
  160.6960  210.7860  153.8010 C   0  0  2  0  0  3  0  0  0  0  0  0
  160.0020  209.1260  156.9830 C   0  0  0  0  0  2  0  0  0  0  0  0
  160.1410  208.2970  154.2050 C   0  0  0  0  0  2  0  0  0  0  0  0
  161.3030  208.6050  156.4350 C   0  0  0  0  0  0  0  0  0  0  0  0
  158.2150  212.2400  152.2340 C   0  0  1  0  0  3  0  0  0  0  0  0
  160.0370  210.6350  157.2610 C   0  0  0  0  0  2  0  0  0  0  0  0
  159.7900  211.1940  154.9550 C   0  0  1  0  0  3  0  0  0  0  0  0
  157.0010  212.3280  153.1280 C   0  0  0  0  0  2  0  0  0  0  0  0
  161.0550  209.0740  151.9380 C   0  0  1  0  0  3  0  0  0  0  0  0
  162.6020  210.2680  150.8880 C   0  0  0  0  0  1  0  0  0  0  0  0
  162.3780  209.5200  152.0460 O   0  0  0  0  0  0  0  0  0  0  0  0
  161.0090  207.5650  151.6770 C   0  0  1  0  0  3  0  0  0  0  0  0
  160.6780  207.3070  150.2430 C   0  0  0  0  0  3  0  0  0  0  0  0
  161.5490  207.5880  149.2850 C   0  0  0  0  0  3  0  0  0  0  0  0
  161.2240  207.3410  147.9580 O   0  0  0  0  0  1  0  0  0  0  0  0
  162.2460  206.9860  151.9800 O   0  0  0  0  0  0  0  0  0  0  0  0
  162.0420  205.6110  151.8450 C   0  0  0  0  0  2  0  0  0  0  0  0
  161.2940  205.0910  153.0540 C   0  0  0  0  0  1  0  0  0  0  0  0
  1 16  1  0  0  0  0
  3  6  1  0  0  0  0
  3 17  1  0  0  0  0
  3  2  1  1  0  0  0
  8 19  1  6  0  0  0
  8 11  1  0  0  0  0
  8 13  1  0  0  0  0
  9  7  1  6  0  0  0
  9  3  1  0  0  0  0
 10 14  1  0  0  0  0
 11  7  1  6  0  0  0
 11 17  1  0  0  0  0
 12 16  1  0  0  0  0
 13 10  1  0  0  0  0
 14 12  1  0  0  0  0
 14  4  2  0  0  0  0
 15  5  1  6  0  0  0
 15  9  1  0  0  0  0
 15 18  1  0  0  0  0
 17  1  1  1  0  0  0
 18  6  1  0  0  0  0
 19 21  1  1  0  0  0
 20 21  1  0  0  0  0
 22 23  1  6  0  0  0
 22 19  1  0  0  0  0
 22 26  1  0  0  0  0
 24 23  2  0  0  0  0
 25 24  1  0  0  0  0
 27 26  1  0  0  0  0
 27 28  1  0  0  0  0
M  END
>  <MODEL>
2

>  <REMARK>
 VINA RESULT:      -4.5      3.968      7.097
  Name = 
  6 active torsions:
  status: ('A' for Active; 'I' for Inactive)
    1  A    between atoms: C_9  and  O_12
    2  A    between atoms: C_9  and  C_13
    3  A    between atoms: C_9  and  C_14
    4  A    between atoms: C_10  and  C_13
    5  A    between atoms: O_12  and  C_15
    6  A    between atoms: C_13  and  O_24
                            x       y       z     vdW  Elec       q    Type
                         _______ _______ _______ _____ _____    ______ ____

>  <TORSDO>
F 6

$$$$
=
 OpenBabel11052423043D

 28 30  0  0  1  0  0  0  0  0999 V2000
  161.0530  208.7950  151.6480 N   0  0  0  0  0  2  0  0  0  0  0  0
  160.8370  206.8660  153.6020 C   0  0  0  0  0  1  0  0  0  0  0  0
  161.4490  206.4000  152.2850 C   0  0  1  0  0  0  0  0  0  0  0  0
  161.3110  211.3520  149.1900 C   0  0  0  0  0  2  0  0  0  0  0  0
  160.9960  202.8060  151.5580 C   0  0  0  0  0  1  0  0  0  0  0  0
  162.8450  205.8530  152.5360 C   0  0  0  0  0  2  0  0  0  0  0  0
  159.9110  205.7970  150.4900 C   0  0  0  0  0  2  0  0  0  0  0  0
  161.5480  206.7090  148.8020 C   0  0  2  0  0  3  0  0  0  0  0  0
  160.6220  205.2620  151.7170 C   0  0  1  0  0  3  0  0  0  0  0  0
  161.7240  209.1860  148.1430 C   0  0  0  0  0  2  0  0  0  0  0  0
  160.6710  207.0300  150.0220 C   0  0  2  0  0  3  0  0  0  0  0  0
  162.8920  209.9100  150.3820 C   0  0  0  0  0  2  0  0  0  0  0  0
  162.4660  207.8660  148.3650 C   0  0  0  0  0  2  0  0  0  0  0  0
  161.9290  210.1760  149.2580 C   0  0  0  0  0  0  0  0  0  0  0  0
  161.6040  204.1760  151.3280 C   0  0  1  0  0  3  0  0  0  0  0  0
  162.1890  209.7120  151.7310 C   0  0  0  0  0  2  0  0  0  0  0  0
  161.5200  207.4850  151.2010 C   0  0  1  0  0  3  0  0  0  0  0  0
  162.8000  204.3690  152.2300 C   0  0  0  0  0  2  0  0  0  0  0  0
  160.7360  206.1200  147.6340 C   0  0  1  0  0  3  0  0  0  0  0  0
  160.1400  206.2420  145.5010 C   0  0  0  0  0  1  0  0  0  0  0  0
  160.8220  206.9380  146.5010 O   0  0  0  0  0  0  0  0  0  0  0  0
  161.1840  204.6910  147.3090 C   0  0  1  0  0  3  0  0  0  0  0  0
  162.6620  204.6600  147.0890 C   0  0  0  0  0  3  0  0  0  0  0  0
  163.1650  204.3350  145.9070 C   0  0  0  0  0  3  0  0  0  0  0  0
  164.5410  204.3110  145.7220 O   0  0  0  0  0  1  0  0  0  0  0  0
  160.8530  203.8310  148.3610 O   0  0  0  0  0  0  0  0  0  0  0  0
  161.1390  202.5510  147.8830 C   0  0  0  0  0  2  0  0  0  0  0  0
  160.2700  201.5390  148.5990 C   0  0  0  0  0  1  0  0  0  0  0  0
  1 16  1  0  0  0  0
  3  6  1  0  0  0  0
  3  2  1  1  0  0  0
  4 14  2  0  0  0  0
  8 19  1  6  0  0  0
  8 11  1  0  0  0  0
  9  7  1  6  0  0  0
  9  3  1  0  0  0  0
 10 13  1  0  0  0  0
 10 14  1  0  0  0  0
 11  7  1  1  0  0  0
 11 17  1  0  0  0  0
 12 16  1  0  0  0  0
 13  8  1  0  0  0  0
 14 12  1  0  0  0  0
 15  5  1  1  0  0  0
 15  9  1  0  0  0  0
 15 18  1  0  0  0  0
 17  1  1  1  0  0  0
 17  3  1  0  0  0  0
 18  6  1  0  0  0  0
 19 21  1  6  0  0  0
 20 21  1  0  0  0  0
 22 23  1  1  0  0  0
 22 19  1  0  0  0  0
 22 26  1  0  0  0  0
 24 23  2  0  0  0  0
 25 24  1  0  0  0  0
 27 26  1  0  0  0  0
 27 28  1  0  0  0  0
M  END
>  <MODEL>
3

>  <REMARK>
 VINA RESULT:      -4.3      0.886      1.881
  Name = 
  6 active torsions:
  status: ('A' for Active; 'I' for Inactive)
    1  A    between atoms: C_9  and  O_12
    2  A    between atoms: C_9  and  C_13
    3  A    between atoms: C_9  and  C_14
    4  A    between atoms: C_10  and  C_13
    5  A    between atoms: O_12  and  C_15
    6  A    between atoms: C_13  and  O_24
                            x       y       z     vdW  Elec       q    Type
                         _______ _______ _______ _____ _____    ______ ____

>  <TORSDO>
F 6

$$$$
=
 OpenBabel11052423043D

 28 30  0  0  1  0  0  0  0  0999 V2000
  161.5410  202.8350  145.9530 N   0  0  0  0  0  2  0  0  0  0  0  0
  161.6120  200.6880  147.6760 C   0  0  0  0  0  1  0  0  0  0  0  0
  160.9240  201.9380  148.2140 C   0  0  1  0  0  0  0  0  0  0  0  0
  161.4770  205.5510  143.6580 C   0  0  0  0  0  2  0  0  0  0  0  0
  160.9990  202.2790  151.8920 C   0  0  0  0  0  1  0  0  0  0  0  0
  159.4870  201.6090  148.5860 C   0  0  0  0  0  2  0  0  0  0  0  0
  162.3490  203.6790  149.1580 C   0  0  0  0  0  2  0  0  0  0  0  0
  160.7690  205.4330  148.2680 C   0  0  2  0  0  3  0  0  0  0  0  0
  161.6190  202.3910  149.4840 C   0  0  1  0  0  3  0  0  0  0  0  0
  160.8230  206.3520  145.8690 C   0  0  0  0  0  2  0  0  0  0  0  0
  161.7040  204.2670  147.9100 C   0  0  2  0  0  3  0  0  0  0  0  0
  159.7900  204.1880  144.7970 C   0  0  0  0  0  2  0  0  0  0  0  0
  159.9590  205.9780  147.0760 C   0  0  0  0  0  2  0  0  0  0  0  0
  160.7470  205.3480  144.7520 C   0  0  0  0  0  0  0  0  0  0  0  0
  160.5240  202.6470  150.5000 C   0  0  1  0  0  3  0  0  0  0  0  0
  160.5040  202.8360  144.9210 C   0  0  0  0  0  2  0  0  0  0  0  0
  160.9350  203.1320  147.2480 C   0  0  1  0  0  3  0  0  0  0  0  0
  159.3770  201.7540  150.0910 C   0  0  0  0  0  2  0  0  0  0  0  0
  161.4880  206.5410  149.0570 C   0  0  1  0  0  3  0  0  0  0  0  0
  162.9760  207.9620  148.2280 C   0  0  0  0  0  1  0  0  0  0  0  0
  161.6050  207.7070  148.2900 O   0  0  0  0  0  0  0  0  0  0  0  0
  160.7790  206.8310  150.3840 C   0  0  1  0  0  3  0  0  0  0  0  0
  161.4690  206.1130  151.4970 C   0  0  0  0  0  3  0  0  0  0  0  0
  160.8420  205.8700  152.6390 C   0  0  0  0  0  3  0  0  0  0  0  0
  161.5000  205.2010  153.6620 O   0  0  0  0  0  1  0  0  0  0  0  0
  160.7860  208.2060  150.6420 O   0  0  0  0  0  0  0  0  0  0  0  0
  161.8430  208.3990  151.5340 C   0  0  0  0  0  2  0  0  0  0  0  0
  162.3180  209.8340  151.4490 C   0  0  0  0  0  1  0  0  0  0  0  0
  3  2  1  6  0  0  0
  3  6  1  0  0  0  0
  3  9  1  0  0  0  0
  4 14  2  0  0  0  0
  6 18  1  0  0  0  0
  8 19  1  6  0  0  0
  9  7  1  6  0  0  0
  9 15  1  0  0  0  0
 10 13  1  0  0  0  0
 11  8  1  0  0  0  0
 11  7  1  1  0  0  0
 12 16  1  0  0  0  0
 13  8  1  0  0  0  0
 14 12  1  0  0  0  0
 14 10  1  0  0  0  0
 15  5  1  1  0  0  0
 16  1  1  0  0  0  0
 17  1  1  6  0  0  0
 17 11  1  0  0  0  0
 17  3  1  0  0  0  0
 18 15  1  0  0  0  0
 19 21  1  6  0  0  0
 19 22  1  0  0  0  0
 20 21  1  0  0  0  0
 22 26  1  0  0  0  0
 22 23  1  1  0  0  0
 23 24  2  0  0  0  0
 24 25  1  0  0  0  0
 26 27  1  0  0  0  0
 28 27  1  0  0  0  0
M  END
>  <MODEL>
4

>  <REMARK>
 VINA RESULT:      -4.3      2.590      5.670
  Name = 
  6 active torsions:
  status: ('A' for Active; 'I' for Inactive)
    1  A    between atoms: C_9  and  O_12
    2  A    between atoms: C_9  and  C_13
    3  A    between atoms: C_9  and  C_14
    4  A    between atoms: C_10  and  C_13
    5  A    between atoms: O_12  and  C_15
    6  A    between atoms: C_13  and  O_24
                            x       y       z     vdW  Elec       q    Type
                         _______ _______ _______ _____ _____    ______ ____

>  <TORSDO>
F 6

$$$$
=
 OpenBabel11052423043D

 28 30  0  0  1  0  0  0  0  0999 V2000
  158.2500  213.3620  151.0080 N   0  0  0  0  0  2  0  0  0  0  0  0
  156.6250  213.9610  153.1500 C   0  0  0  0  0  1  0  0  0  0  0  0
  157.9610  213.3170  153.5010 C   0  0  1  0  0  0  0  0  0  0  0  0
  160.2910  212.6390  148.1870 C   0  0  0  0  0  2  0  0  0  0  0  0
  157.9700  211.4040  156.6620 C   0  0  0  0  0  1  0  0  0  0  0  0
  158.7470  214.2380  154.4200 C   0  0  0  0  0  2  0  0  0  0  0  0
  158.1030  210.8850  153.3490 C   0  0  0  0  0  2  0  0  0  0  0  0
  160.4980  211.0880  152.5820 C   0  0  2  0  0  3  0  0  0  0  0  0
  157.7170  212.0300  154.2660 C   0  0  1  0  0  3  0  0  0  0  0  0
  161.2110  211.5210  150.1520 C   0  0  0  0  0  2  0  0  0  0  0  0
  159.0340  211.4470  152.2830 C   0  0  2  0  0  3  0  0  0  0  0  0
  160.5010  214.0500  150.1790 C   0  0  0  0  0  2  0  0  0  0  0  0
  161.5140  211.7530  151.6350 C   0  0  0  0  0  2  0  0  0  0  0  0
  160.6220  212.7270  149.4730 C   0  0  0  0  0  0  0  0  0  0  0  0
  158.6330  212.0720  155.4730 C   0  0  1  0  0  3  0  0  0  0  0  0
  159.0430  214.4510  150.4400 C   0  0  0  0  0  2  0  0  0  0  0  0
  158.8290  212.9560  152.2860 C   0  0  1  0  0  3  0  0  0  0  0  0
  158.8550  213.5380  155.7600 C   0  0  0  0  0  2  0  0  0  0  0  0
  160.7140  209.5700  152.7180 C   0  0  1  0  0  3  0  0  0  0  0  0
  161.2600  207.7990  151.5000 C   0  0  0  0  0  1  0  0  0  0  0  0
  161.6480  209.1110  151.7820 O   0  0  0  0  0  0  0  0  0  0  0  0
  161.1390  209.1930  154.1410 C   0  0  1  0  0  3  0  0  0  0  0  0
  161.6260  210.4070  154.8640 C   0  0  0  0  0  3  0  0  0  0  0  0
  162.1880  210.3040  156.0600 C   0  0  0  0  0  3  0  0  0  0  0  0
  162.6340  211.4430  156.7170 O   0  0  0  0  0  1  0  0  0  0  0  0
  160.0590  208.6400  154.8360 O   0  0  0  0  0  0  0  0  0  0  0  0
  160.4590  207.3380  155.1460 C   0  0  0  0  0  2  0  0  0  0  0  0
  160.0860  207.0240  156.5790 C   0  0  0  0  0  1  0  0  0  0  0  0
  3  2  1  6  0  0  0
  3  9  1  0  0  0  0
  3  6  1  0  0  0  0
  4 14  2  0  0  0  0
  6 18  1  0  0  0  0
  8 19  1  6  0  0  0
  9  7  1  6  0  0  0
  9 15  1  0  0  0  0
 10 13  1  0  0  0  0
 11 17  1  0  0  0  0
 11  8  1  0  0  0  0
 11  7  1  1  0  0  0
 12 16  1  0  0  0  0
 13  8  1  0  0  0  0
 14 10  1  0  0  0  0
 14 12  1  0  0  0  0
 15 18  1  0  0  0  0
 15  5  1  1  0  0  0
 16  1  1  0  0  0  0
 17  1  1  6  0  0  0
 17  3  1  0  0  0  0
 19 21  1  6  0  0  0
 19 22  1  0  0  0  0
 20 21  1  0  0  0  0
 22 26  1  0  0  0  0
 22 23  1  1  0  0  0
 23 24  2  0  0  0  0
 24 25  1  0  0  0  0
 26 27  1  0  0  0  0
 27 28  1  0  0  0  0
M  END
>  <MODEL>
5

>  <REMARK>
 VINA RESULT:      -3.8      5.004      8.060
  Name = 
  6 active torsions:
  status: ('A' for Active; 'I' for Inactive)
    1  A    between atoms: C_9  and  O_12
    2  A    between atoms: C_9  and  C_13
    3  A    between atoms: C_9  and  C_14
    4  A    between atoms: C_10  and  C_13
    5  A    between atoms: O_12  and  C_15
    6  A    between atoms: C_13  and  O_24
                            x       y       z     vdW  Elec       q    Type
                         _______ _______ _______ _____ _____    ______ ____

>  <TORSDO>
F 6

$$$$
=
 OpenBabel11052423043D

 28 30  0  0  1  0  0  0  0  0999 V2000
  160.8270  206.9780  151.6880 N   0  0  0  0  0  2  0  0  0  0  0  0
  160.2190  204.6330  152.9990 C   0  0  0  0  0  1  0  0  0  0  0  0
  161.0440  204.4780  151.7260 C   0  0  1  0  0  0  0  0  0  0  0  0
  161.5820  210.0530  150.0700 C   0  0  0  0  0  2  0  0  0  0  0  0
  160.6370  201.2310  150.0100 C   0  0  0  0  0  1  0  0  0  0  0  0
  162.3590  203.7870  152.0510 C   0  0  0  0  0  2  0  0  0  0  0  0
  159.8350  204.4640  149.6060 C   0  0  0  0  0  2  0  0  0  0  0  0
  161.7690  205.6600  148.5140 C   0  0  2  0  0  3  0  0  0  0  0  0
  160.3030  203.5840  150.7490 C   0  0  1  0  0  3  0  0  0  0  0  0
  162.1210  208.2040  148.5710 C   0  0  0  0  0  2  0  0  0  0  0  0
  160.6960  205.7190  149.6130 C   0  0  2  0  0  3  0  0  0  0  0  0
  162.8900  208.2460  151.0830 C   0  0  0  0  0  2  0  0  0  0  0  0
  162.7790  206.8220  148.5560 C   0  0  0  0  0  2  0  0  0  0  0  0
  162.1490  208.8580  149.9260 C   0  0  0  0  0  0  0  0  0  0  0  0
  161.3110  202.5670  150.2540 C   0  0  1  0  0  3  0  0  0  0  0  0
  161.9530  207.7610  152.1970 C   0  0  0  0  0  2  0  0  0  0  0  0
  161.3330  205.7970  150.9940 C   0  0  1  0  0  3  0  0  0  0  0  0
  162.3310  202.4380  151.3600 C   0  0  0  0  0  2  0  0  0  0  0  0
  161.1630  205.4480  147.1140 C   0  0  1  0  0  3  0  0  0  0  0  0
  159.6730  206.5780  145.9220 C   0  0  0  0  0  1  0  0  0  0  0  0
  160.9540  206.6730  146.4680 O   0  0  0  0  0  0  0  0  0  0  0  0
  162.0400  204.5250  146.2620 C   0  0  1  0  0  3  0  0  0  0  0  0
  161.2600  203.3170  145.8550 C   0  0  0  0  0  3  0  0  0  0  0  0
  161.2060  202.2500  146.6390 C   0  0  0  0  0  3  0  0  0  0  0  0
  160.4760  201.1360  146.2440 O   0  0  0  0  0  1  0  0  0  0  0  0
  162.4800  205.2010  145.1190 O   0  0  0  0  0  0  0  0  0  0  0  0
  161.6250  204.7770  144.0990 C   0  0  0  0  0  2  0  0  0  0  0  0
  161.5810  205.8280  143.0100 C   0  0  0  0  0  1  0  0  0  0  0  0
  1 16  1  0  0  0  0
  3  6  1  0  0  0  0
  3  2  1  1  0  0  0
  8 19  1  6  0  0  0
  8 13  1  0  0  0  0
  8 11  1  0  0  0  0
  9  7  1  6  0  0  0
  9  3  1  0  0  0  0
 10 14  1  0  0  0  0
 11  7  1  1  0  0  0
 11 17  1  0  0  0  0
 12 16  1  0  0  0  0
 13 10  1  0  0  0  0
 14  4  2  0  0  0  0
 14 12  1  0  0  0  0
 15  5  1  1  0  0  0
 15  9  1  0  0  0  0
 15 18  1  0  0  0  0
 17  1  1  1  0  0  0
 17  3  1  0  0  0  0
 18  6  1  0  0  0  0
 19 21  1  6  0  0  0
 20 21  1  0  0  0  0
 22 23  1  6  0  0  0
 22 19  1  0  0  0  0
 23 24  2  0  0  0  0
 25 24  1  0  0  0  0
 26 22  1  0  0  0  0
 27 26  1  0  0  0  0
 28 27  1  0  0  0  0
M  END
>  <MODEL>
6

>  <REMARK>
 VINA RESULT:      -3.5      1.408      1.796
  Name = 
  6 active torsions:
  status: ('A' for Active; 'I' for Inactive)
    1  A    between atoms: C_9  and  O_12
    2  A    between atoms: C_9  and  C_13
    3  A    between atoms: C_9  and  C_14
    4  A    between atoms: C_10  and  C_13
    5  A    between atoms: O_12  and  C_15
    6  A    between atoms: C_13  and  O_24
                            x       y       z     vdW  Elec       q    Type
                         _______ _______ _______ _____ _____    ______ ____

>  <TORSDO>
F 6

$$$$
=
 OpenBabel11052423043D

 28 30  0  0  1  0  0  0  0  0999 V2000
  162.3200  210.8840  148.9380 N   0  0  0  0  0  2  0  0  0  0  0  0
  163.1050  208.2610  148.6360 C   0  0  0  0  0  1  0  0  0  0  0  0
  161.9710  208.4960  149.6270 C   0  0  1  0  0  0  0  0  0  0  0  0
  161.3570  214.2930  149.2530 C   0  0  0  0  0  2  0  0  0  0  0  0
  161.7250  205.9730  152.3150 C   0  0  0  0  0  1  0  0  0  0  0  0
  160.7460  207.7040  149.2000 C   0  0  0  0  0  2  0  0  0  0  0  0
  162.5870  209.1870  151.8850 C   0  0  0  0  0  2  0  0  0  0  0  0
  160.5110  210.6160  151.9970 C   0  0  2  0  0  3  0  0  0  0  0  0
  162.3790  207.9780  150.9940 C   0  0  1  0  0  3  0  0  0  0  0  0
  160.3380  213.0010  151.0560 C   0  0  0  0  0  2  0  0  0  0  0  0
  161.8330  210.3520  151.2590 C   0  0  2  0  0  3  0  0  0  0  0  0
  160.2500  212.2240  148.5480 C   0  0  0  0  0  2  0  0  0  0  0  0
  159.6180  211.6780  151.3280 C   0  0  0  0  0  2  0  0  0  0  0  0
  160.7020  213.1910  149.6090 C   0  0  0  0  0  0  0  0  0  0  0  0
  161.2180  207.1440  151.4970 C   0  0  1  0  0  3  0  0  0  0  0  0
  161.4130  211.4350  147.9310 C   0  0  0  0  0  2  0  0  0  0  0  0
  161.5810  209.9710  149.8070 C   0  0  1  0  0  3  0  0  0  0  0  0
  160.5130  206.6450  150.2590 C   0  0  0  0  0  2  0  0  0  0  0  0
  160.7200  210.8750  153.5000 C   0  0  1  0  0  3  0  0  0  0  0  0
  159.8420  212.4950  154.7340 C   0  0  0  0  0  1  0  0  0  0  0  0
  159.5280  211.2870  154.1080 O   0  0  0  0  0  0  0  0  0  0  0  0
  161.2910  209.6400  154.2040 C   0  0  1  0  0  3  0  0  0  0  0  0
  161.9320  210.0400  155.4930 C   0  0  0  0  0  3  0  0  0  0  0  0
  163.0790  210.7030  155.5020 C   0  0  0  0  0  3  0  0  0  0  0  0
  163.6600  211.0680  156.7090 O   0  0  0  0  0  1  0  0  0  0  0  0
  160.2710  208.7170  154.4600 O   0  0  0  0  0  0  0  0  0  0  0  0
  160.8200  207.8190  155.3780 C   0  0  0  0  0  2  0  0  0  0  0  0
  159.7060  207.1360  156.1420 C   0  0  0  0  0  1  0  0  0  0  0  0
  3  2  1  6  0  0  0
  3 17  1  0  0  0  0
  3  9  1  0  0  0  0
  4 14  2  0  0  0  0
  6  3  1  0  0  0  0
  6 18  1  0  0  0  0
  8 19  1  1  0  0  0
  9 15  1  0  0  0  0
  9  7  1  1  0  0  0
 10 13  1  0  0  0  0
 11  7  1  1  0  0  0
 11  8  1  0  0  0  0
 12 14  1  0  0  0  0
 13  8  1  0  0  0  0
 14 10  1  0  0  0  0
 15  5  1  6  0  0  0
 16 12  1  0  0  0  0
 16  1  1  0  0  0  0
 17  1  1  6  0  0  0
 17 11  1  0  0  0  0
 18 15  1  0  0  0  0
 19 21  1  1  0  0  0
 19 22  1  0  0  0  0
 21 20  1  0  0  0  0
 22 26  1  0  0  0  0
 22 23  1  1  0  0  0
 23 24  2  0  0  0  0
 24 25  1  0  0  0  0
 26 27  1  0  0  0  0
 27 28  1  0  0  0  0
M  END
>  <MODEL>
7

>  <REMARK>
 VINA RESULT:      -3.5      3.964      7.091
  Name = 
  6 active torsions:
  status: ('A' for Active; 'I' for Inactive)
    1  A    between atoms: C_9  and  O_12
    2  A    between atoms: C_9  and  C_13
    3  A    between atoms: C_9  and  C_14
    4  A    between atoms: C_10  and  C_13
    5  A    between atoms: O_12  and  C_15
    6  A    between atoms: C_13  and  O_24
                            x       y       z     vdW  Elec       q    Type
                         _______ _______ _______ _____ _____    ______ ____

>  <TORSDO>
F 6

$$$$
=
 OpenBabel11052423043D

 28 30  0  0  1  0  0  0  0  0999 V2000
  160.5770  209.9370  156.0990 N   0  0  0  0  0  2  0  0  0  0  0  0
  160.1010  212.5190  155.2670 C   0  0  0  0  0  1  0  0  0  0  0  0
  159.8450  211.4370  154.2240 C   0  0  1  0  0  0  0  0  0  0  0  0
  161.1980  206.6340  157.2610 C   0  0  0  0  0  2  0  0  0  0  0  0
  160.2160  212.5500  150.7210 C   0  0  0  0  0  1  0  0  0  0  0  0
  158.3980  211.5040  153.7640 C   0  0  0  0  0  2  0  0  0  0  0  0
  161.7710  210.6110  152.9750 C   0  0  0  0  0  2  0  0  0  0  0  0
  160.7360  208.3110  152.9320 C   0  0  2  0  0  3  0  0  0  0  0  0
  160.7100  211.6940  153.0050 C   0  0  1  0  0  3  0  0  0  0  0  0
  160.9320  206.5950  154.8350 C   0  0  0  0  0  2  0  0  0  0  0  0
  161.2630  209.4500  153.8180 C   0  0  2  0  0  3  0  0  0  0  0  0
  159.2470  207.8490  156.4130 C   0  0  0  0  0  2  0  0  0  0  0  0
  160.0620  207.1660  153.7120 C   0  0  0  0  0  2  0  0  0  0  0  0
  160.5000  207.0440  156.2040 C   0  0  0  0  0  0  0  0  0  0  0  0
  159.7970  211.5730  151.8010 C   0  0  1  0  0  3  0  0  0  0  0  0
  159.5330  209.2810  156.8840 C   0  0  0  0  0  2  0  0  0  0  0  0
  160.1570  210.0110  154.7010 C   0  0  1  0  0  3  0  0  0  0  0  0
  158.4170  211.9190  152.3060 C   0  0  0  0  0  2  0  0  0  0  0  0
  161.7940  207.8080  151.9320 C   0  0  1  0  0  3  0  0  0  0  0  0
  163.3440  206.2520  151.6220 C   0  0  0  0  0  1  0  0  0  0  0  0
  162.0540  206.4450  152.1220 O   0  0  0  0  0  0  0  0  0  0  0  0
  161.3700  208.0850  150.4860 C   0  0  1  0  0  3  0  0  0  0  0  0
  162.0460  209.3210  149.9860 C   0  0  0  0  0  3  0  0  0  0  0  0
  161.8080  209.7770  148.7650 C   0  0  0  0  0  3  0  0  0  0  0  0
  162.4450  210.9260  148.3180 O   0  0  0  0  0  1  0  0  0  0  0  0
  161.7140  207.0040  149.6680 O   0  0  0  0  0  0  0  0  0  0  0  0
  160.4970  206.5060  149.1990 C   0  0  0  0  0  2  0  0  0  0  0  0
  160.5450  206.3990  147.6890 C   0  0  0  0  0  1  0  0  0  0  0  0
  1 16  1  0  0  0  0
  3 17  1  0  0  0  0
  3  2  1  1  0  0  0
  6  3  1  0  0  0  0
  8 19  1  1  0  0  0
  8 13  1  0  0  0  0
  8 11  1  0  0  0  0
  9  7  1  6  0  0  0
  9  3  1  0  0  0  0
 10 14  1  0  0  0  0
 11  7  1  6  0  0  0
 11 17  1  0  0  0  0
 12 16  1  0  0  0  0
 13 10  1  0  0  0  0
 14 12  1  0  0  0  0
 14  4  2  0  0  0  0
 15  5  1  6  0  0  0
 15 18  1  0  0  0  0
 15  9  1  0  0  0  0
 17  1  1  1  0  0  0
 18  6  1  0  0  0  0
 19 21  1  6  0  0  0
 20 21  1  0  0  0  0
 22 23  1  6  0  0  0
 22 19  1  0  0  0  0
 24 23  2  0  0  0  0
 25 24  1  0  0  0  0
 26 22  1  0  0  0  0
 27 26  1  0  0  0  0
 28 27  1  0  0  0  0
M  END
>  <MODEL>
8

>  <REMARK>
 VINA RESULT:      -3.3      3.181      6.691
  Name = 
  6 active torsions:
  status: ('A' for Active; 'I' for Inactive)
    1  A    between atoms: C_9  and  O_12
    2  A    between atoms: C_9  and  C_13
    3  A    between atoms: C_9  and  C_14
    4  A    between atoms: C_10  and  C_13
    5  A    between atoms: O_12  and  C_15
    6  A    between atoms: C_13  and  O_24
                            x       y       z     vdW  Elec       q    Type
                         _______ _______ _______ _____ _____    ______ ____

>  <TORSDO>
F 6

$$$$
=
 OpenBabel11052423043D

 28 30  0  0  1  0  0  0  0  0999 V2000
  161.2680  202.6410  145.6940 N   0  0  0  0  0  2  0  0  0  0  0  0
  161.3230  200.4080  147.3040 C   0  0  0  0  0  1  0  0  0  0  0  0
  160.7860  201.6760  147.9600 C   0  0  1  0  0  0  0  0  0  0  0  0
  161.2150  205.4710  143.5400 C   0  0  0  0  0  2  0  0  0  0  0  0
  161.2160  201.8180  151.6270 C   0  0  0  0  0  1  0  0  0  0  0  0
  159.3670  201.4370  148.4490 C   0  0  0  0  0  2  0  0  0  0  0  0
  162.4240  203.2540  148.8440 C   0  0  0  0  0  2  0  0  0  0  0  0
  160.9140  205.1650  148.1850 C   0  0  2  0  0  3  0  0  0  0  0  0
  161.6260  202.0090  149.1790 C   0  0  1  0  0  3  0  0  0  0  0  0
  160.8280  206.2020  145.8360 C   0  0  0  0  0  2  0  0  0  0  0  0
  161.7190  203.9530  147.6900 C   0  0  2  0  0  3  0  0  0  0  0  0
  159.5340  204.1800  144.7680 C   0  0  0  0  0  2  0  0  0  0  0  0
  160.0480  205.8310  147.1000 C   0  0  0  0  0  2  0  0  0  0  0  0
  160.5720  205.2660  144.6860 C   0  0  0  0  0  0  0  0  0  0  0  0
  160.6500  202.2930  150.3030 C   0  0  1  0  0  3  0  0  0  0  0  0
  160.1470  202.7730  144.7640 C   0  0  0  0  0  2  0  0  0  0  0  0
  160.8060  202.9150  147.0520 C   0  0  1  0  0  3  0  0  0  0  0  0
  159.4030  201.5110  149.9630 C   0  0  0  0  0  2  0  0  0  0  0  0
  161.7870  206.1740  148.9530 C   0  0  1  0  0  3  0  0  0  0  0  0
  163.0830  207.8370  148.2630 C   0  0  0  0  0  1  0  0  0  0  0  0
  161.7480  207.4350  148.3450 O   0  0  0  0  0  0  0  0  0  0  0  0
  161.3690  206.2660  150.4240 C   0  0  1  0  0  3  0  0  0  0  0  0
  160.8320  207.6300  150.7160 C   0  0  0  0  0  3  0  0  0  0  0  0
  161.4820  208.4550  151.5240 C   0  0  0  0  0  3  0  0  0  0  0  0
  160.9680  209.7190  151.7830 O   0  0  0  0  0  1  0  0  0  0  0  0
  160.3870  205.3100  150.7060 O   0  0  0  0  0  0  0  0  0  0  0  0
  160.4550  205.1210  152.0880 C   0  0  0  0  0  2  0  0  0  0  0  0
  161.9060  205.0310  152.5140 C   0  0  0  0  0  1  0  0  0  0  0  0
  3  2  1  6  0  0  0
  3  6  1  0  0  0  0
  3  9  1  0  0  0  0
  4 14  2  0  0  0  0
  6 18  1  0  0  0  0
  8 19  1  6  0  0  0
  9  7  1  6  0  0  0
  9 15  1  0  0  0  0
 10 13  1  0  0  0  0
 11  8  1  0  0  0  0
 11  7  1  1  0  0  0
 13  8  1  0  0  0  0
 14 12  1  0  0  0  0
 14 10  1  0  0  0  0
 15  5  1  1  0  0  0
 16 12  1  0  0  0  0
 16  1  1  0  0  0  0
 17  1  1  6  0  0  0
 17 11  1  0  0  0  0
 17  3  1  0  0  0  0
 18 15  1  0  0  0  0
 19 21  1  6  0  0  0
 19 22  1  0  0  0  0
 20 21  1  0  0  0  0
 22 26  1  0  0  0  0
 22 23  1  6  0  0  0
 23 24  2  0  0  0  0
 24 25  1  0  0  0  0
 26 27  1  0  0  0  0
 27 28  1  0  0  0  0
M  END
>  <MODEL>
9

>  <REMARK>
 VINA RESULT:      -3.3      2.603      5.901
  Name = 
  6 active torsions:
  status: ('A' for Active; 'I' for Inactive)
    1  A    between atoms: C_9  and  O_12
    2  A    between atoms: C_9  and  C_13
    3  A    between atoms: C_9  and  C_14
    4  A    between atoms: C_10  and  C_13
    5  A    between atoms: O_12  and  C_15
    6  A    between atoms: C_13  and  O_24
                            x       y       z     vdW  Elec       q    Type
                         _______ _______ _______ _____ _____    ______ ____

>  <TORSDO>
F 6

$$$$
