=
 OpenBabel11062409273D

 34 39  0  0  0  0  0  0  0  0999 V2000
  161.5740  207.7120  149.9650 C   0  0  0  0  0  0  0  0  0  0  0  0
  161.1020  203.9840  149.5490 C   0  0  0  0  0  3  0  0  0  0  0  0
  161.0230  205.3620  151.4550 C   0  0  0  0  0  3  0  0  0  0  0  0
  161.9320  210.2490  150.3330 C   0  0  0  0  0  0  0  0  0  0  0  0
  161.8570  209.0680  149.3340 C   0  0  0  0  0  3  0  0  0  0  0  0
  161.4130  208.7360  152.1530 C   0  0  0  0  0  0  0  0  0  0  0  0
  161.1780  208.2970  153.4110 N   0  0  0  0  0  2  0  0  0  0  0  0
  161.7070  210.0810  151.6560 C   0  0  0  0  0  3  0  0  0  0  0  0
  161.1120  206.6110  152.0530 C   0  0  0  0  0  0  0  0  0  0  0  0
  161.3710  207.6950  151.3160 C   0  0  0  0  0  0  0  0  0  0  0  0
  160.9900  206.9730  153.3480 N   0  0  0  0  0  0  0  0  0  0  0  0
  161.2190  203.4910  148.2590 C   0  0  0  0  0  3  0  0  0  0  0  0
  161.4870  204.1520  147.0680 C   0  0  0  0  0  0  0  0  0  0  0  0
  161.7030  205.5190  146.9430 C   0  0  0  0  0  3  0  0  0  0  0  0
  161.2130  205.2740  150.0490 C   0  0  0  0  0  0  0  0  0  0  0  0
  161.7050  206.5170  147.9040 C   0  0  0  0  0  3  0  0  0  0  0  0
  161.4960  206.4670  149.2810 C   0  0  0  0  0  0  0  0  0  0  0  0
  161.5500  203.3330  145.8420 C   0  0  0  0  0  0  0  0  0  0  0  0
  160.8290  202.1470  145.7510 O   0  0  0  0  0  1  0  0  0  0  0  0
  162.2570  203.6950  144.8630 O   0  0  0  0  0  0  0  0  0  0  0  0
  162.1980  211.5540  149.8910 O   0  0  0  0  0  0  0  0  0  0  0  0
  162.9880  212.9780  146.6100 N   0  0  0  0  0  0  0  0  0  0  0  0
  160.7580  212.0670  147.9610 C   0  0  0  0  0  3  0  0  0  0  0  0
  160.6170  212.8170  143.8490 N   0  0  0  0  0  0  0  0  0  0  0  0
  160.7510  212.7130  142.4270 C   0  0  0  0  0  0  0  0  0  0  0  0
  161.6470  213.5440  144.6020 C   0  0  0  0  0  2  0  0  0  0  0  0
  159.8660  212.1330  141.7420 O   0  0  0  0  0  0  0  0  0  0  0  0
  161.7790  212.9990  145.9880 C   0  0  0  0  0  0  0  0  0  0  0  0
  161.8610  213.2510  141.7850 O   0  0  0  0  0  1  0  0  0  0  0  0
  159.3120  212.6180  145.9790 C   0  0  0  0  0  2  0  0  0  0  0  0
  160.6400  212.5410  146.6550 C   0  0  0  0  0  0  0  0  0  0  0  0
  159.4330  212.2300  144.5020 C   0  0  0  0  0  2  0  0  0  0  0  0
  162.0100  212.0490  148.5910 C   0  0  0  0  0  0  0  0  0  0  0  0
  163.1240  212.5100  147.8810 C   0  0  0  0  0  3  0  0  0  0  0  0
  1 10  1  0  0  0  0
  2 15  1  0  0  0  0
  3  9  1  0  0  0  0
  4  8  2  0  0  0  0
  5  1  2  0  0  0  0
  5  4  1  0  0  0  0
  6  7  1  0  0  0  0
  8  6  1  0  0  0  0
  9 11  2  0  0  0  0
 10  9  1  0  0  0  0
 10  6  2  0  0  0  0
 11  7  1  0  0  0  0
 12  2  2  0  0  0  0
 13 12  1  0  0  0  0
 14 13  2  0  0  0  0
 14 16  1  0  0  0  0
 15  3  2  0  0  0  0
 16 17  2  0  0  0  0
 17  1  1  0  0  0  0
 17 15  1  0  0  0  0
 18 13  1  0  0  0  0
 19 18  1  0  0  0  0
 20 18  2  0  0  0  0
 21  4  1  0  0  0  0
 22 34  1  0  0  0  0
 23 33  1  0  0  0  0
 24 32  1  0  0  0  0
 24 26  1  0  0  0  0
 25 24  1  0  0  0  0
 26 28  1  0  0  0  0
 27 25  2  0  0  0  0
 28 22  2  0  0  0  0
 28 31  1  0  0  0  0
 29 25  1  0  0  0  0
 30 31  1  0  0  0  0
 31 23  2  0  0  0  0
 32 30  1  0  0  0  0
 33 21  1  0  0  0  0
 34 33  2  0  0  0  0
M  END
>  <MODEL>
1

>  <REMARK>
 VINA RESULT:     -11.0      0.000      0.000
  Name = 
  3 active torsions:
  status: ('A' for Active; 'I' for Inactive)
    1  A    between atoms: C_3  and  C_25
    2  A    between atoms: C_8  and  O_18
    3  A    between atoms: O_18  and  C_30
                            x       y       z     vdW  Elec       q    Type
                         _______ _______ _______ _____ _____    ______ ____

>  <TORSDO>
F 3

$$$$
=
 OpenBabel11062409273D

 34 39  0  0  0  0  0  0  0  0999 V2000
  161.5390  207.3250  150.4930 C   0  0  0  0  0  0  0  0  0  0  0  0
  160.8070  203.6220  150.2840 C   0  0  0  0  0  3  0  0  0  0  0  0
  160.8190  205.1080  152.1090 C   0  0  0  0  0  3  0  0  0  0  0  0
  162.0740  209.8480  150.7190 C   0  0  0  0  0  0  0  0  0  0  0  0
  161.9190  208.6200  149.7880 C   0  0  0  0  0  3  0  0  0  0  0  0
  161.4420  208.4810  152.6180 C   0  0  0  0  0  0  0  0  0  0  0  0
  161.1720  208.1320  153.8960 N   0  0  0  0  0  2  0  0  0  0  0  0
  161.8320  209.7710  152.0480 C   0  0  0  0  0  3  0  0  0  0  0  0
  160.9930  206.3800  152.6350 C   0  0  0  0  0  0  0  0  0  0  0  0
  161.3300  207.4000  151.8400 C   0  0  0  0  0  0  0  0  0  0  0  0
  160.8910  206.8220  153.9070 N   0  0  0  0  0  0  0  0  0  0  0  0
  160.8950  203.0490  149.0250 C   0  0  0  0  0  3  0  0  0  0  0  0
  161.2130  203.6220  147.8010 C   0  0  0  0  0  0  0  0  0  0  0  0
  161.5250  204.9610  147.6000 C   0  0  0  0  0  3  0  0  0  0  0  0
  161.0080  204.9280  150.7110 C   0  0  0  0  0  0  0  0  0  0  0  0
  161.5940  206.0080  148.5040 C   0  0  0  0  0  3  0  0  0  0  0  0
  161.3760  206.0520  149.8800 C   0  0  0  0  0  0  0  0  0  0  0  0
  161.2230  202.7310  146.6230 C   0  0  0  0  0  0  0  0  0  0  0  0
  160.8800  201.3900  146.7530 O   0  0  0  0  0  1  0  0  0  0  0  0
  161.5420  203.1730  145.4860 O   0  0  0  0  0  0  0  0  0  0  0  0
  162.4320  211.1040  150.2070 O   0  0  0  0  0  0  0  0  0  0  0  0
  161.3350  212.4940  147.0010 N   0  0  0  0  0  0  0  0  0  0  0  0
  160.6230  212.6840  149.6620 C   0  0  0  0  0  3  0  0  0  0  0  0
  158.1290  214.1890  146.6630 N   0  0  0  0  0  0  0  0  0  0  0  0
  157.1750  214.3140  145.6010 C   0  0  0  0  0  0  0  0  0  0  0  0
  159.5520  214.0790  146.3220 C   0  0  0  0  0  2  0  0  0  0  0  0
  155.9490  214.4530  145.8550 O   0  0  0  0  0  1  0  0  0  0  0  0
  160.2880  213.2870  147.3540 C   0  0  0  0  0  0  0  0  0  0  0  0
  157.5940  214.2830  144.2750 O   0  0  0  0  0  0  0  0  0  0  0  0
  158.7960  214.3070  149.0760 C   0  0  0  0  0  2  0  0  0  0  0  0
  159.9130  213.3940  148.6960 C   0  0  0  0  0  0  0  0  0  0  0  0
  157.6540  214.2180  148.0580 C   0  0  0  0  0  2  0  0  0  0  0  0
  161.7000  211.8680  149.2850 C   0  0  0  0  0  0  0  0  0  0  0  0
  162.0350  211.7860  147.9290 C   0  0  0  0  0  3  0  0  0  0  0  0
  1 10  1  0  0  0  0
  2 15  1  0  0  0  0
  3  9  1  0  0  0  0
  4  8  2  0  0  0  0
  5  1  2  0  0  0  0
  5  4  1  0  0  0  0
  6  7  1  0  0  0  0
  7 11  1  0  0  0  0
  8  6  1  0  0  0  0
  9 11  2  0  0  0  0
 10  6  2  0  0  0  0
 10  9  1  0  0  0  0
 12  2  2  0  0  0  0
 13 12  1  0  0  0  0
 14 13  2  0  0  0  0
 14 16  1  0  0  0  0
 15  3  2  0  0  0  0
 16 17  2  0  0  0  0
 17  1  1  0  0  0  0
 17 15  1  0  0  0  0
 18 19  1  0  0  0  0
 18 13  1  0  0  0  0
 20 18  2  0  0  0  0
 21  4  1  0  0  0  0
 22 28  2  0  0  0  0
 22 34  1  0  0  0  0
 24 32  1  0  0  0  0
 25 27  1  0  0  0  0
 25 24  1  0  0  0  0
 26 24  1  0  0  0  0
 26 28  1  0  0  0  0
 28 31  1  0  0  0  0
 29 25  2  0  0  0  0
 31 30  1  0  0  0  0
 31 23  2  0  0  0  0
 32 30  1  0  0  0  0
 33 23  1  0  0  0  0
 33 21  1  0  0  0  0
 34 33  2  0  0  0  0
M  END
>  <MODEL>
2

>  <REMARK>
 VINA RESULT:     -10.5      1.905      2.274
  Name = 
  3 active torsions:
  status: ('A' for Active; 'I' for Inactive)
    1  A    between atoms: C_3  and  C_25
    2  A    between atoms: C_8  and  O_18
    3  A    between atoms: O_18  and  C_30
                            x       y       z     vdW  Elec       q    Type
                         _______ _______ _______ _____ _____    ______ ____

>  <TORSDO>
F 3

$$$$
=
 OpenBabel11062409273D

 34 39  0  0  0  0  0  0  0  0999 V2000
  161.2540  207.1160  150.7680 C   0  0  0  0  0  0  0  0  0  0  0  0
  161.2010  203.8670  148.8350 C   0  0  0  0  0  3  0  0  0  0  0  0
  161.1610  204.3070  151.1470 C   0  0  0  0  0  3  0  0  0  0  0  0
  161.3360  209.2980  152.1580 C   0  0  0  0  0  0  0  0  0  0  0  0
  161.2980  208.6380  150.7580 C   0  0  0  0  0  3  0  0  0  0  0  0
  161.2070  207.1090  153.1890 C   0  0  0  0  0  0  0  0  0  0  0  0
  161.1660  206.1600  154.1520 N   0  0  0  0  0  2  0  0  0  0  0  0
  161.2780  208.5670  153.2950 C   0  0  0  0  0  3  0  0  0  0  0  0
  161.1600  205.1960  152.2130 C   0  0  0  0  0  0  0  0  0  0  0  0
  161.2020  206.5130  151.9930 C   0  0  0  0  0  0  0  0  0  0  0  0
  161.1360  204.9670  153.5430 N   0  0  0  0  0  0  0  0  0  0  0  0
  161.2370  203.9750  147.4540 C   0  0  0  0  0  3  0  0  0  0  0  0
  161.2900  205.1010  146.6450 C   0  0  0  0  0  0  0  0  0  0  0  0
  161.3210  206.4130  147.0990 C   0  0  0  0  0  3  0  0  0  0  0  0
  161.2070  204.8370  149.8290 C   0  0  0  0  0  0  0  0  0  0  0  0
  161.3060  206.9130  148.3920 C   0  0  0  0  0  3  0  0  0  0  0  0
  161.2560  206.2680  149.6260 C   0  0  0  0  0  0  0  0  0  0  0  0
  161.3200  204.8810  145.1850 C   0  0  0  0  0  0  0  0  0  0  0  0
  160.5760  203.8540  144.6130 O   0  0  0  0  0  1  0  0  0  0  0  0
  162.0180  205.6170  144.4380 O   0  0  0  0  0  0  0  0  0  0  0  0
  161.3890  210.6940  152.2990 O   0  0  0  0  0  0  0  0  0  0  0  0
  158.4530  212.8790  152.4130 N   0  0  0  0  0  0  0  0  0  0  0  0
  160.2400  211.7620  154.1970 C   0  0  0  0  0  3  0  0  0  0  0  0
  156.7120  213.5610  155.5400 N   0  0  0  0  0  0  0  0  0  0  0  0
  155.3460  213.8240  155.8820 C   0  0  0  0  0  0  0  0  0  0  0  0
  157.2110  214.0140  154.2350 C   0  0  0  0  0  2  0  0  0  0  0  0
  154.8930  213.4870  157.0080 O   0  0  0  0  0  1  0  0  0  0  0  0
  158.3040  213.1220  153.7430 C   0  0  0  0  0  0  0  0  0  0  0  0
  154.5040  214.4530  154.9720 O   0  0  0  0  0  0  0  0  0  0  0  0
  159.0550  212.8810  156.1110 C   0  0  0  0  0  2  0  0  0  0  0  0
  159.1990  212.5650  154.6600 C   0  0  0  0  0  0  0  0  0  0  0  0
  157.5790  212.8850  156.5210 C   0  0  0  0  0  2  0  0  0  0  0  0
  160.3820  211.5170  152.8230 C   0  0  0  0  0  0  0  0  0  0  0  0
  159.4580  212.0910  151.9420 C   0  0  0  0  0  3  0  0  0  0  0  0
  1 10  1  0  0  0  0
  2 15  1  0  0  0  0
  3  9  1  0  0  0  0
  4 21  1  0  0  0  0
  4  8  2  0  0  0  0
  5  1  2  0  0  0  0
  5  4  1  0  0  0  0
  6  8  1  0  0  0  0
  6  7  1  0  0  0  0
  9 11  2  0  0  0  0
 10  9  1  0  0  0  0
 10  6  2  0  0  0  0
 11  7  1  0  0  0  0
 12  2  2  0  0  0  0
 13 14  2  0  0  0  0
 13 12  1  0  0  0  0
 14 16  1  0  0  0  0
 15  3  2  0  0  0  0
 16 17  2  0  0  0  0
 17 15  1  0  0  0  0
 17  1  1  0  0  0  0
 18 13  1  0  0  0  0
 19 18  1  0  0  0  0
 20 18  2  0  0  0  0
 21 33  1  0  0  0  0
 22 28  1  0  0  0  0
 23 31  1  0  0  0  0
 24 25  1  0  0  0  0
 24 32  1  0  0  0  0
 25 27  1  0  0  0  0
 26 24  1  0  0  0  0
 28 26  1  0  0  0  0
 28 31  2  0  0  0  0
 29 25  2  0  0  0  0
 30 32  1  0  0  0  0
 31 30  1  0  0  0  0
 33 23  2  0  0  0  0
 34 22  2  0  0  0  0
 34 33  1  0  0  0  0
M  END
>  <MODEL>
3

>  <REMARK>
 VINA RESULT:     -10.3      4.267      6.761
  Name = 
  3 active torsions:
  status: ('A' for Active; 'I' for Inactive)
    1  A    between atoms: C_3  and  C_25
    2  A    between atoms: C_8  and  O_18
    3  A    between atoms: O_18  and  C_30
                            x       y       z     vdW  Elec       q    Type
                         _______ _______ _______ _____ _____    ______ ____

>  <TORSDO>
F 3

$$$$
=
 OpenBabel11062409273D

 34 39  0  0  0  0  0  0  0  0999 V2000
  161.0390  207.7590  151.7670 C   0  0  0  0  0  0  0  0  0  0  0  0
  161.2470  203.9900  151.5500 C   0  0  0  0  0  3  0  0  0  0  0  0
  161.2060  205.4450  153.3990 C   0  0  0  0  0  3  0  0  0  0  0  0
  160.9480  210.3360  151.9910 C   0  0  0  0  0  0  0  0  0  0  0  0
  160.9470  209.1020  151.0560 C   0  0  0  0  0  3  0  0  0  0  0  0
  161.0340  208.8700  153.9180 C   0  0  0  0  0  0  0  0  0  0  0  0
  161.0950  208.4730  155.2100 N   0  0  0  0  0  2  0  0  0  0  0  0
  160.9750  210.2120  153.3380 C   0  0  0  0  0  3  0  0  0  0  0  0
  161.1430  206.7240  153.9340 C   0  0  0  0  0  0  0  0  0  0  0  0
  161.0630  207.7890  153.1320 C   0  0  0  0  0  0  0  0  0  0  0  0
  161.1620  207.1360  155.2200 N   0  0  0  0  0  0  0  0  0  0  0  0
  161.2500  203.4490  150.2740 C   0  0  0  0  0  3  0  0  0  0  0  0
  161.1880  204.0730  149.0360 C   0  0  0  0  0  0  0  0  0  0  0  0
  161.1090  205.4450  148.8340 C   0  0  0  0  0  3  0  0  0  0  0  0
  161.1820  205.3070  151.9840 C   0  0  0  0  0  0  0  0  0  0  0  0
  161.0710  206.4830  149.7510 C   0  0  0  0  0  3  0  0  0  0  0  0
  161.0990  206.4820  151.1440 C   0  0  0  0  0  0  0  0  0  0  0  0
  161.2130  203.2050  147.8420 C   0  0  0  0  0  0  0  0  0  0  0  0
  160.8310  201.8700  147.9340 O   0  0  0  0  0  1  0  0  0  0  0  0
  161.5810  203.6580  146.7250 O   0  0  0  0  0  0  0  0  0  0  0  0
  160.8790  211.6380  151.4710 O   0  0  0  0  0  0  0  0  0  0  0  0
  162.6350  211.7640  148.2600 N   0  0  0  0  0  0  0  0  0  0  0  0
  160.4640  212.9850  149.4530 C   0  0  0  0  0  3  0  0  0  0  0  0
  161.1530  213.3690  145.3460 N   0  0  0  0  0  0  0  0  0  0  0  0
  161.2230  213.1320  143.9350 C   0  0  0  0  0  0  0  0  0  0  0  0
  162.3280  213.0640  146.1700 C   0  0  0  0  0  2  0  0  0  0  0  0
  160.2500  213.4200  143.1890 O   0  0  0  0  0  0  0  0  0  0  0  0
  161.9220  212.6850  147.5580 C   0  0  0  0  0  0  0  0  0  0  0  0
  162.3680  212.5780  143.3730 O   0  0  0  0  0  1  0  0  0  0  0  0
  160.0780  214.3580  147.3820 C   0  0  0  0  0  2  0  0  0  0  0  0
  160.8200  213.3120  148.1450 C   0  0  0  0  0  0  0  0  0  0  0  0
  159.9230  213.9500  145.9140 C   0  0  0  0  0  2  0  0  0  0  0  0
  161.2060  212.0320  150.1650 C   0  0  0  0  0  0  0  0  0  0  0  0
  162.2970  211.4240  149.5340 C   0  0  0  0  0  3  0  0  0  0  0  0
  1 10  1  0  0  0  0
  2 15  1  0  0  0  0
  3  9  1  0  0  0  0
  4  8  2  0  0  0  0
  5  1  2  0  0  0  0
  5  4  1  0  0  0  0
  6  7  1  0  0  0  0
  7 11  1  0  0  0  0
  8  6  1  0  0  0  0
  9 11  2  0  0  0  0
 10  6  2  0  0  0  0
 10  9  1  0  0  0  0
 12  2  2  0  0  0  0
 13 12  1  0  0  0  0
 14 13  2  0  0  0  0
 14 16  1  0  0  0  0
 15  3  2  0  0  0  0
 16 17  2  0  0  0  0
 17  1  1  0  0  0  0
 17 15  1  0  0  0  0
 18 19  1  0  0  0  0
 18 13  1  0  0  0  0
 20 18  2  0  0  0  0
 21  4  1  0  0  0  0
 22 34  1  0  0  0  0
 23 33  1  0  0  0  0
 24 32  1  0  0  0  0
 24 26  1  0  0  0  0
 25 24  1  0  0  0  0
 26 28  1  0  0  0  0
 27 25  2  0  0  0  0
 28 31  1  0  0  0  0
 28 22  2  0  0  0  0
 29 25  1  0  0  0  0
 30 31  1  0  0  0  0
 31 23  2  0  0  0  0
 32 30  1  0  0  0  0
 33 21  1  0  0  0  0
 34 33  2  0  0  0  0
M  END
>  <MODEL>
4

>  <REMARK>
 VINA RESULT:      -9.7      1.499      1.931
  Name = 
  3 active torsions:
  status: ('A' for Active; 'I' for Inactive)
    1  A    between atoms: C_3  and  C_25
    2  A    between atoms: C_8  and  O_18
    3  A    between atoms: O_18  and  C_30
                            x       y       z     vdW  Elec       q    Type
                         _______ _______ _______ _____ _____    ______ ____

>  <TORSDO>
F 3

$$$$
=
 OpenBabel11062409273D

 34 39  0  0  0  0  0  0  0  0999 V2000
  161.3810  207.1690  150.5990 C   0  0  0  0  0  0  0  0  0  0  0  0
  161.6240  204.6890  147.7550 C   0  0  0  0  0  3  0  0  0  0  0  0
  162.0570  207.0010  147.8500 C   0  0  0  0  0  3  0  0  0  0  0  0
  161.1910  208.9310  152.4860 C   0  0  0  0  0  0  0  0  0  0  0  0
  161.0600  207.4480  152.0620 C   0  0  0  0  0  2  0  0  0  0  0  0
  161.9230  209.5020  150.2480 C   0  0  0  0  0  0  0  0  0  0  0  0
  162.3320  210.2510  149.1990 N   0  0  0  0  0  0  0  0  0  0  0  0
  161.6120  209.8850  151.6260 C   0  0  0  0  0  3  0  0  0  0  0  0
  162.1150  208.1960  148.5530 C   0  0  0  0  0  0  0  0  0  0  0  0
  161.7900  208.2330  149.8480 C   0  0  0  0  0  0  0  0  0  0  0  0
  162.4520  209.4370  148.1420 N   0  0  0  0  0  0  0  0  0  0  0  0
  161.2870  203.3780  148.0540 C   0  0  0  0  0  3  0  0  0  0  0  0
  160.8660  202.8120  149.2490 C   0  0  0  0  0  0  0  0  0  0  0  0
  160.6910  203.5000  150.4440 C   0  0  0  0  0  3  0  0  0  0  0  0
  161.6460  205.8310  148.5450 C   0  0  0  0  0  0  0  0  0  0  0  0
  160.8790  204.8400  150.7400 C   0  0  0  0  0  3  0  0  0  0  0  0
  161.2980  205.9070  149.9470 C   0  0  0  0  0  0  0  0  0  0  0  0
  160.5780  201.3640  149.2440 C   0  0  0  0  0  0  0  0  0  0  0  0
  161.4450  200.4770  148.6150 O   0  0  0  0  0  0  0  0  0  0  0  0
  159.5440  200.9120  149.8070 O   0  0  0  0  0  1  0  0  0  0  0  0
  160.9150  209.3340  153.8020 O   0  0  0  0  0  0  0  0  0  0  0  0
  158.6320  212.1870  153.5650 N   0  0  0  0  0  0  0  0  0  0  0  0
  159.5410  210.4530  155.5120 C   0  0  0  0  0  3  0  0  0  0  0  0
  156.2700  212.9560  156.2290 N   0  0  0  0  0  0  0  0  0  0  0  0
  154.9570  213.5290  156.2620 C   0  0  0  0  0  0  0  0  0  0  0  0
  157.2070  213.4030  155.1910 C   0  0  0  0  0  2  0  0  0  0  0  0
  154.1390  213.2030  157.1620 O   0  0  0  0  0  1  0  0  0  0  0  0
  158.1690  212.3140  154.8370 C   0  0  0  0  0  0  0  0  0  0  0  0
  154.5710  214.4530  155.2970 O   0  0  0  0  0  0  0  0  0  0  0  0
  158.1400  211.6270  157.2370 C   0  0  0  0  0  2  0  0  0  0  0  0
  158.6170  211.4450  155.8350 C   0  0  0  0  0  0  0  0  0  0  0  0
  156.6480  211.9740  157.2610 C   0  0  0  0  0  2  0  0  0  0  0  0
  160.0100  210.3310  154.1950 C   0  0  0  0  0  0  0  0  0  0  0  0
  159.5270  211.2190  153.2280 C   0  0  0  0  0  3  0  0  0  0  0  0
  1  5  1  0  0  0  0
  2 12  2  0  0  0  0
  2 15  1  0  0  0  0
  3 15  2  0  0  0  0
  3  9  1  0  0  0  0
  4 21  1  0  0  0  0
  5  4  1  0  0  0  0
  6  8  1  0  0  0  0
  7  6  2  0  0  0  0
  8  4  2  0  0  0  0
  9 10  1  0  0  0  0
 10  6  1  0  0  0  0
 10  1  2  0  0  0  0
 11  9  2  0  0  0  0
 11  7  1  0  0  0  0
 12 13  1  0  0  0  0
 13 14  2  0  0  0  0
 14 16  1  0  0  0  0
 15 17  1  0  0  0  0
 17  1  1  0  0  0  0
 17 16  2  0  0  0  0
 18 13  1  0  0  0  0
 18 20  1  0  0  0  0
 19 18  2  0  0  0  0
 21 33  1  0  0  0  0
 22 28  1  0  0  0  0
 23 31  1  0  0  0  0
 24 25  1  0  0  0  0
 24 32  1  0  0  0  0
 25 27  1  0  0  0  0
 26 24  1  0  0  0  0
 28 26  1  0  0  0  0
 28 31  2  0  0  0  0
 29 25  2  0  0  0  0
 30 32  1  0  0  0  0
 31 30  1  0  0  0  0
 33 23  2  0  0  0  0
 34 22  2  0  0  0  0
 34 33  1  0  0  0  0
M  END
>  <MODEL>
5

>  <REMARK>
 VINA RESULT:      -9.6      4.719      7.629
  Name = 
  3 active torsions:
  status: ('A' for Active; 'I' for Inactive)
    1  A    between atoms: C_3  and  C_25
    2  A    between atoms: C_8  and  O_18
    3  A    between atoms: O_18  and  C_30
                            x       y       z     vdW  Elec       q    Type
                         _______ _______ _______ _____ _____    ______ ____

>  <TORSDO>
F 3

$$$$
=
 OpenBabel11062409273D

 34 39  0  0  0  0  0  0  0  0999 V2000
  160.8160  208.4490  152.4220 C   0  0  0  0  0  0  0  0  0  0  0  0
  161.3540  204.8000  151.5910 C   0  0  0  0  0  3  0  0  0  0  0  0
  161.2010  205.9230  153.6530 C   0  0  0  0  0  3  0  0  0  0  0  0
  160.4990  210.9360  153.0660 C   0  0  0  0  0  0  0  0  0  0  0  0
  160.5990  209.8780  151.9410 C   0  0  0  0  0  3  0  0  0  0  0  0
  160.7310  209.1870  154.7260 C   0  0  0  0  0  0  0  0  0  0  0  0
  160.8370  208.5910  155.9360 N   0  0  0  0  0  2  0  0  0  0  0  0
  160.5480  210.5960  154.3740 C   0  0  0  0  0  3  0  0  0  0  0  0
  161.0290  207.0860  154.3910 C   0  0  0  0  0  0  0  0  0  0  0  0
  160.8480  208.2570  153.7740 C   0  0  0  0  0  0  0  0  0  0  0  0
  161.0220  207.2810  155.7270 N   0  0  0  0  0  0  0  0  0  0  0  0
  161.3950  204.4780  150.2430 C   0  0  0  0  0  3  0  0  0  0  0  0
  161.2680  205.2890  149.1240 C   0  0  0  0  0  0  0  0  0  0  0  0
  161.0660  206.6630  149.1500 C   0  0  0  0  0  3  0  0  0  0  0  0
  161.1770  206.0170  152.2350 C   0  0  0  0  0  0  0  0  0  0  0  0
  160.9430  207.5300  150.2240 C   0  0  0  0  0  3  0  0  0  0  0  0
  160.9830  207.3020  151.5980 C   0  0  0  0  0  0  0  0  0  0  0  0
  161.3590  204.6340  147.8040 C   0  0  0  0  0  0  0  0  0  0  0  0
  161.5630  203.2620  147.7120 O   0  0  0  0  0  1  0  0  0  0  0  0
  161.2550  205.3080  146.7430 O   0  0  0  0  0  0  0  0  0  0  0  0
  160.3100  212.2940  152.7670 O   0  0  0  0  0  0  0  0  0  0  0  0
  160.5240  213.3440  149.2650 N   0  0  0  0  0  0  0  0  0  0  0  0
  158.6320  213.3080  151.2760 C   0  0  0  0  0  3  0  0  0  0  0  0
  157.5350  214.0750  147.3150 N   0  0  0  0  0  0  0  0  0  0  0  0
  157.1900  213.9360  145.9310 C   0  0  0  0  0  0  0  0  0  0  0  0
  158.9300  214.3710  147.6660 C   0  0  0  0  0  2  0  0  0  0  0  0
  155.9970  213.7240  145.5880 O   0  0  0  0  0  1  0  0  0  0  0  0
  159.2720  213.8090  149.0080 C   0  0  0  0  0  0  0  0  0  0  0  0
  158.1710  214.0330  144.9500 O   0  0  0  0  0  0  0  0  0  0  0  0
  156.9470  214.3590  149.7340 C   0  0  0  0  0  2  0  0  0  0  0  0
  158.3020  213.7980  150.0140 C   0  0  0  0  0  0  0  0  0  0  0  0
  156.4750  213.9610  148.3320 C   0  0  0  0  0  2  0  0  0  0  0  0
  159.9260  212.8290  151.5280 C   0  0  0  0  0  0  0  0  0  0  0  0
  160.8630  212.8530  150.4880 C   0  0  0  0  0  3  0  0  0  0  0  0
  1 10  1  0  0  0  0
  2 15  1  0  0  0  0
  3  9  1  0  0  0  0
  4  8  2  0  0  0  0
  5  1  2  0  0  0  0
  5  4  1  0  0  0  0
  6  7  1  0  0  0  0
  8  6  1  0  0  0  0
  9 11  2  0  0  0  0
 10  9  1  0  0  0  0
 10  6  2  0  0  0  0
 11  7  1  0  0  0  0
 12  2  2  0  0  0  0
 13 14  2  0  0  0  0
 13 12  1  0  0  0  0
 14 16  1  0  0  0  0
 15  3  2  0  0  0  0
 16 17  2  0  0  0  0
 17 15  1  0  0  0  0
 17  1  1  0  0  0  0
 18 13  1  0  0  0  0
 19 18  1  0  0  0  0
 20 18  2  0  0  0  0
 21  4  1  0  0  0  0
 22 34  1  0  0  0  0
 23 33  1  0  0  0  0
 24 26  1  0  0  0  0
 24 32  1  0  0  0  0
 25 24  1  0  0  0  0
 26 28  1  0  0  0  0
 27 25  1  0  0  0  0
 28 22  2  0  0  0  0
 28 31  1  0  0  0  0
 29 25  2  0  0  0  0
 30 31  1  0  0  0  0
 31 23  2  0  0  0  0
 32 30  1  0  0  0  0
 33 21  1  0  0  0  0
 34 33  2  0  0  0  0
M  END
>  <MODEL>
6

>  <REMARK>
 VINA RESULT:      -9.2      2.791      3.458
  Name = 
  3 active torsions:
  status: ('A' for Active; 'I' for Inactive)
    1  A    between atoms: C_3  and  C_25
    2  A    between atoms: C_8  and  O_18
    3  A    between atoms: O_18  and  C_30
                            x       y       z     vdW  Elec       q    Type
                         _______ _______ _______ _____ _____    ______ ____

>  <TORSDO>
F 3

$$$$
=
 OpenBabel11062409273D

 34 39  0  0  0  0  0  0  0  0999 V2000
  161.2430  207.7330  152.1370 C   0  0  0  0  0  0  0  0  0  0  0  0
  161.2640  211.4630  151.5200 C   0  0  0  0  0  3  0  0  0  0  0  0
  160.8120  210.2060  153.4570 C   0  0  0  0  0  3  0  0  0  0  0  0
  161.1620  205.1910  152.6200 C   0  0  0  0  0  0  0  0  0  0  0  0
  161.4360  206.3210  151.5980 C   0  0  0  0  0  3  0  0  0  0  0  0
  160.7030  206.8500  154.3250 C   0  0  0  0  0  0  0  0  0  0  0  0
  160.3640  207.3780  155.5240 N   0  0  0  0  0  2  0  0  0  0  0  0
  160.8320  205.4540  153.9050 C   0  0  0  0  0  3  0  0  0  0  0  0
  160.6910  208.9880  154.1120 C   0  0  0  0  0  0  0  0  0  0  0  0
  160.9050  207.8440  153.4550 C   0  0  0  0  0  0  0  0  0  0  0  0
  160.3580  208.7110  155.3910 N   0  0  0  0  0  0  0  0  0  0  0  0
  161.5800  211.8700  150.2330 C   0  0  0  0  0  3  0  0  0  0  0  0
  161.8960  211.1200  149.1090 C   0  0  0  0  0  0  0  0  0  0  0  0
  161.9560  209.7330  149.0630 C   0  0  0  0  0  3  0  0  0  0  0  0
  161.1670  210.1960  152.0810 C   0  0  0  0  0  0  0  0  0  0  0  0
  161.7350  208.7940  150.0570 C   0  0  0  0  0  3  0  0  0  0  0  0
  161.3880  208.9400  151.3990 C   0  0  0  0  0  0  0  0  0  0  0  0
  162.1860  211.8610  147.8650 C   0  0  0  0  0  0  0  0  0  0  0  0
  161.1580  212.1960  146.9900 O   0  0  0  0  0  0  0  0  0  0  0  0
  163.3660  212.1980  147.5780 O   0  0  0  0  0  1  0  0  0  0  0  0
  161.2900  203.8410  152.2580 O   0  0  0  0  0  0  0  0  0  0  0  0
  160.8580  201.4530  149.5150 N   0  0  0  0  0  0  0  0  0  0  0  0
  161.5810  204.1000  149.8260 C   0  0  0  0  0  3  0  0  0  0  0  0
  160.6740  202.5560  146.0480 N   0  0  0  0  0  0  0  0  0  0  0  0
  159.9850  202.0780  144.8860 C   0  0  0  0  0  0  0  0  0  0  0  0
  161.1200  201.5820  147.0510 C   0  0  0  0  0  2  0  0  0  0  0  0
  159.6240  202.8780  143.9830 O   0  0  0  0  0  0  0  0  0  0  0  0
  161.1510  202.1970  148.4140 C   0  0  0  0  0  0  0  0  0  0  0  0
  159.7060  200.7230  144.7430 O   0  0  0  0  0  1  0  0  0  0  0  0
  161.8860  204.3280  147.3410 C   0  0  0  0  0  2  0  0  0  0  0  0
  161.5180  203.5380  148.5520 C   0  0  0  0  0  0  0  0  0  0  0  0
  160.9490  203.9980  146.1740 C   0  0  0  0  0  2  0  0  0  0  0  0
  161.2750  203.3240  150.9530 C   0  0  0  0  0  0  0  0  0  0  0  0
  160.9060  201.9870  150.7660 C   0  0  0  0  0  3  0  0  0  0  0  0
  1 10  1  0  0  0  0
  2 15  1  0  0  0  0
  3  9  1  0  0  0  0
  4  8  2  0  0  0  0
  5  1  2  0  0  0  0
  5  4  1  0  0  0  0
  6  7  1  0  0  0  0
  8  6  1  0  0  0  0
  9 11  2  0  0  0  0
 10  9  1  0  0  0  0
 10  6  2  0  0  0  0
 11  7  1  0  0  0  0
 12  2  2  0  0  0  0
 13 12  1  0  0  0  0
 14 13  2  0  0  0  0
 14 16  1  0  0  0  0
 15  3  2  0  0  0  0
 16 17  2  0  0  0  0
 17 15  1  0  0  0  0
 17  1  1  0  0  0  0
 18 13  1  0  0  0  0
 19 18  2  0  0  0  0
 20 18  1  0  0  0  0
 21  4  1  0  0  0  0
 22 34  1  0  0  0  0
 23 33  1  0  0  0  0
 24 32  1  0  0  0  0
 24 26  1  0  0  0  0
 25 24  1  0  0  0  0
 26 28  1  0  0  0  0
 27 25  2  0  0  0  0
 28 31  1  0  0  0  0
 28 22  2  0  0  0  0
 29 25  1  0  0  0  0
 30 31  1  0  0  0  0
 31 23  2  0  0  0  0
 32 30  1  0  0  0  0
 33 21  1  0  0  0  0
 34 33  2  0  0  0  0
M  END
>  <MODEL>
7

>  <REMARK>
 VINA RESULT:      -8.6      3.486      7.941
  Name = 
  3 active torsions:
  status: ('A' for Active; 'I' for Inactive)
    1  A    between atoms: C_3  and  C_25
    2  A    between atoms: C_8  and  O_18
    3  A    between atoms: O_18  and  C_30
                            x       y       z     vdW  Elec       q    Type
                         _______ _______ _______ _____ _____    ______ ____

>  <TORSDO>
F 3

$$$$
=
 OpenBabel11062409273D

 34 39  0  0  1  0  0  0  0  0999 V2000
  161.5840  208.8930  150.8620 C   0  0  0  0  0  0  0  0  0  0  0  0
  160.9900  206.0420  153.2730 C   0  0  0  0  0  3  0  0  0  0  0  0
  161.5100  206.0600  150.9780 C   0  0  0  0  0  3  0  0  0  0  0  0
  161.9540  210.7930  149.1440 C   0  0  0  0  0  0  0  0  0  0  0  0
  161.6660  210.3930  150.6120 C   0  0  0  0  0  3  0  0  0  0  0  0
  162.0940  208.4520  148.5370 C   0  0  0  0  0  0  0  0  0  0  0  0
  162.2390  207.3450  147.7720 N   0  0  0  0  0  0  0  0  0  0  0  0
  162.1670  209.8690  148.1800 C   0  0  0  0  0  3  0  0  0  0  0  0
  161.7910  206.7440  149.8040 C   0  0  0  0  0  0  0  0  0  0  0  0
  161.8180  208.0790  149.7900 C   0  0  2  0  0  3  0  0  0  0  0  0
  162.0510  206.2800  148.5620 N   0  0  0  0  0  0  0  0  0  0  0  0
  160.6990  206.3960  154.5810 C   0  0  0  0  0  3  0  0  0  0  0  0
  160.5860  207.6500  155.1660 C   0  0  0  0  0  0  0  0  0  0  0  0
  160.7530  208.8600  154.5040 C   0  0  0  0  0  3  0  0  0  0  0  0
  161.2570  206.8180  152.1530 C   0  0  0  0  0  0  0  0  0  0  0  0
  161.0580  209.1200  153.1780 C   0  0  0  0  0  3  0  0  0  0  0  0
  161.2910  208.2640  152.1030 C   0  0  0  0  0  0  0  0  0  0  0  0
  160.2580  207.6950  156.6050 C   0  0  0  0  0  0  0  0  0  0  0  0
  160.1380  208.9160  157.2610 O   0  0  0  0  0  1  0  0  0  0  0  0
  160.0820  206.6310  157.2580 O   0  0  0  0  0  0  0  0  0  0  0  0
  162.0460  212.1420  148.7670 O   0  0  0  0  0  0  0  0  0  0  0  0
  162.5820  213.9310  145.6170 N   0  0  0  0  0  0  0  0  0  0  0  0
  160.5800  212.4540  146.8140 C   0  0  0  0  0  3  0  0  0  0  0  0
  160.3830  213.4380  142.7550 N   0  0  0  0  0  0  0  0  0  0  0  0
  160.5750  213.4650  141.3350 C   0  0  0  0  0  0  0  0  0  0  0  0
  161.2020  214.3220  143.5930 C   0  0  0  0  0  2  0  0  0  0  0  0
  159.8630  212.7520  140.5800 O   0  0  0  0  0  0  0  0  0  0  0  0
  161.4170  213.7250  144.9470 C   0  0  0  0  0  0  0  0  0  0  0  0
  161.5530  214.2810  140.7750 O   0  0  0  0  0  1  0  0  0  0  0  0
  159.1000  212.8050  144.8120 C   0  0  0  0  0  2  0  0  0  0  0  0
  160.3930  212.9800  145.5360 C   0  0  0  0  0  0  0  0  0  0  0  0
  159.3450  212.5580  143.3200 C   0  0  0  0  0  2  0  0  0  0  0  0
  161.7870  212.6710  147.4940 C   0  0  0  0  0  0  0  0  0  0  0  0
  162.7870  213.4180  146.8610 C   0  0  0  0  0  3  0  0  0  0  0  0
  1 17  2  0  0  0  0
  2 12  1  0  0  0  0
  3 15  1  0  0  0  0
  4  5  2  0  0  0  0
  5  1  1  0  0  0  0
  7  6  1  0  0  0  0
  7 11  2  0  0  0  0
  8  6  2  0  0  0  0
  8  4  1  0  0  0  0
  9  3  2  0  0  0  0
 10  6  1  6  0  0  0
 10  9  1  0  0  0  0
 10  1  1  0  0  0  0
 11  9  1  0  0  0  0
 12 13  2  0  0  0  0
 13 18  1  0  0  0  0
 14 13  1  0  0  0  0
 15  2  2  0  0  0  0
 16 14  2  0  0  0  0
 17 15  1  0  0  0  0
 17 16  1  0  0  0  0
 18 20  2  0  0  0  0
 18 19  1  0  0  0  0
 21  4  1  0  0  0  0
 22 34  1  0  0  0  0
 23 33  1  0  0  0  0
 24 32  1  0  0  0  0
 24 26  1  0  0  0  0
 25 24  1  0  0  0  0
 26 28  1  0  0  0  0
 27 25  2  0  0  0  0
 28 31  1  0  0  0  0
 28 22  2  0  0  0  0
 29 25  1  0  0  0  0
 30 31  1  0  0  0  0
 31 23  2  0  0  0  0
 32 30  1  0  0  0  0
 33 21  1  0  0  0  0
 34 33  2  0  0  0  0
M  END
>  <MODEL>
8

>  <REMARK>
 VINA RESULT:      -8.5      3.217      5.073
  Name = 
  3 active torsions:
  status: ('A' for Active; 'I' for Inactive)
    1  A    between atoms: C_3  and  C_25
    2  A    between atoms: C_8  and  O_18
    3  A    between atoms: O_18  and  C_30
                            x       y       z     vdW  Elec       q    Type
                         _______ _______ _______ _____ _____    ______ ____

>  <TORSDO>
F 3

$$$$
=
 OpenBabel11062409273D

 34 39  0  0  0  0  0  0  0  0999 V2000
  160.1290  211.3480  154.1540 C   0  0  0  0  0  0  0  0  0  0  0  0
  157.5890  212.8010  156.5490 C   0  0  0  0  0  3  0  0  0  0  0  0
  159.6540  211.7360  156.9230 C   0  0  0  0  0  3  0  0  0  0  0  0
  161.8880  210.2910  152.5770 C   0  0  0  0  0  0  0  0  0  0  0  0
  160.5500  211.0570  152.7200 C   0  0  0  0  0  2  0  0  0  0  0  0
  162.1540  210.3160  154.9850 C   0  0  0  0  0  0  0  0  0  0  0  0
  162.6910  210.0850  156.2050 N   0  0  0  0  0  0  0  0  0  0  0  0
  162.6400  209.9610  153.6510 C   0  0  0  0  0  3  0  0  0  0  0  0
  160.8010  211.1140  156.4500 C   0  0  0  0  0  0  0  0  0  0  0  0
  160.9890  210.9520  155.1380 C   0  0  0  0  0  0  0  0  0  0  0  0
  161.8470  210.5830  157.1190 N   0  0  0  0  0  0  0  0  0  0  0  0
  156.4590  213.3640  155.9770 C   0  0  0  0  0  3  0  0  0  0  0  0
  156.0970  213.4870  154.6430 C   0  0  0  0  0  0  0  0  0  0  0  0
  156.8470  213.0360  153.5640 C   0  0  0  0  0  3  0  0  0  0  0  0
  158.6970  212.1910  155.9760 C   0  0  0  0  0  0  0  0  0  0  0  0
  158.0740  212.3910  153.5350 C   0  0  0  0  0  3  0  0  0  0  0  0
  158.9300  211.9970  154.5610 C   0  0  0  0  0  0  0  0  0  0  0  0
  154.8070  214.1460  154.3530 C   0  0  0  0  0  0  0  0  0  0  0  0
  154.4480  214.4410  153.0420 O   0  0  0  0  0  0  0  0  0  0  0  0
  154.0160  214.4490  155.2860 O   0  0  0  0  0  1  0  0  0  0  0  0
  162.3920  209.9460  151.3140 O   0  0  0  0  0  0  0  0  0  0  0  0
  161.6340  207.9970  148.3070 N   0  0  0  0  0  0  0  0  0  0  0  0
  161.5360  207.6530  151.0450 C   0  0  0  0  0  3  0  0  0  0  0  0
  161.1200  204.3940  148.4590 N   0  0  0  0  0  0  0  0  0  0  0  0
  161.3800  203.3120  147.5560 C   0  0  0  0  0  0  0  0  0  0  0  0
  160.7720  205.7070  147.9020 C   0  0  0  0  0  2  0  0  0  0  0  0
  161.6400  202.1610  147.9960 O   0  0  0  0  0  1  0  0  0  0  0  0
  161.2140  206.8070  148.8130 C   0  0  0  0  0  0  0  0  0  0  0  0
  161.3480  203.5220  146.1820 O   0  0  0  0  0  0  0  0  0  0  0  0
  160.6460  205.3210  150.7380 C   0  0  0  0  0  2  0  0  0  0  0  0
  161.1580  206.6140  150.1960 C   0  0  0  0  0  0  0  0  0  0  0  0
  161.1680  204.1430  149.9100 C   0  0  0  0  0  2  0  0  0  0  0  0
  161.9700  208.8750  150.5120 C   0  0  0  0  0  0  0  0  0  0  0  0
  162.0160  209.0190  149.1200 C   0  0  0  0  0  3  0  0  0  0  0  0
  1 17  2  0  0  0  0
  1 10  1  0  0  0  0
  4  5  1  0  0  0  0
  4  8  2  0  0  0  0
  5  1  1  0  0  0  0
  6 10  2  0  0  0  0
  6  7  1  0  0  0  0
  7 11  2  0  0  0  0
  8  6  1  0  0  0  0
  9  3  2  0  0  0  0
  9 11  1  0  0  0  0
 10  9  1  0  0  0  0
 12  2  1  0  0  0  0
 13 12  2  0  0  0  0
 14 13  1  0  0  0  0
 15  2  2  0  0  0  0
 15  3  1  0  0  0  0
 16 14  2  0  0  0  0
 16 17  1  0  0  0  0
 17 15  1  0  0  0  0
 18 13  1  0  0  0  0
 18 20  1  0  0  0  0
 19 18  2  0  0  0  0
 21  4  1  0  0  0  0
 22 28  2  0  0  0  0
 22 34  1  0  0  0  0
 24 32  1  0  0  0  0
 25 27  1  0  0  0  0
 25 24  1  0  0  0  0
 26 24  1  0  0  0  0
 26 28  1  0  0  0  0
 28 31  1  0  0  0  0
 29 25  2  0  0  0  0
 31 30  1  0  0  0  0
 31 23  2  0  0  0  0
 32 30  1  0  0  0  0
 33 23  1  0  0  0  0
 33 21  1  0  0  0  0
 34 33  2  0  0  0  0
M  END
>  <MODEL>
9

>  <REMARK>
 VINA RESULT:      -8.3      4.643      9.027
  Name = 
  3 active torsions:
  status: ('A' for Active; 'I' for Inactive)
    1  A    between atoms: C_3  and  C_25
    2  A    between atoms: C_8  and  O_18
    3  A    between atoms: O_18  and  C_30
                            x       y       z     vdW  Elec       q    Type
                         _______ _______ _______ _____ _____    ______ ____

>  <TORSDO>
F 3

$$$$
