=
 OpenBabel11052422453D

 31 34  0  0  1  0  0  0  0  0999 V2000
  161.4960  207.2000  150.4040 C   0  0  0  0  0  0  0  0  0  0  0  0
  161.3080  205.8340  150.0360 C   0  0  0  0  0  0  0  0  0  0  0  0
  160.8350  203.5070  150.6040 C   0  0  0  0  0  3  0  0  0  0  0  0
  161.4010  207.6810  151.7400 C   0  0  0  0  0  0  0  0  0  0  0  0
  160.6230  207.8720  154.0240 C   0  0  2  0  0  3  0  0  0  0  0  0
  161.0150  204.8370  150.9830 C   0  0  0  0  0  3  0  0  0  0  0  0
  161.9850  209.5140  149.6940 C   0  0  0  0  0  0  0  0  0  0  0  0
  161.7100  206.4040  147.6990 C   0  0  0  0  0  3  0  0  0  0  0  0
  160.9450  203.1430  149.2650 C   0  0  0  0  0  3  0  0  0  0  0  0
  161.8950  209.9350  151.0250 C   0  0  0  0  0  3  0  0  0  0  0  0
  161.7930  208.1510  149.3810 C   0  0  0  0  0  0  0  0  0  0  0  0
  161.0680  206.8830  152.9520 C   0  0  0  0  0  2  0  0  0  0  0  0
  161.3410  203.7170  146.9660 O   0  0  0  0  0  1  0  0  0  0  0  0
  161.6200  209.0140  152.0260 C   0  0  0  0  0  0  0  0  0  0  0  0
  161.4740  209.4650  153.7380 S   0  0  0  0  0  0  0  0  0  0  0  0
  161.8940  207.7350  148.0490 C   0  0  0  0  0  3  0  0  0  0  0  0
  161.4180  205.4490  148.6720 C   0  0  0  0  0  0  0  0  0  0  0  0
  161.2360  204.1060  148.2970 C   0  0  0  0  0  0  0  0  0  0  0  0
  161.1700  212.3490  149.4800 O   0  0  0  0  0  0  0  0  0  0  0  0
  161.8610  211.8260  148.5670 C   0  0  0  0  0  0  0  0  0  0  0  0
  162.2730  210.4520  148.6420 N   0  0  0  0  0  2  0  0  0  0  0  0
  163.0580  213.8780  147.8360 C   0  0  0  0  0  1  0  0  0  0  0  0
  162.2620  212.6610  147.3930 C   0  0  2  0  0  3  0  0  0  0  0  0
  161.0380  214.4530  146.0410 C   0  0  0  0  0  1  0  0  0  0  0  0
  161.0790  213.0540  146.5630 C   0  0  0  0  0  0  0  0  0  0  0  0
  160.1440  212.1810  146.3140 N   0  0  0  0  0  0  0  0  0  0  0  0
  158.9500  212.3710  145.5370 C   0  0  0  0  0  0  0  0  0  0  0  0
  158.9590  212.2900  144.2800 O   0  0  0  0  0  0  0  0  0  0  0  0
  157.6750  212.6700  146.2360 C   0  0  0  0  0  1  0  0  0  0  0  0
  160.9540  207.3220  155.3990 C   0  0  0  0  0  2  0  0  0  0  0  0
  159.7180  207.3160  156.2760 C   0  0  0  0  0  1  0  0  0  0  0  0
  1  4  1  0  0  0  0
  2  1  1  0  0  0  0
  2  6  2  0  0  0  0
  3  6  1  0  0  0  0
  4 14  2  0  0  0  0
  4 12  1  0  0  0  0
  5 30  1  1  0  0  0
  7 10  2  0  0  0  0
  8 16  2  0  0  0  0
  8 17  1  0  0  0  0
  9  3  2  0  0  0  0
 10 14  1  0  0  0  0
 11  7  1  0  0  0  0
 11  1  2  0  0  0  0
 12  5  1  0  0  0  0
 13 18  1  0  0  0  0
 14 15  1  0  0  0  0
 15  5  1  0  0  0  0
 16 11  1  0  0  0  0
 17  2  1  0  0  0  0
 18 17  2  0  0  0  0
 18  9  1  0  0  0  0
 20 21  1  0  0  0  0
 20 19  2  0  0  0  0
 21  7  1  0  0  0  0
 23 22  1  1  0  0  0
 23 20  1  0  0  0  0
 24 25  1  0  0  0  0
 25 23  1  0  0  0  0
 26 25  2  0  0  0  0
 27 29  1  0  0  0  0
 27 26  1  0  0  0  0
 28 27  2  0  0  0  0
 30 31  1  0  0  0  0
M  END
>  <MODEL>
1

>  <REMARK>
 VINA RESULT:     -10.1      0.000      0.000
  Name = 
  5 active torsions:
  status: ('A' for Active; 'I' for Inactive)
    1  A    between atoms: C_1  and  N_24
    2  A    between atoms: C_2  and  C_13
    3  A    between atoms: C_9  and  C_22
    4  A    between atoms: C_15  and  N_23
    5  A    between atoms: C_19  and  C_22
                            x       y       z     vdW  Elec       q    Type
                         _______ _______ _______ _____ _____    ______ ____

>  <TORSDO>
F 5

$$$$
=
 OpenBabel11052422453D

 31 34  0  0  1  0  0  0  0  0999 V2000
  161.4860  208.0950  151.0410 C   0  0  0  0  0  0  0  0  0  0  0  0
  161.2400  207.8620  152.4270 C   0  0  0  0  0  0  0  0  0  0  0  0
  160.6750  206.3800  154.2840 C   0  0  0  0  0  3  0  0  0  0  0  0
  161.4320  207.0800  150.0460 C   0  0  0  0  0  0  0  0  0  0  0  0
  161.6640  204.8940  149.0300 C   0  0  2  0  0  3  0  0  0  0  0  0
  160.9130  206.5890  152.9260 C   0  0  0  0  0  3  0  0  0  0  0  0
  162.0640  209.6990  149.2550 C   0  0  0  0  0  0  0  0  0  0  0  0
  161.6380  210.2210  152.8990 C   0  0  0  0  0  3  0  0  0  0  0  0
  160.7580  207.4460  155.1770 C   0  0  0  0  0  3  0  0  0  0  0  0
  161.9860  208.6690  148.3120 C   0  0  0  0  0  3  0  0  0  0  0  0
  161.8100  209.4180  150.6150 C   0  0  0  0  0  0  0  0  0  0  0  0
  161.1530  205.6330  150.2620 C   0  0  0  0  0  2  0  0  0  0  0  0
  161.1550  209.7720  155.6290 O   0  0  0  0  0  1  0  0  0  0  0  0
  161.6590  207.3820  148.7170 C   0  0  0  0  0  0  0  0  0  0  0  0
  161.5520  206.0140  147.5890 S   0  0  0  0  0  0  0  0  0  0  0  0
  161.8800  210.4560  151.5520 C   0  0  0  0  0  3  0  0  0  0  0  0
  161.3200  208.9410  153.3490 C   0  0  0  0  0  0  0  0  0  0  0  0
  161.0790  208.7240  154.7170 C   0  0  0  0  0  0  0  0  0  0  0  0
  160.6450  211.4640  147.3530 O   0  0  0  0  0  0  0  0  0  0  0  0
  161.6880  211.8730  147.9270 C   0  0  0  0  0  0  0  0  0  0  0  0
  162.3990  211.0400  148.8550 N   0  0  0  0  0  2  0  0  0  0  0  0
  161.4480  214.2840  148.4790 C   0  0  0  0  0  1  0  0  0  0  0  0
  162.1810  213.2540  147.6360 C   0  0  2  0  0  3  0  0  0  0  0  0
  160.9640  214.4530  145.7330 C   0  0  0  0  0  1  0  0  0  0  0  0
  162.0910  213.5790  146.1760 C   0  0  0  0  0  0  0  0  0  0  0  0
  162.9860  213.1100  145.3520 N   0  0  0  0  0  0  0  0  0  0  0  0
  163.0670  213.3200  143.9330 C   0  0  0  0  0  0  0  0  0  0  0  0
  163.8200  214.1990  143.4360 O   0  0  0  0  0  0  0  0  0  0  0  0
  162.2420  212.4770  143.0310 C   0  0  0  0  0  1  0  0  0  0  0  0
  160.8390  203.6400  148.8050 C   0  0  0  0  0  2  0  0  0  0  0  0
  160.7540  202.8290  150.0830 C   0  0  0  0  0  1  0  0  0  0  0  0
  1  2  2  0  0  0  0
  2  6  1  0  0  0  0
  2 17  1  0  0  0  0
  3  9  1  0  0  0  0
  4 12  1  0  0  0  0
  4  1  1  0  0  0  0
  5 30  1  6  0  0  0
  5 12  1  0  0  0  0
  6  3  2  0  0  0  0
  7 11  1  0  0  0  0
  8 17  2  0  0  0  0
 10 14  1  0  0  0  0
 10  7  2  0  0  0  0
 11  1  1  0  0  0  0
 11 16  2  0  0  0  0
 14  4  2  0  0  0  0
 15 14  1  0  0  0  0
 15  5  1  0  0  0  0
 16  8  1  0  0  0  0
 17 18  1  0  0  0  0
 18  9  2  0  0  0  0
 18 13  1  0  0  0  0
 19 20  2  0  0  0  0
 20 21  1  0  0  0  0
 21  7  1  0  0  0  0
 23 20  1  0  0  0  0
 23 22  1  1  0  0  0
 24 25  1  0  0  0  0
 25 23  1  0  0  0  0
 26 25  2  0  0  0  0
 27 26  1  0  0  0  0
 28 27  2  0  0  0  0
 29 27  1  0  0  0  0
 30 31  1  0  0  0  0
M  END
>  <MODEL>
2

>  <REMARK>
 VINA RESULT:      -9.2      2.419      4.763
  Name = 
  5 active torsions:
  status: ('A' for Active; 'I' for Inactive)
    1  A    between atoms: C_1  and  N_24
    2  A    between atoms: C_2  and  C_13
    3  A    between atoms: C_9  and  C_22
    4  A    between atoms: C_15  and  N_23
    5  A    between atoms: C_19  and  C_22
                            x       y       z     vdW  Elec       q    Type
                         _______ _______ _______ _____ _____    ______ ____

>  <TORSDO>
F 5

$$$$
=
 OpenBabel11052422453D

 31 34  0  0  1  0  0  0  0  0999 V2000
  161.5180  209.2550  151.0040 C   0  0  0  0  0  0  0  0  0  0  0  0
  161.1950  209.3200  152.3920 C   0  0  0  0  0  0  0  0  0  0  0  0
  160.6150  210.5800  154.4020 C   0  0  0  0  0  3  0  0  0  0  0  0
  161.5930  210.3940  150.1550 C   0  0  0  0  0  0  0  0  0  0  0  0
  161.0650  212.5740  149.2430 C   0  0  2  0  0  3  0  0  0  0  0  0
  160.9280  210.5370  153.0440 C   0  0  0  0  0  3  0  0  0  0  0  0
  162.0990  207.8620  149.0490 C   0  0  0  0  0  0  0  0  0  0  0  0
  161.4000  206.8950  152.5570 C   0  0  0  0  0  3  0  0  0  0  0  0
  160.5630  209.4010  155.1430 C   0  0  0  0  0  3  0  0  0  0  0  0
  162.1740  209.0150  148.2590 C   0  0  0  0  0  3  0  0  0  0  0  0
  161.7780  207.9790  150.4190 C   0  0  0  0  0  0  0  0  0  0  0  0
  161.3270  211.8090  150.5360 C   0  0  0  0  0  2  0  0  0  0  0  0
  160.7650  207.0120  155.2910 O   0  0  0  0  0  1  0  0  0  0  0  0
  161.9350  210.2600  148.8240 C   0  0  0  0  0  0  0  0  0  0  0  0
  161.9960  211.7700  147.8900 S   0  0  0  0  0  0  0  0  0  0  0  0
  161.7130  206.8240  151.2060 C   0  0  0  0  0  3  0  0  0  0  0  0
  161.1390  208.1240  153.1600 C   0  0  0  0  0  0  0  0  0  0  0  0
  160.8230  208.1740  154.5300 C   0  0  0  0  0  0  0  0  0  0  0  0
  160.4020  206.3100  147.1910 O   0  0  0  0  0  0  0  0  0  0  0  0
  161.5000  205.8340  147.5820 C   0  0  0  0  0  0  0  0  0  0  0  0
  162.3460  206.5630  148.4840 N   0  0  0  0  0  2  0  0  0  0  0  0
  161.5200  204.2900  145.6340 C   0  0  0  0  0  1  0  0  0  0  0  0
  161.9250  204.4880  147.0860 C   0  0  2  0  0  3  0  0  0  0  0  0
  161.1450  202.0630  147.3110 C   0  0  0  0  0  1  0  0  0  0  0  0
  161.4010  203.3870  147.9540 C   0  0  0  0  0  0  0  0  0  0  0  0
  161.1980  203.6040  149.2240 N   0  0  0  0  0  0  0  0  0  0  0  0
  160.7130  202.6750  150.2060 C   0  0  0  0  0  0  0  0  0  0  0  0
  159.9440  201.7260  149.8980 O   0  0  0  0  0  0  0  0  0  0  0  0
  161.1290  202.8400  151.6220 C   0  0  0  0  0  1  0  0  0  0  0  0
  161.4930  214.0210  149.4070 C   0  0  0  0  0  2  0  0  0  0  0  0
  162.3490  214.4530  148.2330 C   0  0  0  0  0  1  0  0  0  0  0  0
  1  2  2  0  0  0  0
  2  6  1  0  0  0  0
  2 17  1  0  0  0  0
  3  9  1  0  0  0  0
  4 12  1  0  0  0  0
  4  1  1  0  0  0  0
  5 30  1  1  0  0  0
  5 12  1  0  0  0  0
  6  3  2  0  0  0  0
  7 11  1  0  0  0  0
  8 17  2  0  0  0  0
 10 14  1  0  0  0  0
 10  7  2  0  0  0  0
 11  1  1  0  0  0  0
 11 16  2  0  0  0  0
 14  4  2  0  0  0  0
 15 14  1  0  0  0  0
 15  5  1  0  0  0  0
 16  8  1  0  0  0  0
 17 18  1  0  0  0  0
 18  9  2  0  0  0  0
 18 13  1  0  0  0  0
 19 20  2  0  0  0  0
 20 21  1  0  0  0  0
 21  7  1  0  0  0  0
 23 22  1  6  0  0  0
 23 20  1  0  0  0  0
 23 25  1  0  0  0  0
 24 25  1  0  0  0  0
 25 26  2  0  0  0  0
 26 27  1  0  0  0  0
 27 29  1  0  0  0  0
 28 27  2  0  0  0  0
 31 30  1  0  0  0  0
M  END
>  <MODEL>
3

>  <REMARK>
 VINA RESULT:      -8.3      2.975      7.501
  Name = 
  5 active torsions:
  status: ('A' for Active; 'I' for Inactive)
    1  A    between atoms: C_1  and  N_24
    2  A    between atoms: C_2  and  C_13
    3  A    between atoms: C_9  and  C_22
    4  A    between atoms: C_15  and  N_23
    5  A    between atoms: C_19  and  C_22
                            x       y       z     vdW  Elec       q    Type
                         _______ _______ _______ _____ _____    ______ ____

>  <TORSDO>
F 5

$$$$
=
 OpenBabel11052422453D

 31 34  0  0  1  0  0  0  0  0999 V2000
  161.3600  208.4030  152.4160 C   0  0  0  0  0  0  0  0  0  0  0  0
  161.1960  209.1550  153.6180 C   0  0  0  0  0  0  0  0  0  0  0  0
  161.1730  211.2700  154.8370 C   0  0  0  0  0  3  0  0  0  0  0  0
  161.6680  208.9850  151.1550 C   0  0  0  0  0  0  0  0  0  0  0  0
  161.6790  210.6000  149.3520 C   0  0  2  0  0  3  0  0  0  0  0  0
  161.3360  210.5530  153.6520 C   0  0  0  0  0  3  0  0  0  0  0  0
  161.3530  206.1980  151.3050 C   0  0  0  0  0  0  0  0  0  0  0  0
  160.7400  207.0970  154.8460 C   0  0  0  0  0  3  0  0  0  0  0  0
  160.8670  210.6010  156.0200 C   0  0  0  0  0  3  0  0  0  0  0  0
  161.6690  206.8160  150.0900 C   0  0  0  0  0  3  0  0  0  0  0  0
  161.2040  206.9850  152.4670 C   0  0  0  0  0  0  0  0  0  0  0  0
  161.8380  210.4340  150.8590 C   0  0  0  0  0  2  0  0  0  0  0  0
  160.4170  208.5680  157.2180 O   0  0  0  0  0  1  0  0  0  0  0  0
  161.8360  208.1930  150.0350 C   0  0  0  0  0  0  0  0  0  0  0  0
  162.2240  209.0590  148.5340 S   0  0  0  0  0  0  0  0  0  0  0  0
  160.8970  206.3590  153.6810 C   0  0  0  0  0  3  0  0  0  0  0  0
  160.8850  208.4840  154.8320 C   0  0  0  0  0  0  0  0  0  0  0  0
  160.7220  209.2130  156.0240 C   0  0  0  0  0  0  0  0  0  0  0  0
  160.4860  204.3290  149.1840 O   0  0  0  0  0  0  0  0  0  0  0  0
  160.7560  203.8900  150.3320 C   0  0  0  0  0  0  0  0  0  0  0  0
  161.1800  204.7720  151.3830 N   0  0  0  0  0  2  0  0  0  0  0  0
  161.8730  201.8940  151.3060 C   0  0  0  0  0  1  0  0  0  0  0  0
  160.6380  202.4220  150.5940 C   0  0  2  0  0  3  0  0  0  0  0  0
  158.9750  201.1420  149.1320 C   0  0  0  0  0  1  0  0  0  0  0  0
  160.3630  201.6560  149.3370 C   0  0  0  0  0  0  0  0  0  0  0  0
  161.3180  201.4720  148.4690 N   0  0  0  0  0  0  0  0  0  0  0  0
  161.2410  200.7760  147.2140 C   0  0  0  0  0  0  0  0  0  0  0  0
  161.6080  199.5770  147.0980 O   0  0  0  0  0  0  0  0  0  0  0  0
  160.7140  201.4920  146.0240 C   0  0  0  0  0  1  0  0  0  0  0  0
  162.5020  211.7840  148.8760 C   0  0  0  0  0  2  0  0  0  0  0  0
  161.7340  212.5760  147.8360 C   0  0  0  0  0  1  0  0  0  0  0  0
  1 11  1  0  0  0  0
  1  2  2  0  0  0  0
  2  6  1  0  0  0  0
  2 17  1  0  0  0  0
  3  9  1  0  0  0  0
  4  1  1  0  0  0  0
  5 30  1  6  0  0  0
  5 12  1  0  0  0  0
  6  3  2  0  0  0  0
  7 21  1  0  0  0  0
  7 11  1  0  0  0  0
  9 18  2  0  0  0  0
 10  7  2  0  0  0  0
 11 16  2  0  0  0  0
 12  4  1  0  0  0  0
 14 10  1  0  0  0  0
 14  4  2  0  0  0  0
 15  5  1  0  0  0  0
 15 14  1  0  0  0  0
 16  8  1  0  0  0  0
 17  8  2  0  0  0  0
 17 18  1  0  0  0  0
 18 13  1  0  0  0  0
 19 20  2  0  0  0  0
 20 23  1  0  0  0  0
 20 21  1  0  0  0  0
 23 22  1  6  0  0  0
 24 25  1  0  0  0  0
 25 23  1  0  0  0  0
 26 25  2  0  0  0  0
 27 26  1  0  0  0  0
 28 27  2  0  0  0  0
 29 27  1  0  0  0  0
 31 30  1  0  0  0  0
M  END
>  <MODEL>
4

>  <REMARK>
 VINA RESULT:      -8.2      3.542      8.493
  Name = 
  5 active torsions:
  status: ('A' for Active; 'I' for Inactive)
    1  A    between atoms: C_1  and  N_24
    2  A    between atoms: C_2  and  C_13
    3  A    between atoms: C_9  and  C_22
    4  A    between atoms: C_15  and  N_23
    5  A    between atoms: C_19  and  C_22
                            x       y       z     vdW  Elec       q    Type
                         _______ _______ _______ _____ _____    ______ ____

>  <TORSDO>
F 5

$$$$
=
 OpenBabel11052422453D

 31 34  0  0  1  0  0  0  0  0999 V2000
  161.0170  208.4070  153.0850 C   0  0  0  0  0  0  0  0  0  0  0  0
  160.7520  208.3970  154.4870 C   0  0  0  0  0  0  0  0  0  0  0  0
  160.3800  207.2110  156.5900 C   0  0  0  0  0  3  0  0  0  0  0  0
  161.1980  207.2320  152.3050 C   0  0  0  0  0  0  0  0  0  0  0  0
  161.8760  204.9780  151.7350 C   0  0  2  0  0  3  0  0  0  0  0  0
  160.6410  207.2020  155.2200 C   0  0  0  0  0  3  0  0  0  0  0  0
  161.3750  209.7270  151.0290 C   0  0  0  0  0  0  0  0  0  0  0  0
  160.6870  210.8350  154.4970 C   0  0  0  0  0  3  0  0  0  0  0  0
  160.2230  208.4220  157.2600 C   0  0  0  0  0  3  0  0  0  0  0  0
  161.5330  208.5420  150.3030 C   0  0  0  0  0  3  0  0  0  0  0  0
  161.1120  209.6640  152.4150 C   0  0  0  0  0  0  0  0  0  0  0  0
  161.1790  205.8250  152.7940 C   0  0  0  0  0  2  0  0  0  0  0  0
  160.1650  210.8240  157.2580 O   0  0  0  0  0  1  0  0  0  0  0  0
  161.4290  207.3160  150.9460 C   0  0  0  0  0  0  0  0  0  0  0  0
  161.6290  205.7650  150.1030 S   0  0  0  0  0  0  0  0  0  0  0  0
  160.9460  210.8530  153.1340 C   0  0  0  0  0  3  0  0  0  0  0  0
  160.5890  209.6250  155.1840 C   0  0  0  0  0  0  0  0  0  0  0  0
  160.3260  209.6280  156.5650 C   0  0  0  0  0  0  0  0  0  0  0  0
  162.2450  210.3310  148.2680 O   0  0  0  0  0  0  0  0  0  0  0  0
  161.9040  211.2680  149.0360 C   0  0  0  0  0  0  0  0  0  0  0  0
  161.4770  211.0070  150.3810 N   0  0  0  0  0  2  0  0  0  0  0  0
  161.1410  213.6020  149.4240 C   0  0  0  0  0  1  0  0  0  0  0  0
  161.9400  212.6730  148.5240 C   0  0  2  0  0  3  0  0  0  0  0  0
  162.4870  213.1370  146.0690 C   0  0  0  0  0  1  0  0  0  0  0  0
  161.4770  212.7580  147.1030 C   0  0  0  0  0  0  0  0  0  0  0  0
  160.2350  212.4910  146.8090 N   0  0  0  0  0  0  0  0  0  0  0  0
  159.6160  212.5100  145.5130 C   0  0  0  0  0  0  0  0  0  0  0  0
  159.9700  211.7200  144.5980 O   0  0  0  0  0  0  0  0  0  0  0  0
  158.5310  213.4880  145.2460 C   0  0  0  0  0  1  0  0  0  0  0  0
  161.3070  203.5710  151.7470 C   0  0  0  0  0  2  0  0  0  0  0  0
  160.6140  203.2710  150.4320 C   0  0  0  0  0  1  0  0  0  0  0  0
  1  2  2  0  0  0  0
  2 17  1  0  0  0  0
  2  6  1  0  0  0  0
  3  9  1  0  0  0  0
  4 12  1  0  0  0  0
  4  1  1  0  0  0  0
  5 30  1  6  0  0  0
  5 12  1  0  0  0  0
  6  3  2  0  0  0  0
  7 11  1  0  0  0  0
  8 17  2  0  0  0  0
 10 14  1  0  0  0  0
 10  7  2  0  0  0  0
 11  1  1  0  0  0  0
 11 16  2  0  0  0  0
 14  4  2  0  0  0  0
 15 14  1  0  0  0  0
 15  5  1  0  0  0  0
 16  8  1  0  0  0  0
 17 18  1  0  0  0  0
 18 13  1  0  0  0  0
 18  9  2  0  0  0  0
 19 20  2  0  0  0  0
 20 21  1  0  0  0  0
 21  7  1  0  0  0  0
 23 20  1  0  0  0  0
 23 22  1  1  0  0  0
 24 25  1  0  0  0  0
 25 23  1  0  0  0  0
 26 25  2  0  0  0  0
 27 26  1  0  0  0  0
 28 27  2  0  0  0  0
 29 27  1  0  0  0  0
 31 30  1  0  0  0  0
M  END
>  <MODEL>
5

>  <REMARK>
 VINA RESULT:      -7.8      2.199      5.061
  Name = 
  5 active torsions:
  status: ('A' for Active; 'I' for Inactive)
    1  A    between atoms: C_1  and  N_24
    2  A    between atoms: C_2  and  C_13
    3  A    between atoms: C_9  and  C_22
    4  A    between atoms: C_15  and  N_23
    5  A    between atoms: C_19  and  C_22
                            x       y       z     vdW  Elec       q    Type
                         _______ _______ _______ _____ _____    ______ ____

>  <TORSDO>
F 5

$$$$
=
 OpenBabel11052422453D

 31 34  0  0  1  0  0  0  0  0999 V2000
  161.2050  207.9160  152.7430 C   0  0  0  0  0  0  0  0  0  0  0  0
  160.8340  208.0050  154.1180 C   0  0  0  0  0  0  0  0  0  0  0  0
  160.1740  206.9740  156.2310 C   0  0  0  0  0  3  0  0  0  0  0  0
  161.3140  206.6900  152.0300 C   0  0  0  0  0  0  0  0  0  0  0  0
  161.7780  204.3510  151.6110 C   0  0  2  0  0  3  0  0  0  0  0  0
  160.5350  206.8670  154.8880 C   0  0  0  0  0  3  0  0  0  0  0  0
  161.8640  209.0850  150.6700 C   0  0  0  0  0  0  0  0  0  0  0  0
  161.0400  210.4330  154.0220 C   0  0  0  0  0  3  0  0  0  0  0  0
  160.1020  208.2270  156.8360 C   0  0  0  0  0  3  0  0  0  0  0  0
  161.9440  207.8540  150.0090 C   0  0  0  0  0  3  0  0  0  0  0  0
  161.4900  209.1200  152.0310 C   0  0  0  0  0  0  0  0  0  0  0  0
  161.1010  205.3200  152.5750 C   0  0  0  0  0  2  0  0  0  0  0  0
  160.3110  210.6180  156.7280 O   0  0  0  0  0  1  0  0  0  0  0  0
  161.6550  206.6810  150.6920 C   0  0  0  0  0  0  0  0  0  0  0  0
  161.7450  205.0770  149.9340 S   0  0  0  0  0  0  0  0  0  0  0  0
  161.4030  210.3550  152.6840 C   0  0  0  0  0  3  0  0  0  0  0  0
  160.7560  209.2770  154.7470 C   0  0  0  0  0  0  0  0  0  0  0  0
  160.3910  209.3780  156.1020 C   0  0  0  0  0  0  0  0  0  0  0  0
  161.3700  209.7670  147.8350 O   0  0  0  0  0  0  0  0  0  0  0  0
  161.9040  210.6140  148.5990 C   0  0  0  0  0  0  0  0  0  0  0  0
  162.1560  210.3120  149.9800 N   0  0  0  0  0  2  0  0  0  0  0  0
  163.7750  212.1650  148.0770 C   0  0  0  0  0  1  0  0  0  0  0  0
  162.2700  211.9560  148.0500 C   0  0  2  0  0  3  0  0  0  0  0  0
  162.1060  214.4410  148.6300 C   0  0  0  0  0  1  0  0  0  0  0  0
  161.5520  213.0600  148.7620 C   0  0  0  0  0  0  0  0  0  0  0  0
  160.4800  212.7950  149.4550 N   0  0  0  0  0  0  0  0  0  0  0  0
  159.6600  213.7170  150.1910 C   0  0  0  0  0  0  0  0  0  0  0  0
  159.9830  214.1160  151.3410 O   0  0  0  0  0  0  0  0  0  0  0  0
  158.4000  214.2100  149.5790 C   0  0  0  0  0  1  0  0  0  0  0  0
  161.0570  203.0160  151.6360 C   0  0  0  0  0  2  0  0  0  0  0  0
  160.5800  202.6480  150.2440 C   0  0  0  0  0  1  0  0  0  0  0  0
  1  2  2  0  0  0  0
  2 17  1  0  0  0  0
  2  6  1  0  0  0  0
  3  9  1  0  0  0  0
  4 12  1  0  0  0  0
  4  1  1  0  0  0  0
  5 30  1  6  0  0  0
  5 12  1  0  0  0  0
  6  3  2  0  0  0  0
  7 11  1  0  0  0  0
  8 17  2  0  0  0  0
 10  7  2  0  0  0  0
 10 14  1  0  0  0  0
 11 16  2  0  0  0  0
 11  1  1  0  0  0  0
 14  4  2  0  0  0  0
 15 14  1  0  0  0  0
 15  5  1  0  0  0  0
 16  8  1  0  0  0  0
 17 18  1  0  0  0  0
 18 13  1  0  0  0  0
 18  9  2  0  0  0  0
 19 20  2  0  0  0  0
 20 21  1  0  0  0  0
 21  7  1  0  0  0  0
 23 22  1  1  0  0  0
 23 20  1  0  0  0  0
 23 25  1  0  0  0  0
 24 25  1  0  0  0  0
 25 26  2  0  0  0  0
 26 27  1  0  0  0  0
 27 28  2  0  0  0  0
 29 27  1  0  0  0  0
 31 30  1  0  0  0  0
M  END
>  <MODEL>
6

>  <REMARK>
 VINA RESULT:      -7.8      2.526      5.234
  Name = 
  5 active torsions:
  status: ('A' for Active; 'I' for Inactive)
    1  A    between atoms: C_1  and  N_24
    2  A    between atoms: C_2  and  C_13
    3  A    between atoms: C_9  and  C_22
    4  A    between atoms: C_15  and  N_23
    5  A    between atoms: C_19  and  C_22
                            x       y       z     vdW  Elec       q    Type
                         _______ _______ _______ _____ _____    ______ ____

>  <TORSDO>
F 5

$$$$
=
 OpenBabel11052422453D

 31 34  0  0  1  0  0  0  0  0999 V2000
  161.2470  209.7480  151.0140 C   0  0  0  0  0  0  0  0  0  0  0  0
  161.0690  211.1220  150.6760 C   0  0  0  0  0  0  0  0  0  0  0  0
  160.4560  213.4120  151.2630 C   0  0  0  0  0  3  0  0  0  0  0  0
  161.0060  209.2130  152.3100 C   0  0  0  0  0  0  0  0  0  0  0  0
  160.9050  209.1000  154.7270 C   0  0  2  0  0  3  0  0  0  0  0  0
  160.6260  212.0730  151.6120 C   0  0  0  0  0  3  0  0  0  0  0  0
  161.8930  207.4770  150.2890 C   0  0  0  0  0  0  0  0  0  0  0  0
  161.7790  210.6560  148.3900 C   0  0  0  0  0  3  0  0  0  0  0  0
  160.7260  213.8320  149.9630 C   0  0  0  0  0  3  0  0  0  0  0  0
  161.6290  206.9980  151.5770 C   0  0  0  0  0  3  0  0  0  0  0  0
  161.6990  208.8460  150.0040 C   0  0  0  0  0  0  0  0  0  0  0  0
  160.5700  209.9680  153.5180 C   0  0  0  0  0  2  0  0  0  0  0  0
  161.4300  213.3610  147.7140 O   0  0  0  0  0  1  0  0  0  0  0  0
  161.1770  207.8660  152.5610 C   0  0  0  0  0  0  0  0  0  0  0  0
  160.8310  207.3440  154.2230 S   0  0  0  0  0  0  0  0  0  0  0  0
  161.9560  209.3170  148.7110 C   0  0  0  0  0  3  0  0  0  0  0  0
  161.3400  211.5640  149.3520 C   0  0  0  0  0  0  0  0  0  0  0  0
  161.1680  212.9160  149.0060 C   0  0  0  0  0  0  0  0  0  0  0  0
  160.3420  206.2030  148.1180 O   0  0  0  0  0  0  0  0  0  0  0  0
  161.5790  205.9890  148.2120 C   0  0  0  0  0  0  0  0  0  0  0  0
  162.3590  206.5930  149.2550 N   0  0  0  0  0  2  0  0  0  0  0  0
  162.2600  205.7400  145.8350 C   0  0  0  0  0  1  0  0  0  0  0  0
  162.2380  205.0950  147.2100 C   0  0  2  0  0  3  0  0  0  0  0  0
  161.2060  203.2040  145.8320 C   0  0  0  0  0  1  0  0  0  0  0  0
  161.5980  203.7420  147.1690 C   0  0  0  0  0  0  0  0  0  0  0  0
  161.4150  203.0780  148.2760 N   0  0  0  0  0  0  0  0  0  0  0  0
  160.8310  201.7750  148.4320 C   0  0  0  0  0  0  0  0  0  0  0  0
  159.7010  201.6150  148.9650 O   0  0  0  0  0  0  0  0  0  0  0  0
  161.5810  200.5860  147.9500 C   0  0  0  0  0  1  0  0  0  0  0  0
  159.9220  209.3810  155.8480 C   0  0  0  0  0  2  0  0  0  0  0  0
  159.0180  210.5410  155.4790 C   0  0  0  0  0  1  0  0  0  0  0  0
  1  4  1  0  0  0  0
  2  1  1  0  0  0  0
  2  6  2  0  0  0  0
  3  6  1  0  0  0  0
  4 14  2  0  0  0  0
  4 12  1  0  0  0  0
  5 30  1  1  0  0  0
  7 10  2  0  0  0  0
  8 16  2  0  0  0  0
  8 17  1  0  0  0  0
  9  3  2  0  0  0  0
 10 14  1  0  0  0  0
 11  7  1  0  0  0  0
 11  1  2  0  0  0  0
 12  5  1  0  0  0  0
 13 18  1  0  0  0  0
 14 15  1  0  0  0  0
 15  5  1  0  0  0  0
 16 11  1  0  0  0  0
 17  2  1  0  0  0  0
 18 17  2  0  0  0  0
 18  9  1  0  0  0  0
 19 20  2  0  0  0  0
 20 21  1  0  0  0  0
 21  7  1  0  0  0  0
 23 22  1  6  0  0  0
 23 20  1  0  0  0  0
 24 25  1  0  0  0  0
 25 23  1  0  0  0  0
 25 26  2  0  0  0  0
 26 27  1  0  0  0  0
 27 28  2  0  0  0  0
 29 27  1  0  0  0  0
 31 30  1  0  0  0  0
M  END
>  <MODEL>
7

>  <REMARK>
 VINA RESULT:      -7.4      2.545      7.028
  Name = 
  5 active torsions:
  status: ('A' for Active; 'I' for Inactive)
    1  A    between atoms: C_1  and  N_24
    2  A    between atoms: C_2  and  C_13
    3  A    between atoms: C_9  and  C_22
    4  A    between atoms: C_15  and  N_23
    5  A    between atoms: C_19  and  C_22
                            x       y       z     vdW  Elec       q    Type
                         _______ _______ _______ _____ _____    ______ ____

>  <TORSDO>
F 5

$$$$
=
 OpenBabel11052422453D

 31 34  0  0  1  0  0  0  0  0999 V2000
  161.5500  209.1210  150.8390 C   0  0  0  0  0  0  0  0  0  0  0  0
  161.1490  209.0600  152.2070 C   0  0  0  0  0  0  0  0  0  0  0  0
  160.3460  210.1200  154.2550 C   0  0  0  0  0  3  0  0  0  0  0  0
  161.5620  210.3190  150.0710 C   0  0  0  0  0  0  0  0  0  0  0  0
  160.8790  212.4990  149.2700 C   0  0  2  0  0  3  0  0  0  0  0  0
  160.7330  210.1990  152.9180 C   0  0  0  0  0  3  0  0  0  0  0  0
  162.3640  207.9260  148.8370 C   0  0  0  0  0  0  0  0  0  0  0  0
  161.5740  206.6580  152.2280 C   0  0  0  0  0  3  0  0  0  0  0  0
  160.3660  208.8930  154.9140 C   0  0  0  0  0  3  0  0  0  0  0  0
  162.3710  209.1320  148.1280 C   0  0  0  0  0  3  0  0  0  0  0  0
  161.9610  207.9180  150.1900 C   0  0  0  0  0  0  0  0  0  0  0  0
  161.1430  211.6740  150.5250 C   0  0  0  0  0  2  0  0  0  0  0  0
  160.7860  206.5270  154.9210 O   0  0  0  0  0  1  0  0  0  0  0  0
  161.9860  210.3080  148.7560 C   0  0  0  0  0  0  0  0  0  0  0  0
  161.9530  211.8790  147.9270 S   0  0  0  0  0  0  0  0  0  0  0  0
  161.9640  206.7100  150.8970 C   0  0  0  0  0  3  0  0  0  0  0  0
  161.1660  207.8140  152.8920 C   0  0  0  0  0  0  0  0  0  0  0  0
  160.7740  207.7400  154.2410 C   0  0  0  0  0  0  0  0  0  0  0  0
  160.7420  206.1010  147.1690 O   0  0  0  0  0  0  0  0  0  0  0  0
  161.9490  205.8310  147.4000 C   0  0  0  0  0  0  0  0  0  0  0  0
  162.7630  206.6970  148.2050 N   0  0  0  0  0  2  0  0  0  0  0  0
  162.9980  204.8260  145.3830 C   0  0  0  0  0  1  0  0  0  0  0  0
  162.5390  204.5880  146.8120 C   0  0  2  0  0  3  0  0  0  0  0  0
  160.8570  203.2340  148.1830 C   0  0  0  0  0  1  0  0  0  0  0  0
  161.5920  203.4320  146.8970 C   0  0  0  0  0  0  0  0  0  0  0  0
  161.4270  202.6520  145.8650 N   0  0  0  0  0  0  0  0  0  0  0  0
  160.5630  201.5100  145.7570 C   0  0  0  0  0  0  0  0  0  0  0  0
  159.4370  201.5820  145.1970 O   0  0  0  0  0  0  0  0  0  0  0  0
  161.0110  200.2110  146.3210 C   0  0  0  0  0  1  0  0  0  0  0  0
  161.1580  213.9640  149.5520 C   0  0  0  0  0  2  0  0  0  0  0  0
  162.3190  214.4510  148.7060 C   0  0  0  0  0  1  0  0  0  0  0  0
  1  2  2  0  0  0  0
  2 17  1  0  0  0  0
  2  6  1  0  0  0  0
  3  9  1  0  0  0  0
  4 12  1  0  0  0  0
  4  1  1  0  0  0  0
  5 30  1  1  0  0  0
  5 12  1  0  0  0  0
  6  3  2  0  0  0  0
  7 11  1  0  0  0  0
  8 17  2  0  0  0  0
 10 14  1  0  0  0  0
 10  7  2  0  0  0  0
 11  1  1  0  0  0  0
 11 16  2  0  0  0  0
 14  4  2  0  0  0  0
 15 14  1  0  0  0  0
 15  5  1  0  0  0  0
 16  8  1  0  0  0  0
 17 18  1  0  0  0  0
 18  9  2  0  0  0  0
 18 13  1  0  0  0  0
 19 20  2  0  0  0  0
 20 21  1  0  0  0  0
 21  7  1  0  0  0  0
 23 22  1  6  0  0  0
 23 25  1  0  0  0  0
 23 20  1  0  0  0  0
 25 24  1  0  0  0  0
 26 25  2  0  0  0  0
 27 26  1  0  0  0  0
 27 29  1  0  0  0  0
 28 27  2  0  0  0  0
 31 30  1  0  0  0  0
M  END
>  <MODEL>
8

>  <REMARK>
 VINA RESULT:      -7.2      3.044      7.314
  Name = 
  5 active torsions:
  status: ('A' for Active; 'I' for Inactive)
    1  A    between atoms: C_1  and  N_24
    2  A    between atoms: C_2  and  C_13
    3  A    between atoms: C_9  and  C_22
    4  A    between atoms: C_15  and  N_23
    5  A    between atoms: C_19  and  C_22
                            x       y       z     vdW  Elec       q    Type
                         _______ _______ _______ _____ _____    ______ ____

>  <TORSDO>
F 5

$$$$
