=
 OpenBabel11062408333D

 32 34  0  0  1  0  0  0  0  0999 V2000
  161.9340  208.6880  151.6610 C   0  0  0  0  0  0  0  0  0  0  0  0
  162.1230  209.7970  150.8480 O   0  0  0  0  0  1  0  0  0  0  0  0
  161.1410  206.3980  153.1560 C   0  0  0  0  0  2  0  0  0  0  0  0
  162.1620  207.3160  151.0810 C   0  0  0  0  0  2  0  0  0  0  0  0
  161.2990  207.7330  153.8800 C   0  0  1  0  0  3  0  0  0  0  0  0
  161.4920  208.8670  152.9110 C   0  0  0  0  0  3  0  0  0  0  0  0
  162.2710  206.2300  152.1510 C   0  0  2  0  0  3  0  0  0  0  0  0
  160.0950  208.0210  154.7650 C   0  0  0  0  0  2  0  0  0  0  0  0
  159.9840  206.9770  157.2470 O   0  0  0  0  0  0  0  0  0  0  0  0
  162.0520  208.1170  156.6050 O   0  0  0  0  0  0  0  0  0  0  0  0
  160.5540  208.1430  156.4890 S   0  0  0  0  0  0  0  0  0  0  0  0
  159.9400  209.6170  157.1660 N   0  0  0  0  0  2  0  0  0  0  0  0
  159.4900  210.4690  156.0690 C   0  0  2  0  0  3  0  0  0  0  0  0
  160.5060  211.4370  155.7330 N   0  0  0  0  0  0  0  0  0  0  0  0
  160.5730  211.9090  154.5840 N   0  0  0  0  0  2  0  0  0  0  0  0
  158.2280  211.1360  156.4030 N   0  0  0  0  0  2  0  0  0  0  0  0
  157.3200  211.1120  155.2600 C   0  0  0  0  0  3  0  0  0  0  0  0
  155.9510  211.5890  155.7010 C   0  0  0  0  0  2  0  0  0  0  0  0
  156.8730  212.5260  154.9500 C   0  0  0  0  0  2  0  0  0  0  0  0
  162.1790  204.8640  151.5030 C   0  0  0  0  0  2  0  0  0  0  0  0
  160.7190  204.4990  151.2660 C   0  0  0  0  0  2  0  0  0  0  0  0
  160.4450  204.0910  149.8150 C   0  0  2  0  0  3  0  0  0  0  0  0
  161.1270  200.9050  147.9240 C   0  0  0  0  0  1  0  0  0  0  0  0
  160.3270  201.8160  148.8300 C   0  0  1  0  0  3  0  0  0  0  0  0
  160.8310  201.6770  150.2510 C   0  0  0  0  0  2  0  0  0  0  0  0
  161.2550  202.8640  149.4120 C   0  0  2  0  0  3  0  0  0  0  0  0
  160.7010  205.2460  148.8560 C   0  0  0  0  0  2  0  0  0  0  0  0
  161.9040  204.9370  147.9790 C   0  0  0  0  0  2  0  0  0  0  0  0
  162.2310  206.1170  147.0800 C   0  0  0  0  0  2  0  0  0  0  0  0
  162.2940  205.6810  145.6290 C   0  0  0  0  0  2  0  0  0  0  0  0
  160.7010  203.9850  144.8010 C   0  0  0  0  0  1  0  0  0  0  0  0
  162.0060  204.1980  145.5380 C   0  0  0  0  0  2  0  0  0  0  0  0
  1  6  2  0  0  0  0
  2  1  1  0  0  0  0
  3  5  1  0  0  0  0
  4  1  1  0  0  0  0
  4  7  1  0  0  0  0
  5  8  1  6  0  0  0
  6  5  1  0  0  0  0
  7 20  1  6  0  0  0
  7  3  1  0  0  0  0
  8 11  1  0  0  0  0
 11 10  2  0  0  0  0
 11 12  1  0  0  0  0
 11  9  2  0  0  0  0
 13 14  1  1  0  0  0
 13 16  1  0  0  0  0
 13 12  1  0  0  0  0
 15 14  2  0  0  0  0
 17 18  1  0  0  0  0
 17 16  1  0  0  0  0
 19 17  1  0  0  0  0
 19 18  1  0  0  0  0
 21 20  1  0  0  0  0
 22 27  1  6  0  0  0
 22 21  1  0  0  0  0
 24 23  1  6  0  0  0
 24 26  1  0  0  0  0
 24 25  1  0  0  0  0
 26 22  1  1  0  0  0
 26 25  1  0  0  0  0
 28 27  1  0  0  0  0
 29 28  1  0  0  0  0
 30 29  1  0  0  0  0
 31 32  1  0  0  0  0
 32 30  1  0  0  0  0
M  END
>  <MODEL>
1

>  <REMARK>
 VINA RESULT:      -7.1      0.000      0.000
  Name = 
  16 active torsions:
  status: ('A' for Active; 'I' for Inactive)
    1  A    between atoms: C_1  and  N_30
    2  A    between atoms: N_2  and  C_5
    3  A    between atoms: N_2  and  S_27
    4  A    between atoms: C_5  and  N_14
    5  A    between atoms: C_5  and  N_30
    6  A    between atoms: C_6  and  C_9
    7  A    between atoms: C_6  and  C_17
    8  A    between atoms: C_7  and  C_26
    9  A    between atoms: C_7  and  C_31
   10  A    between atoms: C_9  and  C_31
   11  A    between atoms: C_9  and  C_32
   12  A    between atoms: C_16  and  C_20
   13  A    between atoms: C_16  and  S_27
   14  A    between atoms: C_17  and  C_29
   15  A    between atoms: C_18  and  C_25
   16  A    between atoms: C_18  and  C_29
                            x       y       z     vdW  Elec       q    Type
                         _______ _______ _______ _____ _____    ______ ____

>  <TORSDO>
F 16

$$$$
=
 OpenBabel11062408333D

 32 34  0  0  1  0  0  0  0  0999 V2000
  160.7680  207.8930  154.8850 C   0  0  0  0  0  0  0  0  0  0  0  0
  160.6810  207.6500  156.2490 O   0  0  0  0  0  1  0  0  0  0  0  0
  161.3690  208.4950  152.1670 C   0  0  0  0  0  2  0  0  0  0  0  0
  161.2750  206.7970  153.9830 C   0  0  0  0  0  2  0  0  0  0  0  0
  160.4870  209.4580  152.9580 C   0  0  1  0  0  3  0  0  0  0  0  0
  160.4660  209.1110  154.4220 C   0  0  0  0  0  3  0  0  0  0  0  0
  160.9850  207.0630  152.5060 C   0  0  2  0  0  3  0  0  0  0  0  0
  160.9550  210.8960  152.7850 C   0  0  0  0  0  2  0  0  0  0  0  0
  158.3270  211.4380  152.5420 O   0  0  0  0  0  0  0  0  0  0  0  0
  159.4960  212.4080  154.4610 O   0  0  0  0  0  0  0  0  0  0  0  0
  159.6150  212.0600  153.0030 S   0  0  0  0  0  0  0  0  0  0  0  0
  159.9160  213.4960  152.0800 N   0  0  0  0  0  2  0  0  0  0  0  0
  159.3390  213.3120  150.7510 C   0  0  2  0  0  3  0  0  0  0  0  0
  160.3760  213.3030  149.7490 N   0  0  0  0  0  0  0  0  0  0  0  0
  160.7180  214.3580  149.1840 N   0  0  0  0  0  2  0  0  0  0  0  0
  158.3450  214.3490  150.4600 N   0  0  0  0  0  2  0  0  0  0  0  0
  157.0250  213.7520  150.2740 C   0  0  0  0  0  3  0  0  0  0  0  0
  156.3270  214.4370  149.1160 C   0  0  0  0  0  2  0  0  0  0  0  0
  156.9690  213.0800  148.9170 C   0  0  0  0  0  2  0  0  0  0  0  0
  161.7850  206.1030  151.6480 C   0  0  0  0  0  2  0  0  0  0  0  0
  160.9610  204.8530  151.3610 C   0  0  0  0  0  2  0  0  0  0  0  0
  160.8230  204.5750  149.8610 C   0  0  2  0  0  3  0  0  0  0  0  0
  160.9930  201.2850  148.0340 C   0  0  0  0  0  1  0  0  0  0  0  0
  160.3490  202.3250  148.9240 C   0  0  1  0  0  3  0  0  0  0  0  0
  160.8390  202.1390  150.3460 C   0  0  0  0  0  2  0  0  0  0  0  0
  161.4320  203.2310  149.4800 C   0  0  2  0  0  3  0  0  0  0  0  0
  161.4280  205.6970  149.0300 C   0  0  0  0  0  2  0  0  0  0  0  0
  160.4300  206.1680  147.9840 C   0  0  0  0  0  2  0  0  0  0  0  0
  161.0320  206.0910  146.5930 C   0  0  0  0  0  2  0  0  0  0  0  0
  162.4620  205.5860  146.6570 C   0  0  0  0  0  2  0  0  0  0  0  0
  161.2740  203.9090  145.2880 C   0  0  0  0  0  1  0  0  0  0  0  0
  162.6340  204.4430  145.6810 C   0  0  0  0  0  2  0  0  0  0  0  0
  1  2  1  0  0  0  0
  3  7  1  0  0  0  0
  3  5  1  0  0  0  0
  4  1  1  0  0  0  0
  5  8  1  1  0  0  0
  5  6  1  0  0  0  0
  6  1  2  0  0  0  0
  7 20  1  6  0  0  0
  7  4  1  0  0  0  0
  8 11  1  0  0  0  0
  9 11  2  0  0  0  0
 11 10  2  0  0  0  0
 12 11  1  0  0  0  0
 13 14  1  6  0  0  0
 13 12  1  0  0  0  0
 15 14  2  0  0  0  0
 16 13  1  0  0  0  0
 17 16  1  0  0  0  0
 18 17  1  0  0  0  0
 19 18  1  0  0  0  0
 19 17  1  0  0  0  0
 21 20  1  0  0  0  0
 22 27  1  6  0  0  0
 22 21  1  0  0  0  0
 24 23  1  6  0  0  0
 24 26  1  0  0  0  0
 24 25  1  0  0  0  0
 26 22  1  1  0  0  0
 26 25  1  0  0  0  0
 28 27  1  0  0  0  0
 29 30  1  0  0  0  0
 29 28  1  0  0  0  0
 31 32  1  0  0  0  0
 32 30  1  0  0  0  0
M  END
>  <MODEL>
2

>  <REMARK>
 VINA RESULT:      -7.0      3.136      4.024
  Name = 
  16 active torsions:
  status: ('A' for Active; 'I' for Inactive)
    1  A    between atoms: C_1  and  N_30
    2  A    between atoms: N_2  and  C_5
    3  A    between atoms: N_2  and  S_27
    4  A    between atoms: C_5  and  N_14
    5  A    between atoms: C_5  and  N_30
    6  A    between atoms: C_6  and  C_9
    7  A    between atoms: C_6  and  C_17
    8  A    between atoms: C_7  and  C_26
    9  A    between atoms: C_7  and  C_31
   10  A    between atoms: C_9  and  C_31
   11  A    between atoms: C_9  and  C_32
   12  A    between atoms: C_16  and  C_20
   13  A    between atoms: C_16  and  S_27
   14  A    between atoms: C_17  and  C_29
   15  A    between atoms: C_18  and  C_25
   16  A    between atoms: C_18  and  C_29
                            x       y       z     vdW  Elec       q    Type
                         _______ _______ _______ _____ _____    ______ ____

>  <TORSDO>
F 16

$$$$
=
 OpenBabel11062408333D

 32 34  0  0  1  0  0  0  0  0999 V2000
  162.0490  209.5360  149.9110 C   0  0  0  0  0  0  0  0  0  0  0  0
  162.2940  210.1990  148.7160 O   0  0  0  0  0  1  0  0  0  0  0  0
  161.1540  208.0800  152.1890 C   0  0  0  0  0  2  0  0  0  0  0  0
  162.3070  208.0530  149.9840 C   0  0  0  0  0  2  0  0  0  0  0  0
  161.2720  209.5990  152.2840 C   0  0  1  0  0  3  0  0  0  0  0  0
  161.5300  210.2180  150.9380 C   0  0  0  0  0  3  0  0  0  0  0  0
  162.3440  207.5280  151.4190 C   0  0  2  0  0  3  0  0  0  0  0  0
  160.0150  210.2080  152.8910 C   0  0  0  0  0  2  0  0  0  0  0  0
  159.8890  209.4040  155.4590 O   0  0  0  0  0  0  0  0  0  0  0  0
  161.6760  210.9680  154.8630 O   0  0  0  0  0  0  0  0  0  0  0  0
  160.2380  210.6020  154.6200 S   0  0  0  0  0  0  0  0  0  0  0  0
  159.2130  211.9270  155.0670 N   0  0  0  0  0  2  0  0  0  0  0  0
  158.1360  212.0210  154.0850 C   0  0  2  0  0  3  0  0  0  0  0  0
  158.1820  213.2920  153.4060 N   0  0  0  0  0  0  0  0  0  0  0  0
  158.0660  213.3510  152.1680 N   0  0  0  0  0  2  0  0  0  0  0  0
  156.8290  211.8160  154.7160 N   0  0  0  0  0  2  0  0  0  0  0  0
  156.8270  212.3540  156.0730 C   0  0  0  0  0  3  0  0  0  0  0  0
  155.5430  213.1260  156.3020 C   0  0  0  0  0  2  0  0  0  0  0  0
  155.6930  211.7250  156.8570 C   0  0  0  0  0  2  0  0  0  0  0  0
  162.2880  206.0130  151.4090 C   0  0  0  0  0  2  0  0  0  0  0  0
  160.8360  205.5480  151.4230 C   0  0  0  0  0  2  0  0  0  0  0  0
  160.4850  204.6890  150.2040 C   0  0  2  0  0  3  0  0  0  0  0  0
  161.1450  201.0510  149.4820 C   0  0  0  0  0  1  0  0  0  0  0  0
  160.4000  202.2110  150.1080 C   0  0  1  0  0  3  0  0  0  0  0  0
  161.0790  202.5990  151.4050 C   0  0  0  0  0  2  0  0  0  0  0  0
  161.3200  203.4150  150.1530 C   0  0  2  0  0  3  0  0  0  0  0  0
  160.6260  205.4790  148.9090 C   0  0  0  0  0  2  0  0  0  0  0  0
  161.6190  204.7930  147.9860 C   0  0  0  0  0  2  0  0  0  0  0  0
  162.2070  205.7840  146.9970 C   0  0  0  0  0  2  0  0  0  0  0  0
  162.5130  205.1030  145.6770 C   0  0  0  0  0  2  0  0  0  0  0  0
  160.3200  206.0790  145.0980 C   0  0  0  0  0  1  0  0  0  0  0  0
  161.2240  204.8790  144.9170 C   0  0  0  0  0  2  0  0  0  0  0  0
  1  4  1  0  0  0  0
  1  6  2  0  0  0  0
  2  1  1  0  0  0  0
  3  5  1  0  0  0  0
  4  7  1  0  0  0  0
  5  8  1  6  0  0  0
  6  5  1  0  0  0  0
  7 20  1  6  0  0  0
  7  3  1  0  0  0  0
  8 11  1  0  0  0  0
 11 10  2  0  0  0  0
 11 12  1  0  0  0  0
 11  9  2  0  0  0  0
 13 14  1  1  0  0  0
 13 16  1  0  0  0  0
 13 12  1  0  0  0  0
 15 14  2  0  0  0  0
 16 17  1  0  0  0  0
 17 18  1  0  0  0  0
 17 19  1  0  0  0  0
 18 19  1  0  0  0  0
 20 21  1  0  0  0  0
 22 27  1  6  0  0  0
 22 21  1  0  0  0  0
 24 23  1  6  0  0  0
 24 26  1  0  0  0  0
 24 25  1  0  0  0  0
 26 22  1  1  0  0  0
 26 25  1  0  0  0  0
 28 27  1  0  0  0  0
 29 28  1  0  0  0  0
 30 29  1  0  0  0  0
 32 31  1  0  0  0  0
 32 30  1  0  0  0  0
M  END
>  <MODEL>
3

>  <REMARK>
 VINA RESULT:      -6.7      1.769      2.141
  Name = 
  16 active torsions:
  status: ('A' for Active; 'I' for Inactive)
    1  A    between atoms: C_1  and  N_30
    2  A    between atoms: N_2  and  C_5
    3  A    between atoms: N_2  and  S_27
    4  A    between atoms: C_5  and  N_14
    5  A    between atoms: C_5  and  N_30
    6  A    between atoms: C_6  and  C_9
    7  A    between atoms: C_6  and  C_17
    8  A    between atoms: C_7  and  C_26
    9  A    between atoms: C_7  and  C_31
   10  A    between atoms: C_9  and  C_31
   11  A    between atoms: C_9  and  C_32
   12  A    between atoms: C_16  and  C_20
   13  A    between atoms: C_16  and  S_27
   14  A    between atoms: C_17  and  C_29
   15  A    between atoms: C_18  and  C_25
   16  A    between atoms: C_18  and  C_29
                            x       y       z     vdW  Elec       q    Type
                         _______ _______ _______ _____ _____    ______ ____

>  <TORSDO>
F 16

$$$$
=
 OpenBabel11062408333D

 32 34  0  0  1  0  0  0  0  0999 V2000
  160.9640  207.5090  154.5750 C   0  0  0  0  0  0  0  0  0  0  0  0
  160.9980  207.1460  155.9140 O   0  0  0  0  0  1  0  0  0  0  0  0
  161.3280  208.3260  151.8710 C   0  0  0  0  0  2  0  0  0  0  0  0
  161.3120  206.4760  153.5340 C   0  0  0  0  0  2  0  0  0  0  0  0
  160.5880  209.2560  152.8300 C   0  0  1  0  0  3  0  0  0  0  0  0
  160.6910  208.7780  154.2520 C   0  0  0  0  0  3  0  0  0  0  0  0
  160.8940  206.8900  152.1240 C   0  0  2  0  0  3  0  0  0  0  0  0
  161.1220  210.6790  152.7330 C   0  0  0  0  0  2  0  0  0  0  0  0
  160.0160  212.9830  151.8820 O   0  0  0  0  0  0  0  0  0  0  0  0
  158.4920  211.2240  152.6380 O   0  0  0  0  0  0  0  0  0  0  0  0
  159.8160  211.8890  152.8920 S   0  0  0  0  0  0  0  0  0  0  0  0
  159.8290  212.5750  154.4850 N   0  0  0  0  0  2  0  0  0  0  0  0
  158.4500  212.8730  154.8630 C   0  0  2  0  0  3  0  0  0  0  0  0
  158.0570  214.1660  154.3600 N   0  0  0  0  0  0  0  0  0  0  0  0
  156.9920  214.3010  153.7310 N   0  0  0  0  0  2  0  0  0  0  0  0
  158.2770  212.8070  156.3180 N   0  0  0  0  0  2  0  0  0  0  0  0
  157.5990  211.5710  156.6950 C   0  0  0  0  0  3  0  0  0  0  0  0
  156.1180  211.8460  156.8640 C   0  0  0  0  0  2  0  0  0  0  0  0
  156.6250  211.1830  155.6010 C   0  0  0  0  0  2  0  0  0  0  0  0
  161.5460  205.9740  151.1080 C   0  0  0  0  0  2  0  0  0  0  0  0
  160.8910  204.5990  151.1540 C   0  0  0  0  0  2  0  0  0  0  0  0
  160.6010  204.0410  149.7570 C   0  0  2  0  0  3  0  0  0  0  0  0
  161.2030  200.6790  148.1690 C   0  0  0  0  0  1  0  0  0  0  0  0
  160.4100  201.7000  148.9560 C   0  0  1  0  0  3  0  0  0  0  0  0
  160.8390  201.6570  150.4080 C   0  0  0  0  0  2  0  0  0  0  0  0
  161.3630  202.7480  149.4970 C   0  0  2  0  0  3  0  0  0  0  0  0
  160.9000  205.0710  148.6760 C   0  0  0  0  0  2  0  0  0  0  0  0
  162.0360  204.5820  147.7920 C   0  0  0  0  0  2  0  0  0  0  0  0
  161.7150  204.8150  146.3260 C   0  0  0  0  0  2  0  0  0  0  0  0
  161.6870  203.4990  145.5710 C   0  0  0  0  0  2  0  0  0  0  0  0
  160.0990  201.6890  145.0250 C   0  0  0  0  0  1  0  0  0  0  0  0
  160.2640  203.1870  145.1600 C   0  0  0  0  0  2  0  0  0  0  0  0
  1  2  1  0  0  0  0
  3  7  1  0  0  0  0
  3  5  1  0  0  0  0
  4  1  1  0  0  0  0
  5  8  1  1  0  0  0
  5  6  1  0  0  0  0
  6  1  2  0  0  0  0
  7 20  1  6  0  0  0
  7  4  1  0  0  0  0
  8 11  1  0  0  0  0
  9 11  2  0  0  0  0
 10 11  2  0  0  0  0
 11 12  1  0  0  0  0
 12 13  1  0  0  0  0
 13 14  1  1  0  0  0
 13 16  1  0  0  0  0
 15 14  2  0  0  0  0
 16 17  1  0  0  0  0
 17 18  1  0  0  0  0
 19 17  1  0  0  0  0
 19 18  1  0  0  0  0
 20 21  1  0  0  0  0
 22 27  1  6  0  0  0
 22 21  1  0  0  0  0
 24 23  1  6  0  0  0
 24 26  1  0  0  0  0
 24 25  1  0  0  0  0
 26 22  1  1  0  0  0
 26 25  1  0  0  0  0
 28 27  1  0  0  0  0
 29 28  1  0  0  0  0
 30 29  1  0  0  0  0
 31 32  1  0  0  0  0
 32 30  1  0  0  0  0
M  END
>  <MODEL>
4

>  <REMARK>
 VINA RESULT:      -6.6      1.969      3.045
  Name = 
  16 active torsions:
  status: ('A' for Active; 'I' for Inactive)
    1  A    between atoms: C_1  and  N_30
    2  A    between atoms: N_2  and  C_5
    3  A    between atoms: N_2  and  S_27
    4  A    between atoms: C_5  and  N_14
    5  A    between atoms: C_5  and  N_30
    6  A    between atoms: C_6  and  C_9
    7  A    between atoms: C_6  and  C_17
    8  A    between atoms: C_7  and  C_26
    9  A    between atoms: C_7  and  C_31
   10  A    between atoms: C_9  and  C_31
   11  A    between atoms: C_9  and  C_32
   12  A    between atoms: C_16  and  C_20
   13  A    between atoms: C_16  and  S_27
   14  A    between atoms: C_17  and  C_29
   15  A    between atoms: C_18  and  C_25
   16  A    between atoms: C_18  and  C_29
                            x       y       z     vdW  Elec       q    Type
                         _______ _______ _______ _____ _____    ______ ____

>  <TORSDO>
F 16

$$$$
=
 OpenBabel11062408333D

 32 34  0  0  1  0  0  0  0  0999 V2000
  160.3730  207.7200  155.7390 C   0  0  0  0  0  0  0  0  0  0  0  0
  160.2610  206.8740  156.8340 O   0  0  0  0  0  1  0  0  0  0  0  0
  161.0260  209.4960  153.6110 C   0  0  0  0  0  2  0  0  0  0  0  0
  160.8570  207.1530  154.4290 C   0  0  0  0  0  2  0  0  0  0  0  0
  160.1640  210.0100  154.7620 C   0  0  1  0  0  3  0  0  0  0  0  0
  160.1140  209.0230  155.8960 C   0  0  0  0  0  3  0  0  0  0  0  0
  160.5940  208.0840  153.2460 C   0  0  2  0  0  3  0  0  0  0  0  0
  160.6770  211.3480  155.2750 C   0  0  0  0  0  2  0  0  0  0  0  0
  158.9840  212.0260  157.2570 O   0  0  0  0  0  0  0  0  0  0  0  0
  159.7930  213.8280  155.8130 O   0  0  0  0  0  0  0  0  0  0  0  0
  159.3450  212.3940  155.8450 S   0  0  0  0  0  0  0  0  0  0  0  0
  157.9520  212.1930  154.8310 N   0  0  0  0  0  2  0  0  0  0  0  0
  157.4290  213.5170  154.5090 C   0  0  2  0  0  3  0  0  0  0  0  0
  156.1390  213.7130  155.1240 N   0  0  0  0  0  0  0  0  0  0  0  0
  155.7410  212.9420  156.0160 N   0  0  0  0  0  2  0  0  0  0  0  0
  157.3480  213.7130  153.0590 N   0  0  0  0  0  2  0  0  0  0  0  0
  158.2530  212.7990  152.3690 C   0  0  0  0  0  3  0  0  0  0  0  0
  158.3360  213.1890  150.9070 C   0  0  0  0  0  2  0  0  0  0  0  0
  159.4500  213.5760  151.8570 C   0  0  0  0  0  2  0  0  0  0  0  0
  161.3750  207.6070  152.0380 C   0  0  0  0  0  2  0  0  0  0  0  0
  161.3800  206.0840  151.9910 C   0  0  0  0  0  2  0  0  0  0  0  0
  160.8850  205.5380  150.6480 C   0  0  2  0  0  3  0  0  0  0  0  0
  160.7320  201.9160  149.6230 C   0  0  0  0  0  1  0  0  0  0  0  0
  160.3440  203.1240  150.4480 C   0  0  1  0  0  3  0  0  0  0  0  0
  161.3250  203.2830  151.5920 C   0  0  0  0  0  2  0  0  0  0  0  0
  161.4540  204.1530  150.3600 C   0  0  2  0  0  3  0  0  0  0  0  0
  161.1980  206.4980  149.5090 C   0  0  0  0  0  2  0  0  0  0  0  0
  160.8500  205.8560  148.1760 C   0  0  0  0  0  2  0  0  0  0  0  0
  161.7420  206.3940  147.0710 C   0  0  0  0  0  2  0  0  0  0  0  0
  162.4510  205.2590  146.3560 C   0  0  0  0  0  2  0  0  0  0  0  0
  161.2430  203.2510  145.5770 C   0  0  0  0  0  1  0  0  0  0  0  0
  161.8430  203.9410  146.7830 C   0  0  0  0  0  2  0  0  0  0  0  0
  1  6  2  0  0  0  0
  1  2  1  0  0  0  0
  3  5  1  0  0  0  0
  4  1  1  0  0  0  0
  5  8  1  1  0  0  0
  5  6  1  0  0  0  0
  7 20  1  6  0  0  0
  7  3  1  0  0  0  0
  7  4  1  0  0  0  0
  8 11  1  0  0  0  0
 10 11  2  0  0  0  0
 11  9  2  0  0  0  0
 12 11  1  0  0  0  0
 13 16  1  6  0  0  0
 13 12  1  0  0  0  0
 13 14  1  0  0  0  0
 14 15  2  0  0  0  0
 17 16  1  0  0  0  0
 18 19  1  0  0  0  0
 18 17  1  0  0  0  0
 19 17  1  0  0  0  0
 21 20  1  0  0  0  0
 22 27  1  6  0  0  0
 22 21  1  0  0  0  0
 24 23  1  6  0  0  0
 24 25  1  0  0  0  0
 26 24  1  0  0  0  0
 26 22  1  1  0  0  0
 26 25  1  0  0  0  0
 28 27  1  0  0  0  0
 29 28  1  0  0  0  0
 30 32  1  0  0  0  0
 30 29  1  0  0  0  0
 31 32  1  0  0  0  0
M  END
>  <MODEL>
5

>  <REMARK>
 VINA RESULT:      -6.6      2.498      3.596
  Name = 
  16 active torsions:
  status: ('A' for Active; 'I' for Inactive)
    1  A    between atoms: C_1  and  N_30
    2  A    between atoms: N_2  and  C_5
    3  A    between atoms: N_2  and  S_27
    4  A    between atoms: C_5  and  N_14
    5  A    between atoms: C_5  and  N_30
    6  A    between atoms: C_6  and  C_9
    7  A    between atoms: C_6  and  C_17
    8  A    between atoms: C_7  and  C_26
    9  A    between atoms: C_7  and  C_31
   10  A    between atoms: C_9  and  C_31
   11  A    between atoms: C_9  and  C_32
   12  A    between atoms: C_16  and  C_20
   13  A    between atoms: C_16  and  S_27
   14  A    between atoms: C_17  and  C_29
   15  A    between atoms: C_18  and  C_25
   16  A    between atoms: C_18  and  C_29
                            x       y       z     vdW  Elec       q    Type
                         _______ _______ _______ _____ _____    ______ ____

>  <TORSDO>
F 16

$$$$
=
 OpenBabel11062408333D

 32 34  0  0  1  0  0  0  0  0999 V2000
  161.9170  209.6480  151.0050 C   0  0  0  0  0  0  0  0  0  0  0  0
  162.1620  210.5900  150.0160 O   0  0  0  0  0  1  0  0  0  0  0  0
  160.9960  207.7290  152.8970 C   0  0  0  0  0  2  0  0  0  0  0  0
  161.9250  208.1870  150.6350 C   0  0  0  0  0  2  0  0  0  0  0  0
  161.3790  209.1240  153.3880 C   0  0  1  0  0  3  0  0  0  0  0  0
  161.6160  210.0660  152.2400 C   0  0  0  0  0  3  0  0  0  0  0  0
  162.0010  207.2670  151.8530 C   0  0  2  0  0  3  0  0  0  0  0  0
  160.3050  209.6960  154.3010 C   0  0  0  0  0  2  0  0  0  0  0  0
  160.0180  207.8870  156.2760 O   0  0  0  0  0  0  0  0  0  0  0  0
  162.0620  209.2330  156.2810 O   0  0  0  0  0  0  0  0  0  0  0  0
  160.5830  209.2540  156.0100 S   0  0  0  0  0  0  0  0  0  0  0  0
  159.8120  210.4020  157.0570 N   0  0  0  0  0  2  0  0  0  0  0  0
  159.3760  211.5350  156.2470 C   0  0  2  0  0  3  0  0  0  0  0  0
  160.2900  212.6420  156.3950 N   0  0  0  0  0  0  0  0  0  0  0  0
  159.8980  213.8110  156.2250 N   0  0  0  0  0  2  0  0  0  0  0  0
  158.0110  211.9380  156.5960 N   0  0  0  0  0  2  0  0  0  0  0  0
  157.0620  211.4360  155.6080 C   0  0  0  0  0  3  0  0  0  0  0  0
  156.4050  212.6090  154.9070 C   0  0  0  0  0  2  0  0  0  0  0  0
  157.5200  211.8480  154.2230 C   0  0  0  0  0  2  0  0  0  0  0  0
  161.6870  205.8440  151.4370 C   0  0  0  0  0  2  0  0  0  0  0  0
  160.9290  205.8440  150.1150 C   0  0  0  0  0  2  0  0  0  0  0  0
  161.2620  204.6260  149.2480 C   0  0  2  0  0  3  0  0  0  0  0  0
  162.3890  204.5170  145.6550 C   0  0  0  0  0  1  0  0  0  0  0  0
  162.5590  204.7720  147.1370 C   0  0  1  0  0  3  0  0  0  0  0  0
  162.0560  206.1630  147.4660 C   0  0  0  0  0  2  0  0  0  0  0  0
  161.1900  204.9560  147.7620 C   0  0  2  0  0  3  0  0  0  0  0  0
  160.3630  203.4430  149.5830 C   0  0  0  0  0  2  0  0  0  0  0  0
  161.1930  202.1740  149.6940 C   0  0  0  0  0  2  0  0  0  0  0  0
  160.6050  201.0710  148.8310 C   0  0  0  0  0  2  0  0  0  0  0  0
  161.6510  200.5220  147.8800 C   0  0  0  0  0  2  0  0  0  0  0  0
  160.6310  201.5260  145.8670 C   0  0  0  0  0  1  0  0  0  0  0  0
  161.0070  200.2250  146.5430 C   0  0  0  0  0  2  0  0  0  0  0  0
  1  6  2  0  0  0  0
  2  1  1  0  0  0  0
  3  5  1  0  0  0  0
  4  1  1  0  0  0  0
  4  7  1  0  0  0  0
  5  8  1  1  0  0  0
  6  5  1  0  0  0  0
  7 20  1  6  0  0  0
  7  3  1  0  0  0  0
  8 11  1  0  0  0  0
 11  9  2  0  0  0  0
 11 10  2  0  0  0  0
 11 12  1  0  0  0  0
 13 14  1  1  0  0  0
 13 16  1  0  0  0  0
 13 12  1  0  0  0  0
 15 14  2  0  0  0  0
 17 16  1  0  0  0  0
 18 17  1  0  0  0  0
 19 18  1  0  0  0  0
 19 17  1  0  0  0  0
 21 20  1  0  0  0  0
 22 27  1  6  0  0  0
 22 21  1  0  0  0  0
 24 23  1  6  0  0  0
 24 25  1  0  0  0  0
 24 26  1  0  0  0  0
 25 26  1  0  0  0  0
 26 22  1  1  0  0  0
 27 28  1  0  0  0  0
 29 28  1  0  0  0  0
 30 29  1  0  0  0  0
 31 32  1  0  0  0  0
 32 30  1  0  0  0  0
M  END
>  <MODEL>
6

>  <REMARK>
 VINA RESULT:      -6.5      1.163      2.593
  Name = 
  16 active torsions:
  status: ('A' for Active; 'I' for Inactive)
    1  A    between atoms: C_1  and  N_30
    2  A    between atoms: N_2  and  C_5
    3  A    between atoms: N_2  and  S_27
    4  A    between atoms: C_5  and  N_14
    5  A    between atoms: C_5  and  N_30
    6  A    between atoms: C_6  and  C_9
    7  A    between atoms: C_6  and  C_17
    8  A    between atoms: C_7  and  C_26
    9  A    between atoms: C_7  and  C_31
   10  A    between atoms: C_9  and  C_31
   11  A    between atoms: C_9  and  C_32
   12  A    between atoms: C_16  and  C_20
   13  A    between atoms: C_16  and  S_27
   14  A    between atoms: C_17  and  C_29
   15  A    between atoms: C_18  and  C_25
   16  A    between atoms: C_18  and  C_29
                            x       y       z     vdW  Elec       q    Type
                         _______ _______ _______ _____ _____    ______ ____

>  <TORSDO>
F 16

$$$$
=
 OpenBabel11062408333D

 32 34  0  0  1  0  0  0  0  0999 V2000
  160.6650  207.3650  155.0850 C   0  0  0  0  0  0  0  0  0  0  0  0
  160.4380  207.0770  156.4240 O   0  0  0  0  0  1  0  0  0  0  0  0
  161.5460  208.0390  152.4630 C   0  0  0  0  0  2  0  0  0  0  0  0
  161.2160  206.2820  154.1940 C   0  0  0  0  0  2  0  0  0  0  0  0
  160.6270  209.0070  153.2040 C   0  0  1  0  0  3  0  0  0  0  0  0
  160.4520  208.6090  154.6440 C   0  0  0  0  0  3  0  0  0  0  0  0
  161.0800  206.6120  152.7080 C   0  0  2  0  0  3  0  0  0  0  0  0
  161.1600  210.4310  153.1320 C   0  0  0  0  0  2  0  0  0  0  0  0
  160.1010  212.7730  152.3230 O   0  0  0  0  0  0  0  0  0  0  0  0
  158.5390  210.9880  152.9270 O   0  0  0  0  0  0  0  0  0  0  0  0
  159.8490  211.6380  153.2760 S   0  0  0  0  0  0  0  0  0  0  0  0
  159.7820  212.2570  154.8940 N   0  0  0  0  0  2  0  0  0  0  0  0
  158.9700  213.4700  154.8840 C   0  0  2  0  0  3  0  0  0  0  0  0
  159.3270  214.3250  155.9900 N   0  0  0  0  0  0  0  0  0  0  0  0
  160.0400  213.8960  156.9150 N   0  0  0  0  0  2  0  0  0  0  0  0
  157.5410  213.1480  154.9170 N   0  0  0  0  0  2  0  0  0  0  0  0
  156.7660  214.1940  154.2560 C   0  0  0  0  0  3  0  0  0  0  0  0
  155.4790  213.5990  153.7210 C   0  0  0  0  0  2  0  0  0  0  0  0
  155.4650  214.3990  155.0060 C   0  0  0  0  0  2  0  0  0  0  0  0
  161.9240  205.6530  151.8930 C   0  0  0  0  0  2  0  0  0  0  0  0
  161.2410  204.2920  151.8220 C   0  0  0  0  0  2  0  0  0  0  0  0
  160.5330  204.0600  150.4840 C   0  0  2  0  0  3  0  0  0  0  0  0
  160.7910  201.3030  147.9300 C   0  0  0  0  0  1  0  0  0  0  0  0
  160.2630  201.9620  149.1860 C   0  0  1  0  0  3  0  0  0  0  0  0
  161.2060  201.6740  150.3360 C   0  0  0  0  0  2  0  0  0  0  0  0
  161.2530  203.0180  149.6380 C   0  0  2  0  0  3  0  0  0  0  0  0
  160.3670  205.3620  149.7110 C   0  0  0  0  0  2  0  0  0  0  0  0
  161.1540  205.3000  148.4120 C   0  0  0  0  0  2  0  0  0  0  0  0
  161.2820  206.6810  147.7940 C   0  0  0  0  0  2  0  0  0  0  0  0
  162.5620  207.3540  148.2520 C   0  0  0  0  0  2  0  0  0  0  0  0
  161.9680  209.7190  148.6430 C   0  0  0  0  0  1  0  0  0  0  0  0
  162.2360  208.3870  149.3090 C   0  0  0  0  0  2  0  0  0  0  0  0
  1  2  1  0  0  0  0
  3  7  1  0  0  0  0
  3  5  1  0  0  0  0
  4  1  1  0  0  0  0
  5  8  1  1  0  0  0
  5  6  1  0  0  0  0
  6  1  2  0  0  0  0
  7 20  1  6  0  0  0
  7  4  1  0  0  0  0
  8 11  1  0  0  0  0
  9 11  2  0  0  0  0
 10 11  2  0  0  0  0
 11 12  1  0  0  0  0
 13 12  1  1  0  0  0
 13 16  1  0  0  0  0
 13 14  1  0  0  0  0
 14 15  2  0  0  0  0
 17 16  1  0  0  0  0
 17 19  1  0  0  0  0
 18 17  1  0  0  0  0
 18 19  1  0  0  0  0
 21 20  1  0  0  0  0
 22 27  1  6  0  0  0
 22 21  1  0  0  0  0
 24 23  1  6  0  0  0
 24 26  1  0  0  0  0
 24 25  1  0  0  0  0
 26 25  1  0  0  0  0
 26 22  1  1  0  0  0
 28 27  1  0  0  0  0
 29 30  1  0  0  0  0
 29 28  1  0  0  0  0
 30 32  1  0  0  0  0
 31 32  1  0  0  0  0
M  END
>  <MODEL>
7

>  <REMARK>
 VINA RESULT:      -6.3      2.058      3.423
  Name = 
  16 active torsions:
  status: ('A' for Active; 'I' for Inactive)
    1  A    between atoms: C_1  and  N_30
    2  A    between atoms: N_2  and  C_5
    3  A    between atoms: N_2  and  S_27
    4  A    between atoms: C_5  and  N_14
    5  A    between atoms: C_5  and  N_30
    6  A    between atoms: C_6  and  C_9
    7  A    between atoms: C_6  and  C_17
    8  A    between atoms: C_7  and  C_26
    9  A    between atoms: C_7  and  C_31
   10  A    between atoms: C_9  and  C_31
   11  A    between atoms: C_9  and  C_32
   12  A    between atoms: C_16  and  C_20
   13  A    between atoms: C_16  and  S_27
   14  A    between atoms: C_17  and  C_29
   15  A    between atoms: C_18  and  C_25
   16  A    between atoms: C_18  and  C_29
                            x       y       z     vdW  Elec       q    Type
                         _______ _______ _______ _____ _____    ______ ____

>  <TORSDO>
F 16

$$$$
=
 OpenBabel11062408333D

 32 34  0  0  1  0  0  0  0  0999 V2000
  160.9880  205.3670  150.5040 C   0  0  0  0  0  0  0  0  0  0  0  0
  160.4510  204.2410  151.1120 O   0  0  0  0  0  1  0  0  0  0  0  0
  161.6690  207.8080  149.2040 C   0  0  0  0  0  2  0  0  0  0  0  0
  161.2030  206.6070  151.3330 C   0  0  0  0  0  2  0  0  0  0  0  0
  161.8540  206.4940  148.4490 C   0  0  1  0  0  3  0  0  0  0  0  0
  161.2330  205.3400  149.1890 C   0  0  0  0  0  3  0  0  0  0  0  0
  162.1110  207.6280  150.6490 C   0  0  2  0  0  3  0  0  0  0  0  0
  161.2590  206.5780  147.0500 C   0  0  0  0  0  2  0  0  0  0  0  0
  161.4060  205.4070  144.6290 O   0  0  0  0  0  0  0  0  0  0  0  0
  163.0540  204.7220  146.3040 O   0  0  0  0  0  0  0  0  0  0  0  0
  161.6190  205.1150  146.0880 S   0  0  0  0  0  0  0  0  0  0  0  0
  160.5770  203.8150  146.5670 N   0  0  0  0  0  2  0  0  0  0  0  0
  161.1590  202.5650  146.0860 C   0  0  2  0  0  3  0  0  0  0  0  0
  160.5100  202.1420  144.8690 N   0  0  0  0  0  0  0  0  0  0  0  0
  159.6680  201.2260  144.8890 N   0  0  0  0  0  2  0  0  0  0  0  0
  161.0790  201.5180  147.1090 N   0  0  0  0  0  2  0  0  0  0  0  0
  160.8550  202.1070  148.4250 C   0  0  0  0  0  3  0  0  0  0  0  0
  159.7050  201.3900  149.1040 C   0  0  0  0  0  2  0  0  0  0  0  0
  161.1320  201.0660  149.4910 C   0  0  0  0  0  2  0  0  0  0  0  0
  162.0280  208.9540  151.3770 C   0  0  0  0  0  2  0  0  0  0  0  0
  160.7340  209.0260  152.1780 C   0  0  0  0  0  2  0  0  0  0  0  0
  160.9640  209.4800  153.6230 C   0  0  2  0  0  3  0  0  0  0  0  0
  160.5680  207.7840  156.9630 C   0  0  0  0  0  1  0  0  0  0  0  0
  161.3280  208.2170  155.7280 C   0  0  1  0  0  3  0  0  0  0  0  0
  161.0980  207.2100  154.6200 C   0  0  0  0  0  2  0  0  0  0  0  0
  160.3340  208.5180  154.6230 C   0  0  2  0  0  3  0  0  0  0  0  0
  160.4560  210.8990  153.8460 C   0  0  0  0  0  2  0  0  0  0  0  0
  159.0170  210.8660  154.3330 C   0  0  0  0  0  2  0  0  0  0  0  0
  158.7720  211.9570  155.3610 C   0  0  0  0  0  2  0  0  0  0  0  0
  160.0810  212.6000  155.7790 C   0  0  0  0  0  2  0  0  0  0  0  0
  161.6810  211.4340  157.2550 C   0  0  0  0  0  1  0  0  0  0  0  0
  160.3900  212.2230  157.2110 C   0  0  0  0  0  2  0  0  0  0  0  0
  1  2  1  0  0  0  0
  1  4  1  0  0  0  0
  3  7  1  0  0  0  0
  5  8  1  6  0  0  0
  5  6  1  0  0  0  0
  5  3  1  0  0  0  0
  6  1  2  0  0  0  0
  7  4  1  0  0  0  0
  7 20  1  1  0  0  0
  9 11  2  0  0  0  0
 11 10  2  0  0  0  0
 11 12  1  0  0  0  0
 11  8  1  0  0  0  0
 13 14  1  6  0  0  0
 13 12  1  0  0  0  0
 13 16  1  0  0  0  0
 14 15  2  0  0  0  0
 16 17  1  0  0  0  0
 17 18  1  0  0  0  0
 17 19  1  0  0  0  0
 18 19  1  0  0  0  0
 20 21  1  0  0  0  0
 22 21  1  6  0  0  0
 22 27  1  0  0  0  0
 24 23  1  1  0  0  0
 25 26  1  0  0  0  0
 25 24  1  0  0  0  0
 26 22  1  6  0  0  0
 26 24  1  0  0  0  0
 27 28  1  0  0  0  0
 28 29  1  0  0  0  0
 29 30  1  0  0  0  0
 30 32  1  0  0  0  0
 32 31  1  0  0  0  0
M  END
>  <MODEL>
8

>  <REMARK>
 VINA RESULT:      -6.2      5.613     10.034
  Name = 
  16 active torsions:
  status: ('A' for Active; 'I' for Inactive)
    1  A    between atoms: C_1  and  N_30
    2  A    between atoms: N_2  and  C_5
    3  A    between atoms: N_2  and  S_27
    4  A    between atoms: C_5  and  N_14
    5  A    between atoms: C_5  and  N_30
    6  A    between atoms: C_6  and  C_9
    7  A    between atoms: C_6  and  C_17
    8  A    between atoms: C_7  and  C_26
    9  A    between atoms: C_7  and  C_31
   10  A    between atoms: C_9  and  C_31
   11  A    between atoms: C_9  and  C_32
   12  A    between atoms: C_16  and  C_20
   13  A    between atoms: C_16  and  S_27
   14  A    between atoms: C_17  and  C_29
   15  A    between atoms: C_18  and  C_25
   16  A    between atoms: C_18  and  C_29
                            x       y       z     vdW  Elec       q    Type
                         _______ _______ _______ _____ _____    ______ ____

>  <TORSDO>
F 16

$$$$
=
 OpenBabel11062408333D

 32 34  0  0  1  0  0  0  0  0999 V2000
  161.0030  205.4150  150.5180 C   0  0  0  0  0  0  0  0  0  0  0  0
  160.4130  204.3050  151.1050 O   0  0  0  0  0  1  0  0  0  0  0  0
  161.8000  207.8330  149.2410 C   0  0  0  0  0  2  0  0  0  0  0  0
  161.2120  206.6530  151.3510 C   0  0  0  0  0  2  0  0  0  0  0  0
  161.9860  206.5120  148.4990 C   0  0  1  0  0  3  0  0  0  0  0  0
  161.3050  205.3770  149.2150 C   0  0  0  0  0  3  0  0  0  0  0  0
  162.1740  207.6480  150.7040 C   0  0  2  0  0  3  0  0  0  0  0  0
  161.4560  206.6040  147.0750 C   0  0  0  0  0  2  0  0  0  0  0  0
  161.4960  205.3430  144.6950 O   0  0  0  0  0  0  0  0  0  0  0  0
  163.2020  204.7020  146.3290 O   0  0  0  0  0  0  0  0  0  0  0  0
  161.7640  205.1030  146.1550 S   0  0  0  0  0  0  0  0  0  0  0  0
  160.7290  203.8320  146.7220 N   0  0  0  0  0  2  0  0  0  0  0  0
  161.1990  202.5740  146.1490 C   0  0  2  0  0  3  0  0  0  0  0  0
  160.3910  202.2040  145.0130 N   0  0  0  0  0  0  0  0  0  0  0  0
  160.0030  201.0300  144.8690 N   0  0  0  0  0  2  0  0  0  0  0  0
  161.2010  201.5060  147.1540 N   0  0  0  0  0  2  0  0  0  0  0  0
  160.9570  202.0570  148.4840 C   0  0  0  0  0  3  0  0  0  0  0  0
  159.7840  201.3340  149.1160 C   0  0  0  0  0  2  0  0  0  0  0  0
  161.1990  200.9790  149.5210 C   0  0  0  0  0  2  0  0  0  0  0  0
  162.0910  208.9800  151.4230 C   0  0  0  0  0  2  0  0  0  0  0  0
  160.8200  209.0390  152.2610 C   0  0  0  0  0  2  0  0  0  0  0  0
  161.1010  209.3700  153.7300 C   0  0  2  0  0  3  0  0  0  0  0  0
  160.4740  207.4860  156.9320 C   0  0  0  0  0  1  0  0  0  0  0  0
  161.2720  207.8790  155.7070 C   0  0  1  0  0  3  0  0  0  0  0  0
  160.8290  207.0340  154.5300 C   0  0  0  0  0  2  0  0  0  0  0  0
  160.3260  208.4560  154.6720 C   0  0  2  0  0  3  0  0  0  0  0  0
  160.8080  210.8330  154.0360 C   0  0  0  0  0  2  0  0  0  0  0  0
  160.3240  211.5400  152.7800 C   0  0  0  0  0  2  0  0  0  0  0  0
  159.1460  212.4460  153.0930 C   0  0  0  0  0  2  0  0  0  0  0  0
  158.5960  213.0630  151.8210 C   0  0  0  0  0  2  0  0  0  0  0  0
  159.1730  213.8080  149.5380 C   0  0  0  0  0  1  0  0  0  0  0  0
  159.7340  213.3400  150.8640 C   0  0  0  0  0  2  0  0  0  0  0  0
  1  2  1  0  0  0  0
  1  4  1  0  0  0  0
  3  7  1  0  0  0  0
  5  8  1  6  0  0  0
  5  6  1  0  0  0  0
  5  3  1  0  0  0  0
  6  1  2  0  0  0  0
  7  4  1  0  0  0  0
  7 20  1  1  0  0  0
  9 11  2  0  0  0  0
 11 10  2  0  0  0  0
 11 12  1  0  0  0  0
 11  8  1  0  0  0  0
 13 14  1  6  0  0  0
 13 12  1  0  0  0  0
 13 16  1  0  0  0  0
 15 14  2  0  0  0  0
 16 17  1  0  0  0  0
 17 18  1  0  0  0  0
 17 19  1  0  0  0  0
 18 19  1  0  0  0  0
 20 21  1  0  0  0  0
 22 21  1  6  0  0  0
 22 27  1  0  0  0  0
 24 23  1  1  0  0  0
 25 26  1  0  0  0  0
 25 24  1  0  0  0  0
 26 22  1  6  0  0  0
 26 24  1  0  0  0  0
 28 29  1  0  0  0  0
 28 27  1  0  0  0  0
 30 29  1  0  0  0  0
 31 32  1  0  0  0  0
 32 30  1  0  0  0  0
M  END
>  <MODEL>
9

>  <REMARK>
 VINA RESULT:      -6.2      5.785      9.581
  Name = 
  16 active torsions:
  status: ('A' for Active; 'I' for Inactive)
    1  A    between atoms: C_1  and  N_30
    2  A    between atoms: N_2  and  C_5
    3  A    between atoms: N_2  and  S_27
    4  A    between atoms: C_5  and  N_14
    5  A    between atoms: C_5  and  N_30
    6  A    between atoms: C_6  and  C_9
    7  A    between atoms: C_6  and  C_17
    8  A    between atoms: C_7  and  C_26
    9  A    between atoms: C_7  and  C_31
   10  A    between atoms: C_9  and  C_31
   11  A    between atoms: C_9  and  C_32
   12  A    between atoms: C_16  and  C_20
   13  A    between atoms: C_16  and  S_27
   14  A    between atoms: C_17  and  C_29
   15  A    between atoms: C_18  and  C_25
   16  A    between atoms: C_18  and  C_29
                            x       y       z     vdW  Elec       q    Type
                         _______ _______ _______ _____ _____    ______ ____

>  <TORSDO>
F 16

$$$$
