=
 OpenBabel11062409293D

 34 37  0  0  1  0  0  0  0  0999 V2000
  160.8330  203.4540  151.3630 N   0  0  0  0  0  1  0  0  0  0  0  0
  161.0850  206.7990  152.0600 C   0  0  0  0  0  0  0  0  0  0  0  0
  160.9110  206.2580  153.2140 N   0  0  0  0  0  0  0  0  0  0  0  0
  161.6770  204.5310  151.8630 C   0  0  1  0  0  3  0  0  0  0  0  0
  161.5680  205.8280  151.0290 C   0  0  1  0  0  3  0  0  0  0  0  0
  161.2290  204.9270  153.1490 O   0  0  0  0  0  0  0  0  0  0  0  0
  160.5730  205.7360  149.8730 C   0  0  0  0  0  2  0  0  0  0  0  0
  160.9050  206.6640  148.8670 O   0  0  0  0  0  0  0  0  0  0  0  0
  161.2080  205.8650  145.2090 C   0  0  0  0  0  2  0  0  0  0  0  0
  160.8920  202.1470  145.7960 C   0  0  0  0  0  3  0  0  0  0  0  0
  160.8570  204.4300  144.8230 C   0  0  0  0  0  2  0  0  0  0  0  0
  161.3610  203.3980  145.7930 C   0  0  0  0  0  0  0  0  0  0  0  0
  162.3240  203.7730  146.8750 C   0  0  0  0  0  2  0  0  0  0  0  0
  160.4970  206.2660  146.4920 C   0  0  0  0  0  2  0  0  0  0  0  0
  161.5870  204.4680  148.0110 C   0  0  0  0  0  2  0  0  0  0  0  0
  161.3550  205.9600  147.7270 C   0  0  2  0  0  3  0  0  0  0  0  0
  159.9080  200.3620  144.5260 O   0  0  0  0  0  0  0  0  0  0  0  0
  159.9000  201.5770  144.8680 C   0  0  0  0  0  3  0  0  0  0  0  0
  160.8900  208.2620  151.8310 C   0  0  0  0  0  2  0  0  0  0  0  0
  162.1330  208.8760  151.6690 O   0  0  0  0  0  0  0  0  0  0  0  0
  161.9770  210.1760  152.1770 C   0  0  0  0  0  2  0  0  0  0  0  0
  158.7180  211.9710  152.5760 C   0  0  0  0  0  2  0  0  0  0  0  0
  160.6440  210.5590  154.0990 C   0  0  0  0  0  2  0  0  0  0  0  0
  157.0150  211.4880  155.9120 C   0  0  1  0  0  3  0  0  0  0  0  0
  157.3100  212.2230  154.6010 C   0  0  0  0  0  2  0  0  0  0  0  0
  158.7410  211.9920  154.1020 C   0  0  1  0  0  3  0  0  0  0  0  0
  159.4550  210.8250  156.0850 C   0  0  0  0  0  2  0  0  0  0  0  0
  159.2910  210.7310  154.6280 N   0  0  2  0  0  0  0  0  0  0  0  0
  158.2510  211.4410  156.8060 C   0  0  0  0  0  2  0  0  0  0  0  0
  160.6100  210.4180  152.6450 N   0  0  0  0  0  0  0  0  0  0  0  0
  160.1150  211.6670  152.0540 C   0  0  0  0  0  2  0  0  0  0  0  0
  155.9120  212.1260  156.6120 N   0  0  0  0  0  0  0  0  0  0  0  0
  155.8520  213.4960  156.7050 O   0  0  0  0  0  0  0  0  0  0  0  0
  155.1100  211.4270  157.2610 O   0  0  0  0  0  0  0  0  0  0  0  0
  2  3  2  0  0  0  0
  4  1  1  6  0  0  0
  4  6  1  0  0  0  0
  5  7  1  6  0  0  0
  5  4  1  0  0  0  0
  5  2  1  0  0  0  0
  6  3  1  0  0  0  0
  8  7  1  0  0  0  0
  9 14  1  0  0  0  0
 11  9  1  0  0  0  0
 11 12  1  0  0  0  0
 12 10  2  0  0  0  0
 12 13  1  0  0  0  0
 13 15  1  0  0  0  0
 14 16  1  0  0  0  0
 16 15  1  0  0  0  0
 16  8  1  1  0  0  0
 17 18  2  0  0  0  0
 18 10  1  0  0  0  0
 19  2  1  0  0  0  0
 20 19  1  0  0  0  0
 20 21  1  0  0  0  0
 21 30  1  0  0  0  0
 24 32  1  1  0  0  0
 24 29  1  0  0  0  0
 25 24  1  0  0  0  0
 26 22  1  6  0  0  0
 26 25  1  0  0  0  0
 26 28  1  0  0  0  0
 27 29  1  0  0  0  0
 28 23  1  6  0  0  0
 28 27  1  0  0  0  0
 30 23  1  0  0  0  0
 31 22  1  0  0  0  0
 31 30  1  0  0  0  0
 32 33  2  0  0  0  0
 32 34  2  0  0  0  0
M  END
>  <MODEL>
1

>  <REMARK>
 VINA RESULT:      -8.2      0.000      0.000
  Name = 
  9 active torsions:
  status: ('A' for Active; 'I' for Inactive)
    1  A    between atoms: C_1  and  O_9
    2  A    between atoms: C_1  and  C_20
    3  A    between atoms: C_3  and  C_24
    4  A    between atoms: C_7  and  N_11
    5  A    between atoms: C_8  and  C_10
    6  A    between atoms: C_8  and  O_17
    7  A    between atoms: O_9  and  C_34
    8  A    between atoms: O_17  and  C_18
    9  A    between atoms: C_18  and  N_30
                            x       y       z     vdW  Elec       q    Type
                         _______ _______ _______ _____ _____    ______ ____

>  <TORSDO>
F 9

$$$$
=
 OpenBabel11062409293D

 34 37  0  0  1  0  0  0  0  0999 V2000
  161.6480  211.4030  149.6090 N   0  0  0  0  0  1  0  0  0  0  0  0
  161.5770  208.3160  151.0920 C   0  0  0  0  0  0  0  0  0  0  0  0
  161.3100  208.0690  149.8590 N   0  0  0  0  0  0  0  0  0  0  0  0
  162.3490  210.1460  149.8330 C   0  0  1  0  0  3  0  0  0  0  0  0
  162.2440  209.6410  151.2900 C   0  0  1  0  0  3  0  0  0  0  0  0
  161.7290  209.1160  149.0810 O   0  0  0  0  0  0  0  0  0  0  0  0
  161.3970  210.5370  152.1930 C   0  0  0  0  0  2  0  0  0  0  0  0
  161.8970  210.5150  153.5100 O   0  0  0  0  0  0  0  0  0  0  0  0
  159.9080  211.0580  156.6500 C   0  0  0  0  0  2  0  0  0  0  0  0
  156.7380  211.8190  154.7420 C   0  0  0  0  0  3  0  0  0  0  0  0
  158.3950  211.1360  156.4590 C   0  0  0  0  0  2  0  0  0  0  0  0
  157.9750  211.9090  155.2400 C   0  0  0  0  0  0  0  0  0  0  0  0
  158.9690  212.7170  154.4670 C   0  0  0  0  0  2  0  0  0  0  0  0
  160.5500  210.2540  155.5310 C   0  0  0  0  0  2  0  0  0  0  0  0
  159.8110  211.8050  153.5870 C   0  0  0  0  0  2  0  0  0  0  0  0
  160.9690  211.1560  154.3620 C   0  0  2  0  0  3  0  0  0  0  0  0
  155.2080  209.9690  154.7690 O   0  0  0  0  0  0  0  0  0  0  0  0
  155.6190  211.0380  155.2980 C   0  0  0  0  0  3  0  0  0  0  0  0
  161.3050  207.3260  152.1780 C   0  0  0  0  0  2  0  0  0  0  0  0
  161.9950  206.1430  151.9100 O   0  0  0  0  0  0  0  0  0  0  0  0
  161.2120  205.1190  152.4680 C   0  0  0  0  0  2  0  0  0  0  0  0
  160.8890  201.8200  150.7330 C   0  0  0  0  0  2  0  0  0  0  0  0
  161.3310  204.5600  150.1680 C   0  0  0  0  0  2  0  0  0  0  0  0
  160.5520  202.0070  146.9750 C   0  0  1  0  0  3  0  0  0  0  0  0
  160.8960  201.3250  148.3030 C   0  0  0  0  0  2  0  0  0  0  0  0
  161.3710  202.3150  149.3720 C   0  0  1  0  0  3  0  0  0  0  0  0
  161.4600  204.1970  147.8690 C   0  0  0  0  0  2  0  0  0  0  0  0
  160.8630  203.6720  149.1050 N   0  0  2  0  0  0  0  0  0  0  0  0
  161.4750  203.1930  146.7120 C   0  0  0  0  0  2  0  0  0  0  0  0
  160.7710  204.1560  151.4560 N   0  0  0  0  0  0  0  0  0  0  0  0
  161.2830  202.8260  151.8040 C   0  0  0  0  0  2  0  0  0  0  0  0
  160.6340  201.0530  145.8810 N   0  0  0  0  0  0  0  0  0  0  0  0
  159.9810  201.3020  144.6970 O   0  0  0  0  0  0  0  0  0  0  0  0
  161.1610  199.9410  146.0740 O   0  0  0  0  0  0  0  0  0  0  0  0
  2  5  1  0  0  0  0
  2 19  1  0  0  0  0
  3  2  2  0  0  0  0
  4  1  1  1  0  0  0
  4  5  1  0  0  0  0
  5  7  1  1  0  0  0
  6  4  1  0  0  0  0
  6  3  1  0  0  0  0
  7  8  1  0  0  0  0
 10 12  2  0  0  0  0
 10 18  1  0  0  0  0
 11  9  1  0  0  0  0
 12 11  1  0  0  0  0
 13 12  1  0  0  0  0
 14  9  1  0  0  0  0
 15 16  1  0  0  0  0
 15 13  1  0  0  0  0
 16  8  1  6  0  0  0
 16 14  1  0  0  0  0
 17 18  2  0  0  0  0
 20 19  1  0  0  0  0
 20 21  1  0  0  0  0
 22 31  1  0  0  0  0
 23 30  1  0  0  0  0
 24 32  1  6  0  0  0
 24 25  1  0  0  0  0
 26 25  1  6  0  0  0
 26 22  1  0  0  0  0
 28 27  1  6  0  0  0
 28 26  1  0  0  0  0
 28 23  1  0  0  0  0
 29 24  1  0  0  0  0
 29 27  1  0  0  0  0
 30 31  1  0  0  0  0
 30 21  1  0  0  0  0
 32 34  2  0  0  0  0
 33 32  2  0  0  0  0
M  END
>  <MODEL>
2

>  <REMARK>
 VINA RESULT:      -7.9      2.574     10.608
  Name = 
  9 active torsions:
  status: ('A' for Active; 'I' for Inactive)
    1  A    between atoms: C_1  and  O_9
    2  A    between atoms: C_1  and  C_20
    3  A    between atoms: C_3  and  C_24
    4  A    between atoms: C_7  and  N_11
    5  A    between atoms: C_8  and  C_10
    6  A    between atoms: C_8  and  O_17
    7  A    between atoms: O_9  and  C_34
    8  A    between atoms: O_17  and  C_18
    9  A    between atoms: C_18  and  N_30
                            x       y       z     vdW  Elec       q    Type
                         _______ _______ _______ _____ _____    ______ ____

>  <TORSDO>
F 9

$$$$
=
 OpenBabel11062409293D

 34 37  0  0  1  0  0  0  0  0999 V2000
  158.3470  214.3930  148.1650 N   0  0  0  0  0  1  0  0  0  0  0  0
  161.2060  212.5110  148.3170 C   0  0  0  0  0  0  0  0  0  0  0  0
  160.9400  212.5630  147.0600 N   0  0  0  0  0  0  0  0  0  0  0  0
  159.7910  214.3590  147.9790 C   0  0  1  0  0  3  0  0  0  0  0  0
  160.5320  213.5940  149.1000 C   0  0  1  0  0  3  0  0  0  0  0  0
  160.1030  213.6190  146.8110 O   0  0  0  0  0  0  0  0  0  0  0  0
  159.6030  212.9930  150.1540 C   0  0  0  0  0  2  0  0  0  0  0  0
  160.0980  213.2550  151.4470 O   0  0  0  0  0  0  0  0  0  0  0  0
  158.4450  211.7090  154.4450 C   0  0  0  0  0  2  0  0  0  0  0  0
  161.3600  209.3990  155.1040 C   0  0  0  0  0  3  0  0  0  0  0  0
  159.3510  210.8420  155.3150 C   0  0  0  0  0  2  0  0  0  0  0  0
  160.2990  209.9750  154.5320 C   0  0  0  0  0  0  0  0  0  0  0  0
  160.1510  209.8250  153.0510 C   0  0  0  0  0  2  0  0  0  0  0  0
  159.2600  212.7420  153.6830 C   0  0  0  0  0  2  0  0  0  0  0  0
  160.7060  211.0540  152.3450 C   0  0  0  0  0  2  0  0  0  0  0  0
  159.6950  212.2110  152.3100 C   0  0  2  0  0  3  0  0  0  0  0  0
  162.8760  209.8440  156.9120 O   0  0  0  0  0  0  0  0  0  0  0  0
  161.7370  209.4620  156.5270 C   0  0  0  0  0  3  0  0  0  0  0  0
  162.1530  211.5070  148.8870 C   0  0  0  0  0  2  0  0  0  0  0  0
  161.6830  210.2200  148.6200 O   0  0  0  0  0  0  0  0  0  0  0  0
  162.2870  209.3940  149.5820 C   0  0  0  0  0  2  0  0  0  0  0  0
  161.2850  206.1270  151.1080 C   0  0  0  0  0  2  0  0  0  0  0  0
  162.0960  207.2320  148.6290 C   0  0  0  0  0  2  0  0  0  0  0  0
  160.6230  203.3400  148.6460 C   0  0  1  0  0  3  0  0  0  0  0  0
  160.9810  203.9210  150.0180 C   0  0  0  0  0  2  0  0  0  0  0  0
  161.7060  205.2680  149.9190 C   0  0  1  0  0  3  0  0  0  0  0  0
  161.9450  205.1860  147.5230 C   0  0  0  0  0  2  0  0  0  0  0  0
  161.3940  205.9490  148.6510 N   0  0  2  0  0  0  0  0  0  0  0  0
  161.6910  203.6770  147.6110 C   0  0  0  0  0  2  0  0  0  0  0  0
  161.6050  208.1020  149.6950 N   0  0  0  0  0  0  0  0  0  0  0  0
  161.9320  207.5000  150.9930 C   0  0  0  0  0  2  0  0  0  0  0  0
  160.4490  201.8990  148.7380 N   0  0  0  0  0  0  0  0  0  0  0  0
  159.3210  201.3750  149.3240 O   0  0  0  0  0  0  0  0  0  0  0  0
  161.3920  201.1450  148.4310 O   0  0  0  0  0  0  0  0  0  0  0  0
  2 19  1  0  0  0  0
  2  5  1  0  0  0  0
  3  2  2  0  0  0  0
  4  1  1  1  0  0  0
  4  5  1  0  0  0  0
  5  7  1  1  0  0  0
  6  3  1  0  0  0  0
  6  4  1  0  0  0  0
  7  8  1  0  0  0  0
  9 11  1  0  0  0  0
 10 18  1  0  0  0  0
 12 10  2  0  0  0  0
 12 11  1  0  0  0  0
 13 12  1  0  0  0  0
 14  9  1  0  0  0  0
 15 13  1  0  0  0  0
 16  8  1  6  0  0  0
 16 15  1  0  0  0  0
 16 14  1  0  0  0  0
 18 17  2  0  0  0  0
 20 19  1  0  0  0  0
 20 21  1  0  0  0  0
 21 30  1  0  0  0  0
 23 28  1  0  0  0  0
 23 30  1  0  0  0  0
 24 32  1  1  0  0  0
 24 25  1  0  0  0  0
 26 25  1  6  0  0  0
 26 22  1  0  0  0  0
 27 29  1  0  0  0  0
 28 27  1  6  0  0  0
 28 26  1  0  0  0  0
 29 24  1  0  0  0  0
 30 31  1  0  0  0  0
 31 22  1  0  0  0  0
 32 33  2  0  0  0  0
 34 32  2  0  0  0  0
M  END
>  <MODEL>
3

>  <REMARK>
 VINA RESULT:      -7.7      3.483      9.972
  Name = 
  9 active torsions:
  status: ('A' for Active; 'I' for Inactive)
    1  A    between atoms: C_1  and  O_9
    2  A    between atoms: C_1  and  C_20
    3  A    between atoms: C_3  and  C_24
    4  A    between atoms: C_7  and  N_11
    5  A    between atoms: C_8  and  C_10
    6  A    between atoms: C_8  and  O_17
    7  A    between atoms: O_9  and  C_34
    8  A    between atoms: O_17  and  C_18
    9  A    between atoms: C_18  and  N_30
                            x       y       z     vdW  Elec       q    Type
                         _______ _______ _______ _____ _____    ______ ____

>  <TORSDO>
F 9

$$$$
=
 OpenBabel11062409293D

 34 37  0  0  1  0  0  0  0  0999 V2000
  160.9380  207.2450  155.9080 N   0  0  0  0  0  1  0  0  0  0  0  0
  160.1740  209.9540  153.9550 C   0  0  0  0  0  0  0  0  0  0  0  0
  159.7110  210.2710  155.1130 N   0  0  0  0  0  0  0  0  0  0  0  0
  161.2790  208.6120  155.5380 C   0  0  1  0  0  3  0  0  0  0  0  0
  161.2030  208.8690  154.0160 C   0  0  1  0  0  3  0  0  0  0  0  0
  160.3160  209.5040  156.0730 O   0  0  0  0  0  0  0  0  0  0  0  0
  160.7480  207.6540  153.2080 C   0  0  0  0  0  2  0  0  0  0  0  0
  161.7630  207.2520  152.3190 O   0  0  0  0  0  0  0  0  0  0  0  0
  160.7000  204.1800  150.4360 C   0  0  0  0  0  2  0  0  0  0  0  0
  161.8480  205.5780  147.1200 C   0  0  0  0  0  3  0  0  0  0  0  0
  161.2060  204.0880  148.9980 C   0  0  0  0  0  2  0  0  0  0  0  0
  161.1670  205.3940  148.2550 C   0  0  0  0  0  0  0  0  0  0  0  0
  160.4570  206.5800  148.8290 C   0  0  0  0  0  2  0  0  0  0  0  0
  161.6240  205.0470  151.2760 C   0  0  0  0  0  2  0  0  0  0  0  0
  161.3120  207.2290  149.9070 C   0  0  0  0  0  2  0  0  0  0  0  0
  161.1800  206.5160  151.2620 C   0  0  2  0  0  3  0  0  0  0  0  0
  162.3410  204.1170  145.2800 O   0  0  0  0  0  0  0  0  0  0  0  0
  162.6630  204.5770  146.4100 C   0  0  0  0  0  3  0  0  0  0  0  0
  159.7600  210.6700  152.7110 C   0  0  0  0  0  2  0  0  0  0  0  0
  160.3430  211.9380  152.6890 O   0  0  0  0  0  0  0  0  0  0  0  0
  159.3190  212.8140  152.2950 C   0  0  0  0  0  2  0  0  0  0  0  0
  158.7580  214.3570  148.9320 C   0  0  0  0  0  2  0  0  0  0  0  0
  160.5930  212.6890  150.3000 C   0  0  0  0  0  2  0  0  0  0  0  0
  161.6850  214.1390  146.5550 C   0  0  1  0  0  3  0  0  0  0  0  0
  160.2040  214.2880  146.9190 C   0  0  0  0  0  2  0  0  0  0  0  0
  159.8360  213.5520  148.2120 C   0  0  1  0  0  3  0  0  0  0  0  0
  161.9760  212.4680  148.4370 C   0  0  0  0  0  2  0  0  0  0  0  0
  161.0140  213.3740  149.0780 N   0  0  2  0  0  0  0  0  0  0  0  0
  162.2130  212.7640  146.9520 C   0  0  0  0  0  2  0  0  0  0  0  0
  159.6500  213.5140  151.0510 N   0  0  0  0  0  0  0  0  0  0  0  0
  158.4280  213.6870  150.2580 C   0  0  0  0  0  2  0  0  0  0  0  0
  161.8790  214.3610  145.1310 N   0  0  0  0  0  0  0  0  0  0  0  0
  160.7940  214.4530  144.2910 O   0  0  0  0  0  0  0  0  0  0  0  0
  163.0280  214.3080  144.6520 O   0  0  0  0  0  0  0  0  0  0  0  0
  2  5  1  0  0  0  0
  2  3  2  0  0  0  0
  3  6  1  0  0  0  0
  4  1  1  6  0  0  0
  4  6  1  0  0  0  0
  5  7  1  6  0  0  0
  5  4  1  0  0  0  0
  8  7  1  0  0  0  0
  9 14  1  0  0  0  0
 10 12  2  0  0  0  0
 11  9  1  0  0  0  0
 12 13  1  0  0  0  0
 12 11  1  0  0  0  0
 13 15  1  0  0  0  0
 15 16  1  0  0  0  0
 16 14  1  0  0  0  0
 16  8  1  1  0  0  0
 17 18  2  0  0  0  0
 18 10  1  0  0  0  0
 19  2  1  0  0  0  0
 20 19  1  0  0  0  0
 21 20  1  0  0  0  0
 22 31  1  0  0  0  0
 23 30  1  0  0  0  0
 24 32  1  6  0  0  0
 24 25  1  0  0  0  0
 24 29  1  0  0  0  0
 26 25  1  6  0  0  0
 26 22  1  0  0  0  0
 26 28  1  0  0  0  0
 28 27  1  6  0  0  0
 28 23  1  0  0  0  0
 29 27  1  0  0  0  0
 30 21  1  0  0  0  0
 31 30  1  0  0  0  0
 33 32  2  0  0  0  0
 34 32  2  0  0  0  0
M  END
>  <MODEL>
4

>  <REMARK>
 VINA RESULT:      -7.6      3.974      6.603
  Name = 
  9 active torsions:
  status: ('A' for Active; 'I' for Inactive)
    1  A    between atoms: C_1  and  O_9
    2  A    between atoms: C_1  and  C_20
    3  A    between atoms: C_3  and  C_24
    4  A    between atoms: C_7  and  N_11
    5  A    between atoms: C_8  and  C_10
    6  A    between atoms: C_8  and  O_17
    7  A    between atoms: O_9  and  C_34
    8  A    between atoms: O_17  and  C_18
    9  A    between atoms: C_18  and  N_30
                            x       y       z     vdW  Elec       q    Type
                         _______ _______ _______ _____ _____    ______ ____

>  <TORSDO>
F 9

$$$$
=
 OpenBabel11062409293D

 34 37  0  0  1  0  0  0  0  0999 V2000
  160.4040  207.4090  157.2420 N   0  0  0  0  0  1  0  0  0  0  0  0
  160.8160  208.3580  153.9760 C   0  0  0  0  0  0  0  0  0  0  0  0
  161.3400  207.1850  154.0220 N   0  0  0  0  0  0  0  0  0  0  0  0
  159.9360  207.2760  155.8690 C   0  0  1  0  0  3  0  0  0  0  0  0
  159.8780  208.6220  155.1120 C   0  0  1  0  0  3  0  0  0  0  0  0
  160.8690  206.5150  155.1200 O   0  0  0  0  0  0  0  0  0  0  0  0
  160.3580  209.8140  155.9370 C   0  0  0  0  0  2  0  0  0  0  0  0
  159.3010  210.3310  156.7110 O   0  0  0  0  0  0  0  0  0  0  0  0
  156.6790  212.5290  155.1600 C   0  0  0  0  0  2  0  0  0  0  0  0
  158.9190  213.4960  152.2760 C   0  0  0  0  0  3  0  0  0  0  0  0
  156.9750  212.9930  153.7360 C   0  0  0  0  0  2  0  0  0  0  0  0
  158.4110  213.3730  153.5060 C   0  0  0  0  0  0  0  0  0  0  0  0
  159.3590  213.5110  154.6560 C   0  0  0  0  0  2  0  0  0  0  0  0
  157.4020  211.2260  155.4620 C   0  0  0  0  0  2  0  0  0  0  0  0
  159.8080  212.1360  155.1280 C   0  0  0  0  0  2  0  0  0  0  0  0
  158.7870  211.4820  156.0720 C   0  0  2  0  0  3  0  0  0  0  0  0
  157.3080  214.1620  150.6250 O   0  0  0  0  0  0  0  0  0  0  0  0
  158.1910  213.3440  151.0040 C   0  0  0  0  0  3  0  0  0  0  0  0
  161.0810  209.3030  152.8500 C   0  0  0  0  0  2  0  0  0  0  0  0
  162.1890  208.8610  152.1240 O   0  0  0  0  0  0  0  0  0  0  0  0
  161.8310  208.9980  150.7740 C   0  0  0  0  0  2  0  0  0  0  0  0
  161.8660  206.6890  147.8290 C   0  0  0  0  0  2  0  0  0  0  0  0
  161.2640  206.7030  150.5970 C   0  0  0  0  0  2  0  0  0  0  0  0
  161.4390  203.0280  148.6520 C   0  0  1  0  0  3  0  0  0  0  0  0
  161.3830  204.2590  147.7420 C   0  0  0  0  0  2  0  0  0  0  0  0
  161.1110  205.5540  148.5150 C   0  0  1  0  0  3  0  0  0  0  0  0
  160.6850  204.4460  150.6120 C   0  0  0  0  0  2  0  0  0  0  0  0
  161.5280  205.4320  149.9230 N   0  0  2  0  0  0  0  0  0  0  0  0
  160.4590  203.1570  149.8140 C   0  0  0  0  0  2  0  0  0  0  0  0
  162.0790  207.7680  150.0170 N   0  0  0  0  0  0  0  0  0  0  0  0
  161.6750  207.9750  148.6210 C   0  0  0  0  0  2  0  0  0  0  0  0
  161.1600  201.8220  147.8890 N   0  0  0  0  0  0  0  0  0  0  0  0
  161.4140  200.5860  148.4320 O   0  0  0  0  0  0  0  0  0  0  0  0
  160.8400  201.9160  146.6880 O   0  0  0  0  0  0  0  0  0  0  0  0
  2  3  2  0  0  0  0
  2  5  1  0  0  0  0
  3  6  1  0  0  0  0
  4  1  1  1  0  0  0
  5  4  1  0  0  0  0
  5  7  1  1  0  0  0
  6  4  1  0  0  0  0
  7  8  1  0  0  0  0
  9 14  1  0  0  0  0
 10 12  2  0  0  0  0
 11  9  1  0  0  0  0
 12 11  1  0  0  0  0
 12 13  1  0  0  0  0
 13 15  1  0  0  0  0
 14 16  1  0  0  0  0
 15 16  1  0  0  0  0
 16  8  1  6  0  0  0
 17 18  2  0  0  0  0
 18 10  1  0  0  0  0
 19  2  1  0  0  0  0
 20 19  1  0  0  0  0
 21 20  1  0  0  0  0
 22 26  1  0  0  0  0
 22 31  1  0  0  0  0
 24 32  1  6  0  0  0
 24 29  1  0  0  0  0
 25 24  1  0  0  0  0
 26 25  1  6  0  0  0
 26 28  1  0  0  0  0
 28 23  1  1  0  0  0
 28 27  1  0  0  0  0
 29 27  1  0  0  0  0
 30 23  1  0  0  0  0
 30 21  1  0  0  0  0
 31 30  1  0  0  0  0
 32 33  2  0  0  0  0
 34 32  2  0  0  0  0
M  END
>  <MODEL>
5

>  <REMARK>
 VINA RESULT:      -7.5      2.632      9.826
  Name = 
  9 active torsions:
  status: ('A' for Active; 'I' for Inactive)
    1  A    between atoms: C_1  and  O_9
    2  A    between atoms: C_1  and  C_20
    3  A    between atoms: C_3  and  C_24
    4  A    between atoms: C_7  and  N_11
    5  A    between atoms: C_8  and  C_10
    6  A    between atoms: C_8  and  O_17
    7  A    between atoms: O_9  and  C_34
    8  A    between atoms: O_17  and  C_18
    9  A    between atoms: C_18  and  N_30
                            x       y       z     vdW  Elec       q    Type
                         _______ _______ _______ _____ _____    ______ ____

>  <TORSDO>
F 9

$$$$
=
 OpenBabel11062409293D

 34 37  0  0  1  0  0  0  0  0999 V2000
  161.1150  208.9640  155.5050 N   0  0  0  0  0  1  0  0  0  0  0  0
  160.6600  211.2060  152.9550 C   0  0  0  0  0  0  0  0  0  0  0  0
  160.1430  211.7940  153.9750 N   0  0  0  0  0  0  0  0  0  0  0  0
  161.5680  210.1960  154.8740 C   0  0  1  0  0  3  0  0  0  0  0  0
  161.6100  210.1130  153.3310 C   0  0  1  0  0  3  0  0  0  0  0  0
  160.6310  211.2300  155.1250 O   0  0  0  0  0  0  0  0  0  0  0  0
  161.1310  208.7730  152.7740 C   0  0  0  0  0  2  0  0  0  0  0  0
  162.0260  208.3050  151.7920 O   0  0  0  0  0  0  0  0  0  0  0  0
  160.8270  204.8920  150.7780 C   0  0  0  0  0  2  0  0  0  0  0  0
  161.7090  205.4490  147.1470 C   0  0  0  0  0  3  0  0  0  0  0  0
  161.2190  204.4550  149.3680 C   0  0  0  0  0  2  0  0  0  0  0  0
  161.1200  205.5490  148.3420 C   0  0  0  0  0  0  0  0  0  0  0  0
  160.4530  206.8480  148.6710 C   0  0  0  0  0  2  0  0  0  0  0  0
  161.8120  205.9190  151.3160 C   0  0  0  0  0  2  0  0  0  0  0  0
  161.3880  207.7190  149.4960 C   0  0  0  0  0  2  0  0  0  0  0  0
  161.3640  207.3500  150.9880 C   0  0  2  0  0  3  0  0  0  0  0  0
  163.4270  204.4190  145.8230 O   0  0  0  0  0  0  0  0  0  0  0  0
  162.4680  204.2950  146.6340 C   0  0  0  0  0  3  0  0  0  0  0  0
  160.3760  211.6470  151.5560 C   0  0  0  0  0  2  0  0  0  0  0  0
  159.3810  212.6250  151.5710 O   0  0  0  0  0  0  0  0  0  0  0  0
  159.8900  213.6890  150.8080 C   0  0  0  0  0  2  0  0  0  0  0  0
  162.0310  213.6970  147.7390 C   0  0  0  0  0  2  0  0  0  0  0  0
  159.3370  213.3230  148.5320 C   0  0  0  0  0  2  0  0  0  0  0  0
  160.3780  212.3460  144.6230 C   0  0  1  0  0  3  0  0  0  0  0  0
  161.4060  213.1770  145.3960 C   0  0  0  0  0  2  0  0  0  0  0  0
  160.8730  213.6740  146.7450 C   0  0  1  0  0  3  0  0  0  0  0  0
  158.6180  212.9220  146.3520 C   0  0  0  0  0  2  0  0  0  0  0  0
  159.7850  212.8110  147.2370 N   0  0  2  0  0  0  0  0  0  0  0  0
  158.9630  212.8640  144.8600 C   0  0  0  0  0  2  0  0  0  0  0  0
  160.4130  213.2330  149.5180 N   0  0  0  0  0  0  0  0  0  0  0  0
  161.5120  214.1140  149.1080 C   0  0  0  0  0  2  0  0  0  0  0  0
  160.6860  212.3550  143.2020 N   0  0  0  0  0  0  0  0  0  0  0  0
  159.6720  212.3180  142.2750 O   0  0  0  0  0  0  0  0  0  0  0  0
  161.8690  212.2370  142.8300 O   0  0  0  0  0  0  0  0  0  0  0  0
  2  5  1  0  0  0  0
  2  3  2  0  0  0  0
  3  6  1  0  0  0  0
  4  6  1  0  0  0  0
  4  1  1  1  0  0  0
  5  7  1  1  0  0  0
  5  4  1  0  0  0  0
  8  7  1  0  0  0  0
  9 14  1  0  0  0  0
 10 12  2  0  0  0  0
 11  9  1  0  0  0  0
 12 13  1  0  0  0  0
 12 11  1  0  0  0  0
 13 15  1  0  0  0  0
 15 16  1  0  0  0  0
 16 14  1  0  0  0  0
 16  8  1  1  0  0  0
 17 18  2  0  0  0  0
 18 10  1  0  0  0  0
 19 20  1  0  0  0  0
 19  2  1  0  0  0  0
 21 20  1  0  0  0  0
 22 31  1  0  0  0  0
 23 30  1  0  0  0  0
 24 32  1  6  0  0  0
 24 29  1  0  0  0  0
 24 25  1  0  0  0  0
 26 25  1  6  0  0  0
 26 28  1  0  0  0  0
 26 22  1  0  0  0  0
 28 27  1  6  0  0  0
 28 23  1  0  0  0  0
 29 27  1  0  0  0  0
 30 21  1  0  0  0  0
 31 30  1  0  0  0  0
 33 32  2  0  0  0  0
 34 32  2  0  0  0  0
M  END
>  <MODEL>
6

>  <REMARK>
 VINA RESULT:      -7.5      4.387      7.444
  Name = 
  9 active torsions:
  status: ('A' for Active; 'I' for Inactive)
    1  A    between atoms: C_1  and  O_9
    2  A    between atoms: C_1  and  C_20
    3  A    between atoms: C_3  and  C_24
    4  A    between atoms: C_7  and  N_11
    5  A    between atoms: C_8  and  C_10
    6  A    between atoms: C_8  and  O_17
    7  A    between atoms: O_9  and  C_34
    8  A    between atoms: O_17  and  C_18
    9  A    between atoms: C_18  and  N_30
                            x       y       z     vdW  Elec       q    Type
                         _______ _______ _______ _____ _____    ______ ____

>  <TORSDO>
F 9

$$$$
=
 OpenBabel11062409293D

 34 37  0  0  1  0  0  0  0  0999 V2000
  158.9200  214.4480  147.7120 N   0  0  0  0  0  1  0  0  0  0  0  0
  161.4390  212.2260  148.3880 C   0  0  0  0  0  0  0  0  0  0  0  0
  160.9140  211.7740  147.3040 N   0  0  0  0  0  0  0  0  0  0  0  0
  160.2680  214.0030  147.3860 C   0  0  1  0  0  3  0  0  0  0  0  0
  161.1170  213.6660  148.6340 C   0  0  1  0  0  3  0  0  0  0  0  0
  160.2060  212.7710  146.6870 O   0  0  0  0  0  0  0  0  0  0  0  0
  160.3640  213.8290  149.9530 C   0  0  0  0  0  2  0  0  0  0  0  0
  160.0560  212.5670  150.4980 O   0  0  0  0  0  0  0  0  0  0  0  0
  160.1800  211.7100  154.1540 C   0  0  0  0  0  2  0  0  0  0  0  0
  156.5000  212.4090  154.6410 C   0  0  0  0  0  3  0  0  0  0  0  0
  158.8220  211.5530  154.8340 C   0  0  0  0  0  2  0  0  0  0  0  0
  157.8050  212.5730  154.4030 C   0  0  0  0  0  0  0  0  0  0  0  0
  158.2090  213.7570  153.5820 C   0  0  0  0  0  2  0  0  0  0  0  0
  160.0700  211.4350  152.6620 C   0  0  0  0  0  2  0  0  0  0  0  0
  158.3960  213.3440  152.1300 C   0  0  0  0  0  2  0  0  0  0  0  0
  159.7770  212.7190  151.8750 C   0  0  2  0  0  3  0  0  0  0  0  0
  155.3380  210.3140  154.7860 O   0  0  0  0  0  0  0  0  0  0  0  0
  155.8720  211.2950  155.3720 C   0  0  0  0  0  3  0  0  0  0  0  0
  162.3330  211.3910  149.2450 C   0  0  0  0  0  2  0  0  0  0  0  0
  161.9620  210.0500  149.1350 O   0  0  0  0  0  0  0  0  0  0  0  0
  161.9870  209.5460  150.4450 C   0  0  0  0  0  2  0  0  0  0  0  0
  161.4930  206.0700  151.7430 C   0  0  0  0  0  2  0  0  0  0  0  0
  161.8200  207.4750  149.3040 C   0  0  0  0  0  2  0  0  0  0  0  0
  160.6780  203.4770  149.1200 C   0  0  1  0  0  3  0  0  0  0  0  0
  161.1980  203.9580  150.4780 C   0  0  0  0  0  2  0  0  0  0  0  0
  161.7910  205.3700  150.4200 C   0  0  1  0  0  3  0  0  0  0  0  0
  161.6600  205.5370  148.0190 C   0  0  0  0  0  2  0  0  0  0  0  0
  161.2330  206.1350  149.2910 N   0  0  2  0  0  0  0  0  0  0  0  0
  161.5420  204.0090  147.9810 C   0  0  0  0  0  2  0  0  0  0  0  0
  161.4340  208.1910  150.5190 N   0  0  0  0  0  0  0  0  0  0  0  0
  162.0060  207.5030  151.6820 C   0  0  0  0  0  2  0  0  0  0  0  0
  160.6330  202.0250  149.0820 N   0  0  0  0  0  0  0  0  0  0  0  0
  160.7610  201.2980  150.2420 O   0  0  0  0  0  0  0  0  0  0  0  0
  160.6390  201.4390  147.9820 O   0  0  0  0  0  0  0  0  0  0  0  0
  2  5  1  0  0  0  0
  2 19  1  0  0  0  0
  3  2  2  0  0  0  0
  4  1  1  1  0  0  0
  4  5  1  0  0  0  0
  5  7  1  1  0  0  0
  6  3  1  0  0  0  0
  6  4  1  0  0  0  0
  7  8  1  0  0  0  0
  9 11  1  0  0  0  0
 10 18  1  0  0  0  0
 12 10  2  0  0  0  0
 12 11  1  0  0  0  0
 13 12  1  0  0  0  0
 14  9  1  0  0  0  0
 15 13  1  0  0  0  0
 16  8  1  6  0  0  0
 16 15  1  0  0  0  0
 16 14  1  0  0  0  0
 17 18  2  0  0  0  0
 20 19  1  0  0  0  0
 20 21  1  0  0  0  0
 21 30  1  0  0  0  0
 23 30  1  0  0  0  0
 24 32  1  1  0  0  0
 24 25  1  0  0  0  0
 26 25  1  1  0  0  0
 26 22  1  0  0  0  0
 28 27  1  6  0  0  0
 28 23  1  0  0  0  0
 28 26  1  0  0  0  0
 29 27  1  0  0  0  0
 29 24  1  0  0  0  0
 30 31  1  0  0  0  0
 31 22  1  0  0  0  0
 32 33  2  0  0  0  0
 34 32  2  0  0  0  0
M  END
>  <MODEL>
7

>  <REMARK>
 VINA RESULT:      -7.4      3.087     10.085
  Name = 
  9 active torsions:
  status: ('A' for Active; 'I' for Inactive)
    1  A    between atoms: C_1  and  O_9
    2  A    between atoms: C_1  and  C_20
    3  A    between atoms: C_3  and  C_24
    4  A    between atoms: C_7  and  N_11
    5  A    between atoms: C_8  and  C_10
    6  A    between atoms: C_8  and  O_17
    7  A    between atoms: O_9  and  C_34
    8  A    between atoms: O_17  and  C_18
    9  A    between atoms: C_18  and  N_30
                            x       y       z     vdW  Elec       q    Type
                         _______ _______ _______ _____ _____    ______ ____

>  <TORSDO>
F 9

$$$$
=
 OpenBabel11062409293D

 34 37  0  0  1  0  0  0  0  0999 V2000
  161.0920  207.4950  156.5970 N   0  0  0  0  0  1  0  0  0  0  0  0
  161.0740  208.3200  153.2720 C   0  0  0  0  0  0  0  0  0  0  0  0
  161.2020  207.0400  153.2690 N   0  0  0  0  0  0  0  0  0  0  0  0
  160.3240  207.5400  155.3600 C   0  0  1  0  0  3  0  0  0  0  0  0
  160.5300  208.8480  154.5620 C   0  0  1  0  0  3  0  0  0  0  0  0
  160.7910  206.5350  154.4740 O   0  0  0  0  0  0  0  0  0  0  0  0
  161.5240  209.8130  155.2070 C   0  0  0  0  0  2  0  0  0  0  0  0
  161.5070  211.0510  154.5360 O   0  0  0  0  0  0  0  0  0  0  0  0
  159.3500  212.4890  157.2540 C   0  0  0  0  0  2  0  0  0  0  0  0
  156.2030  212.1810  155.1870 C   0  0  0  0  0  3  0  0  0  0  0  0
  157.8450  212.3380  157.0420 C   0  0  0  0  0  2  0  0  0  0  0  0
  157.4050  212.5700  155.6230 C   0  0  0  0  0  0  0  0  0  0  0  0
  158.3500  213.1400  154.6130 C   0  0  0  0  0  2  0  0  0  0  0  0
  160.1100  211.4040  156.5080 C   0  0  0  0  0  2  0  0  0  0  0  0
  159.3090  212.0620  154.1290 C   0  0  0  0  0  2  0  0  0  0  0  0
  160.4900  211.8590  155.0920 C   0  0  2  0  0  3  0  0  0  0  0  0
  155.0160  210.2930  156.0750 O   0  0  0  0  0  0  0  0  0  0  0  0
  155.1410  211.5450  155.9860 C   0  0  0  0  0  3  0  0  0  0  0  0
  161.3740  209.1510  152.0670 C   0  0  0  0  0  2  0  0  0  0  0  0
  162.3790  208.5360  151.3180 O   0  0  0  0  0  0  0  0  0  0  0  0
  161.9240  208.5630  149.9890 C   0  0  0  0  0  2  0  0  0  0  0  0
  162.0490  206.1250  147.1530 C   0  0  0  0  0  2  0  0  0  0  0  0
  161.3100  206.2760  149.8840 C   0  0  0  0  0  2  0  0  0  0  0  0
  161.4910  202.5150  148.1120 C   0  0  1  0  0  3  0  0  0  0  0  0
  161.5100  203.7050  147.1480 C   0  0  0  0  0  2  0  0  0  0  0  0
  161.2330  205.0390  147.8480 C   0  0  1  0  0  3  0  0  0  0  0  0
  160.6750  204.0350  149.9670 C   0  0  0  0  0  2  0  0  0  0  0  0
  161.5760  204.9700  149.2800 N   0  0  2  0  0  0  0  0  0  0  0  0
  160.4570  202.7180  149.2150 C   0  0  0  0  0  2  0  0  0  0  0  0
  162.1800  207.2950  149.3000 N   0  0  0  0  0  0  0  0  0  0  0  0
  161.8510  207.4480  147.8790 C   0  0  0  0  0  2  0  0  0  0  0  0
  161.2190  201.2830  147.3880 N   0  0  0  0  0  0  0  0  0  0  0  0
  160.4910  201.3120  146.2220 O   0  0  0  0  0  0  0  0  0  0  0  0
  161.5100  200.1880  147.9080 O   0  0  0  0  0  0  0  0  0  0  0  0
  2  5  1  0  0  0  0
  3  2  2  0  0  0  0
  3  6  1  0  0  0  0
  4  1  1  1  0  0  0
  5  7  1  1  0  0  0
  5  4  1  0  0  0  0
  6  4  1  0  0  0  0
  8  7  1  0  0  0  0
 10 12  2  0  0  0  0
 10 18  1  0  0  0  0
 11  9  1  0  0  0  0
 12 11  1  0  0  0  0
 13 12  1  0  0  0  0
 14  9  1  0  0  0  0
 15 13  1  0  0  0  0
 15 16  1  0  0  0  0
 16  8  1  6  0  0  0
 16 14  1  0  0  0  0
 18 17  2  0  0  0  0
 19  2  1  0  0  0  0
 20 19  1  0  0  0  0
 21 20  1  0  0  0  0
 22 26  1  0  0  0  0
 22 31  1  0  0  0  0
 24 32  1  6  0  0  0
 24 29  1  0  0  0  0
 25 24  1  0  0  0  0
 26 25  1  6  0  0  0
 26 28  1  0  0  0  0
 28 23  1  1  0  0  0
 28 27  1  0  0  0  0
 29 27  1  0  0  0  0
 30 23  1  0  0  0  0
 30 21  1  0  0  0  0
 31 30  1  0  0  0  0
 32 34  2  0  0  0  0
 33 32  2  0  0  0  0
M  END
>  <MODEL>
8

>  <REMARK>
 VINA RESULT:      -7.4      2.328     10.343
  Name = 
  9 active torsions:
  status: ('A' for Active; 'I' for Inactive)
    1  A    between atoms: C_1  and  O_9
    2  A    between atoms: C_1  and  C_20
    3  A    between atoms: C_3  and  C_24
    4  A    between atoms: C_7  and  N_11
    5  A    between atoms: C_8  and  C_10
    6  A    between atoms: C_8  and  O_17
    7  A    between atoms: O_9  and  C_34
    8  A    between atoms: O_17  and  C_18
    9  A    between atoms: C_18  and  N_30
                            x       y       z     vdW  Elec       q    Type
                         _______ _______ _______ _____ _____    ______ ____

>  <TORSDO>
F 9

$$$$
=
 OpenBabel11062409293D

 34 37  0  0  1  0  0  0  0  0999 V2000
  164.1690  212.1980  147.8410 N   0  0  0  0  0  1  0  0  0  0  0  0
  161.0470  213.0990  148.9260 C   0  0  0  0  0  0  0  0  0  0  0  0
  161.6100  214.2210  148.6490 N   0  0  0  0  0  0  0  0  0  0  0  0
  162.8320  212.6400  147.4660 C   0  0  1  0  0  3  0  0  0  0  0  0
  161.7110  211.9340  148.2620 C   0  0  1  0  0  3  0  0  0  0  0  0
  162.6700  214.0060  147.8090 O   0  0  0  0  0  0  0  0  0  0  0  0
  162.2270  210.9450  149.3070 C   0  0  0  0  0  2  0  0  0  0  0  0
  162.3890  209.6690  148.7340 O   0  0  0  0  0  0  0  0  0  0  0  0
  160.8340  207.9980  151.7170 C   0  0  0  0  0  2  0  0  0  0  0  0
  161.2750  204.5430  150.2550 C   0  0  0  0  0  3  0  0  0  0  0  0
  161.0080  206.4820  151.7810 C   0  0  0  0  0  2  0  0  0  0  0  0
  160.8530  205.7950  150.4530 C   0  0  0  0  0  0  0  0  0  0  0  0
  160.3270  206.5370  149.2650 C   0  0  0  0  0  2  0  0  0  0  0  0
  161.9490  208.6340  150.9020 C   0  0  0  0  0  2  0  0  0  0  0  0
  161.4200  207.4150  148.6730 C   0  0  0  0  0  2  0  0  0  0  0  0
  161.5630  208.7500  149.4210 C   0  0  2  0  0  3  0  0  0  0  0  0
  161.2810  202.6350  151.7130 O   0  0  0  0  0  0  0  0  0  0  0  0
  161.8790  203.6490  151.2580 C   0  0  0  0  0  3  0  0  0  0  0  0
  159.8130  213.0150  149.7650 C   0  0  0  0  0  2  0  0  0  0  0  0
  159.9430  213.8620  150.8670 O   0  0  0  0  0  0  0  0  0  0  0  0
  158.7440  213.7270  151.5860 C   0  0  0  0  0  2  0  0  0  0  0  0
  157.8100  211.3990  154.3630 C   0  0  0  0  0  2  0  0  0  0  0  0
  160.0620  212.2180  152.8520 C   0  0  0  0  0  2  0  0  0  0  0  0
  160.4670  208.8910  155.3200 C   0  0  1  0  0  3  0  0  0  0  0  0
  159.2210  209.7490  155.5610 C   0  0  0  0  0  2  0  0  0  0  0  0
  159.2420  211.0600  154.7670 C   0  0  1  0  0  3  0  0  0  0  0  0
  161.5040  210.7780  153.9840 C   0  0  0  0  0  2  0  0  0  0  0  0
  160.1030  210.9470  153.5760 N   0  0  2  0  0  0  0  0  0  0  0  0
  161.7020  209.7620  155.1140 C   0  0  0  0  0  2  0  0  0  0  0  0
  158.7120  212.4840  152.3610 N   0  0  0  0  0  0  0  0  0  0  0  0
  157.8110  212.6580  153.5070 C   0  0  0  0  0  2  0  0  0  0  0  0
  160.6740  207.9790  156.4330 N   0  0  0  0  0  0  0  0  0  0  0  0
  159.6750  207.1140  156.8130 O   0  0  0  0  0  0  0  0  0  0  0  0
  161.6950  208.0920  157.1390 O   0  0  0  0  0  0  0  0  0  0  0  0
  2 19  1  0  0  0  0
  3  2  2  0  0  0  0
  4  6  1  0  0  0  0
  4  1  1  1  0  0  0
  4  5  1  0  0  0  0
  5  2  1  0  0  0  0
  5  7  1  1  0  0  0
  6  3  1  0  0  0  0
  8  7  1  0  0  0  0
  9 11  1  0  0  0  0
 10 12  2  0  0  0  0
 10 18  1  0  0  0  0
 12 11  1  0  0  0  0
 13 12  1  0  0  0  0
 14  9  1  0  0  0  0
 15 13  1  0  0  0  0
 15 16  1  0  0  0  0
 16  8  1  6  0  0  0
 16 14  1  0  0  0  0
 18 17  2  0  0  0  0
 19 20  1  0  0  0  0
 20 21  1  0  0  0  0
 21 30  1  0  0  0  0
 24 25  1  0  0  0  0
 24 32  1  1  0  0  0
 26 22  1  6  0  0  0
 26 25  1  0  0  0  0
 27 29  1  0  0  0  0
 28 23  1  6  0  0  0
 28 27  1  0  0  0  0
 28 26  1  0  0  0  0
 29 24  1  0  0  0  0
 30 23  1  0  0  0  0
 30 31  1  0  0  0  0
 31 22  1  0  0  0  0
 32 33  2  0  0  0  0
 32 34  2  0  0  0  0
M  END
>  <MODEL>
9

>  <REMARK>
 VINA RESULT:      -7.3      3.605      5.845
  Name = 
  9 active torsions:
  status: ('A' for Active; 'I' for Inactive)
    1  A    between atoms: C_1  and  O_9
    2  A    between atoms: C_1  and  C_20
    3  A    between atoms: C_3  and  C_24
    4  A    between atoms: C_7  and  N_11
    5  A    between atoms: C_8  and  C_10
    6  A    between atoms: C_8  and  O_17
    7  A    between atoms: O_9  and  C_34
    8  A    between atoms: O_17  and  C_18
    9  A    between atoms: C_18  and  N_30
                            x       y       z     vdW  Elec       q    Type
                         _______ _______ _______ _____ _____    ______ ____

>  <TORSDO>
F 9

$$$$
