=
 OpenBabel11062409423D

 34 37  0  0  1  0  0  0  0  0999 V2000
  161.0150  208.9640  152.0500 C   0  0  1  0  0  3  0  0  0  0  0  0
  161.0570  211.7140  151.1530 N   0  0  0  0  0  0  0  0  0  0  0  0
  159.7760  210.0720  153.9700 C   0  0  0  0  0  3  0  0  0  0  0  0
  159.3610  211.3780  154.2020 C   0  0  0  0  0  3  0  0  0  0  0  0
  160.4750  211.3430  152.4000 C   0  0  0  0  0  0  0  0  0  0  0  0
  160.5020  210.0850  152.8400 N   0  0  0  0  0  0  0  0  0  0  0  0
  159.7980  212.1790  153.2020 N   0  0  0  0  0  0  0  0  0  0  0  0
  161.7500  210.8490  150.4640 C   0  0  0  0  0  0  0  0  0  0  0  0
  162.1150  208.5410  149.9600 O   0  0  0  0  0  1  0  0  0  0  0  0
  162.0370  209.4590  151.0060 C   0  0  2  0  0  3  0  0  0  0  0  0
  162.3070  211.2140  149.2340 O   0  0  0  0  0  0  0  0  0  0  0  0
  161.8420  212.3260  148.4740 C   0  0  2  0  0  3  0  0  0  0  0  0
  160.7580  211.8760  147.5040 C   0  0  0  0  0  1  0  0  0  0  0  0
  163.0060  212.9690  147.7260 C   0  0  0  0  0  0  0  0  0  0  0  0
  163.1690  214.2710  148.1630 F   0  0  0  0  0  0  0  0  0  0  0  0
  162.7440  212.9840  146.3680 F   0  0  0  0  0  0  0  0  0  0  0  0
  164.1750  212.2650  147.9580 F   0  0  0  0  0  0  0  0  0  0  0  0
  161.6780  207.9180  152.9410 C   0  0  0  0  0  2  0  0  0  0  0  0
  160.6550  206.9350  153.4820 C   0  0  2  0  0  3  0  0  0  0  0  0
  160.5320  207.1190  154.9820 C   0  0  0  0  0  1  0  0  0  0  0  0
  161.6280  203.2350  150.3470 C   0  0  0  0  0  3  0  0  0  0  0  0
  160.8680  205.8620  150.7870 N   0  0  0  0  0  0  0  0  0  0  0  0
  161.1050  204.4320  146.8790 C   0  0  0  0  0  0  0  0  0  0  0  0
  161.4080  203.5870  147.9570 C   0  0  0  0  0  3  0  0  0  0  0  0
  161.3290  204.0650  149.2660 C   0  0  0  0  0  0  0  0  0  0  0  0
  161.0750  205.5720  153.1860 N   0  0  0  0  0  2  0  0  0  0  0  0
  160.6430  206.2420  148.4370 C   0  0  0  0  0  3  0  0  0  0  0  0
  160.9440  205.4000  149.5100 C   0  0  0  0  0  0  0  0  0  0  0  0
  160.7240  205.7600  147.1280 C   0  0  0  0  0  3  0  0  0  0  0  0
  161.1560  205.0630  151.8530 C   0  0  0  0  0  0  0  0  0  0  0  0
  161.5420  203.7340  151.6480 C   0  0  0  0  0  3  0  0  0  0  0  0
  161.1890  203.9260  145.5000 C   0  0  0  0  0  0  0  0  0  0  0  0
  160.8910  202.7300  145.2390 O   0  0  0  0  0  1  0  0  0  0  0  0
  161.6010  204.7650  144.4700 O   0  0  0  0  0  0  0  0  0  0  0  0
  1  6  1  0  0  0  0
  1 18  1  1  0  0  0
  2  5  1  0  0  0  0
  3  4  2  0  0  0  0
  5  6  1  0  0  0  0
  5  7  2  0  0  0  0
  6  3  1  0  0  0  0
  7  4  1  0  0  0  0
  8 10  1  0  0  0  0
  8  2  2  0  0  0  0
 10  9  1  6  0  0  0
 10  1  1  0  0  0  0
 11  8  1  0  0  0  0
 12 13  1  6  0  0  0
 12 11  1  0  0  0  0
 14 17  1  0  0  0  0
 14 15  1  0  0  0  0
 14 12  1  0  0  0  0
 16 14  1  0  0  0  0
 18 19  1  0  0  0  0
 19 20  1  1  0  0  0
 21 31  2  0  0  0  0
 22 30  2  0  0  0  0
 23 29  2  0  0  0  0
 23 24  1  0  0  0  0
 24 25  2  0  0  0  0
 25 28  1  0  0  0  0
 25 21  1  0  0  0  0
 26 19  1  0  0  0  0
 27 28  2  0  0  0  0
 28 22  1  0  0  0  0
 29 27  1  0  0  0  0
 30 26  1  0  0  0  0
 31 30  1  0  0  0  0
 32 23  1  0  0  0  0
 33 32  1  0  0  0  0
 34 32  2  0  0  0  0
M  END
>  <MODEL>
1

>  <REMARK>
 VINA RESULT:      -8.9      0.000      0.000
  Name = 
  7 active torsions:
  status: ('A' for Active; 'I' for Inactive)
    1  A    between atoms: C_1  and  C_9
    2  A    between atoms: O_2  and  C_23
    3  A    between atoms: O_2  and  C_32
    4  A    between atoms: C_3  and  C_23
    5  A    between atoms: C_7  and  C_11
    6  A    between atoms: C_8  and  C_9
    7  A    between atoms: C_8  and  N_18
                            x       y       z     vdW  Elec       q    Type
                         _______ _______ _______ _____ _____    ______ ____

>  <TORSDO>
F 7

$$$$
=
 OpenBabel11062409423D

 34 37  0  0  1  0  0  0  0  0999 V2000
  160.5070  210.2710  153.9220 C   0  0  1  0  0  3  0  0  0  0  0  0
  159.9380  212.5260  155.6410 N   0  0  0  0  0  0  0  0  0  0  0  0
  161.9030  209.6430  155.9470 C   0  0  0  0  0  3  0  0  0  0  0  0
  162.0740  210.2240  157.1980 C   0  0  0  0  0  3  0  0  0  0  0  0
  160.8340  211.4910  156.0370 C   0  0  0  0  0  0  0  0  0  0  0  0
  161.1380  210.4790  155.2250 N   0  0  0  0  0  0  0  0  0  0  0  0
  161.3880  211.3900  157.2550 N   0  0  0  0  0  0  0  0  0  0  0  0
  159.4890  212.5800  154.4170 C   0  0  0  0  0  0  0  0  0  0  0  0
  158.9610  211.3500  152.4360 O   0  0  0  0  0  1  0  0  0  0  0  0
  159.9760  211.6050  153.3570 C   0  0  2  0  0  3  0  0  0  0  0  0
  158.6000  213.5890  154.0370 O   0  0  0  0  0  0  0  0  0  0  0  0
  157.2090  213.3570  153.8270 C   0  0  2  0  0  3  0  0  0  0  0  0
  156.6950  214.2570  152.7120 C   0  0  0  0  0  1  0  0  0  0  0  0
  156.4390  213.6010  155.1210 C   0  0  0  0  0  0  0  0  0  0  0  0
  157.1650  214.4530  155.9330 F   0  0  0  0  0  0  0  0  0  0  0  0
  156.2470  212.4060  155.7890 F   0  0  0  0  0  0  0  0  0  0  0  0
  155.2090  214.1760  154.8480 F   0  0  0  0  0  0  0  0  0  0  0  0
  161.4870  209.6620  152.9230 C   0  0  0  0  0  2  0  0  0  0  0  0
  160.9000  208.4250  152.2680 C   0  0  2  0  0  3  0  0  0  0  0  0
  161.4890  207.1890  152.9190 C   0  0  0  0  0  1  0  0  0  0  0  0
  161.6140  206.1400  147.9400 C   0  0  0  0  0  3  0  0  0  0  0  0
  160.9630  206.0220  150.6290 N   0  0  0  0  0  0  0  0  0  0  0  0
  161.0510  202.5050  148.3940 C   0  0  0  0  0  0  0  0  0  0  0  0
  161.3490  203.7330  147.7850 C   0  0  0  0  0  3  0  0  0  0  0  0
  161.3200  204.9120  148.5330 C   0  0  0  0  0  0  0  0  0  0  0  0
  161.2090  208.4260  150.8440 N   0  0  0  0  0  2  0  0  0  0  0  0
  160.6930  203.6500  150.5110 C   0  0  0  0  0  3  0  0  0  0  0  0
  160.9900  204.8720  149.9040 C   0  0  0  0  0  0  0  0  0  0  0  0
  160.7220  202.4720  149.7590 C   0  0  0  0  0  3  0  0  0  0  0  0
  161.2490  207.2290  150.0640 C   0  0  0  0  0  0  0  0  0  0  0  0
  161.5790  207.3060  148.7070 C   0  0  0  0  0  3  0  0  0  0  0  0
  161.0820  201.2640  147.6040 C   0  0  0  0  0  0  0  0  0  0  0  0
  161.3960  200.1700  148.1440 O   0  0  0  0  0  1  0  0  0  0  0  0
  160.7650  201.2880  146.2500 O   0  0  0  0  0  0  0  0  0  0  0  0
  1 18  1  6  0  0  0
  1  6  1  0  0  0  0
  2  5  1  0  0  0  0
  3  4  2  0  0  0  0
  4  7  1  0  0  0  0
  5  7  2  0  0  0  0
  6  3  1  0  0  0  0
  6  5  1  0  0  0  0
  8  2  2  0  0  0  0
 10  9  1  6  0  0  0
 10  1  1  0  0  0  0
 10  8  1  0  0  0  0
 11  8  1  0  0  0  0
 12 13  1  6  0  0  0
 12 11  1  0  0  0  0
 12 14  1  0  0  0  0
 14 16  1  0  0  0  0
 14 15  1  0  0  0  0
 17 14  1  0  0  0  0
 19 20  1  1  0  0  0
 19 18  1  0  0  0  0
 21 25  1  0  0  0  0
 21 31  2  0  0  0  0
 23 29  1  0  0  0  0
 24 23  2  0  0  0  0
 24 25  1  0  0  0  0
 25 28  2  0  0  0  0
 26 19  1  0  0  0  0
 28 27  1  0  0  0  0
 28 22  1  0  0  0  0
 29 27  2  0  0  0  0
 30 22  2  0  0  0  0
 30 26  1  0  0  0  0
 31 30  1  0  0  0  0
 32 33  1  0  0  0  0
 32 23  1  0  0  0  0
 34 32  2  0  0  0  0
M  END
>  <MODEL>
2

>  <REMARK>
 VINA RESULT:      -8.7      4.045      5.156
  Name = 
  7 active torsions:
  status: ('A' for Active; 'I' for Inactive)
    1  A    between atoms: C_1  and  C_9
    2  A    between atoms: O_2  and  C_23
    3  A    between atoms: O_2  and  C_32
    4  A    between atoms: C_3  and  C_23
    5  A    between atoms: C_7  and  C_11
    6  A    between atoms: C_8  and  C_9
    7  A    between atoms: C_8  and  N_18
                            x       y       z     vdW  Elec       q    Type
                         _______ _______ _______ _____ _____    ______ ____

>  <TORSDO>
F 7

$$$$
=
 OpenBabel11062409423D

 34 37  0  0  1  0  0  0  0  0999 V2000
  161.3510  204.7360  150.5640 C   0  0  1  0  0  3  0  0  0  0  0  0
  161.1550  203.3190  148.0500 N   0  0  0  0  0  0  0  0  0  0  0  0
  161.0490  202.3650  151.4190 C   0  0  0  0  0  3  0  0  0  0  0  0
  160.9510  201.1330  150.7820 C   0  0  0  0  0  3  0  0  0  0  0  0
  161.0360  202.6450  149.3000 C   0  0  0  0  0  0  0  0  0  0  0  0
  161.0730  203.3040  150.4590 N   0  0  0  0  0  0  0  0  0  0  0  0
  160.9510  201.3130  149.4410 N   0  0  0  0  0  0  0  0  0  0  0  0
  161.1730  204.6230  148.0020 C   0  0  0  0  0  0  0  0  0  0  0  0
  161.6950  206.6500  149.1570 O   0  0  0  0  0  1  0  0  0  0  0  0
  160.9750  205.4600  149.2550 C   0  0  2  0  0  3  0  0  0  0  0  0
  161.3030  205.2800  146.7740 O   0  0  0  0  0  0  0  0  0  0  0  0
  161.6730  204.6080  145.5730 C   0  0  2  0  0  3  0  0  0  0  0  0
  163.1360  204.8800  145.2550 C   0  0  0  0  0  1  0  0  0  0  0  0
  160.7750  205.0610  144.4260 C   0  0  0  0  0  0  0  0  0  0  0  0
  160.0400  206.1620  144.8250 F   0  0  0  0  0  0  0  0  0  0  0  0
  159.9020  204.0450  144.0800 F   0  0  0  0  0  0  0  0  0  0  0  0
  161.5380  205.4040  143.3230 F   0  0  0  0  0  0  0  0  0  0  0  0
  160.5810  205.3650  151.7210 C   0  0  0  0  0  2  0  0  0  0  0  0
  161.4690  206.2970  152.5260 C   0  0  2  0  0  3  0  0  0  0  0  0
  162.9110  205.8470  152.3960 C   0  0  0  0  0  1  0  0  0  0  0  0
  160.0370  208.5100  156.7110 C   0  0  0  0  0  3  0  0  0  0  0  0
  160.7290  208.6710  154.0340 N   0  0  0  0  0  0  0  0  0  0  0  0
  159.7190  212.1510  156.0960 C   0  0  0  0  0  0  0  0  0  0  0  0
  159.7070  210.9130  156.7560 C   0  0  0  0  0  3  0  0  0  0  0  0
  160.0450  209.7470  156.0660 C   0  0  0  0  0  0  0  0  0  0  0  0
  161.0710  206.2730  153.9270 N   0  0  0  0  0  2  0  0  0  0  0  0
  160.4120  211.0410  154.0440 C   0  0  0  0  0  3  0  0  0  0  0  0
  160.4000  209.8090  154.7020 C   0  0  0  0  0  0  0  0  0  0  0  0
  160.0720  212.2060  154.7380 C   0  0  0  0  0  3  0  0  0  0  0  0
  160.7270  207.4560  154.6510 C   0  0  0  0  0  0  0  0  0  0  0  0
  160.3790  207.3570  156.0020 C   0  0  0  0  0  3  0  0  0  0  0  0
  159.3620  213.3780  156.8250 C   0  0  0  0  0  0  0  0  0  0  0  0
  158.1550  213.6520  157.0610 O   0  0  0  0  0  0  0  0  0  0  0  0
  160.3550  214.2480  157.2600 O   0  0  0  0  0  1  0  0  0  0  0  0
  1 18  1  1  0  0  0
  2  5  1  0  0  0  0
  4  3  2  0  0  0  0
  5  7  2  0  0  0  0
  5  6  1  0  0  0  0
  6  1  1  0  0  0  0
  6  3  1  0  0  0  0
  7  4  1  0  0  0  0
  8  2  2  0  0  0  0
  8 10  1  0  0  0  0
 10  9  1  6  0  0  0
 10  1  1  0  0  0  0
 11  8  1  0  0  0  0
 12 13  1  6  0  0  0
 12 11  1  0  0  0  0
 14 15  1  0  0  0  0
 14 12  1  0  0  0  0
 16 14  1  0  0  0  0
 17 14  1  0  0  0  0
 18 19  1  0  0  0  0
 19 20  1  1  0  0  0
 19 26  1  0  0  0  0
 22 30  2  0  0  0  0
 22 28  1  0  0  0  0
 23 24  1  0  0  0  0
 23 32  1  0  0  0  0
 25 21  1  0  0  0  0
 25 24  2  0  0  0  0
 26 30  1  0  0  0  0
 27 28  2  0  0  0  0
 27 29  1  0  0  0  0
 28 25  1  0  0  0  0
 29 23  2  0  0  0  0
 30 31  1  0  0  0  0
 31 21  2  0  0  0  0
 32 33  2  0  0  0  0
 32 34  1  0  0  0  0
M  END
>  <MODEL>
3

>  <REMARK>
 VINA RESULT:      -8.6      3.837      8.742
  Name = 
  7 active torsions:
  status: ('A' for Active; 'I' for Inactive)
    1  A    between atoms: C_1  and  C_9
    2  A    between atoms: O_2  and  C_23
    3  A    between atoms: O_2  and  C_32
    4  A    between atoms: C_3  and  C_23
    5  A    between atoms: C_7  and  C_11
    6  A    between atoms: C_8  and  C_9
    7  A    between atoms: C_8  and  N_18
                            x       y       z     vdW  Elec       q    Type
                         _______ _______ _______ _____ _____    ______ ____

>  <TORSDO>
F 7

$$$$
=
 OpenBabel11062409423D

 34 37  0  0  1  0  0  0  0  0999 V2000
  160.0420  211.6130  152.8510 C   0  0  1  0  0  3  0  0  0  0  0  0
  158.2540  213.8610  153.1940 N   0  0  0  0  0  0  0  0  0  0  0  0
  160.2650  212.7030  150.5690 C   0  0  0  0  0  3  0  0  0  0  0  0
  159.7450  213.8700  150.0210 C   0  0  0  0  0  3  0  0  0  0  0  0
  158.9270  213.6210  151.9600 C   0  0  0  0  0  0  0  0  0  0  0  0
  159.7100  212.5570  151.7840 N   0  0  0  0  0  0  0  0  0  0  0  0
  158.9040  214.4530  150.9070 N   0  0  0  0  0  0  0  0  0  0  0  0
  158.2830  212.9690  154.1460 C   0  0  0  0  0  0  0  0  0  0  0  0
  159.4880  211.1600  155.1430 O   0  0  0  0  0  1  0  0  0  0  0  0
  158.9500  211.6190  153.9400 C   0  0  2  0  0  3  0  0  0  0  0  0
  157.6330  213.2150  155.3590 O   0  0  0  0  0  0  0  0  0  0  0  0
  156.2310  213.0270  155.5370 C   0  0  2  0  0  3  0  0  0  0  0  0
  155.6360  214.2240  156.2660 C   0  0  0  0  0  1  0  0  0  0  0  0
  155.9710  211.7380  156.3090 C   0  0  0  0  0  0  0  0  0  0  0  0
  155.8040  210.6940  155.4170 F   0  0  0  0  0  0  0  0  0  0  0  0
  154.8220  211.8650  157.0670 F   0  0  0  0  0  0  0  0  0  0  0  0
  157.0390  211.4520  157.1430 F   0  0  0  0  0  0  0  0  0  0  0  0
  160.1970  210.1960  152.3080 C   0  0  0  0  0  2  0  0  0  0  0  0
  161.5880  209.6540  152.5850 C   0  0  2  0  0  3  0  0  0  0  0  0
  162.3200  209.4650  151.2710 C   0  0  0  0  0  1  0  0  0  0  0  0
  161.1050  204.7330  152.6700 C   0  0  0  0  0  3  0  0  0  0  0  0
  161.3300  207.0900  151.2350 N   0  0  0  0  0  0  0  0  0  0  0  0
  160.9330  203.4830  149.1850 C   0  0  0  0  0  0  0  0  0  0  0  0
  160.9510  203.4970  150.5880 C   0  0  0  0  0  3  0  0  0  0  0  0
  161.0840  204.7050  151.2750 C   0  0  0  0  0  0  0  0  0  0  0  0
  161.4930  208.3790  153.2830 N   0  0  0  0  0  2  0  0  0  0  0  0
  161.1830  205.9030  149.1650 C   0  0  0  0  0  3  0  0  0  0  0  0
  161.2010  205.9160  150.5620 C   0  0  0  0  0  0  0  0  0  0  0  0
  161.0500  204.6910  148.4810 C   0  0  0  0  0  3  0  0  0  0  0  0
  161.3500  207.1340  152.5970 C   0  0  0  0  0  0  0  0  0  0  0  0
  161.2380  205.9520  153.3370 C   0  0  0  0  0  3  0  0  0  0  0  0
  160.7930  202.2090  148.4630 C   0  0  0  0  0  0  0  0  0  0  0  0
  161.0100  202.1490  147.2240 O   0  0  0  0  0  0  0  0  0  0  0  0
  160.4190  201.0550  149.1440 O   0  0  0  0  0  1  0  0  0  0  0  0
  1 18  1  6  0  0  0
  1 10  1  0  0  0  0
  2  8  2  0  0  0  0
  3  6  1  0  0  0  0
  4  3  2  0  0  0  0
  4  7  1  0  0  0  0
  5  2  1  0  0  0  0
  6  5  1  0  0  0  0
  6  1  1  0  0  0  0
  7  5  2  0  0  0  0
  8 11  1  0  0  0  0
 10  8  1  0  0  0  0
 10  9  1  1  0  0  0
 11 12  1  0  0  0  0
 12 13  1  1  0  0  0
 12 14  1  0  0  0  0
 14 16  1  0  0  0  0
 14 17  1  0  0  0  0
 15 14  1  0  0  0  0
 18 19  1  0  0  0  0
 19 20  1  6  0  0  0
 19 26  1  0  0  0  0
 21 31  2  0  0  0  0
 22 30  2  0  0  0  0
 23 24  1  0  0  0  0
 24 25  2  0  0  0  0
 25 21  1  0  0  0  0
 27 28  2  0  0  0  0
 28 22  1  0  0  0  0
 28 25  1  0  0  0  0
 29 27  1  0  0  0  0
 29 23  2  0  0  0  0
 30 26  1  0  0  0  0
 30 31  1  0  0  0  0
 32 34  1  0  0  0  0
 32 23  1  0  0  0  0
 33 32  2  0  0  0  0
M  END
>  <MODEL>
4

>  <REMARK>
 VINA RESULT:      -8.6      4.364      5.809
  Name = 
  7 active torsions:
  status: ('A' for Active; 'I' for Inactive)
    1  A    between atoms: C_1  and  C_9
    2  A    between atoms: O_2  and  C_23
    3  A    between atoms: O_2  and  C_32
    4  A    between atoms: C_3  and  C_23
    5  A    between atoms: C_7  and  C_11
    6  A    between atoms: C_8  and  C_9
    7  A    between atoms: C_8  and  N_18
                            x       y       z     vdW  Elec       q    Type
                         _______ _______ _______ _____ _____    ______ ____

>  <TORSDO>
F 7

$$$$
=
 OpenBabel11062409423D

 34 37  0  0  1  0  0  0  0  0999 V2000
  160.5830  208.9490  153.4470 C   0  0  1  0  0  3  0  0  0  0  0  0
  159.8590  210.7170  155.6180 N   0  0  0  0  0  0  0  0  0  0  0  0
  160.7100  207.3260  155.3960 C   0  0  0  0  0  3  0  0  0  0  0  0
  160.4290  207.4500  156.7510 C   0  0  0  0  0  3  0  0  0  0  0  0
  160.1980  209.3520  155.8470 C   0  0  0  0  0  0  0  0  0  0  0  0
  160.5830  208.5490  154.8550 N   0  0  0  0  0  0  0  0  0  0  0  0
  160.0970  208.7320  157.0330 N   0  0  0  0  0  0  0  0  0  0  0  0
  160.0430  211.2560  154.4440 C   0  0  0  0  0  0  0  0  0  0  0  0
  160.1920  210.8870  152.0860 O   0  0  0  0  0  1  0  0  0  0  0  0
  160.7060  210.4810  153.3180 C   0  0  2  0  0  3  0  0  0  0  0  0
  159.6960  212.5920  154.2210 O   0  0  0  0  0  0  0  0  0  0  0  0
  158.3460  213.0290  154.0860 C   0  0  2  0  0  3  0  0  0  0  0  0
  157.3970  211.8710  154.3570 C   0  0  0  0  0  1  0  0  0  0  0  0
  158.1210  213.6000  152.6890 C   0  0  0  0  0  0  0  0  0  0  0  0
  157.8890  212.5650  151.8020 F   0  0  0  0  0  0  0  0  0  0  0  0
  159.2440  214.2950  152.2770 F   0  0  0  0  0  0  0  0  0  0  0  0
  157.0290  214.4510  152.6870 F   0  0  0  0  0  0  0  0  0  0  0  0
  161.7300  208.2900  152.6850 C   0  0  0  0  0  2  0  0  0  0  0  0
  161.2410  207.0910  151.8930 C   0  0  2  0  0  3  0  0  0  0  0  0
  162.0140  205.8600  152.3250 C   0  0  0  0  0  1  0  0  0  0  0  0
  161.5520  205.5490  147.2040 C   0  0  0  0  0  3  0  0  0  0  0  0
  161.1020  204.9960  149.8800 N   0  0  0  0  0  0  0  0  0  0  0  0
  160.9070  201.9010  147.0950 C   0  0  0  0  0  0  0  0  0  0  0  0
  161.1980  203.2070  146.6750 C   0  0  0  0  0  3  0  0  0  0  0  0
  161.2640  204.2450  147.6080 C   0  0  0  0  0  0  0  0  0  0  0  0
  161.4410  207.3240  150.4690 N   0  0  0  0  0  2  0  0  0  0  0  0
  160.7460  202.6820  149.3930 C   0  0  0  0  0  3  0  0  0  0  0  0
  161.0370  203.9830  148.9750 C   0  0  0  0  0  0  0  0  0  0  0  0
  160.6810  201.6460  148.4570 C   0  0  0  0  0  3  0  0  0  0  0  0
  161.3840  206.2740  149.5010 C   0  0  0  0  0  0  0  0  0  0  0  0
  161.6130  206.5700  148.1540 C   0  0  0  0  0  3  0  0  0  0  0  0
  160.8380  200.8100  146.1100 C   0  0  0  0  0  0  0  0  0  0  0  0
  161.4600  199.7320  146.3060 O   0  0  0  0  0  1  0  0  0  0  0  0
  160.0830  200.9580  144.9520 O   0  0  0  0  0  0  0  0  0  0  0  0
  1 18  1  6  0  0  0
  1  6  1  0  0  0  0
  2  5  1  0  0  0  0
  3  4  2  0  0  0  0
  4  7  1  0  0  0  0
  5  7  2  0  0  0  0
  6  3  1  0  0  0  0
  6  5  1  0  0  0  0
  8  2  2  0  0  0  0
 10  9  1  6  0  0  0
 10  1  1  0  0  0  0
 10  8  1  0  0  0  0
 11  8  1  0  0  0  0
 12 11  1  0  0  0  0
 12 13  1  6  0  0  0
 14 12  1  0  0  0  0
 15 14  1  0  0  0  0
 16 14  1  0  0  0  0
 17 14  1  0  0  0  0
 19 20  1  1  0  0  0
 19 18  1  0  0  0  0
 21 25  1  0  0  0  0
 21 31  2  0  0  0  0
 23 29  1  0  0  0  0
 24 23  2  0  0  0  0
 24 25  1  0  0  0  0
 25 28  2  0  0  0  0
 26 19  1  0  0  0  0
 28 27  1  0  0  0  0
 28 22  1  0  0  0  0
 29 27  2  0  0  0  0
 30 22  2  0  0  0  0
 30 26  1  0  0  0  0
 31 30  1  0  0  0  0
 32 33  1  0  0  0  0
 32 23  1  0  0  0  0
 34 32  2  0  0  0  0
M  END
>  <MODEL>
5

>  <REMARK>
 VINA RESULT:      -8.4      3.250      4.392
  Name = 
  7 active torsions:
  status: ('A' for Active; 'I' for Inactive)
    1  A    between atoms: C_1  and  C_9
    2  A    between atoms: O_2  and  C_23
    3  A    between atoms: O_2  and  C_32
    4  A    between atoms: C_3  and  C_23
    5  A    between atoms: C_7  and  C_11
    6  A    between atoms: C_8  and  C_9
    7  A    between atoms: C_8  and  N_18
                            x       y       z     vdW  Elec       q    Type
                         _______ _______ _______ _____ _____    ______ ____

>  <TORSDO>
F 7

$$$$
=
 OpenBabel11062409423D

 34 37  0  0  1  0  0  0  0  0999 V2000
  160.5500  209.6160  153.6990 C   0  0  1  0  0  3  0  0  0  0  0  0
  158.9490  210.5330  155.9270 N   0  0  0  0  0  0  0  0  0  0  0  0
  161.6080  208.2790  155.5790 C   0  0  0  0  0  3  0  0  0  0  0  0
  161.3170  208.1520  156.9320 C   0  0  0  0  0  3  0  0  0  0  0  0
  160.0190  209.6080  156.1050 C   0  0  0  0  0  0  0  0  0  0  0  0
  160.7910  209.2250  155.0880 N   0  0  0  0  0  0  0  0  0  0  0  0
  160.3050  208.9890  157.2610 N   0  0  0  0  0  0  0  0  0  0  0  0
  158.7780  211.1330  154.7810 C   0  0  0  0  0  0  0  0  0  0  0  0
  159.0960  211.0300  152.4130 O   0  0  0  0  0  1  0  0  0  0  0  0
  159.7600  210.9400  153.6370 C   0  0  2  0  0  3  0  0  0  0  0  0
  157.7180  212.0290  154.6070 O   0  0  0  0  0  0  0  0  0  0  0  0
  156.5780  212.0530  155.4610 C   0  0  2  0  0  3  0  0  0  0  0  0
  155.5680  211.0070  155.0090 C   0  0  0  0  0  1  0  0  0  0  0  0
  155.9550  213.4460  155.4590 C   0  0  0  0  0  0  0  0  0  0  0  0
  155.6770  213.8220  154.1580 F   0  0  0  0  0  0  0  0  0  0  0  0
  156.8370  214.3580  156.0070 F   0  0  0  0  0  0  0  0  0  0  0  0
  154.7790  213.4490  156.1910 F   0  0  0  0  0  0  0  0  0  0  0  0
  161.8600  209.7810  152.9350 C   0  0  0  0  0  2  0  0  0  0  0  0
  162.0440  208.6680  151.9190 C   0  0  2  0  0  3  0  0  0  0  0  0
  161.1550  208.9360  150.7200 C   0  0  0  0  0  1  0  0  0  0  0  0
  160.9400  203.8560  151.6340 C   0  0  0  0  0  3  0  0  0  0  0  0
  161.6630  206.2220  150.3910 N   0  0  0  0  0  0  0  0  0  0  0  0
  161.1140  202.7920  148.0880 C   0  0  0  0  0  0  0  0  0  0  0  0
  160.9330  202.7420  149.4780 C   0  0  0  0  0  3  0  0  0  0  0  0
  161.1160  203.8910  150.2510 C   0  0  0  0  0  0  0  0  0  0  0  0
  161.6900  207.3880  152.5180 N   0  0  0  0  0  2  0  0  0  0  0  0
  161.6660  205.1560  148.2510 C   0  0  0  0  0  3  0  0  0  0  0  0
  161.4850  205.1060  149.6350 C   0  0  0  0  0  0  0  0  0  0  0  0
  161.4820  204.0030  147.4820 C   0  0  0  0  0  3  0  0  0  0  0  0
  161.4920  206.2040  151.7430 C   0  0  0  0  0  0  0  0  0  0  0  0
  161.1280  205.0170  152.3860 C   0  0  0  0  0  3  0  0  0  0  0  0
  160.9210  201.5800  147.2770 C   0  0  0  0  0  0  0  0  0  0  0  0
  161.0750  200.4380  147.7870 O   0  0  0  0  0  1  0  0  0  0  0  0
  160.5650  201.6830  145.9370 O   0  0  0  0  0  0  0  0  0  0  0  0
  1 18  1  6  0  0  0
  1  6  1  0  0  0  0
  2  5  1  0  0  0  0
  3  4  2  0  0  0  0
  4  7  1  0  0  0  0
  5  7  2  0  0  0  0
  6  3  1  0  0  0  0
  6  5  1  0  0  0  0
  8  2  2  0  0  0  0
 10  9  1  6  0  0  0
 10  1  1  0  0  0  0
 10  8  1  0  0  0  0
 11  8  1  0  0  0  0
 11 12  1  0  0  0  0
 12 13  1  6  0  0  0
 14 12  1  0  0  0  0
 14 16  1  0  0  0  0
 14 17  1  0  0  0  0
 15 14  1  0  0  0  0
 19 20  1  6  0  0  0
 19 26  1  0  0  0  0
 19 18  1  0  0  0  0
 21 31  2  0  0  0  0
 22 30  2  0  0  0  0
 23 24  1  0  0  0  0
 24 25  2  0  0  0  0
 25 21  1  0  0  0  0
 27 28  2  0  0  0  0
 28 25  1  0  0  0  0
 28 22  1  0  0  0  0
 29 23  2  0  0  0  0
 29 27  1  0  0  0  0
 30 31  1  0  0  0  0
 30 26  1  0  0  0  0
 32 33  1  0  0  0  0
 32 23  1  0  0  0  0
 34 32  2  0  0  0  0
M  END
>  <MODEL>
6

>  <REMARK>
 VINA RESULT:      -8.3      3.954      5.337
  Name = 
  7 active torsions:
  status: ('A' for Active; 'I' for Inactive)
    1  A    between atoms: C_1  and  C_9
    2  A    between atoms: O_2  and  C_23
    3  A    between atoms: O_2  and  C_32
    4  A    between atoms: C_3  and  C_23
    5  A    between atoms: C_7  and  C_11
    6  A    between atoms: C_8  and  C_9
    7  A    between atoms: C_8  and  N_18
                            x       y       z     vdW  Elec       q    Type
                         _______ _______ _______ _____ _____    ______ ____

>  <TORSDO>
F 7

$$$$
=
 OpenBabel11062409423D

 34 37  0  0  1  0  0  0  0  0999 V2000
  160.6880  211.3530  153.6370 C   0  0  1  0  0  3  0  0  0  0  0  0
  157.9460  212.2670  153.7450 N   0  0  0  0  0  0  0  0  0  0  0  0
  160.4960  212.4380  151.3500 C   0  0  0  0  0  3  0  0  0  0  0  0
  159.4810  213.1480  150.7200 C   0  0  0  0  0  3  0  0  0  0  0  0
  158.7520  212.4560  152.5850 C   0  0  0  0  0  0  0  0  0  0  0  0
  159.9990  211.9890  152.5140 N   0  0  0  0  0  0  0  0  0  0  0  0
  158.3800  213.1650  151.5080 N   0  0  0  0  0  0  0  0  0  0  0  0
  158.3640  211.5130  154.7250 C   0  0  0  0  0  0  0  0  0  0  0  0
  160.2570  210.6240  155.8830 O   0  0  0  0  0  1  0  0  0  0  0  0
  159.6710  210.7440  154.6230 C   0  0  2  0  0  3  0  0  0  0  0  0
  157.5750  211.3420  155.8660 O   0  0  0  0  0  0  0  0  0  0  0  0
  156.1710  211.5880  155.8810 C   0  0  2  0  0  3  0  0  0  0  0  0
  155.7450  212.0810  157.2570 C   0  0  0  0  0  1  0  0  0  0  0  0
  155.4160  210.3190  155.5010 C   0  0  0  0  0  0  0  0  0  0  0  0
  156.3010  209.2590  155.4360 F   0  0  0  0  0  0  0  0  0  0  0  0
  154.8200  210.4770  154.2630 F   0  0  0  0  0  0  0  0  0  0  0  0
  154.4420  210.0370  156.4440 F   0  0  0  0  0  0  0  0  0  0  0  0
  161.6340  210.2570  153.1560 C   0  0  0  0  0  2  0  0  0  0  0  0
  160.8670  209.1160  152.5120 C   0  0  2  0  0  3  0  0  0  0  0  0
  161.2270  207.8190  153.2080 C   0  0  0  0  0  1  0  0  0  0  0  0
  161.5760  206.5740  148.3300 C   0  0  0  0  0  3  0  0  0  0  0  0
  160.8630  206.6280  151.0060 N   0  0  0  0  0  0  0  0  0  0  0  0
  160.8520  202.9950  148.9630 C   0  0  0  0  0  0  0  0  0  0  0  0
  161.2140  204.1750  148.2970 C   0  0  0  0  0  3  0  0  0  0  0  0
  161.2180  205.3930  148.9810 C   0  0  0  0  0  0  0  0  0  0  0  0
  161.2050  209.0280  151.0990 N   0  0  0  0  0  2  0  0  0  0  0  0
  160.4970  204.2660  151.0080 C   0  0  0  0  0  3  0  0  0  0  0  0
  160.8580  205.4410  150.3440 C   0  0  0  0  0  0  0  0  0  0  0  0
  160.4930  203.0490  150.3200 C   0  0  0  0  0  3  0  0  0  0  0  0
  161.2120  207.7900  150.3840 C   0  0  0  0  0  0  0  0  0  0  0  0
  161.5730  207.7800  149.0330 C   0  0  0  0  0  3  0  0  0  0  0  0
  160.8480  201.7130  148.2410 C   0  0  0  0  0  0  0  0  0  0  0  0
  161.1040  200.6380  148.8460 O   0  0  0  0  0  1  0  0  0  0  0  0
  160.5600  201.6770  146.8810 O   0  0  0  0  0  0  0  0  0  0  0  0
  1 18  1  6  0  0  0
  1 10  1  0  0  0  0
  2  8  2  0  0  0  0
  3  6  1  0  0  0  0
  4  3  2  0  0  0  0
  4  7  1  0  0  0  0
  5  2  1  0  0  0  0
  6  5  1  0  0  0  0
  6  1  1  0  0  0  0
  7  5  2  0  0  0  0
  8 11  1  0  0  0  0
 10  8  1  0  0  0  0
 10  9  1  1  0  0  0
 11 12  1  0  0  0  0
 12 13  1  1  0  0  0
 14 12  1  0  0  0  0
 14 17  1  0  0  0  0
 15 14  1  0  0  0  0
 16 14  1  0  0  0  0
 19 18  1  0  0  0  0
 19 20  1  1  0  0  0
 21 25  1  0  0  0  0
 21 31  2  0  0  0  0
 23 29  1  0  0  0  0
 24 23  2  0  0  0  0
 24 25  1  0  0  0  0
 25 28  2  0  0  0  0
 26 19  1  0  0  0  0
 28 22  1  0  0  0  0
 28 27  1  0  0  0  0
 29 27  2  0  0  0  0
 30 22  2  0  0  0  0
 30 26  1  0  0  0  0
 31 30  1  0  0  0  0
 32 33  1  0  0  0  0
 32 23  1  0  0  0  0
 34 32  2  0  0  0  0
M  END
>  <MODEL>
7

>  <REMARK>
 VINA RESULT:      -8.2      4.358      5.823
  Name = 
  7 active torsions:
  status: ('A' for Active; 'I' for Inactive)
    1  A    between atoms: C_1  and  C_9
    2  A    between atoms: O_2  and  C_23
    3  A    between atoms: O_2  and  C_32
    4  A    between atoms: C_3  and  C_23
    5  A    between atoms: C_7  and  C_11
    6  A    between atoms: C_8  and  C_9
    7  A    between atoms: C_8  and  N_18
                            x       y       z     vdW  Elec       q    Type
                         _______ _______ _______ _____ _____    ______ ____

>  <TORSDO>
F 7

$$$$
=
 OpenBabel11062409423D

 34 37  0  0  1  0  0  0  0  0999 V2000
  161.3470  205.8700  150.1010 C   0  0  1  0  0  3  0  0  0  0  0  0
  161.4370  203.2630  148.8510 N   0  0  0  0  0  0  0  0  0  0  0  0
  160.8830  204.3990  152.1180 C   0  0  0  0  0  3  0  0  0  0  0  0
  160.8370  203.0210  152.2960 C   0  0  0  0  0  3  0  0  0  0  0  0
  161.1450  203.4180  150.2370 C   0  0  0  0  0  0  0  0  0  0  0  0
  161.0500  204.6210  150.8040 N   0  0  0  0  0  0  0  0  0  0  0  0
  161.0120  202.4020  151.1050 N   0  0  0  0  0  0  0  0  0  0  0  0
  161.4920  204.3040  148.0670 C   0  0  0  0  0  0  0  0  0  0  0  0
  161.9120  206.6530  147.9030 O   0  0  0  0  0  1  0  0  0  0  0  0
  161.1570  205.6950  148.5800 C   0  0  2  0  0  3  0  0  0  0  0  0
  161.7930  204.1480  146.7100 O   0  0  0  0  0  0  0  0  0  0  0  0
  160.8300  204.3400  145.6770 C   0  0  2  0  0  3  0  0  0  0  0  0
  160.6530  203.0510  144.8880 C   0  0  0  0  0  1  0  0  0  0  0  0
  161.2670  205.4800  144.7630 C   0  0  0  0  0  0  0  0  0  0  0  0
  161.2000  205.0640  143.4460 F   0  0  0  0  0  0  0  0  0  0  0  0
  162.5710  205.8420  145.0500 F   0  0  0  0  0  0  0  0  0  0  0  0
  160.4400  206.5780  144.9330 F   0  0  0  0  0  0  0  0  0  0  0  0
  160.4510  207.0050  150.5880 C   0  0  0  0  0  2  0  0  0  0  0  0
  161.2680  208.1010  151.2480 C   0  0  2  0  0  3  0  0  0  0  0  0
  162.7110  207.9850  150.7980 C   0  0  0  0  0  1  0  0  0  0  0  0
  159.8600  209.6820  155.7180 C   0  0  0  0  0  3  0  0  0  0  0  0
  159.8960  210.0050  152.9670 N   0  0  0  0  0  0  0  0  0  0  0  0
  157.9240  212.8190  155.3260 C   0  0  0  0  0  0  0  0  0  0  0  0
  158.5620  211.7220  155.9250 C   0  0  0  0  0  3  0  0  0  0  0  0
  159.2230  210.7780  155.1350 C   0  0  0  0  0  0  0  0  0  0  0  0
  161.1920  207.9720  152.6970 N   0  0  0  0  0  2  0  0  0  0  0  0
  158.6170  212.0170  153.1360 C   0  0  0  0  0  3  0  0  0  0  0  0
  159.2510  210.9250  153.7320 C   0  0  0  0  0  0  0  0  0  0  0  0
  157.9560  212.9590  153.9300 C   0  0  0  0  0  3  0  0  0  0  0  0
  160.5250  208.9300  153.5210 C   0  0  0  0  0  0  0  0  0  0  0  0
  160.5150  208.7520  154.9080 C   0  0  0  0  0  3  0  0  0  0  0  0
  157.2280  213.8110  156.1610 C   0  0  0  0  0  0  0  0  0  0  0  0
  157.8520  214.4450  157.0530 O   0  0  0  0  0  1  0  0  0  0  0  0
  155.8730  214.0580  155.9710 O   0  0  0  0  0  0  0  0  0  0  0  0
  1 18  1  1  0  0  0
  1  6  1  0  0  0  0
  2  5  1  0  0  0  0
  3  4  2  0  0  0  0
  5  6  1  0  0  0  0
  5  7  2  0  0  0  0
  6  3  1  0  0  0  0
  7  4  1  0  0  0  0
  8 10  1  0  0  0  0
  8  2  2  0  0  0  0
 10  9  1  6  0  0  0
 10  1  1  0  0  0  0
 11  8  1  0  0  0  0
 12 13  1  6  0  0  0
 12 11  1  0  0  0  0
 14 17  1  0  0  0  0
 14 16  1  0  0  0  0
 14 12  1  0  0  0  0
 15 14  1  0  0  0  0
 18 19  1  0  0  0  0
 19 20  1  6  0  0  0
 19 26  1  0  0  0  0
 22 30  2  0  0  0  0
 22 28  1  0  0  0  0
 23 24  1  0  0  0  0
 23 32  1  0  0  0  0
 25 21  1  0  0  0  0
 25 24  2  0  0  0  0
 26 30  1  0  0  0  0
 27 28  2  0  0  0  0
 27 29  1  0  0  0  0
 28 25  1  0  0  0  0
 29 23  2  0  0  0  0
 30 31  1  0  0  0  0
 31 21  2  0  0  0  0
 32 33  1  0  0  0  0
 34 32  2  0  0  0  0
M  END
>  <MODEL>
8

>  <REMARK>
 VINA RESULT:      -8.2      3.678      8.633
  Name = 
  7 active torsions:
  status: ('A' for Active; 'I' for Inactive)
    1  A    between atoms: C_1  and  C_9
    2  A    between atoms: O_2  and  C_23
    3  A    between atoms: O_2  and  C_32
    4  A    between atoms: C_3  and  C_23
    5  A    between atoms: C_7  and  C_11
    6  A    between atoms: C_8  and  C_9
    7  A    between atoms: C_8  and  N_18
                            x       y       z     vdW  Elec       q    Type
                         _______ _______ _______ _____ _____    ______ ____

>  <TORSDO>
F 7

$$$$
=
 OpenBabel11062409423D

 34 37  0  0  1  0  0  0  0  0999 V2000
  161.3810  205.4050  150.6550 C   0  0  1  0  0  3  0  0  0  0  0  0
  161.2750  203.6160  148.3840 N   0  0  0  0  0  0  0  0  0  0  0  0
  161.0430  203.1920  151.8530 C   0  0  0  0  0  3  0  0  0  0  0  0
  160.9660  201.8770  151.4110 C   0  0  0  0  0  3  0  0  0  0  0  0
  161.1080  203.1420  149.7180 C   0  0  0  0  0  0  0  0  0  0  0  0
  161.1040  203.9720  150.7610 N   0  0  0  0  0  0  0  0  0  0  0  0
  161.0160  201.8480  150.0590 N   0  0  0  0  0  0  0  0  0  0  0  0
  161.2980  204.8970  148.1360 C   0  0  0  0  0  0  0  0  0  0  0  0
  161.7810  207.0800  148.9830 O   0  0  0  0  0  1  0  0  0  0  0  0
  161.0550  205.9160  149.2360 C   0  0  2  0  0  3  0  0  0  0  0  0
  161.4750  205.3570  146.8270 O   0  0  0  0  0  0  0  0  0  0  0  0
  161.5840  204.4820  145.7080 C   0  0  2  0  0  3  0  0  0  0  0  0
  163.0460  204.3270  145.3110 C   0  0  0  0  0  1  0  0  0  0  0  0
  160.7600  205.0210  144.5430 C   0  0  0  0  0  0  0  0  0  0  0  0
  161.6090  205.4910  143.5580 F   0  0  0  0  0  0  0  0  0  0  0  0
  159.9580  206.0620  144.9740 F   0  0  0  0  0  0  0  0  0  0  0  0
  159.9640  204.0200  144.0120 F   0  0  0  0  0  0  0  0  0  0  0  0
  160.5690  206.2020  151.6710 C   0  0  0  0  0  2  0  0  0  0  0  0
  161.4760  206.9000  152.6680 C   0  0  2  0  0  3  0  0  0  0  0  0
  161.6610  206.0090  153.8810 C   0  0  0  0  0  1  0  0  0  0  0  0
  160.4430  211.6810  151.9420 C   0  0  0  0  0  3  0  0  0  0  0  0
  161.5600  209.3110  151.0440 N   0  0  0  0  0  0  0  0  0  0  0  0
  161.7730  212.7080  148.6380 C   0  0  0  0  0  0  0  0  0  0  0  0
  161.1410  212.7710  149.8890 C   0  0  0  0  0  3  0  0  0  0  0  0
  161.0700  211.6330  150.6960 C   0  0  0  0  0  0  0  0  0  0  0  0
  160.8850  208.1670  153.0740 N   0  0  0  0  0  2  0  0  0  0  0  0
  162.2610  210.3540  149.0100 C   0  0  0  0  0  3  0  0  0  0  0  0
  161.6320  210.4160  150.2560 C   0  0  0  0  0  0  0  0  0  0  0  0
  162.3310  211.4950  148.2050 C   0  0  0  0  0  3  0  0  0  0  0  0
  160.9530  209.3430  152.2640 C   0  0  0  0  0  0  0  0  0  0  0  0
  160.3840  210.5320  152.7320 C   0  0  0  0  0  3  0  0  0  0  0  0
  161.8470  213.9080  147.7900 C   0  0  0  0  0  0  0  0  0  0  0  0
  160.7960  214.4530  147.3610 O   0  0  0  0  0  0  0  0  0  0  0  0
  163.0820  214.4530  147.4540 O   0  0  0  0  0  1  0  0  0  0  0  0
  1  6  1  0  0  0  0
  1 18  1  1  0  0  0
  2  5  1  0  0  0  0
  4  3  2  0  0  0  0
  5  7  2  0  0  0  0
  5  6  1  0  0  0  0
  6  3  1  0  0  0  0
  7  4  1  0  0  0  0
  8  2  2  0  0  0  0
  8 10  1  0  0  0  0
 10  9  1  6  0  0  0
 10  1  1  0  0  0  0
 11  8  1  0  0  0  0
 12 13  1  6  0  0  0
 12 11  1  0  0  0  0
 14 16  1  0  0  0  0
 14 12  1  0  0  0  0
 15 14  1  0  0  0  0
 17 14  1  0  0  0  0
 18 19  1  0  0  0  0
 19 26  1  0  0  0  0
 19 20  1  1  0  0  0
 21 31  2  0  0  0  0
 22 30  2  0  0  0  0
 23 24  1  0  0  0  0
 24 25  2  0  0  0  0
 25 21  1  0  0  0  0
 27 28  2  0  0  0  0
 28 25  1  0  0  0  0
 28 22  1  0  0  0  0
 29 23  2  0  0  0  0
 29 27  1  0  0  0  0
 30 31  1  0  0  0  0
 30 26  1  0  0  0  0
 32 23  1  0  0  0  0
 33 32  2  0  0  0  0
 34 32  1  0  0  0  0
M  END
>  <MODEL>
9

>  <REMARK>
 VINA RESULT:      -8.1      3.103      7.436
  Name = 
  7 active torsions:
  status: ('A' for Active; 'I' for Inactive)
    1  A    between atoms: C_1  and  C_9
    2  A    between atoms: O_2  and  C_23
    3  A    between atoms: O_2  and  C_32
    4  A    between atoms: C_3  and  C_23
    5  A    between atoms: C_7  and  C_11
    6  A    between atoms: C_8  and  C_9
    7  A    between atoms: C_8  and  N_18
                            x       y       z     vdW  Elec       q    Type
                         _______ _______ _______ _____ _____    ______ ____

>  <TORSDO>
F 7

$$$$
