=
 OpenBabel11062408133D

 32 37  0  0  1  0  0  0  0  0999 V2000
  161.4420  207.8910  150.7220 N   0  0  2  0  0  0  0  0  0  0  0  0
  161.1620  205.9780  149.2300 C   0  0  0  0  0  0  0  0  0  0  0  0
  161.2500  209.3430  150.7820 C   0  0  0  0  0  2  0  0  0  0  0  0
  161.0690  207.4670  149.3620 C   0  0  2  0  0  3  0  0  0  0  0  0
  161.4640  205.3860  148.0020 C   0  0  0  0  0  0  0  0  0  0  0  0
  161.0610  201.4910  151.2420 C   0  0  0  0  0  2  0  0  0  0  0  0
  160.8880  205.1840  150.3400 C   0  0  0  0  0  0  0  0  0  0  0  0
  161.3440  201.7330  148.7810 C   0  0  0  0  0  2  0  0  0  0  0  0
  161.2190  203.2210  148.9580 C   0  0  0  0  0  0  0  0  0  0  0  0
  161.9480  208.1480  148.3410 C   0  0  0  0  0  0  0  0  0  0  0  0
  161.4880  204.0300  147.8950 N   0  0  0  0  0  0  0  0  0  0  0  0
  162.2250  207.5800  147.2010 N   0  0  0  0  0  0  0  0  0  0  0  0
  162.4280  209.4650  148.6210 N   0  0  0  0  0  2  0  0  0  0  0  0
  160.6070  205.8060  151.5620 O   0  0  0  0  0  0  0  0  0  0  0  0
  160.5370  207.2330  151.6850 C   0  0  1  0  0  3  0  0  0  0  0  0
  160.9310  203.7890  150.2220 C   0  0  0  0  0  0  0  0  0  0  0  0
  161.7190  206.2570  146.8030 C   0  0  2  0  0  3  0  0  0  0  0  0
  162.3500  210.0290  149.9690 C   0  0  0  0  0  2  0  0  0  0  0  0
  160.6320  200.9560  149.8840 C   0  0  0  0  0  2  0  0  0  0  0  0
  160.5720  202.9270  151.4050 C   0  0  0  0  0  2  0  0  0  0  0  0
  160.8460  209.1860  154.9700 C   0  0  0  0  0  0  0  0  0  0  0  0
  160.5330  210.4020  155.4890 F   0  0  0  0  0  0  0  0  0  0  0  0
  161.8000  206.9750  155.2400 C   0  0  0  0  0  3  0  0  0  0  0  0
  160.8490  207.6210  153.1050 C   0  0  0  0  0  0  0  0  0  0  0  0
  161.4900  208.2300  155.7690 C   0  0  0  0  0  0  0  0  0  0  0  0
  161.4840  206.6750  153.9150 C   0  0  0  0  0  3  0  0  0  0  0  0
  160.5270  208.8910  153.6360 C   0  0  0  0  0  0  0  0  0  0  0  0
  159.7260  210.1200  152.6610 Cl  0  0  0  0  0  0  0  0  0  0  0  0
  162.8410  209.4640  157.2610 O   0  0  0  0  0  1  0  0  0  0  0  0
  161.8150  208.5210  157.1940 C   0  0  0  0  0  2  0  0  0  0  0  0
  160.4380  206.4080  145.9990 C   0  0  0  0  0  2  0  0  0  0  0  0
  160.4750  205.5710  144.8830 O   0  0  0  0  0  1  0  0  0  0  0  0
  1  3  1  6  0  0  0
  1 15  1  0  0  0  0
  2  4  1  0  0  0  0
  2  7  1  0  0  0  0
  4 10  1  6  0  0  0
  4  1  1  0  0  0  0
  5  2  2  0  0  0  0
  6 20  1  0  0  0  0
  7 14  1  0  0  0  0
  8  9  1  0  0  0  0
  8 19  1  0  0  0  0
  9 16  1  0  0  0  0
 10 13  1  0  0  0  0
 11  5  1  0  0  0  0
 11  9  2  0  0  0  0
 12 10  2  0  0  0  0
 13 18  1  0  0  0  0
 14 15  1  0  0  0  0
 15 24  1  1  0  0  0
 16  7  2  0  0  0  0
 16 20  1  0  0  0  0
 17 31  1  1  0  0  0
 17 12  1  0  0  0  0
 17  5  1  0  0  0  0
 18  3  1  0  0  0  0
 19  6  1  0  0  0  0
 21 22  1  0  0  0  0
 21 25  1  0  0  0  0
 23 25  2  0  0  0  0
 24 27  1  0  0  0  0
 24 26  2  0  0  0  0
 25 30  1  0  0  0  0
 26 23  1  0  0  0  0
 27 21  2  0  0  0  0
 28 27  1  0  0  0  0
 30 29  1  0  0  0  0
 32 31  1  0  0  0  0
M  END
>  <MODEL>
1

>  <REMARK>
 VINA RESULT:      -8.3      0.000      0.000
  Name = 
  3 active torsions:
  status: ('A' for Active; 'I' for Inactive)
    1  A    between atoms: C_13  and  CA_29
    2  A    between atoms: C_16  and  C_27
    3  A    between atoms: C_19  and  C_26
                            x       y       z     vdW  Elec       q    Type
                         _______ _______ _______ _____ _____    ______ ____

>  <TORSDO>
F 3

$$$$
=
 OpenBabel11062408133D

 32 37  0  0  1  0  0  0  0  0999 V2000
  161.5540  208.4890  150.8930 N   0  0  2  0  0  0  0  0  0  0  0  0
  161.1960  206.4500  149.5970 C   0  0  0  0  0  0  0  0  0  0  0  0
  161.3510  209.9390  150.8370 C   0  0  0  0  0  2  0  0  0  0  0  0
  161.0970  207.9440  149.6040 C   0  0  2  0  0  3  0  0  0  0  0  0
  161.4220  205.7520  148.4090 C   0  0  0  0  0  0  0  0  0  0  0  0
  161.2780  202.1580  151.9990 C   0  0  0  0  0  2  0  0  0  0  0  0
  161.0060  205.7560  150.7880 C   0  0  0  0  0  0  0  0  0  0  0  0
  161.3930  202.1830  149.5120 C   0  0  0  0  0  2  0  0  0  0  0  0
  161.2650  203.6800  149.5650 C   0  0  0  0  0  0  0  0  0  0  0  0
  161.8980  208.5370  148.4690 C   0  0  0  0  0  0  0  0  0  0  0  0
  161.4530  204.3920  148.4190 N   0  0  0  0  0  0  0  0  0  0  0  0
  162.1040  207.8710  147.3680 N   0  0  0  0  0  0  0  0  0  0  0  0
  162.3820  209.8750  148.6000 N   0  0  0  0  0  2  0  0  0  0  0  0
  160.7990  206.4820  151.9670 O   0  0  0  0  0  0  0  0  0  0  0  0
  160.7220  207.9140  151.9690 C   0  0  1  0  0  3  0  0  0  0  0  0
  161.0560  204.3560  150.7910 C   0  0  0  0  0  0  0  0  0  0  0  0
  161.5880  206.5150  147.1230 C   0  0  2  0  0  3  0  0  0  0  0  0
  162.3870  210.5550  149.8950 C   0  0  0  0  0  2  0  0  0  0  0  0
  160.7650  201.5030  150.7250 C   0  0  0  0  0  2  0  0  0  0  0  0
  160.7850  203.6010  152.0660 C   0  0  0  0  0  2  0  0  0  0  0  0
  161.4780  208.1670  155.7190 C   0  0  0  0  0  0  0  0  0  0  0  0
  161.4530  207.3980  156.8380 F   0  0  0  0  0  0  0  0  0  0  0  0
  161.9290  210.2940  154.6480 C   0  0  0  0  0  3  0  0  0  0  0  0
  161.1240  208.4280  153.3250 C   0  0  0  0  0  0  0  0  0  0  0  0
  161.8910  209.5050  155.8010 C   0  0  0  0  0  0  0  0  0  0  0  0
  161.5440  209.7580  153.4190 C   0  0  0  0  0  3  0  0  0  0  0  0
  161.0890  207.6230  154.4860 C   0  0  0  0  0  0  0  0  0  0  0  0
  160.5670  205.9410  154.4250 Cl  0  0  0  0  0  0  0  0  0  0  0  0
  163.4940  210.8350  156.9120 O   0  0  0  0  0  1  0  0  0  0  0  0
  162.3290  210.0900  157.0990 C   0  0  0  0  0  2  0  0  0  0  0  0
  160.2540  206.5890  146.3970 C   0  0  0  0  0  2  0  0  0  0  0  0
  160.4040  206.1430  145.0830 O   0  0  0  0  0  1  0  0  0  0  0  0
  1  3  1  6  0  0  0
  1 15  1  0  0  0  0
  2  4  1  0  0  0  0
  2  7  1  0  0  0  0
  4 10  1  6  0  0  0
  4  1  1  0  0  0  0
  5 11  1  0  0  0  0
  5  2  2  0  0  0  0
  6 20  1  0  0  0  0
  7 16  2  0  0  0  0
  7 14  1  0  0  0  0
  8  9  1  0  0  0  0
  8 19  1  0  0  0  0
  9 16  1  0  0  0  0
 10 13  1  0  0  0  0
 11  9  2  0  0  0  0
 12 10  2  0  0  0  0
 13 18  1  0  0  0  0
 14 15  1  0  0  0  0
 15 24  1  1  0  0  0
 16 20  1  0  0  0  0
 17 31  1  1  0  0  0
 17 12  1  0  0  0  0
 17  5  1  0  0  0  0
 18  3  1  0  0  0  0
 19  6  1  0  0  0  0
 21 25  1  0  0  0  0
 21 22  1  0  0  0  0
 23 25  2  0  0  0  0
 24 26  2  0  0  0  0
 24 27  1  0  0  0  0
 25 30  1  0  0  0  0
 26 23  1  0  0  0  0
 27 21  2  0  0  0  0
 28 27  1  0  0  0  0
 29 30  1  0  0  0  0
 32 31  1  0  0  0  0
M  END
>  <MODEL>
2

>  <REMARK>
 VINA RESULT:      -8.1      1.324      1.550
  Name = 
  3 active torsions:
  status: ('A' for Active; 'I' for Inactive)
    1  A    between atoms: C_13  and  CA_29
    2  A    between atoms: C_16  and  C_27
    3  A    between atoms: C_19  and  C_26
                            x       y       z     vdW  Elec       q    Type
                         _______ _______ _______ _____ _____    ______ ____

>  <TORSDO>
F 3

$$$$
=
 OpenBabel11062408133D

 32 37  0  0  1  0  0  0  0  0999 V2000
  159.1490  212.4170  153.2780 N   0  0  2  0  0  0  0  0  0  0  0  0
  160.3170  210.4380  154.1060 C   0  0  0  0  0  0  0  0  0  0  0  0
  158.8980  213.8250  153.6010 C   0  0  0  0  0  2  0  0  0  0  0  0
  159.9450  211.8610  154.3850 C   0  0  2  0  0  3  0  0  0  0  0  0
  160.5040  209.5280  155.1480 C   0  0  0  0  0  0  0  0  0  0  0  0
  161.2060  206.7970  150.9200 C   0  0  0  0  0  2  0  0  0  0  0  0
  160.5290  210.0430  152.7870 C   0  0  0  0  0  0  0  0  0  0  0  0
  161.4700  206.3920  153.3620 C   0  0  0  0  0  2  0  0  0  0  0  0
  161.1180  207.8350  153.5950 C   0  0  0  0  0  0  0  0  0  0  0  0
  159.1830  211.9680  155.6850 C   0  0  0  0  0  0  0  0  0  0  0  0
  160.8950  208.2550  154.8710 N   0  0  0  0  0  0  0  0  0  0  0  0
  159.3650  211.1070  156.6470 N   0  0  0  0  0  0  0  0  0  0  0  0
  158.2930  213.0710  155.8680 N   0  0  0  0  0  2  0  0  0  0  0  0
  160.3160  210.9720  151.7620 O   0  0  0  0  0  0  0  0  0  0  0  0
  159.9440  212.3290  152.0370 C   0  0  1  0  0  3  0  0  0  0  0  0
  160.9160  208.7260  152.5120 C   0  0  0  0  0  0  0  0  0  0  0  0
  160.3080  209.9810  156.5690 C   0  0  2  0  0  3  0  0  0  0  0  0
  157.8790  213.9050  154.7390 C   0  0  0  0  0  2  0  0  0  0  0  0
  162.0850  206.1590  151.9850 C   0  0  0  0  0  2  0  0  0  0  0  0
  161.2100  208.3130  151.0930 C   0  0  0  0  0  2  0  0  0  0  0  0
  159.0800  213.7060  148.5640 C   0  0  0  0  0  0  0  0  0  0  0  0
  159.6830  213.9970  147.3830 F   0  0  0  0  0  0  0  0  0  0  0  0
  157.0800  213.6170  149.9300 C   0  0  0  0  0  3  0  0  0  0  0  0
  159.1990  212.8850  150.8530 C   0  0  0  0  0  0  0  0  0  0  0  0
  157.7030  213.9270  148.7190 C   0  0  0  0  0  0  0  0  0  0  0  0
  157.8250  213.1030  150.9910 C   0  0  0  0  0  3  0  0  0  0  0  0
  159.8350  213.1910  149.6280 C   0  0  0  0  0  0  0  0  0  0  0  0
  161.5630  212.9370  149.3990 Cl  0  0  0  0  0  0  0  0  0  0  0  0
  156.7490  213.4720  146.6080 O   0  0  0  0  0  1  0  0  0  0  0  0
  156.8840  214.4520  147.5910 C   0  0  0  0  0  2  0  0  0  0  0  0
  161.6470  210.3800  157.1670 C   0  0  0  0  0  2  0  0  0  0  0  0
  162.5730  209.3510  156.9890 O   0  0  0  0  0  1  0  0  0  0  0  0
  1  3  1  1  0  0  0
  1  4  1  0  0  0  0
  2  5  1  0  0  0  0
  3 18  1  0  0  0  0
  4  2  1  6  0  0  0
  4 10  1  0  0  0  0
  5 17  1  0  0  0  0
  6 20  1  0  0  0  0
  6 19  1  0  0  0  0
  7  2  2  0  0  0  0
  8  9  1  0  0  0  0
  9 11  1  0  0  0  0
 10 13  1  0  0  0  0
 10 12  2  0  0  0  0
 11  5  2  0  0  0  0
 14 15  1  0  0  0  0
 14  7  1  0  0  0  0
 15 24  1  6  0  0  0
 15  1  1  0  0  0  0
 16  7  1  0  0  0  0
 16  9  2  0  0  0  0
 17 12  1  0  0  0  0
 17 31  1  6  0  0  0
 18 13  1  0  0  0  0
 19  8  1  0  0  0  0
 20 16  1  0  0  0  0
 21 25  2  0  0  0  0
 21 27  1  0  0  0  0
 22 21  1  0  0  0  0
 23 26  2  0  0  0  0
 24 26  1  0  0  0  0
 25 23  1  0  0  0  0
 27 24  2  0  0  0  0
 28 27  1  0  0  0  0
 29 30  1  0  0  0  0
 30 25  1  0  0  0  0
 32 31  1  0  0  0  0
M  END
>  <MODEL>
3

>  <REMARK>
 VINA RESULT:      -7.3      4.660      8.169
  Name = 
  3 active torsions:
  status: ('A' for Active; 'I' for Inactive)
    1  A    between atoms: C_13  and  CA_29
    2  A    between atoms: C_16  and  C_27
    3  A    between atoms: C_19  and  C_26
                            x       y       z     vdW  Elec       q    Type
                         _______ _______ _______ _____ _____    ______ ____

>  <TORSDO>
F 3

$$$$
=
 OpenBabel11062408133D

 32 37  0  0  1  0  0  0  0  0999 V2000
  161.1340  204.9500  150.8750 N   0  0  2  0  0  0  0  0  0  0  0  0
  161.2030  203.7640  148.7410 C   0  0  0  0  0  0  0  0  0  0  0  0
  161.4800  204.7950  152.2910 C   0  0  0  0  0  2  0  0  0  0  0  0
  161.4540  203.6740  150.2150 C   0  0  2  0  0  3  0  0  0  0  0  0
  160.8350  202.6350  148.0070 C   0  0  0  0  0  0  0  0  0  0  0  0
  160.8310  206.4250  144.6210 C   0  0  0  0  0  2  0  0  0  0  0  0
  161.3940  204.9840  148.0980 C   0  0  0  0  0  0  0  0  0  0  0  0
  160.5680  203.9520  144.5200 C   0  0  0  0  0  2  0  0  0  0  0  0
  160.8510  203.9060  145.9970 C   0  0  0  0  0  0  0  0  0  0  0  0
  160.6500  202.5510  150.8240 C   0  0  0  0  0  0  0  0  0  0  0  0
  160.6670  202.7310  146.6600 N   0  0  0  0  0  0  0  0  0  0  0  0
  160.3100  201.5050  150.1250 N   0  0  0  0  0  0  0  0  0  0  0  0
  160.3130  202.6250  152.2120 N   0  0  0  0  0  2  0  0  0  0  0  0
  161.7440  206.1030  148.8630 O   0  0  0  0  0  0  0  0  0  0  0  0
  161.9670  206.0120  150.2760 C   0  0  1  0  0  3  0  0  0  0  0  0
  161.2020  205.0750  146.7140 C   0  0  0  0  0  0  0  0  0  0  0  0
  160.6700  201.3160  148.7100 C   0  0  2  0  0  3  0  0  0  0  0  0
  160.4570  203.8740  152.9590 C   0  0  0  0  0  2  0  0  0  0  0  0
  161.1960  205.1680  143.8460 C   0  0  0  0  0  2  0  0  0  0  0  0
  161.4720  206.3770  146.0060 C   0  0  0  0  0  2  0  0  0  0  0  0
  161.7030  209.7880  150.8860 C   0  0  0  0  0  0  0  0  0  0  0  0
  161.9570  210.9630  150.2520 F   0  0  0  0  0  0  0  0  0  0  0  0
  160.9010  208.5880  152.8320 C   0  0  0  0  0  3  0  0  0  0  0  0
  161.7030  207.3540  150.9040 C   0  0  0  0  0  0  0  0  0  0  0  0
  161.1730  209.7950  152.1840 C   0  0  0  0  0  0  0  0  0  0  0  0
  161.1680  207.3750  152.1950 C   0  0  0  0  0  3  0  0  0  0  0  0
  161.9750  208.5720  150.2410 C   0  0  0  0  0  0  0  0  0  0  0  0
  162.6490  208.6040  148.6140 Cl  0  0  0  0  0  0  0  0  0  0  0  0
  161.2390  211.0010  154.2130 O   0  0  0  0  0  1  0  0  0  0  0  0
  160.8590  211.0780  152.8730 C   0  0  0  0  0  2  0  0  0  0  0  0
  161.9580  200.5140  148.6030 C   0  0  0  0  0  2  0  0  0  0  0  0
  161.9560  199.7690  147.4230 O   0  0  0  0  0  1  0  0  0  0  0  0
  1  3  1  1  0  0  0
  3 18  1  0  0  0  0
  4  2  1  6  0  0  0
  4 10  1  0  0  0  0
  4  1  1  0  0  0  0
  5 17  1  0  0  0  0
  5  2  2  0  0  0  0
  6 20  1  0  0  0  0
  7  2  1  0  0  0  0
  7 14  1  0  0  0  0
  8  9  1  0  0  0  0
  9 11  2  0  0  0  0
  9 16  1  0  0  0  0
 10 13  1  0  0  0  0
 11  5  1  0  0  0  0
 12 10  2  0  0  0  0
 13 18  1  0  0  0  0
 14 15  1  0  0  0  0
 15  1  1  0  0  0  0
 15 24  1  1  0  0  0
 16  7  2  0  0  0  0
 17 31  1  1  0  0  0
 17 12  1  0  0  0  0
 19  8  1  0  0  0  0
 19  6  1  0  0  0  0
 20 16  1  0  0  0  0
 21 25  1  0  0  0  0
 22 21  1  0  0  0  0
 24 26  2  0  0  0  0
 25 23  2  0  0  0  0
 25 30  1  0  0  0  0
 26 23  1  0  0  0  0
 27 21  2  0  0  0  0
 27 24  1  0  0  0  0
 28 27  1  0  0  0  0
 30 29  1  0  0  0  0
 32 31  1  0  0  0  0
M  END
>  <MODEL>
4

>  <REMARK>
 VINA RESULT:      -7.3      2.662      4.925
  Name = 
  3 active torsions:
  status: ('A' for Active; 'I' for Inactive)
    1  A    between atoms: C_13  and  CA_29
    2  A    between atoms: C_16  and  C_27
    3  A    between atoms: C_19  and  C_26
                            x       y       z     vdW  Elec       q    Type
                         _______ _______ _______ _____ _____    ______ ____

>  <TORSDO>
F 3

$$$$
=
 OpenBabel11062408133D

 32 37  0  0  1  0  0  0  0  0999 V2000
  160.1750  212.5740  150.8200 N   0  0  2  0  0  0  0  0  0  0  0  0
  160.6390  210.7510  152.3780 C   0  0  0  0  0  0  0  0  0  0  0  0
  160.0540  214.0340  150.7590 C   0  0  0  0  0  2  0  0  0  0  0  0
  160.4250  212.2260  152.2290 C   0  0  2  0  0  3  0  0  0  0  0  0
  160.2950  210.0930  153.5600 C   0  0  0  0  0  0  0  0  0  0  0  0
  162.0120  206.4180  150.4980 C   0  0  0  0  0  2  0  0  0  0  0  0
  161.2410  210.0490  151.3370 C   0  0  0  0  0  0  0  0  0  0  0  0
  161.3200  206.5640  152.8850 C   0  0  0  0  0  2  0  0  0  0  0  0
  161.1430  208.0460  152.6970 C   0  0  0  0  0  0  0  0  0  0  0  0
  159.2770  212.6870  153.0950 C   0  0  0  0  0  0  0  0  0  0  0  0
  160.5500  208.7630  153.6910 N   0  0  0  0  0  0  0  0  0  0  0  0
  158.9640  212.0590  154.1930 N   0  0  0  0  0  0  0  0  0  0  0  0
  158.5680  213.8710  152.7190 N   0  0  0  0  0  2  0  0  0  0  0  0
  161.5590  210.7310  150.1570 O   0  0  0  0  0  0  0  0  0  0  0  0
  161.3350  212.1400  150.0160 C   0  0  1  0  0  3  0  0  0  0  0  0
  161.4850  208.6770  151.4770 C   0  0  0  0  0  0  0  0  0  0  0  0
  159.6800  210.8730  154.6890 C   0  0  2  0  0  3  0  0  0  0  0  0
  158.7220  214.4530  151.3860 C   0  0  0  0  0  2  0  0  0  0  0  0
  162.3400  205.9740  151.9150 C   0  0  0  0  0  2  0  0  0  0  0  0
  162.1960  207.9280  150.3790 C   0  0  0  0  0  2  0  0  0  0  0  0
  162.0190  212.9680  146.3350 C   0  0  0  0  0  0  0  0  0  0  0  0
  163.0660  213.1540  145.4890 F   0  0  0  0  0  0  0  0  0  0  0  0
  159.6290  212.8800  146.7230 C   0  0  0  0  0  3  0  0  0  0  0  0
  161.1600  212.4680  148.5570 C   0  0  0  0  0  0  0  0  0  0  0  0
  160.7060  213.0820  145.8560 C   0  0  0  0  0  0  0  0  0  0  0  0
  159.8560  212.5780  148.0660 C   0  0  0  0  0  3  0  0  0  0  0  0
  162.2540  212.6660  147.6850 C   0  0  0  0  0  0  0  0  0  0  0  0
  163.9180  212.5400  148.2500 Cl  0  0  0  0  0  0  0  0  0  0  0  0
  160.4590  212.1970  143.6820 O   0  0  0  0  0  1  0  0  0  0  0  0
  160.4400  213.3800  144.4210 C   0  0  0  0  0  2  0  0  0  0  0  0
  160.7640  211.2920  155.6700 C   0  0  0  0  0  2  0  0  0  0  0  0
  160.6520  210.5480  156.8460 O   0  0  0  0  0  1  0  0  0  0  0  0
  1  3  1  1  0  0  0
  1  4  1  0  0  0  0
  2  5  1  0  0  0  0
  3 18  1  0  0  0  0
  4  2  1  6  0  0  0
  4 10  1  0  0  0  0
  5 11  2  0  0  0  0
  5 17  1  0  0  0  0
  6 19  1  0  0  0  0
  7 16  1  0  0  0  0
  7  2  2  0  0  0  0
  9  8  1  0  0  0  0
  9 11  1  0  0  0  0
 10 12  2  0  0  0  0
 12 17  1  0  0  0  0
 13 10  1  0  0  0  0
 14  7  1  0  0  0  0
 15 24  1  6  0  0  0
 15 14  1  0  0  0  0
 15  1  1  0  0  0  0
 16  9  2  0  0  0  0
 17 31  1  1  0  0  0
 18 13  1  0  0  0  0
 19  8  1  0  0  0  0
 20  6  1  0  0  0  0
 20 16  1  0  0  0  0
 21 27  1  0  0  0  0
 22 21  1  0  0  0  0
 23 26  2  0  0  0  0
 25 21  2  0  0  0  0
 25 23  1  0  0  0  0
 26 24  1  0  0  0  0
 27 28  1  0  0  0  0
 27 24  2  0  0  0  0
 29 30  1  0  0  0  0
 30 25  1  0  0  0  0
 31 32  1  0  0  0  0
M  END
>  <MODEL>
5

>  <REMARK>
 VINA RESULT:      -7.2      4.421      8.134
  Name = 
  3 active torsions:
  status: ('A' for Active; 'I' for Inactive)
    1  A    between atoms: C_13  and  CA_29
    2  A    between atoms: C_16  and  C_27
    3  A    between atoms: C_19  and  C_26
                            x       y       z     vdW  Elec       q    Type
                         _______ _______ _______ _____ _____    ______ ____

>  <TORSDO>
F 3

$$$$
=
 OpenBabel11062408133D

 32 37  0  0  1  0  0  0  0  0999 V2000
  159.7570  211.2730  153.6100 N   0  0  2  0  0  0  0  0  0  0  0  0
  160.6640  209.0590  154.0990 C   0  0  0  0  0  0  0  0  0  0  0  0
  159.6920  212.6360  154.1460 C   0  0  0  0  0  2  0  0  0  0  0  0
  160.4820  210.4590  154.5990 C   0  0  2  0  0  3  0  0  0  0  0  0
  160.7390  207.9850  154.9870 C   0  0  0  0  0  0  0  0  0  0  0  0
  161.0520  205.8640  150.3800 C   0  0  0  0  0  2  0  0  0  0  0  0
  160.8140  208.8460  152.7310 C   0  0  0  0  0  0  0  0  0  0  0  0
  161.2790  205.0610  152.7250 C   0  0  0  0  0  2  0  0  0  0  0  0
  161.1180  206.4850  153.1810 C   0  0  0  0  0  0  0  0  0  0  0  0
  159.7490  210.4620  155.9190 C   0  0  0  0  0  0  0  0  0  0  0  0
  160.9600  206.7300  154.5120 N   0  0  0  0  0  0  0  0  0  0  0  0
  159.8240  209.4490  156.7360 N   0  0  0  0  0  0  0  0  0  0  0  0
  159.0100  211.6290  156.2900 N   0  0  0  0  0  2  0  0  0  0  0  0
  160.7160  209.9400  151.8630 O   0  0  0  0  0  0  0  0  0  0  0  0
  160.5240  211.2750  152.3480 C   0  0  1  0  0  3  0  0  0  0  0  0
  161.0260  207.5480  152.2510 C   0  0  0  0  0  0  0  0  0  0  0  0
  160.6130  208.2370  156.4650 C   0  0  2  0  0  3  0  0  0  0  0  0
  158.7000  212.6700  155.3110 C   0  0  0  0  0  2  0  0  0  0  0  0
  161.8480  204.9650  151.3130 C   0  0  0  0  0  2  0  0  0  0  0  0
  161.2530  207.3230  150.7790 C   0  0  0  0  0  2  0  0  0  0  0  0
  159.7570  213.1170  149.0740 C   0  0  0  0  0  0  0  0  0  0  0  0
  160.3170  213.3540  147.8600 F   0  0  0  0  0  0  0  0  0  0  0  0
  157.9130  213.3960  150.6210 C   0  0  0  0  0  3  0  0  0  0  0  0
  159.8500  212.0960  151.2820 C   0  0  0  0  0  0  0  0  0  0  0  0
  158.4950  213.6490  149.3770 C   0  0  0  0  0  0  0  0  0  0  0  0
  158.5890  212.6270  151.5680 C   0  0  0  0  0  3  0  0  0  0  0  0
  160.4420  212.3440  150.0230 C   0  0  0  0  0  0  0  0  0  0  0  0
  162.0290  211.7000  149.6090 Cl  0  0  0  0  0  0  0  0  0  0  0  0
  157.0300  213.6040  147.5260 O   0  0  0  0  0  1  0  0  0  0  0  0
  157.7450  214.4530  148.3710 C   0  0  0  0  0  2  0  0  0  0  0  0
  161.9970  208.3670  157.0810 C   0  0  0  0  0  2  0  0  0  0  0  0
  162.3380  209.7150  157.2020 O   0  0  0  0  0  1  0  0  0  0  0  0
  1  3  1  1  0  0  0
  1  4  1  0  0  0  0
  2  5  1  0  0  0  0
  3 18  1  0  0  0  0
  4  2  1  6  0  0  0
  4 10  1  0  0  0  0
  5 17  1  0  0  0  0
  6 20  1  0  0  0  0
  6 19  1  0  0  0  0
  7  2  2  0  0  0  0
  8  9  1  0  0  0  0
  9 11  1  0  0  0  0
 10 13  1  0  0  0  0
 10 12  2  0  0  0  0
 11  5  2  0  0  0  0
 14 15  1  0  0  0  0
 14  7  1  0  0  0  0
 15 24  1  6  0  0  0
 15  1  1  0  0  0  0
 16  7  1  0  0  0  0
 16  9  2  0  0  0  0
 17 12  1  0  0  0  0
 17 31  1  6  0  0  0
 18 13  1  0  0  0  0
 19  8  1  0  0  0  0
 20 16  1  0  0  0  0
 21 25  2  0  0  0  0
 21 27  1  0  0  0  0
 22 21  1  0  0  0  0
 23 26  2  0  0  0  0
 24 26  1  0  0  0  0
 25 23  1  0  0  0  0
 27 24  2  0  0  0  0
 28 27  1  0  0  0  0
 29 30  1  0  0  0  0
 30 25  1  0  0  0  0
 31 32  1  0  0  0  0
M  END
>  <MODEL>
6

>  <REMARK>
 VINA RESULT:      -7.2      4.050      7.435
  Name = 
  3 active torsions:
  status: ('A' for Active; 'I' for Inactive)
    1  A    between atoms: C_13  and  CA_29
    2  A    between atoms: C_16  and  C_27
    3  A    between atoms: C_19  and  C_26
                            x       y       z     vdW  Elec       q    Type
                         _______ _______ _______ _____ _____    ______ ____

>  <TORSDO>
F 3

$$$$
=
 OpenBabel11062408133D

 32 37  0  0  1  0  0  0  0  0999 V2000
  161.2060  210.3730  150.1270 N   0  0  2  0  0  0  0  0  0  0  0  0
  161.4320  207.9520  150.3470 C   0  0  0  0  0  0  0  0  0  0  0  0
  161.4520  211.6240  150.8510 C   0  0  0  0  0  2  0  0  0  0  0  0
  161.5800  209.2750  151.0330 C   0  0  2  0  0  3  0  0  0  0  0  0
  161.1240  206.7990  151.0730 C   0  0  0  0  0  0  0  0  0  0  0  0
  161.3350  205.2530  146.2360 C   0  0  0  0  0  2  0  0  0  0  0  0
  161.6600  207.8730  148.9760 C   0  0  0  0  0  0  0  0  0  0  0  0
  161.0940  204.1390  148.4490 C   0  0  0  0  0  2  0  0  0  0  0  0
  161.2730  205.4850  149.0960 C   0  0  0  0  0  0  0  0  0  0  0  0
  160.7420  209.3210  152.2880 C   0  0  0  0  0  0  0  0  0  0  0  0
  161.0500  205.6000  150.4350 N   0  0  0  0  0  0  0  0  0  0  0  0
  160.4580  208.2350  152.9520 N   0  0  0  0  0  0  0  0  0  0  0  0
  160.3080  210.5930  152.7750 N   0  0  0  0  0  2  0  0  0  0  0  0
  161.9490  209.0480  148.2720 O   0  0  0  0  0  0  0  0  0  0  0  0
  162.0720  210.3150  148.9330 C   0  0  1  0  0  3  0  0  0  0  0  0
  161.5660  206.6360  148.3270 C   0  0  0  0  0  0  0  0  0  0  0  0
  160.9180  206.8940  152.5600 C   0  0  2  0  0  3  0  0  0  0  0  0
  160.3900  211.7910  151.9400 C   0  0  0  0  0  2  0  0  0  0  0  0
  161.7610  204.0610  147.0790 C   0  0  0  0  0  2  0  0  0  0  0  0
  161.8760  206.5380  146.8560 C   0  0  0  0  0  2  0  0  0  0  0  0
  162.3200  213.4270  146.7080 C   0  0  0  0  0  0  0  0  0  0  0  0
  163.2050  214.4060  146.3850 F   0  0  0  0  0  0  0  0  0  0  0  0
  160.1390  212.4040  146.4430 C   0  0  0  0  0  3  0  0  0  0  0  0
  161.7560  211.4140  147.9560 C   0  0  0  0  0  0  0  0  0  0  0  0
  161.0460  213.4170  146.1210 C   0  0  0  0  0  0  0  0  0  0  0  0
  160.4920  211.4120  147.3580 C   0  0  0  0  0  3  0  0  0  0  0  0
  162.6800  212.4330  147.6290 C   0  0  0  0  0  0  0  0  0  0  0  0
  164.2860  212.4850  148.3520 Cl  0  0  0  0  0  0  0  0  0  0  0  0
  161.2800  214.1920  143.9040 O   0  0  0  0  0  1  0  0  0  0  0  0
  160.6570  214.4530  145.1240 C   0  0  0  0  0  2  0  0  0  0  0  0
  162.2150  206.5570  153.2780 C   0  0  0  0  0  2  0  0  0  0  0  0
  163.0400  205.8060  152.4400 O   0  0  0  0  0  1  0  0  0  0  0  0
  1  3  1  1  0  0  0
  1  4  1  0  0  0  0
  2  5  1  0  0  0  0
  3 18  1  0  0  0  0
  4  2  1  6  0  0  0
  4 10  1  0  0  0  0
  5 17  1  0  0  0  0
  6 20  1  0  0  0  0
  6 19  1  0  0  0  0
  7  2  2  0  0  0  0
  8  9  1  0  0  0  0
  9 11  1  0  0  0  0
 10 13  1  0  0  0  0
 10 12  2  0  0  0  0
 11  5  2  0  0  0  0
 14 15  1  0  0  0  0
 14  7  1  0  0  0  0
 15 24  1  6  0  0  0
 15  1  1  0  0  0  0
 16  7  1  0  0  0  0
 16  9  2  0  0  0  0
 17 12  1  0  0  0  0
 17 31  1  1  0  0  0
 18 13  1  0  0  0  0
 19  8  1  0  0  0  0
 20 16  1  0  0  0  0
 21 27  1  0  0  0  0
 22 21  1  0  0  0  0
 23 26  2  0  0  0  0
 25 23  1  0  0  0  0
 25 21  2  0  0  0  0
 26 24  1  0  0  0  0
 27 24  2  0  0  0  0
 27 28  1  0  0  0  0
 29 30  1  0  0  0  0
 30 25  1  0  0  0  0
 32 31  1  0  0  0  0
M  END
>  <MODEL>
7

>  <REMARK>
 VINA RESULT:      -7.2      3.799      6.782
  Name = 
  3 active torsions:
  status: ('A' for Active; 'I' for Inactive)
    1  A    between atoms: C_13  and  CA_29
    2  A    between atoms: C_16  and  C_27
    3  A    between atoms: C_19  and  C_26
                            x       y       z     vdW  Elec       q    Type
                         _______ _______ _______ _____ _____    ______ ____

>  <TORSDO>
F 3

$$$$
=
 OpenBabel11062408133D

 32 37  0  0  1  0  0  0  0  0999 V2000
  160.9840  212.4680  149.5340 N   0  0  2  0  0  0  0  0  0  0  0  0
  161.2140  210.3770  150.7740 C   0  0  0  0  0  0  0  0  0  0  0  0
  161.1200  213.9190  149.6880 C   0  0  0  0  0  2  0  0  0  0  0  0
  161.2550  211.8720  150.8530 C   0  0  2  0  0  3  0  0  0  0  0  0
  160.8320  209.6120  151.8780 C   0  0  0  0  0  0  0  0  0  0  0  0
  161.6780  206.2150  148.1940 C   0  0  0  0  0  2  0  0  0  0  0  0
  161.6160  209.7520  149.5970 C   0  0  0  0  0  0  0  0  0  0  0  0
  161.1730  206.1070  150.6300 C   0  0  0  0  0  2  0  0  0  0  0  0
  161.2490  207.6090  150.6670 C   0  0  0  0  0  0  0  0  0  0  0  0
  160.2630  212.3800  151.8710 C   0  0  0  0  0  0  0  0  0  0  0  0
  160.8560  208.2540  151.8000 N   0  0  0  0  0  0  0  0  0  0  0  0
  159.9120  211.6520  152.8940 N   0  0  0  0  0  0  0  0  0  0  0  0
  159.7530  213.7070  151.7280 N   0  0  0  0  0  2  0  0  0  0  0  0
  161.9770  210.5440  148.5010 O   0  0  0  0  0  0  0  0  0  0  0  0
  161.9970  211.9760  148.5780 C   0  0  1  0  0  3  0  0  0  0  0  0
  161.6220  208.3530  149.5220 C   0  0  0  0  0  0  0  0  0  0  0  0
  160.4360  210.3020  153.1550 C   0  0  2  0  0  3  0  0  0  0  0  0
  159.9250  214.4530  150.4810 C   0  0  0  0  0  2  0  0  0  0  0  0
  162.0090  205.5110  149.5020 C   0  0  0  0  0  2  0  0  0  0  0  0
  162.1190  207.6740  148.2720 C   0  0  0  0  0  2  0  0  0  0  0  0
  160.3960  213.2520  145.3360 C   0  0  0  0  0  0  0  0  0  0  0  0
  159.1680  213.4200  144.7800 F   0  0  0  0  0  0  0  0  0  0  0  0
  162.8060  213.4560  145.1930 C   0  0  0  0  0  3  0  0  0  0  0  0
  161.7930  212.5470  147.2010 C   0  0  0  0  0  0  0  0  0  0  0  0
  161.5440  213.6170  144.6170 C   0  0  0  0  0  0  0  0  0  0  0  0
  162.9290  212.9200  146.4760 C   0  0  0  0  0  3  0  0  0  0  0  0
  160.5130  212.7120  146.6260 C   0  0  0  0  0  0  0  0  0  0  0  0
  159.0480  212.2580  147.4940 Cl  0  0  0  0  0  0  0  0  0  0  0  0
  162.1830  213.4600  142.3500 O   0  0  0  0  0  1  0  0  0  0  0  0
  161.4340  214.2120  143.2560 C   0  0  0  0  0  2  0  0  0  0  0  0
  161.6360  210.3800  154.0870 C   0  0  0  0  0  2  0  0  0  0  0  0
  161.3460  211.2170  155.1640 O   0  0  0  0  0  1  0  0  0  0  0  0
  1  3  1  1  0  0  0
  1  4  1  0  0  0  0
  2  5  1  0  0  0  0
  3 18  1  0  0  0  0
  4  2  1  6  0  0  0
  4 10  1  0  0  0  0
  5 17  1  0  0  0  0
  6 20  1  0  0  0  0
  6 19  1  0  0  0  0
  7  2  2  0  0  0  0
  8  9  1  0  0  0  0
  9 11  1  0  0  0  0
 10 12  2  0  0  0  0
 11  5  2  0  0  0  0
 12 17  1  0  0  0  0
 13 10  1  0  0  0  0
 14 15  1  0  0  0  0
 14  7  1  0  0  0  0
 15 24  1  6  0  0  0
 15  1  1  0  0  0  0
 16  7  1  0  0  0  0
 16  9  2  0  0  0  0
 17 31  1  1  0  0  0
 18 13  1  0  0  0  0
 19  8  1  0  0  0  0
 20 16  1  0  0  0  0
 21 27  1  0  0  0  0
 22 21  1  0  0  0  0
 23 26  2  0  0  0  0
 25 23  1  0  0  0  0
 25 21  2  0  0  0  0
 26 24  1  0  0  0  0
 27 24  2  0  0  0  0
 27 28  1  0  0  0  0
 29 30  1  0  0  0  0
 30 25  1  0  0  0  0
 31 32  1  0  0  0  0
M  END
>  <MODEL>
8

>  <REMARK>
 VINA RESULT:      -5.9      4.519      8.059
  Name = 
  3 active torsions:
  status: ('A' for Active; 'I' for Inactive)
    1  A    between atoms: C_13  and  CA_29
    2  A    between atoms: C_16  and  C_27
    3  A    between atoms: C_19  and  C_26
                            x       y       z     vdW  Elec       q    Type
                         _______ _______ _______ _____ _____    ______ ____

>  <TORSDO>
F 3

$$$$
=
 OpenBabel11062408133D

 32 37  0  0  1  0  0  0  0  0999 V2000
  161.1470  207.9200  152.0070 N   0  0  2  0  0  0  0  0  0  0  0  0
  161.4320  205.9010  150.6630 C   0  0  0  0  0  0  0  0  0  0  0  0
  161.4770  208.4880  153.3180 C   0  0  0  0  0  2  0  0  0  0  0  0
  161.6580  206.5400  151.9990 C   0  0  2  0  0  3  0  0  0  0  0  0
  161.2440  204.5230  150.5510 C   0  0  0  0  0  0  0  0  0  0  0  0
  160.7910  206.2700  145.8000 C   0  0  0  0  0  2  0  0  0  0  0  0
  161.4660  206.6960  149.5210 C   0  0  0  0  0  0  0  0  0  0  0  0
  160.8790  204.0220  146.8660 C   0  0  0  0  0  2  0  0  0  0  0  0
  161.1300  204.7050  148.1830 C   0  0  0  0  0  0  0  0  0  0  0  0
  161.0050  205.7310  153.0930 C   0  0  0  0  0  0  0  0  0  0  0  0
  161.0960  203.9590  149.3220 N   0  0  0  0  0  0  0  0  0  0  0  0
  160.8310  204.4450  152.9720 N   0  0  0  0  0  0  0  0  0  0  0  0
  160.6280  206.3940  154.3020 N   0  0  0  0  0  2  0  0  0  0  0  0
  161.6380  208.0790  149.6650 O   0  0  0  0  0  0  0  0  0  0  0  0
  161.8370  208.6850  150.9490 C   0  0  1  0  0  3  0  0  0  0  0  0
  161.2970  206.1080  148.2610 C   0  0  0  0  0  0  0  0  0  0  0  0
  161.2480  203.6720  151.7910 C   0  0  2  0  0  3  0  0  0  0  0  0
  160.5770  207.8540  154.3810 C   0  0  0  0  0  2  0  0  0  0  0  0
  161.3470  204.8590  145.6800 C   0  0  0  0  0  2  0  0  0  0  0  0
  161.3990  206.9570  147.0200 C   0  0  0  0  0  2  0  0  0  0  0  0
  161.2070  212.2970  149.8300 C   0  0  0  0  0  0  0  0  0  0  0  0
  161.4860  213.1260  148.7900 F   0  0  0  0  0  0  0  0  0  0  0  0
  160.1590  211.9130  151.9810 C   0  0  0  0  0  3  0  0  0  0  0  0
  161.3730  210.1150  150.8960 C   0  0  0  0  0  0  0  0  0  0  0  0
  160.4560  212.7680  150.9170 C   0  0  0  0  0  0  0  0  0  0  0  0
  160.6190  210.5960  151.9710 C   0  0  0  0  0  3  0  0  0  0  0  0
  161.6730  210.9740  149.8150 C   0  0  0  0  0  0  0  0  0  0  0  0
  162.6200  210.4210  148.4350 Cl  0  0  0  0  0  0  0  0  0  0  0  0
  158.8110  214.2600  150.1180 O   0  0  0  0  0  1  0  0  0  0  0  0
  159.9360  214.1640  150.9370 C   0  0  0  0  0  2  0  0  0  0  0  0
  162.6370  203.0940  152.0110 C   0  0  0  0  0  2  0  0  0  0  0  0
  162.5790  201.7000  152.0000 O   0  0  0  0  0  1  0  0  0  0  0  0
  1  3  1  1  0  0  0
  3 18  1  0  0  0  0
  4  2  1  6  0  0  0
  4  1  1  0  0  0  0
  4 10  1  0  0  0  0
  5  2  1  0  0  0  0
  5 17  1  0  0  0  0
  6 20  1  0  0  0  0
  7 14  1  0  0  0  0
  7  2  2  0  0  0  0
  8  9  1  0  0  0  0
  9 16  2  0  0  0  0
  9 11  1  0  0  0  0
 10 13  1  0  0  0  0
 11  5  2  0  0  0  0
 12 10  2  0  0  0  0
 13 18  1  0  0  0  0
 14 15  1  0  0  0  0
 15 24  1  6  0  0  0
 15  1  1  0  0  0  0
 16  7  1  0  0  0  0
 17 31  1  1  0  0  0
 17 12  1  0  0  0  0
 19  6  1  0  0  0  0
 19  8  1  0  0  0  0
 20 16  1  0  0  0  0
 21 25  1  0  0  0  0
 22 21  1  0  0  0  0
 24 26  2  0  0  0  0
 25 30  1  0  0  0  0
 25 23  2  0  0  0  0
 26 23  1  0  0  0  0
 27 21  2  0  0  0  0
 27 24  1  0  0  0  0
 28 27  1  0  0  0  0
 29 30  1  0  0  0  0
 32 31  1  0  0  0  0
M  END
>  <MODEL>
9

>  <REMARK>
 VINA RESULT:      -5.8      3.088      5.318
  Name = 
  3 active torsions:
  status: ('A' for Active; 'I' for Inactive)
    1  A    between atoms: C_13  and  CA_29
    2  A    between atoms: C_16  and  C_27
    3  A    between atoms: C_19  and  C_26
                            x       y       z     vdW  Elec       q    Type
                         _______ _______ _______ _____ _____    ______ ____

>  <TORSDO>
F 3

$$$$
