=
 OpenBabel11052422313D

 31 36  0  0  1  0  0  0  0  0999 V2000
  160.5980  201.8110  150.1100 C   0  0  0  0  0  0  0  0  0  0  0  0
  161.5490  205.2230  148.8750 C   0  0  0  0  0  0  0  0  0  0  0  0
  161.7150  205.0500  147.3990 C   0  0  0  0  0  0  0  0  0  0  0  0
  160.9290  203.2240  145.9260 C   0  0  0  0  0  3  0  0  0  0  0  0
  161.2890  204.0670  149.7810 C   0  0  0  0  0  0  0  0  0  0  0  0
  160.7750  201.9300  151.4890 C   0  0  0  0  0  3  0  0  0  0  0  0
  162.0170  203.6960  146.8300 C   0  0  0  0  0  2  0  0  0  0  0  0
  161.3900  206.6790  150.8940 C   0  0  2  0  0  3  0  0  0  0  0  0
  160.1500  200.5800  149.5540 N   0  0  0  0  0  1  0  0  0  0  0  0
  161.6250  207.4080  147.1880 O   0  0  0  0  0  0  0  0  0  0  0  0
  160.6210  203.8500  144.7930 C   0  0  0  0  0  3  0  0  0  0  0  0
  161.9500  205.5220  151.7230 C   0  0  0  0  0  2  0  0  0  0  0  0
  161.6310  206.4640  149.4130 C   0  0  0  0  0  0  0  0  0  0  0  0
  160.8550  202.8700  149.2950 N   0  0  0  0  0  0  0  0  0  0  0  0
  161.2410  205.1090  144.3390 C   0  0  0  0  0  3  0  0  0  0  0  0
  161.4570  204.2230  151.1700 C   0  0  0  0  0  0  0  0  0  0  0  0
  161.2110  203.1440  152.0190 C   0  0  0  0  0  3  0  0  0  0  0  0
  162.0000  207.6330  148.5440 C   0  0  0  0  0  2  0  0  0  0  0  0
  161.6860  206.1390  146.6030 C   0  0  0  0  0  0  0  0  0  0  0  0
  161.7070  206.0890  145.1230 C   0  0  0  0  0  3  0  0  0  0  0  0
  161.9490  207.8850  151.3330 O   0  0  0  0  0  0  0  0  0  0  0  0
  161.2660  208.5480  155.8780 C   0  0  0  0  0  0  0  0  0  0  0  0
  160.8440  207.2570  153.8040 C   0  0  0  0  0  2  0  0  0  0  0  0
  161.7700  210.7000  152.7620 C   0  0  0  0  0  2  0  0  0  0  0  0
  161.2440  210.1640  151.4340 C   0  0  0  0  0  2  0  0  0  0  0  0
  161.3380  208.6430  157.2610 O   0  0  0  0  0  1  0  0  0  0  0  0
  160.8540  208.6980  151.6540 C   0  0  2  0  0  3  0  0  0  0  0  0
  160.8530  207.4070  155.3070 C   0  0  0  0  0  3  0  0  0  0  0  0
  161.3030  209.7050  153.7490 C   0  0  0  0  0  0  0  0  0  0  0  0
  160.5160  208.6030  153.1390 C   0  0  2  0  0  3  0  0  0  0  0  0
  161.6380  209.7070  155.0400 C   0  0  0  0  0  3  0  0  0  0  0  0
  1  6  1  0  0  0  0
  2 13  2  0  0  0  0
  2  5  1  0  0  0  0
  3  2  1  0  0  0  0
  4  7  1  0  0  0  0
  5 16  2  0  0  0  0
  6 17  2  0  0  0  0
  7  3  1  0  0  0  0
  8 21  1  1  0  0  0
  8 12  1  0  0  0  0
  9  1  1  0  0  0  0
 10 18  1  0  0  0  0
 11  4  2  0  0  0  0
 13  8  1  0  0  0  0
 14  5  1  0  0  0  0
 14  1  2  0  0  0  0
 15 11  1  0  0  0  0
 15 20  2  0  0  0  0
 16 12  1  0  0  0  0
 16 17  1  0  0  0  0
 18 13  1  0  0  0  0
 19 10  1  0  0  0  0
 19  3  2  0  0  0  0
 20 19  1  0  0  0  0
 22 26  1  0  0  0  0
 23 28  1  0  0  0  0
 24 29  1  0  0  0  0
 25 27  1  0  0  0  0
 25 24  1  0  0  0  0
 27 21  1  1  0  0  0
 27 30  1  0  0  0  0
 28 22  2  0  0  0  0
 29 31  2  0  0  0  0
 30 29  1  0  0  0  0
 30 23  1  1  0  0  0
 31 22  1  0  0  0  0
M  END
>  <MODEL>
1

>  <REMARK>
 VINA RESULT:     -10.2      0.000      0.000
  Name = 
  2 active torsions:
  status: ('A' for Active; 'I' for Inactive)
    1  A    between atoms: C_9  and  O_23
    2  A    between atoms: C_15  and  O_23
                            x       y       z     vdW  Elec       q    Type
                         _______ _______ _______ _____ _____    ______ ____

>  <TORSDO>
F 2

$$$$
=
 OpenBabel11052422313D

 31 36  0  0  1  0  0  0  0  0999 V2000
  161.5430  211.1970  149.7820 C   0  0  0  0  0  0  0  0  0  0  0  0
  161.4590  208.3710  152.2470 C   0  0  0  0  0  0  0  0  0  0  0  0
  161.3500  209.0440  153.5780 C   0  0  0  0  0  0  0  0  0  0  0  0
  160.6910  211.3650  154.1240 C   0  0  0  0  0  3  0  0  0  0  0  0
  161.6480  209.1450  150.9850 C   0  0  0  0  0  0  0  0  0  0  0  0
  161.9720  210.5650  148.6140 C   0  0  0  0  0  3  0  0  0  0  0  0
  161.8130  210.4600  153.7450 C   0  0  0  0  0  2  0  0  0  0  0  0
  161.4110  206.3170  150.8330 C   0  0  2  0  0  3  0  0  0  0  0  0
  161.2670  212.5930  149.7740 N   0  0  0  0  0  1  0  0  0  0  0  0
  160.7120  206.9550  154.4980 O   0  0  0  0  0  0  0  0  0  0  0  0
  160.0270  211.2380  155.2710 C   0  0  0  0  0  3  0  0  0  0  0  0
  162.3660  207.0120  149.8620 C   0  0  0  0  0  2  0  0  0  0  0  0
  161.3810  207.0210  152.1760 C   0  0  0  0  0  0  0  0  0  0  0  0
  161.3920  210.4820  150.9290 N   0  0  0  0  0  0  0  0  0  0  0  0
  160.2530  210.1590  156.2510 C   0  0  0  0  0  3  0  0  0  0  0  0
  162.0620  208.4750  149.8180 C   0  0  0  0  0  0  0  0  0  0  0  0
  162.2350  209.1960  148.6360 C   0  0  0  0  0  3  0  0  0  0  0  0
  161.3020  206.2080  153.4380 C   0  0  0  0  0  2  0  0  0  0  0  0
  160.9230  208.3310  154.6410 C   0  0  0  0  0  0  0  0  0  0  0  0
  160.6480  208.9100  155.9760 C   0  0  0  0  0  3  0  0  0  0  0  0
  161.7740  204.9720  150.9690 O   0  0  0  0  0  0  0  0  0  0  0  0
  161.2720  201.5270  147.8960 C   0  0  0  0  0  0  0  0  0  0  0  0
  160.9810  203.9060  148.5280 C   0  0  0  0  0  2  0  0  0  0  0  0
  161.1310  201.9610  151.6890 C   0  0  0  0  0  2  0  0  0  0  0  0
  160.6370  203.2970  152.2350 C   0  0  0  0  0  2  0  0  0  0  0  0
  161.4140  200.5280  146.9440 O   0  0  0  0  0  1  0  0  0  0  0  0
  160.5620  204.2740  151.0560 C   0  0  2  0  0  3  0  0  0  0  0  0
  161.0590  202.7940  147.5100 C   0  0  0  0  0  3  0  0  0  0  0  0
  160.9370  202.0880  150.2310 C   0  0  0  0  0  0  0  0  0  0  0  0
  160.3480  203.3910  149.8300 C   0  0  2  0  0  3  0  0  0  0  0  0
  161.3500  201.1900  149.3330 C   0  0  0  0  0  3  0  0  0  0  0  0
  1 14  1  0  0  0  0
  2  3  1  0  0  0  0
  3  7  1  0  0  0  0
  3 19  2  0  0  0  0
  4 11  2  0  0  0  0
  5  2  1  0  0  0  0
  6 17  1  0  0  0  0
  6  1  2  0  0  0  0
  7  4  1  0  0  0  0
  8 21  1  1  0  0  0
  8 13  1  0  0  0  0
  9  1  1  0  0  0  0
 10 19  1  0  0  0  0
 11 15  1  0  0  0  0
 12  8  1  0  0  0  0
 13  2  2  0  0  0  0
 13 18  1  0  0  0  0
 14  5  2  0  0  0  0
 16 12  1  0  0  0  0
 16  5  1  0  0  0  0
 17 16  2  0  0  0  0
 18 10  1  0  0  0  0
 19 20  1  0  0  0  0
 20 15  2  0  0  0  0
 22 31  1  0  0  0  0
 24 25  1  0  0  0  0
 26 22  1  0  0  0  0
 27 21  1  6  0  0  0
 27 25  1  0  0  0  0
 28 22  2  0  0  0  0
 28 23  1  0  0  0  0
 29 24  1  0  0  0  0
 30 23  1  6  0  0  0
 30 29  1  0  0  0  0
 30 27  1  0  0  0  0
 31 29  2  0  0  0  0
M  END
>  <MODEL>
2

>  <REMARK>
 VINA RESULT:     -10.2      3.011      8.385
  Name = 
  2 active torsions:
  status: ('A' for Active; 'I' for Inactive)
    1  A    between atoms: C_9  and  O_23
    2  A    between atoms: C_15  and  O_23
                            x       y       z     vdW  Elec       q    Type
                         _______ _______ _______ _____ _____    ______ ____

>  <TORSDO>
F 2

$$$$
=
 OpenBabel11052422313D

 31 36  0  0  1  0  0  0  0  0999 V2000
  161.2190  211.7580  150.4840 C   0  0  0  0  0  0  0  0  0  0  0  0
  161.1960  208.7860  152.7720 C   0  0  0  0  0  0  0  0  0  0  0  0
  160.9890  209.3690  154.1340 C   0  0  0  0  0  0  0  0  0  0  0  0
  160.1710  211.6110  154.7830 C   0  0  0  0  0  3  0  0  0  0  0  0
  161.3930  209.6450  151.5680 C   0  0  0  0  0  0  0  0  0  0  0  0
  161.7350  211.2240  149.3020 C   0  0  0  0  0  3  0  0  0  0  0  0
  161.3600  210.7960  154.4050 C   0  0  0  0  0  2  0  0  0  0  0  0
  161.3300  206.8230  151.2400 C   0  0  2  0  0  3  0  0  0  0  0  0
  160.8620  213.1340  150.5450 N   0  0  0  0  0  1  0  0  0  0  0  0
  160.4360  207.1950  154.8980 O   0  0  0  0  0  0  0  0  0  0  0  0
  159.4660  211.3770  155.8880 C   0  0  0  0  0  3  0  0  0  0  0  0
  162.2840  207.6290  150.3570 C   0  0  0  0  0  2  0  0  0  0  0  0
  161.2000  207.4410  152.6180 C   0  0  0  0  0  0  0  0  0  0  0  0
  161.0610  210.9660  151.5780 N   0  0  0  0  0  0  0  0  0  0  0  0
  159.7130  210.2550  156.8130 C   0  0  0  0  0  3  0  0  0  0  0  0
  161.8960  209.0730  150.3840 C   0  0  0  0  0  0  0  0  0  0  0  0
  162.0780  209.8730  149.2560 C   0  0  0  0  0  3  0  0  0  0  0  0
  161.1150  206.5480  153.8250 C   0  0  0  0  0  2  0  0  0  0  0  0
  160.5590  208.5690  155.1320 C   0  0  0  0  0  0  0  0  0  0  0  0
  160.1930  209.0490  156.4840 C   0  0  0  0  0  3  0  0  0  0  0  0
  161.7660  205.4950  151.3130 O   0  0  0  0  0  0  0  0  0  0  0  0
  161.3780  203.5150  147.1310 C   0  0  0  0  0  0  0  0  0  0  0  0
  160.9460  205.4180  148.6590 C   0  0  0  0  0  2  0  0  0  0  0  0
  161.3710  202.4030  150.7860 C   0  0  0  0  0  2  0  0  0  0  0  0
  160.8070  203.3690  151.8230 C   0  0  0  0  0  2  0  0  0  0  0  0
  161.5500  202.9890  145.8580 O   0  0  0  0  0  1  0  0  0  0  0  0
  160.6120  204.7220  151.1300 C   0  0  2  0  0  3  0  0  0  0  0  0
  161.0590  204.8090  147.2820 C   0  0  0  0  0  3  0  0  0  0  0  0
  161.1060  203.0780  149.5000 C   0  0  0  0  0  0  0  0  0  0  0  0
  160.4090  204.3800  149.6560 C   0  0  2  0  0  3  0  0  0  0  0  0
  161.5420  202.6450  148.3150 C   0  0  0  0  0  3  0  0  0  0  0  0
  1  9  1  0  0  0  0
  1 14  1  0  0  0  0
  2  3  1  0  0  0  0
  3  7  1  0  0  0  0
  3 19  2  0  0  0  0
  4 11  2  0  0  0  0
  5 14  2  0  0  0  0
  5  2  1  0  0  0  0
  6  1  2  0  0  0  0
  7  4  1  0  0  0  0
  8 21  1  1  0  0  0
  8 13  1  0  0  0  0
 10 19  1  0  0  0  0
 11 15  1  0  0  0  0
 12 16  1  0  0  0  0
 12  8  1  0  0  0  0
 13  2  2  0  0  0  0
 13 18  1  0  0  0  0
 16  5  1  0  0  0  0
 17  6  1  0  0  0  0
 17 16  2  0  0  0  0
 18 10  1  0  0  0  0
 19 20  1  0  0  0  0
 20 15  2  0  0  0  0
 22 28  2  0  0  0  0
 22 31  1  0  0  0  0
 24 25  1  0  0  0  0
 26 22  1  0  0  0  0
 27 21  1  6  0  0  0
 27 25  1  0  0  0  0
 28 23  1  0  0  0  0
 29 30  1  0  0  0  0
 29 24  1  0  0  0  0
 30 23  1  6  0  0  0
 30 27  1  0  0  0  0
 31 29  2  0  0  0  0
M  END
>  <MODEL>
3

>  <REMARK>
 VINA RESULT:      -9.4      2.954      8.560
  Name = 
  2 active torsions:
  status: ('A' for Active; 'I' for Inactive)
    1  A    between atoms: C_9  and  O_23
    2  A    between atoms: C_15  and  O_23
                            x       y       z     vdW  Elec       q    Type
                         _______ _______ _______ _____ _____    ______ ____

>  <TORSDO>
F 2

$$$$
=
 OpenBabel11052422313D

 31 36  0  0  1  0  0  0  0  0999 V2000
  160.9150  208.1270  154.2250 C   0  0  0  0  0  0  0  0  0  0  0  0
  161.6220  207.8120  150.5550 C   0  0  0  0  0  0  0  0  0  0  0  0
  161.6670  206.3370  150.3110 C   0  0  0  0  0  0  0  0  0  0  0  0
  160.8310  204.4800  151.7150 C   0  0  0  0  0  3  0  0  0  0  0  0
  161.4870  208.3820  151.9270 C   0  0  0  0  0  0  0  0  0  0  0  0
  161.2060  209.4700  154.4740 C   0  0  0  0  0  3  0  0  0  0  0  0
  161.9720  205.3980  151.4400 C   0  0  0  0  0  2  0  0  0  0  0  0
  161.5810  210.1590  149.7120 C   0  0  2  0  0  3  0  0  0  0  0  0
  160.4700  207.2890  155.2850 N   0  0  0  0  0  1  0  0  0  0  0  0
  161.4670  206.7890  147.9940 O   0  0  0  0  0  0  0  0  0  0  0  0
  160.4020  203.5880  150.8260 C   0  0  0  0  0  3  0  0  0  0  0  0
  162.2540  210.5960  151.0140 C   0  0  0  0  0  2  0  0  0  0  0  0
  161.7010  208.6620  149.5030 C   0  0  0  0  0  0  0  0  0  0  0  0
  161.0600  207.6180  152.9720 N   0  0  0  0  0  0  0  0  0  0  0  0
  160.9300  203.4530  149.4560 C   0  0  0  0  0  3  0  0  0  0  0  0
  161.7670  209.7440  152.1430 C   0  0  0  0  0  0  0  0  0  0  0  0
  161.6370  210.2800  153.4240 C   0  0  0  0  0  3  0  0  0  0  0  0
  161.9480  208.1240  148.1220 C   0  0  0  0  0  2  0  0  0  0  0  0
  161.5270  205.8750  149.0510 C   0  0  0  0  0  0  0  0  0  0  0  0
  161.4230  204.4410  148.6980 C   0  0  0  0  0  3  0  0  0  0  0  0
  162.1270  210.8710  148.6380 O   0  0  0  0  0  0  0  0  0  0  0  0
  161.8750  213.8150  145.0550 C   0  0  0  0  0  0  0  0  0  0  0  0
  163.2150  212.5790  146.7350 C   0  0  0  0  0  2  0  0  0  0  0  0
  159.7980  212.9520  148.1440 C   0  0  0  0  0  2  0  0  0  0  0  0
  160.5400  212.4870  149.3930 C   0  0  0  0  0  2  0  0  0  0  0  0
  161.7450  214.4490  143.8270 O   0  0  0  0  0  1  0  0  0  0  0  0
  161.9940  212.2200  148.9900 C   0  0  2  0  0  3  0  0  0  0  0  0
  163.0690  213.3420  145.4400 C   0  0  0  0  0  3  0  0  0  0  0  0
  160.8830  213.3170  147.2100 C   0  0  0  0  0  0  0  0  0  0  0  0
  162.2390  213.1280  147.7870 C   0  0  2  0  0  3  0  0  0  0  0  0
  160.6970  213.6670  145.9350 C   0  0  0  0  0  3  0  0  0  0  0  0
  1  6  1  0  0  0  0
  1  9  1  0  0  0  0
  2  5  1  0  0  0  0
  3  2  1  0  0  0  0
  3  7  1  0  0  0  0
  5 16  2  0  0  0  0
  5 14  1  0  0  0  0
  7  4  1  0  0  0  0
  8 21  1  6  0  0  0
  8 12  1  0  0  0  0
 10 18  1  0  0  0  0
 10 19  1  0  0  0  0
 11  4  2  0  0  0  0
 12 16  1  0  0  0  0
 13  8  1  0  0  0  0
 13  2  2  0  0  0  0
 14  1  2  0  0  0  0
 15 11  1  0  0  0  0
 16 17  1  0  0  0  0
 17  6  2  0  0  0  0
 18 13  1  0  0  0  0
 19  3  2  0  0  0  0
 20 19  1  0  0  0  0
 20 15  2  0  0  0  0
 22 28  2  0  0  0  0
 22 31  1  0  0  0  0
 24 25  1  0  0  0  0
 26 22  1  0  0  0  0
 27 21  1  6  0  0  0
 27 25  1  0  0  0  0
 28 23  1  0  0  0  0
 29 30  1  0  0  0  0
 29 24  1  0  0  0  0
 30 23  1  6  0  0  0
 30 27  1  0  0  0  0
 31 29  2  0  0  0  0
M  END
>  <MODEL>
4

>  <REMARK>
 VINA RESULT:      -9.2      3.780      6.775
  Name = 
  2 active torsions:
  status: ('A' for Active; 'I' for Inactive)
    1  A    between atoms: C_9  and  O_23
    2  A    between atoms: C_15  and  O_23
                            x       y       z     vdW  Elec       q    Type
                         _______ _______ _______ _____ _____    ______ ____

>  <TORSDO>
F 2

$$$$
=
 OpenBabel11052422313D

 31 36  0  0  1  0  0  0  0  0999 V2000
  159.9980  211.9150  154.3020 C   0  0  0  0  0  0  0  0  0  0  0  0
  161.1980  210.3890  151.0920 C   0  0  0  0  0  0  0  0  0  0  0  0
  161.0450  211.4820  150.0830 C   0  0  0  0  0  0  0  0  0  0  0  0
  160.7470  213.9140  150.4230 C   0  0  0  0  0  3  0  0  0  0  0  0
  160.7130  210.5370  152.4950 C   0  0  0  0  0  0  0  0  0  0  0  0
  159.8430  210.7990  155.1260 C   0  0  0  0  0  3  0  0  0  0  0  0
  160.0660  212.5920  150.3200 C   0  0  0  0  0  2  0  0  0  0  0  0
  162.0370  208.1350  151.7530 C   0  0  2  0  0  3  0  0  0  0  0  0
  159.7060  213.2140  154.8030 N   0  0  0  0  0  1  0  0  0  0  0  0
  162.4550  210.2420  148.6380 O   0  0  0  0  0  0  0  0  0  0  0  0
  161.4150  214.4530  149.4060 C   0  0  0  0  0  3  0  0  0  0  0  0
  160.8800  208.0400  152.7480 C   0  0  0  0  0  2  0  0  0  0  0  0
  161.7980  209.2300  150.7320 C   0  0  0  0  0  0  0  0  0  0  0  0
  160.4250  211.7610  153.0200 N   0  0  0  0  0  0  0  0  0  0  0  0
  161.6360  213.7920  148.1070 C   0  0  0  0  0  3  0  0  0  0  0  0
  160.5860  209.3950  153.3090 C   0  0  0  0  0  0  0  0  0  0  0  0
  160.1370  209.5320  154.6220 C   0  0  0  0  0  3  0  0  0  0  0  0
  162.1980  209.0070  149.3000 C   0  0  0  0  0  2  0  0  0  0  0  0
  161.7240  211.4010  148.9200 C   0  0  0  0  0  0  0  0  0  0  0  0
  161.7590  212.4750  147.9010 C   0  0  0  0  0  3  0  0  0  0  0  0
  162.2300  206.8930  151.1370 O   0  0  0  0  0  0  0  0  0  0  0  0
  161.2180  203.8590  147.7690 C   0  0  0  0  0  0  0  0  0  0  0  0
  161.0930  206.1480  148.7120 C   0  0  0  0  0  2  0  0  0  0  0  0
  161.5820  203.8290  151.5730 C   0  0  0  0  0  2  0  0  0  0  0  0
  161.2080  205.0970  152.3330 C   0  0  0  0  0  2  0  0  0  0  0  0
  161.2030  202.9820  146.6950 O   0  0  0  0  0  1  0  0  0  0  0  0
  161.0160  206.2130  151.2990 C   0  0  2  0  0  3  0  0  0  0  0  0
  161.0010  205.1670  147.5680 C   0  0  0  0  0  3  0  0  0  0  0  0
  161.2060  204.1370  150.1780 C   0  0  0  0  0  0  0  0  0  0  0  0
  160.6160  205.4900  150.0160 C   0  0  2  0  0  3  0  0  0  0  0  0
  161.4690  203.3480  149.1330 C   0  0  0  0  0  3  0  0  0  0  0  0
  1  9  1  0  0  0  0
  1  6  1  0  0  0  0
  2  5  1  0  0  0  0
  3  7  1  0  0  0  0
  3  2  1  0  0  0  0
  5 14  1  0  0  0  0
  5 16  2  0  0  0  0
  7  4  1  0  0  0  0
  8 21  1  6  0  0  0
  8 12  1  0  0  0  0
 10 19  1  0  0  0  0
 10 18  1  0  0  0  0
 11  4  2  0  0  0  0
 12 16  1  0  0  0  0
 13  2  2  0  0  0  0
 13  8  1  0  0  0  0
 14  1  2  0  0  0  0
 15 11  1  0  0  0  0
 16 17  1  0  0  0  0
 17  6  2  0  0  0  0
 18 13  1  0  0  0  0
 19  3  2  0  0  0  0
 20 15  2  0  0  0  0
 20 19  1  0  0  0  0
 22 31  1  0  0  0  0
 24 25  1  0  0  0  0
 26 22  1  0  0  0  0
 27 21  1  6  0  0  0
 27 25  1  0  0  0  0
 28 22  2  0  0  0  0
 28 23  1  0  0  0  0
 29 24  1  0  0  0  0
 30 23  1  6  0  0  0
 30 29  1  0  0  0  0
 30 27  1  0  0  0  0
 31 29  2  0  0  0  0
M  END
>  <MODEL>
5

>  <REMARK>
 VINA RESULT:      -9.0      3.568      7.660
  Name = 
  2 active torsions:
  status: ('A' for Active; 'I' for Inactive)
    1  A    between atoms: C_9  and  O_23
    2  A    between atoms: C_15  and  O_23
                            x       y       z     vdW  Elec       q    Type
                         _______ _______ _______ _____ _____    ______ ____

>  <TORSDO>
F 2

$$$$
=
 OpenBabel11052422313D

 31 36  0  0  1  0  0  0  0  0999 V2000
  160.0120  209.2210  156.2580 C   0  0  0  0  0  0  0  0  0  0  0  0
  160.7160  209.2160  152.5740 C   0  0  0  0  0  0  0  0  0  0  0  0
  160.2270  210.5480  152.1010 C   0  0  0  0  0  0  0  0  0  0  0  0
  159.7050  212.5880  153.3990 C   0  0  0  0  0  3  0  0  0  0  0  0
  160.5110  208.7520  153.9770 C   0  0  0  0  0  0  0  0  0  0  0  0
  160.1670  207.8750  156.5960 C   0  0  0  0  0  3  0  0  0  0  0  0
  159.1860  211.2880  152.8870 C   0  0  0  0  0  2  0  0  0  0  0  0
  161.9440  207.0810  152.1800 C   0  0  2  0  0  3  0  0  0  0  0  0
  159.6690  210.1700  157.2610 N   0  0  0  0  0  1  0  0  0  0  0  0
  161.4570  210.2090  150.1050 O   0  0  0  0  0  0  0  0  0  0  0  0
  160.0810  213.5760  152.5900 C   0  0  0  0  0  3  0  0  0  0  0  0
  161.0340  206.4140  153.2120 C   0  0  0  0  0  2  0  0  0  0  0  0
  161.3700  208.4030  151.7100 C   0  0  0  0  0  0  0  0  0  0  0  0
  160.1860  209.6260  154.9710 N   0  0  0  0  0  0  0  0  0  0  0  0
  160.1140  213.4830  151.1180 C   0  0  0  0  0  3  0  0  0  0  0  0
  160.6940  207.3920  154.2910 C   0  0  0  0  0  0  0  0  0  0  0  0
  160.5070  206.9580  155.6030 C   0  0  0  0  0  3  0  0  0  0  0  0
  161.4950  208.7930  150.2640 C   0  0  0  0  0  2  0  0  0  0  0  0
  160.6600  211.0240  150.9160 C   0  0  0  0  0  0  0  0  0  0  0  0
  160.3550  212.3790  150.4010 C   0  0  0  0  0  3  0  0  0  0  0  0
  162.1600  206.2070  151.1090 O   0  0  0  0  0  0  0  0  0  0  0  0
  161.6170  204.5450  146.8060 C   0  0  0  0  0  0  0  0  0  0  0  0
  161.4240  206.4040  148.4360 C   0  0  0  0  0  2  0  0  0  0  0  0
  161.3260  203.2440  150.3870 C   0  0  0  0  0  2  0  0  0  0  0  0
  160.8800  204.2240  151.4660 C   0  0  0  0  0  2  0  0  0  0  0  0
  161.7500  204.0710  145.5090 O   0  0  0  0  0  1  0  0  0  0  0  0
  160.9110  205.6280  150.8520 C   0  0  2  0  0  3  0  0  0  0  0  0
  161.4890  205.8620  147.0280 C   0  0  0  0  0  3  0  0  0  0  0  0
  161.2060  204.0230  149.1380 C   0  0  0  0  0  0  0  0  0  0  0  0
  160.7060  205.4040  149.3560 C   0  0  2  0  0  3  0  0  0  0  0  0
  161.6110  203.5960  147.9390 C   0  0  0  0  0  3  0  0  0  0  0  0
  1  6  1  0  0  0  0
  1  9  1  0  0  0  0
  2  5  1  0  0  0  0
  3  2  1  0  0  0  0
  3  7  1  0  0  0  0
  5 16  2  0  0  0  0
  5 14  1  0  0  0  0
  7  4  1  0  0  0  0
  8 21  1  6  0  0  0
  8 12  1  0  0  0  0
 10 18  1  0  0  0  0
 10 19  1  0  0  0  0
 11  4  2  0  0  0  0
 12 16  1  0  0  0  0
 13  8  1  0  0  0  0
 13  2  2  0  0  0  0
 14  1  2  0  0  0  0
 15 11  1  0  0  0  0
 16 17  1  0  0  0  0
 17  6  2  0  0  0  0
 18 13  1  0  0  0  0
 19  3  2  0  0  0  0
 20 19  1  0  0  0  0
 20 15  2  0  0  0  0
 22 28  2  0  0  0  0
 22 31  1  0  0  0  0
 24 25  1  0  0  0  0
 26 22  1  0  0  0  0
 27 21  1  6  0  0  0
 27 25  1  0  0  0  0
 28 23  1  0  0  0  0
 29 30  1  0  0  0  0
 29 24  1  0  0  0  0
 30 23  1  6  0  0  0
 30 27  1  0  0  0  0
 31 29  2  0  0  0  0
M  END
>  <MODEL>
6

>  <REMARK>
 VINA RESULT:      -8.2      3.110      7.750
  Name = 
  2 active torsions:
  status: ('A' for Active; 'I' for Inactive)
    1  A    between atoms: C_9  and  O_23
    2  A    between atoms: C_15  and  O_23
                            x       y       z     vdW  Elec       q    Type
                         _______ _______ _______ _____ _____    ______ ____

>  <TORSDO>
F 2

$$$$
=
 OpenBabel11052422313D

 31 36  0  0  1  0  0  0  0  0999 V2000
  161.0710  205.5210  145.8440 C   0  0  0  0  0  0  0  0  0  0  0  0
  161.3270  204.7140  149.4990 C   0  0  0  0  0  0  0  0  0  0  0  0
  160.9430  203.2720  149.5880 C   0  0  0  0  0  0  0  0  0  0  0  0
  160.8170  201.5600  147.8070 C   0  0  0  0  0  3  0  0  0  0  0  0
  161.2380  205.4780  148.2200 C   0  0  0  0  0  0  0  0  0  0  0  0
  161.1080  206.9160  145.8410 C   0  0  0  0  0  3  0  0  0  0  0  0
  160.0950  202.6530  148.5180 C   0  0  0  0  0  2  0  0  0  0  0  0
  162.2450  206.7920  150.5290 C   0  0  2  0  0  3  0  0  0  0  0  0
  160.9610  204.8100  144.6170 N   0  0  0  0  0  1  0  0  0  0  0  0
  161.8800  203.2330  151.7630 O   0  0  0  0  0  0  0  0  0  0  0  0
  161.2060  200.4450  148.4210 C   0  0  0  0  0  3  0  0  0  0  0  0
  161.3930  207.6040  149.5540 C   0  0  0  0  0  2  0  0  0  0  0  0
  161.7760  205.3530  150.6060 C   0  0  0  0  0  0  0  0  0  0  0  0
  161.1360  204.8400  147.0200 N   0  0  0  0  0  0  0  0  0  0  0  0
  161.0540  200.1900  149.8650 C   0  0  0  0  0  3  0  0  0  0  0  0
  161.2990  206.8840  148.2460 C   0  0  0  0  0  0  0  0  0  0  0  0
  161.2200  207.5990  147.0510 C   0  0  0  0  0  3  0  0  0  0  0  0
  161.7730  204.6440  151.9320 C   0  0  0  0  0  2  0  0  0  0  0  0
  161.2850  202.5680  150.6870 C   0  0  0  0  0  0  0  0  0  0  0  0
  161.0790  201.1090  150.8380 C   0  0  0  0  0  3  0  0  0  0  0  0
  162.2310  207.4030  151.7880 O   0  0  0  0  0  0  0  0  0  0  0  0
  160.4620  208.5760  155.9190 C   0  0  0  0  0  0  0  0  0  0  0  0
  160.4740  207.1080  153.9210 C   0  0  0  0  0  2  0  0  0  0  0  0
  161.9440  210.3570  152.8810 C   0  0  0  0  0  2  0  0  0  0  0  0
  161.7320  209.7220  151.5100 C   0  0  0  0  0  2  0  0  0  0  0  0
  160.1840  208.8090  157.2580 O   0  0  0  0  0  1  0  0  0  0  0  0
  161.1680  208.3150  151.7390 C   0  0  2  0  0  3  0  0  0  0  0  0
  160.1100  207.4110  155.3550 C   0  0  0  0  0  3  0  0  0  0  0  0
  161.1500  209.5020  153.7870 C   0  0  0  0  0  0  0  0  0  0  0  0
  160.4510  208.3960  153.0840 C   0  0  2  0  0  3  0  0  0  0  0  0
  161.1410  209.6150  155.1170 C   0  0  0  0  0  3  0  0  0  0  0  0
  1 14  1  0  0  0  0
  2  3  1  0  0  0  0
  2 13  2  0  0  0  0
  3 19  2  0  0  0  0
  4 11  2  0  0  0  0
  4  7  1  0  0  0  0
  5 16  1  0  0  0  0
  5  2  1  0  0  0  0
  6  1  2  0  0  0  0
  6 17  1  0  0  0  0
  7  3  1  0  0  0  0
  8 13  1  0  0  0  0
  8 21  1  1  0  0  0
  9  1  1  0  0  0  0
 10 18  1  0  0  0  0
 11 15  1  0  0  0  0
 12  8  1  0  0  0  0
 13 18  1  0  0  0  0
 14  5  2  0  0  0  0
 15 20  2  0  0  0  0
 16 12  1  0  0  0  0
 17 16  2  0  0  0  0
 19 20  1  0  0  0  0
 19 10  1  0  0  0  0
 22 26  1  0  0  0  0
 23 28  1  0  0  0  0
 24 29  1  0  0  0  0
 25 27  1  0  0  0  0
 25 24  1  0  0  0  0
 27 21  1  1  0  0  0
 27 30  1  0  0  0  0
 28 22  2  0  0  0  0
 29 31  2  0  0  0  0
 30 29  1  0  0  0  0
 30 23  1  1  0  0  0
 31 22  1  0  0  0  0
M  END
>  <MODEL>
7

>  <REMARK>
 VINA RESULT:      -8.2      1.734      3.904
  Name = 
  2 active torsions:
  status: ('A' for Active; 'I' for Inactive)
    1  A    between atoms: C_9  and  O_23
    2  A    between atoms: C_15  and  O_23
                            x       y       z     vdW  Elec       q    Type
                         _______ _______ _______ _____ _____    ______ ____

>  <TORSDO>
F 2

$$$$
=
 OpenBabel11052422313D

 31 36  0  0  1  0  0  0  0  0999 V2000
  162.1610  206.2650  146.8660 C   0  0  0  0  0  0  0  0  0  0  0  0
  161.0160  204.7080  150.0810 C   0  0  0  0  0  0  0  0  0  0  0  0
  160.7900  203.2700  149.7360 C   0  0  0  0  0  0  0  0  0  0  0  0
  161.5810  201.9720  147.7850 C   0  0  0  0  0  3  0  0  0  0  0  0
  161.3630  205.7220  149.0440 C   0  0  0  0  0  0  0  0  0  0  0  0
  162.0410  207.6300  147.1340 C   0  0  0  0  0  3  0  0  0  0  0  0
  160.5180  202.8710  148.3170 C   0  0  0  0  0  2  0  0  0  0  0  0
  161.2060  206.5420  151.7600 C   0  0  2  0  0  3  0  0  0  0  0  0
  162.6330  205.8290  145.5970 N   0  0  0  0  0  1  0  0  0  0  0  0
  160.7730  202.7940  152.0570 O   0  0  0  0  0  0  0  0  0  0  0  0
  161.8120  200.7620  148.2890 C   0  0  0  0  0  3  0  0  0  0  0  0
  160.7330  207.5210  150.6850 C   0  0  0  0  0  2  0  0  0  0  0  0
  160.9080  205.1070  151.3710 C   0  0  0  0  0  0  0  0  0  0  0  0
  161.8240  205.3520  147.8160 N   0  0  0  0  0  0  0  0  0  0  0  0
  161.1210  200.2030  149.4660 C   0  0  0  0  0  3  0  0  0  0  0  0
  161.2520  207.0920  149.3500 C   0  0  0  0  0  0  0  0  0  0  0  0
  161.5810  208.0420  148.3840 C   0  0  0  0  0  3  0  0  0  0  0  0
  160.4510  204.1340  152.4210 C   0  0  0  0  0  2  0  0  0  0  0  0
  160.7380  202.3570  150.7290 C   0  0  0  0  0  0  0  0  0  0  0  0
  160.6520  200.8950  150.5110 C   0  0  0  0  0  3  0  0  0  0  0  0
  160.6190  206.8710  152.9880 O   0  0  0  0  0  0  0  0  0  0  0  0
  159.3510  211.0690  154.5170 C   0  0  0  0  0  0  0  0  0  0  0  0
  160.3450  209.6270  152.7620 C   0  0  0  0  0  2  0  0  0  0  0  0
  160.7740  207.8440  155.9920 C   0  0  0  0  0  2  0  0  0  0  0  0
  161.6970  207.0070  155.1140 C   0  0  0  0  0  2  0  0  0  0  0  0
  158.6980  212.2250  154.9180 O   0  0  0  0  0  1  0  0  0  0  0  0
  161.6100  207.5680  153.6900 C   0  0  2  0  0  3  0  0  0  0  0  0
  159.7060  210.9110  153.2330 C   0  0  0  0  0  3  0  0  0  0  0  0
  160.5210  209.0510  155.1790 C   0  0  0  0  0  0  0  0  0  0  0  0
  161.2260  209.0340  153.8730 C   0  0  2  0  0  3  0  0  0  0  0  0
  159.6580  210.0160  155.5070 C   0  0  0  0  0  3  0  0  0  0  0  0
  1  6  2  0  0  0  0
  1 14  1  0  0  0  0
  2 13  2  0  0  0  0
  3  2  1  0  0  0  0
  3 19  2  0  0  0  0
  4 11  2  0  0  0  0
  4  7  1  0  0  0  0
  5 16  1  0  0  0  0
  5  2  1  0  0  0  0
  6 17  1  0  0  0  0
  7  3  1  0  0  0  0
  8 21  1  1  0  0  0
  9  1  1  0  0  0  0
 10 18  1  0  0  0  0
 11 15  1  0  0  0  0
 12  8  1  0  0  0  0
 13  8  1  0  0  0  0
 13 18  1  0  0  0  0
 14  5  2  0  0  0  0
 15 20  2  0  0  0  0
 16 12  1  0  0  0  0
 17 16  2  0  0  0  0
 19 10  1  0  0  0  0
 20 19  1  0  0  0  0
 22 26  1  0  0  0  0
 22 31  1  0  0  0  0
 23 28  1  0  0  0  0
 25 24  1  0  0  0  0
 27 21  1  6  0  0  0
 27 30  1  0  0  0  0
 27 25  1  0  0  0  0
 28 22  2  0  0  0  0
 29 31  2  0  0  0  0
 29 24  1  0  0  0  0
 30 23  1  6  0  0  0
 30 29  1  0  0  0  0
M  END
>  <MODEL>
8

>  <REMARK>
 VINA RESULT:      -8.1      2.262      4.385
  Name = 
  2 active torsions:
  status: ('A' for Active; 'I' for Inactive)
    1  A    between atoms: C_9  and  O_23
    2  A    between atoms: C_15  and  O_23
                            x       y       z     vdW  Elec       q    Type
                         _______ _______ _______ _____ _____    ______ ____

>  <TORSDO>
F 2

$$$$
=
 OpenBabel11052422313D

 31 36  0  0  1  0  0  0  0  0999 V2000
  162.2060  208.2440  148.4070 C   0  0  0  0  0  0  0  0  0  0  0  0
  161.2290  206.9080  151.7730 C   0  0  0  0  0  0  0  0  0  0  0  0
  160.8480  205.4850  151.5110 C   0  0  0  0  0  0  0  0  0  0  0  0
  161.3410  204.0550  149.5540 C   0  0  0  0  0  3  0  0  0  0  0  0
  161.5670  207.8510  150.6680 C   0  0  0  0  0  0  0  0  0  0  0  0
  162.2310  209.6220  148.6260 C   0  0  0  0  0  3  0  0  0  0  0  0
  160.4130  205.0640  150.1390 C   0  0  0  0  0  2  0  0  0  0  0  0
  161.7310  208.7730  153.3500 C   0  0  2  0  0  3  0  0  0  0  0  0
  162.5190  207.7230  147.1210 N   0  0  0  0  0  1  0  0  0  0  0  0
  161.0020  205.0920  153.8420 O   0  0  0  0  0  0  0  0  0  0  0  0
  161.5100  202.8480  150.0870 C   0  0  0  0  0  3  0  0  0  0  0  0
  161.2490  209.7540  152.2810 C   0  0  0  0  0  2  0  0  0  0  0  0
  161.2750  207.3590  153.0490 C   0  0  0  0  0  0  0  0  0  0  0  0
  161.8790  207.3980  149.4210 N   0  0  0  0  0  0  0  0  0  0  0  0
  160.8840  202.3930  151.3420 C   0  0  0  0  0  3  0  0  0  0  0  0
  161.6040  209.2350  150.9240 C   0  0  0  0  0  0  0  0  0  0  0  0
  161.9250  210.1180  149.8930 C   0  0  0  0  0  3  0  0  0  0  0  0
  160.8330  206.4680  154.1760 C   0  0  0  0  0  2  0  0  0  0  0  0
  160.8080  204.6160  152.5420 C   0  0  0  0  0  0  0  0  0  0  0  0
  160.5750  203.1610  152.3940 C   0  0  0  0  0  3  0  0  0  0  0  0
  161.2910  209.1960  154.6100 O   0  0  0  0  0  0  0  0  0  0  0  0
  158.1490  212.0010  156.5680 C   0  0  0  0  0  0  0  0  0  0  0  0
  159.1160  210.9260  154.5540 C   0  0  0  0  0  2  0  0  0  0  0  0
  161.8170  211.0730  157.0990 C   0  0  0  0  0  2  0  0  0  0  0  0
  162.6440  210.7060  155.8710 C   0  0  0  0  0  2  0  0  0  0  0  0
  157.0900  212.5850  157.2470 O   0  0  0  0  0  1  0  0  0  0  0  0
  161.6720  210.5410  154.6970 C   0  0  2  0  0  3  0  0  0  0  0  0
  158.0020  211.6350  155.2860 C   0  0  0  0  0  3  0  0  0  0  0  0
  160.5200  211.4930  156.5330 C   0  0  0  0  0  0  0  0  0  0  0  0
  160.4810  211.4280  155.0500 C   0  0  2  0  0  3  0  0  0  0  0  0
  159.4390  211.7880  157.2580 C   0  0  0  0  0  3  0  0  0  0  0  0
  1  6  2  0  0  0  0
  1 14  1  0  0  0  0
  2 13  2  0  0  0  0
  3  2  1  0  0  0  0
  3 19  2  0  0  0  0
  4 11  2  0  0  0  0
  4  7  1  0  0  0  0
  5 16  1  0  0  0  0
  5  2  1  0  0  0  0
  6 17  1  0  0  0  0
  7  3  1  0  0  0  0
  8 21  1  1  0  0  0
  9  1  1  0  0  0  0
 10 18  1  0  0  0  0
 11 15  1  0  0  0  0
 12  8  1  0  0  0  0
 13  8  1  0  0  0  0
 13 18  1  0  0  0  0
 14  5  2  0  0  0  0
 15 20  2  0  0  0  0
 16 12  1  0  0  0  0
 17 16  2  0  0  0  0
 19 10  1  0  0  0  0
 20 19  1  0  0  0  0
 22 26  1  0  0  0  0
 22 31  1  0  0  0  0
 23 28  1  0  0  0  0
 25 24  1  0  0  0  0
 27 21  1  1  0  0  0
 27 30  1  0  0  0  0
 27 25  1  0  0  0  0
 28 22  2  0  0  0  0
 29 24  1  0  0  0  0
 29 31  2  0  0  0  0
 30 23  1  1  0  0  0
 30 29  1  0  0  0  0
M  END
>  <MODEL>
9

>  <REMARK>
 VINA RESULT:      -8.1      2.961      5.302
  Name = 
  2 active torsions:
  status: ('A' for Active; 'I' for Inactive)
    1  A    between atoms: C_9  and  O_23
    2  A    between atoms: C_15  and  O_23
                            x       y       z     vdW  Elec       q    Type
                         _______ _______ _______ _____ _____    ______ ____

>  <TORSDO>
F 2

$$$$
