=
 OpenBabel11052422123D

 25 28  0  0  0  0  0  0  0  0999 V2000
  161.2970  205.8980  150.7630 C   0  0  0  0  0  0  0  0  0  0  0  0
  161.4100  207.0750  150.0120 C   0  0  0  0  0  0  0  0  0  0  0  0
  161.6210  207.1730  152.8200 C   0  0  0  0  0  3  0  0  0  0  0  0
  161.0860  204.6230  150.4750 C   0  0  0  0  0  0  0  0  0  0  0  0
  160.6710  201.8780  150.4750 C   0  0  0  0  0  3  0  0  0  0  0  0
  161.7330  208.3610  152.0610 C   0  0  0  0  0  3  0  0  0  0  0  0
  161.0700  203.9200  151.6730 C   0  0  0  0  0  0  0  0  0  0  0  0
  160.8640  202.5420  151.6990 C   0  0  0  0  0  3  0  0  0  0  0  0
  161.5780  208.7820  148.5620 N   0  0  0  0  0  0  0  0  0  0  0  0
  161.7190  209.3150  149.7120 N   0  0  0  0  0  0  0  0  0  0  0  0
  160.6840  202.5940  149.2610 C   0  0  0  0  0  3  0  0  0  0  0  0
  161.4030  205.9620  152.1400 C   0  0  0  0  0  0  0  0  0  0  0  0
  161.2550  204.6670  152.7180 N   0  0  0  0  0  0  0  0  0  0  0  0
  161.3760  207.3720  148.7180 C   0  0  0  0  0  0  0  0  0  0  0  0
  160.8920  203.9820  149.2510 C   0  0  0  0  0  3  0  0  0  0  0  0
  161.6200  208.2680  150.6650 C   0  0  0  0  0  0  0  0  0  0  0  0
  161.2480  206.4300  147.5680 C   0  0  0  0  0  2  0  0  0  0  0  0
  162.6130  206.1260  146.9630 C   0  0  0  0  0  2  0  0  0  0  0  0
  162.4850  205.3500  145.6580 C   0  0  0  0  0  2  0  0  0  0  0  0
  162.2650  203.8640  145.9080 C   0  0  0  0  0  2  0  0  0  0  0  0
  160.5440  202.0530  145.4230 N   0  0  0  0  0  0  0  0  0  0  0  0
  159.4300  201.6130  144.7490 O   0  0  0  0  0  0  0  0  0  0  0  0
  161.1120  201.2910  146.2320 O   0  0  0  0  0  0  0  0  0  0  0  0
  161.0380  203.3780  145.2040 C   0  0  0  0  0  0  0  0  0  0  0  0
  160.4470  204.1440  144.3970 O   0  0  0  0  0  0  0  0  0  0  0  0
  1 12  1  0  0  0  0
  2 16  1  0  0  0  0
  2  1  2  0  0  0  0
  4  1  1  0  0  0  0
  4  7  1  0  0  0  0
  5  8  1  0  0  0  0
  6  3  2  0  0  0  0
  7  8  2  0  0  0  0
  7 13  1  0  0  0  0
  9 14  2  0  0  0  0
  9 10  1  0  0  0  0
 10 16  2  0  0  0  0
 11  5  2  0  0  0  0
 12 13  2  0  0  0  0
 12  3  1  0  0  0  0
 14  2  1  0  0  0  0
 15 11  1  0  0  0  0
 15  4  2  0  0  0  0
 16  6  1  0  0  0  0
 17 14  1  0  0  0  0
 18 17  1  0  0  0  0
 19 20  1  0  0  0  0
 19 18  1  0  0  0  0
 21 23  2  0  0  0  0
 22 21  2  0  0  0  0
 24 21  1  0  0  0  0
 24 20  1  0  0  0  0
 25 24  2  0  0  0  0
M  END
>  <MODEL>
1

>  <REMARK>
 VINA RESULT:      -9.7      0.000      0.000
  Name = 
  5 active torsions:
  status: ('A' for Active; 'I' for Inactive)
    1  A    between atoms: C_6  and  C_15
    2  A    between atoms: C_6  and  C_23
    3  A    between atoms: C_15  and  C_21
    4  A    between atoms: C_16  and  C_20
    5  A    between atoms: C_16  and  C_23
                            x       y       z     vdW  Elec       q    Type
                         _______ _______ _______ _____ _____    ______ ____

>  <TORSDO>
F 5

$$$$
=
 OpenBabel11052422123D

 25 28  0  0  0  0  0  0  0  0999 V2000
  161.1300  203.4530  148.5020 C   0  0  0  0  0  0  0  0  0  0  0  0
  161.0540  203.6160  149.8910 C   0  0  0  0  0  0  0  0  0  0  0  0
  161.0410  201.0280  148.7770 C   0  0  0  0  0  3  0  0  0  0  0  0
  161.2030  204.2760  147.4680 C   0  0  0  0  0  0  0  0  0  0  0  0
  161.3540  205.4870  144.9740 C   0  0  0  0  0  3  0  0  0  0  0  0
  160.9640  201.1940  150.1790 C   0  0  0  0  0  3  0  0  0  0  0  0
  161.2450  203.4990  146.3160 C   0  0  0  0  0  0  0  0  0  0  0  0
  161.3210  204.0830  145.0530 C   0  0  0  0  0  3  0  0  0  0  0  0
  160.9750  204.1760  152.0650 N   0  0  0  0  0  0  0  0  0  0  0  0
  160.9240  202.9020  152.0530 N   0  0  0  0  0  0  0  0  0  0  0  0
  161.3080  206.2730  146.1430 C   0  0  0  0  0  3  0  0  0  0  0  0
  161.1230  202.1760  147.9700 C   0  0  0  0  0  0  0  0  0  0  0  0
  161.2000  202.2230  146.5470 N   0  0  0  0  0  0  0  0  0  0  0  0
  161.0530  204.6570  150.7170 C   0  0  0  0  0  0  0  0  0  0  0  0
  161.2300  205.6690  147.4080 C   0  0  0  0  0  3  0  0  0  0  0  0
  160.9720  202.5010  150.6930 C   0  0  0  0  0  0  0  0  0  0  0  0
  161.2010  206.0990  150.3690 C   0  0  0  0  0  2  0  0  0  0  0  0
  162.2930  206.7500  151.2080 C   0  0  0  0  0  2  0  0  0  0  0  0
  162.0710  208.2510  151.3470 C   0  0  0  0  0  2  0  0  0  0  0  0
  160.8080  208.5600  152.1400 C   0  0  0  0  0  2  0  0  0  0  0  0
  161.0030  207.9290  154.5980 N   0  0  0  0  0  0  0  0  0  0  0  0
  161.2850  208.2690  155.9000 O   0  0  0  0  0  0  0  0  0  0  0  0
  160.6400  206.7650  154.3330 O   0  0  0  0  0  0  0  0  0  0  0  0
  161.1370  208.9040  153.5580 C   0  0  0  0  0  0  0  0  0  0  0  0
  161.5190  210.0710  153.8360 O   0  0  0  0  0  0  0  0  0  0  0  0
  1  2  1  0  0  0  0
  2 16  1  0  0  0  0
  2 14  2  0  0  0  0
  3  6  1  0  0  0  0
  4  1  2  0  0  0  0
  5  8  2  0  0  0  0
  5 11  1  0  0  0  0
  6 16  2  0  0  0  0
  7 13  2  0  0  0  0
  7  4  1  0  0  0  0
  8  7  1  0  0  0  0
 10  9  2  0  0  0  0
 11 15  2  0  0  0  0
 12  1  1  0  0  0  0
 12  3  2  0  0  0  0
 13 12  1  0  0  0  0
 14  9  1  0  0  0  0
 15  4  1  0  0  0  0
 16 10  1  0  0  0  0
 17 14  1  0  0  0  0
 17 18  1  0  0  0  0
 18 19  1  0  0  0  0
 19 20  1  0  0  0  0
 20 24  1  0  0  0  0
 21 22  2  0  0  0  0
 23 21  2  0  0  0  0
 24 25  2  0  0  0  0
 24 21  1  0  0  0  0
M  END
>  <MODEL>
2

>  <REMARK>
 VINA RESULT:      -9.5      4.040      7.034
  Name = 
  5 active torsions:
  status: ('A' for Active; 'I' for Inactive)
    1  A    between atoms: C_6  and  C_15
    2  A    between atoms: C_6  and  C_23
    3  A    between atoms: C_15  and  C_21
    4  A    between atoms: C_16  and  C_20
    5  A    between atoms: C_16  and  C_23
                            x       y       z     vdW  Elec       q    Type
                         _______ _______ _______ _____ _____    ______ ____

>  <TORSDO>
F 5

$$$$
=
 OpenBabel11052422123D

 25 28  0  0  0  0  0  0  0  0999 V2000
  161.3440  204.6460  148.3600 C   0  0  0  0  0  0  0  0  0  0  0  0
  161.4360  206.0020  148.6980 C   0  0  0  0  0  0  0  0  0  0  0  0
  161.7450  205.1980  146.0150 C   0  0  0  0  0  3  0  0  0  0  0  0
  161.1400  203.5270  149.0360 C   0  0  0  0  0  0  0  0  0  0  0  0
  160.7700  200.9170  149.9080 C   0  0  0  0  0  3  0  0  0  0  0  0
  161.8380  206.5670  146.3580 C   0  0  0  0  0  3  0  0  0  0  0  0
  161.1660  202.4770  148.1260 C   0  0  0  0  0  0  0  0  0  0  0  0
  160.9820  201.1580  148.5390 C   0  0  0  0  0  3  0  0  0  0  0  0
  161.5030  208.0900  149.5220 N   0  0  0  0  0  0  0  0  0  0  0  0
  161.7140  208.2250  148.2720 N   0  0  0  0  0  0  0  0  0  0  0  0
  160.7480  201.9830  150.8300 C   0  0  0  0  0  3  0  0  0  0  0  0
  161.4980  204.2670  147.0380 C   0  0  0  0  0  0  0  0  0  0  0  0
  161.3770  202.8530  146.9020 N   0  0  0  0  0  0  0  0  0  0  0  0
  161.3290  206.7000  149.8230 C   0  0  0  0  0  0  0  0  0  0  0  0
  160.9360  203.3060  150.3980 C   0  0  0  0  0  3  0  0  0  0  0  0
  161.6800  206.9240  147.7060 C   0  0  0  0  0  0  0  0  0  0  0  0
  160.9910  206.1920  151.1840 C   0  0  0  0  0  2  0  0  0  0  0  0
  162.2010  206.2670  152.1070 C   0  0  0  0  0  2  0  0  0  0  0  0
  161.8040  206.0740  153.5650 C   0  0  0  0  0  2  0  0  0  0  0  0
  160.6230  206.9580  153.9460 C   0  0  0  0  0  2  0  0  0  0  0  0
  160.9740  209.4610  153.6470 N   0  0  0  0  0  0  0  0  0  0  0  0
  161.4320  210.6680  154.1200 O   0  0  0  0  0  0  0  0  0  0  0  0
  160.4500  209.4040  152.5170 O   0  0  0  0  0  0  0  0  0  0  0  0
  161.0910  208.2850  154.4550 C   0  0  0  0  0  0  0  0  0  0  0  0
  161.6080  208.3580  155.6010 O   0  0  0  0  0  0  0  0  0  0  0  0
  1  2  2  0  0  0  0
  1  4  1  0  0  0  0
  2 14  1  0  0  0  0
  3  6  2  0  0  0  0
  3 12  1  0  0  0  0
  4 15  1  0  0  0  0
  5 11  1  0  0  0  0
  6 16  1  0  0  0  0
  7  8  1  0  0  0  0
  7  4  2  0  0  0  0
  8  5  2  0  0  0  0
  9 14  2  0  0  0  0
 10  9  1  0  0  0  0
 12  1  1  0  0  0  0
 13 12  2  0  0  0  0
 13  7  1  0  0  0  0
 14 17  1  0  0  0  0
 15 11  2  0  0  0  0
 16 10  2  0  0  0  0
 16  2  1  0  0  0  0
 17 18  1  0  0  0  0
 18 19  1  0  0  0  0
 19 20  1  0  0  0  0
 20 24  1  0  0  0  0
 21 22  2  0  0  0  0
 21 24  1  0  0  0  0
 23 21  2  0  0  0  0
 24 25  2  0  0  0  0
M  END
>  <MODEL>
3

>  <REMARK>
 VINA RESULT:      -9.3      4.077      6.486
  Name = 
  5 active torsions:
  status: ('A' for Active; 'I' for Inactive)
    1  A    between atoms: C_6  and  C_15
    2  A    between atoms: C_6  and  C_23
    3  A    between atoms: C_15  and  C_21
    4  A    between atoms: C_16  and  C_20
    5  A    between atoms: C_16  and  C_23
                            x       y       z     vdW  Elec       q    Type
                         _______ _______ _______ _____ _____    ______ ____

>  <TORSDO>
F 5

$$$$
=
 OpenBabel11052422123D

 25 28  0  0  0  0  0  0  0  0999 V2000
  161.1490  203.3940  148.5330 C   0  0  0  0  0  0  0  0  0  0  0  0
  161.0420  203.4750  149.9280 C   0  0  0  0  0  0  0  0  0  0  0  0
  161.0480  200.9580  148.6630 C   0  0  0  0  0  3  0  0  0  0  0  0
  161.2480  204.2760  147.5510 C   0  0  0  0  0  0  0  0  0  0  0  0
  161.4580  205.6300  145.1370 C   0  0  0  0  0  3  0  0  0  0  0  0
  160.9400  201.0410  150.0700 C   0  0  0  0  0  3  0  0  0  0  0  0
  161.3130  203.5680  146.3570 C   0  0  0  0  0  0  0  0  0  0  0  0
  161.4200  204.2250  145.1330 C   0  0  0  0  0  3  0  0  0  0  0  0
  160.9160  203.9070  152.1280 N   0  0  0  0  0  0  0  0  0  0  0  0
  160.8610  202.6360  152.0410 N   0  0  0  0  0  0  0  0  0  0  0  0
  161.3880  206.3470  146.3480 C   0  0  0  0  0  3  0  0  0  0  0  0
  161.1500  202.1510  147.9270 C   0  0  0  0  0  0  0  0  0  0  0  0
  161.2600  202.2800  146.5110 N   0  0  0  0  0  0  0  0  0  0  0  0
  161.0250  204.4660  150.8130 C   0  0  0  0  0  0  0  0  0  0  0  0
  161.2800  205.6700  147.5740 C   0  0  0  0  0  3  0  0  0  0  0  0
  160.9390  202.3150  150.6600 C   0  0  0  0  0  0  0  0  0  0  0  0
  161.1850  205.9260  150.5540 C   0  0  0  0  0  2  0  0  0  0  0  0
  161.3350  206.6950  151.8600 C   0  0  0  0  0  2  0  0  0  0  0  0
  160.9860  208.1680  151.6840 C   0  0  0  0  0  2  0  0  0  0  0  0
  162.2230  209.0050  151.3820 C   0  0  0  0  0  2  0  0  0  0  0  0
  162.0500  209.9790  149.0380 N   0  0  0  0  0  0  0  0  0  0  0  0
  161.7680  211.0310  148.1990 O   0  0  0  0  0  0  0  0  0  0  0  0
  162.4320  208.8940  148.5540 O   0  0  0  0  0  0  0  0  0  0  0  0
  161.8940  210.1300  150.4530 C   0  0  0  0  0  0  0  0  0  0  0  0
  161.4930  211.2240  150.9290 O   0  0  0  0  0  0  0  0  0  0  0  0
  1  2  1  0  0  0  0
  2 16  1  0  0  0  0
  2 14  2  0  0  0  0
  3  6  1  0  0  0  0
  4 15  1  0  0  0  0
  4  1  2  0  0  0  0
  5 11  1  0  0  0  0
  6 16  2  0  0  0  0
  7 13  2  0  0  0  0
  7  4  1  0  0  0  0
  8  5  2  0  0  0  0
  8  7  1  0  0  0  0
 10  9  2  0  0  0  0
 11 15  2  0  0  0  0
 12  1  1  0  0  0  0
 12  3  2  0  0  0  0
 13 12  1  0  0  0  0
 14  9  1  0  0  0  0
 16 10  1  0  0  0  0
 17 14  1  0  0  0  0
 17 18  1  0  0  0  0
 19 18  1  0  0  0  0
 20 19  1  0  0  0  0
 21 24  1  0  0  0  0
 22 21  2  0  0  0  0
 23 21  2  0  0  0  0
 24 25  2  0  0  0  0
 24 20  1  0  0  0  0
M  END
>  <MODEL>
4

>  <REMARK>
 VINA RESULT:      -9.2      3.053      6.519
  Name = 
  5 active torsions:
  status: ('A' for Active; 'I' for Inactive)
    1  A    between atoms: C_6  and  C_15
    2  A    between atoms: C_6  and  C_23
    3  A    between atoms: C_15  and  C_21
    4  A    between atoms: C_16  and  C_20
    5  A    between atoms: C_16  and  C_23
                            x       y       z     vdW  Elec       q    Type
                         _______ _______ _______ _____ _____    ______ ____

>  <TORSDO>
F 5

$$$$
=
 OpenBabel11052422123D

 25 28  0  0  0  0  0  0  0  0999 V2000
  161.0330  203.4330  148.0870 C   0  0  0  0  0  0  0  0  0  0  0  0
  161.0750  204.3720  147.0480 C   0  0  0  0  0  0  0  0  0  0  0  0
  160.9610  201.6200  146.4520 C   0  0  0  0  0  3  0  0  0  0  0  0
  161.0440  203.5010  149.4090 C   0  0  0  0  0  0  0  0  0  0  0  0
  161.0480  203.0380  152.1460 C   0  0  0  0  0  3  0  0  0  0  0  0
  161.0040  202.5690  145.4050 C   0  0  0  0  0  3  0  0  0  0  0  0
  160.9910  202.2010  149.8960 C   0  0  0  0  0  0  0  0  0  0  0  0
  160.9910  201.9430  151.2660 C   0  0  0  0  0  3  0  0  0  0  0  0
  161.1200  206.0890  145.6020 N   0  0  0  0  0  0  0  0  0  0  0  0
  161.0920  205.0460  144.8700 N   0  0  0  0  0  0  0  0  0  0  0  0
  161.1060  204.3550  151.6500 C   0  0  0  0  0  3  0  0  0  0  0  0
  160.9770  202.0860  147.7780 C   0  0  0  0  0  0  0  0  0  0  0  0
  160.9480  201.2970  148.9660 N   0  0  0  0  0  0  0  0  0  0  0  0
  161.1160  205.6980  146.9800 C   0  0  0  0  0  0  0  0  0  0  0  0
  161.1070  204.5990  150.2670 C   0  0  0  0  0  3  0  0  0  0  0  0
  161.0620  203.9300  145.7450 C   0  0  0  0  0  0  0  0  0  0  0  0
  161.0690  206.6720  148.1090 C   0  0  0  0  0  2  0  0  0  0  0  0
  162.2110  207.6760  148.0060 C   0  0  0  0  0  2  0  0  0  0  0  0
  162.1340  208.7240  149.1100 C   0  0  0  0  0  2  0  0  0  0  0  0
  161.8700  208.0870  150.4690 C   0  0  0  0  0  2  0  0  0  0  0  0
  160.9720  208.7610  152.7520 N   0  0  0  0  0  0  0  0  0  0  0  0
  160.6520  209.7320  153.6720 O   0  0  0  0  0  0  0  0  0  0  0  0
  160.7700  207.5620  153.0310 O   0  0  0  0  0  0  0  0  0  0  0  0
  161.5420  209.1280  151.4920 C   0  0  0  0  0  0  0  0  0  0  0  0
  161.7560  210.3410  151.2270 O   0  0  0  0  0  0  0  0  0  0  0  0
  1  4  2  0  0  0  0
  2  1  1  0  0  0  0
  3 12  2  0  0  0  0
  4  7  1  0  0  0  0
  4 15  1  0  0  0  0
  6 16  2  0  0  0  0
  6  3  1  0  0  0  0
  7  8  1  0  0  0  0
  8  5  2  0  0  0  0
  9 14  1  0  0  0  0
 10  9  2  0  0  0  0
 10 16  1  0  0  0  0
 11  5  1  0  0  0  0
 12  1  1  0  0  0  0
 12 13  1  0  0  0  0
 13  7  2  0  0  0  0
 14  2  2  0  0  0  0
 14 17  1  0  0  0  0
 15 11  2  0  0  0  0
 16  2  1  0  0  0  0
 18 17  1  0  0  0  0
 18 19  1  0  0  0  0
 19 20  1  0  0  0  0
 20 24  1  0  0  0  0
 21 23  2  0  0  0  0
 21 22  2  0  0  0  0
 24 21  1  0  0  0  0
 25 24  2  0  0  0  0
M  END
>  <MODEL>
5

>  <REMARK>
 VINA RESULT:      -9.0      3.797      6.093
  Name = 
  5 active torsions:
  status: ('A' for Active; 'I' for Inactive)
    1  A    between atoms: C_6  and  C_15
    2  A    between atoms: C_6  and  C_23
    3  A    between atoms: C_15  and  C_21
    4  A    between atoms: C_16  and  C_20
    5  A    between atoms: C_16  and  C_23
                            x       y       z     vdW  Elec       q    Type
                         _______ _______ _______ _____ _____    ______ ____

>  <TORSDO>
F 5

$$$$
=
 OpenBabel11052422123D

 25 28  0  0  0  0  0  0  0  0999 V2000
  161.2060  203.5650  148.7250 C   0  0  0  0  0  0  0  0  0  0  0  0
  161.1050  203.7990  150.1020 C   0  0  0  0  0  0  0  0  0  0  0  0
  160.8500  201.1780  149.1000 C   0  0  0  0  0  3  0  0  0  0  0  0
  161.4000  204.3260  147.6600 C   0  0  0  0  0  0  0  0  0  0  0  0
  161.7580  205.3970  145.1230 C   0  0  0  0  0  3  0  0  0  0  0  0
  160.7480  201.4160  150.4900 C   0  0  0  0  0  3  0  0  0  0  0  0
  161.3940  203.4960  146.5450 C   0  0  0  0  0  0  0  0  0  0  0  0
  161.5730  204.0100  145.2620 C   0  0  0  0  0  3  0  0  0  0  0  0
  161.0180  204.4640  152.2450 N   0  0  0  0  0  0  0  0  0  0  0  0
  160.8310  203.2040  152.2860 N   0  0  0  0  0  0  0  0  0  0  0  0
  161.7600  206.2370  146.2550 C   0  0  0  0  0  3  0  0  0  0  0  0
  161.0800  202.2720  148.2480 C   0  0  0  0  0  0  0  0  0  0  0  0
  161.2060  202.2440  146.8280 N   0  0  0  0  0  0  0  0  0  0  0  0
  161.1890  204.8710  150.8820 C   0  0  0  0  0  0  0  0  0  0  0  0
  161.5770  205.7040  147.5410 C   0  0  0  0  0  3  0  0  0  0  0  0
  160.8780  202.7370  150.9470 C   0  0  0  0  0  0  0  0  0  0  0  0
  161.5010  206.2730  150.4780 C   0  0  0  0  0  2  0  0  0  0  0  0
  161.9640  207.0920  151.6760 C   0  0  0  0  0  2  0  0  0  0  0  0
  161.0580  208.2940  151.9140 C   0  0  0  0  0  2  0  0  0  0  0  0
  161.8520  209.5930  151.9620 C   0  0  0  0  0  2  0  0  0  0  0  0
  161.1920  210.8210  154.0910 N   0  0  0  0  0  0  0  0  0  0  0  0
  160.4600  211.7930  154.7320 O   0  0  0  0  0  0  0  0  0  0  0  0
  161.9550  210.0900  154.7540 O   0  0  0  0  0  0  0  0  0  0  0  0
  161.0840  210.6630  152.6720 C   0  0  0  0  0  0  0  0  0  0  0  0
  160.3230  211.4170  152.0110 O   0  0  0  0  0  0  0  0  0  0  0  0
  1  2  1  0  0  0  0
  2 14  2  0  0  0  0
  2 16  1  0  0  0  0
  3  6  1  0  0  0  0
  4  1  2  0  0  0  0
  5  8  2  0  0  0  0
  5 11  1  0  0  0  0
  6 16  2  0  0  0  0
  7 13  2  0  0  0  0
  7  4  1  0  0  0  0
  8  7  1  0  0  0  0
  9 10  2  0  0  0  0
 11 15  2  0  0  0  0
 12  1  1  0  0  0  0
 12  3  2  0  0  0  0
 13 12  1  0  0  0  0
 14  9  1  0  0  0  0
 15  4  1  0  0  0  0
 16 10  1  0  0  0  0
 17 14  1  0  0  0  0
 17 18  1  0  0  0  0
 18 19  1  0  0  0  0
 19 20  1  0  0  0  0
 20 24  1  0  0  0  0
 21 22  2  0  0  0  0
 21 23  2  0  0  0  0
 24 21  1  0  0  0  0
 25 24  2  0  0  0  0
M  END
>  <MODEL>
6

>  <REMARK>
 VINA RESULT:      -8.9      4.353      7.324
  Name = 
  5 active torsions:
  status: ('A' for Active; 'I' for Inactive)
    1  A    between atoms: C_6  and  C_15
    2  A    between atoms: C_6  and  C_23
    3  A    between atoms: C_15  and  C_21
    4  A    between atoms: C_16  and  C_20
    5  A    between atoms: C_16  and  C_23
                            x       y       z     vdW  Elec       q    Type
                         _______ _______ _______ _____ _____    ______ ____

>  <TORSDO>
F 5

$$$$
=
 OpenBabel11052422123D

 25 28  0  0  0  0  0  0  0  0999 V2000
  161.3320  204.5970  148.3510 C   0  0  0  0  0  0  0  0  0  0  0  0
  161.3990  205.9310  148.7730 C   0  0  0  0  0  0  0  0  0  0  0  0
  161.7630  205.2970  146.0510 C   0  0  0  0  0  3  0  0  0  0  0  0
  161.1320  203.4360  148.9540 C   0  0  0  0  0  0  0  0  0  0  0  0
  160.7850  200.7730  149.6590 C   0  0  0  0  0  3  0  0  0  0  0  0
  161.8310  206.6430  146.4790 C   0  0  0  0  0  3  0  0  0  0  0  0
  161.1880  202.4440  147.9820 C   0  0  0  0  0  0  0  0  0  0  0  0
  161.0160  201.1000  148.3120 C   0  0  0  0  0  3  0  0  0  0  0  0
  161.4230  207.9660  149.7240 N   0  0  0  0  0  0  0  0  0  0  0  0
  161.6530  208.1800  148.4880 N   0  0  0  0  0  0  0  0  0  0  0  0
  160.7330  201.7800  150.6440 C   0  0  0  0  0  3  0  0  0  0  0  0
  161.5120  204.3010  147.0120 C   0  0  0  0  0  0  0  0  0  0  0  0
  161.4140  202.8970  146.7880 N   0  0  0  0  0  0  0  0  0  0  0  0
  161.2640  206.5570  149.9370 C   0  0  0  0  0  0  0  0  0  0  0  0
  160.9090  203.1290  150.2960 C   0  0  0  0  0  3  0  0  0  0  0  0
  161.6460  206.9150  147.8440 C   0  0  0  0  0  0  0  0  0  0  0  0
  160.9110  205.9620  151.2580 C   0  0  0  0  0  2  0  0  0  0  0  0
  162.0480  206.1430  152.2550 C   0  0  0  0  0  2  0  0  0  0  0  0
  161.5260  206.5230  153.6350 C   0  0  0  0  0  2  0  0  0  0  0  0
  160.8300  207.8780  153.6170 C   0  0  0  0  0  2  0  0  0  0  0  0
  160.1320  208.1370  156.0500 N   0  0  0  0  0  0  0  0  0  0  0  0
  160.2280  208.7850  157.2590 O   0  0  0  0  0  0  0  0  0  0  0  0
  159.3420  207.1780  155.9300 O   0  0  0  0  0  0  0  0  0  0  0  0
  160.9410  208.5540  154.9470 C   0  0  0  0  0  0  0  0  0  0  0  0
  161.7460  209.5130  155.0840 O   0  0  0  0  0  0  0  0  0  0  0  0
  1  2  2  0  0  0  0
  1  4  1  0  0  0  0
  2 14  1  0  0  0  0
  3  6  2  0  0  0  0
  3 12  1  0  0  0  0
  4 15  1  0  0  0  0
  5 11  1  0  0  0  0
  6 16  1  0  0  0  0
  7  8  1  0  0  0  0
  7  4  2  0  0  0  0
  8  5  2  0  0  0  0
  9 14  2  0  0  0  0
 10  9  1  0  0  0  0
 12  1  1  0  0  0  0
 13 12  2  0  0  0  0
 13  7  1  0  0  0  0
 14 17  1  0  0  0  0
 15 11  2  0  0  0  0
 16 10  2  0  0  0  0
 16  2  1  0  0  0  0
 17 18  1  0  0  0  0
 18 19  1  0  0  0  0
 20 19  1  0  0  0  0
 20 24  1  0  0  0  0
 21 22  2  0  0  0  0
 23 21  2  0  0  0  0
 24 25  2  0  0  0  0
 24 21  1  0  0  0  0
M  END
>  <MODEL>
7

>  <REMARK>
 VINA RESULT:      -8.9      4.527      6.812
  Name = 
  5 active torsions:
  status: ('A' for Active; 'I' for Inactive)
    1  A    between atoms: C_6  and  C_15
    2  A    between atoms: C_6  and  C_23
    3  A    between atoms: C_15  and  C_21
    4  A    between atoms: C_16  and  C_20
    5  A    between atoms: C_16  and  C_23
                            x       y       z     vdW  Elec       q    Type
                         _______ _______ _______ _____ _____    ______ ____

>  <TORSDO>
F 5

$$$$
=
 OpenBabel11052422123D

 25 28  0  0  0  0  0  0  0  0999 V2000
  161.3900  205.2850  149.1720 C   0  0  0  0  0  0  0  0  0  0  0  0
  161.4800  206.4630  149.9250 C   0  0  0  0  0  0  0  0  0  0  0  0
  161.8680  206.5450  147.1350 C   0  0  0  0  0  3  0  0  0  0  0  0
  161.1580  204.0130  149.4530 C   0  0  0  0  0  0  0  0  0  0  0  0
  160.7460  201.2670  149.4420 C   0  0  0  0  0  3  0  0  0  0  0  0
  161.9590  207.7330  147.8960 C   0  0  0  0  0  3  0  0  0  0  0  0
  161.2060  203.3040  148.2580 C   0  0  0  0  0  0  0  0  0  0  0  0
  161.0020  201.9260  148.2270 C   0  0  0  0  0  3  0  0  0  0  0  0
  161.5330  208.1820  151.3700 N   0  0  0  0  0  0  0  0  0  0  0  0
  161.7840  208.7020  150.2330 N   0  0  0  0  0  0  0  0  0  0  0  0
  160.7010  201.9870  150.6530 C   0  0  0  0  0  3  0  0  0  0  0  0
  161.5830  205.3410  147.8030 C   0  0  0  0  0  0  0  0  0  0  0  0
  161.4580  204.0450  147.2230 N   0  0  0  0  0  0  0  0  0  0  0  0
  161.3410  206.7710  151.2100 C   0  0  0  0  0  0  0  0  0  0  0  0
  160.9100  203.3750  150.6680 C   0  0  0  0  0  3  0  0  0  0  0  0
  161.7610  207.6480  149.2840 C   0  0  0  0  0  0  0  0  0  0  0  0
  160.9570  205.8630  152.3300 C   0  0  0  0  0  2  0  0  0  0  0  0
  161.5820  206.3250  153.6400 C   0  0  0  0  0  2  0  0  0  0  0  0
  160.5550  207.0000  154.5410 C   0  0  0  0  0  2  0  0  0  0  0  0
  161.1890  208.0930  155.3920 C   0  0  0  0  0  2  0  0  0  0  0  0
  161.0460  210.4660  154.4840 N   0  0  0  0  0  0  0  0  0  0  0  0
  160.3760  211.6600  154.3620 O   0  0  0  0  0  0  0  0  0  0  0  0
  162.1590  210.3280  153.9360 O   0  0  0  0  0  0  0  0  0  0  0  0
  160.4620  209.3900  155.2250 C   0  0  0  0  0  0  0  0  0  0  0  0
  159.3320  209.5350  155.7610 O   0  0  0  0  0  0  0  0  0  0  0  0
  1  4  2  0  0  0  0
  1  2  1  0  0  0  0
  2 14  2  0  0  0  0
  3 12  2  0  0  0  0
  3  6  1  0  0  0  0
  4 15  1  0  0  0  0
  5 11  1  0  0  0  0
  6 16  2  0  0  0  0
  7  4  1  0  0  0  0
  8  7  1  0  0  0  0
  8  5  2  0  0  0  0
 10  9  2  0  0  0  0
 11 15  2  0  0  0  0
 12  1  1  0  0  0  0
 13 12  1  0  0  0  0
 13  7  2  0  0  0  0
 14  9  1  0  0  0  0
 14 17  1  0  0  0  0
 16  2  1  0  0  0  0
 16 10  1  0  0  0  0
 17 18  1  0  0  0  0
 18 19  1  0  0  0  0
 19 20  1  0  0  0  0
 21 24  1  0  0  0  0
 22 21  2  0  0  0  0
 23 21  2  0  0  0  0
 24 20  1  0  0  0  0
 24 25  2  0  0  0  0
M  END
>  <MODEL>
8

>  <REMARK>
 VINA RESULT:      -8.9      4.575      6.935
  Name = 
  5 active torsions:
  status: ('A' for Active; 'I' for Inactive)
    1  A    between atoms: C_6  and  C_15
    2  A    between atoms: C_6  and  C_23
    3  A    between atoms: C_15  and  C_21
    4  A    between atoms: C_16  and  C_20
    5  A    between atoms: C_16  and  C_23
                            x       y       z     vdW  Elec       q    Type
                         _______ _______ _______ _____ _____    ______ ____

>  <TORSDO>
F 5

$$$$
=
 OpenBabel11052422123D

 25 28  0  0  0  0  0  0  0  0999 V2000
  161.4110  207.4860  151.7070 C   0  0  0  0  0  0  0  0  0  0  0  0
  161.2100  206.1080  151.8580 C   0  0  0  0  0  0  0  0  0  0  0  0
  161.2590  207.7790  154.1270 C   0  0  0  0  0  3  0  0  0  0  0  0
  161.6150  208.2920  150.6770 C   0  0  0  0  0  0  0  0  0  0  0  0
  162.0740  210.4140  148.9470 C   0  0  0  0  0  3  0  0  0  0  0  0
  161.0570  206.3870  154.2780 C   0  0  0  0  0  3  0  0  0  0  0  0
  161.7540  209.5820  151.1770 C   0  0  0  0  0  0  0  0  0  0  0  0
  161.9850  210.6630  150.3280 C   0  0  0  0  0  3  0  0  0  0  0  0
  160.8790  203.8870  151.7960 N   0  0  0  0  0  0  0  0  0  0  0  0
  160.8360  204.1890  153.0330 N   0  0  0  0  0  0  0  0  0  0  0  0
  161.9360  209.1050  148.4430 C   0  0  0  0  0  3  0  0  0  0  0  0
  161.4330  208.2930  152.8300 C   0  0  0  0  0  0  0  0  0  0  0  0
  161.6550  209.6540  152.4680 N   0  0  0  0  0  0  0  0  0  0  0  0
  161.1180  205.0740  151.0290 C   0  0  0  0  0  0  0  0  0  0  0  0
  161.7050  208.0260  149.3110 C   0  0  0  0  0  3  0  0  0  0  0  0
  161.0410  205.5900  153.1220 C   0  0  0  0  0  0  0  0  0  0  0  0
  161.1530  205.0940  149.5380 C   0  0  0  0  0  2  0  0  0  0  0  0
  161.0540  203.6820  148.9750 C   0  0  0  0  0  2  0  0  0  0  0  0
  161.5370  203.6210  147.5310 C   0  0  0  0  0  2  0  0  0  0  0  0
  161.9730  204.9910  147.0280 C   0  0  0  0  0  2  0  0  0  0  0  0
  161.2690  205.5700  144.6530 N   0  0  0  0  0  0  0  0  0  0  0  0
  161.4860  205.5190  143.2960 O   0  0  0  0  0  0  0  0  0  0  0  0
  160.2550  206.1510  145.0900 O   0  0  0  0  0  0  0  0  0  0  0  0
  162.2070  204.9700  145.5510 C   0  0  0  0  0  0  0  0  0  0  0  0
  163.2350  204.4000  145.0990 O   0  0  0  0  0  0  0  0  0  0  0  0
  1  2  1  0  0  0  0
  1 12  1  0  0  0  0
  2 16  1  0  0  0  0
  3  6  1  0  0  0  0
  4  7  1  0  0  0  0
  4  1  2  0  0  0  0
  5  8  2  0  0  0  0
  7 13  2  0  0  0  0
  8  7  1  0  0  0  0
  9 10  2  0  0  0  0
 10 16  1  0  0  0  0
 11  5  1  0  0  0  0
 11 15  2  0  0  0  0
 12  3  2  0  0  0  0
 13 12  1  0  0  0  0
 14  9  1  0  0  0  0
 14  2  2  0  0  0  0
 15  4  1  0  0  0  0
 16  6  2  0  0  0  0
 17 14  1  0  0  0  0
 18 17  1  0  0  0  0
 19 18  1  0  0  0  0
 20 19  1  0  0  0  0
 21 23  2  0  0  0  0
 21 24  1  0  0  0  0
 22 21  2  0  0  0  0
 24 20  1  0  0  0  0
 25 24  2  0  0  0  0
M  END
>  <MODEL>
9

>  <REMARK>
 VINA RESULT:      -8.5      2.104      4.486
  Name = 
  5 active torsions:
  status: ('A' for Active; 'I' for Inactive)
    1  A    between atoms: C_6  and  C_15
    2  A    between atoms: C_6  and  C_23
    3  A    between atoms: C_15  and  C_21
    4  A    between atoms: C_16  and  C_20
    5  A    between atoms: C_16  and  C_23
                            x       y       z     vdW  Elec       q    Type
                         _______ _______ _______ _____ _____    ______ ____

>  <TORSDO>
F 5

$$$$
