=
 OpenBabel11062409533D

 34 34  0  0  1  0  0  0  0  0999 V2000
  161.1700  209.3240  153.5540 O   0  0  0  0  0  0  0  0  0  0  0  0
  160.5450  208.9240  152.3700 C   0  0  0  0  0  2  0  0  0  0  0  0
  161.4940  208.0890  151.5220 C   0  0  2  0  0  3  0  0  0  0  0  0
  162.0520  208.9800  150.4250 C   0  0  0  0  0  2  0  0  0  0  0  0
  161.7840  208.4290  149.1740 O   0  0  0  0  0  1  0  0  0  0  0  0
  160.7870  207.0180  150.9520 O   0  0  0  0  0  0  0  0  0  0  0  0
  161.2340  205.5300  152.8110 C   0  0  0  0  0  2  0  0  0  0  0  0
  162.6050  205.9450  152.2950 C   0  0  0  0  0  2  0  0  0  0  0  0
  161.4310  205.8290  151.3410 C   0  0  0  0  0  0  0  0  0  0  0  0
  161.3490  204.5990  150.4410 C   0  0  0  0  0  2  0  0  0  0  0  0
  160.9150  204.9670  149.0300 C   0  0  0  0  0  2  0  0  0  0  0  0
  161.4330  203.6930  147.8430 S   0  0  0  0  0  0  0  0  0  0  0  0
  161.8620  204.9330  146.5770 C   0  0  1  0  0  3  0  0  0  0  0  0
  163.3340  204.8210  146.2340 C   0  0  0  0  0  1  0  0  0  0  0  0
  161.0140  204.7890  145.3130 C   0  0  1  0  0  3  0  0  0  0  0  0
  161.6370  205.3890  144.2160 O   0  0  0  0  0  1  0  0  0  0  0  0
  160.7220  203.3330  145.0120 C   0  0  0  0  0  1  0  0  0  0  0  0
  160.1550  209.8970  154.3220 C   0  0  0  0  0  2  0  0  0  0  0  0
  160.7450  210.6660  155.4950 C   0  0  2  0  0  3  0  0  0  0  0  0
  161.6220  209.7900  156.3290 C   0  0  0  0  0  0  0  0  0  0  0  0
  162.8110  210.1350  156.5530 O   0  0  0  0  0  0  0  0  0  0  0  0
  161.1200  208.5800  156.8900 N   0  0  0  0  0  1  0  0  0  0  0  0
  159.4050  211.3560  156.5140 S   0  0  0  0  0  0  0  0  0  0  0  0
  158.3290  211.6650  155.0790 C   0  0  1  0  0  3  0  0  0  0  0  0
  156.4250  211.5800  156.5300 O   0  0  0  0  0  1  0  0  0  0  0  0
  156.9440  211.0810  155.3340 C   0  0  0  0  0  2  0  0  0  0  0  0
  159.4480  213.7810  155.1740 O   0  0  0  0  0  1  0  0  0  0  0  0
  158.2980  213.1530  154.6950 C   0  0  1  0  0  3  0  0  0  0  0  0
  158.1500  213.3930  153.1790 C   0  0  2  0  0  3  0  0  0  0  0  0
  156.8430  213.7690  152.8390 O   0  0  0  0  0  1  0  0  0  0  0  0
  158.5900  212.3020  152.3970 O   0  0  0  0  0  0  0  0  0  0  0  0
  159.8510  212.6130  151.8590 C   0  0  0  0  0  2  0  0  0  0  0  0
  159.7580  213.8590  151.0000 C   0  0  0  0  0  2  0  0  0  0  0  0
  160.3690  213.6060  149.6350 C   0  0  0  0  0  1  0  0  0  0  0  0
  1 18  1  0  0  0  0
  2  1  1  0  0  0  0
  3  4  1  6  0  0  0
  3  2  1  0  0  0  0
  5  4  1  0  0  0  0
  6  9  1  0  0  0  0
  6  3  1  0  0  0  0
  8  7  1  0  0  0  0
  9  8  1  0  0  0  0
  9  7  1  0  0  0  0
 10  9  1  0  0  0  0
 11 10  1  0  0  0  0
 12 11  1  0  0  0  0
 13 14  1  6  0  0  0
 13 12  1  0  0  0  0
 15 17  1  6  0  0  0
 15 13  1  0  0  0  0
 16 15  1  0  0  0  0
 19 18  1  6  0  0  0
 19 20  1  0  0  0  0
 19 23  1  0  0  0  0
 20 21  2  0  0  0  0
 20 22  1  0  0  0  0
 24 26  1  1  0  0  0
 24 23  1  0  0  0  0
 26 25  1  0  0  0  0
 28 24  1  0  0  0  0
 28 27  1  6  0  0  0
 29 30  1  1  0  0  0
 29 28  1  0  0  0  0
 31 29  1  0  0  0  0
 32 31  1  0  0  0  0
 33 32  1  0  0  0  0
 34 33  1  0  0  0  0
M  END
>  <MODEL>
1

>  <REMARK>
 VINA RESULT:      -5.1      0.000      0.000
  Name = 
  21 active torsions:
  status: ('A' for Active; 'I' for Inactive)
    1  A    between atoms: O_2  and  C_23
    2  A    between atoms: O_2  and  C_32
    3  A    between atoms: C_3  and  C_25
    4  A    between atoms: C_4  and  C_30
    5  A    between atoms: C_7  and  O_16
    6  A    between atoms: C_7  and  C_29
    7  A    between atoms: C_8  and  C_10
    8  A    between atoms: C_10  and  S_17
    9  A    between atoms: C_11  and  C_26
   10  A    between atoms: C_12  and  S_17
   11  A    between atoms: C_12  and  C_22
   12  A    between atoms: O_16  and  C_30
   13  A    between atoms: C_19  and  C_22
   14  A    between atoms: C_19  and  O_28
   15  A    between atoms: C_23  and  C_25
   16  A    between atoms: C_25  and  S_27
   17  A    between atoms: C_26  and  O_28
   18  A    between atoms: C_26  and  C_32
   19  A    between atoms: S_27  and  C_33
   20  A    between atoms: C_29  and  C_33
   21  A    between atoms: C_33  and  C_34
                            x       y       z     vdW  Elec       q    Type
                         _______ _______ _______ _____ _____    ______ ____

>  <TORSDO>
F 21

$$$$
=
 OpenBabel11062409533D

 34 34  0  0  1  0  0  0  0  0999 V2000
  161.6320  204.9590  151.3140 O   0  0  0  0  0  0  0  0  0  0  0  0
  160.7050  205.7520  151.9940 C   0  0  0  0  0  2  0  0  0  0  0  0
  161.3130  207.1030  152.3420 C   0  0  2  0  0  3  0  0  0  0  0  0
  162.4700  207.3580  151.3920 C   0  0  0  0  0  2  0  0  0  0  0  0
  162.5550  208.7160  151.0890 O   0  0  0  0  0  1  0  0  0  0  0  0
  161.7810  207.0750  153.6660 O   0  0  0  0  0  0  0  0  0  0  0  0
  161.3880  207.9850  155.8770 C   0  0  0  0  0  2  0  0  0  0  0  0
  160.0710  207.3360  155.4730 C   0  0  0  0  0  2  0  0  0  0  0  0
  160.9760  207.9480  154.4210 C   0  0  0  0  0  0  0  0  0  0  0  0
  160.6000  209.3110  153.8470 C   0  0  0  0  0  2  0  0  0  0  0  0
  161.5110  210.4100  154.3750 C   0  0  0  0  0  2  0  0  0  0  0  0
  160.6080  211.5020  155.5130 S   0  0  0  0  0  0  0  0  0  0  0  0
  159.0760  211.3920  154.5300 C   0  0  1  0  0  3  0  0  0  0  0  0
  157.9250  210.9880  155.4290 C   0  0  0  0  0  1  0  0  0  0  0  0
  158.7500  212.7020  153.8130 C   0  0  1  0  0  3  0  0  0  0  0  0
  157.3980  212.7660  153.4680 O   0  0  0  0  0  1  0  0  0  0  0  0
  159.1270  213.9000  154.6620 C   0  0  0  0  0  1  0  0  0  0  0  0
  160.9550  203.7700  151.0370 C   0  0  0  0  0  2  0  0  0  0  0  0
  160.6660  203.6570  149.5470 C   0  0  2  0  0  3  0  0  0  0  0  0
  160.3910  202.2410  149.1560 C   0  0  0  0  0  0  0  0  0  0  0  0
  159.2960  201.7110  149.4770 O   0  0  0  0  0  0  0  0  0  0  0  0
  161.3440  201.4950  148.4060 N   0  0  0  0  0  1  0  0  0  0  0  0
  162.0770  204.3020  148.5960 S   0  0  0  0  0  0  0  0  0  0  0  0
  161.0270  205.3650  147.5570 C   0  0  1  0  0  3  0  0  0  0  0  0
  161.2420  207.6400  148.2710 O   0  0  0  0  0  1  0  0  0  0  0  0
  160.4480  206.5000  148.3930 C   0  0  0  0  0  2  0  0  0  0  0  0
  162.9500  205.1260  146.1480 O   0  0  0  0  0  1  0  0  0  0  0  0
  161.7690  205.8540  146.3020 C   0  0  1  0  0  3  0  0  0  0  0  0
  160.9210  205.7770  145.0170 C   0  0  2  0  0  3  0  0  0  0  0  0
  159.5600  205.9820  145.2810 O   0  0  0  0  0  1  0  0  0  0  0  0
  161.1280  204.5870  144.2840 O   0  0  0  0  0  0  0  0  0  0  0  0
  160.0740  203.6980  144.5610 C   0  0  0  0  0  2  0  0  0  0  0  0
  160.5910  202.5050  145.3430 C   0  0  0  0  0  2  0  0  0  0  0  0
  160.0160  201.2180  144.7830 C   0  0  0  0  0  1  0  0  0  0  0  0
  1  2  1  0  0  0  0
  2  3  1  0  0  0  0
  3  4  1  6  0  0  0
  3  6  1  0  0  0  0
  5  4  1  0  0  0  0
  6  9  1  0  0  0  0
  8  7  1  0  0  0  0
  9  8  1  0  0  0  0
  9  7  1  0  0  0  0
 10 11  1  0  0  0  0
 10  9  1  0  0  0  0
 11 12  1  0  0  0  0
 13 14  1  1  0  0  0
 13 12  1  0  0  0  0
 15 13  1  0  0  0  0
 15 17  1  1  0  0  0
 16 15  1  0  0  0  0
 18  1  1  0  0  0  0
 19 18  1  1  0  0  0
 20 21  2  0  0  0  0
 20 19  1  0  0  0  0
 22 20  1  0  0  0  0
 23 19  1  0  0  0  0
 24 26  1  1  0  0  0
 24 23  1  0  0  0  0
 25 26  1  0  0  0  0
 28 27  1  6  0  0  0
 28 24  1  0  0  0  0
 29 30  1  1  0  0  0
 29 28  1  0  0  0  0
 31 32  1  0  0  0  0
 31 29  1  0  0  0  0
 32 33  1  0  0  0  0
 34 33  1  0  0  0  0
M  END
>  <MODEL>
2

>  <REMARK>
 VINA RESULT:      -5.1      2.716      9.640
  Name = 
  21 active torsions:
  status: ('A' for Active; 'I' for Inactive)
    1  A    between atoms: O_2  and  C_23
    2  A    between atoms: O_2  and  C_32
    3  A    between atoms: C_3  and  C_25
    4  A    between atoms: C_4  and  C_30
    5  A    between atoms: C_7  and  O_16
    6  A    between atoms: C_7  and  C_29
    7  A    between atoms: C_8  and  C_10
    8  A    between atoms: C_10  and  S_17
    9  A    between atoms: C_11  and  C_26
   10  A    between atoms: C_12  and  S_17
   11  A    between atoms: C_12  and  C_22
   12  A    between atoms: O_16  and  C_30
   13  A    between atoms: C_19  and  C_22
   14  A    between atoms: C_19  and  O_28
   15  A    between atoms: C_23  and  C_25
   16  A    between atoms: C_25  and  S_27
   17  A    between atoms: C_26  and  O_28
   18  A    between atoms: C_26  and  C_32
   19  A    between atoms: S_27  and  C_33
   20  A    between atoms: C_29  and  C_33
   21  A    between atoms: C_33  and  C_34
                            x       y       z     vdW  Elec       q    Type
                         _______ _______ _______ _____ _____    ______ ____

>  <TORSDO>
F 21

$$$$
=
 OpenBabel11062409533D

 34 34  0  0  1  0  0  0  0  0999 V2000
  161.9550  205.9820  152.6310 O   0  0  0  0  0  0  0  0  0  0  0  0
  161.4500  204.7590  152.1840 C   0  0  0  0  0  2  0  0  0  0  0  0
  161.3670  204.7400  150.6650 C   0  0  2  0  0  3  0  0  0  0  0  0
  161.1530  206.1670  150.1870 C   0  0  0  0  0  2  0  0  0  0  0  0
  160.1850  206.1980  149.1850 O   0  0  0  0  0  1  0  0  0  0  0  0
  160.2860  203.9380  150.2680 O   0  0  0  0  0  0  0  0  0  0  0  0
  159.9000  201.6850  149.4610 C   0  0  0  0  0  2  0  0  0  0  0  0
  161.2570  201.6350  150.1490 C   0  0  0  0  0  2  0  0  0  0  0  0
  160.7960  202.9050  149.4590 C   0  0  0  0  0  0  0  0  0  0  0  0
  161.3850  203.2410  148.0920 C   0  0  0  0  0  2  0  0  0  0  0  0
  160.9460  202.2400  147.0330 C   0  0  0  0  0  2  0  0  0  0  0  0
  161.1120  202.9500  145.3690 S   0  0  0  0  0  0  0  0  0  0  0  0
  161.8290  204.4970  146.0130 C   0  0  1  0  0  3  0  0  0  0  0  0
  163.3360  204.4630  145.8550 C   0  0  0  0  0  1  0  0  0  0  0  0
  161.2560  205.7350  145.3240 C   0  0  1  0  0  3  0  0  0  0  0  0
  161.4570  205.6830  143.9430 O   0  0  0  0  0  1  0  0  0  0  0  0
  159.7790  205.8950  145.6260 C   0  0  0  0  0  1  0  0  0  0  0  0
  161.1620  206.3200  153.7300 C   0  0  0  0  0  2  0  0  0  0  0  0
  161.2990  207.8010  154.0490 C   0  0  2  0  0  3  0  0  0  0  0  0
  161.0070  208.0720  155.4890 C   0  0  0  0  0  0  0  0  0  0  0  0
  161.9550  208.3160  156.2800 O   0  0  0  0  0  0  0  0  0  0  0  0
  159.6660  208.0790  155.9710 N   0  0  0  0  0  1  0  0  0  0  0  0
  160.1720  208.7640  152.9940 S   0  0  0  0  0  0  0  0  0  0  0  0
  161.3090  210.1830  152.8930 C   0  0  1  0  0  3  0  0  0  0  0  0
  162.6500  208.9690  151.3230 O   0  0  0  0  0  1  0  0  0  0  0  0
  162.0110  210.1900  151.5400 C   0  0  0  0  0  2  0  0  0  0  0  0
  159.3690  211.5490  152.5640 O   0  0  0  0  0  1  0  0  0  0  0  0
  160.6020  211.5090  153.2170 C   0  0  1  0  0  3  0  0  0  0  0  0
  160.4170  211.7540  154.7270 C   0  0  2  0  0  3  0  0  0  0  0  0
  161.5300  211.3260  155.4620 O   0  0  0  0  0  1  0  0  0  0  0  0
  159.2210  211.2010  155.2380 O   0  0  0  0  0  0  0  0  0  0  0  0
  158.8420  211.9250  156.3820 C   0  0  0  0  0  2  0  0  0  0  0  0
  157.3410  211.8380  156.5800 C   0  0  0  0  0  2  0  0  0  0  0  0
  156.7130  210.9940  155.4870 C   0  0  0  0  0  1  0  0  0  0  0  0
  1 18  1  0  0  0  0
  2  1  1  0  0  0  0
  3  4  1  1  0  0  0
  3  2  1  0  0  0  0
  5  4  1  0  0  0  0
  6  3  1  0  0  0  0
  7  8  1  0  0  0  0
  9  7  1  0  0  0  0
  9  8  1  0  0  0  0
  9  6  1  0  0  0  0
 10  9  1  0  0  0  0
 11 10  1  0  0  0  0
 12 13  1  0  0  0  0
 12 11  1  0  0  0  0
 13 14  1  6  0  0  0
 15 17  1  6  0  0  0
 15 13  1  0  0  0  0
 16 15  1  0  0  0  0
 19 18  1  1  0  0  0
 19 20  1  0  0  0  0
 20 22  1  0  0  0  0
 20 21  2  0  0  0  0
 23 19  1  0  0  0  0
 24 26  1  6  0  0  0
 24 23  1  0  0  0  0
 24 28  1  0  0  0  0
 25 26  1  0  0  0  0
 28 27  1  6  0  0  0
 28 29  1  0  0  0  0
 29 31  1  0  0  0  0
 29 30  1  1  0  0  0
 31 32  1  0  0  0  0
 32 33  1  0  0  0  0
 34 33  1  0  0  0  0
M  END
>  <MODEL>
3

>  <REMARK>
 VINA RESULT:      -5.1      2.177      4.020
  Name = 
  21 active torsions:
  status: ('A' for Active; 'I' for Inactive)
    1  A    between atoms: O_2  and  C_23
    2  A    between atoms: O_2  and  C_32
    3  A    between atoms: C_3  and  C_25
    4  A    between atoms: C_4  and  C_30
    5  A    between atoms: C_7  and  O_16
    6  A    between atoms: C_7  and  C_29
    7  A    between atoms: C_8  and  C_10
    8  A    between atoms: C_10  and  S_17
    9  A    between atoms: C_11  and  C_26
   10  A    between atoms: C_12  and  S_17
   11  A    between atoms: C_12  and  C_22
   12  A    between atoms: O_16  and  C_30
   13  A    between atoms: C_19  and  C_22
   14  A    between atoms: C_19  and  O_28
   15  A    between atoms: C_23  and  C_25
   16  A    between atoms: C_25  and  S_27
   17  A    between atoms: C_26  and  O_28
   18  A    between atoms: C_26  and  C_32
   19  A    between atoms: S_27  and  C_33
   20  A    between atoms: C_29  and  C_33
   21  A    between atoms: C_33  and  C_34
                            x       y       z     vdW  Elec       q    Type
                         _______ _______ _______ _____ _____    ______ ____

>  <TORSDO>
F 21

$$$$
=
 OpenBabel11062409533D

 34 34  0  0  1  0  0  0  0  0999 V2000
  161.0350  208.7930  150.9130 O   0  0  0  0  0  0  0  0  0  0  0  0
  161.5890  209.4680  152.0040 C   0  0  0  0  0  2  0  0  0  0  0  0
  160.5370  209.6920  153.0810 C   0  0  2  0  0  3  0  0  0  0  0  0
  159.7150  210.9090  152.6900 C   0  0  0  0  0  2  0  0  0  0  0  0
  160.4340  211.7130  151.8070 O   0  0  0  0  0  1  0  0  0  0  0  0
  161.1740  209.9240  154.3110 O   0  0  0  0  0  0  0  0  0  0  0  0
  161.5420  208.1780  155.9510 C   0  0  0  0  0  2  0  0  0  0  0  0
  160.5030  207.6120  154.9930 C   0  0  0  0  0  2  0  0  0  0  0  0
  160.5540  209.1020  155.2720 C   0  0  0  0  0  0  0  0  0  0  0  0
  159.5130  209.6990  156.2140 C   0  0  0  0  0  2  0  0  0  0  0  0
  159.6540  211.2100  156.3170 C   0  0  0  0  0  2  0  0  0  0  0  0
  158.1140  211.9610  156.9230 S   0  0  0  0  0  0  0  0  0  0  0  0
  157.3530  211.9260  155.2660 C   0  0  1  0  0  3  0  0  0  0  0  0
  156.1110  211.0580  155.2950 C   0  0  0  0  0  1  0  0  0  0  0  0
  157.0050  213.3250  154.7570 C   0  0  1  0  0  3  0  0  0  0  0  0
  157.9710  213.7930  153.8640 O   0  0  0  0  0  1  0  0  0  0  0  0
  155.6380  213.3450  154.1010 C   0  0  0  0  0  1  0  0  0  0  0  0
  162.0710  207.9990  150.4170 C   0  0  0  0  0  2  0  0  0  0  0  0
  161.5160  206.8890  149.5380 C   0  0  2  0  0  3  0  0  0  0  0  0
  161.2410  205.6550  150.3350 C   0  0  0  0  0  0  0  0  0  0  0  0
  160.4370  204.7950  149.8900 O   0  0  0  0  0  0  0  0  0  0  0  0
  161.8950  205.4330  151.5800 N   0  0  0  0  0  1  0  0  0  0  0  0
  162.6920  206.5160  148.2010 S   0  0  0  0  0  0  0  0  0  0  0  0
  161.4500  205.6220  147.2140 C   0  0  1  0  0  3  0  0  0  0  0  0
  160.1880  206.3430  145.3110 O   0  0  0  0  0  1  0  0  0  0  0  0
  160.4230  206.6020  146.6620 C   0  0  0  0  0  2  0  0  0  0  0  0
  163.4870  204.7660  146.2860 O   0  0  0  0  0  1  0  0  0  0  0  0
  162.1010  204.7490  146.1270 C   0  0  1  0  0  3  0  0  0  0  0  0
  161.5810  203.2980  146.1130 C   0  0  2  0  0  3  0  0  0  0  0  0
  160.6940  203.0760  145.0510 O   0  0  0  0  0  1  0  0  0  0  0  0
  161.0190  202.8950  147.3450 O   0  0  0  0  0  0  0  0  0  0  0  0
  160.8220  201.5040  147.3170 C   0  0  0  0  0  2  0  0  0  0  0  0
  161.3150  200.8820  148.6100 C   0  0  0  0  0  2  0  0  0  0  0  0
  160.3730  201.2200  149.7510 C   0  0  0  0  0  1  0  0  0  0  0  0
  1  2  1  0  0  0  0
  3  2  1  6  0  0  0
  3  6  1  0  0  0  0
  4  3  1  0  0  0  0
  5  4  1  0  0  0  0
  6  9  1  0  0  0  0
  8  9  1  0  0  0  0
  8  7  1  0  0  0  0
  9  7  1  0  0  0  0
  9 10  1  0  0  0  0
 10 11  1  0  0  0  0
 11 12  1  0  0  0  0
 13 14  1  1  0  0  0
 13 12  1  0  0  0  0
 15 17  1  6  0  0  0
 15 13  1  0  0  0  0
 16 15  1  0  0  0  0
 18  1  1  0  0  0  0
 19 20  1  0  0  0  0
 19 18  1  1  0  0  0
 20 22  1  0  0  0  0
 21 20  2  0  0  0  0
 23 19  1  0  0  0  0
 24 26  1  6  0  0  0
 24 23  1  0  0  0  0
 25 26  1  0  0  0  0
 28 27  1  1  0  0  0
 28 24  1  0  0  0  0
 29 30  1  6  0  0  0
 29 28  1  0  0  0  0
 29 31  1  0  0  0  0
 32 31  1  0  0  0  0
 32 33  1  0  0  0  0
 33 34  1  0  0  0  0
M  END
>  <MODEL>
4

>  <REMARK>
 VINA RESULT:      -5.0      2.352      9.911
  Name = 
  21 active torsions:
  status: ('A' for Active; 'I' for Inactive)
    1  A    between atoms: O_2  and  C_23
    2  A    between atoms: O_2  and  C_32
    3  A    between atoms: C_3  and  C_25
    4  A    between atoms: C_4  and  C_30
    5  A    between atoms: C_7  and  O_16
    6  A    between atoms: C_7  and  C_29
    7  A    between atoms: C_8  and  C_10
    8  A    between atoms: C_10  and  S_17
    9  A    between atoms: C_11  and  C_26
   10  A    between atoms: C_12  and  S_17
   11  A    between atoms: C_12  and  C_22
   12  A    between atoms: O_16  and  C_30
   13  A    between atoms: C_19  and  C_22
   14  A    between atoms: C_19  and  O_28
   15  A    between atoms: C_23  and  C_25
   16  A    between atoms: C_25  and  S_27
   17  A    between atoms: C_26  and  O_28
   18  A    between atoms: C_26  and  C_32
   19  A    between atoms: S_27  and  C_33
   20  A    between atoms: C_29  and  C_33
   21  A    between atoms: C_33  and  C_34
                            x       y       z     vdW  Elec       q    Type
                         _______ _______ _______ _____ _____    ______ ____

>  <TORSDO>
F 21

$$$$
=
 OpenBabel11062409533D

 34 34  0  0  1  0  0  0  0  0999 V2000
  160.9580  206.8630  152.5430 O   0  0  0  0  0  0  0  0  0  0  0  0
  161.2670  206.6510  153.8890 C   0  0  0  0  0  2  0  0  0  0  0  0
  160.8050  207.8280  154.7340 C   0  0  2  0  0  3  0  0  0  0  0  0
  159.9380  207.2880  155.8590 C   0  0  0  0  0  2  0  0  0  0  0  0
  160.1900  207.9870  157.0390 O   0  0  0  0  0  1  0  0  0  0  0  0
  160.0560  208.7080  153.9370 O   0  0  0  0  0  0  0  0  0  0  0  0
  161.7150  210.3820  153.3720 C   0  0  0  0  0  2  0  0  0  0  0  0
  161.8620  210.1670  154.8710 C   0  0  0  0  0  2  0  0  0  0  0  0
  160.5070  210.0140  154.2050 C   0  0  0  0  0  0  0  0  0  0  0  0
  159.4930  211.1440  154.3610 C   0  0  0  0  0  2  0  0  0  0  0  0
  159.0540  211.3060  155.8090 C   0  0  0  0  0  2  0  0  0  0  0  0
  158.4480  212.9920  156.1130 S   0  0  0  0  0  0  0  0  0  0  0  0
  156.9520  212.7210  155.1060 C   0  0  1  0  0  3  0  0  0  0  0  0
  155.8110  212.2810  156.0000 C   0  0  0  0  0  1  0  0  0  0  0  0
  156.5520  213.9660  154.3140 C   0  0  1  0  0  3  0  0  0  0  0  0
  157.4810  214.2480  153.3110 O   0  0  0  0  0  1  0  0  0  0  0  0
  155.1690  213.8100  153.7110 C   0  0  0  0  0  1  0  0  0  0  0  0
  162.1940  206.9340  151.8960 C   0  0  0  0  0  2  0  0  0  0  0  0
  162.0290  206.6700  150.4070 C   0  0  2  0  0  3  0  0  0  0  0  0
  161.9080  207.9480  149.6420 C   0  0  0  0  0  0  0  0  0  0  0  0
  162.2320  209.0330  150.1910 O   0  0  0  0  0  0  0  0  0  0  0  0
  161.4510  207.9470  148.2930 N   0  0  0  0  0  1  0  0  0  0  0  0
  160.5610  205.6340  150.1240 S   0  0  0  0  0  0  0  0  0  0  0  0
  161.4880  204.0790  150.3260 C   0  0  1  0  0  3  0  0  0  0  0  0
  161.9120  202.2930  151.8630 O   0  0  0  0  0  1  0  0  0  0  0  0
  161.2630  203.5200  151.7260 C   0  0  0  0  0  2  0  0  0  0  0  0
  159.9050  202.5170  149.4360 O   0  0  0  0  0  1  0  0  0  0  0  0
  161.1660  203.0700  149.2120 C   0  0  1  0  0  3  0  0  0  0  0  0
  161.2410  203.6750  147.7950 C   0  0  2  0  0  3  0  0  0  0  0  0
  161.0730  202.6970  146.8050 O   0  0  0  0  0  1  0  0  0  0  0  0
  162.4130  204.4330  147.5750 O   0  0  0  0  0  0  0  0  0  0  0  0
  162.6770  204.4630  146.1940 C   0  0  0  0  0  2  0  0  0  0  0  0
  162.1530  205.7540  145.5930 C   0  0  0  0  0  2  0  0  0  0  0  0
  161.3050  205.4600  144.3700 C   0  0  0  0  0  1  0  0  0  0  0  0
  1  2  1  0  0  0  0
  3  2  1  6  0  0  0
  3  4  1  0  0  0  0
  4  5  1  0  0  0  0
  6  9  1  0  0  0  0
  6  3  1  0  0  0  0
  7  9  1  0  0  0  0
  7  8  1  0  0  0  0
  9 10  1  0  0  0  0
  9  8  1  0  0  0  0
 10 11  1  0  0  0  0
 11 12  1  0  0  0  0
 13 14  1  1  0  0  0
 13 12  1  0  0  0  0
 15 17  1  6  0  0  0
 15 13  1  0  0  0  0
 16 15  1  0  0  0  0
 18  1  1  0  0  0  0
 19 18  1  1  0  0  0
 20 21  2  0  0  0  0
 20 19  1  0  0  0  0
 22 20  1  0  0  0  0
 23 24  1  0  0  0  0
 23 19  1  0  0  0  0
 24 26  1  1  0  0  0
 26 25  1  0  0  0  0
 28 27  1  1  0  0  0
 28 24  1  0  0  0  0
 29 30  1  6  0  0  0
 29 28  1  0  0  0  0
 31 29  1  0  0  0  0
 32 31  1  0  0  0  0
 33 32  1  0  0  0  0
 34 33  1  0  0  0  0
M  END
>  <MODEL>
5

>  <REMARK>
 VINA RESULT:      -5.0      2.682      9.558
  Name = 
  21 active torsions:
  status: ('A' for Active; 'I' for Inactive)
    1  A    between atoms: O_2  and  C_23
    2  A    between atoms: O_2  and  C_32
    3  A    between atoms: C_3  and  C_25
    4  A    between atoms: C_4  and  C_30
    5  A    between atoms: C_7  and  O_16
    6  A    between atoms: C_7  and  C_29
    7  A    between atoms: C_8  and  C_10
    8  A    between atoms: C_10  and  S_17
    9  A    between atoms: C_11  and  C_26
   10  A    between atoms: C_12  and  S_17
   11  A    between atoms: C_12  and  C_22
   12  A    between atoms: O_16  and  C_30
   13  A    between atoms: C_19  and  C_22
   14  A    between atoms: C_19  and  O_28
   15  A    between atoms: C_23  and  C_25
   16  A    between atoms: C_25  and  S_27
   17  A    between atoms: C_26  and  O_28
   18  A    between atoms: C_26  and  C_32
   19  A    between atoms: S_27  and  C_33
   20  A    between atoms: C_29  and  C_33
   21  A    between atoms: C_33  and  C_34
                            x       y       z     vdW  Elec       q    Type
                         _______ _______ _______ _____ _____    ______ ____

>  <TORSDO>
F 21

$$$$
=
 OpenBabel11062409533D

 34 34  0  0  1  0  0  0  0  0999 V2000
  160.8590  208.9850  151.3480 O   0  0  0  0  0  0  0  0  0  0  0  0
  161.8200  208.7310  150.3660 C   0  0  0  0  0  2  0  0  0  0  0  0
  161.9820  207.2330  150.1540 C   0  0  2  0  0  3  0  0  0  0  0  0
  162.1430  206.9840  148.6640 C   0  0  0  0  0  2  0  0  0  0  0  0
  161.1810  207.6970  147.9500 O   0  0  0  0  0  1  0  0  0  0  0  0
  160.8380  206.5700  150.6270 O   0  0  0  0  0  0  0  0  0  0  0  0
  161.2610  205.9000  152.9180 C   0  0  0  0  0  2  0  0  0  0  0  0
  162.5830  205.6930  152.1930 C   0  0  0  0  0  2  0  0  0  0  0  0
  161.2700  205.5150  151.4540 C   0  0  0  0  0  0  0  0  0  0  0  0
  160.7790  204.0960  151.1810 C   0  0  0  0  0  2  0  0  0  0  0  0
  160.9860  203.7030  149.7260 C   0  0  0  0  0  2  0  0  0  0  0  0
  160.2590  202.0720  149.3900 S   0  0  0  0  0  0  0  0  0  0  0  0
  161.3260  201.8080  147.9350 C   0  0  1  0  0  3  0  0  0  0  0  0
  161.5190  200.3220  147.7100 C   0  0  0  0  0  1  0  0  0  0  0  0
  160.7630  202.4640  146.6740 C   0  0  1  0  0  3  0  0  0  0  0  0
  161.6330  203.4380  146.1800 O   0  0  0  0  0  1  0  0  0  0  0  0
  160.4770  201.4310  145.6020 C   0  0  0  0  0  1  0  0  0  0  0  0
  161.5750  209.5120  152.4250 C   0  0  0  0  0  2  0  0  0  0  0  0
  160.6250  209.9660  153.5240 C   0  0  2  0  0  3  0  0  0  0  0  0
  159.7440  211.0760  153.0510 C   0  0  0  0  0  0  0  0  0  0  0  0
  158.5060  210.8800  152.9380 O   0  0  0  0  0  0  0  0  0  0  0  0
  160.2870  212.3580  152.7490 N   0  0  0  0  0  1  0  0  0  0  0  0
  161.5780  210.5040  154.9770 S   0  0  0  0  0  0  0  0  0  0  0  0
  160.2330  210.1070  156.1380 C   0  0  1  0  0  3  0  0  0  0  0  0
  161.7780  208.3040  156.4520 O   0  0  0  0  0  1  0  0  0  0  0  0
  160.5600  208.8230  156.8920 C   0  0  0  0  0  2  0  0  0  0  0  0
  161.0560  212.0600  157.2560 O   0  0  0  0  0  1  0  0  0  0  0  0
  159.9080  211.2880  157.0670 C   0  0  1  0  0  3  0  0  0  0  0  0
  158.7500  212.1700  156.5580 C   0  0  2  0  0  3  0  0  0  0  0  0
  158.9530  213.5210  156.8660 O   0  0  0  0  0  1  0  0  0  0  0  0
  157.4810  211.7280  156.9960 O   0  0  0  0  0  0  0  0  0  0  0  0
  156.7000  211.4140  155.8690 C   0  0  0  0  0  2  0  0  0  0  0  0
  155.8180  212.5930  155.5030 C   0  0  0  0  0  2  0  0  0  0  0  0
  155.2540  213.2390  156.7550 C   0  0  0  0  0  1  0  0  0  0  0  0
  1 18  1  0  0  0  0
  2  1  1  0  0  0  0
  3  4  1  6  0  0  0
  3  2  1  0  0  0  0
  3  6  1  0  0  0  0
  5  4  1  0  0  0  0
  6  9  1  0  0  0  0
  8  7  1  0  0  0  0
  9  8  1  0  0  0  0
  9  7  1  0  0  0  0
 10  9  1  0  0  0  0
 11 10  1  0  0  0  0
 12 11  1  0  0  0  0
 13 14  1  6  0  0  0
 13 12  1  0  0  0  0
 15 17  1  6  0  0  0
 15 13  1  0  0  0  0
 16 15  1  0  0  0  0
 19 18  1  6  0  0  0
 19 23  1  0  0  0  0
 20 19  1  0  0  0  0
 21 20  2  0  0  0  0
 22 20  1  0  0  0  0
 23 24  1  0  0  0  0
 24 26  1  1  0  0  0
 24 28  1  0  0  0  0
 25 26  1  0  0  0  0
 28 27  1  6  0  0  0
 29 30  1  1  0  0  0
 29 31  1  0  0  0  0
 29 28  1  0  0  0  0
 32 31  1  0  0  0  0
 33 32  1  0  0  0  0
 33 34  1  0  0  0  0
M  END
>  <MODEL>
6

>  <REMARK>
 VINA RESULT:      -5.0      2.269      3.740
  Name = 
  21 active torsions:
  status: ('A' for Active; 'I' for Inactive)
    1  A    between atoms: O_2  and  C_23
    2  A    between atoms: O_2  and  C_32
    3  A    between atoms: C_3  and  C_25
    4  A    between atoms: C_4  and  C_30
    5  A    between atoms: C_7  and  O_16
    6  A    between atoms: C_7  and  C_29
    7  A    between atoms: C_8  and  C_10
    8  A    between atoms: C_10  and  S_17
    9  A    between atoms: C_11  and  C_26
   10  A    between atoms: C_12  and  S_17
   11  A    between atoms: C_12  and  C_22
   12  A    between atoms: O_16  and  C_30
   13  A    between atoms: C_19  and  C_22
   14  A    between atoms: C_19  and  O_28
   15  A    between atoms: C_23  and  C_25
   16  A    between atoms: C_25  and  S_27
   17  A    between atoms: C_26  and  O_28
   18  A    between atoms: C_26  and  C_32
   19  A    between atoms: S_27  and  C_33
   20  A    between atoms: C_29  and  C_33
   21  A    between atoms: C_33  and  C_34
                            x       y       z     vdW  Elec       q    Type
                         _______ _______ _______ _____ _____    ______ ____

>  <TORSDO>
F 21

$$$$
=
 OpenBabel11062409533D

 34 34  0  0  1  0  0  0  0  0999 V2000
  161.8140  208.7120  152.5020 O   0  0  0  0  0  0  0  0  0  0  0  0
  161.9610  207.6850  151.5680 C   0  0  0  0  0  2  0  0  0  0  0  0
  161.5440  206.3510  152.1710 C   0  0  2  0  0  3  0  0  0  0  0  0
  161.7940  206.4130  153.6680 C   0  0  0  0  0  2  0  0  0  0  0  0
  160.5830  206.4510  154.3570 O   0  0  0  0  0  1  0  0  0  0  0  0
  162.3110  205.3230  151.6010 O   0  0  0  0  0  0  0  0  0  0  0  0
  160.5350  203.7750  152.1690 C   0  0  0  0  0  2  0  0  0  0  0  0
  161.6160  202.9200  151.5240 C   0  0  0  0  0  2  0  0  0  0  0  0
  161.4200  204.3600  151.0900 C   0  0  0  0  0  0  0  0  0  0  0  0
  160.6990  204.6270  149.7720 C   0  0  0  0  0  2  0  0  0  0  0  0
  161.6500  205.1650  148.7130 C   0  0  0  0  0  2  0  0  0  0  0  0
  160.7810  206.2830  147.5750 S   0  0  0  0  0  0  0  0  0  0  0  0
  161.8020  205.7620  146.1570 C   0  0  1  0  0  3  0  0  0  0  0  0
  162.9760  204.9410  146.6510 C   0  0  0  0  0  1  0  0  0  0  0  0
  161.0010  204.9680  145.1250 C   0  0  1  0  0  3  0  0  0  0  0  0
  161.3940  205.2910  143.8240 O   0  0  0  0  0  1  0  0  0  0  0  0
  161.1410  203.4760  145.3540 C   0  0  0  0  0  1  0  0  0  0  0  0
  160.5450  209.2410  152.2600 C   0  0  0  0  0  2  0  0  0  0  0  0
  160.0420  209.9970  153.4810 C   0  0  2  0  0  3  0  0  0  0  0  0
  159.3590  211.2660  153.0870 C   0  0  0  0  0  0  0  0  0  0  0  0
  158.1250  211.2570  152.8440 O   0  0  0  0  0  0  0  0  0  0  0  0
  160.0870  212.4880  153.0060 N   0  0  0  0  0  1  0  0  0  0  0  0
  161.4330  210.3590  154.5960 S   0  0  0  0  0  0  0  0  0  0  0  0
  160.4270  210.1310  156.0970 C   0  0  1  0  0  3  0  0  0  0  0  0
  162.1320  208.5090  156.5430 O   0  0  0  0  0  1  0  0  0  0  0  0
  160.7880  208.8110  156.7690 C   0  0  0  0  0  2  0  0  0  0  0  0
  161.8670  211.6830  157.2190 O   0  0  0  0  0  1  0  0  0  0  0  0
  160.5260  211.3390  157.0430 C   0  0  1  0  0  3  0  0  0  0  0  0
  159.7190  212.5620  156.5630 C   0  0  2  0  0  3  0  0  0  0  0  0
  160.2740  213.7630  157.0250 O   0  0  0  0  0  1  0  0  0  0  0  0
  158.3430  212.4790  156.8760 O   0  0  0  0  0  0  0  0  0  0  0  0
  157.6110  213.1160  155.8590 C   0  0  0  0  0  2  0  0  0  0  0  0
  156.2270  213.4790  156.3630 C   0  0  0  0  0  2  0  0  0  0  0  0
  155.3540  213.9500  155.2160 C   0  0  0  0  0  1  0  0  0  0  0  0
  2  1  1  0  0  0  0
  3  2  1  6  0  0  0
  3  4  1  0  0  0  0
  4  5  1  0  0  0  0
  6  3  1  0  0  0  0
  8  7  1  0  0  0  0
  9  8  1  0  0  0  0
  9  6  1  0  0  0  0
  9  7  1  0  0  0  0
 10  9  1  0  0  0  0
 11 10  1  0  0  0  0
 12 11  1  0  0  0  0
 13 14  1  1  0  0  0
 13 12  1  0  0  0  0
 15 17  1  1  0  0  0
 15 13  1  0  0  0  0
 16 15  1  0  0  0  0
 18  1  1  0  0  0  0
 19 18  1  6  0  0  0
 19 23  1  0  0  0  0
 20 19  1  0  0  0  0
 21 20  2  0  0  0  0
 22 20  1  0  0  0  0
 23 24  1  0  0  0  0
 24 26  1  1  0  0  0
 24 28  1  0  0  0  0
 25 26  1  0  0  0  0
 28 27  1  6  0  0  0
 29 31  1  0  0  0  0
 29 30  1  1  0  0  0
 29 28  1  0  0  0  0
 32 33  1  0  0  0  0
 32 31  1  0  0  0  0
 34 33  1  0  0  0  0
M  END
>  <MODEL>
7

>  <REMARK>
 VINA RESULT:      -4.9      2.097      3.757
  Name = 
  21 active torsions:
  status: ('A' for Active; 'I' for Inactive)
    1  A    between atoms: O_2  and  C_23
    2  A    between atoms: O_2  and  C_32
    3  A    between atoms: C_3  and  C_25
    4  A    between atoms: C_4  and  C_30
    5  A    between atoms: C_7  and  O_16
    6  A    between atoms: C_7  and  C_29
    7  A    between atoms: C_8  and  C_10
    8  A    between atoms: C_10  and  S_17
    9  A    between atoms: C_11  and  C_26
   10  A    between atoms: C_12  and  S_17
   11  A    between atoms: C_12  and  C_22
   12  A    between atoms: O_16  and  C_30
   13  A    between atoms: C_19  and  C_22
   14  A    between atoms: C_19  and  O_28
   15  A    between atoms: C_23  and  C_25
   16  A    between atoms: C_25  and  S_27
   17  A    between atoms: C_26  and  O_28
   18  A    between atoms: C_26  and  C_32
   19  A    between atoms: S_27  and  C_33
   20  A    between atoms: C_29  and  C_33
   21  A    between atoms: C_33  and  C_34
                            x       y       z     vdW  Elec       q    Type
                         _______ _______ _______ _____ _____    ______ ____

>  <TORSDO>
F 21

$$$$
=
 OpenBabel11062409533D

 34 34  0  0  1  0  0  0  0  0999 V2000
  160.5490  207.3490  153.5230 O   0  0  0  0  0  0  0  0  0  0  0  0
  161.6870  206.5490  153.3950 C   0  0  0  0  0  2  0  0  0  0  0  0
  161.9070  206.1640  151.9390 C   0  0  2  0  0  3  0  0  0  0  0  0
  162.3710  207.4010  151.1900 C   0  0  0  0  0  2  0  0  0  0  0  0
  161.2780  208.0720  150.6430 O   0  0  0  0  0  1  0  0  0  0  0  0
  160.6990  205.7010  151.3930 O   0  0  0  0  0  0  0  0  0  0  0  0
  160.4480  203.2910  151.3460 C   0  0  0  0  0  2  0  0  0  0  0  0
  161.9490  203.5360  151.2770 C   0  0  0  0  0  2  0  0  0  0  0  0
  160.9830  204.5320  150.6620 C   0  0  0  0  0  0  0  0  0  0  0  0
  160.8080  204.5300  149.1460 C   0  0  0  0  0  2  0  0  0  0  0  0
  161.7040  203.4960  148.4820 C   0  0  0  0  0  2  0  0  0  0  0  0
  160.7130  202.2730  147.5740 S   0  0  0  0  0  0  0  0  0  0  0  0
  161.3120  202.8690  145.9590 C   0  0  1  0  0  3  0  0  0  0  0  0
  160.2160  202.7200  144.9230 C   0  0  0  0  0  1  0  0  0  0  0  0
  161.7890  204.3200  146.0150 C   0  0  1  0  0  3  0  0  0  0  0  0
  163.0500  204.4610  145.4320 O   0  0  0  0  0  1  0  0  0  0  0  0
  160.7990  205.2480  145.3400 C   0  0  0  0  0  1  0  0  0  0  0  0
  160.7030  208.0020  154.7480 C   0  0  0  0  0  2  0  0  0  0  0  0
  160.5170  209.5020  154.5780 C   0  0  2  0  0  3  0  0  0  0  0  0
  161.8180  210.1780  154.2880 C   0  0  0  0  0  0  0  0  0  0  0  0
  162.1960  210.3100  153.0950 O   0  0  0  0  0  0  0  0  0  0  0  0
  162.6210  210.6930  155.3450 N   0  0  0  0  0  1  0  0  0  0  0  0
  159.7730  210.2030  156.0830 S   0  0  0  0  0  0  0  0  0  0  0  0
  158.7100  211.3500  155.1510 C   0  0  1  0  0  3  0  0  0  0  0  0
  156.6090  211.9360  156.1400 O   0  0  0  0  0  1  0  0  0  0  0  0
  157.2450  210.9780  155.3500 C   0  0  0  0  0  2  0  0  0  0  0  0
  160.2580  212.9030  156.1150 O   0  0  0  0  0  1  0  0  0  0  0  0
  159.0140  212.8190  155.4890 C   0  0  1  0  0  3  0  0  0  0  0  0
  158.9660  213.7540  154.2640 C   0  0  2  0  0  3  0  0  0  0  0  0
  157.7460  214.4390  154.1820 O   0  0  0  0  0  1  0  0  0  0  0  0
  159.2700  213.0970  153.0510 O   0  0  0  0  0  0  0  0  0  0  0  0
  158.9570  213.9570  151.9830 C   0  0  0  0  0  2  0  0  0  0  0  0
  158.1010  213.2300  150.9630 C   0  0  0  0  0  2  0  0  0  0  0  0
  156.8600  214.0410  150.6420 C   0  0  0  0  0  1  0  0  0  0  0  0
  1 18  1  0  0  0  0
  2  1  1  0  0  0  0
  3  4  1  6  0  0  0
  3  2  1  0  0  0  0
  5  4  1  0  0  0  0
  6  3  1  0  0  0  0
  8  7  1  0  0  0  0
  9  8  1  0  0  0  0
  9  7  1  0  0  0  0
  9  6  1  0  0  0  0
 10  9  1  0  0  0  0
 11 10  1  0  0  0  0
 12 11  1  0  0  0  0
 13 14  1  6  0  0  0
 13 15  1  0  0  0  0
 13 12  1  0  0  0  0
 15 17  1  6  0  0  0
 16 15  1  0  0  0  0
 19 18  1  1  0  0  0
 19 23  1  0  0  0  0
 20 19  1  0  0  0  0
 20 22  1  0  0  0  0
 21 20  2  0  0  0  0
 24 26  1  1  0  0  0
 24 28  1  0  0  0  0
 24 23  1  0  0  0  0
 26 25  1  0  0  0  0
 28 27  1  6  0  0  0
 29 30  1  6  0  0  0
 29 28  1  0  0  0  0
 31 29  1  0  0  0  0
 32 31  1  0  0  0  0
 33 32  1  0  0  0  0
 34 33  1  0  0  0  0
M  END
>  <MODEL>
8

>  <REMARK>
 VINA RESULT:      -4.7      1.557      2.052
  Name = 
  21 active torsions:
  status: ('A' for Active; 'I' for Inactive)
    1  A    between atoms: O_2  and  C_23
    2  A    between atoms: O_2  and  C_32
    3  A    between atoms: C_3  and  C_25
    4  A    between atoms: C_4  and  C_30
    5  A    between atoms: C_7  and  O_16
    6  A    between atoms: C_7  and  C_29
    7  A    between atoms: C_8  and  C_10
    8  A    between atoms: C_10  and  S_17
    9  A    between atoms: C_11  and  C_26
   10  A    between atoms: C_12  and  S_17
   11  A    between atoms: C_12  and  C_22
   12  A    between atoms: O_16  and  C_30
   13  A    between atoms: C_19  and  C_22
   14  A    between atoms: C_19  and  O_28
   15  A    between atoms: C_23  and  C_25
   16  A    between atoms: C_25  and  S_27
   17  A    between atoms: C_26  and  O_28
   18  A    between atoms: C_26  and  C_32
   19  A    between atoms: S_27  and  C_33
   20  A    between atoms: C_29  and  C_33
   21  A    between atoms: C_33  and  C_34
                            x       y       z     vdW  Elec       q    Type
                         _______ _______ _______ _____ _____    ______ ____

>  <TORSDO>
F 21

$$$$
=
 OpenBabel11062409533D

 34 34  0  0  1  0  0  0  0  0999 V2000
  161.4880  207.1740  153.7190 O   0  0  0  0  0  0  0  0  0  0  0  0
  160.7500  207.5520  154.8430 C   0  0  0  0  0  2  0  0  0  0  0  0
  160.9330  209.0360  155.1260 C   0  0  2  0  0  3  0  0  0  0  0  0
  161.1860  209.2040  156.6150 C   0  0  0  0  0  2  0  0  0  0  0  0
  162.3310  208.5030  156.9900 O   0  0  0  0  0  1  0  0  0  0  0  0
  159.7660  209.7260  154.7610 O   0  0  0  0  0  0  0  0  0  0  0  0
  160.2940  210.1560  152.4350 C   0  0  0  0  0  2  0  0  0  0  0  0
  161.5140  210.6270  153.2140 C   0  0  0  0  0  2  0  0  0  0  0  0
  160.1310  210.7180  153.8310 C   0  0  0  0  0  0  0  0  0  0  0  0
  159.4470  212.0810  153.8760 C   0  0  0  0  0  2  0  0  0  0  0  0
  159.6740  212.8630  152.5900 C   0  0  0  0  0  2  0  0  0  0  0  0
  158.1070  213.1130  151.7050 S   0  0  0  0  0  0  0  0  0  0  0  0
  158.9110  214.0970  150.3970 C   0  0  1  0  0  3  0  0  0  0  0  0
  160.3050  213.5590  150.1420 C   0  0  0  0  0  1  0  0  0  0  0  0
  158.1050  214.1080  149.0980 C   0  0  1  0  0  3  0  0  0  0  0  0
  158.7030  213.3040  148.1250 O   0  0  0  0  0  1  0  0  0  0  0  0
  156.6770  213.6580  149.3370 C   0  0  0  0  0  1  0  0  0  0  0  0
  161.3260  205.7900  153.6290 C   0  0  0  0  0  2  0  0  0  0  0  0
  161.1560  205.3670  152.1780 C   0  0  2  0  0  3  0  0  0  0  0  0
  161.2510  203.8830  152.0330 C   0  0  0  0  0  0  0  0  0  0  0  0
  162.3280  203.3660  151.6360 O   0  0  0  0  0  0  0  0  0  0  0  0
  160.1450  203.0480  152.3600 N   0  0  0  0  0  1  0  0  0  0  0  0
  162.4200  206.1750  151.1490 S   0  0  0  0  0  0  0  0  0  0  0  0
  161.1870  206.9500  150.0560 C   0  0  1  0  0  3  0  0  0  0  0  0
  162.3440  209.0400  150.2320 O   0  0  0  0  0  1  0  0  0  0  0  0
  161.8150  208.1280  149.3190 C   0  0  0  0  0  2  0  0  0  0  0  0
  159.9660  206.5920  148.0260 O   0  0  0  0  0  1  0  0  0  0  0  0
  160.5310  205.9270  149.1150 C   0  0  1  0  0  3  0  0  0  0  0  0
  161.4990  204.8300  148.6280 C   0  0  2  0  0  3  0  0  0  0  0  0
  161.9420  205.0730  147.3210 O   0  0  0  0  0  1  0  0  0  0  0  0
  160.9730  203.5250  148.7580 O   0  0  0  0  0  0  0  0  0  0  0  0
  161.4590  202.7360  147.7010 C   0  0  0  0  0  2  0  0  0  0  0  0
  161.0520  201.2890  147.9010 C   0  0  0  0  0  2  0  0  0  0  0  0
  160.8180  201.0060  149.3730 C   0  0  0  0  0  1  0  0  0  0  0  0
  1  2  1  0  0  0  0
  3  2  1  1  0  0  0
  3  4  1  0  0  0  0
  4  5  1  0  0  0  0
  6  3  1  0  0  0  0
  7  8  1  0  0  0  0
  7  9  1  0  0  0  0
  8  9  1  0  0  0  0
  9 10  1  0  0  0  0
  9  6  1  0  0  0  0
 11 10  1  0  0  0  0
 12 11  1  0  0  0  0
 13 14  1  6  0  0  0
 13 12  1  0  0  0  0
 15 17  1  1  0  0  0
 15 13  1  0  0  0  0
 16 15  1  0  0  0  0
 18  1  1  0  0  0  0
 19 18  1  1  0  0  0
 20 19  1  0  0  0  0
 20 22  1  0  0  0  0
 21 20  2  0  0  0  0
 23 19  1  0  0  0  0
 24 26  1  6  0  0  0
 24 23  1  0  0  0  0
 26 25  1  0  0  0  0
 28 27  1  6  0  0  0
 28 24  1  0  0  0  0
 29 30  1  6  0  0  0
 29 31  1  0  0  0  0
 29 28  1  0  0  0  0
 32 33  1  0  0  0  0
 32 31  1  0  0  0  0
 33 34  1  0  0  0  0
M  END
>  <MODEL>
9

>  <REMARK>
 VINA RESULT:      -4.7      2.809      8.594
  Name = 
  21 active torsions:
  status: ('A' for Active; 'I' for Inactive)
    1  A    between atoms: O_2  and  C_23
    2  A    between atoms: O_2  and  C_32
    3  A    between atoms: C_3  and  C_25
    4  A    between atoms: C_4  and  C_30
    5  A    between atoms: C_7  and  O_16
    6  A    between atoms: C_7  and  C_29
    7  A    between atoms: C_8  and  C_10
    8  A    between atoms: C_10  and  S_17
    9  A    between atoms: C_11  and  C_26
   10  A    between atoms: C_12  and  S_17
   11  A    between atoms: C_12  and  C_22
   12  A    between atoms: O_16  and  C_30
   13  A    between atoms: C_19  and  C_22
   14  A    between atoms: C_19  and  O_28
   15  A    between atoms: C_23  and  C_25
   16  A    between atoms: C_25  and  S_27
   17  A    between atoms: C_26  and  O_28
   18  A    between atoms: C_26  and  C_32
   19  A    between atoms: S_27  and  C_33
   20  A    between atoms: C_29  and  C_33
   21  A    between atoms: C_33  and  C_34
                            x       y       z     vdW  Elec       q    Type
                         _______ _______ _______ _____ _____    ______ ____

>  <TORSDO>
F 21

$$$$
