=
 OpenBabel11052422143D

 25 28  0  0  1  0  0  0  0  0999 V2000
  161.2320  205.2600  149.4420 N   0  0  0  0  0  0  0  0  0  0  0  0
  160.8060  206.3630  150.3080 C   0  0  2  0  0  3  0  0  0  0  0  0
  161.3090  203.6530  151.2220 C   0  0  0  0  0  3  0  0  0  0  0  0
  161.1330  205.2400  148.0240 C   0  0  0  0  0  0  0  0  0  0  0  0
  160.9280  204.9100  145.2690 C   0  0  0  0  0  3  0  0  0  0  0  0
  161.1650  204.7600  152.1850 C   0  0  0  0  0  3  0  0  0  0  0  0
  161.2520  203.9770  147.4660 C   0  0  0  0  0  0  0  0  0  0  0  0
  161.1490  203.7930  146.0870 C   0  0  0  0  0  3  0  0  0  0  0  0
  160.9240  207.1600  152.7150 C   0  0  0  0  0  0  0  0  0  0  0  0
  160.8290  206.9550  154.3380 S   0  0  0  0  0  0  0  0  0  0  0  0
  161.5340  207.5780  149.9930 N   0  0  0  0  0  0  0  0  0  0  0  0
  160.8050  206.1910  145.8340 C   0  0  0  0  0  3  0  0  0  0  0  0
  161.3580  203.9220  149.9200 C   0  0  0  0  0  0  0  0  0  0  0  0
  161.5020  202.6540  148.6540 S   0  0  0  0  0  0  0  0  0  0  0  0
  160.8840  208.5480  152.1450 C   0  0  0  0  0  2  0  0  0  0  0  0
  160.9040  206.3620  147.2210 C   0  0  0  0  0  3  0  0  0  0  0  0
  161.5590  208.5950  150.7930 C   0  0  0  0  0  0  0  0  0  0  0  0
  160.9690  206.0220  151.7760 C   0  0  0  0  0  0  0  0  0  0  0  0
  162.2940  209.8330  150.3940 C   0  0  0  0  0  2  0  0  0  0  0  0
  161.9880  210.2240  148.6440 S   0  0  0  0  0  0  0  0  0  0  0  0
  161.9380  212.0130  148.9590 C   0  0  0  0  0  2  0  0  0  0  0  0
  162.7050  212.7130  147.9440 N   0  0  0  0  0  2  0  0  0  0  0  0
  161.9370  212.7050  146.7720 N   0  0  0  0  0  2  0  0  0  0  0  0
  162.3810  213.8290  145.9640 C   0  0  0  0  0  2  0  0  0  0  0  0
  162.9130  213.3280  144.6350 C   0  0  0  0  0  1  0  0  0  0  0  0
  1 13  1  0  0  0  0
  1  2  1  0  0  0  0
  2 11  1  6  0  0  0
  2 18  1  0  0  0  0
  3  6  1  0  0  0  0
  4  1  1  0  0  0  0
  5 12  2  0  0  0  0
  5  8  1  0  0  0  0
  7  4  1  0  0  0  0
  7 14  1  0  0  0  0
  8  7  2  0  0  0  0
  9 10  2  0  0  0  0
 11 17  2  0  0  0  0
 12 16  1  0  0  0  0
 13  3  2  0  0  0  0
 14 13  1  0  0  0  0
 15  9  1  0  0  0  0
 16  4  2  0  0  0  0
 17 15  1  0  0  0  0
 18  6  2  0  0  0  0
 18  9  1  0  0  0  0
 19 17  1  0  0  0  0
 20 21  1  0  0  0  0
 20 19  1  0  0  0  0
 22 21  1  0  0  0  0
 23 22  1  0  0  0  0
 24 23  1  0  0  0  0
 25 24  1  0  0  0  0
M  END
>  <MODEL>
1

>  <REMARK>
 VINA RESULT:      -7.6      0.000      0.000
  Name = 
  6 active torsions:
  status: ('A' for Active; 'I' for Inactive)
    1  A    between atoms: C_2  and  N_12
    2  A    between atoms: C_6  and  S_15
    3  A    between atoms: C_6  and  C_23
    4  A    between atoms: N_12  and  N_25
    5  A    between atoms: S_15  and  C_21
    6  A    between atoms: C_21  and  N_25
                            x       y       z     vdW  Elec       q    Type
                         _______ _______ _______ _____ _____    ______ ____

>  <TORSDO>
F 6

$$$$
=
 OpenBabel11052422143D

 25 28  0  0  1  0  0  0  0  0999 V2000
  161.2300  205.1760  149.5630 N   0  0  0  0  0  0  0  0  0  0  0  0
  160.7990  206.2880  150.4160 C   0  0  2  0  0  3  0  0  0  0  0  0
  161.2840  203.5850  151.3580 C   0  0  0  0  0  3  0  0  0  0  0  0
  161.1450  205.1450  148.1450 C   0  0  0  0  0  0  0  0  0  0  0  0
  160.9670  204.7910  145.3900 C   0  0  0  0  0  3  0  0  0  0  0  0
  161.1330  204.7000  152.3100 C   0  0  0  0  0  3  0  0  0  0  0  0
  161.2660  203.8760  147.5990 C   0  0  0  0  0  0  0  0  0  0  0  0
  161.1770  203.6810  146.2210 C   0  0  0  0  0  3  0  0  0  0  0  0
  160.8940  207.1060  152.8160 C   0  0  0  0  0  0  0  0  0  0  0  0
  160.7820  206.9150  154.4400 S   0  0  0  0  0  0  0  0  0  0  0  0
  161.5330  207.4980  150.0970 N   0  0  0  0  0  0  0  0  0  0  0  0
  160.8420  206.0770  145.9430 C   0  0  0  0  0  3  0  0  0  0  0  0
  161.3460  203.8420  150.0540 C   0  0  0  0  0  0  0  0  0  0  0  0
  161.5000  202.5630  148.8010 S   0  0  0  0  0  0  0  0  0  0  0  0
  160.8640  208.4890  152.2340 C   0  0  0  0  0  2  0  0  0  0  0  0
  160.9270  206.2600  147.3300 C   0  0  0  0  0  3  0  0  0  0  0  0
  161.5530  208.5220  150.8880 C   0  0  0  0  0  0  0  0  0  0  0  0
  160.9460  205.9600  151.8880 C   0  0  0  0  0  0  0  0  0  0  0  0
  162.2960  209.7540  150.4870 C   0  0  0  0  0  2  0  0  0  0  0  0
  162.1360  210.0430  148.6980 S   0  0  0  0  0  0  0  0  0  0  0  0
  162.0070  211.8440  148.9090 C   0  0  0  0  0  2  0  0  0  0  0  0
  161.5430  212.4520  147.6740 N   0  0  0  0  0  2  0  0  0  0  0  0
  160.8980  213.6470  148.0230 N   0  0  0  0  0  2  0  0  0  0  0  0
  160.3310  213.4530  149.3470 C   0  0  0  0  0  2  0  0  0  0  0  0
  158.8530  213.7930  149.3280 C   0  0  0  0  0  1  0  0  0  0  0  0
  1 13  1  0  0  0  0
  1  2  1  0  0  0  0
  2 11  1  6  0  0  0
  2 18  1  0  0  0  0
  3  6  1  0  0  0  0
  4  1  1  0  0  0  0
  5 12  2  0  0  0  0
  5  8  1  0  0  0  0
  7  4  1  0  0  0  0
  7 14  1  0  0  0  0
  8  7  2  0  0  0  0
  9 10  2  0  0  0  0
 11 17  2  0  0  0  0
 12 16  1  0  0  0  0
 13  3  2  0  0  0  0
 14 13  1  0  0  0  0
 15  9  1  0  0  0  0
 16  4  2  0  0  0  0
 17 15  1  0  0  0  0
 18  6  2  0  0  0  0
 18  9  1  0  0  0  0
 19 17  1  0  0  0  0
 20 21  1  0  0  0  0
 20 19  1  0  0  0  0
 22 23  1  0  0  0  0
 22 21  1  0  0  0  0
 23 24  1  0  0  0  0
 25 24  1  0  0  0  0
M  END
>  <MODEL>
2

>  <REMARK>
 VINA RESULT:      -7.4      1.218      1.550
  Name = 
  6 active torsions:
  status: ('A' for Active; 'I' for Inactive)
    1  A    between atoms: C_2  and  N_12
    2  A    between atoms: C_6  and  S_15
    3  A    between atoms: C_6  and  C_23
    4  A    between atoms: N_12  and  N_25
    5  A    between atoms: S_15  and  C_21
    6  A    between atoms: C_21  and  N_25
                            x       y       z     vdW  Elec       q    Type
                         _______ _______ _______ _____ _____    ______ ____

>  <TORSDO>
F 6

$$$$
=
 OpenBabel11052422143D

 25 28  0  0  1  0  0  0  0  0999 V2000
  161.2550  206.2330  151.1950 N   0  0  0  0  0  0  0  0  0  0  0  0
  160.8410  207.5950  151.5480 C   0  0  2  0  0  3  0  0  0  0  0  0
  161.1820  205.4310  153.4550 C   0  0  0  0  0  3  0  0  0  0  0  0
  161.2180  205.6740  149.8900 C   0  0  0  0  0  0  0  0  0  0  0  0
  161.1200  204.3160  147.4620 C   0  0  0  0  0  3  0  0  0  0  0  0
  161.0450  206.8260  153.9130 C   0  0  0  0  0  3  0  0  0  0  0  0
  161.3050  204.2900  149.8650 C   0  0  0  0  0  0  0  0  0  0  0  0
  161.2550  203.5930  148.6560 C   0  0  0  0  0  3  0  0  0  0  0  0
  160.8880  209.2510  153.4700 C   0  0  0  0  0  0  0  0  0  0  0  0
  160.7120  209.6870  155.0400 S   0  0  0  0  0  0  0  0  0  0  0  0
  161.6350  208.5770  150.8350 N   0  0  0  0  0  0  0  0  0  0  0  0
  161.0290  205.7180  147.4870 C   0  0  0  0  0  3  0  0  0  0  0  0
  161.2990  205.1790  152.1550 C   0  0  0  0  0  0  0  0  0  0  0  0
  161.4430  203.5190  151.4790 S   0  0  0  0  0  0  0  0  0  0  0  0
  160.9340  210.3140  152.4120 C   0  0  0  0  0  2  0  0  0  0  0  0
  161.0740  206.4060  148.7070 C   0  0  0  0  0  3  0  0  0  0  0  0
  161.6700  209.8230  151.1860 C   0  0  0  0  0  0  0  0  0  0  0  0
  160.9230  207.8390  153.0420 C   0  0  0  0  0  0  0  0  0  0  0  0
  162.4760  210.7940  150.3880 C   0  0  0  0  0  2  0  0  0  0  0  0
  161.9620  210.7720  148.6430 S   0  0  0  0  0  0  0  0  0  0  0  0
  161.5870  212.5510  148.6380 C   0  0  0  0  0  2  0  0  0  0  0  0
  161.2230  212.9730  147.2960 N   0  0  0  0  0  2  0  0  0  0  0  0
  162.3930  212.9410  146.5250 N   0  0  0  0  0  2  0  0  0  0  0  0
  162.0200  213.3170  145.1710 C   0  0  0  0  0  2  0  0  0  0  0  0
  163.2400  213.2720  144.2710 C   0  0  0  0  0  1  0  0  0  0  0  0
  1  2  1  0  0  0  0
  1 13  1  0  0  0  0
  2 11  1  6  0  0  0
  2 18  1  0  0  0  0
  3  6  1  0  0  0  0
  4  1  1  0  0  0  0
  5 12  2  0  0  0  0
  5  8  1  0  0  0  0
  7  4  1  0  0  0  0
  7 14  1  0  0  0  0
  8  7  2  0  0  0  0
  9 10  2  0  0  0  0
 11 17  2  0  0  0  0
 12 16  1  0  0  0  0
 13  3  2  0  0  0  0
 14 13  1  0  0  0  0
 15  9  1  0  0  0  0
 16  4  2  0  0  0  0
 17 15  1  0  0  0  0
 18  9  1  0  0  0  0
 18  6  2  0  0  0  0
 19 17  1  0  0  0  0
 20 19  1  0  0  0  0
 21 20  1  0  0  0  0
 22 21  1  0  0  0  0
 23 22  1  0  0  0  0
 24 23  1  0  0  0  0
 25 24  1  0  0  0  0
M  END
>  <MODEL>
3

>  <REMARK>
 VINA RESULT:      -7.4      1.377      1.948
  Name = 
  6 active torsions:
  status: ('A' for Active; 'I' for Inactive)
    1  A    between atoms: C_2  and  N_12
    2  A    between atoms: C_6  and  S_15
    3  A    between atoms: C_6  and  C_23
    4  A    between atoms: N_12  and  N_25
    5  A    between atoms: S_15  and  C_21
    6  A    between atoms: C_21  and  N_25
                            x       y       z     vdW  Elec       q    Type
                         _______ _______ _______ _____ _____    ______ ____

>  <TORSDO>
F 6

$$$$
=
 OpenBabel11052422143D

 25 28  0  0  1  0  0  0  0  0999 V2000
  161.2030  206.3830  151.7500 N   0  0  0  0  0  0  0  0  0  0  0  0
  161.6180  205.5390  150.6250 C   0  0  2  0  0  3  0  0  0  0  0  0
  160.6760  204.5290  153.1800 C   0  0  0  0  0  3  0  0  0  0  0  0
  161.5090  207.7610  151.9030 C   0  0  0  0  0  0  0  0  0  0  0  0
  162.0850  210.4200  152.4920 C   0  0  0  0  0  3  0  0  0  0  0  0
  160.8010  203.6350  152.0140 C   0  0  0  0  0  3  0  0  0  0  0  0
  161.3310  208.2410  153.1920 C   0  0  0  0  0  0  0  0  0  0  0  0
  161.6170  209.5710  153.5050 C   0  0  0  0  0  3  0  0  0  0  0  0
  161.2340  203.2440  149.6140 C   0  0  0  0  0  0  0  0  0  0  0  0
  161.0610  201.6150  149.6860 S   0  0  0  0  0  0  0  0  0  0  0  0
  161.0900  206.0500  149.3740 N   0  0  0  0  0  0  0  0  0  0  0  0
  162.2680  209.9340  151.1860 C   0  0  0  0  0  3  0  0  0  0  0  0
  160.8540  205.8370  153.0220 C   0  0  0  0  0  0  0  0  0  0  0  0
  160.7560  207.0180  154.3730 S   0  0  0  0  0  0  0  0  0  0  0  0
  161.5180  203.8960  148.2920 C   0  0  0  0  0  2  0  0  0  0  0  0
  161.9830  208.5950  150.8850 C   0  0  0  0  0  3  0  0  0  0  0  0
  161.0620  205.3380  148.2940 C   0  0  0  0  0  0  0  0  0  0  0  0
  161.1990  204.0950  150.8180 C   0  0  0  0  0  0  0  0  0  0  0  0
  160.5420  205.9340  147.0270 C   0  0  0  0  0  2  0  0  0  0  0  0
  161.7810  205.8020  145.7020 S   0  0  0  0  0  0  0  0  0  0  0  0
  160.6840  204.8050  144.6520 C   0  0  0  0  0  2  0  0  0  0  0  0
  160.8270  203.3980  144.9870 N   0  0  0  0  0  2  0  0  0  0  0  0
  159.7050  202.7370  144.4690 N   0  0  0  0  0  2  0  0  0  0  0  0
  159.8140  201.3420  144.8610 C   0  0  0  0  0  2  0  0  0  0  0  0
  160.7990  201.2050  146.0060 C   0  0  0  0  0  1  0  0  0  0  0  0
  1  4  1  0  0  0  0
  1 13  1  0  0  0  0
  2 11  1  6  0  0  0
  2 18  1  0  0  0  0
  2  1  1  0  0  0  0
  4  7  1  0  0  0  0
  5  8  1  0  0  0  0
  6  3  1  0  0  0  0
  7  8  2  0  0  0  0
  7 14  1  0  0  0  0
  9 10  2  0  0  0  0
  9 18  1  0  0  0  0
 12  5  2  0  0  0  0
 13  3  2  0  0  0  0
 13 14  1  0  0  0  0
 15 17  1  0  0  0  0
 15  9  1  0  0  0  0
 16 12  1  0  0  0  0
 16  4  2  0  0  0  0
 17 11  2  0  0  0  0
 18  6  2  0  0  0  0
 19 17  1  0  0  0  0
 20 19  1  0  0  0  0
 21 22  1  0  0  0  0
 21 20  1  0  0  0  0
 23 24  1  0  0  0  0
 23 22  1  0  0  0  0
 24 25  1  0  0  0  0
M  END
>  <MODEL>
4

>  <REMARK>
 VINA RESULT:      -7.3      3.204      6.877
  Name = 
  6 active torsions:
  status: ('A' for Active; 'I' for Inactive)
    1  A    between atoms: C_2  and  N_12
    2  A    between atoms: C_6  and  S_15
    3  A    between atoms: C_6  and  C_23
    4  A    between atoms: N_12  and  N_25
    5  A    between atoms: S_15  and  C_21
    6  A    between atoms: C_21  and  N_25
                            x       y       z     vdW  Elec       q    Type
                         _______ _______ _______ _____ _____    ______ ____

>  <TORSDO>
F 6

$$$$
=
 OpenBabel11052422143D

 25 28  0  0  1  0  0  0  0  0999 V2000
  161.3140  205.8020  149.6370 N   0  0  0  0  0  0  0  0  0  0  0  0
  161.8590  206.9380  150.3850 C   0  0  2  0  0  3  0  0  0  0  0  0
  161.4440  206.9070  147.5110 C   0  0  0  0  0  3  0  0  0  0  0  0
  161.2330  204.4650  150.1120 C   0  0  0  0  0  0  0  0  0  0  0  0
  161.0840  201.7640  150.7640 C   0  0  0  0  0  3  0  0  0  0  0  0
  161.7220  208.1690  148.2190 C   0  0  0  0  0  3  0  0  0  0  0  0
  161.0290  203.5220  149.1170 C   0  0  0  0  0  0  0  0  0  0  0  0
  160.9550  202.1630  149.4260 C   0  0  0  0  0  3  0  0  0  0  0  0
  162.0560  209.4670  150.2940 C   0  0  0  0  0  0  0  0  0  0  0  0
  162.3540  210.8930  149.5430 S   0  0  0  0  0  0  0  0  0  0  0  0
  161.1110  207.1570  151.6090 N   0  0  0  0  0  0  0  0  0  0  0  0
  161.2920  202.7190  151.7730 C   0  0  0  0  0  3  0  0  0  0  0  0
  161.2350  205.7960  148.2120 C   0  0  0  0  0  0  0  0  0  0  0  0
  160.9160  204.1960  147.4580 S   0  0  0  0  0  0  0  0  0  0  0  0
  162.0400  209.4150  151.7940 C   0  0  0  0  0  2  0  0  0  0  0  0
  161.3720  204.0810  151.4500 C   0  0  0  0  0  3  0  0  0  0  0  0
  161.2000  208.2570  152.2850 C   0  0  0  0  0  0  0  0  0  0  0  0
  161.8790  208.2040  149.5520 C   0  0  0  0  0  0  0  0  0  0  0  0
  160.4350  208.4080  153.5580 C   0  0  0  0  0  2  0  0  0  0  0  0
  160.7770  207.0150  154.6790 S   0  0  0  0  0  0  0  0  0  0  0  0
  159.8710  207.7830  156.0550 C   0  0  0  0  0  2  0  0  0  0  0  0
  160.5550  208.9930  156.4800 N   0  0  0  0  0  2  0  0  0  0  0  0
  161.7910  208.6000  157.0090 N   0  0  0  0  0  2  0  0  0  0  0  0
  162.6580  209.7660  156.9770 C   0  0  0  0  0  2  0  0  0  0  0  0
  162.1920  210.7230  155.8960 C   0  0  0  0  0  1  0  0  0  0  0  0
  1  4  1  0  0  0  0
  1  2  1  0  0  0  0
  2 18  1  6  0  0  0
  2 11  1  0  0  0  0
  3 13  2  0  0  0  0
  3  6  1  0  0  0  0
  4 16  1  0  0  0  0
  5 12  1  0  0  0  0
  6 18  2  0  0  0  0
  7  8  1  0  0  0  0
  7  4  2  0  0  0  0
  8  5  2  0  0  0  0
  9 15  1  0  0  0  0
 10  9  2  0  0  0  0
 11 17  2  0  0  0  0
 13  1  1  0  0  0  0
 14 13  1  0  0  0  0
 14  7  1  0  0  0  0
 15 17  1  0  0  0  0
 16 12  2  0  0  0  0
 17 19  1  0  0  0  0
 18  9  1  0  0  0  0
 19 20  1  0  0  0  0
 20 21  1  0  0  0  0
 21 22  1  0  0  0  0
 22 23  1  0  0  0  0
 24 23  1  0  0  0  0
 25 24  1  0  0  0  0
M  END
>  <MODEL>
5

>  <REMARK>
 VINA RESULT:      -7.2      3.051      5.966
  Name = 
  6 active torsions:
  status: ('A' for Active; 'I' for Inactive)
    1  A    between atoms: C_2  and  N_12
    2  A    between atoms: C_6  and  S_15
    3  A    between atoms: C_6  and  C_23
    4  A    between atoms: N_12  and  N_25
    5  A    between atoms: S_15  and  C_21
    6  A    between atoms: C_21  and  N_25
                            x       y       z     vdW  Elec       q    Type
                         _______ _______ _______ _____ _____    ______ ____

>  <TORSDO>
F 6

$$$$
=
 OpenBabel11052422143D

 25 28  0  0  1  0  0  0  0  0999 V2000
  161.3660  206.2620  149.7810 N   0  0  0  0  0  0  0  0  0  0  0  0
  161.8280  207.5300  150.3520 C   0  0  2  0  0  3  0  0  0  0  0  0
  161.7340  206.9430  147.5100 C   0  0  0  0  0  3  0  0  0  0  0  0
  161.2270  205.0400  150.4920 C   0  0  0  0  0  0  0  0  0  0  0  0
  160.9980  202.5100  151.6300 C   0  0  0  0  0  3  0  0  0  0  0  0
  161.9360  208.3220  147.9890 C   0  0  0  0  0  3  0  0  0  0  0  0
  161.1320  203.9200  149.6800 C   0  0  0  0  0  0  0  0  0  0  0  0
  161.0190  202.6440  150.2340 C   0  0  0  0  0  3  0  0  0  0  0  0
  162.0420  209.9980  149.8010 C   0  0  0  0  0  0  0  0  0  0  0  0
  162.4260  211.2590  148.8270 S   0  0  0  0  0  0  0  0  0  0  0  0
  160.9500  207.9650  151.4230 N   0  0  0  0  0  0  0  0  0  0  0  0
  161.0960  203.6440  152.4530 C   0  0  0  0  0  3  0  0  0  0  0  0
  161.4440  205.9830  148.3840 C   0  0  0  0  0  0  0  0  0  0  0  0
  161.2060  204.2630  147.9200 S   0  0  0  0  0  0  0  0  0  0  0  0
  161.8600  210.2330  151.2720 C   0  0  0  0  0  2  0  0  0  0  0  0
  161.2160  204.9200  151.8860 C   0  0  0  0  0  3  0  0  0  0  0  0
  160.9670  209.1760  151.8800 C   0  0  0  0  0  0  0  0  0  0  0  0
  161.9450  208.6140  149.2990 C   0  0  0  0  0  0  0  0  0  0  0  0
  160.0660  209.5530  153.0100 C   0  0  0  0  0  2  0  0  0  0  0  0
  160.4680  211.2180  153.6220 S   0  0  0  0  0  0  0  0  0  0  0  0
  160.8050  210.6170  155.3030 C   0  0  0  0  0  2  0  0  0  0  0  0
  159.8960  209.5310  155.6290 N   0  0  0  0  0  2  0  0  0  0  0  0
  160.4680  208.8230  156.6940 N   0  0  0  0  0  2  0  0  0  0  0  0
  160.0880  207.4300  156.5330 C   0  0  0  0  0  2  0  0  0  0  0  0
  160.4620  206.9520  155.1430 C   0  0  0  0  0  1  0  0  0  0  0  0
  1  2  1  0  0  0  0
  1  4  1  0  0  0  0
  2 18  1  6  0  0  0
  2 11  1  0  0  0  0
  3  6  1  0  0  0  0
  3 13  2  0  0  0  0
  4 16  1  0  0  0  0
  5 12  1  0  0  0  0
  6 18  2  0  0  0  0
  7  8  1  0  0  0  0
  7  4  2  0  0  0  0
  8  5  2  0  0  0  0
  9 15  1  0  0  0  0
 10  9  2  0  0  0  0
 11 17  2  0  0  0  0
 13  1  1  0  0  0  0
 14 13  1  0  0  0  0
 14  7  1  0  0  0  0
 15 17  1  0  0  0  0
 16 12  2  0  0  0  0
 17 19  1  0  0  0  0
 18  9  1  0  0  0  0
 19 20  1  0  0  0  0
 20 21  1  0  0  0  0
 21 22  1  0  0  0  0
 22 23  1  0  0  0  0
 24 23  1  0  0  0  0
 25 24  1  0  0  0  0
M  END
>  <MODEL>
6

>  <REMARK>
 VINA RESULT:      -7.2      2.992      6.008
  Name = 
  6 active torsions:
  status: ('A' for Active; 'I' for Inactive)
    1  A    between atoms: C_2  and  N_12
    2  A    between atoms: C_6  and  S_15
    3  A    between atoms: C_6  and  C_23
    4  A    between atoms: N_12  and  N_25
    5  A    between atoms: S_15  and  C_21
    6  A    between atoms: C_21  and  N_25
                            x       y       z     vdW  Elec       q    Type
                         _______ _______ _______ _____ _____    ______ ____

>  <TORSDO>
F 6

$$$$
=
 OpenBabel11052422143D

 25 28  0  0  1  0  0  0  0  0999 V2000
  161.3690  208.0540  152.5920 N   0  0  0  0  0  0  0  0  0  0  0  0
  160.8710  207.1770  151.5290 C   0  0  2  0  0  3  0  0  0  0  0  0
  162.1690  209.7360  151.0790 C   0  0  0  0  0  3  0  0  0  0  0  0
  161.0050  207.9750  153.9630 C   0  0  0  0  0  0  0  0  0  0  0  0
  160.3540  208.1070  156.6660 C   0  0  0  0  0  3  0  0  0  0  0  0
  161.9560  208.7920  149.9670 C   0  0  0  0  0  3  0  0  0  0  0  0
  161.3100  209.1130  154.6960 C   0  0  0  0  0  0  0  0  0  0  0  0
  160.9880  209.1960  156.0510 C   0  0  0  0  0  3  0  0  0  0  0  0
  161.2600  206.5900  149.0910 C   0  0  0  0  0  0  0  0  0  0  0  0
  161.5330  206.9530  147.5160 S   0  0  0  0  0  0  0  0  0  0  0  0
  161.2140  205.7930  151.7970 N   0  0  0  0  0  0  0  0  0  0  0  0
  160.0430  206.9550  155.9240 C   0  0  0  0  0  3  0  0  0  0  0  0
  161.8990  209.3510  152.3230 C   0  0  0  0  0  0  0  0  0  0  0  0
  162.0920  210.4240  153.7530 S   0  0  0  0  0  0  0  0  0  0  0  0
  160.7820  205.2150  149.4570 C   0  0  0  0  0  2  0  0  0  0  0  0
  160.3650  206.8850  154.5620 C   0  0  0  0  0  3  0  0  0  0  0  0
  161.1520  204.8780  150.8840 C   0  0  0  0  0  0  0  0  0  0  0  0
  161.3910  207.5910  150.1670 C   0  0  0  0  0  0  0  0  0  0  0  0
  161.4800  203.4630  151.2310 C   0  0  0  0  0  2  0  0  0  0  0  0
  160.2730  202.3230  150.4860 S   0  0  0  0  0  0  0  0  0  0  0  0
  161.5690  201.1920  149.8990 C   0  0  0  0  0  2  0  0  0  0  0  0
  161.3250  200.8440  148.5100 N   0  0  0  0  0  2  0  0  0  0  0  0
  160.8820  202.0080  147.8670 N   0  0  0  0  0  2  0  0  0  0  0  0
  160.8300  201.7160  146.4440 C   0  0  0  0  0  2  0  0  0  0  0  0
  161.2050  202.9530  145.6520 C   0  0  0  0  0  1  0  0  0  0  0  0
  1  4  1  0  0  0  0
  2 18  1  6  0  0  0
  2 11  1  0  0  0  0
  2  1  1  0  0  0  0
  3 13  2  0  0  0  0
  4 16  2  0  0  0  0
  4  7  1  0  0  0  0
  6 18  2  0  0  0  0
  6  3  1  0  0  0  0
  7  8  2  0  0  0  0
  8  5  1  0  0  0  0
  9 15  1  0  0  0  0
  9 18  1  0  0  0  0
 10  9  2  0  0  0  0
 12  5  2  0  0  0  0
 13  1  1  0  0  0  0
 13 14  1  0  0  0  0
 14  7  1  0  0  0  0
 15 17  1  0  0  0  0
 16 12  1  0  0  0  0
 17 19  1  0  0  0  0
 17 11  2  0  0  0  0
 20 19  1  0  0  0  0
 21 20  1  0  0  0  0
 22 21  1  0  0  0  0
 23 22  1  0  0  0  0
 24 23  1  0  0  0  0
 25 24  1  0  0  0  0
M  END
>  <MODEL>
7

>  <REMARK>
 VINA RESULT:      -7.2      3.363      8.010
  Name = 
  6 active torsions:
  status: ('A' for Active; 'I' for Inactive)
    1  A    between atoms: C_2  and  N_12
    2  A    between atoms: C_6  and  S_15
    3  A    between atoms: C_6  and  C_23
    4  A    between atoms: N_12  and  N_25
    5  A    between atoms: S_15  and  C_21
    6  A    between atoms: C_21  and  N_25
                            x       y       z     vdW  Elec       q    Type
                         _______ _______ _______ _____ _____    ______ ____

>  <TORSDO>
F 6

$$$$
=
 OpenBabel11052422143D

 25 28  0  0  1  0  0  0  0  0999 V2000
  161.1620  204.7070  148.7760 N   0  0  0  0  0  0  0  0  0  0  0  0
  160.7680  205.7040  149.7760 C   0  0  2  0  0  3  0  0  0  0  0  0
  161.2190  202.8920  150.3440 C   0  0  0  0  0  3  0  0  0  0  0  0
  161.0520  204.8640  147.3680 C   0  0  0  0  0  0  0  0  0  0  0  0
  160.8180  204.8790  144.5950 C   0  0  0  0  0  3  0  0  0  0  0  0
  161.1070  203.8750  151.4370 C   0  0  0  0  0  3  0  0  0  0  0  0
  161.1390  203.6760  146.6580 C   0  0  0  0  0  0  0  0  0  0  0  0
  161.0210  203.6660  145.2670 C   0  0  0  0  0  3  0  0  0  0  0  0
  160.9220  206.1960  152.2600 C   0  0  0  0  0  0  0  0  0  0  0  0
  160.8350  205.7950  153.8470 S   0  0  0  0  0  0  0  0  0  0  0  0
  161.5190  206.9330  149.6040 N   0  0  0  0  0  0  0  0  0  0  0  0
  160.7270  206.0830  145.3140 C   0  0  0  0  0  3  0  0  0  0  0  0
  161.2630  203.3180  149.0850 C   0  0  0  0  0  0  0  0  0  0  0  0
  161.3700  202.2130  147.6710 S   0  0  0  0  0  0  0  0  0  0  0  0
  160.9070  207.6440  151.8660 C   0  0  0  0  0  2  0  0  0  0  0  0
  160.8400  206.0810  146.7110 C   0  0  0  0  0  3  0  0  0  0  0  0
  161.5720  207.8440  150.5220 C   0  0  0  0  0  0  0  0  0  0  0  0
  160.9350  205.1820  151.1890 C   0  0  0  0  0  0  0  0  0  0  0  0
  162.3310  209.1050  150.2710 C   0  0  0  0  0  2  0  0  0  0  0  0
  162.4050  210.1190  151.7800 S   0  0  0  0  0  0  0  0  0  0  0  0
  160.9810  211.1310  151.2780 C   0  0  0  0  0  2  0  0  0  0  0  0
  160.1440  211.4100  152.4330 N   0  0  0  0  0  2  0  0  0  0  0  0
  160.8930  211.0800  153.5700 N   0  0  0  0  0  2  0  0  0  0  0  0
  159.9810  210.4560  154.5140 C   0  0  0  0  0  2  0  0  0  0  0  0
  160.6970  209.3540  155.2700 C   0  0  0  0  0  1  0  0  0  0  0  0
  1 13  1  0  0  0  0
  1  2  1  0  0  0  0
  2 11  1  1  0  0  0
  2 18  1  0  0  0  0
  3  6  1  0  0  0  0
  4  1  1  0  0  0  0
  5  8  2  0  0  0  0
  5 12  1  0  0  0  0
  7  4  2  0  0  0  0
  7 14  1  0  0  0  0
  8  7  1  0  0  0  0
  9 10  2  0  0  0  0
 11 17  2  0  0  0  0
 12 16  2  0  0  0  0
 13  3  2  0  0  0  0
 14 13  1  0  0  0  0
 15  9  1  0  0  0  0
 16  4  1  0  0  0  0
 17 15  1  0  0  0  0
 18  6  2  0  0  0  0
 18  9  1  0  0  0  0
 19 17  1  0  0  0  0
 19 20  1  0  0  0  0
 21 20  1  0  0  0  0
 21 22  1  0  0  0  0
 22 23  1  0  0  0  0
 23 24  1  0  0  0  0
 24 25  1  0  0  0  0
M  END
>  <MODEL>
8

>  <REMARK>
 VINA RESULT:      -6.8      2.707      3.663
  Name = 
  6 active torsions:
  status: ('A' for Active; 'I' for Inactive)
    1  A    between atoms: C_2  and  N_12
    2  A    between atoms: C_6  and  S_15
    3  A    between atoms: C_6  and  C_23
    4  A    between atoms: N_12  and  N_25
    5  A    between atoms: S_15  and  C_21
    6  A    between atoms: C_21  and  N_25
                            x       y       z     vdW  Elec       q    Type
                         _______ _______ _______ _____ _____    ______ ____

>  <TORSDO>
F 6

$$$$
=
 OpenBabel11052422143D

 25 28  0  0  1  0  0  0  0  0999 V2000
  161.3940  206.2630  149.7680 N   0  0  0  0  0  0  0  0  0  0  0  0
  161.8610  207.5330  150.3330 C   0  0  2  0  0  3  0  0  0  0  0  0
  161.7090  206.9540  147.4920 C   0  0  0  0  0  3  0  0  0  0  0  0
  161.2780  205.0380  150.4780 C   0  0  0  0  0  0  0  0  0  0  0  0
  161.0870  202.5040  151.6120 C   0  0  0  0  0  3  0  0  0  0  0  0
  161.9140  208.3330  147.9710 C   0  0  0  0  0  3  0  0  0  0  0  0
  161.1720  203.9200  149.6640 C   0  0  0  0  0  0  0  0  0  0  0  0
  161.0780  202.6420  150.2160 C   0  0  0  0  0  3  0  0  0  0  0  0
  162.0490  210.0030  149.7850 C   0  0  0  0  0  0  0  0  0  0  0  0
  162.4050  211.2700  148.8080 S   0  0  0  0  0  0  0  0  0  0  0  0
  161.0040  207.9590  151.4240 N   0  0  0  0  0  0  0  0  0  0  0  0
  161.1970  203.6360  152.4370 C   0  0  0  0  0  3  0  0  0  0  0  0
  161.4440  205.9900  148.3680 C   0  0  0  0  0  0  0  0  0  0  0  0
  161.2050  204.2690  147.9040 S   0  0  0  0  0  0  0  0  0  0  0  0
  161.8970  210.2330  151.2610 C   0  0  0  0  0  2  0  0  0  0  0  0
  161.2970  204.9140  151.8710 C   0  0  0  0  0  3  0  0  0  0  0  0
  161.0230  209.1680  151.8850 C   0  0  0  0  0  0  0  0  0  0  0  0
  161.9490  208.6200  149.2810 C   0  0  0  0  0  0  0  0  0  0  0  0
  160.1450  209.5360  153.0350 C   0  0  0  0  0  2  0  0  0  0  0  0
  160.8040  210.9910  153.9050 S   0  0  0  0  0  0  0  0  0  0  0  0
  159.2480  211.9130  153.7320 C   0  0  0  0  0  2  0  0  0  0  0  0
  158.3760  211.6210  154.8570 N   0  0  0  0  0  2  0  0  0  0  0  0
  157.0830  211.4550  154.3410 N   0  0  0  0  0  2  0  0  0  0  0  0
  156.2220  211.0980  155.4560 C   0  0  0  0  0  2  0  0  0  0  0  0
  155.2060  210.0640  155.0110 C   0  0  0  0  0  1  0  0  0  0  0  0
  1  2  1  0  0  0  0
  1  4  1  0  0  0  0
  2 18  1  6  0  0  0
  2 11  1  0  0  0  0
  3  6  1  0  0  0  0
  3 13  2  0  0  0  0
  4 16  1  0  0  0  0
  5 12  1  0  0  0  0
  6 18  2  0  0  0  0
  7  8  1  0  0  0  0
  7  4  2  0  0  0  0
  8  5  2  0  0  0  0
  9 15  1  0  0  0  0
 10  9  2  0  0  0  0
 11 17  2  0  0  0  0
 13  1  1  0  0  0  0
 14 13  1  0  0  0  0
 14  7  1  0  0  0  0
 15 17  1  0  0  0  0
 16 12  2  0  0  0  0
 17 19  1  0  0  0  0
 18  9  1  0  0  0  0
 19 20  1  0  0  0  0
 21 20  1  0  0  0  0
 21 22  1  0  0  0  0
 23 22  1  0  0  0  0
 23 24  1  0  0  0  0
 25 24  1  0  0  0  0
M  END
>  <MODEL>
9

>  <REMARK>
 VINA RESULT:      -6.8      3.155      5.818
  Name = 
  6 active torsions:
  status: ('A' for Active; 'I' for Inactive)
    1  A    between atoms: C_2  and  N_12
    2  A    between atoms: C_6  and  S_15
    3  A    between atoms: C_6  and  C_23
    4  A    between atoms: N_12  and  N_25
    5  A    between atoms: S_15  and  C_21
    6  A    between atoms: C_21  and  N_25
                            x       y       z     vdW  Elec       q    Type
                         _______ _______ _______ _____ _____    ______ ____

>  <TORSDO>
F 6

$$$$
