=
 OpenBabel11062408243D

 32 37  0  0  1  0  0  0  0  0999 V2000
  161.2860  210.0200  150.2880 C   0  0  2  0  0  3  0  0  0  0  0  0
  160.2820  211.3300  152.1450 C   0  0  2  0  0  3  0  0  0  0  0  0
  162.2860  210.0050  149.1390 C   0  0  0  0  0  2  0  0  0  0  0  0
  161.1990  211.4300  150.9110 C   0  0  2  0  0  3  0  0  0  0  0  0
  159.6970  212.6220  152.7010 C   0  0  0  0  0  0  0  0  0  0  0  0
  161.0390  210.0070  157.0020 C   0  0  0  0  0  2  0  0  0  0  0  0
  161.0760  210.5190  153.1740 C   0  0  2  0  0  3  0  0  0  0  0  0
  159.2240  212.0360  156.5780 S   0  0  0  0  0  0  0  0  0  0  0  0
  160.2440  211.9380  155.0540 C   0  0  2  0  0  3  0  0  0  0  0  0
  158.8670  213.5290  151.8320 C   0  0  2  0  0  3  0  0  0  0  0  0
  160.8260  212.4800  149.8460 C   0  0  1  0  0  3  0  0  0  0  0  0
  159.6250  212.8380  154.0220 C   0  0  0  0  0  3  0  0  0  0  0  0
  160.9950  213.8720  150.4310 C   0  0  0  0  0  2  0  0  0  0  0  0
  161.7760  212.3900  148.6490 C   0  0  0  0  0  2  0  0  0  0  0  0
  161.3540  209.1400  152.6280 C   0  0  0  0  0  3  0  0  0  0  0  0
  157.8140  212.7630  151.0490 C   0  0  0  0  0  1  0  0  0  0  0  0
  161.5380  208.9140  151.3150 C   0  0  0  0  0  0  0  0  0  0  0  0
  160.4080  210.4960  154.5500 C   0  0  2  0  0  3  0  0  0  0  0  0
  159.6740  214.4530  150.9200 C   0  0  0  0  0  2  0  0  0  0  0  0
  161.8240  210.9820  148.0700 C   0  0  0  0  0  2  0  0  0  0  0  0
  159.5920  210.3800  157.2610 C   0  0  0  0  0  2  0  0  0  0  0  0
  161.2670  209.6750  155.5280 C   0  0  0  0  0  2  0  0  0  0  0  0
  160.8960  205.0540  151.3190 C   0  0  2  0  0  3  0  0  0  0  0  0
  162.3580  204.0990  151.6810 Cl  0  0  0  0  0  0  0  0  0  0  0  0
  161.7620  207.4840  150.8920 C   0  0  2  0  0  3  0  0  0  0  0  0
  160.5660  204.9880  149.8290 C   0  0  0  0  0  2  0  0  0  0  0  0
  161.3990  207.2930  149.4190 C   0  0  0  0  0  2  0  0  0  0  0  0
  161.0750  206.4710  151.7870 C   0  0  0  0  0  0  0  0  0  0  0  0
  160.7710  206.7580  152.9350 O   0  0  0  0  0  0  0  0  0  0  0  0
  161.5360  205.8350  149.0050 C   0  0  2  0  0  3  0  0  0  0  0  0
  161.7730  204.4000  146.9810 C   0  0  0  0  0  1  0  0  0  0  0  0
  161.2200  205.7030  147.5260 C   0  0  0  0  0  2  0  0  0  0  0  0
  1  3  1  6  0  0  0
  1  4  1  0  0  0  0
  1 17  1  0  0  0  0
  2  5  1  1  0  0  0
  2  7  1  0  0  0  0
  4  2  1  0  0  0  0
  5 12  2  0  0  0  0
  6 21  1  0  0  0  0
  7 18  1  0  0  0  0
  8 21  1  0  0  0  0
  9  8  1  0  0  0  0
 10  5  1  0  0  0  0
 11 13  1  0  0  0  0
 11  4  1  0  0  0  0
 12  9  1  0  0  0  0
 13 19  1  0  0  0  0
 14 11  1  0  0  0  0
 15  7  1  0  0  0  0
 16 10  1  0  0  0  0
 17 15  2  0  0  0  0
 18  9  1  0  0  0  0
 18 22  1  0  0  0  0
 19 10  1  0  0  0  0
 20 14  1  0  0  0  0
 20  3  1  0  0  0  0
 22  6  1  0  0  0  0
 23 24  1  0  0  0  0
 23 28  1  0  0  0  0
 25 17  1  0  0  0  0
 25 28  1  0  0  0  0
 26 23  1  0  0  0  0
 27 25  1  0  0  0  0
 28 29  2  0  0  0  0
 30 27  1  0  0  0  0
 30 26  1  0  0  0  0
 31 32  1  0  0  0  0
 32 30  1  0  0  0  0
M  END
>  <MODEL>
1

>  <REMARK>
 VINA RESULT:      -6.2      0.000      0.000
  Name = 
  2 active torsions:
  status: ('A' for Active; 'I' for Inactive)
    1  A    between atoms: C_15  and  C_26
    2  A    between atoms: C_16  and  C_27
                            x       y       z     vdW  Elec       q    Type
                         _______ _______ _______ _____ _____    ______ ____

>  <TORSDO>
F 2

$$$$
=
 OpenBabel11062408243D

 32 37  0  0  1  0  0  0  0  0999 V2000
  160.4640  209.0340  152.8420 C   0  0  2  0  0  3  0  0  0  0  0  0
  161.2060  209.4520  150.5080 C   0  0  2  0  0  3  0  0  0  0  0  0
  160.8240  208.4590  154.2060 C   0  0  0  0  0  2  0  0  0  0  0  0
  161.5740  208.7230  151.8140 C   0  0  2  0  0  3  0  0  0  0  0  0
  161.8910  209.0000  149.2250 C   0  0  0  0  0  0  0  0  0  0  0  0
  161.9290  214.1920  148.7930 C   0  0  0  0  0  2  0  0  0  0  0  0
  161.3890  210.9430  150.8130 C   0  0  2  0  0  3  0  0  0  0  0  0
  162.1050  212.1910  146.9080 S   0  0  0  0  0  0  0  0  0  0  0  0
  162.3270  211.3750  148.5380 C   0  0  2  0  0  3  0  0  0  0  0  0
  161.7920  207.5710  148.7620 C   0  0  2  0  0  3  0  0  0  0  0  0
  161.8270  207.2050  151.7190 C   0  0  1  0  0  3  0  0  0  0  0  0
  162.3210  209.8890  148.3180 C   0  0  0  0  0  3  0  0  0  0  0  0
  163.0810  206.9560  150.8990 C   0  0  0  0  0  2  0  0  0  0  0  0
  162.0890  206.6190  153.1080 C   0  0  0  0  0  2  0  0  0  0  0  0
  160.4440  211.3560  151.9150 C   0  0  0  0  0  3  0  0  0  0  0  0
  160.3650  207.0510  148.8150 C   0  0  0  0  0  1  0  0  0  0  0  0
  160.0820  210.5140  152.8990 C   0  0  0  0  0  0  0  0  0  0  0  0
  161.2720  211.8190  149.5640 C   0  0  2  0  0  3  0  0  0  0  0  0
  162.7600  206.6090  149.4500 C   0  0  0  0  0  2  0  0  0  0  0  0
  160.9660  206.9500  154.0830 C   0  0  0  0  0  2  0  0  0  0  0  0
  161.3190  213.7390  147.4810 C   0  0  0  0  0  2  0  0  0  0  0  0
  161.4790  213.2960  149.9470 C   0  0  0  0  0  2  0  0  0  0  0  0
  158.9280  212.5920  156.0070 C   0  0  2  0  0  3  0  0  0  0  0  0
  158.1340  211.6010  157.2600 Cl  0  0  0  0  0  0  0  0  0  0  0  0
  159.0960  211.0330  153.9140 C   0  0  2  0  0  3  0  0  0  0  0  0
  157.8930  213.4030  155.2280 C   0  0  0  0  0  2  0  0  0  0  0  0
  158.0430  211.9160  153.2430 C   0  0  0  0  0  2  0  0  0  0  0  0
  159.7470  211.7190  155.1000 C   0  0  0  0  0  0  0  0  0  0  0  0
  160.9070  211.4760  155.3990 O   0  0  0  0  0  0  0  0  0  0  0  0
  157.0950  212.5170  154.2710 C   0  0  2  0  0  3  0  0  0  0  0  0
  156.6500  214.0770  152.3800 C   0  0  0  0  0  1  0  0  0  0  0  0
  156.0380  213.3390  153.5560 C   0  0  0  0  0  2  0  0  0  0  0  0
  1 17  1  0  0  0  0
  1  3  1  1  0  0  0
  2  5  1  6  0  0  0
  2  7  1  0  0  0  0
  2  4  1  0  0  0  0
  4  1  1  0  0  0  0
  6 22  1  0  0  0  0
  7 15  1  0  0  0  0
  8 21  1  0  0  0  0
  8  9  1  0  0  0  0
  9 18  1  0  0  0  0
 10 16  1  0  0  0  0
 10  5  1  0  0  0  0
 10 19  1  0  0  0  0
 11  4  1  0  0  0  0
 11 14  1  0  0  0  0
 12  9  1  0  0  0  0
 12  5  2  0  0  0  0
 13 11  1  0  0  0  0
 14 20  1  0  0  0  0
 15 17  2  0  0  0  0
 17 25  1  0  0  0  0
 18 22  1  0  0  0  0
 18  7  1  0  0  0  0
 19 13  1  0  0  0  0
 20  3  1  0  0  0  0
 21  6  1  0  0  0  0
 23 24  1  0  0  0  0
 25 28  1  0  0  0  0
 26 23  1  0  0  0  0
 27 25  1  0  0  0  0
 27 30  1  0  0  0  0
 28 29  2  0  0  0  0
 28 23  1  0  0  0  0
 30 26  1  0  0  0  0
 31 32  1  0  0  0  0
 32 30  1  0  0  0  0
M  END
>  <MODEL>
2

>  <REMARK>
 VINA RESULT:      -5.1      3.143      7.357
  Name = 
  2 active torsions:
  status: ('A' for Active; 'I' for Inactive)
    1  A    between atoms: C_15  and  C_26
    2  A    between atoms: C_16  and  C_27
                            x       y       z     vdW  Elec       q    Type
                         _______ _______ _______ _____ _____    ______ ____

>  <TORSDO>
F 2

$$$$
=
 OpenBabel11062408243D

 32 37  0  0  1  0  0  0  0  0999 V2000
  161.0360  210.1870  151.8870 C   0  0  2  0  0  3  0  0  0  0  0  0
  160.2290  210.6390  154.1920 C   0  0  2  0  0  3  0  0  0  0  0  0
  161.2530  209.1430  150.7980 C   0  0  0  0  0  2  0  0  0  0  0  0
  160.5580  209.5140  153.1920 C   0  0  2  0  0  3  0  0  0  0  0  0
  160.1310  210.2720  155.6680 C   0  0  0  0  0  0  0  0  0  0  0  0
  156.1220  213.5320  155.0150 C   0  0  0  0  0  2  0  0  0  0  0  0
  158.9690  211.3140  153.6400 C   0  0  2  0  0  3  0  0  0  0  0  0
  157.5360  212.7870  157.2590 S   0  0  0  0  0  0  0  0  0  0  0  0
  158.0270  211.6140  155.9340 C   0  0  2  0  0  3  0  0  0  0  0  0
  161.2900  209.6230  156.3770 C   0  0  2  0  0  3  0  0  0  0  0  0
  161.5600  208.4380  153.6560 C   0  0  1  0  0  3  0  0  0  0  0  0
  159.1700  210.7850  156.4480 C   0  0  0  0  0  3  0  0  0  0  0  0
  160.9450  207.6330  154.7870 C   0  0  0  0  0  2  0  0  0  0  0  0
  161.8490  207.4510  152.5230 C   0  0  0  0  0  2  0  0  0  0  0  0
  159.2630  211.9040  152.2820 C   0  0  0  0  0  3  0  0  0  0  0  0
  162.6040  210.3310  156.0920 C   0  0  0  0  0  1  0  0  0  0  0  0
  160.1460  211.3450  151.4360 C   0  0  0  0  0  0  0  0  0  0  0  0
  158.3660  212.3270  154.6160 C   0  0  2  0  0  3  0  0  0  0  0  0
  161.4110  208.1150  156.1560 C   0  0  0  0  0  2  0  0  0  0  0  0
  162.3190  208.1620  151.2600 C   0  0  0  0  0  2  0  0  0  0  0  0
  156.8540  214.1180  156.2070 C   0  0  0  0  0  2  0  0  0  0  0  0
  157.1020  212.9510  153.9980 C   0  0  0  0  0  2  0  0  0  0  0  0
  160.5370  214.4530  149.0900 C   0  0  2  0  0  3  0  0  0  0  0  0
  159.4280  214.4240  147.6940 Cl  0  0  0  0  0  0  0  0  0  0  0  0
  160.3840  212.0570  150.1280 C   0  0  2  0  0  3  0  0  0  0  0  0
  161.9570  214.0930  148.6550 C   0  0  0  0  0  2  0  0  0  0  0  0
  161.8090  211.8130  149.6310 C   0  0  0  0  0  2  0  0  0  0  0  0
  160.0360  213.5330  150.1680 C   0  0  0  0  0  0  0  0  0  0  0  0
  159.2530  213.9670  150.9990 O   0  0  0  0  0  0  0  0  0  0  0  0
  162.0880  212.5990  148.3580 C   0  0  2  0  0  3  0  0  0  0  0  0
  163.6340  212.6320  146.4040 C   0  0  0  0  0  1  0  0  0  0  0  0
  163.4920  212.2830  147.8740 C   0  0  0  0  0  2  0  0  0  0  0  0
  1  3  1  6  0  0  0
  1  4  1  0  0  0  0
  2  5  1  1  0  0  0
  3 20  1  0  0  0  0
  4 11  1  0  0  0  0
  4  2  1  0  0  0  0
  5 10  1  0  0  0  0
  5 12  2  0  0  0  0
  6 21  1  0  0  0  0
  7  2  1  0  0  0  0
  7 18  1  0  0  0  0
  9 12  1  0  0  0  0
  9  8  1  0  0  0  0
 11 13  1  0  0  0  0
 13 19  1  0  0  0  0
 14 11  1  0  0  0  0
 15  7  1  0  0  0  0
 16 10  1  0  0  0  0
 17  1  1  0  0  0  0
 17 15  2  0  0  0  0
 18  9  1  0  0  0  0
 19 10  1  0  0  0  0
 20 14  1  0  0  0  0
 21  8  1  0  0  0  0
 22 18  1  0  0  0  0
 22  6  1  0  0  0  0
 23 28  1  0  0  0  0
 24 23  1  0  0  0  0
 25 28  1  0  0  0  0
 25 17  1  0  0  0  0
 26 23  1  0  0  0  0
 27 25  1  0  0  0  0
 28 29  2  0  0  0  0
 30 26  1  0  0  0  0
 30 27  1  0  0  0  0
 31 32  1  0  0  0  0
 32 30  1  0  0  0  0
M  END
>  <MODEL>
3

>  <REMARK>
 VINA RESULT:      -4.7      3.163      5.939
  Name = 
  2 active torsions:
  status: ('A' for Active; 'I' for Inactive)
    1  A    between atoms: C_15  and  C_26
    2  A    between atoms: C_16  and  C_27
                            x       y       z     vdW  Elec       q    Type
                         _______ _______ _______ _____ _____    ______ ____

>  <TORSDO>
F 2

$$$$
=
 OpenBabel11062408243D

 32 37  0  0  1  0  0  0  0  0999 V2000
  161.3720  208.0480  152.6850 C   0  0  2  0  0  3  0  0  0  0  0  0
  160.4640  209.5480  154.4450 C   0  0  2  0  0  3  0  0  0  0  0  0
  161.3030  206.6780  152.0230 C   0  0  0  0  0  2  0  0  0  0  0  0
  160.4460  208.1000  153.9190 C   0  0  2  0  0  3  0  0  0  0  0  0
  159.9770  209.7930  155.8670 C   0  0  0  0  0  0  0  0  0  0  0  0
  157.8930  213.7700  153.2260 C   0  0  0  0  0  2  0  0  0  0  0  0
  159.7180  210.3700  153.3870 C   0  0  2  0  0  3  0  0  0  0  0  0
  158.4660  213.4410  155.9000 S   0  0  0  0  0  0  0  0  0  0  0  0
  158.6260  211.7790  155.1370 C   0  0  2  0  0  3  0  0  0  0  0  0
  160.6180  209.0860  157.0320 C   0  0  2  0  0  3  0  0  0  0  0  0
  160.8070  206.9870  154.9250 C   0  0  1  0  0  3  0  0  0  0  0  0
  159.2090  210.8500  156.1650 C   0  0  0  0  0  3  0  0  0  0  0  0
  159.7310  206.9080  155.9930 C   0  0  0  0  0  2  0  0  0  0  0  0
  160.8330  205.6250  154.2280 C   0  0  0  0  0  2  0  0  0  0  0  0
  160.4530  210.2920  152.0720 C   0  0  0  0  0  3  0  0  0  0  0  0
  162.1350  209.1430  156.9710 C   0  0  0  0  0  1  0  0  0  0  0  0
  161.1430  209.1980  151.7020 C   0  0  0  0  0  0  0  0  0  0  0  0
  159.4480  211.8060  153.8390 C   0  0  2  0  0  3  0  0  0  0  0  0
  160.1240  207.6570  157.2610 C   0  0  0  0  0  2  0  0  0  0  0  0
  161.7620  205.6250  153.0200 C   0  0  0  0  0  2  0  0  0  0  0  0
  158.5960  214.4530  154.3830 C   0  0  0  0  0  2  0  0  0  0  0  0
  158.6880  212.5620  152.7340 C   0  0  0  0  0  2  0  0  0  0  0  0
  161.6820  208.5060  147.8890 C   0  0  2  0  0  3  0  0  0  0  0  0
  163.2270  207.6870  147.5340 Cl  0  0  0  0  0  0  0  0  0  0  0  0
  161.8730  209.2630  150.3840 C   0  0  2  0  0  3  0  0  0  0  0  0
  161.7590  209.9840  147.5110 C   0  0  0  0  0  2  0  0  0  0  0  0
  161.9520  210.7050  149.8810 C   0  0  0  0  0  2  0  0  0  0  0  0
  161.3190  208.3200  149.3350 C   0  0  0  0  0  0  0  0  0  0  0  0
  160.6740  207.3340  149.6610 O   0  0  0  0  0  0  0  0  0  0  0  0
  162.6080  210.7720  148.5090 C   0  0  2  0  0  3  0  0  0  0  0  0
  161.5510  213.0250  148.6310 C   0  0  0  0  0  1  0  0  0  0  0  0
  162.7130  212.2230  148.0760 C   0  0  0  0  0  2  0  0  0  0  0  0
  1  3  1  6  0  0  0
  1  4  1  0  0  0  0
  2  5  1  1  0  0  0
  3 20  1  0  0  0  0
  4  2  1  0  0  0  0
  4 11  1  0  0  0  0
  5 12  2  0  0  0  0
  5 10  1  0  0  0  0
  6 21  1  0  0  0  0
  7 18  1  0  0  0  0
  7  2  1  0  0  0  0
  9  8  1  0  0  0  0
  9 12  1  0  0  0  0
 10 19  1  0  0  0  0
 11 13  1  0  0  0  0
 13 19  1  0  0  0  0
 14 11  1  0  0  0  0
 15  7  1  0  0  0  0
 16 10  1  0  0  0  0
 17 15  2  0  0  0  0
 17  1  1  0  0  0  0
 18  9  1  0  0  0  0
 20 14  1  0  0  0  0
 21  8  1  0  0  0  0
 22  6  1  0  0  0  0
 22 18  1  0  0  0  0
 23 28  1  0  0  0  0
 24 23  1  0  0  0  0
 25 17  1  0  0  0  0
 26 23  1  0  0  0  0
 26 30  1  0  0  0  0
 27 25  1  0  0  0  0
 28 29  2  0  0  0  0
 28 25  1  0  0  0  0
 30 27  1  0  0  0  0
 32 30  1  0  0  0  0
 32 31  1  0  0  0  0
M  END
>  <MODEL>
4

>  <REMARK>
 VINA RESULT:      -4.7      2.023      5.388
  Name = 
  2 active torsions:
  status: ('A' for Active; 'I' for Inactive)
    1  A    between atoms: C_15  and  C_26
    2  A    between atoms: C_16  and  C_27
                            x       y       z     vdW  Elec       q    Type
                         _______ _______ _______ _____ _____    ______ ____

>  <TORSDO>
F 2

$$$$
=
 OpenBabel11062408243D

 32 37  0  0  1  0  0  0  0  0999 V2000
  160.8850  211.3240  150.5450 C   0  0  2  0  0  3  0  0  0  0  0  0
  158.7860  212.6540  150.5650 C   0  0  2  0  0  3  0  0  0  0  0  0
  162.3800  211.3150  150.2550 C   0  0  0  0  0  2  0  0  0  0  0  0
  160.2590  212.6690  150.1140 C   0  0  2  0  0  3  0  0  0  0  0  0
  157.8370  213.6570  149.9230 C   0  0  0  0  0  0  0  0  0  0  0  0
  156.4280  213.7700  154.9370 C   0  0  0  0  0  2  0  0  0  0  0  0
  158.8320  212.7390  152.0950 C   0  0  2  0  0  3  0  0  0  0  0  0
  155.0780  214.4530  152.6350 S   0  0  0  0  0  0  0  0  0  0  0  0
  156.8370  214.2420  152.1510 C   0  0  2  0  0  3  0  0  0  0  0  0
  157.6520  213.6950  148.4300 C   0  0  2  0  0  3  0  0  0  0  0  0
  160.5300  212.9500  148.6220 C   0  0  1  0  0  3  0  0  0  0  0  0
  156.9160  214.3050  150.6510 C   0  0  0  0  0  3  0  0  0  0  0  0
  160.1260  214.3770  148.2980 C   0  0  0  0  0  2  0  0  0  0  0  0
  162.0260  212.8390  148.3210 C   0  0  0  0  0  2  0  0  0  0  0  0
  159.5510  211.5340  152.6490 C   0  0  0  0  0  3  0  0  0  0  0  0
  157.4340  212.3080  147.8460 C   0  0  0  0  0  1  0  0  0  0  0  0
  160.5520  210.9300  151.9850 C   0  0  0  0  0  0  0  0  0  0  0  0
  157.4490  212.9500  152.7150 C   0  0  2  0  0  3  0  0  0  0  0  0
  158.7400  214.4530  147.6700 C   0  0  0  0  0  2  0  0  0  0  0  0
  162.5950  211.4960  148.7610 C   0  0  0  0  0  2  0  0  0  0  0  0
  155.1160  213.5320  154.2140 C   0  0  0  0  0  2  0  0  0  0  0  0
  157.5780  213.0370  154.2470 C   0  0  0  0  0  2  0  0  0  0  0  0
  160.7440  207.9670  154.5330 C   0  0  2  0  0  3  0  0  0  0  0  0
  162.2550  207.9510  155.4810 Cl  0  0  0  0  0  0  0  0  0  0  0  0
  161.1580  209.7070  152.6250 C   0  0  2  0  0  3  0  0  0  0  0  0
  160.7760  206.8860  153.4540 C   0  0  0  0  0  2  0  0  0  0  0  0
  161.1810  208.5360  151.6410 C   0  0  0  0  0  2  0  0  0  0  0  0
  160.5160  209.3310  153.9470 C   0  0  0  0  0  0  0  0  0  0  0  0
  159.9100  210.1650  154.6040 O   0  0  0  0  0  0  0  0  0  0  0  0
  161.7070  207.2720  152.3050 C   0  0  2  0  0  3  0  0  0  0  0  0
  161.2960  204.8490  151.8930 C   0  0  0  0  0  1  0  0  0  0  0  0
  161.7630  206.1550  151.2780 C   0  0  0  0  0  2  0  0  0  0  0  0
  1  3  1  1  0  0  0
  1 17  1  0  0  0  0
  2  5  1  6  0  0  0
  2  7  1  0  0  0  0
  4  1  1  0  0  0  0
  4  2  1  0  0  0  0
  5 12  2  0  0  0  0
  7 15  1  0  0  0  0
  7 18  1  0  0  0  0
  8 21  1  0  0  0  0
  9  8  1  0  0  0  0
  9 18  1  0  0  0  0
 10  5  1  0  0  0  0
 11  4  1  0  0  0  0
 12  9  1  0  0  0  0
 13 11  1  0  0  0  0
 14 11  1  0  0  0  0
 14 20  1  0  0  0  0
 16 10  1  0  0  0  0
 17 25  1  0  0  0  0
 17 15  2  0  0  0  0
 18 22  1  0  0  0  0
 19 13  1  0  0  0  0
 19 10  1  0  0  0  0
 20  3  1  0  0  0  0
 21  6  1  0  0  0  0
 22  6  1  0  0  0  0
 23 24  1  0  0  0  0
 25 28  1  0  0  0  0
 26 23  1  0  0  0  0
 27 30  1  0  0  0  0
 27 25  1  0  0  0  0
 28 23  1  0  0  0  0
 28 29  2  0  0  0  0
 30 26  1  0  0  0  0
 32 31  1  0  0  0  0
 32 30  1  0  0  0  0
M  END
>  <MODEL>
5

>  <REMARK>
 VINA RESULT:      -4.6      2.458      3.812
  Name = 
  2 active torsions:
  status: ('A' for Active; 'I' for Inactive)
    1  A    between atoms: C_15  and  C_26
    2  A    between atoms: C_16  and  C_27
                            x       y       z     vdW  Elec       q    Type
                         _______ _______ _______ _____ _____    ______ ____

>  <TORSDO>
F 2

$$$$
=
 OpenBabel11062408243D

 32 37  0  0  1  0  0  0  0  0999 V2000
  161.6190  208.6010  149.9390 C   0  0  2  0  0  3  0  0  0  0  0  0
  161.4160  207.5770  152.1930 C   0  0  2  0  0  3  0  0  0  0  0  0
  161.1400  208.5940  148.4920 C   0  0  0  0  0  2  0  0  0  0  0  0
  160.9990  207.4210  150.7180 C   0  0  2  0  0  3  0  0  0  0  0  0
  161.2960  206.3580  153.0980 C   0  0  0  0  0  0  0  0  0  0  0  0
  159.5510  210.2250  156.1210 C   0  0  0  0  0  2  0  0  0  0  0  0
  160.6480  208.8010  152.7020 C   0  0  2  0  0  3  0  0  0  0  0  0
  160.5890  207.7460  156.7270 S   0  0  0  0  0  0  0  0  0  0  0  0
  160.2490  207.7280  154.9230 C   0  0  2  0  0  3  0  0  0  0  0  0
  162.0080  205.0750  152.7610 C   0  0  2  0  0  3  0  0  0  0  0  0
  161.3300  206.0770  150.0380 C   0  0  1  0  0  3  0  0  0  0  0  0
  160.8350  206.4680  154.3520 C   0  0  0  0  0  3  0  0  0  0  0  0
  160.5060  204.9730  150.6770 C   0  0  0  0  0  2  0  0  0  0  0  0
  160.9370  206.1150  148.5590 C   0  0  0  0  0  2  0  0  0  0  0  0
  161.0630  210.0230  151.9190 C   0  0  0  0  0  3  0  0  0  0  0  0
  163.4600  205.3110  152.3780 C   0  0  0  0  0  1  0  0  0  0  0  0
  161.4270  209.9530  150.6260 C   0  0  0  0  0  0  0  0  0  0  0  0
  160.7720  208.9890  154.2150 C   0  0  2  0  0  3  0  0  0  0  0  0
  161.2960  204.2020  151.7280 C   0  0  0  0  0  2  0  0  0  0  0  0
  161.5750  207.2940  147.8340 C   0  0  0  0  0  2  0  0  0  0  0  0
  160.6020  209.5560  156.9860 C   0  0  0  0  0  2  0  0  0  0  0  0
  159.9670  210.2270  154.6510 C   0  0  0  0  0  2  0  0  0  0  0  0
  162.7320  212.1930  147.6940 C   0  0  2  0  0  3  0  0  0  0  0  0
  164.2130  213.0980  148.1070 Cl  0  0  0  0  0  0  0  0  0  0  0  0
  161.8650  211.2380  149.9690 C   0  0  2  0  0  3  0  0  0  0  0  0
  161.5170  213.1190  147.7040 C   0  0  0  0  0  2  0  0  0  0  0  0
  160.6980  212.2210  149.8720 C   0  0  0  0  0  2  0  0  0  0  0  0
  162.5560  211.0340  148.6350 C   0  0  0  0  0  0  0  0  0  0  0  0
  163.0800  209.9650  148.3610 O   0  0  0  0  0  0  0  0  0  0  0  0
  161.1060  213.4860  149.1310 C   0  0  2  0  0  3  0  0  0  0  0  0
  158.6330  213.7080  149.3430 C   0  0  0  0  0  1  0  0  0  0  0  0
  159.9350  214.4510  149.1060 C   0  0  0  0  0  2  0  0  0  0  0  0
  1  3  1  6  0  0  0
  1 17  1  0  0  0  0
  1  4  1  0  0  0  0
  2  7  1  0  0  0  0
  2  5  1  1  0  0  0
  4  2  1  0  0  0  0
  5 12  2  0  0  0  0
  6 21  1  0  0  0  0
  7 18  1  0  0  0  0
  8 21  1  0  0  0  0
  9  8  1  0  0  0  0
 10  5  1  0  0  0  0
 11 13  1  0  0  0  0
 11  4  1  0  0  0  0
 12  9  1  0  0  0  0
 13 19  1  0  0  0  0
 14 11  1  0  0  0  0
 15  7  1  0  0  0  0
 16 10  1  0  0  0  0
 17 15  2  0  0  0  0
 18 22  1  0  0  0  0
 18  9  1  0  0  0  0
 19 10  1  0  0  0  0
 20  3  1  0  0  0  0
 20 14  1  0  0  0  0
 22  6  1  0  0  0  0
 23 26  1  0  0  0  0
 23 24  1  0  0  0  0
 23 28  1  0  0  0  0
 25 17  1  0  0  0  0
 26 30  1  0  0  0  0
 27 25  1  0  0  0  0
 28 25  1  0  0  0  0
 29 28  2  0  0  0  0
 30 27  1  0  0  0  0
 32 30  1  0  0  0  0
 32 31  1  0  0  0  0
M  END
>  <MODEL>
6

>  <REMARK>
 VINA RESULT:      -4.3      2.617      6.168
  Name = 
  2 active torsions:
  status: ('A' for Active; 'I' for Inactive)
    1  A    between atoms: C_15  and  C_26
    2  A    between atoms: C_16  and  C_27
                            x       y       z     vdW  Elec       q    Type
                         _______ _______ _______ _____ _____    ______ ____

>  <TORSDO>
F 2

$$$$
=
 OpenBabel11062408243D

 32 37  0  0  1  0  0  0  0  0999 V2000
  161.1510  210.6470  151.2640 C   0  0  2  0  0  3  0  0  0  0  0  0
  160.2690  210.9470  153.5670 C   0  0  2  0  0  3  0  0  0  0  0  0
  161.3510  209.6910  150.0950 C   0  0  0  0  0  2  0  0  0  0  0  0
  160.5720  209.8950  152.4830 C   0  0  2  0  0  3  0  0  0  0  0  0
  160.0800  210.4580  154.9970 C   0  0  0  0  0  0  0  0  0  0  0  0
  156.3190  214.0250  154.4840 C   0  0  0  0  0  2  0  0  0  0  0  0
  159.0810  211.7510  153.0280 C   0  0  2  0  0  3  0  0  0  0  0  0
  157.5780  212.9910  156.7050 S   0  0  0  0  0  0  0  0  0  0  0  0
  158.0540  211.9090  155.3000 C   0  0  2  0  0  3  0  0  0  0  0  0
  161.1610  209.6730  155.6910 C   0  0  2  0  0  3  0  0  0  0  0  0
  161.4820  208.7180  152.8870 C   0  0  1  0  0  3  0  0  0  0  0  0
  159.1180  210.9640  155.7820 C   0  0  0  0  0  3  0  0  0  0  0  0
  160.7650  207.8590  153.9140 C   0  0  0  0  0  2  0  0  0  0  0  0
  161.7590  207.8180  151.6800 C   0  0  0  0  0  2  0  0  0  0  0  0
  159.4730  212.4380  151.7430 C   0  0  0  0  0  3  0  0  0  0  0  0
  162.5300  210.3130  155.5240 C   0  0  0  0  0  1  0  0  0  0  0  0
  160.3580  211.8980  150.8850 C   0  0  0  0  0  0  0  0  0  0  0  0
  158.4990  212.7110  154.0670 C   0  0  2  0  0  3  0  0  0  0  0  0
  161.1970  208.1860  155.3380 C   0  0  0  0  0  2  0  0  0  0  0  0
  162.3310  208.6040  150.5080 C   0  0  0  0  0  2  0  0  0  0  0  0
  157.0310  214.4530  155.7530 C   0  0  0  0  0  2  0  0  0  0  0  0
  157.3070  213.4710  153.4580 C   0  0  0  0  0  2  0  0  0  0  0  0
  162.2480  212.6860  147.5500 C   0  0  2  0  0  3  0  0  0  0  0  0
  163.0710  214.2680  147.5660 Cl  0  0  0  0  0  0  0  0  0  0  0  0
  160.7000  212.7050  149.6590 C   0  0  2  0  0  3  0  0  0  0  0  0
  160.9750  212.7510  146.7070 C   0  0  0  0  0  2  0  0  0  0  0  0
  159.5040  212.7810  148.7090 C   0  0  0  0  0  2  0  0  0  0  0  0
  161.9610  212.2390  148.9560 C   0  0  0  0  0  0  0  0  0  0  0  0
  162.8100  211.5990  149.5590 O   0  0  0  0  0  0  0  0  0  0  0  0
  159.8670  213.5180  147.4280 C   0  0  2  0  0  3  0  0  0  0  0  0
  157.6080  212.5790  146.9530 C   0  0  0  0  0  1  0  0  0  0  0  0
  158.6370  213.6150  146.5430 C   0  0  0  0  0  2  0  0  0  0  0  0
  1  3  1  6  0  0  0
  1  4  1  0  0  0  0
  2  5  1  1  0  0  0
  3 20  1  0  0  0  0
  4 11  1  0  0  0  0
  4  2  1  0  0  0  0
  5 10  1  0  0  0  0
  5 12  2  0  0  0  0
  6 21  1  0  0  0  0
  7  2  1  0  0  0  0
  7 18  1  0  0  0  0
  9 12  1  0  0  0  0
  9  8  1  0  0  0  0
 11 13  1  0  0  0  0
 13 19  1  0  0  0  0
 14 11  1  0  0  0  0
 15  7  1  0  0  0  0
 16 10  1  0  0  0  0
 17  1  1  0  0  0  0
 17 15  2  0  0  0  0
 18  9  1  0  0  0  0
 19 10  1  0  0  0  0
 20 14  1  0  0  0  0
 21  8  1  0  0  0  0
 22 18  1  0  0  0  0
 22  6  1  0  0  0  0
 23 24  1  0  0  0  0
 23 28  1  0  0  0  0
 25 17  1  0  0  0  0
 26 30  1  0  0  0  0
 26 23  1  0  0  0  0
 27 25  1  0  0  0  0
 28 29  2  0  0  0  0
 28 25  1  0  0  0  0
 30 27  1  0  0  0  0
 32 31  1  0  0  0  0
 32 30  1  0  0  0  0
M  END
>  <MODEL>
7

>  <REMARK>
 VINA RESULT:      -3.9      2.970      5.778
  Name = 
  2 active torsions:
  status: ('A' for Active; 'I' for Inactive)
    1  A    between atoms: C_15  and  C_26
    2  A    between atoms: C_16  and  C_27
                            x       y       z     vdW  Elec       q    Type
                         _______ _______ _______ _____ _____    ______ ____

>  <TORSDO>
F 2

$$$$
=
 OpenBabel11062408243D

 32 37  0  0  1  0  0  0  0  0999 V2000
  160.2580  208.9480  153.6270 C   0  0  2  0  0  3  0  0  0  0  0  0
  160.9220  209.1950  151.2460 C   0  0  2  0  0  3  0  0  0  0  0  0
  160.6670  208.4830  155.0190 C   0  0  0  0  0  2  0  0  0  0  0  0
  161.3400  208.5720  152.5920 C   0  0  2  0  0  3  0  0  0  0  0  0
  161.5730  208.6530  149.9800 C   0  0  0  0  0  0  0  0  0  0  0  0
  161.5300  213.7960  149.1530 C   0  0  0  0  0  2  0  0  0  0  0  0
  161.0950  210.7070  151.4300 C   0  0  2  0  0  3  0  0  0  0  0  0
  161.6740  211.6590  147.4210 S   0  0  0  0  0  0  0  0  0  0  0  0
  161.9570  210.9730  149.1010 C   0  0  2  0  0  3  0  0  0  0  0  0
  161.4790  207.1920  149.6310 C   0  0  2  0  0  3  0  0  0  0  0  0
  161.6100  207.0540  152.6050 C   0  0  1  0  0  3  0  0  0  0  0  0
  161.9640  209.4740  148.9950 C   0  0  0  0  0  3  0  0  0  0  0  0
  162.8410  206.7560  151.7670 C   0  0  0  0  0  2  0  0  0  0  0  0
  161.9220  206.5780  154.0250 C   0  0  0  0  0  2  0  0  0  0  0  0
  160.1800  211.1930  152.5270 C   0  0  0  0  0  3  0  0  0  0  0  0
  160.0610  206.6620  149.7680 C   0  0  0  0  0  1  0  0  0  0  0  0
  159.8590  210.4240  153.5840 C   0  0  0  0  0  0  0  0  0  0  0  0
  160.9290  211.4830  150.1230 C   0  0  2  0  0  3  0  0  0  0  0  0
  162.4800  206.2960  150.3590 C   0  0  0  0  0  2  0  0  0  0  0  0
  160.8250  206.9710  155.0070 C   0  0  0  0  0  2  0  0  0  0  0  0
  160.8860  213.2380  147.8990 C   0  0  0  0  0  2  0  0  0  0  0  0
  161.1280  212.9870  150.3860 C   0  0  0  0  0  2  0  0  0  0  0  0
  157.6520  213.2280  155.1900 C   0  0  2  0  0  3  0  0  0  0  0  0
  158.0200  213.5120  156.9120 Cl  0  0  0  0  0  0  0  0  0  0  0  0
  158.8970  211.0090  154.5870 C   0  0  2  0  0  3  0  0  0  0  0  0
  156.3460  212.4490  155.0420 C   0  0  0  0  0  2  0  0  0  0  0  0
  157.5280  210.3370  154.4800 C   0  0  0  0  0  2  0  0  0  0  0  0
  158.8000  212.5210  154.5260 C   0  0  0  0  0  0  0  0  0  0  0  0
  159.7070  213.1850  154.0460 O   0  0  0  0  0  0  0  0  0  0  0  0
  156.5250  210.9810  155.4270 C   0  0  2  0  0  3  0  0  0  0  0  0
  154.4490  210.3280  156.6400 C   0  0  0  0  0  1  0  0  0  0  0  0
  155.2000  210.2480  155.3240 C   0  0  0  0  0  2  0  0  0  0  0  0
  1  3  1  1  0  0  0
  2  5  1  6  0  0  0
  2  7  1  0  0  0  0
  2  4  1  0  0  0  0
  4 11  1  0  0  0  0
  4  1  1  0  0  0  0
  6 22  1  0  0  0  0
  7 15  1  0  0  0  0
  8 21  1  0  0  0  0
  8  9  1  0  0  0  0
  9 18  1  0  0  0  0
 10 16  1  0  0  0  0
 10  5  1  0  0  0  0
 10 19  1  0  0  0  0
 11 14  1  0  0  0  0
 12  9  1  0  0  0  0
 12  5  2  0  0  0  0
 13 11  1  0  0  0  0
 14 20  1  0  0  0  0
 15 17  2  0  0  0  0
 17  1  1  0  0  0  0
 17 25  1  0  0  0  0
 18 22  1  0  0  0  0
 18  7  1  0  0  0  0
 19 13  1  0  0  0  0
 20  3  1  0  0  0  0
 21  6  1  0  0  0  0
 23 24  1  0  0  0  0
 26 23  1  0  0  0  0
 26 30  1  0  0  0  0
 27 25  1  0  0  0  0
 27 30  1  0  0  0  0
 28 25  1  0  0  0  0
 28 23  1  0  0  0  0
 29 28  2  0  0  0  0
 32 30  1  0  0  0  0
 32 31  1  0  0  0  0
M  END
>  <MODEL>
8

>  <REMARK>
 VINA RESULT:      -3.8      3.529      7.517
  Name = 
  2 active torsions:
  status: ('A' for Active; 'I' for Inactive)
    1  A    between atoms: C_15  and  C_26
    2  A    between atoms: C_16  and  C_27
                            x       y       z     vdW  Elec       q    Type
                         _______ _______ _______ _____ _____    ______ ____

>  <TORSDO>
F 2

$$$$
=
 OpenBabel11062408243D

 32 37  0  0  1  0  0  0  0  0999 V2000
  161.0770  207.7270  153.0480 C   0  0  2  0  0  3  0  0  0  0  0  0
  160.7710  210.0350  153.9160 C   0  0  2  0  0  3  0  0  0  0  0  0
  160.8230  206.2420  153.2710 C   0  0  0  0  0  2  0  0  0  0  0  0
  160.6120  208.5440  154.2730 C   0  0  2  0  0  3  0  0  0  0  0  0
  160.7790  211.0420  155.0590 C   0  0  0  0  0  0  0  0  0  0  0  0
  157.8470  213.3990  151.4550 C   0  0  0  0  0  2  0  0  0  0  0  0
  159.6980  210.3120  152.8570 C   0  0  2  0  0  3  0  0  0  0  0  0
  159.2830  214.3880  153.5880 S   0  0  0  0  0  0  0  0  0  0  0  0
  159.2170  212.5670  153.8190 C   0  0  2  0  0  3  0  0  0  0  0  0
  161.7850  210.9330  156.1740 C   0  0  2  0  0  3  0  0  0  0  0  0
  161.3110  208.0560  155.5580 C   0  0  1  0  0  3  0  0  0  0  0  0
  160.1290  212.2100  154.9580 C   0  0  0  0  0  3  0  0  0  0  0  0
  160.6530  208.7020  156.7640 C   0  0  0  0  0  2  0  0  0  0  0  0
  161.1360  206.5440  155.7200 C   0  0  0  0  0  2  0  0  0  0  0  0
  159.9570  209.4620  151.6370 C   0  0  0  0  0  3  0  0  0  0  0  0
  163.1950  210.7100  155.6510 C   0  0  0  0  0  1  0  0  0  0  0  0
  160.5100  208.2380  151.7230 C   0  0  0  0  0  0  0  0  0  0  0  0
  159.5610  211.8010  152.5320 C   0  0  2  0  0  3  0  0  0  0  0  0
  161.4270  209.9180  157.2590 C   0  0  0  0  0  2  0  0  0  0  0  0
  161.6110  205.7840  154.4890 C   0  0  0  0  0  2  0  0  0  0  0  0
  158.8790  214.4530  151.8060 C   0  0  0  0  0  2  0  0  0  0  0  0
  158.4610  212.0000  151.4730 C   0  0  0  0  0  2  0  0  0  0  0  0
  162.5430  207.2300  148.5350 C   0  0  2  0  0  3  0  0  0  0  0  0
  161.6540  207.5140  147.0150 Cl  0  0  0  0  0  0  0  0  0  0  0  0
  160.7590  207.5090  150.4270 C   0  0  2  0  0  3  0  0  0  0  0  0
  162.5620  205.7410  148.8740 C   0  0  0  0  0  2  0  0  0  0  0  0
  160.8590  206.0020  150.6650 C   0  0  0  0  0  2  0  0  0  0  0  0
  161.9430  208.0460  149.6450 C   0  0  0  0  0  0  0  0  0  0  0  0
  162.3430  209.1860  149.8250 O   0  0  0  0  0  0  0  0  0  0  0  0
  161.2000  205.2650  149.3770 C   0  0  2  0  0  3  0  0  0  0  0  0
  160.7700  203.4840  151.0660 C   0  0  0  0  0  1  0  0  0  0  0  0
  161.2350  203.7720  149.6510 C   0  0  0  0  0  2  0  0  0  0  0  0
  1  3  1  1  0  0  0
  1  4  1  0  0  0  0
  2  4  1  0  0  0  0
  2  5  1  1  0  0  0
  3 20  1  0  0  0  0
  4 11  1  0  0  0  0
  5 10  1  0  0  0  0
  6 22  1  0  0  0  0
  6 21  1  0  0  0  0
  7  2  1  0  0  0  0
  8  9  1  0  0  0  0
  9 12  1  0  0  0  0
 10 19  1  0  0  0  0
 11 14  1  0  0  0  0
 11 13  1  0  0  0  0
 12  5  2  0  0  0  0
 13 19  1  0  0  0  0
 15 17  2  0  0  0  0
 15  7  1  0  0  0  0
 16 10  1  0  0  0  0
 17  1  1  0  0  0  0
 18  7  1  0  0  0  0
 18  9  1  0  0  0  0
 20 14  1  0  0  0  0
 21  8  1  0  0  0  0
 22 18  1  0  0  0  0
 23 26  1  0  0  0  0
 23 28  1  0  0  0  0
 24 23  1  0  0  0  0
 25 27  1  0  0  0  0
 25 17  1  0  0  0  0
 26 30  1  0  0  0  0
 28 29  2  0  0  0  0
 28 25  1  0  0  0  0
 30 32  1  0  0  0  0
 30 27  1  0  0  0  0
 32 31  1  0  0  0  0
M  END
>  <MODEL>
9

>  <REMARK>
 VINA RESULT:      -3.7      2.220      4.933
  Name = 
  2 active torsions:
  status: ('A' for Active; 'I' for Inactive)
    1  A    between atoms: C_15  and  C_26
    2  A    between atoms: C_16  and  C_27
                            x       y       z     vdW  Elec       q    Type
                         _______ _______ _______ _____ _____    ______ ____

>  <TORSDO>
F 2

$$$$
