=
 OpenBabel11052422233D

 31 34  0  0  1  0  0  0  0  0999 V2000
  159.9690  209.0930  156.0300 C   0  0  1  0  0  3  0  0  0  0  0  0
  161.3060  210.4260  152.6590 C   0  0  1  0  0  3  0  0  0  0  0  0
  160.2850  211.4000  152.0300 C   0  0  1  0  0  3  0  0  0  0  0  0
  158.3900  212.8990  152.6660 C   0  0  0  0  0  2  0  0  0  0  0  0
  160.5950  209.4890  153.6610 C   0  0  2  0  0  3  0  0  0  0  0  0
  161.1160  207.7150  156.2410 S   0  0  0  0  0  0  0  0  0  0  0  0
  159.7340  212.3370  153.1050 C   0  0  0  0  0  2  0  0  0  0  0  0
  161.3010  208.4510  151.0590 C   0  0  1  0  0  3  0  0  0  0  0  0
  159.7750  209.7220  157.2590 O   0  0  0  0  0  1  0  0  0  0  0  0
  161.4700  211.2800  149.8770 N   0  0  0  0  0  2  0  0  0  0  0  0
  158.5190  214.2530  151.9630 C   0  0  0  0  0  2  0  0  0  0  0  0
  161.0750  207.4120  152.1630 C   0  0  0  0  0  2  0  0  0  0  0  0
  162.1100  209.6500  151.5900 C   0  0  1  0  0  3  0  0  0  0  0  0
  160.6350  210.0550  155.0740 C   0  0  0  0  0  2  0  0  0  0  0  0
  159.6990  214.3700  150.9960 C   0  0  0  0  0  2  0  0  0  0  0  0
  160.9700  208.0160  153.5350 C   0  0  0  0  0  0  0  0  0  0  0  0
  161.0550  207.2200  154.5500 N   0  0  0  0  0  0  0  0  0  0  0  0
  162.5980  210.5910  150.4880 C   0  0  0  0  0  2  0  0  0  0  0  0
  160.9170  212.1960  150.8670 C   0  0  1  0  0  3  0  0  0  0  0  0
  159.9120  213.1090  150.1710 C   0  0  0  0  0  2  0  0  0  0  0  0
  161.9610  207.7740  149.8620 C   0  0  0  0  0  2  0  0  0  0  0  0
  161.8220  206.3750  149.9410 O   0  0  0  0  0  0  0  0  0  0  0  0
  159.8610  206.2190  148.8220 O   0  0  0  0  0  1  0  0  0  0  0  0
  161.2140  205.8670  148.7650 C   0  0  1  0  0  0  0  0  0  0  0  0
  160.8240  206.6250  146.5010 O   0  0  0  0  0  1  0  0  0  0  0  0
  161.7850  206.5540  147.5120 C   0  0  0  0  0  2  0  0  0  0  0  0
  161.3020  204.3370  148.7090 C   0  0  0  0  0  0  0  0  0  0  0  0
  161.8180  203.7800  147.6120 C   0  0  0  0  0  2  0  0  0  0  0  0
  160.7680  203.4790  149.7420 N   0  0  0  0  0  0  0  0  0  0  0  0
  160.2270  202.1590  149.4560 C   0  0  0  0  0  1  0  0  0  0  0  0
  160.8600  203.8610  151.1430 C   0  0  0  0  0  1  0  0  0  0  0  0
  1  6  1  0  0  0  0
  1  9  1  1  0  0  0
  2  5  1  0  0  0  0
  3  2  1  0  0  0  0
  3  7  1  0  0  0  0
  4  7  1  0  0  0  0
  5 14  1  0  0  0  0
  8 13  1  0  0  0  0
  8 12  1  0  0  0  0
 10 18  1  0  0  0  0
 10 19  1  0  0  0  0
 11  4  1  0  0  0  0
 12 16  1  0  0  0  0
 13  2  1  0  0  0  0
 14  1  1  0  0  0  0
 15 11  1  0  0  0  0
 16  5  1  0  0  0  0
 16 17  2  0  0  0  0
 17  6  1  0  0  0  0
 18 13  1  0  0  0  0
 19  3  1  0  0  0  0
 20 19  1  0  0  0  0
 20 15  1  0  0  0  0
 21 22  1  0  0  0  0
 21  8  1  0  0  0  0
 24 23  1  0  0  0  0
 24 22  1  0  0  0  0
 25 26  1  0  0  0  0
 26 24  1  0  0  0  0
 27 24  1  0  0  0  0
 27 29  1  0  0  0  0
 28 27  2  0  0  0  0
 29 31  1  0  0  0  0
 30 29  1  0  0  0  0
M  END
>  <MODEL>
1

>  <REMARK>
 VINA RESULT:      -6.8      0.000      0.000
  Name = 
  6 active torsions:
  status: ('A' for Active; 'I' for Inactive)
    1  A    between atoms: N_1  and  C_19
    2  A    between atoms: C_7  and  C_22
    3  A    between atoms: O_9  and  C_22
    4  A    between atoms: O_9  and  C_23
    5  A    between atoms: C_15  and  C_23
    6  A    between atoms: C_19  and  C_22
                            x       y       z     vdW  Elec       q    Type
                         _______ _______ _______ _____ _____    ______ ____

>  <TORSDO>
F 6

$$$$
=
 OpenBabel11052422233D

 31 34  0  0  1  0  0  0  0  0999 V2000
  161.0750  207.1660  154.7570 C   0  0  1  0  0  3  0  0  0  0  0  0
  160.6760  206.5210  150.9680 C   0  0  1  0  0  3  0  0  0  0  0  0
  161.2650  205.1410  150.6000 C   0  0  1  0  0  3  0  0  0  0  0  0
  161.8110  202.9300  151.6260 C   0  0  0  0  0  2  0  0  0  0  0  0
  161.2990  207.0260  152.2890 C   0  0  2  0  0  3  0  0  0  0  0  0
  160.7380  208.9400  154.7590 S   0  0  0  0  0  0  0  0  0  0  0  0
  160.8440  204.1040  151.6420 C   0  0  0  0  0  2  0  0  0  0  0  0
  162.2300  208.1570  149.7990 C   0  0  1  0  0  3  0  0  0  0  0  0
  160.4590  206.5810  155.8620 O   0  0  0  0  0  1  0  0  0  0  0  0
  161.2080  205.7350  148.2130 N   0  0  0  0  0  2  0  0  0  0  0  0
  161.3370  201.7880  150.7230 C   0  0  0  0  0  2  0  0  0  0  0  0
  162.4790  208.9960  151.0580 C   0  0  0  0  0  2  0  0  0  0  0  0
  160.8170  207.5450  149.8180 C   0  0  1  0  0  3  0  0  0  0  0  0
  160.4580  206.6200  153.4910 C   0  0  0  0  0  2  0  0  0  0  0  0
  160.7170  202.2290  149.3940 C   0  0  0  0  0  2  0  0  0  0  0  0
  161.7490  208.4830  152.2680 C   0  0  0  0  0  0  0  0  0  0  0  0
  161.6700  209.2610  153.2960 N   0  0  0  0  0  0  0  0  0  0  0  0
  160.4060  206.9210  148.4820 C   0  0  0  0  0  2  0  0  0  0  0  0
  160.8330  204.7120  149.1810 C   0  0  1  0  0  3  0  0  0  0  0  0
  161.4630  203.3900  148.7530 C   0  0  0  0  0  2  0  0  0  0  0  0
  162.4870  209.0170  148.5660 C   0  0  0  0  0  2  0  0  0  0  0  0
  161.4270  209.9200  148.3580 O   0  0  0  0  0  0  0  0  0  0  0  0
  161.9450  211.6040  149.7790 O   0  0  0  0  0  1  0  0  0  0  0  0
  161.8910  211.2580  148.4240 C   0  0  1  0  0  0  0  0  0  0  0  0
  163.8120  212.6720  148.0140 O   0  0  0  0  0  1  0  0  0  0  0  0
  163.3320  211.3650  147.8950 C   0  0  0  0  0  2  0  0  0  0  0  0
  160.9190  212.2200  147.7300 C   0  0  0  0  0  0  0  0  0  0  0  0
  160.7500  212.0940  146.4120 C   0  0  0  0  0  2  0  0  0  0  0  0
  160.2590  213.3060  148.4180 N   0  0  0  0  0  0  0  0  0  0  0  0
  160.9860  214.4530  148.9400 C   0  0  0  0  0  1  0  0  0  0  0  0
  158.8070  213.3500  148.5100 C   0  0  0  0  0  1  0  0  0  0  0  0
  1  6  1  0  0  0  0
  1  9  1  1  0  0  0
  2  5  1  0  0  0  0
  3  2  1  0  0  0  0
  3  7  1  0  0  0  0
  4  7  1  0  0  0  0
  5 14  1  0  0  0  0
  8 13  1  0  0  0  0
  8 12  1  0  0  0  0
 10 18  1  0  0  0  0
 10 19  1  0  0  0  0
 11  4  1  0  0  0  0
 12 16  1  0  0  0  0
 13  2  1  0  0  0  0
 14  1  1  0  0  0  0
 15 11  1  0  0  0  0
 16  5  1  0  0  0  0
 16 17  2  0  0  0  0
 17  6  1  0  0  0  0
 18 13  1  0  0  0  0
 19  3  1  0  0  0  0
 20 19  1  0  0  0  0
 20 15  1  0  0  0  0
 21  8  1  0  0  0  0
 22 24  1  0  0  0  0
 22 21  1  0  0  0  0
 24 23  1  0  0  0  0
 26 25  1  0  0  0  0
 26 24  1  0  0  0  0
 27 29  1  0  0  0  0
 27 24  1  0  0  0  0
 28 27  2  0  0  0  0
 29 31  1  0  0  0  0
 29 30  1  0  0  0  0
M  END
>  <MODEL>
2

>  <REMARK>
 VINA RESULT:      -6.5      2.549      6.928
  Name = 
  6 active torsions:
  status: ('A' for Active; 'I' for Inactive)
    1  A    between atoms: N_1  and  C_19
    2  A    between atoms: C_7  and  C_22
    3  A    between atoms: O_9  and  C_22
    4  A    between atoms: O_9  and  C_23
    5  A    between atoms: C_15  and  C_23
    6  A    between atoms: C_19  and  C_22
                            x       y       z     vdW  Elec       q    Type
                         _______ _______ _______ _____ _____    ______ ____

>  <TORSDO>
F 6

$$$$
=
 OpenBabel11052422233D

 31 34  0  0  1  0  0  0  0  0999 V2000
  161.5510  211.1520  148.4900 C   0  0  1  0  0  3  0  0  0  0  0  0
  162.1200  207.7440  150.2200 C   0  0  1  0  0  3  0  0  0  0  0  0
  161.4200  206.6200  149.4240 C   0  0  1  0  0  3  0  0  0  0  0  0
  160.5900  206.1020  147.1240 C   0  0  0  0  0  2  0  0  0  0  0  0
  161.4690  209.1070  149.8950 C   0  0  2  0  0  3  0  0  0  0  0  0
  162.0640  212.2250  149.8490 S   0  0  0  0  0  0  0  0  0  0  0  0
  161.6680  206.8150  147.9270 C   0  0  0  0  0  2  0  0  0  0  0  0
  160.8140  207.8240  152.3990 C   0  0  1  0  0  3  0  0  0  0  0  0
  162.0350  211.6680  147.2900 O   0  0  0  0  0  1  0  0  0  0  0  0
  161.6850  205.0820  151.3250 N   0  0  0  0  0  2  0  0  0  0  0  0
  161.0030  204.6860  146.7130 C   0  0  0  0  0  2  0  0  0  0  0  0
  160.5730  209.3350  152.3310 C   0  0  0  0  0  2  0  0  0  0  0  0
  162.1550  207.4510  151.7380 C   0  0  1  0  0  3  0  0  0  0  0  0
  162.1890  209.8070  148.7500 C   0  0  0  0  0  2  0  0  0  0  0  0
  161.7460  203.8900  147.7890 C   0  0  0  0  0  2  0  0  0  0  0  0
  161.1700  209.9790  151.1100 C   0  0  0  0  0  0  0  0  0  0  0  0
  161.2620  211.2670  151.0950 N   0  0  0  0  0  0  0  0  0  0  0  0
  162.5840  206.0060  152.0030 C   0  0  0  0  0  2  0  0  0  0  0  0
  161.8950  205.2270  149.8900 C   0  0  1  0  0  3  0  0  0  0  0  0
  161.1630  204.0920  149.1790 C   0  0  0  0  0  2  0  0  0  0  0  0
  160.7230  207.3670  153.8520 C   0  0  0  0  0  2  0  0  0  0  0  0
  161.6320  208.0800  154.6570 O   0  0  0  0  0  0  0  0  0  0  0  0
  159.6090  208.5580  155.5510 O   0  0  0  0  0  1  0  0  0  0  0  0
  160.9840  208.5920  155.8090 C   0  0  1  0  0  0  0  0  0  0  0  0
  160.0990  206.8700  157.2600 O   0  0  0  0  0  1  0  0  0  0  0  0
  161.2170  207.6740  157.0220 C   0  0  0  0  0  2  0  0  0  0  0  0
  161.3790  210.0500  156.0690 C   0  0  0  0  0  0  0  0  0  0  0  0
  162.6460  210.3040  156.4030 C   0  0  0  0  0  2  0  0  0  0  0  0
  160.4280  211.1380  156.0620 N   0  0  0  0  0  0  0  0  0  0  0  0
  159.7130  211.5560  157.2590 C   0  0  0  0  0  1  0  0  0  0  0  0
  160.2340  211.9450  154.8670 C   0  0  0  0  0  1  0  0  0  0  0  0
  1  9  1  6  0  0  0
  1 14  1  0  0  0  0
  1  6  1  0  0  0  0
  2 13  1  0  0  0  0
  3 19  1  0  0  0  0
  3  2  1  0  0  0  0
  4  7  1  0  0  0  0
  5  2  1  0  0  0  0
  5 16  1  0  0  0  0
  6 17  1  0  0  0  0
  7  3  1  0  0  0  0
  8 21  1  0  0  0  0
 10 18  1  0  0  0  0
 11  4  1  0  0  0  0
 11 15  1  0  0  0  0
 12  8  1  0  0  0  0
 13 18  1  0  0  0  0
 13  8  1  0  0  0  0
 14  5  1  0  0  0  0
 15 20  1  0  0  0  0
 16 12  1  0  0  0  0
 17 16  2  0  0  0  0
 19 10  1  0  0  0  0
 20 19  1  0  0  0  0
 21 22  1  0  0  0  0
 22 24  1  0  0  0  0
 23 24  1  0  0  0  0
 24 27  1  0  0  0  0
 24 26  1  0  0  0  0
 26 25  1  0  0  0  0
 27 28  2  0  0  0  0
 29 27  1  0  0  0  0
 29 30  1  0  0  0  0
 31 29  1  0  0  0  0
M  END
>  <MODEL>
3

>  <REMARK>
 VINA RESULT:      -5.9      2.950      7.768
  Name = 
  6 active torsions:
  status: ('A' for Active; 'I' for Inactive)
    1  A    between atoms: N_1  and  C_19
    2  A    between atoms: C_7  and  C_22
    3  A    between atoms: O_9  and  C_22
    4  A    between atoms: O_9  and  C_23
    5  A    between atoms: C_15  and  C_23
    6  A    between atoms: C_19  and  C_22
                            x       y       z     vdW  Elec       q    Type
                         _______ _______ _______ _____ _____    ______ ____

>  <TORSDO>
F 6

$$$$
=
 OpenBabel11052422233D

 31 34  0  0  1  0  0  0  0  0999 V2000
  159.8870  209.3260  156.1090 C   0  0  1  0  0  3  0  0  0  0  0  0
  161.3740  210.1520  152.6390 C   0  0  1  0  0  3  0  0  0  0  0  0
  160.4610  211.1510  151.8940 C   0  0  1  0  0  3  0  0  0  0  0  0
  158.7250  212.8920  152.3370 C   0  0  0  0  0  2  0  0  0  0  0  0
  160.5660  209.4030  153.7220 C   0  0  2  0  0  3  0  0  0  0  0  0
  160.8870  207.8700  156.4830 S   0  0  0  0  0  0  0  0  0  0  0  0
  160.0020  212.2480  152.8550 C   0  0  0  0  0  2  0  0  0  0  0  0
  161.1780  208.0290  151.2560 C   0  0  1  0  0  3  0  0  0  0  0  0
  159.7510  210.0990  157.2610 O   0  0  0  0  0  1  0  0  0  0  0  0
  161.6410  210.6840  149.7860 N   0  0  0  0  0  2  0  0  0  0  0  0
  158.9960  214.1440  151.4970 C   0  0  0  0  0  2  0  0  0  0  0  0
  160.8410  207.1410  152.4590 C   0  0  0  0  0  2  0  0  0  0  0  0
  162.1020  209.1890  151.6720 C   0  0  1  0  0  3  0  0  0  0  0  0
  160.6540  210.1090  155.0680 C   0  0  0  0  0  2  0  0  0  0  0  0
  160.1880  214.0380  150.5430 C   0  0  0  0  0  2  0  0  0  0  0  0
  160.7890  207.8950  153.7580 C   0  0  0  0  0  0  0  0  0  0  0  0
  160.7860  207.2060  154.8520 N   0  0  0  0  0  0  0  0  0  0  0  0
  162.6900  209.9540  150.4850 C   0  0  0  0  0  2  0  0  0  0  0  0
  161.1780  211.7510  150.6650 C   0  0  1  0  0  3  0  0  0  0  0  0
  160.2760  212.6810  149.8600 C   0  0  0  0  0  2  0  0  0  0  0  0
  161.7730  207.1650  150.1480 C   0  0  0  0  0  2  0  0  0  0  0  0
  160.7740  206.3880  149.5300 O   0  0  0  0  0  0  0  0  0  0  0  0
  162.3220  204.9150  150.2740 O   0  0  0  0  0  1  0  0  0  0  0  0
  161.1100  205.0110  149.5830 C   0  0  1  0  0  0  0  0  0  0  0  0
  160.6080  203.8640  151.6530 O   0  0  0  0  0  1  0  0  0  0  0  0
  160.0780  204.2270  150.4120 C   0  0  0  0  0  2  0  0  0  0  0  0
  161.3200  204.4360  148.1770 C   0  0  0  0  0  0  0  0  0  0  0  0
  161.3570  203.1090  148.0440 C   0  0  0  0  0  2  0  0  0  0  0  0
  161.5740  205.2610  147.0180 N   0  0  0  0  0  0  0  0  0  0  0  0
  160.6870  206.3450  146.6250 C   0  0  0  0  0  1  0  0  0  0  0  0
  162.8050  205.1110  146.2570 C   0  0  0  0  0  1  0  0  0  0  0  0
  1  6  1  0  0  0  0
  1  9  1  1  0  0  0
  2  5  1  0  0  0  0
  3  2  1  0  0  0  0
  3  7  1  0  0  0  0
  4  7  1  0  0  0  0
  5 16  1  0  0  0  0
  5 14  1  0  0  0  0
  8 13  1  0  0  0  0
  8 12  1  0  0  0  0
 10 18  1  0  0  0  0
 10 19  1  0  0  0  0
 11  4  1  0  0  0  0
 12 16  1  0  0  0  0
 13  2  1  0  0  0  0
 14  1  1  0  0  0  0
 15 11  1  0  0  0  0
 16 17  2  0  0  0  0
 17  6  1  0  0  0  0
 18 13  1  0  0  0  0
 19  3  1  0  0  0  0
 20 15  1  0  0  0  0
 20 19  1  0  0  0  0
 21  8  1  0  0  0  0
 22 24  1  0  0  0  0
 22 21  1  0  0  0  0
 24 23  1  0  0  0  0
 24 26  1  0  0  0  0
 26 25  1  0  0  0  0
 27 24  1  0  0  0  0
 28 27  2  0  0  0  0
 29 27  1  0  0  0  0
 30 29  1  0  0  0  0
 31 29  1  0  0  0  0
M  END
>  <MODEL>
4

>  <REMARK>
 VINA RESULT:      -5.8      1.148      2.092
  Name = 
  6 active torsions:
  status: ('A' for Active; 'I' for Inactive)
    1  A    between atoms: N_1  and  C_19
    2  A    between atoms: C_7  and  C_22
    3  A    between atoms: O_9  and  C_22
    4  A    between atoms: O_9  and  C_23
    5  A    between atoms: C_15  and  C_23
    6  A    between atoms: C_19  and  C_22
                            x       y       z     vdW  Elec       q    Type
                         _______ _______ _______ _____ _____    ______ ____

>  <TORSDO>
F 6

$$$$
=
 OpenBabel11052422233D

 31 34  0  0  1  0  0  0  0  0999 V2000
  161.1280  212.2690  148.6870 C   0  0  1  0  0  3  0  0  0  0  0  0
  161.4610  210.2950  151.9910 C   0  0  1  0  0  3  0  0  0  0  0  0
  161.0890  208.8130  151.7640 C   0  0  1  0  0  3  0  0  0  0  0  0
  160.9560  207.1040  149.9450 C   0  0  0  0  0  2  0  0  0  0  0  0
  160.8220  211.1740  150.8930 C   0  0  2  0  0  3  0  0  0  0  0  0
  161.1700  213.9390  149.3730 S   0  0  0  0  0  0  0  0  0  0  0  0
  161.7190  208.3150  150.4620 C   0  0  0  0  0  2  0  0  0  0  0  0
  159.6110  211.1390  153.5150 C   0  0  1  0  0  3  0  0  0  0  0  0
  161.8790  212.2360  147.5130 O   0  0  0  0  0  1  0  0  0  0  0  0
  160.9440  208.4580  154.1940 N   0  0  0  0  0  2  0  0  0  0  0  0
  161.5710  205.7800  150.4080 C   0  0  0  0  0  2  0  0  0  0  0  0
  159.2840  212.3510  152.6360 C   0  0  0  0  0  2  0  0  0  0  0  0
  161.1050  210.7760  153.4170 C   0  0  1  0  0  3  0  0  0  0  0  0
  161.7700  211.3720  149.7180 C   0  0  0  0  0  2  0  0  0  0  0  0
  162.0510  205.7630  151.8610 C   0  0  0  0  0  2  0  0  0  0  0  0
  160.1400  212.4390  151.4030 C   0  0  0  0  0  0  0  0  0  0  0  0
  160.1350  213.5530  150.7480 N   0  0  0  0  0  0  0  0  0  0  0  0
  161.5520  209.7530  154.4630 C   0  0  0  0  0  2  0  0  0  0  0  0
  161.5230  207.9390  152.9610 C   0  0  1  0  0  3  0  0  0  0  0  0
  161.0990  206.4820  152.8050 C   0  0  0  0  0  2  0  0  0  0  0  0
  159.1630  211.4240  154.9460 C   0  0  0  0  0  2  0  0  0  0  0  0
  158.7570  212.7650  155.0840 O   0  0  0  0  0  0  0  0  0  0  0  0
  158.2660  211.7910  157.0660 O   0  0  0  0  0  1  0  0  0  0  0  0
  158.0820  212.9570  156.3160 C   0  0  1  0  0  0  0  0  0  0  0  0
  159.9660  214.4520  156.5800 O   0  0  0  0  0  1  0  0  0  0  0  0
  158.7290  214.0960  157.1240 C   0  0  0  0  0  2  0  0  0  0  0  0
  156.5750  213.1480  156.1010 C   0  0  0  0  0  0  0  0  0  0  0  0
  155.8790  213.7560  157.0640 C   0  0  0  0  0  2  0  0  0  0  0  0
  155.8690  212.6190  154.9560 N   0  0  0  0  0  0  0  0  0  0  0  0
  155.4720  213.4530  153.8320 C   0  0  0  0  0  1  0  0  0  0  0  0
  155.6300  211.1890  154.8300 C   0  0  0  0  0  1  0  0  0  0  0  0
  1  9  1  6  0  0  0
  1  6  1  0  0  0  0
  1 14  1  0  0  0  0
  2 13  1  0  0  0  0
  3  2  1  0  0  0  0
  3 19  1  0  0  0  0
  4 11  1  0  0  0  0
  4  7  1  0  0  0  0
  5 16  1  0  0  0  0
  5  2  1  0  0  0  0
  6 17  1  0  0  0  0
  7  3  1  0  0  0  0
  8 21  1  0  0  0  0
 10 18  1  0  0  0  0
 11 15  1  0  0  0  0
 12  8  1  0  0  0  0
 13  8  1  0  0  0  0
 13 18  1  0  0  0  0
 14  5  1  0  0  0  0
 15 20  1  0  0  0  0
 16 12  1  0  0  0  0
 17 16  2  0  0  0  0
 19 10  1  0  0  0  0
 20 19  1  0  0  0  0
 21 22  1  0  0  0  0
 22 24  1  0  0  0  0
 24 23  1  0  0  0  0
 24 26  1  0  0  0  0
 25 26  1  0  0  0  0
 27 24  1  0  0  0  0
 27 28  2  0  0  0  0
 29 27  1  0  0  0  0
 30 29  1  0  0  0  0
 31 29  1  0  0  0  0
M  END
>  <MODEL>
5

>  <REMARK>
 VINA RESULT:      -5.7      3.400      8.495
  Name = 
  6 active torsions:
  status: ('A' for Active; 'I' for Inactive)
    1  A    between atoms: N_1  and  C_19
    2  A    between atoms: C_7  and  C_22
    3  A    between atoms: O_9  and  C_22
    4  A    between atoms: O_9  and  C_23
    5  A    between atoms: C_15  and  C_23
    6  A    between atoms: C_19  and  C_22
                            x       y       z     vdW  Elec       q    Type
                         _______ _______ _______ _____ _____    ______ ____

>  <TORSDO>
F 6

$$$$
=
 OpenBabel11052422233D

 31 34  0  0  1  0  0  0  0  0999 V2000
  160.3510  213.3720  151.2900 C   0  0  1  0  0  3  0  0  0  0  0  0
  160.4820  209.7200  152.5450 C   0  0  1  0  0  3  0  0  0  0  0  0
  161.0690  209.6700  153.9730 C   0  0  1  0  0  3  0  0  0  0  0  0
  161.3840  211.1080  155.9910 C   0  0  0  0  0  2  0  0  0  0  0  0
  160.9250  211.0200  151.8360 C   0  0  2  0  0  3  0  0  0  0  0  0
  160.0800  213.0380  149.5370 S   0  0  0  0  0  0  0  0  0  0  0  0
  160.4670  210.7910  154.8200 C   0  0  0  0  0  2  0  0  0  0  0  0
  162.2450  208.5470  151.1400 C   0  0  1  0  0  3  0  0  0  0  0  0
  159.5620  214.4530  151.6790 O   0  0  0  0  0  1  0  0  0  0  0  0
  161.3790  207.2370  153.7780 N   0  0  0  0  0  2  0  0  0  0  0  0
  161.0060  210.3400  157.2600 C   0  0  0  0  0  2  0  0  0  0  0  0
  162.3380  209.6760  150.1090 C   0  0  0  0  0  2  0  0  0  0  0  0
  160.8230  208.4540  151.7260 C   0  0  1  0  0  3  0  0  0  0  0  0
  159.9050  212.1340  152.0310 C   0  0  0  0  0  2  0  0  0  0  0  0
  160.6000  208.8810  157.0370 C   0  0  0  0  0  2  0  0  0  0  0  0
  161.4240  210.8310  150.4080 C   0  0  0  0  0  0  0  0  0  0  0  0
  161.2240  211.6980  149.4700 N   0  0  0  0  0  0  0  0  0  0  0  0
  160.5880  207.1900  152.5560 C   0  0  0  0  0  2  0  0  0  0  0  0
  160.8320  208.2900  154.6250 C   0  0  1  0  0  3  0  0  0  0  0  0
  161.4710  208.1790  156.0060 C   0  0  0  0  0  2  0  0  0  0  0  0
  162.7070  207.2430  150.4970 C   0  0  0  0  0  2  0  0  0  0  0  0
  161.6720  206.2880  150.5050 O   0  0  0  0  0  0  0  0  0  0  0  0
  160.0720  206.3160  148.9040 O   0  0  0  0  0  1  0  0  0  0  0  0
  161.3690  205.8700  149.1850 C   0  0  1  0  0  0  0  0  0  0  0  0
  161.5630  207.4100  147.3280 O   0  0  0  0  0  1  0  0  0  0  0  0
  162.2910  206.5620  148.1660 C   0  0  0  0  0  2  0  0  0  0  0  0
  161.3770  204.3410  149.0690 C   0  0  0  0  0  0  0  0  0  0  0  0
  161.5720  203.8070  147.8620 C   0  0  0  0  0  2  0  0  0  0  0  0
  161.0920  203.4650  150.1830 N   0  0  0  0  0  0  0  0  0  0  0  0
  160.4180  202.1860  150.0150 C   0  0  0  0  0  1  0  0  0  0  0  0
  161.5800  203.7790  151.5160 C   0  0  0  0  0  1  0  0  0  0  0  0
  1  9  1  1  0  0  0
  1 14  1  0  0  0  0
  2  3  1  0  0  0  0
  3 19  1  0  0  0  0
  3  7  1  0  0  0  0
  4 11  1  0  0  0  0
  5 14  1  0  0  0  0
  5  2  1  0  0  0  0
  6  1  1  0  0  0  0
  7  4  1  0  0  0  0
  8 13  1  0  0  0  0
 10 19  1  0  0  0  0
 12 16  1  0  0  0  0
 12  8  1  0  0  0  0
 13  2  1  0  0  0  0
 13 18  1  0  0  0  0
 15 11  1  0  0  0  0
 16  5  1  0  0  0  0
 17  6  1  0  0  0  0
 17 16  2  0  0  0  0
 18 10  1  0  0  0  0
 19 20  1  0  0  0  0
 20 15  1  0  0  0  0
 21 22  1  0  0  0  0
 21  8  1  0  0  0  0
 23 24  1  0  0  0  0
 24 22  1  0  0  0  0
 25 26  1  0  0  0  0
 26 24  1  0  0  0  0
 27 24  1  0  0  0  0
 27 29  1  0  0  0  0
 28 27  2  0  0  0  0
 29 31  1  0  0  0  0
 30 29  1  0  0  0  0
M  END
>  <MODEL>
6

>  <REMARK>
 VINA RESULT:      -5.4      2.258      4.287
  Name = 
  6 active torsions:
  status: ('A' for Active; 'I' for Inactive)
    1  A    between atoms: N_1  and  C_19
    2  A    between atoms: C_7  and  C_22
    3  A    between atoms: O_9  and  C_22
    4  A    between atoms: O_9  and  C_23
    5  A    between atoms: C_15  and  C_23
    6  A    between atoms: C_19  and  C_22
                            x       y       z     vdW  Elec       q    Type
                         _______ _______ _______ _____ _____    ______ ____

>  <TORSDO>
F 6

$$$$
=
 OpenBabel11052422233D

 31 34  0  0  1  0  0  0  0  0999 V2000
  160.8840  201.8120  150.8380 C   0  0  1  0  0  3  0  0  0  0  0  0
  160.8280  205.2330  149.0430 C   0  0  1  0  0  3  0  0  0  0  0  0
  161.6940  205.1760  147.7640 C   0  0  1  0  0  3  0  0  0  0  0  0
  162.6010  203.5390  146.1090 C   0  0  0  0  0  2  0  0  0  0  0  0
  161.2680  204.1270  150.0280 C   0  0  2  0  0  3  0  0  0  0  0  0
  160.2100  202.3390  152.4290 S   0  0  0  0  0  0  0  0  0  0  0  0
  161.4250  203.8690  147.0160 C   0  0  0  0  0  2  0  0  0  0  0  0
  162.0980  206.8460  150.5420 C   0  0  1  0  0  3  0  0  0  0  0  0
  160.3340  200.5800  150.4920 O   0  0  0  0  0  1  0  0  0  0  0  0
  161.6550  207.6310  147.6070 N   0  0  0  0  0  2  0  0  0  0  0  0
  162.4080  204.0570  144.6820 C   0  0  0  0  0  2  0  0  0  0  0  0
  162.1090  205.8970  151.7450 C   0  0  0  0  0  2  0  0  0  0  0  0
  160.8310  206.6380  149.6890 C   0  0  1  0  0  3  0  0  0  0  0  0
  160.4560  202.8540  149.8320 C   0  0  0  0  0  2  0  0  0  0  0  0
  161.7890  205.4530  144.5780 C   0  0  0  0  0  2  0  0  0  0  0  0
  161.4270  204.5850  151.4740 C   0  0  0  0  0  0  0  0  0  0  0  0
  161.1420  203.8360  152.4880 N   0  0  0  0  0  0  0  0  0  0  0  0
  160.6240  207.7240  148.6320 C   0  0  0  0  0  2  0  0  0  0  0  0
  161.4320  206.3990  146.8590 C   0  0  1  0  0  3  0  0  0  0  0  0
  162.3290  206.4160  145.6250 C   0  0  0  0  0  2  0  0  0  0  0  0
  162.2510  208.2810  151.0350 C   0  0  0  0  0  2  0  0  0  0  0  0
  161.0980  208.6960  151.7300 O   0  0  0  0  0  0  0  0  0  0  0  0
  162.7680  210.0340  152.4660 O   0  0  0  0  0  1  0  0  0  0  0  0
  161.4110  209.7390  152.6370 C   0  0  1  0  0  0  0  0  0  0  0  0
  159.2740  210.8670  152.5090 O   0  0  0  0  0  1  0  0  0  0  0  0
  160.6430  211.0240  152.2800 C   0  0  0  0  0  2  0  0  0  0  0  0
  161.2030  209.2950  154.0900 C   0  0  0  0  0  0  0  0  0  0  0  0
  160.8820  208.0190  154.3130 C   0  0  0  0  0  2  0  0  0  0  0  0
  161.2460  210.2100  155.2080 N   0  0  0  0  0  0  0  0  0  0  0  0
  160.0540  210.5860  155.9520 C   0  0  0  0  0  1  0  0  0  0  0  0
  162.5190  210.7030  155.7130 C   0  0  0  0  0  1  0  0  0  0  0  0
  1  9  1  6  0  0  0
  1  6  1  0  0  0  0
  2 13  1  0  0  0  0
  2  5  1  0  0  0  0
  3  2  1  0  0  0  0
  4  7  1  0  0  0  0
  5 16  1  0  0  0  0
  6 17  1  0  0  0  0
  7  3  1  0  0  0  0
  8 21  1  0  0  0  0
  8 12  1  0  0  0  0
 10 18  1  0  0  0  0
 11  4  1  0  0  0  0
 13  8  1  0  0  0  0
 14  5  1  0  0  0  0
 14  1  1  0  0  0  0
 15 11  1  0  0  0  0
 15 20  1  0  0  0  0
 16 12  1  0  0  0  0
 16 17  2  0  0  0  0
 18 13  1  0  0  0  0
 19 10  1  0  0  0  0
 19  3  1  0  0  0  0
 20 19  1  0  0  0  0
 21 22  1  0  0  0  0
 22 24  1  0  0  0  0
 23 24  1  0  0  0  0
 24 27  1  0  0  0  0
 26 25  1  0  0  0  0
 26 24  1  0  0  0  0
 27 28  2  0  0  0  0
 27 29  1  0  0  0  0
 29 31  1  0  0  0  0
 29 30  1  0  0  0  0
M  END
>  <MODEL>
7

>  <REMARK>
 VINA RESULT:      -5.3      2.769      7.610
  Name = 
  6 active torsions:
  status: ('A' for Active; 'I' for Inactive)
    1  A    between atoms: N_1  and  C_19
    2  A    between atoms: C_7  and  C_22
    3  A    between atoms: O_9  and  C_22
    4  A    between atoms: O_9  and  C_23
    5  A    between atoms: C_15  and  C_23
    6  A    between atoms: C_19  and  C_22
                            x       y       z     vdW  Elec       q    Type
                         _______ _______ _______ _____ _____    ______ ____

>  <TORSDO>
F 6

$$$$
=
 OpenBabel11052422233D

 31 34  0  0  1  0  0  0  0  0999 V2000
  160.7810  204.4740  149.9860 C   0  0  1  0  0  3  0  0  0  0  0  0
  162.0680  207.7170  151.6460 C   0  0  1  0  0  3  0  0  0  0  0  0
  161.2080  208.0580  152.8830 C   0  0  1  0  0  3  0  0  0  0  0  0
  159.7030  206.9720  154.5560 C   0  0  0  0  0  2  0  0  0  0  0  0
  161.2730  206.8040  150.6850 C   0  0  2  0  0  3  0  0  0  0  0  0
  161.6500  204.6230  148.4100 S   0  0  0  0  0  0  0  0  0  0  0  0
  160.9430  206.7890  153.6940 C   0  0  0  0  0  2  0  0  0  0  0  0
  161.5420  209.6040  150.0260 C   0  0  1  0  0  3  0  0  0  0  0  0
  160.8170  203.1460  150.4060 O   0  0  0  0  0  1  0  0  0  0  0  0
  162.1630  210.3240  152.9460 N   0  0  0  0  0  2  0  0  0  0  0  0
  160.0350  207.4570  155.9700 C   0  0  0  0  0  2  0  0  0  0  0  0
  161.2100  208.6650  148.8620 C   0  0  0  0  0  2  0  0  0  0  0  0
  162.6120  208.9840  150.9450 C   0  0  1  0  0  3  0  0  0  0  0  0
  161.5400  205.3330  150.9700 C   0  0  0  0  0  2  0  0  0  0  0  0
  161.1310  208.5230  156.0470 C   0  0  0  0  0  2  0  0  0  0  0  0
  161.3400  207.2100  149.2160 C   0  0  0  0  0  0  0  0  0  0  0  0
  161.3520  206.3540  148.2480 N   0  0  0  0  0  0  0  0  0  0  0  0
  163.1820  209.9690  151.9680 C   0  0  0  0  0  2  0  0  0  0  0  0
  161.8840  209.1420  153.7510 C   0  0  1  0  0  3  0  0  0  0  0  0
  161.0230  209.5600  154.9390 C   0  0  0  0  0  2  0  0  0  0  0  0
  161.9550  210.9640  149.4700 C   0  0  0  0  0  2  0  0  0  0  0  0
  161.3680  211.1860  148.2090 O   0  0  0  0  0  0  0  0  0  0  0  0
  161.2030  213.2290  149.1690 O   0  0  0  0  0  1  0  0  0  0  0  0
  161.2880  212.5750  147.9350 C   0  0  1  0  0  0  0  0  0  0  0  0
  163.0350  214.2480  147.8820 O   0  0  0  0  0  1  0  0  0  0  0  0
  162.5810  213.0770  147.2700 C   0  0  0  0  0  2  0  0  0  0  0  0
  160.0250  212.9120  147.1330 C   0  0  0  0  0  0  0  0  0  0  0  0
  158.8580  212.9210  147.7810 C   0  0  0  0  0  2  0  0  0  0  0  0
  160.0310  213.1230  145.7040 N   0  0  0  0  0  0  0  0  0  0  0  0
  160.1800  214.4450  145.1130 C   0  0  0  0  0  1  0  0  0  0  0  0
  160.0080  211.9930  144.7880 C   0  0  0  0  0  1  0  0  0  0  0  0
  1  9  1  1  0  0  0
  1 14  1  0  0  0  0
  2  3  1  0  0  0  0
  3  7  1  0  0  0  0
  3 19  1  0  0  0  0
  4 11  1  0  0  0  0
  5 14  1  0  0  0  0
  5  2  1  0  0  0  0
  6  1  1  0  0  0  0
  7  4  1  0  0  0  0
  8 13  1  0  0  0  0
 10 19  1  0  0  0  0
 11 15  1  0  0  0  0
 12 16  1  0  0  0  0
 12  8  1  0  0  0  0
 13  2  1  0  0  0  0
 13 18  1  0  0  0  0
 16  5  1  0  0  0  0
 17  6  1  0  0  0  0
 17 16  2  0  0  0  0
 18 10  1  0  0  0  0
 19 20  1  0  0  0  0
 20 15  1  0  0  0  0
 21  8  1  0  0  0  0
 22 21  1  0  0  0  0
 24 22  1  0  0  0  0
 24 23  1  0  0  0  0
 26 25  1  0  0  0  0
 26 24  1  0  0  0  0
 27 28  2  0  0  0  0
 27 24  1  0  0  0  0
 29 27  1  0  0  0  0
 30 29  1  0  0  0  0
 31 29  1  0  0  0  0
M  END
>  <MODEL>
8

>  <REMARK>
 VINA RESULT:      -5.1      3.551      6.820
  Name = 
  6 active torsions:
  status: ('A' for Active; 'I' for Inactive)
    1  A    between atoms: N_1  and  C_19
    2  A    between atoms: C_7  and  C_22
    3  A    between atoms: O_9  and  C_22
    4  A    between atoms: O_9  and  C_23
    5  A    between atoms: C_15  and  C_23
    6  A    between atoms: C_19  and  C_22
                            x       y       z     vdW  Elec       q    Type
                         _______ _______ _______ _____ _____    ______ ____

>  <TORSDO>
F 6

$$$$
=
 OpenBabel11052422233D

 31 34  0  0  1  0  0  0  0  0999 V2000
  161.2050  204.3090  152.4560 C   0  0  1  0  0  3  0  0  0  0  0  0
  160.7440  205.6580  148.8650 C   0  0  1  0  0  3  0  0  0  0  0  0
  161.2780  204.6330  147.8400 C   0  0  1  0  0  3  0  0  0  0  0  0
  161.7520  202.1910  147.6080 C   0  0  0  0  0  2  0  0  0  0  0  0
  161.3990  205.4170  150.2430 C   0  0  2  0  0  3  0  0  0  0  0  0
  160.9340  205.8530  153.3530 S   0  0  0  0  0  0  0  0  0  0  0  0
  160.8300  203.2250  148.2350 C   0  0  0  0  0  2  0  0  0  0  0  0
  162.3470  207.6170  148.6280 C   0  0  1  0  0  3  0  0  0  0  0  0
  160.5780  203.2670  153.1360 O   0  0  0  0  0  1  0  0  0  0  0  0
  161.2200  206.3430  146.0720 N   0  0  0  0  0  2  0  0  0  0  0  0
  161.2270  201.6680  146.2680 C   0  0  0  0  0  2  0  0  0  0  0  0
  162.6390  207.7060  150.1300 C   0  0  0  0  0  2  0  0  0  0  0  0
  160.9120  207.1160  148.3760 C   0  0  1  0  0  3  0  0  0  0  0  0
  160.5550  204.4870  151.1040 C   0  0  0  0  0  2  0  0  0  0  0  0
  160.6110  202.7310  145.3550 C   0  0  0  0  0  2  0  0  0  0  0  0
  161.9030  206.6770  150.9410 C   0  0  0  0  0  0  0  0  0  0  0  0
  161.8630  206.8380  152.2230 N   0  0  0  0  0  0  0  0  0  0  0  0
  160.4650  207.2560  146.9200 C   0  0  0  0  0  2  0  0  0  0  0  0
  160.8160  204.9830  146.4080 C   0  0  1  0  0  3  0  0  0  0  0  0
  161.3920  204.0360  145.3600 C   0  0  0  0  0  2  0  0  0  0  0  0
  162.6230  208.9720  147.9830 C   0  0  0  0  0  2  0  0  0  0  0  0
  161.5810  209.8780  148.2600 O   0  0  0  0  0  0  0  0  0  0  0  0
  162.3270  211.0920  150.0180 O   0  0  0  0  0  1  0  0  0  0  0  0
  162.1060  211.1400  148.6370 C   0  0  1  0  0  0  0  0  0  0  0  0
  163.9420  212.6690  148.2600 O   0  0  0  0  0  1  0  0  0  0  0  0
  163.4800  211.3780  147.9890 C   0  0  0  0  0  2  0  0  0  0  0  0
  161.1010  212.2650  148.3590 C   0  0  0  0  0  0  0  0  0  0  0  0
  160.6600  212.9790  149.3960 C   0  0  0  0  0  2  0  0  0  0  0  0
  160.5460  212.5200  147.0490 N   0  0  0  0  0  0  0  0  0  0  0  0
  159.1150  212.4800  146.7880 C   0  0  0  0  0  1  0  0  0  0  0  0
  161.4020  212.9470  145.9530 C   0  0  0  0  0  1  0  0  0  0  0  0
  1  9  1  1  0  0  0
  1  6  1  0  0  0  0
  2  5  1  0  0  0  0
  3  7  1  0  0  0  0
  3  2  1  0  0  0  0
  4  7  1  0  0  0  0
  5 16  1  0  0  0  0
  5 14  1  0  0  0  0
  8 12  1  0  0  0  0
 10 19  1  0  0  0  0
 10 18  1  0  0  0  0
 11  4  1  0  0  0  0
 12 16  1  0  0  0  0
 13  8  1  0  0  0  0
 13  2  1  0  0  0  0
 14  1  1  0  0  0  0
 15 20  1  0  0  0  0
 15 11  1  0  0  0  0
 16 17  2  0  0  0  0
 17  6  1  0  0  0  0
 18 13  1  0  0  0  0
 19  3  1  0  0  0  0
 20 19  1  0  0  0  0
 21 22  1  0  0  0  0
 21  8  1  0  0  0  0
 22 24  1  0  0  0  0
 24 23  1  0  0  0  0
 26 25  1  0  0  0  0
 26 24  1  0  0  0  0
 27 24  1  0  0  0  0
 27 28  2  0  0  0  0
 29 27  1  0  0  0  0
 30 29  1  0  0  0  0
 31 29  1  0  0  0  0
M  END
>  <MODEL>
9

>  <REMARK>
 VINA RESULT:      -5.1      3.345      7.680
  Name = 
  6 active torsions:
  status: ('A' for Active; 'I' for Inactive)
    1  A    between atoms: N_1  and  C_19
    2  A    between atoms: C_7  and  C_22
    3  A    between atoms: O_9  and  C_22
    4  A    between atoms: O_9  and  C_23
    5  A    between atoms: C_15  and  C_23
    6  A    between atoms: C_19  and  C_22
                            x       y       z     vdW  Elec       q    Type
                         _______ _______ _______ _____ _____    ______ ____

>  <TORSDO>
F 6

$$$$
