=
 OpenBabel11062407513D

 34 39  0  0  0  0  0  0  0  0999 V2000
  162.0180  209.0410  149.2410 C   0  0  0  0  0  0  0  0  0  0  0  0
  161.0770  210.2310  151.1410 C   0  0  0  0  0  0  0  0  0  0  0  0
  161.3500  207.7050  151.1820 C   0  0  0  0  0  0  0  0  0  0  0  0
  161.0370  206.2170  153.0690 C   0  0  0  0  0  0  0  0  0  0  0  0
  162.0450  211.4570  149.2830 C   0  0  0  0  0  3  0  0  0  0  0  0
  161.3910  211.4400  150.5100 C   0  0  0  0  0  3  0  0  0  0  0  0
  161.4760  208.4160  153.5460 N   0  0  0  0  0  0  0  0  0  0  0  0
  161.4900  208.9930  150.5630 C   0  0  0  0  0  0  0  0  0  0  0  0
  161.5410  208.6180  155.9850 N   0  0  0  0  0  2  0  0  0  0  0  0
  161.0460  206.2160  154.7470 S   0  0  0  0  0  0  0  0  0  0  0  0
  162.3290  210.2600  148.6360 C   0  0  0  0  0  3  0  0  0  0  0  0
  161.4250  206.5290  150.3670 C   0  0  0  0  0  0  0  0  0  0  0  0
  162.1910  207.8790  148.5010 C   0  0  0  0  0  3  0  0  0  0  0  0
  160.0920  210.3350  152.2550 C   0  0  0  0  0  1  0  0  0  0  0  0
  160.9740  205.1290  152.2740 N   0  0  0  0  0  0  0  0  0  0  0  0
  161.1550  205.2430  150.9280 C   0  0  0  0  0  0  0  0  0  0  0  0
  161.3710  207.8720  154.7820 C   0  0  0  0  0  0  0  0  0  0  0  0
  161.2500  207.4910  152.5770 C   0  0  0  0  0  0  0  0  0  0  0  0
  161.8630  206.6460  149.0430 C   0  0  0  0  0  3  0  0  0  0  0  0
  161.1480  202.9130  147.9940 C   0  0  0  0  0  0  0  0  0  0  0  0
  160.9240  201.6730  148.5930 C   0  0  0  0  0  2  0  0  0  0  0  0
  161.0960  203.9980  150.1160 C   0  0  0  0  0  0  0  0  0  0  0  0
  160.7770  201.6030  149.9770 C   0  0  0  0  0  3  0  0  0  0  0  0
  161.2240  204.0360  148.7590 N   0  0  0  0  0  0  0  0  0  0  0  0
  160.8580  202.7670  150.7440 C   0  0  0  0  0  3  0  0  0  0  0  0
  161.2790  202.9940  146.7460 O   0  0  0  0  0  0  0  0  0  0  0  0
  161.8290  210.0430  155.9620 C   0  0  0  0  0  2  0  0  0  0  0  0
  161.7950  212.5900  157.2600 F   0  0  0  0  0  0  0  0  0  0  0  0
  160.5770  210.8140  156.2030 C   0  0  0  0  0  0  0  0  0  0  0  0
  160.6170  212.0670  156.8350 C   0  0  0  0  0  0  0  0  0  0  0  0
  158.2140  212.2620  156.5990 C   0  0  0  0  0  3  0  0  0  0  0  0
  158.1740  211.0190  155.9630 C   0  0  0  0  0  3  0  0  0  0  0  0
  159.3540  210.2970  155.7630 C   0  0  0  0  0  3  0  0  0  0  0  0
  159.4340  212.7860  157.0350 C   0  0  0  0  0  3  0  0  0  0  0  0
  1  8  1  0  0  0  0
  2 14  1  0  0  0  0
  3 18  1  0  0  0  0
  4 10  1  0  0  0  0
  5  6  1  0  0  0  0
  6  2  2  0  0  0  0
  7 17  2  0  0  0  0
  8  2  1  0  0  0  0
  8  3  2  0  0  0  0
 10 17  1  0  0  0  0
 11  1  1  0  0  0  0
 11  5  2  0  0  0  0
 12 16  1  0  0  0  0
 12  3  1  0  0  0  0
 13 19  1  0  0  0  0
 13  1  2  0  0  0  0
 15  4  1  0  0  0  0
 16 15  2  0  0  0  0
 17  9  1  0  0  0  0
 18  4  2  0  0  0  0
 18  7  1  0  0  0  0
 19 12  2  0  0  0  0
 20 21  1  0  0  0  0
 20 24  1  0  0  0  0
 21 23  1  0  0  0  0
 22 25  1  0  0  0  0
 22 16  1  0  0  0  0
 23 25  2  0  0  0  0
 24 22  2  0  0  0  0
 26 20  2  0  0  0  0
 27  9  1  0  0  0  0
 27 29  1  0  0  0  0
 29 30  1  0  0  0  0
 30 34  2  0  0  0  0
 30 28  1  0  0  0  0
 31 34  1  0  0  0  0
 32 31  2  0  0  0  0
 33 32  1  0  0  0  0
 33 29  2  0  0  0  0
M  END
>  <MODEL>
1

>  <REMARK>
 VINA RESULT:      -8.7      0.000      0.000
  Name = 
  3 active torsions:
  status: ('A' for Active; 'I' for Inactive)
    1  A    between atoms: C_3  and  C_13
    2  A    between atoms: C_3  and  N_17
    3  A    between atoms: C_12  and  C_28
                            x       y       z     vdW  Elec       q    Type
                         _______ _______ _______ _____ _____    ______ ____

>  <TORSDO>
F 3

$$$$
=
 OpenBabel11062407513D

 34 39  0  0  0  0  0  0  0  0999 V2000
  160.8350  208.0360  154.1980 C   0  0  0  0  0  0  0  0  0  0  0  0
  162.0590  209.9590  153.3530 C   0  0  0  0  0  0  0  0  0  0  0  0
  161.5200  207.9840  151.8470 C   0  0  0  0  0  0  0  0  0  0  0  0
  161.8310  207.8280  149.4500 C   0  0  0  0  0  0  0  0  0  0  0  0
  161.0730  210.0100  155.5700 C   0  0  0  0  0  3  0  0  0  0  0  0
  161.8240  210.6130  154.5670 C   0  0  0  0  0  3  0  0  0  0  0  0
  161.6740  209.9350  150.3380 N   0  0  0  0  0  0  0  0  0  0  0  0
  161.4670  208.6850  153.1000 C   0  0  0  0  0  0  0  0  0  0  0  0
  161.8420  211.5110  148.4720 N   0  0  0  0  0  2  0  0  0  0  0  0
  161.9660  208.7940  148.0840 S   0  0  0  0  0  0  0  0  0  0  0  0
  160.6080  208.7130  155.3970 C   0  0  0  0  0  3  0  0  0  0  0  0
  161.2490  206.5770  151.8250 C   0  0  0  0  0  0  0  0  0  0  0  0
  160.4750  206.6960  154.1230 C   0  0  0  0  0  3  0  0  0  0  0  0
  163.1420  210.5480  152.5140 C   0  0  0  0  0  1  0  0  0  0  0  0
  161.7080  206.4850  149.4630 N   0  0  0  0  0  0  0  0  0  0  0  0
  161.4260  205.8260  150.6230 C   0  0  0  0  0  0  0  0  0  0  0  0
  161.8260  210.1930  149.0170 C   0  0  0  0  0  0  0  0  0  0  0  0
  161.7150  208.6010  150.5890 C   0  0  0  0  0  0  0  0  0  0  0  0
  160.7130  205.9700  152.9670 C   0  0  0  0  0  3  0  0  0  0  0  0
  160.7040  202.3810  149.3400 C   0  0  0  0  0  0  0  0  0  0  0  0
  160.9480  201.5840  150.4600 C   0  0  0  0  0  2  0  0  0  0  0  0
  161.2800  204.3470  150.5590 C   0  0  0  0  0  0  0  0  0  0  0  0
  161.3570  202.1880  151.6480 C   0  0  0  0  0  3  0  0  0  0  0  0
  160.8690  203.7290  149.4140 N   0  0  0  0  0  0  0  0  0  0  0  0
  161.5210  203.5730  151.7030 C   0  0  0  0  0  3  0  0  0  0  0  0
  160.3310  201.8520  148.2620 O   0  0  0  0  0  0  0  0  0  0  0  0
  161.7070  212.6860  149.3180 C   0  0  0  0  0  2  0  0  0  0  0  0
  160.2880  212.7570  151.7990 F   0  0  0  0  0  0  0  0  0  0  0  0
  160.2710  213.0700  149.4200 C   0  0  0  0  0  0  0  0  0  0  0  0
  159.6240  213.1000  150.6660 C   0  0  0  0  0  0  0  0  0  0  0  0
  157.5860  213.8440  149.5890 C   0  0  0  0  0  3  0  0  0  0  0  0
  158.2310  213.8220  148.3490 C   0  0  0  0  0  3  0  0  0  0  0  0
  159.5730  213.4380  148.2660 C   0  0  0  0  0  3  0  0  0  0  0  0
  158.2820  213.4840  150.7460 C   0  0  0  0  0  3  0  0  0  0  0  0
  1 11  2  0  0  0  0
  2  6  1  0  0  0  0
  3  8  1  0  0  0  0
  4 15  2  0  0  0  0
  4 18  1  0  0  0  0
  6  5  2  0  0  0  0
  7 18  1  0  0  0  0
  8  2  2  0  0  0  0
  8  1  1  0  0  0  0
  9 17  1  0  0  0  0
  9 27  1  0  0  0  0
 10 17  1  0  0  0  0
 10  4  1  0  0  0  0
 11  5  1  0  0  0  0
 12  3  1  0  0  0  0
 12 19  1  0  0  0  0
 13  1  1  0  0  0  0
 14  2  1  0  0  0  0
 15 16  1  0  0  0  0
 16 12  2  0  0  0  0
 17  7  2  0  0  0  0
 18  3  2  0  0  0  0
 19 13  2  0  0  0  0
 20 24  1  0  0  0  0
 20 21  1  0  0  0  0
 21 23  1  0  0  0  0
 22 16  1  0  0  0  0
 22 25  1  0  0  0  0
 23 25  2  0  0  0  0
 24 22  2  0  0  0  0
 26 20  2  0  0  0  0
 27 29  1  0  0  0  0
 29 30  1  0  0  0  0
 30 34  2  0  0  0  0
 30 28  1  0  0  0  0
 31 34  1  0  0  0  0
 32 31  2  0  0  0  0
 33 32  1  0  0  0  0
 33 29  2  0  0  0  0
M  END
>  <MODEL>
2

>  <REMARK>
 VINA RESULT:      -8.5      2.725      4.950
  Name = 
  3 active torsions:
  status: ('A' for Active; 'I' for Inactive)
    1  A    between atoms: C_3  and  C_13
    2  A    between atoms: C_3  and  N_17
    3  A    between atoms: C_12  and  C_28
                            x       y       z     vdW  Elec       q    Type
                         _______ _______ _______ _____ _____    ______ ____

>  <TORSDO>
F 3

$$$$
=
 OpenBabel11062407513D

 34 39  0  0  0  0  0  0  0  0999 V2000
  160.1860  212.7870  150.4380 C   0  0  0  0  0  0  0  0  0  0  0  0
  161.7870  210.9840  150.1240 C   0  0  0  0  0  0  0  0  0  0  0  0
  160.4180  211.1640  152.2590 C   0  0  0  0  0  0  0  0  0  0  0  0
  160.2610  209.5430  154.0520 C   0  0  0  0  0  0  0  0  0  0  0  0
  161.2500  212.4810  148.2910 C   0  0  0  0  0  3  0  0  0  0  0  0
  161.9720  211.4090  148.8050 C   0  0  0  0  0  3  0  0  0  0  0  0
  160.9160  208.7570  152.0010 N   0  0  0  0  0  0  0  0  0  0  0  0
  160.7950  211.6030  150.9440 C   0  0  0  0  0  0  0  0  0  0  0  0
  161.2500  206.3420  152.2350 N   0  0  0  0  0  2  0  0  0  0  0  0
  160.4590  207.9040  154.3530 S   0  0  0  0  0  0  0  0  0  0  0  0
  160.3830  213.1870  149.1160 C   0  0  0  0  0  3  0  0  0  0  0  0
  159.7250  212.0720  153.1230 C   0  0  0  0  0  0  0  0  0  0  0  0
  159.4210  213.6020  151.2630 C   0  0  0  0  0  3  0  0  0  0  0  0
  162.8430  210.0720  150.6520 C   0  0  0  0  0  1  0  0  0  0  0  0
  159.7320  210.4480  154.9010 N   0  0  0  0  0  0  0  0  0  0  0  0
  159.4570  211.7150  154.4800 C   0  0  0  0  0  0  0  0  0  0  0  0
  160.9180  207.6290  152.7520 C   0  0  0  0  0  0  0  0  0  0  0  0
  160.5820  209.8450  152.7420 C   0  0  0  0  0  0  0  0  0  0  0  0
  159.2260  213.2680  152.5940 C   0  0  0  0  0  3  0  0  0  0  0  0
  156.9220  213.6350  156.4600 C   0  0  0  0  0  0  0  0  0  0  0  0
  157.7190  214.4530  157.2610 C   0  0  0  0  0  3  0  0  0  0  0  0
  158.8510  212.6520  155.4630 C   0  0  0  0  0  0  0  0  0  0  0  0
  159.1070  214.3690  157.1500 C   0  0  0  0  0  3  0  0  0  0  0  0
  157.4970  212.7660  155.5860 N   0  0  0  0  0  0  0  0  0  0  0  0
  159.6780  213.4700  156.2470 C   0  0  0  0  0  2  0  0  0  0  0  0
  155.6680  213.7020  156.5450 O   0  0  0  0  0  0  0  0  0  0  0  0
  161.6290  206.1570  150.8440 C   0  0  0  0  0  2  0  0  0  0  0  0
  161.2910  205.3980  148.1080 F   0  0  0  0  0  0  0  0  0  0  0  0
  161.3220  204.7610  150.4200 C   0  0  0  0  0  0  0  0  0  0  0  0
  161.1770  204.4400  149.0620 C   0  0  0  0  0  0  0  0  0  0  0  0
  160.7940  202.1210  149.6520 C   0  0  0  0  0  3  0  0  0  0  0  0
  160.9460  202.4390  151.0040 C   0  0  0  0  0  3  0  0  0  0  0  0
  161.2120  203.7570  151.3880 C   0  0  0  0  0  3  0  0  0  0  0  0
  160.9100  203.1210  148.6810 C   0  0  0  0  0  3  0  0  0  0  0  0
  1  8  2  0  0  0  0
  1 13  1  0  0  0  0
  2 14  1  0  0  0  0
  2  8  1  0  0  0  0
  3 18  2  0  0  0  0
  3 12  1  0  0  0  0
  4 10  1  0  0  0  0
  4 15  2  0  0  0  0
  5  6  1  0  0  0  0
  5 11  2  0  0  0  0
  6  2  2  0  0  0  0
  7 18  1  0  0  0  0
  7 17  2  0  0  0  0
  8  3  1  0  0  0  0
  9 17  1  0  0  0  0
 11  1  1  0  0  0  0
 12 16  2  0  0  0  0
 13 19  2  0  0  0  0
 16 15  1  0  0  0  0
 16 22  1  0  0  0  0
 17 10  1  0  0  0  0
 18  4  1  0  0  0  0
 19 12  1  0  0  0  0
 20 26  2  0  0  0  0
 20 21  1  0  0  0  0
 22 24  2  0  0  0  0
 22 25  1  0  0  0  0
 23 21  2  0  0  0  0
 24 20  1  0  0  0  0
 25 23  1  0  0  0  0
 27  9  1  0  0  0  0
 28 30  1  0  0  0  0
 29 27  1  0  0  0  0
 29 33  1  0  0  0  0
 30 29  2  0  0  0  0
 31 32  1  0  0  0  0
 32 33  2  0  0  0  0
 34 30  1  0  0  0  0
 34 31  2  0  0  0  0
M  END
>  <MODEL>
3

>  <REMARK>
 VINA RESULT:      -8.3      3.813      8.629
  Name = 
  3 active torsions:
  status: ('A' for Active; 'I' for Inactive)
    1  A    between atoms: C_3  and  C_13
    2  A    between atoms: C_3  and  N_17
    3  A    between atoms: C_12  and  C_28
                            x       y       z     vdW  Elec       q    Type
                         _______ _______ _______ _____ _____    ______ ____

>  <TORSDO>
F 3

$$$$
=
 OpenBabel11062407513D

 34 39  0  0  0  0  0  0  0  0999 V2000
  161.2020  204.2640  152.3860 C   0  0  0  0  0  0  0  0  0  0  0  0
  160.8080  203.6030  150.0790 C   0  0  0  0  0  0  0  0  0  0  0  0
  161.2400  206.0320  150.6920 C   0  0  0  0  0  0  0  0  0  0  0  0
  161.6090  207.8910  149.1820 C   0  0  0  0  0  0  0  0  0  0  0  0
  161.0880  201.9210  151.8070 C   0  0  0  0  0  3  0  0  0  0  0  0
  160.8400  202.2640  150.4820 C   0  0  0  0  0  3  0  0  0  0  0  0
  162.0330  205.7930  148.3630 N   0  0  0  0  0  0  0  0  0  0  0  0
  161.1040  204.6400  151.0160 C   0  0  0  0  0  0  0  0  0  0  0  0
  162.8230  206.0700  146.0620 N   0  0  0  0  0  2  0  0  0  0  0  0
  162.1280  208.2240  147.6210 S   0  0  0  0  0  0  0  0  0  0  0  0
  161.2360  202.9200  152.7610 C   0  0  0  0  0  3  0  0  0  0  0  0
  161.1370  207.0040  151.7390 C   0  0  0  0  0  0  0  0  0  0  0  0
  161.2140  205.2250  153.3890 C   0  0  0  0  0  3  0  0  0  0  0  0
  160.2040  203.8490  148.7390 C   0  0  0  0  0  1  0  0  0  0  0  0
  161.3760  208.7990  150.1520 N   0  0  0  0  0  0  0  0  0  0  0  0
  161.1320  208.3990  151.4310 C   0  0  0  0  0  0  0  0  0  0  0  0
  162.3430  206.5800  147.3050 C   0  0  0  0  0  0  0  0  0  0  0  0
  161.5830  206.5280  149.4110 C   0  0  0  0  0  0  0  0  0  0  0  0
  161.1450  206.5720  153.0710 C   0  0  0  0  0  3  0  0  0  0  0  0
  161.5810  210.5730  154.4500 C   0  0  0  0  0  0  0  0  0  0  0  0
  160.4530  211.3940  154.4010 C   0  0  0  0  0  3  0  0  0  0  0  0
  160.9080  209.4560  152.4540 C   0  0  0  0  0  0  0  0  0  0  0  0
  159.5380  211.2330  153.3620 C   0  0  0  0  0  3  0  0  0  0  0  0
  161.7790  209.6300  153.4890 N   0  0  0  0  0  0  0  0  0  0  0  0
  159.7600  210.2600  152.3860 C   0  0  0  0  0  2  0  0  0  0  0  0
  162.4140  210.7030  155.3830 O   0  0  0  0  0  0  0  0  0  0  0  0
  163.0010  204.6440  145.8420 C   0  0  0  0  0  2  0  0  0  0  0  0
  161.1590  206.0090  144.1320 F   0  0  0  0  0  0  0  0  0  0  0  0
  161.7160  204.0420  145.3880 C   0  0  0  0  0  0  0  0  0  0  0  0
  160.8520  204.7510  144.5380 C   0  0  0  0  0  0  0  0  0  0  0  0
  159.3310  202.8650  144.5110 C   0  0  0  0  0  3  0  0  0  0  0  0
  160.1940  202.1550  145.3500 C   0  0  0  0  0  3  0  0  0  0  0  0
  161.3860  202.7420  145.7860 C   0  0  0  0  0  3  0  0  0  0  0  0
  159.6600  204.1610  144.1050 C   0  0  0  0  0  3  0  0  0  0  0  0
  1 11  1  0  0  0  0
  1 13  1  0  0  0  0
  2  6  2  0  0  0  0
  2  8  1  0  0  0  0
  3  8  1  0  0  0  0
  3 12  1  0  0  0  0
  4 18  1  0  0  0  0
  4 15  2  0  0  0  0
  5 11  2  0  0  0  0
  6  5  1  0  0  0  0
  7 18  1  0  0  0  0
  8  1  2  0  0  0  0
  9 17  1  0  0  0  0
 10  4  1  0  0  0  0
 12 19  1  0  0  0  0
 14  2  1  0  0  0  0
 15 16  1  0  0  0  0
 16 12  2  0  0  0  0
 16 22  1  0  0  0  0
 17 10  1  0  0  0  0
 17  7  2  0  0  0  0
 18  3  2  0  0  0  0
 19 13  2  0  0  0  0
 20 26  2  0  0  0  0
 21 20  1  0  0  0  0
 22 24  2  0  0  0  0
 23 21  2  0  0  0  0
 24 20  1  0  0  0  0
 25 22  1  0  0  0  0
 25 23  1  0  0  0  0
 27  9  1  0  0  0  0
 28 30  1  0  0  0  0
 29 33  1  0  0  0  0
 29 27  1  0  0  0  0
 30 29  2  0  0  0  0
 31 32  1  0  0  0  0
 32 33  2  0  0  0  0
 34 31  2  0  0  0  0
 34 30  1  0  0  0  0
M  END
>  <MODEL>
4

>  <REMARK>
 VINA RESULT:      -7.9      4.026      9.306
  Name = 
  3 active torsions:
  status: ('A' for Active; 'I' for Inactive)
    1  A    between atoms: C_3  and  C_13
    2  A    between atoms: C_3  and  N_17
    3  A    between atoms: C_12  and  C_28
                            x       y       z     vdW  Elec       q    Type
                         _______ _______ _______ _____ _____    ______ ____

>  <TORSDO>
F 3

$$$$
=
 OpenBabel11062407513D

 34 39  0  0  0  0  0  0  0  0999 V2000
  161.1930  204.1800  152.4150 C   0  0  0  0  0  0  0  0  0  0  0  0
  160.7990  203.5690  150.0950 C   0  0  0  0  0  0  0  0  0  0  0  0
  161.2300  205.9850  150.7600 C   0  0  0  0  0  0  0  0  0  0  0  0
  161.5980  207.8760  149.2910 C   0  0  0  0  0  0  0  0  0  0  0  0
  161.0800  201.8500  151.7850 C   0  0  0  0  0  3  0  0  0  0  0  0
  160.8320  202.2220  150.4680 C   0  0  0  0  0  3  0  0  0  0  0  0
  162.0220  205.7960  148.4260 N   0  0  0  0  0  0  0  0  0  0  0  0
  161.0950  204.5860  151.0540 C   0  0  0  0  0  0  0  0  0  0  0  0
  162.8110  206.1240  146.1310 N   0  0  0  0  0  2  0  0  0  0  0  0
  162.1160  208.2430  147.7370 S   0  0  0  0  0  0  0  0  0  0  0  0
  161.2290  202.8280  152.7610 C   0  0  0  0  0  3  0  0  0  0  0  0
  161.1280  206.9330  151.8280 C   0  0  0  0  0  0  0  0  0  0  0  0
  161.2060  205.1190  153.4390 C   0  0  0  0  0  3  0  0  0  0  0  0
  160.1940  203.8440  148.7600 C   0  0  0  0  0  1  0  0  0  0  0  0
  161.3650  208.7630  150.2800 N   0  0  0  0  0  0  0  0  0  0  0  0
  161.1210  208.3350  151.5510 C   0  0  0  0  0  0  0  0  0  0  0  0
  162.3310  206.6060  147.3850 C   0  0  0  0  0  0  0  0  0  0  0  0
  161.5720  206.5090  149.4900 C   0  0  0  0  0  0  0  0  0  0  0  0
  161.1360  206.4730  153.1500 C   0  0  0  0  0  3  0  0  0  0  0  0
  159.4880  210.9940  153.6240 C   0  0  0  0  0  0  0  0  0  0  0  0
  160.5010  211.3490  154.5140 C   0  0  0  0  0  3  0  0  0  0  0  0
  160.8970  209.3690  152.5960 C   0  0  0  0  0  0  0  0  0  0  0  0
  161.7340  210.7030  154.4340 C   0  0  0  0  0  3  0  0  0  0  0  0
  159.7060  210.0270  152.6920 N   0  0  0  0  0  0  0  0  0  0  0  0
  161.9380  209.7130  153.4710 C   0  0  0  0  0  2  0  0  0  0  0  0
  158.3710  211.5700  153.6800 O   0  0  0  0  0  0  0  0  0  0  0  0
  162.9890  204.7030  145.8800 C   0  0  0  0  0  2  0  0  0  0  0  0
  162.0620  202.1080  146.6400 F   0  0  0  0  0  0  0  0  0  0  0  0
  161.7140  204.1170  145.3770 C   0  0  0  0  0  0  0  0  0  0  0  0
  161.2990  202.8420  145.7910 C   0  0  0  0  0  0  0  0  0  0  0  0
  159.2910  203.0620  144.4540 C   0  0  0  0  0  3  0  0  0  0  0  0
  159.6990  204.3350  144.0480 C   0  0  0  0  0  3  0  0  0  0  0  0
  160.9080  204.8630  144.5110 C   0  0  0  0  0  3  0  0  0  0  0  0
  160.0900  202.3170  145.3260 C   0  0  0  0  0  3  0  0  0  0  0  0
  1 11  1  0  0  0  0
  1 13  1  0  0  0  0
  2  6  2  0  0  0  0
  2  8  1  0  0  0  0
  3  8  1  0  0  0  0
  3 12  1  0  0  0  0
  4 18  1  0  0  0  0
  4 15  2  0  0  0  0
  5 11  2  0  0  0  0
  6  5  1  0  0  0  0
  7 18  1  0  0  0  0
  8  1  2  0  0  0  0
  9 17  1  0  0  0  0
 10  4  1  0  0  0  0
 12 19  1  0  0  0  0
 14  2  1  0  0  0  0
 15 16  1  0  0  0  0
 16 12  2  0  0  0  0
 16 22  1  0  0  0  0
 17 10  1  0  0  0  0
 17  7  2  0  0  0  0
 18  3  2  0  0  0  0
 19 13  2  0  0  0  0
 20 26  2  0  0  0  0
 20 21  1  0  0  0  0
 22 24  2  0  0  0  0
 22 25  1  0  0  0  0
 23 21  2  0  0  0  0
 24 20  1  0  0  0  0
 25 23  1  0  0  0  0
 27  9  1  0  0  0  0
 29 30  1  0  0  0  0
 29 27  1  0  0  0  0
 30 28  1  0  0  0  0
 31 34  1  0  0  0  0
 32 31  2  0  0  0  0
 32 33  1  0  0  0  0
 33 29  2  0  0  0  0
 34 30  2  0  0  0  0
M  END
>  <MODEL>
5

>  <REMARK>
 VINA RESULT:      -7.5      4.070      9.290
  Name = 
  3 active torsions:
  status: ('A' for Active; 'I' for Inactive)
    1  A    between atoms: C_3  and  C_13
    2  A    between atoms: C_3  and  N_17
    3  A    between atoms: C_12  and  C_28
                            x       y       z     vdW  Elec       q    Type
                         _______ _______ _______ _____ _____    ______ ____

>  <TORSDO>
F 3

$$$$
=
 OpenBabel11062407513D

 34 39  0  0  0  0  0  0  0  0999 V2000
  160.4650  212.9040  149.9250 C   0  0  0  0  0  0  0  0  0  0  0  0
  161.9450  211.4820  148.6220 C   0  0  0  0  0  0  0  0  0  0  0  0
  161.1460  210.7760  150.9290 C   0  0  0  0  0  0  0  0  0  0  0  0
  161.4430  208.6220  151.9990 C   0  0  0  0  0  0  0  0  0  0  0  0
  160.9660  213.4690  147.6300 C   0  0  0  0  0  3  0  0  0  0  0  0
  161.7970  212.3570  147.5410 C   0  0  0  0  0  3  0  0  0  0  0  0
  161.5740  208.6690  149.7110 N   0  0  0  0  0  0  0  0  0  0  0  0
  161.1850  211.6800  149.8140 C   0  0  0  0  0  0  0  0  0  0  0  0
  161.9640  206.3670  148.9710 N   0  0  0  0  0  2  0  0  0  0  0  0
  161.7150  207.0070  151.6320 S   0  0  0  0  0  0  0  0  0  0  0  0
  160.3270  213.7580  148.8300 C   0  0  0  0  0  3  0  0  0  0  0  0
  160.6840  211.2550  152.1980 C   0  0  0  0  0  0  0  0  0  0  0  0
  159.9250  213.3040  151.1400 C   0  0  0  0  0  3  0  0  0  0  0  0
  163.1020  210.5460  148.5260 C   0  0  0  0  0  1  0  0  0  0  0  0
  161.1370  209.1200  153.2140 N   0  0  0  0  0  0  0  0  0  0  0  0
  160.7620  210.4220  153.3560 C   0  0  0  0  0  0  0  0  0  0  0  0
  161.7650  207.3550  149.9800 C   0  0  0  0  0  0  0  0  0  0  0  0
  161.4300  209.3920  150.8510 C   0  0  0  0  0  0  0  0  0  0  0  0
  160.0660  212.5090  152.2670 C   0  0  0  0  0  3  0  0  0  0  0  0
  158.7730  211.4700  156.3530 C   0  0  0  0  0  0  0  0  0  0  0  0
  159.7660  211.8420  157.2600 C   0  0  0  0  0  3  0  0  0  0  0  0
  160.4150  210.8960  154.7230 C   0  0  0  0  0  0  0  0  0  0  0  0
  161.1040  211.7420  156.8830 C   0  0  0  0  0  3  0  0  0  0  0  0
  159.1140  211.0150  155.1170 N   0  0  0  0  0  0  0  0  0  0  0  0
  161.4340  211.2730  155.6100 C   0  0  0  0  0  2  0  0  0  0  0  0
  157.5610  211.5580  156.6770 O   0  0  0  0  0  0  0  0  0  0  0  0
  161.9880  206.7160  147.5600 C   0  0  0  0  0  2  0  0  0  0  0  0
  160.4540  206.9550  145.1590 F   0  0  0  0  0  0  0  0  0  0  0  0
  161.5700  205.5410  146.7440 C   0  0  0  0  0  0  0  0  0  0  0  0
  160.8260  205.7150  145.5660 C   0  0  0  0  0  0  0  0  0  0  0  0
  160.8400  203.3200  145.2050 C   0  0  0  0  0  3  0  0  0  0  0  0
  161.5870  203.1460  146.3730 C   0  0  0  0  0  3  0  0  0  0  0  0
  161.9530  204.2560  147.1400 C   0  0  0  0  0  3  0  0  0  0  0  0
  160.4600  204.6030  144.8010 C   0  0  0  0  0  3  0  0  0  0  0  0
  1 13  1  0  0  0  0
  2  8  1  0  0  0  0
  3 12  1  0  0  0  0
  4 15  2  0  0  0  0
  5 11  2  0  0  0  0
  6  5  1  0  0  0  0
  6  2  2  0  0  0  0
  7 17  2  0  0  0  0
  7 18  1  0  0  0  0
  8  1  2  0  0  0  0
  8  3  1  0  0  0  0
  9 17  1  0  0  0  0
 10  4  1  0  0  0  0
 11  1  1  0  0  0  0
 12 19  1  0  0  0  0
 12 16  2  0  0  0  0
 13 19  2  0  0  0  0
 14  2  1  0  0  0  0
 15 16  1  0  0  0  0
 16 22  1  0  0  0  0
 17 10  1  0  0  0  0
 18  3  2  0  0  0  0
 18  4  1  0  0  0  0
 20 26  2  0  0  0  0
 20 21  1  0  0  0  0
 22 24  2  0  0  0  0
 22 25  1  0  0  0  0
 23 21  2  0  0  0  0
 24 20  1  0  0  0  0
 25 23  1  0  0  0  0
 27  9  1  0  0  0  0
 28 30  1  0  0  0  0
 29 33  1  0  0  0  0
 29 27  1  0  0  0  0
 30 29  2  0  0  0  0
 31 32  1  0  0  0  0
 32 33  2  0  0  0  0
 34 31  2  0  0  0  0
 34 30  1  0  0  0  0
M  END
>  <MODEL>
6

>  <REMARK>
 VINA RESULT:      -7.2      3.867      8.699
  Name = 
  3 active torsions:
  status: ('A' for Active; 'I' for Inactive)
    1  A    between atoms: C_3  and  C_13
    2  A    between atoms: C_3  and  N_17
    3  A    between atoms: C_12  and  C_28
                            x       y       z     vdW  Elec       q    Type
                         _______ _______ _______ _____ _____    ______ ____

>  <TORSDO>
F 3

$$$$
=
 OpenBabel11062407513D

 34 39  0  0  0  0  0  0  0  0999 V2000
  160.9350  206.9260  152.9780 C   0  0  0  0  0  0  0  0  0  0  0  0
  161.7290  209.1990  153.3170 C   0  0  0  0  0  0  0  0  0  0  0  0
  161.5020  208.2240  150.9800 C   0  0  0  0  0  0  0  0  0  0  0  0
  161.7200  209.3900  148.8680 C   0  0  0  0  0  0  0  0  0  0  0  0
  160.8600  207.9120  155.1830 C   0  0  0  0  0  3  0  0  0  0  0  0
  161.4330  209.0750  154.6780 C   0  0  0  0  0  3  0  0  0  0  0  0
  161.2090  210.6620  150.7040 N   0  0  0  0  0  0  0  0  0  0  0  0
  161.3780  208.1530  152.4090 C   0  0  0  0  0  0  0  0  0  0  0  0
  160.9820  212.9750  149.9300 N   0  0  0  0  0  2  0  0  0  0  0  0
  161.6020  210.9270  148.2050 S   0  0  0  0  0  0  0  0  0  0  0  0
  160.6420  206.8290  154.3390 C   0  0  0  0  0  3  0  0  0  0  0  0
  161.5020  207.0090  150.2210 C   0  0  0  0  0  0  0  0  0  0  0  0
  160.8330  205.7770  152.2030 C   0  0  0  0  0  3  0  0  0  0  0  0
  162.6370  210.3270  152.9650 C   0  0  0  0  0  1  0  0  0  0  0  0
  161.8550  208.2370  148.1800 N   0  0  0  0  0  0  0  0  0  0  0  0
  161.7600  207.0360  148.8160 C   0  0  0  0  0  0  0  0  0  0  0  0
  161.2440  211.5890  149.7170 C   0  0  0  0  0  0  0  0  0  0  0  0
  161.5140  209.4260  150.2340 C   0  0  0  0  0  0  0  0  0  0  0  0
  161.1480  205.8110  150.8540 C   0  0  0  0  0  3  0  0  0  0  0  0
  161.5820  203.4580  147.7190 C   0  0  0  0  0  0  0  0  0  0  0  0
  162.2050  203.4930  146.4710 C   0  0  0  0  0  2  0  0  0  0  0  0
  161.8950  205.8060  147.9910 C   0  0  0  0  0  0  0  0  0  0  0  0
  162.6850  204.7080  145.9840 C   0  0  0  0  0  3  0  0  0  0  0  0
  161.4460  204.6000  148.4450 N   0  0  0  0  0  0  0  0  0  0  0  0
  162.5350  205.8690  146.7450 C   0  0  0  0  0  3  0  0  0  0  0  0
  161.1470  202.3690  148.1740 O   0  0  0  0  0  0  0  0  0  0  0  0
  160.6680  213.4940  151.2510 C   0  0  0  0  0  2  0  0  0  0  0  0
  159.2500  213.0190  153.6880 F   0  0  0  0  0  0  0  0  0  0  0  0
  159.1950  213.6790  151.3820 C   0  0  0  0  0  0  0  0  0  0  0  0
  158.5490  213.4420  152.6060 C   0  0  0  0  0  0  0  0  0  0  0  0
  156.4340  214.0810  151.6120 C   0  0  0  0  0  3  0  0  0  0  0  0
  157.0770  214.3250  150.3960 C   0  0  0  0  0  3  0  0  0  0  0  0
  158.4570  214.1260  150.2820 C   0  0  0  0  0  3  0  0  0  0  0  0
  157.1700  213.6410  152.7170 C   0  0  0  0  0  3  0  0  0  0  0  0
  1 11  2  0  0  0  0
  2  6  1  0  0  0  0
  3  8  1  0  0  0  0
  4 18  2  0  0  0  0
  6  5  2  0  0  0  0
  8  1  1  0  0  0  0
  8  2  2  0  0  0  0
  9 27  1  0  0  0  0
 10  4  1  0  0  0  0
 10 17  1  0  0  0  0
 11  5  1  0  0  0  0
 12 19  1  0  0  0  0
 12  3  2  0  0  0  0
 13  1  1  0  0  0  0
 14  2  1  0  0  0  0
 15 16  2  0  0  0  0
 15  4  1  0  0  0  0
 16 12  1  0  0  0  0
 17  9  1  0  0  0  0
 17  7  2  0  0  0  0
 18  7  1  0  0  0  0
 18  3  1  0  0  0  0
 19 13  2  0  0  0  0
 20 26  2  0  0  0  0
 20 24  1  0  0  0  0
 21 20  1  0  0  0  0
 22 24  2  0  0  0  0
 22 16  1  0  0  0  0
 23 21  1  0  0  0  0
 23 25  2  0  0  0  0
 25 22  1  0  0  0  0
 27 29  1  0  0  0  0
 29 30  1  0  0  0  0
 30 34  2  0  0  0  0
 30 28  1  0  0  0  0
 31 34  1  0  0  0  0
 32 31  2  0  0  0  0
 33 32  1  0  0  0  0
 33 29  2  0  0  0  0
M  END
>  <MODEL>
7

>  <REMARK>
 VINA RESULT:      -7.0      3.019      4.738
  Name = 
  3 active torsions:
  status: ('A' for Active; 'I' for Inactive)
    1  A    between atoms: C_3  and  C_13
    2  A    between atoms: C_3  and  N_17
    3  A    between atoms: C_12  and  C_28
                            x       y       z     vdW  Elec       q    Type
                         _______ _______ _______ _____ _____    ______ ____

>  <TORSDO>
F 3

$$$$
=
 OpenBabel11062407513D

 34 39  0  0  0  0  0  0  0  0999 V2000
  160.9400  205.6920  153.4450 C   0  0  0  0  0  0  0  0  0  0  0  0
  160.7380  205.1370  151.0870 C   0  0  0  0  0  0  0  0  0  0  0  0
  161.0710  207.5410  151.8440 C   0  0  0  0  0  0  0  0  0  0  0  0
  161.5150  209.4770  150.4570 C   0  0  0  0  0  0  0  0  0  0  0  0
  160.9200  203.3780  152.7500 C   0  0  0  0  0  3  0  0  0  0  0  0
  160.7670  203.7810  151.4270 C   0  0  0  0  0  3  0  0  0  0  0  0
  162.0440  207.4280  149.5750 N   0  0  0  0  0  0  0  0  0  0  0  0
  160.9390  206.1320  152.0910 C   0  0  0  0  0  0  0  0  0  0  0  0
  163.0020  207.8310  147.3570 N   0  0  0  0  0  2  0  0  0  0  0  0
  162.1450  209.8940  148.9580 S   0  0  0  0  0  0  0  0  0  0  0  0
  160.9740  204.3320  153.7580 C   0  0  0  0  0  3  0  0  0  0  0  0
  160.8680  208.4590  152.9250 C   0  0  0  0  0  0  0  0  0  0  0  0
  160.8560  206.6030  154.4900 C   0  0  0  0  0  3  0  0  0  0  0  0
  160.2330  205.4370  149.7160 C   0  0  0  0  0  1  0  0  0  0  0  0
  161.1900  210.3330  151.4470 N   0  0  0  0  0  0  0  0  0  0  0  0
  160.8570  209.8670  152.6840 C   0  0  0  0  0  0  0  0  0  0  0  0
  162.4170  208.2710  148.5820 C   0  0  0  0  0  0  0  0  0  0  0  0
  161.5000  208.1040  150.6190 C   0  0  0  0  0  0  0  0  0  0  0  0
  160.7830  207.9630  154.2310 C   0  0  0  0  0  3  0  0  0  0  0  0
  159.2710  212.7530  154.4720 C   0  0  0  0  0  0  0  0  0  0  0  0
  159.9720  212.7830  155.6780 C   0  0  0  0  0  3  0  0  0  0  0  0
  160.5330  210.8690  153.7340 C   0  0  0  0  0  0  0  0  0  0  0  0
  160.9740  211.8400  155.9070 C   0  0  0  0  0  3  0  0  0  0  0  0
  159.5670  211.8110  153.5350 N   0  0  0  0  0  0  0  0  0  0  0  0
  161.2610  210.8820  154.9330 C   0  0  0  0  0  2  0  0  0  0  0  0
  158.3670  213.5980  154.2480 O   0  0  0  0  0  0  0  0  0  0  0  0
  163.2250  206.4200  147.0850 C   0  0  0  0  0  2  0  0  0  0  0  0
  163.5410  204.1300  145.4040 F   0  0  0  0  0  0  0  0  0  0  0  0
  162.1360  205.8970  146.2140 C   0  0  0  0  0  0  0  0  0  0  0  0
  162.3400  204.7610  145.4150 C   0  0  0  0  0  0  0  0  0  0  0  0
  160.0550  204.9080  144.6230 C   0  0  0  0  0  3  0  0  0  0  0  0
  159.8480  206.0350  145.4230 C   0  0  0  0  0  3  0  0  0  0  0  0
  160.8870  206.5270  146.2190 C   0  0  0  0  0  3  0  0  0  0  0  0
  161.3000  204.2710  144.6190 C   0  0  0  0  0  3  0  0  0  0  0  0
  1 11  1  0  0  0  0
  1 13  1  0  0  0  0
  2  6  2  0  0  0  0
  2  8  1  0  0  0  0
  3  8  1  0  0  0  0
  3 12  1  0  0  0  0
  4 18  1  0  0  0  0
  4 15  2  0  0  0  0
  5 11  2  0  0  0  0
  6  5  1  0  0  0  0
  7 18  1  0  0  0  0
  8  1  2  0  0  0  0
  9 17  1  0  0  0  0
 10  4  1  0  0  0  0
 12 19  1  0  0  0  0
 14  2  1  0  0  0  0
 15 16  1  0  0  0  0
 16 12  2  0  0  0  0
 16 22  1  0  0  0  0
 17 10  1  0  0  0  0
 17  7  2  0  0  0  0
 18  3  2  0  0  0  0
 19 13  2  0  0  0  0
 20 21  1  0  0  0  0
 21 23  2  0  0  0  0
 22 25  1  0  0  0  0
 24 22  2  0  0  0  0
 24 20  1  0  0  0  0
 25 23  1  0  0  0  0
 26 20  2  0  0  0  0
 27  9  1  0  0  0  0
 28 30  1  0  0  0  0
 29 33  1  0  0  0  0
 29 27  1  0  0  0  0
 30 29  2  0  0  0  0
 31 32  1  0  0  0  0
 32 33  2  0  0  0  0
 34 31  2  0  0  0  0
 34 30  1  0  0  0  0
M  END
>  <MODEL>
8

>  <REMARK>
 VINA RESULT:      -6.3      4.242      9.074
  Name = 
  3 active torsions:
  status: ('A' for Active; 'I' for Inactive)
    1  A    between atoms: C_3  and  C_13
    2  A    between atoms: C_3  and  N_17
    3  A    between atoms: C_12  and  C_28
                            x       y       z     vdW  Elec       q    Type
                         _______ _______ _______ _____ _____    ______ ____

>  <TORSDO>
F 3

$$$$
=
 OpenBabel11062407513D

 34 39  0  0  0  0  0  0  0  0999 V2000
  161.6500  207.5560  150.0940 C   0  0  0  0  0  0  0  0  0  0  0  0
  161.6000  207.9110  152.4980 C   0  0  0  0  0  0  0  0  0  0  0  0
  161.2070  209.8320  150.8810 C   0  0  0  0  0  0  0  0  0  0  0  0
  160.4720  212.0800  151.4100 C   0  0  0  0  0  0  0  0  0  0  0  0
  161.7360  205.6630  151.5930 C   0  0  0  0  0  3  0  0  0  0  0  0
  161.7000  206.5280  152.6810 C   0  0  0  0  0  3  0  0  0  0  0  0
  159.9740  210.4420  152.9340 N   0  0  0  0  0  0  0  0  0  0  0  0
  161.4580  208.4510  151.1840 C   0  0  0  0  0  0  0  0  0  0  0  0
  158.7300  211.5130  154.7510 N   0  0  0  0  0  2  0  0  0  0  0  0
  159.6400  212.9400  152.5860 S   0  0  0  0  0  0  0  0  0  0  0  0
  161.7430  206.1790  150.3030 C   0  0  0  0  0  3  0  0  0  0  0  0
  161.4790  210.3160  149.5600 C   0  0  0  0  0  0  0  0  0  0  0  0
  161.8020  208.0330  148.7980 C   0  0  0  0  0  3  0  0  0  0  0  0
  161.9140  208.7360  153.7000 C   0  0  0  0  0  1  0  0  0  0  0  0
  160.8590  212.5510  150.2070 N   0  0  0  0  0  0  0  0  0  0  0  0
  161.3700  211.7090  149.2640 C   0  0  0  0  0  0  0  0  0  0  0  0
  159.4290  211.5420  153.5080 C   0  0  0  0  0  0  0  0  0  0  0  0
  160.5960  210.7510  151.7680 C   0  0  0  0  0  0  0  0  0  0  0  0
  161.7550  209.3950  148.5420 C   0  0  0  0  0  3  0  0  0  0  0  0
  161.1690  212.9550  145.7360 C   0  0  0  0  0  0  0  0  0  0  0  0
  162.4860  213.3320  145.4730 C   0  0  0  0  0  2  0  0  0  0  0  0
  161.7530  212.2940  147.9510 C   0  0  0  0  0  0  0  0  0  0  0  0
  163.4500  213.1780  146.4690 C   0  0  0  0  0  3  0  0  0  0  0  0
  160.8360  212.4460  146.9530 N   0  0  0  0  0  0  0  0  0  0  0  0
  163.0870  212.6540  147.7110 C   0  0  0  0  0  3  0  0  0  0  0  0
  160.2890  213.0830  144.8470 O   0  0  0  0  0  0  0  0  0  0  0  0
  158.5670  210.2800  155.5040 C   0  0  0  0  0  2  0  0  0  0  0  0
  159.2900  207.5690  156.0510 F   0  0  0  0  0  0  0  0  0  0  0  0
  159.8640  209.8970  156.1290 C   0  0  0  0  0  0  0  0  0  0  0  0
  160.1750  208.5480  156.3660 C   0  0  0  0  0  0  0  0  0  0  0  0
  162.3290  209.2030  157.2610 C   0  0  0  0  0  3  0  0  0  0  0  0
  162.0240  210.5450  157.0180 C   0  0  0  0  0  3  0  0  0  0  0  0
  160.7940  210.8910  156.4510 C   0  0  0  0  0  3  0  0  0  0  0  0
  161.4060  208.2060  156.9350 C   0  0  0  0  0  3  0  0  0  0  0  0
  1 11  2  0  0  0  0
  1  8  1  0  0  0  0
  2  6  1  0  0  0  0
  2 14  1  0  0  0  0
  3  8  1  0  0  0  0
  3 18  1  0  0  0  0
  4 18  2  0  0  0  0
  4 10  1  0  0  0  0
  5  6  2  0  0  0  0
  7 17  2  0  0  0  0
  8  2  2  0  0  0  0
  9 27  1  0  0  0  0
 10 17  1  0  0  0  0
 11  5  1  0  0  0  0
 12  3  2  0  0  0  0
 13  1  1  0  0  0  0
 15  4  1  0  0  0  0
 16 12  1  0  0  0  0
 16 15  2  0  0  0  0
 17  9  1  0  0  0  0
 18  7  1  0  0  0  0
 19 13  2  0  0  0  0
 19 12  1  0  0  0  0
 20 24  1  0  0  0  0
 21 20  1  0  0  0  0
 21 23  1  0  0  0  0
 22 16  1  0  0  0  0
 23 25  2  0  0  0  0
 24 22  2  0  0  0  0
 25 22  1  0  0  0  0
 26 20  2  0  0  0  0
 27 29  1  0  0  0  0
 28 30  1  0  0  0  0
 29 30  2  0  0  0  0
 29 33  1  0  0  0  0
 30 34  1  0  0  0  0
 32 31  1  0  0  0  0
 33 32  2  0  0  0  0
 34 31  2  0  0  0  0
M  END
>  <MODEL>
9

>  <REMARK>
 VINA RESULT:      -6.3      3.456      6.149
  Name = 
  3 active torsions:
  status: ('A' for Active; 'I' for Inactive)
    1  A    between atoms: C_3  and  C_13
    2  A    between atoms: C_3  and  N_17
    3  A    between atoms: C_12  and  C_28
                            x       y       z     vdW  Elec       q    Type
                         _______ _______ _______ _____ _____    ______ ____

>  <TORSDO>
F 3

$$$$
