=
 OpenBabel11052421483D

 30 32  0  0  1  0  0  0  0  0999 V2000
  161.9420  209.9930  149.2600 C   0  0  1  0  0  3  0  0  0  0  0  0
  162.3740  210.5530  150.4970 O   0  0  0  0  0  0  0  0  0  0  0  0
  162.6970  210.5260  148.2300 F   0  0  0  0  0  0  0  0  0  0  0  0
  161.3240  207.8850  150.5140 C   0  0  2  0  0  3  0  0  0  0  0  0
  162.1420  209.9150  151.7170 C   0  0  0  0  0  3  0  0  0  0  0  0
  162.0580  208.4670  149.2760 C   0  0  1  0  0  3  0  0  0  0  0  0
  161.6660  208.6720  151.7600 C   0  0  0  0  0  3  0  0  0  0  0  0
  161.0540  204.5510  153.3860 C   0  0  0  0  0  3  0  0  0  0  0  0
  160.6690  203.7150  152.4160 C   0  0  0  0  0  3  0  0  0  0  0  0
  161.5730  205.8310  153.1470 O   0  0  0  0  0  0  0  0  0  0  0  0
  160.6250  203.2140  149.9940 C   0  0  0  0  0  3  0  0  0  0  0  0
  160.3490  205.5370  150.6550 C   0  0  0  0  0  2  0  0  0  0  0  0
  162.4120  206.1140  152.0270 C   0  0  0  0  0  2  0  0  0  0  0  0
  160.5840  204.1010  150.9950 C   0  0  0  0  0  0  0  0  0  0  0  0
  161.6240  206.3820  150.7310 C   0  0  2  0  0  3  0  0  0  0  0  0
  161.8790  201.2550  150.5440 O   0  0  0  0  0  1  0  0  0  0  0  0
  160.8060  201.7560  150.1160 C   0  0  0  0  0  0  0  0  0  0  0  0
  159.7640  200.9170  149.7470 O   0  0  0  0  0  0  0  0  0  0  0  0
  161.4590  207.9430  147.9810 C   0  0  0  0  0  2  0  0  0  0  0  0
  162.2510  206.7440  147.5000 C   0  0  0  0  0  2  0  0  0  0  0  0
  161.3050  205.5790  147.2840 C   0  0  0  0  0  2  0  0  0  0  0  0
  161.3350  203.8140  145.3450 C   0  0  2  0  0  3  0  0  0  0  0  0
  162.4130  204.7250  145.2870 O   0  0  0  0  0  0  0  0  0  0  0  0
  161.2040  205.2230  145.8030 C   0  0  2  0  0  0  0  0  0  0  0  0
  160.5430  206.1920  144.8430 C   0  0  0  0  0  1  0  0  0  0  0  0
  161.5820  202.8230  146.4750 C   0  0  0  0  0  2  0  0  0  0  0  0
  160.5850  201.6780  146.4080 C   0  0  2  0  0  3  0  0  0  0  0  0
  161.3130  200.3760  146.6760 C   0  0  0  0  0  1  0  0  0  0  0  0
  160.0530  200.2820  144.7730 C   0  0  0  0  0  1  0  0  0  0  0  0
  160.0010  201.6280  145.1400 O   0  0  0  0  0  0  0  0  0  0  0  0
  1  3  1  6  0  0  0
  1  6  1  0  0  0  0
  1  2  1  0  0  0  0
  2  5  1  0  0  0  0
  4 15  1  0  0  0  0
  4  7  1  1  0  0  0
  5  7  2  0  0  0  0
  6 19  1  6  0  0  0
  6  4  1  0  0  0  0
  9  8  2  0  0  0  0
 10  8  1  0  0  0  0
 11 17  1  0  0  0  0
 11 14  2  0  0  0  0
 12 14  1  0  0  0  0
 13 10  1  0  0  0  0
 14  9  1  0  0  0  0
 15 12  1  1  0  0  0
 15 13  1  0  0  0  0
 17 16  1  0  0  0  0
 18 17  2  0  0  0  0
 20 19  1  0  0  0  0
 21 20  1  0  0  0  0
 22 24  1  0  0  0  0
 22 26  1  1  0  0  0
 23 22  1  0  0  0  0
 23 24  1  0  0  0  0
 24 25  1  6  0  0  0
 24 21  1  0  0  0  0
 27 26  1  0  0  0  0
 27 28  1  6  0  0  0
 29 30  1  0  0  0  0
 30 27  1  0  0  0  0
M  END
>  <MODEL>
1

>  <REMARK>
 VINA RESULT:      -7.3      0.000      0.000
  Name = 
  9 active torsions:
  status: ('A' for Active; 'I' for Inactive)
    1  A    between atoms: C_1  and  C_4
    2  A    between atoms: C_1  and  C_5
    3  A    between atoms: C_4  and  C_27
    4  A    between atoms: C_5  and  C_22
    5  A    between atoms: C_8  and  C_12
    6  A    between atoms: C_9  and  C_12
    7  A    between atoms: C_9  and  O_21
    8  A    between atoms: C_15  and  C_16
    9  A    between atoms: C_19  and  C_29
                            x       y       z     vdW  Elec       q    Type
                         _______ _______ _______ _____ _____    ______ ____

>  <TORSDO>
F 9

$$$$
=
 OpenBabel11052421483D

 30 32  0  0  1  0  0  0  0  0999 V2000
  162.1100  209.4990  151.2460 C   0  0  1  0  0  3  0  0  0  0  0  0
  161.9440  210.3710  150.1320 O   0  0  0  0  0  0  0  0  0  0  0  0
  161.5440  210.0790  152.3680 F   0  0  0  0  0  0  0  0  0  0  0  0
  162.0170  207.5480  149.6390 C   0  0  2  0  0  3  0  0  0  0  0  0
  161.9910  209.9050  148.8170 C   0  0  0  0  0  3  0  0  0  0  0  0
  161.4790  208.1310  150.9730 C   0  0  1  0  0  3  0  0  0  0  0  0
  162.0140  208.6010  148.5520 C   0  0  0  0  0  3  0  0  0  0  0  0
  161.4620  204.6770  146.3400 C   0  0  0  0  0  3  0  0  0  0  0  0
  161.3820  203.6600  147.2050 C   0  0  0  0  0  3  0  0  0  0  0  0
  161.4100  206.0250  146.7180 O   0  0  0  0  0  0  0  0  0  0  0  0
  160.9110  202.9280  149.5200 C   0  0  0  0  0  3  0  0  0  0  0  0
  162.0910  205.0340  149.2380 C   0  0  0  0  0  2  0  0  0  0  0  0
  160.5840  206.4830  147.7890 C   0  0  0  0  0  2  0  0  0  0  0  0
  161.4050  203.8350  148.6690 C   0  0  0  0  0  0  0  0  0  0  0  0
  161.2300  206.2980  149.1750 C   0  0  2  0  0  3  0  0  0  0  0  0
  158.9910  201.5210  149.2960 O   0  0  0  0  0  1  0  0  0  0  0  0
  160.2360  201.6660  149.1680 C   0  0  0  0  0  0  0  0  0  0  0  0
  160.9960  200.6100  148.6840 O   0  0  0  0  0  0  0  0  0  0  0  0
  161.8120  207.2240  152.1470 C   0  0  0  0  0  2  0  0  0  0  0  0
  160.7680  207.3890  153.2320 C   0  0  0  0  0  2  0  0  0  0  0  0
  161.4590  207.7520  154.5320 C   0  0  0  0  0  2  0  0  0  0  0  0
  160.1800  209.4030  156.1180 C   0  0  2  0  0  3  0  0  0  0  0  0
  161.0380  208.5180  156.8080 O   0  0  0  0  0  0  0  0  0  0  0  0
  160.4410  208.0200  155.6370 C   0  0  2  0  0  0  0  0  0  0  0  0
  159.3830  206.9810  155.9480 C   0  0  0  0  0  1  0  0  0  0  0  0
  161.0190  210.4640  155.4170 C   0  0  0  0  0  2  0  0  0  0  0  0
  160.1370  211.5940  154.9130 C   0  0  2  0  0  3  0  0  0  0  0  0
  159.9420  212.6000  156.0300 C   0  0  0  0  0  1  0  0  0  0  0  0
  158.6640  211.6460  153.2600 C   0  0  0  0  0  1  0  0  0  0  0  0
  158.8940  211.0920  154.5210 O   0  0  0  0  0  0  0  0  0  0  0  0
  1  3  1  1  0  0  0
  2  1  1  0  0  0  0
  4  7  1  6  0  0  0
  4  6  1  0  0  0  0
  5  2  1  0  0  0  0
  6  1  1  0  0  0  0
  6 19  1  1  0  0  0
  7  5  2  0  0  0  0
  8 10  1  0  0  0  0
  8  9  2  0  0  0  0
  9 14  1  0  0  0  0
 10 13  1  0  0  0  0
 14 12  1  0  0  0  0
 14 11  2  0  0  0  0
 15 13  1  6  0  0  0
 15 12  1  0  0  0  0
 15  4  1  0  0  0  0
 17 16  1  0  0  0  0
 17 11  1  0  0  0  0
 18 17  2  0  0  0  0
 19 20  1  0  0  0  0
 20 21  1  0  0  0  0
 21 24  1  0  0  0  0
 22 26  1  6  0  0  0
 22 23  1  0  0  0  0
 24 25  1  1  0  0  0
 24 22  1  0  0  0  0
 24 23  1  0  0  0  0
 27 26  1  0  0  0  0
 27 28  1  1  0  0  0
 29 30  1  0  0  0  0
 30 27  1  0  0  0  0
M  END
>  <MODEL>
2

>  <REMARK>
 VINA RESULT:      -6.9      2.849      7.713
  Name = 
  9 active torsions:
  status: ('A' for Active; 'I' for Inactive)
    1  A    between atoms: C_1  and  C_4
    2  A    between atoms: C_1  and  C_5
    3  A    between atoms: C_4  and  C_27
    4  A    between atoms: C_5  and  C_22
    5  A    between atoms: C_8  and  C_12
    6  A    between atoms: C_9  and  C_12
    7  A    between atoms: C_9  and  O_21
    8  A    between atoms: C_15  and  C_16
    9  A    between atoms: C_19  and  C_29
                            x       y       z     vdW  Elec       q    Type
                         _______ _______ _______ _____ _____    ______ ____

>  <TORSDO>
F 9

$$$$
=
 OpenBabel11052421483D

 30 32  0  0  1  0  0  0  0  0999 V2000
  161.3000  204.3190  150.3630 C   0  0  1  0  0  3  0  0  0  0  0  0
  160.9880  203.4080  151.4130 O   0  0  0  0  0  0  0  0  0  0  0  0
  160.7080  203.8830  149.1910 F   0  0  0  0  0  0  0  0  0  0  0  0
  161.3900  206.1640  152.0900 C   0  0  2  0  0  3  0  0  0  0  0  0
  161.0440  203.7840  152.7570 C   0  0  0  0  0  3  0  0  0  0  0  0
  160.8330  205.7350  150.7070 C   0  0  1  0  0  3  0  0  0  0  0  0
  161.2180  205.0570  153.1060 C   0  0  0  0  0  3  0  0  0  0  0  0
  161.7160  209.3750  155.0940 C   0  0  0  0  0  3  0  0  0  0  0  0
  161.4020  210.2970  154.1780 C   0  0  0  0  0  3  0  0  0  0  0  0
  161.5740  207.9960  154.8880 O   0  0  0  0  0  0  0  0  0  0  0  0
  160.3250  210.7950  152.0080 C   0  0  0  0  0  3  0  0  0  0  0  0
  161.5520  208.7040  152.1880 C   0  0  0  0  0  2  0  0  0  0  0  0
  160.4960  207.4480  154.1310 C   0  0  0  0  0  2  0  0  0  0  0  0
  161.0340  209.9710  152.7880 C   0  0  0  0  0  0  0  0  0  0  0  0
  160.7470  207.4730  152.6110 C   0  0  2  0  0  3  0  0  0  0  0  0
  158.9730  212.2230  153.3670 O   0  0  0  0  0  1  0  0  0  0  0  0
  159.7590  212.1010  152.3910 C   0  0  0  0  0  0  0  0  0  0  0  0
  160.1030  213.2250  151.6510 O   0  0  0  0  0  0  0  0  0  0  0  0
  161.3180  206.6630  149.6040 C   0  0  0  0  0  2  0  0  0  0  0  0
  160.6820  206.2680  148.2870 C   0  0  0  0  0  2  0  0  0  0  0  0
  161.7720  205.8730  147.3090 C   0  0  0  0  0  2  0  0  0  0  0  0
  161.1010  204.0240  145.5760 C   0  0  2  0  0  3  0  0  0  0  0  0
  162.1330  204.8710  145.1160 O   0  0  0  0  0  0  0  0  0  0  0  0
  161.1790  205.4570  145.9660 C   0  0  2  0  0  0  0  0  0  0  0  0
  160.2770  206.4170  145.2160 C   0  0  0  0  0  1  0  0  0  0  0  0
  161.6660  203.0720  146.6220 C   0  0  0  0  0  2  0  0  0  0  0  0
  161.0620  201.6870  146.4640 C   0  0  2  0  0  3  0  0  0  0  0  0
  160.1600  201.6800  145.2450 C   0  0  0  0  0  1  0  0  0  0  0  0
  161.2220  200.7650  148.4710 C   0  0  0  0  0  1  0  0  0  0  0  0
  160.3120  201.3620  147.5960 O   0  0  0  0  0  0  0  0  0  0  0  0
  1  3  1  6  0  0  0
  1  6  1  0  0  0  0
  1  2  1  0  0  0  0
  2  5  1  0  0  0  0
  4 15  1  0  0  0  0
  4  7  1  1  0  0  0
  5  7  2  0  0  0  0
  6 19  1  6  0  0  0
  6  4  1  0  0  0  0
  9  8  2  0  0  0  0
 10  8  1  0  0  0  0
 11 17  1  0  0  0  0
 11 14  2  0  0  0  0
 12 14  1  0  0  0  0
 13 10  1  0  0  0  0
 14  9  1  0  0  0  0
 15 12  1  1  0  0  0
 15 13  1  0  0  0  0
 17 16  1  0  0  0  0
 18 17  2  0  0  0  0
 20 19  1  0  0  0  0
 21 20  1  0  0  0  0
 22 24  1  0  0  0  0
 22 26  1  1  0  0  0
 23 22  1  0  0  0  0
 23 24  1  0  0  0  0
 24 25  1  6  0  0  0
 24 21  1  0  0  0  0
 27 28  1  6  0  0  0
 27 26  1  0  0  0  0
 27 30  1  0  0  0  0
 30 29  1  0  0  0  0
M  END
>  <MODEL>
3

>  <REMARK>
 VINA RESULT:      -6.8      2.339      5.350
  Name = 
  9 active torsions:
  status: ('A' for Active; 'I' for Inactive)
    1  A    between atoms: C_1  and  C_4
    2  A    between atoms: C_1  and  C_5
    3  A    between atoms: C_4  and  C_27
    4  A    between atoms: C_5  and  C_22
    5  A    between atoms: C_8  and  C_12
    6  A    between atoms: C_9  and  C_12
    7  A    between atoms: C_9  and  O_21
    8  A    between atoms: C_15  and  C_16
    9  A    between atoms: C_19  and  C_29
                            x       y       z     vdW  Elec       q    Type
                         _______ _______ _______ _____ _____    ______ ____

>  <TORSDO>
F 9

$$$$
=
 OpenBabel11052421483D

 30 32  0  0  1  0  0  0  0  0999 V2000
  161.0410  209.4510  153.2630 C   0  0  1  0  0  3  0  0  0  0  0  0
  161.3400  208.7450  154.4640 O   0  0  0  0  0  0  0  0  0  0  0  0
  161.6530  210.6910  153.2990 F   0  0  0  0  0  0  0  0  0  0  0  0
  160.9190  207.2230  152.0720 C   0  0  2  0  0  3  0  0  0  0  0  0
  161.2620  207.3530  154.5410 C   0  0  0  0  0  3  0  0  0  0  0  0
  161.4990  208.6620  152.0340 C   0  0  1  0  0  3  0  0  0  0  0  0
  161.0790  206.6150  153.4480 C   0  0  0  0  0  3  0  0  0  0  0  0
  160.8150  203.1850  150.3060 C   0  0  0  0  0  3  0  0  0  0  0  0
  160.9520  203.6920  149.0760 C   0  0  0  0  0  3  0  0  0  0  0  0
  161.0060  203.9280  151.4780 O   0  0  0  0  0  0  0  0  0  0  0  0
  161.7000  205.5900  147.6780 C   0  0  0  0  0  3  0  0  0  0  0  0
  160.6290  206.1210  149.7940 C   0  0  0  0  0  2  0  0  0  0  0  0
  162.0030  204.9430  151.5800 C   0  0  0  0  0  2  0  0  0  0  0  0
  161.1490  205.1280  148.8060 C   0  0  0  0  0  0  0  0  0  0  0  0
  161.5510  206.2980  151.0020 C   0  0  2  0  0  3  0  0  0  0  0  0
  163.4710  204.7280  146.3230 O   0  0  0  0  0  1  0  0  0  0  0  0
  162.2370  204.7840  146.5660 C   0  0  0  0  0  0  0  0  0  0  0  0
  161.3540  204.0720  145.7660 O   0  0  0  0  0  0  0  0  0  0  0  0
  161.0290  209.4140  150.7990 C   0  0  0  0  0  2  0  0  0  0  0  0
  162.1890  210.1790  150.1940 C   0  0  0  0  0  2  0  0  0  0  0  0
  161.7900  211.6320  150.0260 C   0  0  0  0  0  2  0  0  0  0  0  0
  160.9310  212.8780  147.8840 C   0  0  2  0  0  3  0  0  0  0  0  0
  161.0670  211.4840  147.7010 O   0  0  0  0  0  0  0  0  0  0  0  0
  161.9810  212.0890  148.5820 C   0  0  2  0  0  0  0  0  0  0  0  0
  163.3760  212.1390  147.9910 C   0  0  0  0  0  1  0  0  0  0  0  0
  159.7010  213.1510  148.7380 C   0  0  0  0  0  2  0  0  0  0  0  0
  158.5510  213.6450  147.8760 C   0  0  2  0  0  3  0  0  0  0  0  0
  157.2460  213.1440  148.4630 C   0  0  0  0  0  1  0  0  0  0  0  0
  157.4630  212.5550  146.2840 C   0  0  0  0  0  1  0  0  0  0  0  0
  158.6880  213.1590  146.5740 O   0  0  0  0  0  0  0  0  0  0  0  0
  1  3  1  1  0  0  0
  1  2  1  0  0  0  0
  2  5  1  0  0  0  0
  4  7  1  1  0  0  0
  6 19  1  6  0  0  0
  6  4  1  0  0  0  0
  6  1  1  0  0  0  0
  7  5  2  0  0  0  0
  8 10  1  0  0  0  0
  9  8  2  0  0  0  0
 10 13  1  0  0  0  0
 11 14  2  0  0  0  0
 14  9  1  0  0  0  0
 14 12  1  0  0  0  0
 15 12  1  6  0  0  0
 15 13  1  0  0  0  0
 15  4  1  0  0  0  0
 16 17  1  0  0  0  0
 17 11  1  0  0  0  0
 18 17  2  0  0  0  0
 20 19  1  0  0  0  0
 21 20  1  0  0  0  0
 22 24  1  0  0  0  0
 22 26  1  1  0  0  0
 23 22  1  0  0  0  0
 23 24  1  0  0  0  0
 24 25  1  6  0  0  0
 24 21  1  0  0  0  0
 27 28  1  1  0  0  0
 27 26  1  0  0  0  0
 29 30  1  0  0  0  0
 30 27  1  0  0  0  0
M  END
>  <MODEL>
4

>  <REMARK>
 VINA RESULT:      -6.8      2.960      6.587
  Name = 
  9 active torsions:
  status: ('A' for Active; 'I' for Inactive)
    1  A    between atoms: C_1  and  C_4
    2  A    between atoms: C_1  and  C_5
    3  A    between atoms: C_4  and  C_27
    4  A    between atoms: C_5  and  C_22
    5  A    between atoms: C_8  and  C_12
    6  A    between atoms: C_9  and  C_12
    7  A    between atoms: C_9  and  O_21
    8  A    between atoms: C_15  and  C_16
    9  A    between atoms: C_19  and  C_29
                            x       y       z     vdW  Elec       q    Type
                         _______ _______ _______ _____ _____    ______ ____

>  <TORSDO>
F 9

$$$$
=
 OpenBabel11052421483D

 30 32  0  0  1  0  0  0  0  0999 V2000
  160.7260  203.7390  150.5350 C   0  0  1  0  0  3  0  0  0  0  0  0
  160.7680  203.6620  151.9570 O   0  0  0  0  0  0  0  0  0  0  0  0
  159.7180  202.9170  150.0640 F   0  0  0  0  0  0  0  0  0  0  0  0
  161.5580  206.1210  150.7140 C   0  0  2  0  0  3  0  0  0  0  0  0
  161.3380  204.6720  152.7350 C   0  0  0  0  0  3  0  0  0  0  0  0
  160.5050  205.1800  150.0690 C   0  0  1  0  0  3  0  0  0  0  0  0
  161.7050  205.8300  152.1910 C   0  0  0  0  0  3  0  0  0  0  0  0
  162.1480  210.1930  152.2980 C   0  0  0  0  0  3  0  0  0  0  0  0
  162.3310  210.6730  151.0630 C   0  0  0  0  0  3  0  0  0  0  0  0
  161.6540  208.9090  152.5660 O   0  0  0  0  0  0  0  0  0  0  0  0
  161.9560  210.3760  148.6360 C   0  0  0  0  0  3  0  0  0  0  0  0
  162.4380  208.3820  149.9400 C   0  0  0  0  0  2  0  0  0  0  0  0
  160.6560  208.2940  151.7520 C   0  0  0  0  0  2  0  0  0  0  0  0
  162.1990  209.8540  149.8440 C   0  0  0  0  0  0  0  0  0  0  0  0
  161.2320  207.6190  150.4930 C   0  0  2  0  0  3  0  0  0  0  0  0
  160.5800  212.2580  148.1060 O   0  0  0  0  0  0  0  0  0  0  0  0
  161.7330  211.7990  148.3210 C   0  0  0  0  0  0  0  0  0  0  0  0
  162.8260  212.6520  148.2580 O   0  0  0  0  0  1  0  0  0  0  0  0
  160.6040  205.1970  148.5520 C   0  0  0  0  0  2  0  0  0  0  0  0
  161.9560  204.6660  148.1210 C   0  0  0  0  0  2  0  0  0  0  0  0
  162.3840  205.3730  146.8500 C   0  0  0  0  0  2  0  0  0  0  0  0
  160.9170  204.0130  145.1550 C   0  0  2  0  0  3  0  0  0  0  0  0
  161.7830  204.9350  144.5280 O   0  0  0  0  0  0  0  0  0  0  0  0
  161.2880  205.3060  145.7900 C   0  0  2  0  0  0  0  0  0  0  0  0
  160.2770  206.4300  145.6850 C   0  0  0  0  0  1  0  0  0  0  0  0
  161.7310  202.8280  145.6580 C   0  0  0  0  0  2  0  0  0  0  0  0
  160.8310  201.6280  145.9010 C   0  0  2  0  0  3  0  0  0  0  0  0
  159.6980  201.6510  144.8930 C   0  0  0  0  0  1  0  0  0  0  0  0
  161.2060  200.9660  147.9810 C   0  0  0  0  0  1  0  0  0  0  0  0
  160.3020  201.6810  147.1920 O   0  0  0  0  0  0  0  0  0  0  0  0
  1  3  1  1  0  0  0
  1  2  1  0  0  0  0
  2  5  1  0  0  0  0
  4  7  1  1  0  0  0
  6 19  1  6  0  0  0
  6  1  1  0  0  0  0
  6  4  1  0  0  0  0
  7  5  2  0  0  0  0
  8 10  1  0  0  0  0
  9  8  2  0  0  0  0
 11 14  2  0  0  0  0
 13 10  1  0  0  0  0
 14 12  1  0  0  0  0
 14  9  1  0  0  0  0
 15 12  1  1  0  0  0
 15  4  1  0  0  0  0
 15 13  1  0  0  0  0
 16 17  2  0  0  0  0
 17 11  1  0  0  0  0
 18 17  1  0  0  0  0
 20 19  1  0  0  0  0
 21 20  1  0  0  0  0
 22 26  1  1  0  0  0
 22 24  1  0  0  0  0
 23 22  1  0  0  0  0
 23 24  1  0  0  0  0
 24 25  1  1  0  0  0
 24 21  1  0  0  0  0
 26 27  1  0  0  0  0
 27 28  1  6  0  0  0
 27 30  1  0  0  0  0
 30 29  1  0  0  0  0
M  END
>  <MODEL>
5

>  <REMARK>
 VINA RESULT:      -6.8      2.109      5.340
  Name = 
  9 active torsions:
  status: ('A' for Active; 'I' for Inactive)
    1  A    between atoms: C_1  and  C_4
    2  A    between atoms: C_1  and  C_5
    3  A    between atoms: C_4  and  C_27
    4  A    between atoms: C_5  and  C_22
    5  A    between atoms: C_8  and  C_12
    6  A    between atoms: C_9  and  C_12
    7  A    between atoms: C_9  and  O_21
    8  A    between atoms: C_15  and  C_16
    9  A    between atoms: C_19  and  C_29
                            x       y       z     vdW  Elec       q    Type
                         _______ _______ _______ _____ _____    ______ ____

>  <TORSDO>
F 9

$$$$
=
 OpenBabel11052421483D

 30 32  0  0  1  0  0  0  0  0999 V2000
  161.2030  209.3500  154.4210 C   0  0  1  0  0  3  0  0  0  0  0  0
  161.3440  208.3390  155.4150 O   0  0  0  0  0  0  0  0  0  0  0  0
  161.9530  210.4550  154.7860 F   0  0  0  0  0  0  0  0  0  0  0  0
  160.8950  207.5170  152.7050 C   0  0  2  0  0  3  0  0  0  0  0  0
  161.0990  206.9930  155.1370 C   0  0  0  0  0  3  0  0  0  0  0  0
  161.6400  208.8350  153.0470 C   0  0  1  0  0  3  0  0  0  0  0  0
  160.8980  206.5760  153.8890 C   0  0  0  0  0  3  0  0  0  0  0  0
  160.9520  203.7520  150.4130 C   0  0  0  0  0  3  0  0  0  0  0  0
  160.8970  204.4250  149.2590 C   0  0  0  0  0  3  0  0  0  0  0  0
  161.2110  204.3540  151.6510 O   0  0  0  0  0  0  0  0  0  0  0  0
  161.3010  206.5560  148.0690 C   0  0  0  0  0  3  0  0  0  0  0  0
  160.4410  206.6940  150.3380 C   0  0  0  0  0  2  0  0  0  0  0  0
  162.1170  205.4480  151.7900 C   0  0  0  0  0  2  0  0  0  0  0  0
  160.9310  205.8970  149.1730 C   0  0  0  0  0  0  0  0  0  0  0  0
  161.4790  206.8100  151.4570 C   0  0  2  0  0  3  0  0  0  0  0  0
  162.8880  205.3770  146.7240 O   0  0  0  0  0  1  0  0  0  0  0  0
  161.7750  205.9610  146.8060 C   0  0  0  0  0  0  0  0  0  0  0  0
  160.9700  206.0510  145.6780 O   0  0  0  0  0  0  0  0  0  0  0  0
  161.3380  209.9220  152.0270 C   0  0  0  0  0  2  0  0  0  0  0  0
  160.0010  210.5600  152.3410 C   0  0  0  0  0  2  0  0  0  0  0  0
  160.1270  212.0650  152.2080 C   0  0  0  0  0  2  0  0  0  0  0  0
  158.1900  213.6950  151.5250 C   0  0  2  0  0  3  0  0  0  0  0  0
  158.9330  214.1480  152.6370 O   0  0  0  0  0  0  0  0  0  0  0  0
  158.7980  212.7550  152.5040 C   0  0  2  0  0  0  0  0  0  0  0  0
  157.8750  212.1800  153.5590 C   0  0  0  0  0  1  0  0  0  0  0  0
  159.0180  213.8840  150.2610 C   0  0  0  0  0  2  0  0  0  0  0  0
  158.1150  214.0480  149.0500 C   0  0  2  0  0  3  0  0  0  0  0  0
  156.9090  213.1430  149.2110 C   0  0  0  0  0  1  0  0  0  0  0  0
  160.0870  213.3500  148.3220 C   0  0  0  0  0  1  0  0  0  0  0  0
  158.8050  213.6960  147.8880 O   0  0  0  0  0  0  0  0  0  0  0  0
  1  3  1  1  0  0  0
  1  2  1  0  0  0  0
  4  6  1  0  0  0  0
  4  7  1  1  0  0  0
  5  2  1  0  0  0  0
  6 19  1  6  0  0  0
  6  1  1  0  0  0  0
  7  5  2  0  0  0  0
  8 10  1  0  0  0  0
  9  8  2  0  0  0  0
 10 13  1  0  0  0  0
 11 14  2  0  0  0  0
 14  9  1  0  0  0  0
 14 12  1  0  0  0  0
 15 12  1  6  0  0  0
 15 13  1  0  0  0  0
 15  4  1  0  0  0  0
 16 17  1  0  0  0  0
 17 11  1  0  0  0  0
 18 17  2  0  0  0  0
 19 20  1  0  0  0  0
 21 20  1  0  0  0  0
 21 24  1  0  0  0  0
 22 26  1  6  0  0  0
 22 24  1  0  0  0  0
 22 23  1  0  0  0  0
 24 23  1  0  0  0  0
 24 25  1  1  0  0  0
 27 28  1  1  0  0  0
 27 26  1  0  0  0  0
 30 29  1  0  0  0  0
 30 27  1  0  0  0  0
M  END
>  <MODEL>
6

>  <REMARK>
 VINA RESULT:      -6.8      3.459      7.750
  Name = 
  9 active torsions:
  status: ('A' for Active; 'I' for Inactive)
    1  A    between atoms: C_1  and  C_4
    2  A    between atoms: C_1  and  C_5
    3  A    between atoms: C_4  and  C_27
    4  A    between atoms: C_5  and  C_22
    5  A    between atoms: C_8  and  C_12
    6  A    between atoms: C_9  and  C_12
    7  A    between atoms: C_9  and  O_21
    8  A    between atoms: C_15  and  C_16
    9  A    between atoms: C_19  and  C_29
                            x       y       z     vdW  Elec       q    Type
                         _______ _______ _______ _____ _____    ______ ____

>  <TORSDO>
F 9

$$$$
=
 OpenBabel11052421483D

 30 32  0  0  1  0  0  0  0  0999 V2000
  160.7740  200.9040  149.8800 C   0  0  1  0  0  3  0  0  0  0  0  0
  161.2930  200.2030  148.7530 O   0  0  0  0  0  0  0  0  0  0  0  0
  161.2200  200.2970  151.0400 F   0  0  0  0  0  0  0  0  0  0  0  0
  160.8090  203.0160  148.4890 C   0  0  2  0  0  3  0  0  0  0  0  0
  161.4050  200.8030  147.4980 C   0  0  0  0  0  3  0  0  0  0  0  0
  161.1890  202.3770  149.8500 C   0  0  1  0  0  3  0  0  0  0  0  0
  161.1980  202.1090  147.3420 C   0  0  0  0  0  3  0  0  0  0  0  0
  160.8320  206.6120  145.9370 C   0  0  0  0  0  3  0  0  0  0  0  0
  160.8730  207.4050  147.0130 C   0  0  0  0  0  3  0  0  0  0  0  0
  161.0450  205.2270  145.9840 O   0  0  0  0  0  0  0  0  0  0  0  0
  161.4390  207.6350  149.4100 C   0  0  0  0  0  3  0  0  0  0  0  0
  160.4560  205.5300  148.6960 C   0  0  0  0  0  2  0  0  0  0  0  0
  161.9890  204.6330  146.8750 C   0  0  0  0  0  2  0  0  0  0  0  0
  160.9770  206.8980  148.3940 C   0  0  0  0  0  0  0  0  0  0  0  0
  161.4320  204.4210  148.2950 C   0  0  2  0  0  3  0  0  0  0  0  0
  162.4130  209.4910  148.2610 O   0  0  0  0  0  0  0  0  0  0  0  0
  161.9580  209.0130  149.3330 C   0  0  0  0  0  0  0  0  0  0  0  0
  161.9440  209.8000  150.4760 O   0  0  0  0  0  1  0  0  0  0  0  0
  160.4920  203.0780  151.0050 C   0  0  0  0  0  2  0  0  0  0  0  0
  161.5240  203.6830  151.9350 C   0  0  0  0  0  2  0  0  0  0  0  0
  160.8680  204.7710  152.7620 C   0  0  0  0  0  2  0  0  0  0  0  0
  161.4780  207.1450  153.6930 C   0  0  2  0  0  3  0  0  0  0  0  0
  160.8310  207.1880  152.4380 O   0  0  0  0  0  0  0  0  0  0  0  0
  161.6570  206.0750  152.6760 C   0  0  2  0  0  0  0  0  0  0  0  0
  162.9230  206.1310  151.8450 C   0  0  0  0  0  1  0  0  0  0  0  0
  160.4550  206.8040  154.7690 C   0  0  0  0  0  2  0  0  0  0  0  0
  160.4290  207.8800  155.8410 C   0  0  2  0  0  3  0  0  0  0  0  0
  160.4980  209.2400  155.1750 C   0  0  0  0  0  1  0  0  0  0  0  0
  161.9710  209.0290  156.9410 C   0  0  0  0  0  1  0  0  0  0  0  0
  161.5240  207.7280  156.6960 O   0  0  0  0  0  0  0  0  0  0  0  0
  1  3  1  1  0  0  0
  2  1  1  0  0  0  0
  4  7  1  6  0  0  0
  4  6  1  0  0  0  0
  5  2  1  0  0  0  0
  6  1  1  0  0  0  0
  6 19  1  1  0  0  0
  7  5  2  0  0  0  0
  8 10  1  0  0  0  0
  8  9  2  0  0  0  0
  9 14  1  0  0  0  0
 10 13  1  0  0  0  0
 14 12  1  0  0  0  0
 14 11  2  0  0  0  0
 15 13  1  6  0  0  0
 15  4  1  0  0  0  0
 15 12  1  0  0  0  0
 16 17  2  0  0  0  0
 17 11  1  0  0  0  0
 17 18  1  0  0  0  0
 19 20  1  0  0  0  0
 20 21  1  0  0  0  0
 22 26  1  1  0  0  0
 23 24  1  0  0  0  0
 23 22  1  0  0  0  0
 24 25  1  6  0  0  0
 24 21  1  0  0  0  0
 24 22  1  0  0  0  0
 26 27  1  0  0  0  0
 27 28  1  6  0  0  0
 27 30  1  0  0  0  0
 30 29  1  0  0  0  0
M  END
>  <MODEL>
7

>  <REMARK>
 VINA RESULT:      -6.6      2.825      8.345
  Name = 
  9 active torsions:
  status: ('A' for Active; 'I' for Inactive)
    1  A    between atoms: C_1  and  C_4
    2  A    between atoms: C_1  and  C_5
    3  A    between atoms: C_4  and  C_27
    4  A    between atoms: C_5  and  C_22
    5  A    between atoms: C_8  and  C_12
    6  A    between atoms: C_9  and  C_12
    7  A    between atoms: C_9  and  O_21
    8  A    between atoms: C_15  and  C_16
    9  A    between atoms: C_19  and  C_29
                            x       y       z     vdW  Elec       q    Type
                         _______ _______ _______ _____ _____    ______ ____

>  <TORSDO>
F 9

$$$$
=
 OpenBabel11052421483D

 30 32  0  0  1  0  0  0  0  0999 V2000
  161.0770  209.3930  153.4340 C   0  0  1  0  0  3  0  0  0  0  0  0
  161.3100  208.6590  154.6330 O   0  0  0  0  0  0  0  0  0  0  0  0
  161.7470  210.6020  153.5030 F   0  0  0  0  0  0  0  0  0  0  0  0
  160.8770  207.1890  152.2100 C   0  0  2  0  0  3  0  0  0  0  0  0
  161.1620  207.2720  154.6890 C   0  0  0  0  0  3  0  0  0  0  0  0
  161.5270  208.5980  152.2060 C   0  0  1  0  0  3  0  0  0  0  0  0
  160.9710  206.5570  153.5820 C   0  0  0  0  0  3  0  0  0  0  0  0
  160.7550  203.1180  150.5220 C   0  0  0  0  0  3  0  0  0  0  0  0
  160.8620  203.6030  149.2800 C   0  0  0  0  0  3  0  0  0  0  0  0
  160.9680  203.8840  151.6760 O   0  0  0  0  0  0  0  0  0  0  0  0
  161.5700  205.4780  147.8310 C   0  0  0  0  0  3  0  0  0  0  0  0
  160.5420  206.0440  149.9600 C   0  0  0  0  0  2  0  0  0  0  0  0
  161.9620  204.9060  151.7370 C   0  0  0  0  0  2  0  0  0  0  0  0
  161.0470  205.0350  148.9800 C   0  0  0  0  0  0  0  0  0  0  0  0
  161.4900  206.2470  151.1450 C   0  0  2  0  0  3  0  0  0  0  0  0
  163.2950  204.6980  146.3720 O   0  0  0  0  0  1  0  0  0  0  0  0
  162.0860  204.6550  146.7230 C   0  0  0  0  0  0  0  0  0  0  0  0
  161.2130  203.8120  146.0490 O   0  0  0  0  0  0  0  0  0  0  0  0
  161.1260  209.3880  150.9700 C   0  0  0  0  0  2  0  0  0  0  0  0
  162.2230  210.3700  150.6130 C   0  0  0  0  0  2  0  0  0  0  0  0
  161.9580  210.9260  149.2280 C   0  0  0  0  0  2  0  0  0  0  0  0
  160.6960  212.9220  148.0890 C   0  0  2  0  0  3  0  0  0  0  0  0
  161.9540  213.2870  148.6150 O   0  0  0  0  0  0  0  0  0  0  0  0
  161.2580  212.2800  149.3060 C   0  0  2  0  0  0  0  0  0  0  0  0
  160.7360  212.7760  150.6400 C   0  0  0  0  0  1  0  0  0  0  0  0
  160.9040  212.1110  146.8170 C   0  0  0  0  0  2  0  0  0  0  0  0
  160.7170  212.9860  145.5890 C   0  0  2  0  0  3  0  0  0  0  0  0
  159.6700  212.3560  144.6910 C   0  0  0  0  0  1  0  0  0  0  0  0
  161.6610  213.9980  143.8600 C   0  0  0  0  0  1  0  0  0  0  0  0
  161.9210  213.0920  144.8890 O   0  0  0  0  0  0  0  0  0  0  0  0
  1  3  1  1  0  0  0
  1  2  1  0  0  0  0
  2  5  1  0  0  0  0
  4  7  1  1  0  0  0
  6 19  1  6  0  0  0
  6  4  1  0  0  0  0
  6  1  1  0  0  0  0
  7  5  2  0  0  0  0
  8 10  1  0  0  0  0
  9  8  2  0  0  0  0
 10 13  1  0  0  0  0
 11 14  2  0  0  0  0
 14  9  1  0  0  0  0
 14 12  1  0  0  0  0
 15 12  1  6  0  0  0
 15 13  1  0  0  0  0
 15  4  1  0  0  0  0
 16 17  1  0  0  0  0
 17 11  1  0  0  0  0
 18 17  2  0  0  0  0
 20 19  1  0  0  0  0
 21 24  1  0  0  0  0
 21 20  1  0  0  0  0
 22 26  1  6  0  0  0
 22 23  1  0  0  0  0
 22 24  1  0  0  0  0
 23 24  1  0  0  0  0
 24 25  1  1  0  0  0
 27 28  1  6  0  0  0
 27 26  1  0  0  0  0
 29 30  1  0  0  0  0
 30 27  1  0  0  0  0
M  END
>  <MODEL>
8

>  <REMARK>
 VINA RESULT:      -6.6      3.017      6.589
  Name = 
  9 active torsions:
  status: ('A' for Active; 'I' for Inactive)
    1  A    between atoms: C_1  and  C_4
    2  A    between atoms: C_1  and  C_5
    3  A    between atoms: C_4  and  C_27
    4  A    between atoms: C_5  and  C_22
    5  A    between atoms: C_8  and  C_12
    6  A    between atoms: C_9  and  C_12
    7  A    between atoms: C_9  and  O_21
    8  A    between atoms: C_15  and  C_16
    9  A    between atoms: C_19  and  C_29
                            x       y       z     vdW  Elec       q    Type
                         _______ _______ _______ _____ _____    ______ ____

>  <TORSDO>
F 9

$$$$
=
 OpenBabel11052421483D

 30 32  0  0  1  0  0  0  0  0999 V2000
  161.9220  205.8730  152.2630 C   0  0  1  0  0  3  0  0  0  0  0  0
  161.2920  205.5600  153.5020 O   0  0  0  0  0  0  0  0  0  0  0  0
  161.8030  204.7930  151.4050 F   0  0  0  0  0  0  0  0  0  0  0  0
  161.3170  208.2980  152.6530 C   0  0  2  0  0  3  0  0  0  0  0  0
  160.8510  206.5540  154.3770 C   0  0  0  0  0  3  0  0  0  0  0  0
  161.3070  207.1260  151.6350 C   0  0  1  0  0  3  0  0  0  0  0  0
  160.8380  207.8340  154.0110 C   0  0  0  0  0  3  0  0  0  0  0  0
  159.6850  212.2200  153.8300 C   0  0  0  0  0  3  0  0  0  0  0  0
  159.9980  212.7360  152.6370 C   0  0  0  0  0  3  0  0  0  0  0  0
  159.7130  210.8490  154.1140 O   0  0  0  0  0  0  0  0  0  0  0  0
  160.4940  212.3150  150.2510 C   0  0  0  0  0  3  0  0  0  0  0  0
  161.3630  210.7200  151.8660 C   0  0  0  0  0  2  0  0  0  0  0  0
  159.3400  209.8650  153.1500 C   0  0  0  0  0  2  0  0  0  0  0  0
  160.5740  211.9450  151.5340 C   0  0  0  0  0  0  0  0  0  0  0  0
  160.4780  209.5090  152.1750 C   0  0  2  0  0  3  0  0  0  0  0  0
  158.5910  213.7340  149.9720 O   0  0  0  0  0  1  0  0  0  0  0  0
  159.8030  213.5030  149.7180 C   0  0  0  0  0  0  0  0  0  0  0  0
  160.5090  214.3860  148.9140 O   0  0  0  0  0  0  0  0  0  0  0  0
  162.1150  207.4670  150.3930 C   0  0  0  0  0  2  0  0  0  0  0  0
  161.2010  207.5130  149.1850 C   0  0  0  0  0  2  0  0  0  0  0  0
  160.7320  206.1060  148.8650 C   0  0  0  0  0  2  0  0  0  0  0  0
  161.5260  204.3890  147.0500 C   0  0  2  0  0  3  0  0  0  0  0  0
  162.4010  205.4870  147.1990 O   0  0  0  0  0  0  0  0  0  0  0  0
  161.0360  205.7450  147.4140 C   0  0  2  0  0  0  0  0  0  0  0  0
  160.4410  206.5760  146.2950 C   0  0  0  0  0  1  0  0  0  0  0  0
  161.6900  203.4560  148.2440 C   0  0  0  0  0  2  0  0  0  0  0  0
  161.1900  202.0620  147.9040 C   0  0  2  0  0  3  0  0  0  0  0  0
  160.8310  202.0130  146.4320 C   0  0  0  0  0  1  0  0  0  0  0  0
  160.5560  201.2890  149.8810 C   0  0  0  0  0  1  0  0  0  0  0  0
  160.0580  201.7630  148.6650 O   0  0  0  0  0  0  0  0  0  0  0  0
  1  3  1  6  0  0  0
  1  2  1  0  0  0  0
  2  5  1  0  0  0  0
  4  7  1  1  0  0  0
  6 19  1  6  0  0  0
  6  1  1  0  0  0  0
  6  4  1  0  0  0  0
  7  5  2  0  0  0  0
  8 10  1  0  0  0  0
  9  8  2  0  0  0  0
 11 14  2  0  0  0  0
 13 10  1  0  0  0  0
 14 12  1  0  0  0  0
 14  9  1  0  0  0  0
 15 12  1  1  0  0  0
 15  4  1  0  0  0  0
 15 13  1  0  0  0  0
 17 16  1  0  0  0  0
 17 11  1  0  0  0  0
 18 17  2  0  0  0  0
 20 19  1  0  0  0  0
 21 20  1  0  0  0  0
 22 23  1  0  0  0  0
 22 24  1  0  0  0  0
 22 26  1  1  0  0  0
 23 24  1  0  0  0  0
 24 25  1  6  0  0  0
 24 21  1  0  0  0  0
 27 28  1  6  0  0  0
 27 26  1  0  0  0  0
 27 30  1  0  0  0  0
 30 29  1  0  0  0  0
M  END
>  <MODEL>
9

>  <REMARK>
 VINA RESULT:      -6.3      2.710      6.036
  Name = 
  9 active torsions:
  status: ('A' for Active; 'I' for Inactive)
    1  A    between atoms: C_1  and  C_4
    2  A    between atoms: C_1  and  C_5
    3  A    between atoms: C_4  and  C_27
    4  A    between atoms: C_5  and  C_22
    5  A    between atoms: C_8  and  C_12
    6  A    between atoms: C_9  and  C_12
    7  A    between atoms: C_9  and  O_21
    8  A    between atoms: C_15  and  C_16
    9  A    between atoms: C_19  and  C_29
                            x       y       z     vdW  Elec       q    Type
                         _______ _______ _______ _____ _____    ______ ____

>  <TORSDO>
F 9

$$$$
