=
 OpenBabel11062407463D

 34 38  0  0  1  0  0  0  0  0999 V2000
  159.5180  212.2140  152.9570 C   0  0  0  0  0  0  0  0  0  0  0  0
  160.6450  210.0300  152.9750 C   0  0  0  0  0  0  0  0  0  0  0  0
  160.8210  211.4790  150.9820 C   0  0  0  0  0  0  0  0  0  0  0  0
  162.5890  211.5260  148.3600 N   0  0  0  0  0  0  0  0  0  0  0  0
  158.3730  214.4490  152.9730 C   0  0  0  0  0  1  0  0  0  0  0  0
  160.2020  209.7540  154.2640 O   0  0  0  0  0  1  0  0  0  0  0  0
  161.8860  209.2870  151.0640 C   0  0  0  0  0  3  0  0  0  0  0  0
  160.3240  211.2390  152.3140 C   0  0  0  0  0  0  0  0  0  0  0  0
  162.1790  210.4540  148.9570 C   0  0  0  0  0  0  0  0  0  0  0  0
  159.0100  212.0030  154.2380 O   0  0  0  0  0  1  0  0  0  0  0  0
  160.5090  212.7340  150.3810 C   0  0  0  0  0  0  0  0  0  0  0  0
  159.2180  213.4130  152.3150 C   0  0  0  0  0  0  0  0  0  0  0  0
  161.4270  209.0780  152.3490 C   0  0  0  0  0  3  0  0  0  0  0  0
  162.3100  212.8030  148.7750 O   0  0  0  0  0  0  0  0  0  0  0  0
  160.9780  213.1950  149.0460 C   0  0  1  0  0  3  0  0  0  0  0  0
  161.5940  210.4490  150.3410 C   0  0  0  0  0  0  0  0  0  0  0  0
  159.7160  213.6630  151.0500 C   0  0  0  0  0  3  0  0  0  0  0  0
  159.5750  212.4220  145.5910 C   0  0  0  0  0  0  0  0  0  0  0  0
  158.2430  212.3850  145.8680 N   0  0  0  0  0  0  0  0  0  0  0  0
  160.0330  212.8890  147.9160 C   0  0  0  0  0  0  0  0  0  0  0  0
  157.7730  212.5940  147.1260 C   0  0  0  0  0  3  0  0  0  0  0  0
  160.4930  212.6770  146.6100 C   0  0  0  0  0  3  0  0  0  0  0  0
  158.6600  212.8530  148.1730 C   0  0  0  0  0  3  0  0  0  0  0  0
  160.0520  212.1950  144.2030 C   0  0  0  0  0  1  0  0  0  0  0  0
  162.3900  209.2460  148.2800 O   0  0  0  0  0  0  0  0  0  0  0  0
  161.4710  208.2710  148.2620 O   0  0  0  0  0  0  0  0  0  0  0  0
  162.2110  207.0900  148.1990 C   0  0  0  0  0  2  0  0  0  0  0  0
  161.5830  204.2450  148.0160 C   0  0  0  0  0  1  0  0  0  0  0  0
  162.0110  206.4520  146.9030 N   0  0  0  0  0  0  0  0  0  0  0  0
  162.3790  205.0220  146.9670 C   0  0  2  0  0  3  0  0  0  0  0  0
  161.5040  205.2340  144.5820 C   0  0  0  0  0  2  0  0  0  0  0  0
  160.2730  205.8920  145.2070 C   0  0  0  0  0  2  0  0  0  0  0  0
  160.6040  206.6150  146.5220 C   0  0  0  0  0  2  0  0  0  0  0  0
  162.2160  204.3420  145.6000 C   0  0  0  0  0  2  0  0  0  0  0  0
  1 10  1  0  0  0  0
  2  6  1  0  0  0  0
  3  8  1  0  0  0  0
  4 14  1  0  0  0  0
  4  9  2  0  0  0  0
  7 13  1  0  0  0  0
  8  1  2  0  0  0  0
  8  2  1  0  0  0  0
  9 16  1  0  0  0  0
 11  3  2  0  0  0  0
 11 17  1  0  0  0  0
 12  1  1  0  0  0  0
 12  5  1  0  0  0  0
 13  2  2  0  0  0  0
 14 15  1  0  0  0  0
 15 20  1  6  0  0  0
 15 11  1  0  0  0  0
 16  3  1  0  0  0  0
 16  7  2  0  0  0  0
 17 12  2  0  0  0  0
 18 19  2  0  0  0  0
 18 22  1  0  0  0  0
 19 21  1  0  0  0  0
 20 23  1  0  0  0  0
 21 23  2  0  0  0  0
 22 20  2  0  0  0  0
 24 18  1  0  0  0  0
 25  9  1  0  0  0  0
 26 25  1  0  0  0  0
 27 26  1  0  0  0  0
 29 30  1  0  0  0  0
 29 27  1  0  0  0  0
 30 28  1  1  0  0  0
 31 32  1  0  0  0  0
 31 34  1  0  0  0  0
 32 33  1  0  0  0  0
 33 29  1  0  0  0  0
 34 30  1  0  0  0  0
M  END
>  <MODEL>
1

>  <REMARK>
 VINA RESULT:      -7.6      0.000      0.000
  Name = 
  5 active torsions:
  status: ('A' for Active; 'I' for Inactive)
    1  A    between atoms: C_3  and  N_13
    2  A    between atoms: C_3  and  O_17
    3  A    between atoms: C_12  and  C_28
    4  A    between atoms: O_17  and  O_29
    5  A    between atoms: C_18  and  O_29
                            x       y       z     vdW  Elec       q    Type
                         _______ _______ _______ _____ _____    ______ ____

>  <TORSDO>
F 5

$$$$
=
 OpenBabel11062407463D

 34 38  0  0  1  0  0  0  0  0999 V2000
  160.8350  207.2710  155.0840 C   0  0  0  0  0  0  0  0  0  0  0  0
  161.0150  205.7200  153.1860 C   0  0  0  0  0  0  0  0  0  0  0  0
  161.3180  208.1440  152.8160 C   0  0  0  0  0  0  0  0  0  0  0  0
  162.3880  209.9630  150.4590 N   0  0  0  0  0  0  0  0  0  0  0  0
  160.6650  208.8330  157.0430 C   0  0  0  0  0  1  0  0  0  0  0  0
  160.7760  204.6170  153.9990 O   0  0  0  0  0  1  0  0  0  0  0  0
  161.4540  206.5450  150.9790 C   0  0  0  0  0  3  0  0  0  0  0  0
  161.0540  207.0370  153.7010 C   0  0  0  0  0  0  0  0  0  0  0  0
  161.7300  208.8590  150.3020 C   0  0  0  0  0  0  0  0  0  0  0  0
  160.5610  206.2240  155.9610 O   0  0  0  0  0  1  0  0  0  0  0  0
  161.3950  209.4440  153.3940 C   0  0  0  0  0  0  0  0  0  0  0  0
  160.8920  208.5650  155.5950 C   0  0  0  0  0  0  0  0  0  0  0  0
  161.2250  205.4900  151.8390 C   0  0  0  0  0  3  0  0  0  0  0  0
  162.7110  210.5090  151.6740 O   0  0  0  0  0  0  0  0  0  0  0  0
  161.7190  210.7000  152.6640 C   0  0  1  0  0  3  0  0  0  0  0  0
  161.4870  207.8750  151.4120 C   0  0  0  0  0  0  0  0  0  0  0  0
  161.1750  209.6280  154.7570 C   0  0  0  0  0  3  0  0  0  0  0  0
  159.4870  213.1030  150.7260 C   0  0  0  0  0  0  0  0  0  0  0  0
  158.2820  212.8380  151.3000 N   0  0  0  0  0  0  0  0  0  0  0  0
  160.5170  211.4500  152.1560 C   0  0  0  0  0  0  0  0  0  0  0  0
  158.1530  211.9100  152.2860 C   0  0  0  0  0  3  0  0  0  0  0  0
  160.6260  212.4150  151.1460 C   0  0  0  0  0  3  0  0  0  0  0  0
  159.2700  211.2020  152.7330 C   0  0  0  0  0  3  0  0  0  0  0  0
  159.5920  214.1270  149.6560 C   0  0  0  0  0  1  0  0  0  0  0  0
  161.3180  208.5610  148.9980 O   0  0  0  0  0  0  0  0  0  0  0  0
  162.1930  208.3000  148.0170 O   0  0  0  0  0  0  0  0  0  0  0  0
  162.3790  206.9190  148.0680 C   0  0  0  0  0  2  0  0  0  0  0  0
  161.6520  204.1030  147.8120 C   0  0  0  0  0  1  0  0  0  0  0  0
  162.1040  206.3350  146.7600 N   0  0  0  0  0  0  0  0  0  0  0  0
  162.4270  204.8940  146.7570 C   0  0  2  0  0  3  0  0  0  0  0  0
  161.4580  205.2210  144.4210 C   0  0  0  0  0  2  0  0  0  0  0  0
  160.2780  205.8920  145.1230 C   0  0  0  0  0  2  0  0  0  0  0  0
  160.6870  206.5560  146.4470 C   0  0  0  0  0  2  0  0  0  0  0  0
  162.1840  204.2700  145.3750 C   0  0  0  0  0  2  0  0  0  0  0  0
  1 12  1  0  0  0  0
  1 10  1  0  0  0  0
  2  8  1  0  0  0  0
  2  6  1  0  0  0  0
  3 11  2  0  0  0  0
  3  8  1  0  0  0  0
  4 14  1  0  0  0  0
  7 16  2  0  0  0  0
  7 13  1  0  0  0  0
  8  1  2  0  0  0  0
  9  4  2  0  0  0  0
  9 16  1  0  0  0  0
 11 17  1  0  0  0  0
 12  5  1  0  0  0  0
 13  2  2  0  0  0  0
 14 15  1  0  0  0  0
 15 20  1  6  0  0  0
 15 11  1  0  0  0  0
 16  3  1  0  0  0  0
 17 12  2  0  0  0  0
 18 22  2  0  0  0  0
 18 19  1  0  0  0  0
 19 21  2  0  0  0  0
 20 23  2  0  0  0  0
 21 23  1  0  0  0  0
 22 20  1  0  0  0  0
 24 18  1  0  0  0  0
 25  9  1  0  0  0  0
 26 27  1  0  0  0  0
 26 25  1  0  0  0  0
 29 27  1  0  0  0  0
 30 29  1  0  0  0  0
 30 28  1  1  0  0  0
 31 32  1  0  0  0  0
 31 34  1  0  0  0  0
 32 33  1  0  0  0  0
 33 29  1  0  0  0  0
 34 30  1  0  0  0  0
M  END
>  <MODEL>
2

>  <REMARK>
 VINA RESULT:      -7.6      2.435      4.030
  Name = 
  5 active torsions:
  status: ('A' for Active; 'I' for Inactive)
    1  A    between atoms: C_3  and  N_13
    2  A    between atoms: C_3  and  O_17
    3  A    between atoms: C_12  and  C_28
    4  A    between atoms: O_17  and  O_29
    5  A    between atoms: C_18  and  O_29
                            x       y       z     vdW  Elec       q    Type
                         _______ _______ _______ _____ _____    ______ ____

>  <TORSDO>
F 5

$$$$
=
 OpenBabel11062407463D

 34 38  0  0  1  0  0  0  0  0999 V2000
  161.0350  205.2390  150.8680 C   0  0  0  0  0  0  0  0  0  0  0  0
  161.2900  206.2650  148.6490 C   0  0  0  0  0  0  0  0  0  0  0  0
  161.5610  207.6530  150.6750 C   0  0  0  0  0  0  0  0  0  0  0  0
  162.6580  210.5510  151.3100 N   0  0  0  0  0  0  0  0  0  0  0  0
  160.7880  204.1620  153.1230 C   0  0  0  0  0  1  0  0  0  0  0  0
  161.0500  205.0560  148.0050 O   0  0  0  0  0  1  0  0  0  0  0  0
  161.7710  208.6040  148.4390 C   0  0  0  0  0  3  0  0  0  0  0  0
  161.2930  206.3770  150.0590 C   0  0  0  0  0  0  0  0  0  0  0  0
  162.0230  210.2190  150.2320 C   0  0  0  0  0  0  0  0  0  0  0  0
  160.7570  203.9970  150.3020 O   0  0  0  0  0  1  0  0  0  0  0  0
  161.6000  207.7000  152.0990 C   0  0  0  0  0  0  0  0  0  0  0  0
  161.0560  205.3440  152.2560 C   0  0  0  0  0  0  0  0  0  0  0  0
  161.5380  207.3720  147.8600 C   0  0  0  0  0  3  0  0  0  0  0  0
  162.9410  209.6920  152.3410 O   0  0  0  0  0  0  0  0  0  0  0  0
  161.9200  208.9010  152.9180 C   0  0  1  0  0  3  0  0  0  0  0  0
  161.7700  208.7950  149.8250 C   0  0  0  0  0  0  0  0  0  0  0  0
  161.3420  206.5580  152.8540 C   0  0  0  0  0  3  0  0  0  0  0  0
  159.0040  211.3510  152.9130 C   0  0  0  0  0  0  0  0  0  0  0  0
  158.5470  211.1930  154.1850 N   0  0  0  0  0  0  0  0  0  0  0  0
  160.7190  209.7030  153.3390 C   0  0  0  0  0  0  0  0  0  0  0  0
  159.1350  210.3230  155.0490 C   0  0  0  0  0  3  0  0  0  0  0  0
  160.1000  210.6110  152.4690 C   0  0  0  0  0  3  0  0  0  0  0  0
  160.2340  209.5640  154.6410 C   0  0  0  0  0  3  0  0  0  0  0  0
  158.3410  212.3160  151.9990 C   0  0  0  0  0  1  0  0  0  0  0  0
  161.6490  211.2690  149.3830 O   0  0  0  0  0  0  0  0  0  0  0  0
  162.5480  211.9620  148.6700 O   0  0  0  0  0  0  0  0  0  0  0  0
  161.8300  213.0380  148.1470 C   0  0  0  0  0  2  0  0  0  0  0  0
  159.4600  214.4520  147.1990 C   0  0  0  0  0  1  0  0  0  0  0  0
  161.1640  212.6340  146.9150 N   0  0  0  0  0  0  0  0  0  0  0  0
  159.7250  212.9630  146.9710 C   0  0  2  0  0  3  0  0  0  0  0  0
  159.9620  212.0430  144.6050 C   0  0  0  0  0  2  0  0  0  0  0  0
  161.1210  213.0280  144.4540 C   0  0  0  0  0  2  0  0  0  0  0  0
  161.8160  213.3200  145.7930 C   0  0  0  0  0  2  0  0  0  0  0  0
  158.9970  212.5060  145.6980 C   0  0  0  0  0  2  0  0  0  0  0  0
  1 12  1  0  0  0  0
  2  8  1  0  0  0  0
  3 11  2  0  0  0  0
  4 14  1  0  0  0  0
  6  2  1  0  0  0  0
  7 16  2  0  0  0  0
  8  3  1  0  0  0  0
  8  1  2  0  0  0  0
  9  4  2  0  0  0  0
 10  1  1  0  0  0  0
 11 17  1  0  0  0  0
 11 15  1  0  0  0  0
 12 17  2  0  0  0  0
 12  5  1  0  0  0  0
 13  7  1  0  0  0  0
 13  2  2  0  0  0  0
 14 15  1  0  0  0  0
 15 20  1  6  0  0  0
 16  9  1  0  0  0  0
 16  3  1  0  0  0  0
 18 19  1  0  0  0  0
 19 21  2  0  0  0  0
 20 23  2  0  0  0  0
 22 18  2  0  0  0  0
 22 20  1  0  0  0  0
 23 21  1  0  0  0  0
 24 18  1  0  0  0  0
 25  9  1  0  0  0  0
 26 25  1  0  0  0  0
 27 26  1  0  0  0  0
 29 30  1  0  0  0  0
 29 27  1  0  0  0  0
 30 28  1  6  0  0  0
 31 34  1  0  0  0  0
 32 31  1  0  0  0  0
 32 33  1  0  0  0  0
 33 29  1  0  0  0  0
 34 30  1  0  0  0  0
M  END
>  <MODEL>
3

>  <REMARK>
 VINA RESULT:      -7.6      2.492      6.728
  Name = 
  5 active torsions:
  status: ('A' for Active; 'I' for Inactive)
    1  A    between atoms: C_3  and  N_13
    2  A    between atoms: C_3  and  O_17
    3  A    between atoms: C_12  and  C_28
    4  A    between atoms: O_17  and  O_29
    5  A    between atoms: C_18  and  O_29
                            x       y       z     vdW  Elec       q    Type
                         _______ _______ _______ _____ _____    ______ ____

>  <TORSDO>
F 5

$$$$
=
 OpenBabel11062407463D

 34 38  0  0  1  0  0  0  0  0999 V2000
  161.1670  205.6760  151.3710 C   0  0  0  0  0  0  0  0  0  0  0  0
  161.2590  205.8740  148.9230 C   0  0  0  0  0  0  0  0  0  0  0  0
  161.5700  207.8850  150.3230 C   0  0  0  0  0  0  0  0  0  0  0  0
  162.5630  210.8510  149.8470 N   0  0  0  0  0  0  0  0  0  0  0  0
  161.0880  205.4430  153.8700 C   0  0  0  0  0  1  0  0  0  0  0  0
  161.0420  204.5100  148.7530 O   0  0  0  0  0  1  0  0  0  0  0  0
  161.6190  208.0060  147.8880 C   0  0  0  0  0  3  0  0  0  0  0  0
  161.3300  206.4680  150.2050 C   0  0  0  0  0  0  0  0  0  0  0  0
  161.8900  210.1490  148.9930 C   0  0  0  0  0  0  0  0  0  0  0  0
  160.9180  204.3070  151.2880 O   0  0  0  0  0  1  0  0  0  0  0  0
  161.6810  208.4240  151.6380 C   0  0  0  0  0  0  0  0  0  0  0  0
  161.2560  206.2570  152.6340 C   0  0  0  0  0  0  0  0  0  0  0  0
  161.4140  206.6440  147.7860 C   0  0  0  0  0  3  0  0  0  0  0  0
  162.9380  210.4100  151.0900 O   0  0  0  0  0  0  0  0  0  0  0  0
  161.9870  209.8430  151.9700 C   0  0  1  0  0  3  0  0  0  0  0  0
  161.6810  208.6660  149.1200 C   0  0  0  0  0  0  0  0  0  0  0  0
  161.5160  207.6090  152.7560 C   0  0  0  0  0  3  0  0  0  0  0  0
  159.5350  212.7520  151.7960 C   0  0  0  0  0  0  0  0  0  0  0  0
  158.5420  212.2860  152.6030 N   0  0  0  0  0  0  0  0  0  0  0  0
  160.7740  210.7110  152.1650 C   0  0  0  0  0  0  0  0  0  0  0  0
  158.6250  211.0680  153.2000 C   0  0  0  0  0  3  0  0  0  0  0  0
  160.6690  211.9730  151.5650 C   0  0  0  0  0  3  0  0  0  0  0  0
  159.7440  210.2590  152.9930 C   0  0  0  0  0  3  0  0  0  0  0  0
  159.4130  214.0910  151.1650 C   0  0  0  0  0  1  0  0  0  0  0  0
  161.4240  210.8280  147.8610 O   0  0  0  0  0  0  0  0  0  0  0  0
  160.8230  212.0230  147.9450 O   0  0  0  0  0  0  0  0  0  0  0  0
  161.1310  212.6600  146.7430 C   0  0  0  0  0  2  0  0  0  0  0  0
  160.0560  212.0080  144.1090 C   0  0  0  0  0  1  0  0  0  0  0  0
  159.9490  213.3430  146.2300 N   0  0  0  0  0  0  0  0  0  0  0  0
  159.9800  213.3930  144.7540 C   0  0  2  0  0  3  0  0  0  0  0  0
  157.7190  214.4520  145.2680 C   0  0  0  0  0  2  0  0  0  0  0  0
  157.4620  213.2210  146.1380 C   0  0  0  0  0  2  0  0  0  0  0  0
  158.7610  212.6270  146.7060 C   0  0  0  0  0  2  0  0  0  0  0  0
  158.7650  214.1470  144.1950 C   0  0  0  0  0  2  0  0  0  0  0  0
  1 12  1  0  0  0  0
  2  8  1  0  0  0  0
  3 11  2  0  0  0  0
  4 14  1  0  0  0  0
  6  2  1  0  0  0  0
  7 16  2  0  0  0  0
  8  3  1  0  0  0  0
  8  1  2  0  0  0  0
  9 16  1  0  0  0  0
  9  4  2  0  0  0  0
 10  1  1  0  0  0  0
 11 15  1  0  0  0  0
 11 17  1  0  0  0  0
 12 17  2  0  0  0  0
 12  5  1  0  0  0  0
 13  7  1  0  0  0  0
 13  2  2  0  0  0  0
 14 15  1  0  0  0  0
 15 20  1  6  0  0  0
 16  3  1  0  0  0  0
 18 19  1  0  0  0  0
 19 21  2  0  0  0  0
 20 23  2  0  0  0  0
 22 18  2  0  0  0  0
 22 20  1  0  0  0  0
 23 21  1  0  0  0  0
 24 18  1  0  0  0  0
 25 26  1  0  0  0  0
 25  9  1  0  0  0  0
 27 26  1  0  0  0  0
 29 33  1  0  0  0  0
 29 27  1  0  0  0  0
 30 28  1  6  0  0  0
 30 29  1  0  0  0  0
 31 32  1  0  0  0  0
 32 33  1  0  0  0  0
 34 30  1  0  0  0  0
 34 31  1  0  0  0  0
M  END
>  <MODEL>
4

>  <REMARK>
 VINA RESULT:      -7.2      2.287      6.355
  Name = 
  5 active torsions:
  status: ('A' for Active; 'I' for Inactive)
    1  A    between atoms: C_3  and  N_13
    2  A    between atoms: C_3  and  O_17
    3  A    between atoms: C_12  and  C_28
    4  A    between atoms: O_17  and  O_29
    5  A    between atoms: C_18  and  O_29
                            x       y       z     vdW  Elec       q    Type
                         _______ _______ _______ _____ _____    ______ ____

>  <TORSDO>
F 5

$$$$
=
 OpenBabel11062407463D

 34 38  0  0  1  0  0  0  0  0999 V2000
  160.3580  210.4900  153.1370 C   0  0  0  0  0  0  0  0  0  0  0  0
  159.9230  208.7180  154.7830 C   0  0  0  0  0  0  0  0  0  0  0  0
  161.2040  208.1970  152.7370 C   0  0  0  0  0  0  0  0  0  0  0  0
  162.9760  205.7790  151.7240 N   0  0  0  0  0  0  0  0  0  0  0  0
  160.8060  212.3240  151.4800 C   0  0  0  0  0  1  0  0  0  0  0  0
  159.2340  209.5920  155.6190 O   0  0  0  0  0  1  0  0  0  0  0  0
  160.7070  206.4860  154.4030 C   0  0  0  0  0  3  0  0  0  0  0  0
  160.4890  209.1420  153.5580 C   0  0  0  0  0  0  0  0  0  0  0  0
  161.9250  205.6650  152.4710 C   0  0  0  0  0  0  0  0  0  0  0  0
  159.6590  211.4230  153.9010 O   0  0  0  0  0  1  0  0  0  0  0  0
  161.7970  208.6860  151.5370 C   0  0  0  0  0  0  0  0  0  0  0  0
  160.9320  210.9130  151.9410 C   0  0  0  0  0  0  0  0  0  0  0  0
  160.0470  207.4040  155.1940 C   0  0  0  0  0  3  0  0  0  0  0  0
  163.4700  206.9690  151.2550 O   0  0  0  0  0  0  0  0  0  0  0  0
  162.6240  207.8880  150.5910 C   0  0  1  0  0  3  0  0  0  0  0  0
  161.2770  206.8260  153.1710 C   0  0  0  0  0  0  0  0  0  0  0  0
  161.6450  210.0190  151.1630 C   0  0  0  0  0  3  0  0  0  0  0  0
  161.6860  206.4110  147.2080 C   0  0  0  0  0  0  0  0  0  0  0  0
  160.3610  206.1700  147.4030 N   0  0  0  0  0  0  0  0  0  0  0  0
  161.8490  207.2650  149.4620 C   0  0  0  0  0  0  0  0  0  0  0  0
  159.7520  206.4580  148.5840 C   0  0  0  0  0  3  0  0  0  0  0  0
  162.4530  206.9650  148.2330 C   0  0  0  0  0  3  0  0  0  0  0  0
  160.4860  207.0140  149.6340 C   0  0  0  0  0  3  0  0  0  0  0  0
  162.3160  206.0890  145.9020 C   0  0  0  0  0  1  0  0  0  0  0  0
  161.4540  204.3640  152.6860 O   0  0  0  0  0  0  0  0  0  0  0  0
  160.6540  203.7440  151.8070 O   0  0  0  0  0  0  0  0  0  0  0  0
  161.2040  202.4700  151.6660 C   0  0  0  0  0  2  0  0  0  0  0  0
  159.2950  200.9420  150.0730 C   0  0  0  0  0  1  0  0  0  0  0  0
  161.4590  202.1960  150.2570 N   0  0  0  0  0  0  0  0  0  0  0  0
  160.8070  200.9350  149.8480 C   0  0  2  0  0  3  0  0  0  0  0  0
  161.7860  201.7600  147.6430 C   0  0  0  0  0  2  0  0  0  0  0  0
  161.0960  203.0870  147.9590 C   0  0  0  0  0  2  0  0  0  0  0  0
  160.9550  203.3270  149.4700 C   0  0  0  0  0  2  0  0  0  0  0  0
  161.1000  200.6060  148.3770 C   0  0  0  0  0  2  0  0  0  0  0  0
  1  8  1  0  0  0  0
  1 10  1  0  0  0  0
  2 13  1  0  0  0  0
  2  6  1  0  0  0  0
  3 16  2  0  0  0  0
  3  8  1  0  0  0  0
  4  9  2  0  0  0  0
  5 12  1  0  0  0  0
  7 13  2  0  0  0  0
  8  2  2  0  0  0  0
  9 25  1  0  0  0  0
  9 16  1  0  0  0  0
 11  3  1  0  0  0  0
 12  1  2  0  0  0  0
 14  4  1  0  0  0  0
 15 20  1  6  0  0  0
 15 14  1  0  0  0  0
 15 11  1  0  0  0  0
 16  7  1  0  0  0  0
 17 11  2  0  0  0  0
 17 12  1  0  0  0  0
 18 19  2  0  0  0  0
 18 22  1  0  0  0  0
 19 21  1  0  0  0  0
 20 23  1  0  0  0  0
 21 23  2  0  0  0  0
 22 20  2  0  0  0  0
 24 18  1  0  0  0  0
 26 25  1  0  0  0  0
 27 26  1  0  0  0  0
 29 27  1  0  0  0  0
 30 28  1  6  0  0  0
 30 29  1  0  0  0  0
 31 32  1  0  0  0  0
 31 34  1  0  0  0  0
 32 33  1  0  0  0  0
 33 29  1  0  0  0  0
 34 30  1  0  0  0  0
M  END
>  <MODEL>
5

>  <REMARK>
 VINA RESULT:      -7.0      3.313      5.041
  Name = 
  5 active torsions:
  status: ('A' for Active; 'I' for Inactive)
    1  A    between atoms: C_3  and  N_13
    2  A    between atoms: C_3  and  O_17
    3  A    between atoms: C_12  and  C_28
    4  A    between atoms: O_17  and  O_29
    5  A    between atoms: C_18  and  O_29
                            x       y       z     vdW  Elec       q    Type
                         _______ _______ _______ _____ _____    ______ ____

>  <TORSDO>
F 5

$$$$
=
 OpenBabel11062407463D

 34 38  0  0  1  0  0  0  0  0999 V2000
  158.8060  212.5020  153.3070 C   0  0  0  0  0  0  0  0  0  0  0  0
  160.3570  210.5960  153.3430 C   0  0  0  0  0  0  0  0  0  0  0  0
  160.2800  212.0700  151.3630 C   0  0  0  0  0  0  0  0  0  0  0  0
  162.0650  212.5070  148.7880 N   0  0  0  0  0  0  0  0  0  0  0  0
  157.2260  214.4530  153.3040 C   0  0  0  0  0  1  0  0  0  0  0  0
  159.9490  210.2210  154.6190 O   0  0  0  0  0  1  0  0  0  0  0  0
  161.7720  210.1430  151.4620 C   0  0  0  0  0  3  0  0  0  0  0  0
  159.8100  211.7190  152.6800 C   0  0  0  0  0  0  0  0  0  0  0  0
  161.8690  211.3670  149.3690 C   0  0  0  0  0  0  0  0  0  0  0  0
  158.3210  212.1780  154.5730 O   0  0  0  0  0  1  0  0  0  0  0  0
  159.7320  213.2400  150.7600 C   0  0  0  0  0  0  0  0  0  0  0  0
  158.2810  213.6190  152.6640 C   0  0  0  0  0  0  0  0  0  0  0  0
  161.3330  209.8310  152.7330 C   0  0  0  0  0  3  0  0  0  0  0  0
  161.5180  213.6940  149.2020 O   0  0  0  0  0  0  0  0  0  0  0  0
  160.1280  213.8010  149.4400 C   0  0  1  0  0  3  0  0  0  0  0  0
  161.2640  211.2280  150.7370 C   0  0  0  0  0  0  0  0  0  0  0  0
  158.7480  213.9790  151.4130 C   0  0  0  0  0  3  0  0  0  0  0  0
  159.0480  212.5850  145.9960 C   0  0  0  0  0  0  0  0  0  0  0  0
  157.7030  212.4900  146.1790 N   0  0  0  0  0  0  0  0  0  0  0  0
  159.2940  213.3200  148.2850 C   0  0  0  0  0  0  0  0  0  0  0  0
  157.1240  212.7970  147.3700 C   0  0  0  0  0  3  0  0  0  0  0  0
  159.8670  213.0040  147.0450 C   0  0  0  0  0  3  0  0  0  0  0  0
  157.9100  213.2200  148.4440 C   0  0  0  0  0  3  0  0  0  0  0  0
  159.6460  212.2470  144.6790 C   0  0  0  0  0  1  0  0  0  0  0  0
  162.3410  210.2350  148.6910 O   0  0  0  0  0  0  0  0  0  0  0  0
  161.5190  209.2650  148.2690 O   0  0  0  0  0  0  0  0  0  0  0  0
  162.2520  208.0890  148.4210 C   0  0  0  0  0  2  0  0  0  0  0  0
  161.9670  205.1930  148.1870 C   0  0  0  0  0  1  0  0  0  0  0  0
  161.7020  207.3020  149.5190 N   0  0  0  0  0  0  0  0  0  0  0  0
  161.0350  206.0890  149.0030 C   0  0  2  0  0  3  0  0  0  0  0  0
  160.8260  205.7730  151.5250 C   0  0  0  0  0  2  0  0  0  0  0  0
  162.3310  206.0390  151.5730 C   0  0  0  0  0  2  0  0  0  0  0  0
  162.7990  206.9510  150.4290 C   0  0  0  0  0  2  0  0  0  0  0  0
  160.4110  205.2680  150.1420 C   0  0  0  0  0  2  0  0  0  0  0  0
  1 10  1  0  0  0  0
  2  6  1  0  0  0  0
  3  8  1  0  0  0  0
  4 14  1  0  0  0  0
  4  9  2  0  0  0  0
  7 13  2  0  0  0  0
  8  1  1  0  0  0  0
  8  2  2  0  0  0  0
  9 16  1  0  0  0  0
 11  3  1  0  0  0  0
 11 17  2  0  0  0  0
 12  5  1  0  0  0  0
 12  1  2  0  0  0  0
 13  2  1  0  0  0  0
 14 15  1  0  0  0  0
 15 20  1  6  0  0  0
 15 11  1  0  0  0  0
 16  3  2  0  0  0  0
 16  7  1  0  0  0  0
 17 12  1  0  0  0  0
 18 19  2  0  0  0  0
 18 22  1  0  0  0  0
 19 21  1  0  0  0  0
 20 23  1  0  0  0  0
 21 23  2  0  0  0  0
 22 20  2  0  0  0  0
 24 18  1  0  0  0  0
 25  9  1  0  0  0  0
 26 27  1  0  0  0  0
 26 25  1  0  0  0  0
 27 29  1  0  0  0  0
 29 33  1  0  0  0  0
 30 28  1  1  0  0  0
 30 29  1  0  0  0  0
 30 34  1  0  0  0  0
 31 32  1  0  0  0  0
 33 32  1  0  0  0  0
 34 31  1  0  0  0  0
M  END
>  <MODEL>
6

>  <REMARK>
 VINA RESULT:      -6.7      1.441      2.288
  Name = 
  5 active torsions:
  status: ('A' for Active; 'I' for Inactive)
    1  A    between atoms: C_3  and  N_13
    2  A    between atoms: C_3  and  O_17
    3  A    between atoms: C_12  and  C_28
    4  A    between atoms: O_17  and  O_29
    5  A    between atoms: C_18  and  O_29
                            x       y       z     vdW  Elec       q    Type
                         _______ _______ _______ _____ _____    ______ ____

>  <TORSDO>
F 5

$$$$
=
 OpenBabel11062407463D

 34 38  0  0  1  0  0  0  0  0999 V2000
  160.9620  205.0110  150.8360 C   0  0  0  0  0  0  0  0  0  0  0  0
  161.1050  205.9270  148.5600 C   0  0  0  0  0  0  0  0  0  0  0  0
  161.5010  207.4050  150.4990 C   0  0  0  0  0  0  0  0  0  0  0  0
  162.6620  210.3160  150.9330 N   0  0  0  0  0  0  0  0  0  0  0  0
  160.8300  204.0450  153.1500 C   0  0  0  0  0  1  0  0  0  0  0  0
  160.8160  204.6920  147.9890 O   0  0  0  0  0  1  0  0  0  0  0  0
  161.5970  208.2470  148.2120 C   0  0  0  0  0  3  0  0  0  0  0  0
  161.1860  206.1050  149.9610 C   0  0  0  0  0  0  0  0  0  0  0  0
  161.9650  209.9420  149.9090 C   0  0  0  0  0  0  0  0  0  0  0  0
  160.6400  203.7460  150.3460 O   0  0  0  0  0  1  0  0  0  0  0  0
  161.6200  207.5190  151.9150 C   0  0  0  0  0  0  0  0  0  0  0  0
  161.0620  205.1800  152.2150 C   0  0  0  0  0  0  0  0  0  0  0  0
  161.3190  206.9930  147.7060 C   0  0  0  0  0  3  0  0  0  0  0  0
  162.9930  209.5030  151.9870 O   0  0  0  0  0  0  0  0  0  0  0  0
  161.9980  208.7530  152.6560 C   0  0  1  0  0  3  0  0  0  0  0  0
  161.6750  208.5030  149.5850 C   0  0  0  0  0  0  0  0  0  0  0  0
  161.3930  206.4170  152.7360 C   0  0  0  0  0  3  0  0  0  0  0  0
  159.3460  210.4330  154.8130 C   0  0  0  0  0  0  0  0  0  0  0  0
  158.6420  211.1030  153.8610 N   0  0  0  0  0  0  0  0  0  0  0  0
  160.8310  209.5900  153.1040 C   0  0  0  0  0  0  0  0  0  0  0  0
  158.9870  211.0420  152.5480 C   0  0  0  0  0  3  0  0  0  0  0  0
  160.4510  209.6630  154.4510 C   0  0  0  0  0  3  0  0  0  0  0  0
  160.0870  210.2820  152.1460 C   0  0  0  0  0  3  0  0  0  0  0  0
  158.9360  210.5170  156.2390 C   0  0  0  0  0  1  0  0  0  0  0  0
  161.5560  210.9550  149.0330 O   0  0  0  0  0  0  0  0  0  0  0  0
  161.5830  212.2490  149.3790 O   0  0  0  0  0  0  0  0  0  0  0  0
  161.1930  212.9320  148.2270 C   0  0  0  0  0  2  0  0  0  0  0  0
  159.7570  214.4280  150.2810 C   0  0  0  0  0  1  0  0  0  0  0  0
  159.7400  213.0460  148.1880 N   0  0  0  0  0  0  0  0  0  0  0  0
  159.1960  213.2060  149.5520 C   0  0  2  0  0  3  0  0  0  0  0  0
  157.0960  213.4110  148.1200 C   0  0  0  0  0  2  0  0  0  0  0  0
  157.8770  214.4530  147.3180 C   0  0  0  0  0  2  0  0  0  0  0  0
  159.3920  214.1950  147.3450 C   0  0  0  0  0  2  0  0  0  0  0  0
  157.6630  213.2840  149.5360 C   0  0  0  0  0  2  0  0  0  0  0  0
  1 12  1  0  0  0  0
  2  8  1  0  0  0  0
  3 11  2  0  0  0  0
  4 14  1  0  0  0  0
  6  2  1  0  0  0  0
  7 16  2  0  0  0  0
  8  3  1  0  0  0  0
  8  1  2  0  0  0  0
  9  4  2  0  0  0  0
 10  1  1  0  0  0  0
 11 15  1  0  0  0  0
 11 17  1  0  0  0  0
 12 17  2  0  0  0  0
 12  5  1  0  0  0  0
 13  7  1  0  0  0  0
 13  2  2  0  0  0  0
 14 15  1  0  0  0  0
 15 20  1  6  0  0  0
 16  9  1  0  0  0  0
 16  3  1  0  0  0  0
 18 24  1  0  0  0  0
 19 18  2  0  0  0  0
 20 22  2  0  0  0  0
 21 19  1  0  0  0  0
 22 18  1  0  0  0  0
 23 21  2  0  0  0  0
 23 20  1  0  0  0  0
 25 26  1  0  0  0  0
 25  9  1  0  0  0  0
 27 26  1  0  0  0  0
 29 27  1  0  0  0  0
 29 30  1  0  0  0  0
 30 28  1  6  0  0  0
 31 34  1  0  0  0  0
 32 33  1  0  0  0  0
 32 31  1  0  0  0  0
 33 29  1  0  0  0  0
 34 30  1  0  0  0  0
M  END
>  <MODEL>
7

>  <REMARK>
 VINA RESULT:      -6.5      2.647      7.289
  Name = 
  5 active torsions:
  status: ('A' for Active; 'I' for Inactive)
    1  A    between atoms: C_3  and  N_13
    2  A    between atoms: C_3  and  O_17
    3  A    between atoms: C_12  and  C_28
    4  A    between atoms: O_17  and  O_29
    5  A    between atoms: C_18  and  O_29
                            x       y       z     vdW  Elec       q    Type
                         _______ _______ _______ _____ _____    ______ ____

>  <TORSDO>
F 5

$$$$
=
 OpenBabel11062407463D

 34 38  0  0  1  0  0  0  0  0999 V2000
  160.5370  209.3660  156.0230 C   0  0  0  0  0  0  0  0  0  0  0  0
  160.5150  207.1550  154.9510 C   0  0  0  0  0  0  0  0  0  0  0  0
  160.9930  209.1640  153.5970 C   0  0  0  0  0  0  0  0  0  0  0  0
  162.1050  209.7280  150.6890 N   0  0  0  0  0  0  0  0  0  0  0  0
  160.5730  211.6120  157.1470 C   0  0  0  0  0  1  0  0  0  0  0  0
  160.2230  206.5180  156.1530 O   0  0  0  0  0  1  0  0  0  0  0  0
  160.9250  206.9390  152.6000 C   0  0  0  0  0  3  0  0  0  0  0  0
  160.6790  208.5570  154.8660 C   0  0  0  0  0  0  0  0  0  0  0  0
  161.3550  208.7240  151.0130 C   0  0  0  0  0  0  0  0  0  0  0  0
  160.2170  208.8100  157.2610 O   0  0  0  0  0  1  0  0  0  0  0  0
  161.1970  210.5750  153.5750 C   0  0  0  0  0  0  0  0  0  0  0  0
  160.7180  210.7450  155.9440 C   0  0  0  0  0  0  0  0  0  0  0  0
  160.6490  206.3660  153.8250 C   0  0  0  0  0  3  0  0  0  0  0  0
  162.5210  210.7010  151.5610 O   0  0  0  0  0  0  0  0  0  0  0  0
  161.5890  211.3760  152.3830 C   0  0  1  0  0  3  0  0  0  0  0  0
  161.0820  208.3200  152.4340 C   0  0  0  0  0  0  0  0  0  0  0  0
  161.0500  211.3300  154.7360 C   0  0  0  0  0  3  0  0  0  0  0  0
  159.4980  213.0430  149.6710 C   0  0  0  0  0  0  0  0  0  0  0  0
  158.2740  213.0400  150.2670 N   0  0  0  0  0  0  0  0  0  0  0  0
  160.4310  211.9500  151.6130 C   0  0  0  0  0  0  0  0  0  0  0  0
  158.0890  212.5180  151.5080 C   0  0  0  0  0  3  0  0  0  0  0  0
  160.5980  212.5000  150.3350 C   0  0  0  0  0  3  0  0  0  0  0  0
  159.1660  211.9650  152.2050 C   0  0  0  0  0  3  0  0  0  0  0  0
  159.6650  213.6280  148.3160 C   0  0  0  0  0  1  0  0  0  0  0  0
  160.8660  207.9470  149.9560 O   0  0  0  0  0  0  0  0  0  0  0  0
  161.6760  207.2230  149.1710 O   0  0  0  0  0  0  0  0  0  0  0  0
  160.8260  206.6230  148.2420 C   0  0  0  0  0  2  0  0  0  0  0  0
  162.6910  204.6530  147.1650 C   0  0  0  0  0  1  0  0  0  0  0  0
  160.6760  205.2070  148.5530 N   0  0  0  0  0  0  0  0  0  0  0  0
  161.2160  204.3760  147.4570 C   0  0  2  0  0  3  0  0  0  0  0  0
  160.5520  202.6130  149.1760 C   0  0  0  0  0  2  0  0  0  0  0  0
  161.3560  203.4420  150.1770 C   0  0  0  0  0  2  0  0  0  0  0  0
  161.3790  204.9350  149.8120 C   0  0  0  0  0  2  0  0  0  0  0  0
  161.0280  202.8790  147.7470 C   0  0  0  0  0  2  0  0  0  0  0  0
  1 10  1  0  0  0  0
  2  6  1  0  0  0  0
  3  8  1  0  0  0  0
  4  9  2  0  0  0  0
  4 14  1  0  0  0  0
  7 13  1  0  0  0  0
  8  2  1  0  0  0  0
  8  1  2  0  0  0  0
  9 16  1  0  0  0  0
 11  3  2  0  0  0  0
 11 17  1  0  0  0  0
 12  1  1  0  0  0  0
 12  5  1  0  0  0  0
 13  2  2  0  0  0  0
 14 15  1  0  0  0  0
 15 20  1  6  0  0  0
 15 11  1  0  0  0  0
 16  7  2  0  0  0  0
 16  3  1  0  0  0  0
 17 12  2  0  0  0  0
 18 19  2  0  0  0  0
 18 22  1  0  0  0  0
 19 21  1  0  0  0  0
 20 23  1  0  0  0  0
 21 23  2  0  0  0  0
 22 20  2  0  0  0  0
 24 18  1  0  0  0  0
 25  9  1  0  0  0  0
 26 25  1  0  0  0  0
 27 29  1  0  0  0  0
 27 26  1  0  0  0  0
 29 33  1  0  0  0  0
 30 28  1  1  0  0  0
 30 34  1  0  0  0  0
 30 29  1  0  0  0  0
 31 32  1  0  0  0  0
 33 32  1  0  0  0  0
 34 31  1  0  0  0  0
M  END
>  <MODEL>
8

>  <REMARK>
 VINA RESULT:      -6.5      2.317      3.750
  Name = 
  5 active torsions:
  status: ('A' for Active; 'I' for Inactive)
    1  A    between atoms: C_3  and  N_13
    2  A    between atoms: C_3  and  O_17
    3  A    between atoms: C_12  and  C_28
    4  A    between atoms: O_17  and  O_29
    5  A    between atoms: C_18  and  O_29
                            x       y       z     vdW  Elec       q    Type
                         _______ _______ _______ _____ _____    ______ ____

>  <TORSDO>
F 5

$$$$
=
 OpenBabel11062407463D

 34 38  0  0  1  0  0  0  0  0999 V2000
  160.9630  203.2160  149.5880 C   0  0  0  0  0  0  0  0  0  0  0  0
  160.7570  204.6000  147.5670 C   0  0  0  0  0  0  0  0  0  0  0  0
  161.5780  205.6150  149.6640 C   0  0  0  0  0  0  0  0  0  0  0  0
  162.9720  208.3380  150.4720 N   0  0  0  0  0  0  0  0  0  0  0  0
  161.1830  201.7760  151.6340 C   0  0  0  0  0  1  0  0  0  0  0  0
  160.2980  203.5230  146.8150 O   0  0  0  0  0  1  0  0  0  0  0  0
  161.3200  206.9290  147.6260 C   0  0  0  0  0  3  0  0  0  0  0  0
  161.0950  204.4690  148.9350 C   0  0  0  0  0  0  0  0  0  0  0  0
  162.0840  208.2090  149.5400 C   0  0  0  0  0  0  0  0  0  0  0  0
  160.4830  202.0950  148.9140 O   0  0  0  0  0  1  0  0  0  0  0  0
  161.9520  205.4180  151.0250 C   0  0  0  0  0  0  0  0  0  0  0  0
  161.3140  203.0820  150.9290 C   0  0  0  0  0  0  0  0  0  0  0  0
  160.8820  205.8200  146.9300 C   0  0  0  0  0  3  0  0  0  0  0  0
  163.4340  207.3090  151.2530 O   0  0  0  0  0  0  0  0  0  0  0  0
  162.5290  206.4540  151.9250 C   0  0  1  0  0  3  0  0  0  0  0  0
  161.6540  206.8810  148.9830 C   0  0  0  0  0  0  0  0  0  0  0  0
  161.8070  204.1690  151.6270 C   0  0  0  0  0  3  0  0  0  0  0  0
  160.1620  209.1500  153.2030 C   0  0  0  0  0  0  0  0  0  0  0  0
  159.6800  208.5450  154.3230 N   0  0  0  0  0  0  0  0  0  0  0  0
  161.5120  207.1990  152.7450 C   0  0  0  0  0  0  0  0  0  0  0  0
  160.0810  207.2970  154.6850 C   0  0  0  0  0  3  0  0  0  0  0  0
  161.0890  208.4890  152.3960 C   0  0  0  0  0  3  0  0  0  0  0  0
  161.0070  206.6030  153.9030 C   0  0  0  0  0  3  0  0  0  0  0  0
  159.7060  210.5170  152.8420 C   0  0  0  0  0  1  0  0  0  0  0  0
  161.5890  209.3950  148.9860 O   0  0  0  0  0  0  0  0  0  0  0  0
  162.3670  210.2340  148.2880 O   0  0  0  0  0  0  0  0  0  0  0  0
  161.9600  211.5080  148.6850 C   0  0  0  0  0  2  0  0  0  0  0  0
  160.9030  214.2120  148.9850 C   0  0  0  0  0  1  0  0  0  0  0  0
  161.5140  212.2680  147.5230 N   0  0  0  0  0  0  0  0  0  0  0  0
  160.4560  213.2260  147.9050 C   0  0  2  0  0  3  0  0  0  0  0  0
  160.7970  213.7740  145.4390 C   0  0  0  0  0  2  0  0  0  0  0  0
  162.2850  213.8700  145.7770 C   0  0  0  0  0  2  0  0  0  0  0  0
  162.6740  212.9650  146.9560 C   0  0  0  0  0  2  0  0  0  0  0  0
  159.9430  214.0060  146.6860 C   0  0  0  0  0  2  0  0  0  0  0  0
  1 12  1  0  0  0  0
  2  8  1  0  0  0  0
  3 11  2  0  0  0  0
  4 14  1  0  0  0  0
  6  2  1  0  0  0  0
  7 16  2  0  0  0  0
  8  1  2  0  0  0  0
  8  3  1  0  0  0  0
  9  4  2  0  0  0  0
 10  1  1  0  0  0  0
 11 17  1  0  0  0  0
 11 15  1  0  0  0  0
 12 17  2  0  0  0  0
 12  5  1  0  0  0  0
 13  2  2  0  0  0  0
 13  7  1  0  0  0  0
 14 15  1  0  0  0  0
 15 20  1  6  0  0  0
 16  9  1  0  0  0  0
 16  3  1  0  0  0  0
 18 19  1  0  0  0  0
 19 21  2  0  0  0  0
 20 23  2  0  0  0  0
 22 20  1  0  0  0  0
 22 18  2  0  0  0  0
 23 21  1  0  0  0  0
 24 18  1  0  0  0  0
 25  9  1  0  0  0  0
 26 27  1  0  0  0  0
 26 25  1  0  0  0  0
 29 30  1  0  0  0  0
 29 27  1  0  0  0  0
 30 28  1  1  0  0  0
 31 32  1  0  0  0  0
 31 34  1  0  0  0  0
 32 33  1  0  0  0  0
 33 29  1  0  0  0  0
 34 30  1  0  0  0  0
M  END
>  <MODEL>
9

>  <REMARK>
 VINA RESULT:      -6.0      2.831      7.902
  Name = 
  5 active torsions:
  status: ('A' for Active; 'I' for Inactive)
    1  A    between atoms: C_3  and  N_13
    2  A    between atoms: C_3  and  O_17
    3  A    between atoms: C_12  and  C_28
    4  A    between atoms: O_17  and  O_29
    5  A    between atoms: C_18  and  O_29
                            x       y       z     vdW  Elec       q    Type
                         _______ _______ _______ _____ _____    ______ ____

>  <TORSDO>
F 5

$$$$
