=
 OpenBabel11052422093D

 25 28  0  0  1  0  0  0  0  0999 V2000
  161.6370  206.8110  148.2290 C   0  0  0  0  0  0  0  0  0  0  0  0
  161.4220  206.0920  149.4180 C   0  0  0  0  0  0  0  0  0  0  0  0
  162.2690  208.7340  149.5530 C   0  0  0  0  0  3  0  0  0  0  0  0
  160.4260  202.6970  150.4620 N   0  0  0  0  0  2  0  0  0  0  0  0
  162.0410  208.0300  150.6920 N   0  0  0  0  0  0  0  0  0  0  0  0
  161.4080  206.0120  151.8420 C   0  0  0  0  0  0  0  0  0  0  0  0
  161.6030  206.6390  153.1810 C   0  0  0  0  0  1  0  0  0  0  0  0
  161.0370  204.7870  149.3890 N   0  0  0  0  0  0  0  0  0  0  0  0
  162.0760  208.1380  148.3050 C   0  0  0  0  0  3  0  0  0  0  0  0
  161.0070  204.6750  151.7720 C   0  0  0  0  0  3  0  0  0  0  0  0
  160.8270  204.0700  150.5270 C   0  0  0  0  0  0  0  0  0  0  0  0
  161.6270  206.7330  150.6590 C   0  0  0  0  0  0  0  0  0  0  0  0
  161.4340  206.1950  146.9040 C   0  0  0  0  0  0  0  0  0  0  0  0
  160.9850  205.0730  144.3730 C   0  0  0  0  0  3  0  0  0  0  0  0
  162.4120  205.3690  146.3100 C   0  0  0  0  0  0  0  0  0  0  0  0
  162.1790  204.8140  145.0480 C   0  0  0  0  0  3  0  0  0  0  0  0
  160.0110  205.8830  144.9600 C   0  0  0  0  0  3  0  0  0  0  0  0
  163.9130  204.9620  147.1320 Cl  0  0  0  0  0  0  0  0  0  0  0  0
  160.2340  206.4380  146.2230 C   0  0  0  0  0  3  0  0  0  0  0  0
  160.9860  201.7910  146.8070 C   0  0  0  0  0  2  0  0  0  0  0  0
  160.7750  200.5150  149.3530 C   0  0  0  0  0  2  0  0  0  0  0  0
  161.3860  200.3580  147.1950 C   0  0  0  0  0  2  0  0  0  0  0  0
  160.2330  201.9500  149.2230 C   0  0  2  0  0  3  0  0  0  0  0  0
  161.8820  200.3050  148.5100 O   0  0  0  0  0  0  0  0  0  0  0  0
  160.8460  202.6970  148.0330 C   0  0  0  0  0  2  0  0  0  0  0  0
  1  9  2  0  0  0  0
  1  2  1  0  0  0  0
  2 12  2  0  0  0  0
  3  5  2  0  0  0  0
  4 11  1  0  0  0  0
  6  7  1  0  0  0  0
  8  2  1  0  0  0  0
  8 11  2  0  0  0  0
  9  3  1  0  0  0  0
 10  6  2  0  0  0  0
 11 10  1  0  0  0  0
 12  5  1  0  0  0  0
 12  6  1  0  0  0  0
 13  1  1  0  0  0  0
 14 17  2  0  0  0  0
 14 16  1  0  0  0  0
 15 13  1  0  0  0  0
 15 18  1  0  0  0  0
 16 15  2  0  0  0  0
 17 19  1  0  0  0  0
 19 13  2  0  0  0  0
 20 22  1  0  0  0  0
 20 25  1  0  0  0  0
 22 24  1  0  0  0  0
 23 21  1  0  0  0  0
 23  4  1  1  0  0  0
 24 21  1  0  0  0  0
 25 23  1  0  0  0  0
M  END
>  <MODEL>
1

>  <REMARK>
 VINA RESULT:      -8.7      0.000      0.000
  Name = 
  2 active torsions:
  status: ('A' for Active; 'I' for Inactive)
    1  A    between atoms: C_1  and  C_5
    2  A    between atoms: N_6  and  C_15
                            x       y       z     vdW  Elec       q    Type
                         _______ _______ _______ _____ _____    ______ ____

>  <TORSDO>
F 2

$$$$
=
 OpenBabel11052422093D

 25 28  0  0  1  0  0  0  0  0999 V2000
  161.5040  206.5070  149.8800 C   0  0  0  0  0  0  0  0  0  0  0  0
  161.6020  207.7820  150.4640 C   0  0  0  0  0  0  0  0  0  0  0  0
  161.8210  207.5210  147.7070 C   0  0  0  0  0  3  0  0  0  0  0  0
  161.5540  209.3010  153.8250 N   0  0  0  0  0  2  0  0  0  0  0  0
  161.8980  208.7480  148.2870 N   0  0  0  0  0  0  0  0  0  0  0  0
  161.8920  210.1790  150.2230 C   0  0  0  0  0  0  0  0  0  0  0  0
  162.0910  211.4040  149.3970 C   0  0  0  0  0  1  0  0  0  0  0  0
  161.5310  207.9430  151.8140 N   0  0  0  0  0  0  0  0  0  0  0  0
  161.6270  206.3820  148.4920 C   0  0  0  0  0  3  0  0  0  0  0  0
  161.8080  210.3040  151.6120 C   0  0  0  0  0  3  0  0  0  0  0  0
  161.6290  209.1670  152.4020 C   0  0  0  0  0  0  0  0  0  0  0  0
  161.7970  208.9080  149.6350 C   0  0  0  0  0  0  0  0  0  0  0  0
  161.2960  205.2960  150.6960 C   0  0  0  0  0  0  0  0  0  0  0  0
  160.8860  203.0390  152.3110 C   0  0  0  0  0  3  0  0  0  0  0  0
  161.1340  204.0230  150.1090 C   0  0  0  0  0  0  0  0  0  0  0  0
  160.9310  202.9040  150.9220 C   0  0  0  0  0  3  0  0  0  0  0  0
  161.0540  204.2960  152.8960 C   0  0  0  0  0  3  0  0  0  0  0  0
  161.2320  203.7780  148.3700 Cl  0  0  0  0  0  0  0  0  0  0  0  0
  161.2620  205.4190  152.0910 C   0  0  0  0  0  3  0  0  0  0  0  0
  161.3330  207.5860  157.2170 C   0  0  0  0  0  2  0  0  0  0  0  0
  159.9610  207.6320  154.7130 C   0  0  0  0  0  2  0  0  0  0  0  0
  159.9330  207.0470  156.8830 C   0  0  0  0  0  2  0  0  0  0  0  0
  161.3970  208.1860  154.7540 C   0  0  2  0  0  3  0  0  0  0  0  0
  159.2880  207.8540  155.9290 O   0  0  0  0  0  0  0  0  0  0  0  0
  161.8230  208.5910  156.1700 C   0  0  0  0  0  2  0  0  0  0  0  0
  1  2  1  0  0  0  0
  1 13  1  0  0  0  0
  2  8  1  0  0  0  0
  3  5  2  0  0  0  0
  3  9  1  0  0  0  0
  5 12  1  0  0  0  0
  6 10  2  0  0  0  0
  7  6  1  0  0  0  0
  8 11  2  0  0  0  0
  9  1  2  0  0  0  0
 10 11  1  0  0  0  0
 11  4  1  0  0  0  0
 12  6  1  0  0  0  0
 12  2  2  0  0  0  0
 13 19  1  0  0  0  0
 14 17  1  0  0  0  0
 15 13  2  0  0  0  0
 15 16  1  0  0  0  0
 16 14  2  0  0  0  0
 18 15  1  0  0  0  0
 19 17  2  0  0  0  0
 21 23  1  0  0  0  0
 21 24  1  0  0  0  0
 22 20  1  0  0  0  0
 23  4  1  6  0  0  0
 23 25  1  0  0  0  0
 24 22  1  0  0  0  0
 25 20  1  0  0  0  0
M  END
>  <MODEL>
2

>  <REMARK>
 VINA RESULT:      -6.8      3.461      6.715
  Name = 
  2 active torsions:
  status: ('A' for Active; 'I' for Inactive)
    1  A    between atoms: C_1  and  C_5
    2  A    between atoms: N_6  and  C_15
                            x       y       z     vdW  Elec       q    Type
                         _______ _______ _______ _____ _____    ______ ____

>  <TORSDO>
F 2

$$$$
=
 OpenBabel11052422093D

 25 28  0  0  1  0  0  0  0  0999 V2000
  161.4850  207.2870  151.4960 C   0  0  0  0  0  0  0  0  0  0  0  0
  161.3330  205.9700  151.0300 C   0  0  0  0  0  0  0  0  0  0  0  0
  161.1870  206.4800  153.7570 C   0  0  0  0  0  3  0  0  0  0  0  0
  161.4040  204.1370  147.8300 N   0  0  0  0  0  2  0  0  0  0  0  0
  161.0270  205.2150  153.2880 N   0  0  0  0  0  0  0  0  0  0  0  0
  160.9430  203.6190  151.4870 C   0  0  0  0  0  0  0  0  0  0  0  0
  160.6840  202.4850  152.4200 C   0  0  0  0  0  1  0  0  0  0  0  0
  161.4300  205.6790  149.7050 N   0  0  0  0  0  0  0  0  0  0  0  0
  161.4220  207.5350  152.8730 C   0  0  0  0  0  3  0  0  0  0  0  0
  161.0420  203.3610  150.1180 C   0  0  0  0  0  3  0  0  0  0  0  0
  161.2920  204.4100  149.2310 C   0  0  0  0  0  0  0  0  0  0  0  0
  161.0960  204.9320  151.9580 C   0  0  0  0  0  0  0  0  0  0  0  0
  161.7300  208.4120  150.5740 C   0  0  0  0  0  0  0  0  0  0  0  0
  162.1730  210.5030  148.7570 C   0  0  0  0  0  3  0  0  0  0  0  0
  161.9320  209.7270  151.0420 C   0  0  0  0  0  0  0  0  0  0  0  0
  162.1520  210.7630  150.1280 C   0  0  0  0  0  3  0  0  0  0  0  0
  161.9810  209.2010  148.2900 C   0  0  0  0  0  3  0  0  0  0  0  0
  161.9700  210.1110  152.7570 Cl  0  0  0  0  0  0  0  0  0  0  0  0
  161.7650  208.1590  149.1960 C   0  0  0  0  0  3  0  0  0  0  0  0
  162.5560  205.4560  144.4490 C   0  0  0  0  0  2  0  0  0  0  0  0
  160.3890  205.7760  146.2810 C   0  0  0  0  0  2  0  0  0  0  0  0
  161.1850  206.1050  144.2040 C   0  0  0  0  0  2  0  0  0  0  0  0
  161.6890  205.1440  146.8110 C   0  0  2  0  0  3  0  0  0  0  0  0
  160.1730  205.4500  144.9290 O   0  0  0  0  0  0  0  0  0  0  0  0
  162.5490  204.5550  145.6880 C   0  0  0  0  0  2  0  0  0  0  0  0
  1  9  1  0  0  0  0
  2  1  2  0  0  0  0
  2 12  1  0  0  0  0
  4 11  1  0  0  0  0
  5  3  1  0  0  0  0
  6 12  1  0  0  0  0
  6  7  1  0  0  0  0
  8  2  1  0  0  0  0
  9  3  2  0  0  0  0
 10  6  2  0  0  0  0
 11  8  2  0  0  0  0
 11 10  1  0  0  0  0
 12  5  2  0  0  0  0
 13 15  1  0  0  0  0
 13  1  1  0  0  0  0
 14 16  1  0  0  0  0
 15 18  1  0  0  0  0
 16 15  2  0  0  0  0
 17 14  2  0  0  0  0
 17 19  1  0  0  0  0
 19 13  2  0  0  0  0
 20 25  1  0  0  0  0
 21 23  1  0  0  0  0
 22 20  1  0  0  0  0
 22 24  1  0  0  0  0
 23  4  1  1  0  0  0
 24 21  1  0  0  0  0
 25 23  1  0  0  0  0
M  END
>  <MODEL>
3

>  <REMARK>
 VINA RESULT:      -6.8      2.711      4.769
  Name = 
  2 active torsions:
  status: ('A' for Active; 'I' for Inactive)
    1  A    between atoms: C_1  and  C_5
    2  A    between atoms: N_6  and  C_15
                            x       y       z     vdW  Elec       q    Type
                         _______ _______ _______ _____ _____    ______ ____

>  <TORSDO>
F 2

$$$$
=
 OpenBabel11052422093D

 25 28  0  0  1  0  0  0  0  0999 V2000
  161.3790  207.0400  151.6890 C   0  0  0  0  0  0  0  0  0  0  0  0
  161.5640  207.8220  150.5360 C   0  0  0  0  0  0  0  0  0  0  0  0
  161.5810  209.0420  153.0320 C   0  0  0  0  0  3  0  0  0  0  0  0
  161.6580  207.3820  146.8750 N   0  0  0  0  0  2  0  0  0  0  0  0
  161.7740  209.7800  151.9080 N   0  0  0  0  0  0  0  0  0  0  0  0
  161.9560  209.9880  149.5160 C   0  0  0  0  0  0  0  0  0  0  0  0
  162.1830  211.4590  149.5970 C   0  0  0  0  0  1  0  0  0  0  0  0
  161.5310  207.2620  149.2960 N   0  0  0  0  0  0  0  0  0  0  0  0
  161.3770  207.6630  152.9420 C   0  0  0  0  0  3  0  0  0  0  0  0
  161.9220  209.3760  148.2600 C   0  0  0  0  0  3  0  0  0  0  0  0
  161.7030  208.0010  148.1650 C   0  0  0  0  0  0  0  0  0  0  0  0
  161.7700  209.2130  150.6700 C   0  0  0  0  0  0  0  0  0  0  0  0
  161.1650  205.5820  151.6100 C   0  0  0  0  0  0  0  0  0  0  0  0
  160.7750  202.8140  151.3810 C   0  0  0  0  0  3  0  0  0  0  0  0
  161.1010  204.7770  152.7670 C   0  0  0  0  0  0  0  0  0  0  0  0
  160.9060  203.3980  152.6420 C   0  0  0  0  0  3  0  0  0  0  0  0
  160.8290  203.6090  150.2340 C   0  0  0  0  0  3  0  0  0  0  0  0
  161.2060  205.4570  154.3850 Cl  0  0  0  0  0  0  0  0  0  0  0  0
  161.0200  204.9890  150.3500 C   0  0  0  0  0  3  0  0  0  0  0  0
  160.7980  204.2650  144.8640 C   0  0  0  0  0  2  0  0  0  0  0  0
  162.7050  205.1430  146.8000 C   0  0  0  0  0  2  0  0  0  0  0  0
  162.1290  203.6090  145.2610 C   0  0  0  0  0  2  0  0  0  0  0  0
  161.4100  205.9610  146.6470 C   0  0  2  0  0  3  0  0  0  0  0  0
  163.1020  204.5750  145.5750 O   0  0  0  0  0  0  0  0  0  0  0  0
  160.7360  205.7360  145.2890 C   0  0  0  0  0  2  0  0  0  0  0  0
  1  9  1  0  0  0  0
  2 12  1  0  0  0  0
  2  1  2  0  0  0  0
  4 11  1  0  0  0  0
  5  3  1  0  0  0  0
  6  7  1  0  0  0  0
  6 12  1  0  0  0  0
  8  2  1  0  0  0  0
  9  3  2  0  0  0  0
 10  6  2  0  0  0  0
 11 10  1  0  0  0  0
 11  8  2  0  0  0  0
 12  5  2  0  0  0  0
 13  1  1  0  0  0  0
 13 15  1  0  0  0  0
 14 16  1  0  0  0  0
 15 18  1  0  0  0  0
 16 15  2  0  0  0  0
 17 19  1  0  0  0  0
 17 14  2  0  0  0  0
 19 13  2  0  0  0  0
 20 22  1  0  0  0  0
 20 25  1  0  0  0  0
 22 24  1  0  0  0  0
 23 21  1  0  0  0  0
 23  4  1  6  0  0  0
 24 21  1  0  0  0  0
 25 23  1  0  0  0  0
M  END
>  <MODEL>
4

>  <REMARK>
 VINA RESULT:      -6.6      2.659      5.063
  Name = 
  2 active torsions:
  status: ('A' for Active; 'I' for Inactive)
    1  A    between atoms: C_1  and  C_5
    2  A    between atoms: N_6  and  C_15
                            x       y       z     vdW  Elec       q    Type
                         _______ _______ _______ _____ _____    ______ ____

>  <TORSDO>
F 2

$$$$
=
 OpenBabel11052422093D

 25 28  0  0  1  0  0  0  0  0999 V2000
  161.4220  207.0070  151.5200 C   0  0  0  0  0  0  0  0  0  0  0  0
  161.2750  208.2930  152.0690 C   0  0  0  0  0  0  0  0  0  0  0  0
  161.2890  206.0820  153.7520 C   0  0  0  0  0  3  0  0  0  0  0  0
  161.0400  211.7880  150.9130 N   0  0  0  0  0  2  0  0  0  0  0  0
  161.1640  207.3340  154.2660 N   0  0  0  0  0  0  0  0  0  0  0  0
  161.0070  209.7230  154.0100 C   0  0  0  0  0  0  0  0  0  0  0  0
  160.8780  209.9360  155.4800 C   0  0  0  0  0  1  0  0  0  0  0  0
  161.2320  209.3950  151.2720 N   0  0  0  0  0  0  0  0  0  0  0  0
  161.4160  205.8970  152.3740 C   0  0  0  0  0  3  0  0  0  0  0  0
  160.9740  210.8310  153.1600 C   0  0  0  0  0  3  0  0  0  0  0  0
  161.0860  210.6490  151.7800 C   0  0  0  0  0  0  0  0  0  0  0  0
  161.1510  208.4370  153.4680 C   0  0  0  0  0  0  0  0  0  0  0  0
  161.5600  206.7960  150.0670 C   0  0  0  0  0  0  0  0  0  0  0  0
  161.8740  206.4580  147.3000 C   0  0  0  0  0  3  0  0  0  0  0  0
  161.1120  205.6140  149.4410 C   0  0  0  0  0  0  0  0  0  0  0  0
  161.2720  205.4540  148.0610 C   0  0  0  0  0  3  0  0  0  0  0  0
  162.3110  207.6340  147.9140 C   0  0  0  0  0  3  0  0  0  0  0  0
  160.3000  204.3360  150.3350 Cl  0  0  0  0  0  0  0  0  0  0  0  0
  162.1510  207.8020  149.2920 C   0  0  0  0  0  3  0  0  0  0  0  0
  160.8630  213.1000  147.3440 C   0  0  0  0  0  2  0  0  0  0  0  0
  162.5710  211.5120  148.9910 C   0  0  0  0  0  2  0  0  0  0  0  0
  162.3200  212.6850  147.0900 C   0  0  0  0  0  2  0  0  0  0  0  0
  161.1190  211.7220  149.4570 C   0  0  2  0  0  3  0  0  0  0  0  0
  163.0530  212.6320  148.2890 O   0  0  0  0  0  0  0  0  0  0  0  0
  160.4770  212.9600  148.8190 C   0  0  0  0  0  2  0  0  0  0  0  0
  1  2  2  0  0  0  0
  1  9  1  0  0  0  0
  2 12  1  0  0  0  0
  3  5  1  0  0  0  0
  4 11  1  0  0  0  0
  6  7  1  0  0  0  0
  8 11  2  0  0  0  0
  8  2  1  0  0  0  0
  9  3  2  0  0  0  0
 10  6  2  0  0  0  0
 11 10  1  0  0  0  0
 12  6  1  0  0  0  0
 12  5  2  0  0  0  0
 13  1  1  0  0  0  0
 14 17  2  0  0  0  0
 14 16  1  0  0  0  0
 15 13  1  0  0  0  0
 15 18  1  0  0  0  0
 16 15  2  0  0  0  0
 17 19  1  0  0  0  0
 19 13  2  0  0  0  0
 20 25  1  0  0  0  0
 21 23  1  0  0  0  0
 22 20  1  0  0  0  0
 22 24  1  0  0  0  0
 23  4  1  1  0  0  0
 24 21  1  0  0  0  0
 25 23  1  0  0  0  0
M  END
>  <MODEL>
5

>  <REMARK>
 VINA RESULT:      -6.5      3.879      6.882
  Name = 
  2 active torsions:
  status: ('A' for Active; 'I' for Inactive)
    1  A    between atoms: C_1  and  C_5
    2  A    between atoms: N_6  and  C_15
                            x       y       z     vdW  Elec       q    Type
                         _______ _______ _______ _____ _____    ______ ____

>  <TORSDO>
F 2

$$$$
=
 OpenBabel11052422093D

 25 28  0  0  1  0  0  0  0  0999 V2000
  161.1830  205.9090  148.2080 C   0  0  0  0  0  0  0  0  0  0  0  0
  161.1410  204.7620  149.0190 C   0  0  0  0  0  0  0  0  0  0  0  0
  161.0140  207.2750  150.1970 C   0  0  0  0  0  3  0  0  0  0  0  0
  161.3020  201.0950  148.6460 N   0  0  0  0  0  2  0  0  0  0  0  0
  160.9590  206.1560  150.9650 N   0  0  0  0  0  0  0  0  0  0  0  0
  160.9780  203.7620  151.2240 C   0  0  0  0  0  0  0  0  0  0  0  0
  160.8460  203.8570  152.7050 C   0  0  0  0  0  1  0  0  0  0  0  0
  161.2330  203.5160  148.4790 N   0  0  0  0  0  0  0  0  0  0  0  0
  161.1310  207.1710  148.8090 C   0  0  0  0  0  3  0  0  0  0  0  0
  161.0680  202.4990  150.6310 C   0  0  0  0  0  3  0  0  0  0  0  0
  161.1990  202.3920  149.2460 C   0  0  0  0  0  0  0  0  0  0  0  0
  161.0210  204.9100  150.4180 C   0  0  0  0  0  0  0  0  0  0  0  0
  161.3030  205.8150  146.7400 C   0  0  0  0  0  0  0  0  0  0  0  0
  161.4620  205.6800  143.9430 C   0  0  0  0  0  3  0  0  0  0  0  0
  162.4930  205.3830  146.1170 C   0  0  0  0  0  0  0  0  0  0  0  0
  162.5630  205.3190  144.7220 C   0  0  0  0  0  3  0  0  0  0  0  0
  160.2800  206.0990  144.5550 C   0  0  0  0  0  3  0  0  0  0  0  0
  163.8950  204.8650  147.0430 Cl  0  0  0  0  0  0  0  0  0  0  0  0
  160.2000  206.1630  145.9490 C   0  0  0  0  0  3  0  0  0  0  0  0
  161.0870  199.1480  145.3820 C   0  0  0  0  0  2  0  0  0  0  0  0
  160.5360  201.7620  146.3920 C   0  0  0  0  0  2  0  0  0  0  0  0
  160.2490  200.2650  144.7390 C   0  0  0  0  0  2  0  0  0  0  0  0
  161.4700  200.8570  147.2160 C   0  0  2  0  0  3  0  0  0  0  0  0
  159.5600  201.0110  145.7120 O   0  0  0  0  0  0  0  0  0  0  0  0
  161.2810  199.3720  146.8840 C   0  0  0  0  0  2  0  0  0  0  0  0
  1  9  2  0  0  0  0
  1  2  1  0  0  0  0
  2 12  2  0  0  0  0
  3  5  2  0  0  0  0
  4 11  1  0  0  0  0
  6  7  1  0  0  0  0
  8  2  1  0  0  0  0
  8 11  2  0  0  0  0
  9  3  1  0  0  0  0
 10  6  2  0  0  0  0
 11 10  1  0  0  0  0
 12  5  1  0  0  0  0
 12  6  1  0  0  0  0
 13  1  1  0  0  0  0
 14 17  2  0  0  0  0
 14 16  1  0  0  0  0
 15 13  1  0  0  0  0
 15 18  1  0  0  0  0
 16 15  2  0  0  0  0
 17 19  1  0  0  0  0
 19 13  2  0  0  0  0
 20 25  1  0  0  0  0
 21 23  1  0  0  0  0
 22 20  1  0  0  0  0
 22 24  1  0  0  0  0
 23  4  1  1  0  0  0
 24 21  1  0  0  0  0
 25 23  1  0  0  0  0
M  END
>  <MODEL>
6

>  <REMARK>
 VINA RESULT:      -6.4      1.528      2.130
  Name = 
  2 active torsions:
  status: ('A' for Active; 'I' for Inactive)
    1  A    between atoms: C_1  and  C_5
    2  A    between atoms: N_6  and  C_15
                            x       y       z     vdW  Elec       q    Type
                         _______ _______ _______ _____ _____    ______ ____

>  <TORSDO>
F 2

$$$$
=
 OpenBabel11052422093D

 25 28  0  0  1  0  0  0  0  0999 V2000
  161.4960  207.7500  152.1620 C   0  0  0  0  0  0  0  0  0  0  0  0
  160.9310  208.2390  153.3530 C   0  0  0  0  0  0  0  0  0  0  0  0
  161.7070  205.5760  153.2030 C   0  0  0  0  0  3  0  0  0  0  0  0
  159.5200  211.3860  154.6610 N   0  0  0  0  0  2  0  0  0  0  0  0
  161.1740  206.0700  154.3500 N   0  0  0  0  0  0  0  0  0  0  0  0
  160.2190  207.8640  155.6420 C   0  0  0  0  0  0  0  0  0  0  0  0
  160.0430  206.9930  156.8390 C   0  0  0  0  0  1  0  0  0  0  0  0
  160.5100  209.5300  153.4510 N   0  0  0  0  0  0  0  0  0  0  0  0
  161.8740  206.4040  152.0900 C   0  0  0  0  0  3  0  0  0  0  0  0
  159.8050  209.1970  155.7060 C   0  0  0  0  0  3  0  0  0  0  0  0
  159.9560  210.0240  154.5920 C   0  0  0  0  0  0  0  0  0  0  0  0
  160.7820  207.3700  154.4550 C   0  0  0  0  0  0  0  0  0  0  0  0
  161.6810  208.6130  150.9810 C   0  0  0  0  0  0  0  0  0  0  0  0
  162.0660  210.3120  148.7810 C   0  0  0  0  0  3  0  0  0  0  0  0
  161.5330  208.1180  149.6680 C   0  0  0  0  0  0  0  0  0  0  0  0
  161.7270  208.9720  148.5780 C   0  0  0  0  0  3  0  0  0  0  0  0
  162.2040  210.8080  150.0790 C   0  0  0  0  0  3  0  0  0  0  0  0
  161.0570  206.4570  149.3460 Cl  0  0  0  0  0  0  0  0  0  0  0  0
  162.0080  209.9620  151.1740 C   0  0  0  0  0  3  0  0  0  0  0  0
  158.5860  212.9330  151.3100 C   0  0  0  0  0  2  0  0  0  0  0  0
  159.1270  213.7360  153.9970 C   0  0  0  0  0  2  0  0  0  0  0  0
  158.2840  214.2800  151.9850 C   0  0  0  0  0  2  0  0  0  0  0  0
  159.5990  212.3380  153.5570 C   0  0  2  0  0  3  0  0  0  0  0  0
  157.9410  214.1080  153.3380 O   0  0  0  0  0  0  0  0  0  0  0  0
  158.8300  211.8220  152.3350 C   0  0  0  0  0  2  0  0  0  0  0  0
  1  2  1  0  0  0  0
  2  8  1  0  0  0  0
  2 12  2  0  0  0  0
  3  5  2  0  0  0  0
  5 12  1  0  0  0  0
  6 10  2  0  0  0  0
  6  7  1  0  0  0  0
  8 11  2  0  0  0  0
  9  1  2  0  0  0  0
  9  3  1  0  0  0  0
 11  4  1  0  0  0  0
 11 10  1  0  0  0  0
 12  6  1  0  0  0  0
 13 19  1  0  0  0  0
 13  1  1  0  0  0  0
 14 17  1  0  0  0  0
 15 13  2  0  0  0  0
 16 14  2  0  0  0  0
 16 15  1  0  0  0  0
 17 19  2  0  0  0  0
 18 15  1  0  0  0  0
 20 22  1  0  0  0  0
 20 25  1  0  0  0  0
 22 24  1  0  0  0  0
 23 21  1  0  0  0  0
 23  4  1  1  0  0  0
 24 21  1  0  0  0  0
 25 23  1  0  0  0  0
M  END
>  <MODEL>
7

>  <REMARK>
 VINA RESULT:      -6.4      5.220      8.096
  Name = 
  2 active torsions:
  status: ('A' for Active; 'I' for Inactive)
    1  A    between atoms: C_1  and  C_5
    2  A    between atoms: N_6  and  C_15
                            x       y       z     vdW  Elec       q    Type
                         _______ _______ _______ _____ _____    ______ ____

>  <TORSDO>
F 2

$$$$
=
 OpenBabel11052422093D

 25 28  0  0  1  0  0  0  0  0999 V2000
  161.1810  207.7620  151.7810 C   0  0  0  0  0  0  0  0  0  0  0  0
  161.5840  208.2960  150.5440 C   0  0  0  0  0  0  0  0  0  0  0  0
  160.9640  210.0140  152.6370 C   0  0  0  0  0  3  0  0  0  0  0  0
  162.5380  207.0980  147.1880 N   0  0  0  0  0  2  0  0  0  0  0  0
  161.3710  210.5120  151.4400 N   0  0  0  0  0  0  0  0  0  0  0  0
  162.0850  210.2230  149.1590 C   0  0  0  0  0  0  0  0  0  0  0  0
  162.2100  211.6930  148.9450 C   0  0  0  0  0  1  0  0  0  0  0  0
  161.8650  207.4840  149.4880 N   0  0  0  0  0  0  0  0  0  0  0  0
  160.8580  208.6340  152.8270 C   0  0  0  0  0  3  0  0  0  0  0  0
  162.3720  209.3580  148.1000 C   0  0  0  0  0  3  0  0  0  0  0  0
  162.2530  207.9790  148.2810 C   0  0  0  0  0  0  0  0  0  0  0  0
  161.6800  209.6960  150.3950 C   0  0  0  0  0  0  0  0  0  0  0  0
  161.0680  206.3070  151.9960 C   0  0  0  0  0  0  0  0  0  0  0  0
  160.8630  203.5290  152.3270 C   0  0  0  0  0  3  0  0  0  0  0  0
  161.1310  205.7390  153.2860 C   0  0  0  0  0  0  0  0  0  0  0  0
  161.0280  204.3530  153.4410 C   0  0  0  0  0  3  0  0  0  0  0  0
  160.7920  204.0870  151.0490 C   0  0  0  0  0  3  0  0  0  0  0  0
  161.2840  206.7270  154.7330 Cl  0  0  0  0  0  0  0  0  0  0  0  0
  160.8900  205.4720  150.8860 C   0  0  0  0  0  3  0  0  0  0  0  0
  160.7620  203.7300  147.1550 C   0  0  0  0  0  2  0  0  0  0  0  0
  163.0510  204.9900  146.0020 C   0  0  0  0  0  2  0  0  0  0  0  0
  161.6120  203.2630  145.9630 C   0  0  0  0  0  2  0  0  0  0  0  0
  162.4240  205.6440  147.2470 C   0  0  2  0  0  3  0  0  0  0  0  0
  162.0780  204.3550  145.2080 O   0  0  0  0  0  0  0  0  0  0  0  0
  160.9650  205.2190  147.4540 C   0  0  0  0  0  2  0  0  0  0  0  0
  1 13  1  0  0  0  0
  1  9  1  0  0  0  0
  2  1  2  0  0  0  0
  3  9  2  0  0  0  0
  4 11  1  0  0  0  0
  5  3  1  0  0  0  0
  6 12  1  0  0  0  0
  7  6  1  0  0  0  0
  8  2  1  0  0  0  0
 10 11  1  0  0  0  0
 10  6  2  0  0  0  0
 11  8  2  0  0  0  0
 12  2  1  0  0  0  0
 12  5  2  0  0  0  0
 13 15  1  0  0  0  0
 14 16  1  0  0  0  0
 15 16  2  0  0  0  0
 15 18  1  0  0  0  0
 17 14  2  0  0  0  0
 19 17  1  0  0  0  0
 19 13  2  0  0  0  0
 20 25  1  0  0  0  0
 21 23  1  0  0  0  0
 22 20  1  0  0  0  0
 23  4  1  6  0  0  0
 23 25  1  0  0  0  0
 24 22  1  0  0  0  0
 24 21  1  0  0  0  0
M  END
>  <MODEL>
8

>  <REMARK>
 VINA RESULT:      -6.2      2.834      5.273
  Name = 
  2 active torsions:
  status: ('A' for Active; 'I' for Inactive)
    1  A    between atoms: C_1  and  C_5
    2  A    between atoms: N_6  and  C_15
                            x       y       z     vdW  Elec       q    Type
                         _______ _______ _______ _____ _____    ______ ____

>  <TORSDO>
F 2

$$$$
=
 OpenBabel11052422093D

 25 28  0  0  1  0  0  0  0  0999 V2000
  159.6670  210.9600  155.4570 C   0  0  0  0  0  0  0  0  0  0  0  0
  159.9180  211.2890  154.1140 C   0  0  0  0  0  0  0  0  0  0  0  0
  158.4820  213.0540  155.7070 C   0  0  0  0  0  3  0  0  0  0  0  0
  161.5490  209.8040  151.1570 N   0  0  0  0  0  2  0  0  0  0  0  0
  158.7480  213.3630  154.4110 N   0  0  0  0  0  0  0  0  0  0  0  0
  159.7030  212.8420  152.2630 C   0  0  0  0  0  0  0  0  0  0  0  0
  159.2350  214.1280  151.6720 C   0  0  0  0  0  1  0  0  0  0  0  0
  160.5910  210.4330  153.2970 N   0  0  0  0  0  0  0  0  0  0  0  0
  158.9330  211.8490  156.2500 C   0  0  0  0  0  3  0  0  0  0  0  0
  160.4030  211.9410  151.4560 C   0  0  0  0  0  3  0  0  0  0  0  0
  160.8420  210.7280  151.9910 C   0  0  0  0  0  0  0  0  0  0  0  0
  159.4470  212.5180  153.6040 C   0  0  0  0  0  0  0  0  0  0  0  0
  160.1390  209.6920  156.0460 C   0  0  0  0  0  0  0  0  0  0  0  0
  160.9780  207.2420  157.1240 C   0  0  0  0  0  3  0  0  0  0  0  0
  161.3730  209.6010  156.7240 C   0  0  0  0  0  0  0  0  0  0  0  0
  161.7830  208.3760  157.2580 C   0  0  0  0  0  3  0  0  0  0  0  0
  159.7530  207.3300  156.4610 C   0  0  0  0  0  3  0  0  0  0  0  0
  162.4060  211.0020  156.9720 Cl  0  0  0  0  0  0  0  0  0  0  0  0
  159.3340  208.5520  155.9280 C   0  0  0  0  0  3  0  0  0  0  0  0
  161.3360  206.3610  152.7690 C   0  0  0  0  0  2  0  0  0  0  0  0
  162.3290  207.5870  150.3880 C   0  0  0  0  0  2  0  0  0  0  0  0
  161.7670  205.6900  151.4560 C   0  0  0  0  0  2  0  0  0  0  0  0
  162.0330  208.4980  151.5940 C   0  0  2  0  0  3  0  0  0  0  0  0
  161.4490  206.4900  150.3440 O   0  0  0  0  0  0  0  0  0  0  0  0
  161.0520  207.8550  152.5810 C   0  0  0  0  0  2  0  0  0  0  0  0
  1 13  1  0  0  0  0
  1  9  1  0  0  0  0
  2  1  2  0  0  0  0
  3  9  2  0  0  0  0
  4 11  1  0  0  0  0
  5  3  1  0  0  0  0
  6 12  1  0  0  0  0
  7  6  1  0  0  0  0
  8  2  1  0  0  0  0
 10 11  1  0  0  0  0
 10  6  2  0  0  0  0
 11  8  2  0  0  0  0
 12  2  1  0  0  0  0
 12  5  2  0  0  0  0
 13 15  1  0  0  0  0
 14 16  1  0  0  0  0
 15 18  1  0  0  0  0
 15 16  2  0  0  0  0
 17 14  2  0  0  0  0
 19 13  2  0  0  0  0
 19 17  1  0  0  0  0
 21 23  1  0  0  0  0
 22 20  1  0  0  0  0
 23  4  1  6  0  0  0
 23 25  1  0  0  0  0
 24 21  1  0  0  0  0
 24 22  1  0  0  0  0
 25 20  1  0  0  0  0
M  END
>  <MODEL>
9

>  <REMARK>
 VINA RESULT:      -6.1      5.141      8.756
  Name = 
  2 active torsions:
  status: ('A' for Active; 'I' for Inactive)
    1  A    between atoms: C_1  and  C_5
    2  A    between atoms: N_6  and  C_15
                            x       y       z     vdW  Elec       q    Type
                         _______ _______ _______ _____ _____    ______ ____

>  <TORSDO>
F 2

$$$$
