=
 OpenBabel11052423183D

 27 30  0  0  1  0  0  0  0  0999 V2000
  161.8080  208.4110  153.4420 N   0  0  0  0  0  0  0  0  0  0  0  0
  161.5500  209.1360  151.0920 C   0  0  0  0  0  0  0  0  0  0  0  0
  160.4750  210.9050  152.4690 O   0  0  0  0  0  0  0  0  0  0  0  0
  162.1310  208.8020  149.9060 N   0  0  0  0  0  0  0  0  0  0  0  0
  159.5620  211.9090  155.1240 C   0  0  0  0  0  2  0  0  0  0  0  0
  160.3960  211.5290  156.3310 C   0  0  0  0  0  2  0  0  0  0  0  0
  161.3630  211.4380  150.2720 C   0  0  0  0  0  0  0  0  0  0  0  0
  161.4430  208.1130  152.1140 N   0  0  0  0  0  0  0  0  0  0  0  0
  161.9490  211.0210  149.0690 C   0  0  0  0  0  0  0  0  0  0  0  0
  161.2120  209.3340  154.1220 C   0  0  0  0  0  0  0  0  0  0  0  0
  161.1320  210.4870  151.2990 C   0  0  0  0  0  0  0  0  0  0  0  0
  159.0320  210.6630  154.4390 C   0  0  0  0  0  2  0  0  0  0  0  0
  162.3310  209.6950  148.9080 C   0  0  0  0  0  3  0  0  0  0  0  0
  161.7760  211.0780  155.8960 C   0  0  0  0  0  2  0  0  0  0  0  0
  161.7550  209.7130  155.3910 N   0  0  0  0  0  2  0  0  0  0  0  0
  160.0440  210.0260  153.4900 C   0  0  1  0  0  3  0  0  0  0  0  0
  160.8130  204.0500  151.1340 C   0  0  0  0  0  3  0  0  0  0  0  0
  161.2480  206.7290  151.7570 C   0  0  0  0  0  0  0  0  0  0  0  0
  160.8310  206.3620  150.4690 C   0  0  0  0  0  3  0  0  0  0  0  0
  160.6170  205.0210  150.1520 C   0  0  0  0  0  3  0  0  0  0  0  0
  161.2060  204.4140  152.3840 N   0  0  0  0  0  0  0  0  0  0  0  0
  161.4190  205.7170  152.7120 C   0  0  0  0  0  3  0  0  0  0  0  0
  161.0200  212.7980  150.3870 O   0  0  0  0  0  0  0  0  0  0  0  0
  159.7090  213.3290  150.2570 C   0  0  0  0  0  1  0  0  0  0  0  0
  162.2160  211.9870  147.9640 C   0  0  0  0  0  2  0  0  0  0  0  0
  161.0570  213.4140  146.7460 C   0  0  0  0  0  1  0  0  0  0  0  0
  161.0970  212.0770  147.1350 O   0  0  0  0  0  0  0  0  0  0  0  0
  1 10  2  0  0  0  0
  2 11  1  0  0  0  0
  2  8  1  0  0  0  0
  3 16  1  0  0  0  0
  4  2  2  0  0  0  0
  5  6  1  0  0  0  0
  7 23  1  0  0  0  0
  7 11  2  0  0  0  0
  8  1  1  0  0  0  0
  9  7  1  0  0  0  0
 10 15  1  0  0  0  0
 11  3  1  0  0  0  0
 12  5  1  0  0  0  0
 13  9  2  0  0  0  0
 13  4  1  0  0  0  0
 14  6  1  0  0  0  0
 15 14  1  0  0  0  0
 16 10  1  0  0  0  0
 16 12  1  1  0  0  0
 17 21  1  0  0  0  0
 18  8  1  0  0  0  0
 18 22  1  0  0  0  0
 19 18  2  0  0  0  0
 20 19  1  0  0  0  0
 20 17  2  0  0  0  0
 21 22  2  0  0  0  0
 24 23  1  0  0  0  0
 25  9  1  0  0  0  0
 26 27  1  0  0  0  0
 27 25  1  0  0  0  0
M  END
>  <MODEL>
1

>  <REMARK>
 VINA RESULT:      -5.7      0.000      0.000
  Name = 
  4 active torsions:
  status: ('A' for Active; 'I' for Inactive)
    1  A    between atoms: C_4  and  O_16
    2  A    between atoms: C_4  and  C_17
    3  A    between atoms: O_8  and  C_14
    4  A    between atoms: C_9  and  N_15
                            x       y       z     vdW  Elec       q    Type
                         _______ _______ _______ _____ _____    ______ ____

>  <TORSDO>
F 4

$$$$
=
 OpenBabel11052423183D

 27 30  0  0  1  0  0  0  0  0999 V2000
  161.0600  209.8490  154.1090 N   0  0  0  0  0  0  0  0  0  0  0  0
  161.1380  210.2730  151.6730 C   0  0  0  0  0  0  0  0  0  0  0  0
  159.5210  211.9200  152.5970 O   0  0  0  0  0  0  0  0  0  0  0  0
  161.9870  209.9460  150.6610 N   0  0  0  0  0  0  0  0  0  0  0  0
  157.9470  212.9800  154.8980 C   0  0  0  0  0  2  0  0  0  0  0  0
  158.5850  212.8940  156.2690 C   0  0  0  0  0  2  0  0  0  0  0  0
  160.7080  212.3990  150.5330 C   0  0  0  0  0  0  0  0  0  0  0  0
  161.0180  209.3550  152.7900 N   0  0  0  0  0  0  0  0  0  0  0  0
  161.5810  211.9900  149.5160 C   0  0  0  0  0  0  0  0  0  0  0  0
  160.1890  210.6980  154.5470 C   0  0  0  0  0  0  0  0  0  0  0  0
  160.4550  211.5280  151.6240 C   0  0  0  0  0  0  0  0  0  0  0  0
  157.7890  211.5920  154.3040 C   0  0  0  0  0  2  0  0  0  0  0  0
  162.2160  210.7580  149.6010 C   0  0  0  0  0  3  0  0  0  0  0  0
  160.0810  212.6860  156.1420 C   0  0  0  0  0  2  0  0  0  0  0  0
  160.4000  211.3000  155.8280 N   0  0  0  0  0  2  0  0  0  0  0  0
  159.0620  211.0780  153.6370 C   0  0  1  0  0  3  0  0  0  0  0  0
  161.3140  205.1720  152.2630 C   0  0  0  0  0  3  0  0  0  0  0  0
  161.1440  207.9320  152.5930 C   0  0  0  0  0  0  0  0  0  0  0  0
  161.1520  207.3740  151.3060 C   0  0  0  0  0  3  0  0  0  0  0  0
  161.2420  205.9920  151.1370 C   0  0  0  0  0  3  0  0  0  0  0  0
  161.2940  205.7190  153.5070 N   0  0  0  0  0  0  0  0  0  0  0  0
  161.2060  207.0640  153.6930 C   0  0  0  0  0  3  0  0  0  0  0  0
  160.1150  213.6690  150.4050 O   0  0  0  0  0  0  0  0  0  0  0  0
  158.7870  213.9150  149.9620 C   0  0  0  0  0  1  0  0  0  0  0  0
  161.8810  212.8760  148.3530 C   0  0  0  0  0  2  0  0  0  0  0  0
  160.3240  212.6050  146.8150 C   0  0  0  0  0  1  0  0  0  0  0  0
  161.6110  212.2010  147.1630 O   0  0  0  0  0  0  0  0  0  0  0  0
  1 10  2  0  0  0  0
  2  8  1  0  0  0  0
  3 16  1  0  0  0  0
  4  2  2  0  0  0  0
  5  6  1  0  0  0  0
  7 11  2  0  0  0  0
  8  1  1  0  0  0  0
  9 13  2  0  0  0  0
  9  7  1  0  0  0  0
 10 15  1  0  0  0  0
 11  2  1  0  0  0  0
 11  3  1  0  0  0  0
 12  5  1  0  0  0  0
 13  4  1  0  0  0  0
 14  6  1  0  0  0  0
 15 14  1  0  0  0  0
 16 12  1  1  0  0  0
 16 10  1  0  0  0  0
 17 21  1  0  0  0  0
 18  8  1  0  0  0  0
 18 22  1  0  0  0  0
 19 18  2  0  0  0  0
 20 19  1  0  0  0  0
 20 17  2  0  0  0  0
 21 22  2  0  0  0  0
 23  7  1  0  0  0  0
 24 23  1  0  0  0  0
 25  9  1  0  0  0  0
 26 27  1  0  0  0  0
 27 25  1  0  0  0  0
M  END
>  <MODEL>
2

>  <REMARK>
 VINA RESULT:      -5.6      1.297      1.537
  Name = 
  4 active torsions:
  status: ('A' for Active; 'I' for Inactive)
    1  A    between atoms: C_4  and  O_16
    2  A    between atoms: C_4  and  C_17
    3  A    between atoms: O_8  and  C_14
    4  A    between atoms: C_9  and  N_15
                            x       y       z     vdW  Elec       q    Type
                         _______ _______ _______ _____ _____    ______ ____

>  <TORSDO>
F 4

$$$$
=
 OpenBabel11052423183D

 27 30  0  0  1  0  0  0  0  0999 V2000
  159.1370  211.6360  152.6430 N   0  0  0  0  0  0  0  0  0  0  0  0
  160.6230  209.6750  152.3920 C   0  0  0  0  0  0  0  0  0  0  0  0
  160.4280  210.0690  154.8390 O   0  0  0  0  0  0  0  0  0  0  0  0
  160.9020  208.7930  151.3930 N   0  0  0  0  0  0  0  0  0  0  0  0
  159.4590  211.7350  157.1140 C   0  0  0  0  0  2  0  0  0  0  0  0
  158.1380  212.4540  156.9320 C   0  0  0  0  0  2  0  0  0  0  0  0
  160.9360  207.8490  153.9960 C   0  0  0  0  0  0  0  0  0  0  0  0
  160.2490  211.0280  152.0270 N   0  0  0  0  0  0  0  0  0  0  0  0
  161.2320  207.0010  152.9200 C   0  0  0  0  0  0  0  0  0  0  0  0
  159.0870  211.8300  153.9190 C   0  0  0  0  0  0  0  0  0  0  0  0
  160.6490  209.2160  153.7450 C   0  0  0  0  0  0  0  0  0  0  0  0
  160.4570  212.1940  156.0670 C   0  0  0  0  0  2  0  0  0  0  0  0
  161.2050  207.4930  151.6220 C   0  0  0  0  0  3  0  0  0  0  0  0
  157.3540  211.8330  155.7930 C   0  0  0  0  0  2  0  0  0  0  0  0
  157.8560  212.2750  154.4990 N   0  0  0  0  0  2  0  0  0  0  0  0
  160.2940  211.4740  154.7310 C   0  0  1  0  0  3  0  0  0  0  0  0
  161.8580  212.8010  148.5440 C   0  0  0  0  0  3  0  0  0  0  0  0
  160.8050  211.6570  150.8540 C   0  0  0  0  0  0  0  0  0  0  0  0
  160.3040  212.8790  150.3780 C   0  0  0  0  0  3  0  0  0  0  0  0
  160.8320  213.4560  149.2240 C   0  0  0  0  0  3  0  0  0  0  0  0
  162.3310  211.6110  149.0040 N   0  0  0  0  0  0  0  0  0  0  0  0
  161.8280  211.0320  150.1280 C   0  0  0  0  0  3  0  0  0  0  0  0
  160.9550  207.2870  155.2870 O   0  0  0  0  0  0  0  0  0  0  0  0
  159.8210  207.1190  156.1270 C   0  0  0  0  0  1  0  0  0  0  0  0
  161.5360  205.5560  153.1360 C   0  0  0  0  0  2  0  0  0  0  0  0
  160.8820  203.7750  152.0120 C   0  0  0  0  0  1  0  0  0  0  0  0
  161.6770  204.9140  151.9060 O   0  0  0  0  0  0  0  0  0  0  0  0
  1 10  2  0  0  0  0
  2 11  1  0  0  0  0
  4 13  1  0  0  0  0
  4  2  2  0  0  0  0
  6  5  1  0  0  0  0
  7 23  1  0  0  0  0
  8  2  1  0  0  0  0
  8  1  1  0  0  0  0
  9 25  1  0  0  0  0
  9  7  1  0  0  0  0
 10 15  1  0  0  0  0
 10 16  1  0  0  0  0
 11  7  2  0  0  0  0
 11  3  1  0  0  0  0
 12  5  1  0  0  0  0
 13  9  2  0  0  0  0
 14  6  1  0  0  0  0
 15 14  1  0  0  0  0
 16  3  1  0  0  0  0
 16 12  1  1  0  0  0
 17 21  2  0  0  0  0
 17 20  1  0  0  0  0
 18  8  1  0  0  0  0
 19 18  1  0  0  0  0
 20 19  2  0  0  0  0
 21 22  1  0  0  0  0
 22 18  2  0  0  0  0
 23 24  1  0  0  0  0
 27 26  1  0  0  0  0
 27 25  1  0  0  0  0
M  END
>  <MODEL>
3

>  <REMARK>
 VINA RESULT:      -5.4      2.554      5.807
  Name = 
  4 active torsions:
  status: ('A' for Active; 'I' for Inactive)
    1  A    between atoms: C_4  and  O_16
    2  A    between atoms: C_4  and  C_17
    3  A    between atoms: O_8  and  C_14
    4  A    between atoms: C_9  and  N_15
                            x       y       z     vdW  Elec       q    Type
                         _______ _______ _______ _____ _____    ______ ____

>  <TORSDO>
F 4

$$$$
=
 OpenBabel11052423183D

 27 30  0  0  1  0  0  0  0  0999 V2000
  160.4090  211.2340  151.9540 N   0  0  0  0  0  0  0  0  0  0  0  0
  161.3770  209.2520  150.8340 C   0  0  0  0  0  0  0  0  0  0  0  0
  161.8290  208.9490  153.2590 O   0  0  0  0  0  0  0  0  0  0  0  0
  161.2380  208.6670  149.6120 N   0  0  0  0  0  0  0  0  0  0  0  0
  161.7580  210.0000  156.0490 C   0  0  0  0  0  2  0  0  0  0  0  0
  160.6010  210.9060  156.4170 C   0  0  0  0  0  2  0  0  0  0  0  0
  161.6790  207.0180  151.7930 C   0  0  0  0  0  0  0  0  0  0  0  0
  161.2060  210.6900  150.9280 N   0  0  0  0  0  0  0  0  0  0  0  0
  161.5460  206.4840  150.5040 C   0  0  0  0  0  0  0  0  0  0  0  0
  160.6910  211.0570  153.2020 C   0  0  0  0  0  0  0  0  0  0  0  0
  161.6190  208.4240  151.9730 C   0  0  0  0  0  0  0  0  0  0  0  0
  162.5600  210.6080  154.9130 C   0  0  0  0  0  2  0  0  0  0  0  0
  161.3210  207.3280  149.4250 C   0  0  0  0  0  3  0  0  0  0  0  0
  159.4690  210.7450  155.4210 C   0  0  0  0  0  2  0  0  0  0  0  0
  159.7400  211.4720  154.1880 N   0  0  0  0  0  2  0  0  0  0  0  0
  161.9560  210.3300  153.5390 C   0  0  1  0  0  3  0  0  0  0  0  0
  162.3490  213.2840  147.7930 C   0  0  0  0  0  3  0  0  0  0  0  0
  161.5930  211.5530  149.8380 C   0  0  0  0  0  0  0  0  0  0  0  0
  162.6880  211.2420  149.0190 C   0  0  0  0  0  3  0  0  0  0  0  0
  163.0670  212.1050  147.9900 C   0  0  0  0  0  3  0  0  0  0  0  0
  161.2960  213.5850  148.5990 N   0  0  0  0  0  0  0  0  0  0  0  0
  160.9120  212.7560  149.6070 C   0  0  0  0  0  3  0  0  0  0  0  0
  161.8800  206.1120  152.8510 O   0  0  0  0  0  0  0  0  0  0  0  0
  160.9460  205.8360  153.8860 C   0  0  0  0  0  1  0  0  0  0  0  0
  161.5960  205.0120  150.2690 C   0  0  0  0  0  2  0  0  0  0  0  0
  160.8310  203.3270  149.0690 C   0  0  0  0  0  1  0  0  0  0  0  0
  161.0070  204.7090  149.0410 O   0  0  0  0  0  0  0  0  0  0  0  0
  1 10  2  0  0  0  0
  2  8  1  0  0  0  0
  2 11  1  0  0  0  0
  3 16  1  0  0  0  0
  4  2  2  0  0  0  0
  5  6  1  0  0  0  0
  7 11  2  0  0  0  0
  7 23  1  0  0  0  0
  8  1  1  0  0  0  0
  9  7  1  0  0  0  0
 10 16  1  0  0  0  0
 10 15  1  0  0  0  0
 11  3  1  0  0  0  0
 12  5  1  0  0  0  0
 13  4  1  0  0  0  0
 13  9  2  0  0  0  0
 14  6  1  0  0  0  0
 15 14  1  0  0  0  0
 16 12  1  1  0  0  0
 17 20  2  0  0  0  0
 17 21  1  0  0  0  0
 18  8  1  0  0  0  0
 19 18  2  0  0  0  0
 20 19  1  0  0  0  0
 21 22  2  0  0  0  0
 22 18  1  0  0  0  0
 23 24  1  0  0  0  0
 25  9  1  0  0  0  0
 27 26  1  0  0  0  0
 27 25  1  0  0  0  0
M  END
>  <MODEL>
4

>  <REMARK>
 VINA RESULT:      -5.2      2.416      5.593
  Name = 
  4 active torsions:
  status: ('A' for Active; 'I' for Inactive)
    1  A    between atoms: C_4  and  O_16
    2  A    between atoms: C_4  and  C_17
    3  A    between atoms: O_8  and  C_14
    4  A    between atoms: C_9  and  N_15
                            x       y       z     vdW  Elec       q    Type
                         _______ _______ _______ _____ _____    ______ ____

>  <TORSDO>
F 4

$$$$
=
 OpenBabel11052423183D

 27 30  0  0  1  0  0  0  0  0999 V2000
  162.7050  208.8600  148.6120 N   0  0  0  0  0  0  0  0  0  0  0  0
  161.7930  209.2740  150.8740 C   0  0  0  0  0  0  0  0  0  0  0  0
  160.9570  207.0290  150.2060 O   0  0  0  0  0  0  0  0  0  0  0  0
  162.0780  210.1340  151.8900 N   0  0  0  0  0  0  0  0  0  0  0  0
  160.6700  204.8900  148.1490 C   0  0  0  0  0  2  0  0  0  0  0  0
  161.8140  204.7130  147.1710 C   0  0  0  0  0  2  0  0  0  0  0  0
  161.2040  207.5920  152.5560 C   0  0  0  0  0  0  0  0  0  0  0  0
  162.0400  209.7140  149.5140 N   0  0  0  0  0  0  0  0  0  0  0  0
  161.4970  208.5350  153.5500 C   0  0  0  0  0  0  0  0  0  0  0  0
  162.2250  207.7050  148.2880 C   0  0  0  0  0  0  0  0  0  0  0  0
  161.3270  207.9600  151.1910 C   0  0  0  0  0  0  0  0  0  0  0  0
  160.0920  206.2880  148.0330 C   0  0  0  0  0  2  0  0  0  0  0  0
  161.9380  209.8030  153.1950 C   0  0  0  0  0  3  0  0  0  0  0  0
  163.0710  205.3680  147.7080 C   0  0  0  0  0  2  0  0  0  0  0  0
  163.0400  206.8120  147.5200 N   0  0  0  0  0  2  0  0  0  0  0  0
  160.8790  207.3280  148.8250 C   0  0  1  0  0  3  0  0  0  0  0  0
  161.5780  213.7950  148.5180 C   0  0  0  0  0  3  0  0  0  0  0  0
  161.8800  211.0990  149.1450 C   0  0  0  0  0  0  0  0  0  0  0  0
  162.7730  211.7230  148.2600 C   0  0  0  0  0  3  0  0  0  0  0  0
  162.6220  213.0730  147.9410 C   0  0  0  0  0  3  0  0  0  0  0  0
  160.7240  213.1870  149.3830 N   0  0  0  0  0  0  0  0  0  0  0  0
  160.8550  211.8720  149.7080 C   0  0  0  0  0  3  0  0  0  0  0  0
  160.7860  206.3160  152.9770 O   0  0  0  0  0  0  0  0  0  0  0  0
  161.5030  205.1060  152.7710 C   0  0  0  0  0  1  0  0  0  0  0  0
  161.3880  208.1900  154.9980 C   0  0  0  0  0  2  0  0  0  0  0  0
  159.7070  207.3280  156.1360 C   0  0  0  0  0  1  0  0  0  0  0  0
  160.1030  208.4780  155.4570 O   0  0  0  0  0  0  0  0  0  0  0  0
  1  8  1  0  0  0  0
  2 11  2  0  0  0  0
  2  4  1  0  0  0  0
  3 11  1  0  0  0  0
  4 13  2  0  0  0  0
  6 14  1  0  0  0  0
  6  5  1  0  0  0  0
  7 23  1  0  0  0  0
  7  9  2  0  0  0  0
  8  2  1  0  0  0  0
  9 25  1  0  0  0  0
 10  1  2  0  0  0  0
 10 16  1  0  0  0  0
 11  7  1  0  0  0  0
 12  5  1  0  0  0  0
 13  9  1  0  0  0  0
 15 14  1  0  0  0  0
 15 10  1  0  0  0  0
 16 12  1  6  0  0  0
 16  3  1  0  0  0  0
 17 21  1  0  0  0  0
 18  8  1  0  0  0  0
 18 22  1  0  0  0  0
 19 18  2  0  0  0  0
 20 19  1  0  0  0  0
 20 17  2  0  0  0  0
 21 22  2  0  0  0  0
 24 23  1  0  0  0  0
 25 27  1  0  0  0  0
 27 26  1  0  0  0  0
M  END
>  <MODEL>
5

>  <REMARK>
 VINA RESULT:      -5.1      2.842      7.301
  Name = 
  4 active torsions:
  status: ('A' for Active; 'I' for Inactive)
    1  A    between atoms: C_4  and  O_16
    2  A    between atoms: C_4  and  C_17
    3  A    between atoms: O_8  and  C_14
    4  A    between atoms: C_9  and  N_15
                            x       y       z     vdW  Elec       q    Type
                         _______ _______ _______ _____ _____    ______ ____

>  <TORSDO>
F 4

$$$$
=
 OpenBabel11052423183D

 27 30  0  0  1  0  0  0  0  0999 V2000
  160.5530  207.7710  152.1870 N   0  0  0  0  0  0  0  0  0  0  0  0
  160.8160  210.2300  152.2440 C   0  0  0  0  0  0  0  0  0  0  0  0
  161.7980  209.4930  150.0830 O   0  0  0  0  0  0  0  0  0  0  0  0
  160.2670  211.2450  152.9660 N   0  0  0  0  0  0  0  0  0  0  0  0
  162.6310  207.3010  148.2410 C   0  0  0  0  0  2  0  0  0  0  0  0
  161.7960  206.0370  148.2490 C   0  0  0  0  0  2  0  0  0  0  0  0
  160.9220  211.7460  150.3220 C   0  0  0  0  0  0  0  0  0  0  0  0
  160.9500  208.9320  152.8790 N   0  0  0  0  0  0  0  0  0  0  0  0
  160.3710  212.7510  151.1280 C   0  0  0  0  0  0  0  0  0  0  0  0
  161.1020  207.4230  151.0700 C   0  0  0  0  0  0  0  0  0  0  0  0
  161.1760  210.4670  150.8820 C   0  0  0  0  0  0  0  0  0  0  0  0
  163.2210  207.5490  149.6160 C   0  0  0  0  0  2  0  0  0  0  0  0
  160.0450  212.4780  152.4510 C   0  0  0  0  0  3  0  0  0  0  0  0
  160.4410  206.3050  148.8740 C   0  0  0  0  0  2  0  0  0  0  0  0
  160.5250  206.3440  150.3270 N   0  0  0  0  0  2  0  0  0  0  0  0
  162.2500  208.2430  150.5670 C   0  0  1  0  0  3  0  0  0  0  0  0
  161.6650  208.6980  157.0390 C   0  0  0  0  0  3  0  0  0  0  0  0
  161.2060  208.8250  154.2950 C   0  0  0  0  0  0  0  0  0  0  0  0
  160.6700  207.7730  155.0530 C   0  0  0  0  0  3  0  0  0  0  0  0
  160.9020  207.7040  156.4270 C   0  0  0  0  0  3  0  0  0  0  0  0
  162.1720  209.7210  156.3000 N   0  0  0  0  0  0  0  0  0  0  0  0
  161.9560  209.8060  154.9590 C   0  0  0  0  0  3  0  0  0  0  0  0
  161.2070  212.0740  148.9840 O   0  0  0  0  0  0  0  0  0  0  0  0
  162.5080  212.2580  148.4420 C   0  0  0  0  0  1  0  0  0  0  0  0
  160.0810  214.1080  150.5810 C   0  0  0  0  0  2  0  0  0  0  0  0
  158.3570  214.2320  149.2110 C   0  0  0  0  0  1  0  0  0  0  0  0
  158.7030  214.3240  150.5580 O   0  0  0  0  0  0  0  0  0  0  0  0
  1  8  1  0  0  0  0
  2  8  1  0  0  0  0
  2  4  1  0  0  0  0
  3 16  1  0  0  0  0
  3 11  1  0  0  0  0
  5  6  1  0  0  0  0
  5 12  1  0  0  0  0
  6 14  1  0  0  0  0
  7 11  1  0  0  0  0
  7  9  2  0  0  0  0
  8 18  1  0  0  0  0
  9 13  1  0  0  0  0
 10  1  2  0  0  0  0
 11  2  2  0  0  0  0
 13  4  2  0  0  0  0
 14 15  1  0  0  0  0
 15 10  1  0  0  0  0
 16 12  1  6  0  0  0
 16 10  1  0  0  0  0
 18 22  2  0  0  0  0
 18 19  1  0  0  0  0
 19 20  2  0  0  0  0
 20 17  1  0  0  0  0
 21 17  2  0  0  0  0
 22 21  1  0  0  0  0
 23  7  1  0  0  0  0
 24 23  1  0  0  0  0
 25  9  1  0  0  0  0
 26 27  1  0  0  0  0
 27 25  1  0  0  0  0
M  END
>  <MODEL>
6

>  <REMARK>
 VINA RESULT:      -4.6      1.948      5.133
  Name = 
  4 active torsions:
  status: ('A' for Active; 'I' for Inactive)
    1  A    between atoms: C_4  and  O_16
    2  A    between atoms: C_4  and  C_17
    3  A    between atoms: O_8  and  C_14
    4  A    between atoms: C_9  and  N_15
                            x       y       z     vdW  Elec       q    Type
                         _______ _______ _______ _____ _____    ______ ____

>  <TORSDO>
F 4

$$$$
=
 OpenBabel11052423183D

 27 30  0  0  1  0  0  0  0  0999 V2000
  158.0990  213.0250  140.6200 N   0  0  0  0  0  0  0  0  0  0  0  0
  160.5630  213.2180  140.5320 C   0  0  0  0  0  0  0  0  0  0  0  0
  159.9460  211.5980  138.7500 O   0  0  0  0  0  0  0  0  0  0  0  0
  161.4820  214.1030  141.0080 N   0  0  0  0  0  0  0  0  0  0  0  0
  157.8840  209.9500  137.3630 C   0  0  0  0  0  2  0  0  0  0  0  0
  156.4860  210.5250  137.2710 C   0  0  0  0  0  2  0  0  0  0  0  0
  161.9980  212.8850  138.5740 C   0  0  0  0  0  0  0  0  0  0  0  0
  159.3390  213.0290  141.2880 N   0  0  0  0  0  0  0  0  0  0  0  0
  162.9100  213.7920  139.1320 C   0  0  0  0  0  0  0  0  0  0  0  0
  157.8200  212.1550  139.7060 C   0  0  0  0  0  0  0  0  0  0  0  0
  160.8130  212.5650  139.2860 C   0  0  0  0  0  0  0  0  0  0  0  0
  158.2910  209.7870  138.8150 C   0  0  0  0  0  2  0  0  0  0  0  0
  162.6300  214.3950  140.3510 C   0  0  0  0  0  3  0  0  0  0  0  0
  156.5150  212.0210  137.5180 C   0  0  0  0  0  2  0  0  0  0  0  0
  156.6240  212.3230  138.9380 N   0  0  0  0  0  2  0  0  0  0  0  0
  158.8230  211.0760  139.4350 C   0  0  1  0  0  3  0  0  0  0  0  0
  159.2410  213.3370  145.5020 C   0  0  0  0  0  3  0  0  0  0  0  0
  159.3360  213.1330  142.7270 C   0  0  0  0  0  0  0  0  0  0  0  0
  159.9010  212.1290  143.5290 C   0  0  0  0  0  3  0  0  0  0  0  0
  159.8590  212.2310  144.9200 C   0  0  0  0  0  3  0  0  0  0  0  0
  158.6850  214.3000  144.7190 N   0  0  0  0  0  0  0  0  0  0  0  0
  158.7150  214.2180  143.3610 C   0  0  0  0  0  3  0  0  0  0  0  0
  162.3250  212.3250  137.3250 O   0  0  0  0  0  0  0  0  0  0  0  0
  162.7030  210.9730  137.1030 C   0  0  0  0  0  1  0  0  0  0  0  0
  164.1670  214.1620  138.4170 C   0  0  0  0  0  2  0  0  0  0  0  0
  166.3680  214.0750  138.5110 C   0  0  0  0  0  1  0  0  0  0  0  0
  165.2220  213.3740  138.8780 O   0  0  0  0  0  0  0  0  0  0  0  0
  1  8  1  0  0  0  0
  2  4  1  0  0  0  0
  2  8  1  0  0  0  0
  3 11  1  0  0  0  0
  3 16  1  0  0  0  0
  5 12  1  0  0  0  0
  6  5  1  0  0  0  0
  6 14  1  0  0  0  0
  7  9  2  0  0  0  0
  7 11  1  0  0  0  0
  8 18  1  0  0  0  0
  9 13  1  0  0  0  0
 10  1  2  0  0  0  0
 11  2  2  0  0  0  0
 13  4  2  0  0  0  0
 14 15  1  0  0  0  0
 15 10  1  0  0  0  0
 16 12  1  6  0  0  0
 16 10  1  0  0  0  0
 18 22  2  0  0  0  0
 18 19  1  0  0  0  0
 19 20  2  0  0  0  0
 20 17  1  0  0  0  0
 21 17  2  0  0  0  0
 22 21  1  0  0  0  0
 23  7  1  0  0  0  0
 24 23  1  0  0  0  0
 25 27  1  0  0  0  0
 25  9  1  0  0  0  0
 26 27  1  0  0  0  0
M  END
>  <MODEL>
7

>  <REMARK>
 VINA RESULT:      -4.6      9.122     13.177
  Name = 
  4 active torsions:
  status: ('A' for Active; 'I' for Inactive)
    1  A    between atoms: C_4  and  O_16
    2  A    between atoms: C_4  and  C_17
    3  A    between atoms: O_8  and  C_14
    4  A    between atoms: C_9  and  N_15
                            x       y       z     vdW  Elec       q    Type
                         _______ _______ _______ _____ _____    ______ ____

>  <TORSDO>
F 4

$$$$
=
 OpenBabel11052423183D

 27 30  0  0  1  0  0  0  0  0999 V2000
  162.6150  207.1560  147.7650 N   0  0  0  0  0  0  0  0  0  0  0  0
  161.5560  206.1980  149.7850 C   0  0  0  0  0  0  0  0  0  0  0  0
  160.5620  204.9830  147.8580 O   0  0  0  0  0  0  0  0  0  0  0  0
  161.8370  206.1990  151.1170 N   0  0  0  0  0  0  0  0  0  0  0  0
  160.2430  204.6370  144.9130 C   0  0  0  0  0  2  0  0  0  0  0  0
  161.4440  204.9530  144.0450 C   0  0  0  0  0  2  0  0  0  0  0  0
  160.6590  203.9330  150.0450 C   0  0  0  0  0  0  0  0  0  0  0  0
  161.9630  207.3480  148.9990 N   0  0  0  0  0  0  0  0  0  0  0  0
  160.9580  204.0090  151.4120 C   0  0  0  0  0  0  0  0  0  0  0  0
  162.0520  206.5260  146.7880 C   0  0  0  0  0  0  0  0  0  0  0  0
  160.9360  205.0460  149.2100 C   0  0  0  0  0  0  0  0  0  0  0  0
  159.8190  205.8680  145.6920 C   0  0  0  0  0  2  0  0  0  0  0  0
  161.5520  205.1530  151.9290 C   0  0  0  0  0  3  0  0  0  0  0  0
  162.7080  204.9630  144.8800 C   0  0  0  0  0  2  0  0  0  0  0  0
  162.8370  206.2010  145.6350 N   0  0  0  0  0  2  0  0  0  0  0  0
  160.6340  206.0790  146.9650 C   0  0  1  0  0  3  0  0  0  0  0  0
  161.9250  211.2420  150.6420 C   0  0  0  0  0  3  0  0  0  0  0  0
  161.9750  208.6700  149.5750 C   0  0  0  0  0  0  0  0  0  0  0  0
  161.9310  208.8580  150.9650 C   0  0  0  0  0  3  0  0  0  0  0  0
  161.9100  210.1450  151.5030 C   0  0  0  0  0  3  0  0  0  0  0  0
  161.9560  211.0520  149.2960 N   0  0  0  0  0  0  0  0  0  0  0  0
  161.9760  209.8050  148.7530 C   0  0  0  0  0  3  0  0  0  0  0  0
  160.0810  202.7390  149.5750 O   0  0  0  0  0  0  0  0  0  0  0  0
  160.6730  201.8530  148.6340 C   0  0  0  0  0  1  0  0  0  0  0  0
  160.6900  202.8610  152.3270 C   0  0  0  0  0  2  0  0  0  0  0  0
  162.6180  201.8380  152.0110 C   0  0  0  0  0  1  0  0  0  0  0  0
  161.2480  201.6960  151.8000 O   0  0  0  0  0  0  0  0  0  0  0  0
  1  8  1  0  0  0  0
  2  4  1  0  0  0  0
  3 11  1  0  0  0  0
  4 13  2  0  0  0  0
  5 12  1  0  0  0  0
  6 14  1  0  0  0  0
  6  5  1  0  0  0  0
  7  9  2  0  0  0  0
  8 18  1  0  0  0  0
  8  2  1  0  0  0  0
  9 13  1  0  0  0  0
  9 25  1  0  0  0  0
 10 16  1  0  0  0  0
 10  1  2  0  0  0  0
 11  2  2  0  0  0  0
 11  7  1  0  0  0  0
 14 15  1  0  0  0  0
 15 10  1  0  0  0  0
 16 12  1  6  0  0  0
 16  3  1  0  0  0  0
 17 20  1  0  0  0  0
 18 19  1  0  0  0  0
 19 20  2  0  0  0  0
 21 17  2  0  0  0  0
 22 21  1  0  0  0  0
 22 18  2  0  0  0  0
 23  7  1  0  0  0  0
 24 23  1  0  0  0  0
 27 26  1  0  0  0  0
 27 25  1  0  0  0  0
M  END
>  <MODEL>
8

>  <REMARK>
 VINA RESULT:      -4.1      4.009      8.524
  Name = 
  4 active torsions:
  status: ('A' for Active; 'I' for Inactive)
    1  A    between atoms: C_4  and  O_16
    2  A    between atoms: C_4  and  C_17
    3  A    between atoms: O_8  and  C_14
    4  A    between atoms: C_9  and  N_15
                            x       y       z     vdW  Elec       q    Type
                         _______ _______ _______ _____ _____    ______ ____

>  <TORSDO>
F 4

$$$$
=
 OpenBabel11052423183D

 27 30  0  0  1  0  0  0  0  0999 V2000
  161.1160  213.5010  150.2200 N   0  0  0  0  0  0  0  0  0  0  0  0
  160.9830  211.1160  150.8610 C   0  0  0  0  0  0  0  0  0  0  0  0
  161.3200  211.1380  148.3980 O   0  0  0  0  0  0  0  0  0  0  0  0
  161.0920  210.4190  152.0250 N   0  0  0  0  0  0  0  0  0  0  0  0
  161.5360  212.6510  145.8370 C   0  0  0  0  0  2  0  0  0  0  0  0
  162.1670  214.0270  145.8980 C   0  0  0  0  0  2  0  0  0  0  0  0
  162.0270  209.2210  149.7100 C   0  0  0  0  0  0  0  0  0  0  0  0
  160.4600  212.4670  150.9180 N   0  0  0  0  0  0  0  0  0  0  0  0
  162.0900  208.5530  150.9400 C   0  0  0  0  0  0  0  0  0  0  0  0
  161.2580  213.4730  148.9360 C   0  0  0  0  0  0  0  0  0  0  0  0
  161.4450  210.5130  149.6500 C   0  0  0  0  0  0  0  0  0  0  0  0
  160.2980  212.6010  146.7130 C   0  0  0  0  0  2  0  0  0  0  0  0
  161.6200  209.1730  152.0910 C   0  0  0  0  0  3  0  0  0  0  0  0
  162.9640  214.1840  147.1770 C   0  0  0  0  0  2  0  0  0  0  0  0
  162.0950  214.4530  148.3140 N   0  0  0  0  0  2  0  0  0  0  0  0
  160.6170  212.3470  148.1840 C   0  0  1  0  0  3  0  0  0  0  0  0
  157.4780  213.4860  153.7340 C   0  0  0  0  0  3  0  0  0  0  0  0
  159.4620  212.8330  151.8930 C   0  0  0  0  0  0  0  0  0  0  0  0
  159.6710  212.6160  153.2630 C   0  0  0  0  0  3  0  0  0  0  0  0
  158.6800  212.9460  154.1890 C   0  0  0  0  0  3  0  0  0  0  0  0
  157.2780  213.6830  152.4030 N   0  0  0  0  0  0  0  0  0  0  0  0
  158.2310  213.3670  151.4850 C   0  0  0  0  0  3  0  0  0  0  0  0
  162.5420  208.5510  148.5840 O   0  0  0  0  0  0  0  0  0  0  0  0
  161.8530  207.5640  147.8280 C   0  0  0  0  0  1  0  0  0  0  0  0
  162.6980  207.1950  151.0520 C   0  0  0  0  0  2  0  0  0  0  0  0
  161.2490  205.5340  150.9670 C   0  0  0  0  0  1  0  0  0  0  0  0
  161.8990  206.3840  151.8590 O   0  0  0  0  0  0  0  0  0  0  0  0
  1  8  1  0  0  0  0
  2  8  1  0  0  0  0
  2  4  1  0  0  0  0
  3 11  1  0  0  0  0
  4 13  2  0  0  0  0
  5  6  1  0  0  0  0
  5 12  1  0  0  0  0
  6 14  1  0  0  0  0
  7  9  2  0  0  0  0
  8 18  1  0  0  0  0
  9 25  1  0  0  0  0
  9 13  1  0  0  0  0
 10  1  2  0  0  0  0
 11  7  1  0  0  0  0
 11  2  2  0  0  0  0
 14 15  1  0  0  0  0
 15 10  1  0  0  0  0
 16 12  1  6  0  0  0
 16  3  1  0  0  0  0
 16 10  1  0  0  0  0
 17 20  1  0  0  0  0
 18 19  1  0  0  0  0
 19 20  2  0  0  0  0
 21 17  2  0  0  0  0
 22 18  2  0  0  0  0
 22 21  1  0  0  0  0
 23  7  1  0  0  0  0
 24 23  1  0  0  0  0
 25 27  1  0  0  0  0
 26 27  1  0  0  0  0
M  END
>  <MODEL>
9

>  <REMARK>
 VINA RESULT:      -3.8      2.852      6.976
  Name = 
  4 active torsions:
  status: ('A' for Active; 'I' for Inactive)
    1  A    between atoms: C_4  and  O_16
    2  A    between atoms: C_4  and  C_17
    3  A    between atoms: O_8  and  C_14
    4  A    between atoms: C_9  and  N_15
                            x       y       z     vdW  Elec       q    Type
                         _______ _______ _______ _____ _____    ______ ____

>  <TORSDO>
F 4

$$$$
