=
 OpenBabel11052421593D

 30 34  0  0  1  0  0  0  0  0999 V2000
  160.7620  211.3830  152.0030 C   0  0  0  0  0  0  0  0  0  0  0  0
  159.7680  213.6710  151.4200 C   0  0  0  0  0  3  0  0  0  0  0  0
  162.5670  209.6420  148.7910 C   0  0  0  0  0  2  0  0  0  0  0  0
  160.9470  210.3770  152.9970 C   0  0  0  0  0  0  0  0  0  0  0  0
  160.3670  210.5400  154.2910 C   0  0  0  0  0  0  0  0  0  0  0  0
  159.8750  209.8740  156.5990 C   0  0  0  0  0  3  0  0  0  0  0  0
  160.4620  207.0050  152.3860 C   0  0  0  0  0  2  0  0  0  0  0  0
  160.5040  209.6170  155.3780 C   0  0  0  0  0  0  0  0  0  0  0  0
  159.6000  211.7110  154.5170 C   0  0  0  0  0  0  0  0  0  0  0  0
  161.9380  207.8720  150.4720 C   0  0  2  0  0  3  0  0  0  0  0  0
  161.5000  208.6350  149.2100 C   0  0  2  0  0  3  0  0  0  0  0  0
  159.4540  212.6400  153.5450 N   0  0  0  0  0  0  0  0  0  0  0  0
  161.2240  208.5030  155.3150 C   0  0  0  0  0  1  0  0  0  0  0  0
  160.0930  213.8590  150.1450 C   0  0  0  0  0  3  0  0  0  0  0  0
  162.0860  206.3570  150.2530 C   0  0  0  0  0  2  0  0  0  0  0  0
  163.7970  205.8700  151.8590 O   0  0  0  0  0  1  0  0  0  0  0  0
  158.9840  211.9410  155.7490 C   0  0  0  0  0  3  0  0  0  0  0  0
  160.0010  212.5260  152.3110 C   0  0  2  0  0  3  0  0  0  0  0  0
  161.9340  210.9750  148.3630 C   0  0  0  0  0  2  0  0  0  0  0  0
  160.8750  213.4490  147.8940 O   0  0  0  0  0  1  0  0  0  0  0  0
  159.1180  211.0260  156.7870 C   0  0  0  0  0  3  0  0  0  0  0  0
  161.3070  211.1440  150.8110 C   0  0  0  0  0  3  0  0  0  0  0  0
  161.7630  209.1430  152.6450 C   0  0  0  0  0  2  0  0  0  0  0  0
  161.1930  207.7910  148.1390 O   0  0  0  0  0  1  0  0  0  0  0  0
  161.0220  208.2320  151.6630 C   0  0  2  0  0  3  0  0  0  0  0  0
  162.4580  205.6320  151.5480 C   0  0  1  0  0  3  0  0  0  0  0  0
  161.0260  204.8740  153.3160 O   0  0  0  0  0  1  0  0  0  0  0  0
  160.7820  212.9750  149.2000 C   0  0  0  0  0  0  0  0  0  0  0  0
  161.3160  211.7810  149.4900 C   0  0  0  0  0  0  0  0  0  0  0  0
  161.5770  206.0220  152.7450 C   0  0  2  0  0  3  0  0  0  0  0  0
  1 18  1  0  0  0  0
  1  4  1  0  0  0  0
  3 11  1  0  0  0  0
  4  5  2  0  0  0  0
  5  9  1  0  0  0  0
  5  8  1  0  0  0  0
  6 21  1  0  0  0  0
  7 30  1  0  0  0  0
  8  6  2  0  0  0  0
  9 17  1  0  0  0  0
 10 15  1  6  0  0  0
 10 25  1  0  0  0  0
 11 24  1  6  0  0  0
 11 10  1  0  0  0  0
 12  9  2  0  0  0  0
 13  8  1  0  0  0  0
 14  2  2  0  0  0  0
 15 26  1  0  0  0  0
 17 21  2  0  0  0  0
 18  2  1  1  0  0  0
 18 12  1  0  0  0  0
 19  3  1  0  0  0  0
 19 29  1  0  0  0  0
 20 28  1  0  0  0  0
 22  1  2  0  0  0  0
 23  4  1  0  0  0  0
 25  7  1  1  0  0  0
 25 23  1  0  0  0  0
 26 16  1  1  0  0  0
 26 30  1  0  0  0  0
 28 29  2  0  0  0  0
 28 14  1  0  0  0  0
 29 22  1  0  0  0  0
 30 27  1  6  0  0  0
M  END
>  <MODEL>
1

>  <REMARK>
 VINA RESULT:      -5.1      0.000      0.000
  Name = 
  0 active torsions:
  status: ('A' for Active; 'I' for Inactive)
                            x       y       z     vdW  Elec       q    Type
                         _______ _______ _______ _____ _____    ______ ____

>  <TORSDO>
F 0

$$$$
=
 OpenBabel11052421593D

 30 34  0  0  1  0  0  0  0  0999 V2000
  161.4310  209.1360  151.7510 C   0  0  0  0  0  0  0  0  0  0  0  0
  161.1090  211.6380  151.3030 C   0  0  0  0  0  3  0  0  0  0  0  0
  162.5790  207.1220  148.4010 C   0  0  0  0  0  2  0  0  0  0  0  0
  161.3510  208.0700  152.6950 C   0  0  0  0  0  0  0  0  0  0  0  0
  160.8770  208.3240  154.0180 C   0  0  0  0  0  0  0  0  0  0  0  0
  160.2820  207.7080  156.3160 C   0  0  0  0  0  3  0  0  0  0  0  0
  159.9150  205.0060  151.9690 C   0  0  0  0  0  2  0  0  0  0  0  0
  160.7780  207.3460  155.0600 C   0  0  0  0  0  0  0  0  0  0  0  0
  160.4800  209.6510  154.3230 C   0  0  0  0  0  0  0  0  0  0  0  0
  161.5220  205.5180  150.0330 C   0  0  2  0  0  3  0  0  0  0  0  0
  161.2830  206.4360  148.8210 C   0  0  2  0  0  3  0  0  0  0  0  0
  160.5760  210.6310  153.3960 N   0  0  0  0  0  0  0  0  0  0  0  0
  161.1510  206.0790  154.9230 C   0  0  0  0  0  1  0  0  0  0  0  0
  161.4380  211.7910  150.0250 C   0  0  0  0  0  3  0  0  0  0  0  0
  161.2300  204.0350  149.7460 C   0  0  0  0  0  2  0  0  0  0  0  0
  162.7770  203.0060  151.2600 O   0  0  0  0  0  1  0  0  0  0  0  0
  159.9880  209.9820  155.5870 C   0  0  0  0  0  3  0  0  0  0  0  0
  161.0340  210.4300  152.1370 C   0  0  2  0  0  3  0  0  0  0  0  0
  162.3380  208.5990  148.0540 C   0  0  0  0  0  2  0  0  0  0  0  0
  162.0090  211.2910  147.7280 O   0  0  0  0  0  1  0  0  0  0  0  0
  159.8870  209.0150  156.5800 C   0  0  0  0  0  3  0  0  0  0  0  0
  161.8520  208.8140  150.5300 C   0  0  0  0  0  3  0  0  0  0  0  0
  161.7740  206.6760  152.2610 C   0  0  0  0  0  2  0  0  0  0  0  0
  160.7210  205.7670  147.7310 O   0  0  0  0  0  1  0  0  0  0  0  0
  160.7790  206.0610  151.2740 C   0  0  2  0  0  3  0  0  0  0  0  0
  161.4170  203.1710  150.9950 C   0  0  1  0  0  3  0  0  0  0  0  0
  159.8800  202.7580  152.7880 O   0  0  0  0  0  1  0  0  0  0  0  0
  161.8220  210.7980  149.0170 C   0  0  0  0  0  0  0  0  0  0  0  0
  162.0040  209.4890  149.2360 C   0  0  0  0  0  0  0  0  0  0  0  0
  160.7160  203.7310  152.2420 C   0  0  2  0  0  3  0  0  0  0  0  0
  1 18  1  0  0  0  0
  1  4  1  0  0  0  0
  3 11  1  0  0  0  0
  4  5  2  0  0  0  0
  5  9  1  0  0  0  0
  5  8  1  0  0  0  0
  6 21  1  0  0  0  0
  7 30  1  0  0  0  0
  8  6  2  0  0  0  0
  9 17  1  0  0  0  0
 10 15  1  6  0  0  0
 10 25  1  0  0  0  0
 11 24  1  6  0  0  0
 11 10  1  0  0  0  0
 12  9  2  0  0  0  0
 13  8  1  0  0  0  0
 14  2  2  0  0  0  0
 15 26  1  0  0  0  0
 17 21  2  0  0  0  0
 18  2  1  1  0  0  0
 18 12  1  0  0  0  0
 19  3  1  0  0  0  0
 19 29  1  0  0  0  0
 20 28  1  0  0  0  0
 22  1  2  0  0  0  0
 23  4  1  0  0  0  0
 25  7  1  1  0  0  0
 25 23  1  0  0  0  0
 26 16  1  1  0  0  0
 26 30  1  0  0  0  0
 28 29  2  0  0  0  0
 28 14  1  0  0  0  0
 29 22  1  0  0  0  0
 30 27  1  6  0  0  0
M  END
>  <MODEL>
2

>  <REMARK>
 VINA RESULT:      -4.7      1.701      2.400
  Name = 
  0 active torsions:
  status: ('A' for Active; 'I' for Inactive)
                            x       y       z     vdW  Elec       q    Type
                         _______ _______ _______ _____ _____    ______ ____

>  <TORSDO>
F 0

$$$$
=
 OpenBabel11052421593D

 30 34  0  0  1  0  0  0  0  0999 V2000
  160.9970  205.7510  150.5290 C   0  0  0  0  0  0  0  0  0  0  0  0
  161.2510  205.5900  153.0720 C   0  0  0  0  0  3  0  0  0  0  0  0
  160.0110  202.1640  148.8650 C   0  0  0  0  0  2  0  0  0  0  0  0
  161.0830  206.5740  149.3670 C   0  0  0  0  0  0  0  0  0  0  0  0
  161.5110  207.9310  149.4870 C   0  0  0  0  0  0  0  0  0  0  0  0
  162.0600  210.1650  148.6380 C   0  0  0  0  0  3  0  0  0  0  0  0
  162.6380  205.5620  146.4450 C   0  0  0  0  0  2  0  0  0  0  0  0
  161.6120  208.8620  148.4030 C   0  0  0  0  0  0  0  0  0  0  0  0
  161.8570  208.3920  150.7820 C   0  0  0  0  0  0  0  0  0  0  0  0
  161.0710  203.6440  147.1210 C   0  0  2  0  0  3  0  0  0  0  0  0
  161.3160  202.5490  148.1740 C   0  0  2  0  0  3  0  0  0  0  0  0
  161.7560  207.5750  151.8560 N   0  0  0  0  0  0  0  0  0  0  0  0
  161.2840  208.5750  147.1490 C   0  0  0  0  0  1  0  0  0  0  0  0
  160.9530  204.3260  153.3560 C   0  0  0  0  0  2  0  0  0  0  0  0
  161.4190  203.2060  145.6890 C   0  0  0  0  0  2  0  0  0  0  0  0
  159.8640  204.5470  144.4540 O   0  0  0  0  0  1  0  0  0  0  0  0
  162.3010  209.7000  150.9860 C   0  0  0  0  0  3  0  0  0  0  0  0
  161.3410  206.2880  151.7830 C   0  0  0  0  0  0  0  0  0  0  0  0
  160.2140  201.9890  150.3770 C   0  0  0  0  0  2  0  0  0  0  0  0
  160.4650  201.9720  153.0980 O   0  0  0  0  0  1  0  0  0  0  0  0
  162.4050  210.5840  149.9190 C   0  0  0  0  0  3  0  0  0  0  0  0
  160.6210  204.4880  150.3320 C   0  0  0  0  0  3  0  0  0  0  0  0
  160.7180  205.9760  148.0180 C   0  0  0  0  0  2  0  0  0  0  0  0
  161.9300  201.4100  147.6460 O   0  0  0  0  0  1  0  0  0  0  0  0
  161.7600  204.9600  147.5440 C   0  0  2  0  0  3  0  0  0  0  0  0
  161.2240  204.3460  144.6860 C   0  0  1  0  0  3  0  0  0  0  0  0
  162.7220  206.1300  144.1230 O   0  0  0  0  0  1  0  0  0  0  0  0
  160.6310  203.2040  152.4700 C   0  0  0  0  0  0  0  0  0  0  0  0
  160.4840  203.2720  151.1400 C   0  0  0  0  0  0  0  0  0  0  0  0
  161.8710  205.6680  145.1250 C   0  0  2  0  0  3  0  0  0  0  0  0
  1 18  1  0  0  0  0
  2 14  1  0  0  0  0
  3 19  1  0  0  0  0
  4  5  2  0  0  0  0
  4  1  1  0  0  0  0
  5  9  1  0  0  0  0
  6 21  1  0  0  0  0
  8  6  2  0  0  0  0
  8  5  1  0  0  0  0
  9 17  1  0  0  0  0
  9 12  2  0  0  0  0
 10 15  1  6  0  0  0
 10 25  1  0  0  0  0
 10 11  1  0  0  0  0
 11 24  1  6  0  0  0
 11  3  1  0  0  0  0
 13  8  1  0  0  0  0
 18 12  1  0  0  0  0
 18  2  2  0  0  0  0
 19 29  1  0  0  0  0
 21 17  2  0  0  0  0
 22  1  2  0  0  0  0
 22 29  1  0  0  0  0
 23  4  1  0  0  0  0
 25  7  1  6  0  0  0
 25 23  1  0  0  0  0
 26 16  1  1  0  0  0
 26 30  1  0  0  0  0
 26 15  1  0  0  0  0
 28 20  1  0  0  0  0
 28 14  1  0  0  0  0
 29 28  2  0  0  0  0
 30 27  1  6  0  0  0
 30  7  1  0  0  0  0
M  END
>  <MODEL>
3

>  <REMARK>
 VINA RESULT:      -4.7      3.845      7.531
  Name = 
  0 active torsions:
  status: ('A' for Active; 'I' for Inactive)
                            x       y       z     vdW  Elec       q    Type
                         _______ _______ _______ _____ _____    ______ ____

>  <TORSDO>
F 0

$$$$
=
 OpenBabel11052421593D

 30 34  0  0  1  0  0  0  0  0999 V2000
  158.8650  213.2470  150.4750 C   0  0  0  0  0  0  0  0  0  0  0  0
  157.9440  214.1390  148.2570 C   0  0  0  0  0  3  0  0  0  0  0  0
  162.4840  211.4360  150.0040 C   0  0  0  0  0  2  0  0  0  0  0  0
  158.6480  213.0620  151.8720 C   0  0  0  0  0  0  0  0  0  0  0  0
  157.4150  213.4750  152.4630 C   0  0  0  0  0  0  0  0  0  0  0  0
  155.8420  213.7920  154.3170 C   0  0  0  0  0  3  0  0  0  0  0  0
  159.2910  210.0800  153.5070 C   0  0  0  0  0  2  0  0  0  0  0  0
  157.0910  213.3680  153.8540 C   0  0  0  0  0  0  0  0  0  0  0  0
  156.4390  214.0390  151.6030 C   0  0  0  0  0  0  0  0  0  0  0  0
  161.3820  210.5920  152.1080 C   0  0  2  0  0  3  0  0  0  0  0  0
  161.5990  210.3480  150.6050 C   0  0  2  0  0  3  0  0  0  0  0  0
  156.6910  214.1970  150.2830 N   0  0  0  0  0  0  0  0  0  0  0  0
  157.9250  212.8970  154.7730 C   0  0  0  0  0  1  0  0  0  0  0  0
  158.8920  213.8600  147.3680 C   0  0  0  0  0  3  0  0  0  0  0  0
  161.9310  209.4640  152.9990 C   0  0  0  0  0  2  0  0  0  0  0  0
  162.4760  210.7170  154.9680 O   0  0  0  0  0  1  0  0  0  0  0  0
  155.2000  214.4530  152.0950 C   0  0  0  0  0  3  0  0  0  0  0  0
  157.8530  213.8310  149.6910 C   0  0  2  0  0  3  0  0  0  0  0  0
  161.9560  211.8880  148.6350 C   0  0  0  0  0  2  0  0  0  0  0  0
  160.8810  212.9340  146.3510 O   0  0  0  0  0  1  0  0  0  0  0  0
  154.9000  214.3290  153.4460 C   0  0  0  0  0  3  0  0  0  0  0  0
  160.0260  212.8080  149.9930 C   0  0  0  0  0  3  0  0  0  0  0  0
  159.7480  212.4200  152.7040 C   0  0  0  0  0  2  0  0  0  0  0  0
  162.1360  209.0880  150.3280 O   0  0  0  0  0  1  0  0  0  0  0  0
  159.9020  210.9300  152.3900 C   0  0  2  0  0  3  0  0  0  0  0  0
  161.6350  209.7180  154.4780 C   0  0  1  0  0  3  0  0  0  0  0  0
  159.6400  209.2400  155.7190 O   0  0  0  0  0  1  0  0  0  0  0  0
  160.1580  213.1380  147.5240 C   0  0  0  0  0  0  0  0  0  0  0  0
  160.6580  212.6730  148.6760 C   0  0  0  0  0  0  0  0  0  0  0  0
  160.1720  210.0970  154.7570 C   0  0  2  0  0  3  0  0  0  0  0  0
  1  4  1  0  0  0  0
  3 11  1  0  0  0  0
  4  5  2  0  0  0  0
  4 23  1  0  0  0  0
  5  8  1  0  0  0  0
  7 30  1  0  0  0  0
  8  6  2  0  0  0  0
  8 13  1  0  0  0  0
  9 17  1  0  0  0  0
  9  5  1  0  0  0  0
 10 25  1  0  0  0  0
 10 15  1  1  0  0  0
 11 24  1  1  0  0  0
 11 10  1  0  0  0  0
 12  9  2  0  0  0  0
 14 28  1  0  0  0  0
 14  2  2  0  0  0  0
 15 26  1  0  0  0  0
 17 21  2  0  0  0  0
 18  2  1  1  0  0  0
 18 12  1  0  0  0  0
 18  1  1  0  0  0  0
 19 29  1  0  0  0  0
 19  3  1  0  0  0  0
 20 28  1  0  0  0  0
 21  6  1  0  0  0  0
 22  1  2  0  0  0  0
 25 23  1  1  0  0  0
 25  7  1  0  0  0  0
 26 30  1  0  0  0  0
 26 16  1  6  0  0  0
 28 29  2  0  0  0  0
 29 22  1  0  0  0  0
 30 27  1  1  0  0  0
M  END
>  <MODEL>
4

>  <REMARK>
 VINA RESULT:      -4.6      2.755      4.074
  Name = 
  0 active torsions:
  status: ('A' for Active; 'I' for Inactive)
                            x       y       z     vdW  Elec       q    Type
                         _______ _______ _______ _____ _____    ______ ____

>  <TORSDO>
F 0

$$$$
=
 OpenBabel11052421593D

 30 34  0  0  1  0  0  0  0  0999 V2000
  160.9020  206.9200  152.2820 C   0  0  0  0  0  0  0  0  0  0  0  0
  161.0360  204.7050  153.5600 C   0  0  0  0  0  3  0  0  0  0  0  0
  160.7390  206.3480  148.2510 C   0  0  0  0  0  2  0  0  0  0  0  0
  160.8910  208.3450  152.3550 C   0  0  0  0  0  0  0  0  0  0  0  0
  161.0350  208.9940  153.6180 C   0  0  0  0  0  0  0  0  0  0  0  0
  161.1800  210.9370  155.1080 C   0  0  0  0  0  3  0  0  0  0  0  0
  162.7790  210.3580  150.2660 C   0  0  0  0  0  2  0  0  0  0  0  0
  161.0120  210.4120  153.8230 C   0  0  0  0  0  0  0  0  0  0  0  0
  161.2080  208.1690  154.7580 C   0  0  0  0  0  0  0  0  0  0  0  0
  161.5860  208.6700  148.7430 C   0  0  2  0  0  3  0  0  0  0  0  0
  161.9800  207.2110  148.4550 C   0  0  2  0  0  3  0  0  0  0  0  0
  161.2090  206.8210  154.6410 N   0  0  0  0  0  0  0  0  0  0  0  0
  160.8200  211.2960  152.8520 C   0  0  0  0  0  2  0  0  0  0  0  0
  160.9780  203.7720  152.6150 C   0  0  0  0  0  3  0  0  0  0  0  0
  162.0950  209.6640  147.6860 C   0  0  0  0  0  2  0  0  0  0  0  0
  160.3790  211.3310  147.8210 O   0  0  0  0  0  1  0  0  0  0  0  0
  161.3730  208.7230  156.0290 C   0  0  0  0  0  3  0  0  0  0  0  0
  161.0600  206.1700  153.4620 C   0  0  0  0  0  0  0  0  0  0  0  0
  160.8860  204.9910  148.9560 C   0  0  0  0  0  2  0  0  0  0  0  0
  160.9790  202.7030  150.4460 O   0  0  0  0  0  1  0  0  0  0  0  0
  161.3620  210.1010  156.2050 C   0  0  0  0  0  3  0  0  0  0  0  0
  160.7940  206.3890  151.0650 C   0  0  0  0  0  3  0  0  0  0  0  0
  160.7290  209.1410  151.0700 C   0  0  0  0  0  2  0  0  0  0  0  0
  162.8360  207.0830  147.3580 O   0  0  0  0  0  1  0  0  0  0  0  0
  161.9760  209.0570  150.1870 C   0  0  2  0  0  3  0  0  0  0  0  0
  161.7360  211.1070  148.0480 C   0  0  1  0  0  3  0  0  0  0  0  0
  162.8830  212.6240  149.5080 O   0  0  0  0  0  1  0  0  0  0  0  0
  160.9340  203.9000  151.1550 C   0  0  0  0  0  0  0  0  0  0  0  0
  160.8540  205.0490  150.4720 C   0  0  0  0  0  0  0  0  0  0  0  0
  162.0830  211.4820  149.4970 C   0  0  2  0  0  3  0  0  0  0  0  0
  1  4  1  0  0  0  0
  1 18  1  0  0  0  0
  3 11  1  0  0  0  0
  3 19  1  0  0  0  0
  4  5  2  0  0  0  0
  5  8  1  0  0  0  0
  5  9  1  0  0  0  0
  6 21  2  0  0  0  0
  8  6  1  0  0  0  0
  9 17  2  0  0  0  0
 10 15  1  6  0  0  0
 10 25  1  0  0  0  0
 11 24  1  6  0  0  0
 11 10  1  0  0  0  0
 12  9  1  0  0  0  0
 13  8  2  0  0  0  0
 14  2  2  0  0  0  0
 15 26  1  0  0  0  0
 17 21  1  0  0  0  0
 18  2  1  0  0  0  0
 18 12  2  0  0  0  0
 19 29  1  0  0  0  0
 20 28  1  0  0  0  0
 22  1  2  0  0  0  0
 23  4  1  0  0  0  0
 25  7  1  6  0  0  0
 25 23  1  0  0  0  0
 26 16  1  1  0  0  0
 26 30  1  0  0  0  0
 28 14  1  0  0  0  0
 29 22  1  0  0  0  0
 29 28  2  0  0  0  0
 30 27  1  6  0  0  0
 30  7  1  0  0  0  0
M  END
>  <MODEL>
5

>  <REMARK>
 VINA RESULT:      -4.5      2.181      5.683
  Name = 
  0 active torsions:
  status: ('A' for Active; 'I' for Inactive)
                            x       y       z     vdW  Elec       q    Type
                         _______ _______ _______ _____ _____    ______ ____

>  <TORSDO>
F 0

$$$$
=
 OpenBabel11052421593D

 30 34  0  0  1  0  0  0  0  0999 V2000
  161.4270  209.6690  151.6040 C   0  0  0  0  0  0  0  0  0  0  0  0
  162.3310  207.5680  150.4520 C   0  0  0  0  0  3  0  0  0  0  0  0
  160.4560  208.9740  155.5000 C   0  0  0  0  0  2  0  0  0  0  0  0
  161.0610  211.0410  151.4740 C   0  0  0  0  0  0  0  0  0  0  0  0
  161.1490  211.6840  150.2020 C   0  0  0  0  0  0  0  0  0  0  0  0
  160.9460  213.5770  148.6570 C   0  0  0  0  0  3  0  0  0  0  0  0
  158.1240  212.3450  152.7610 C   0  0  0  0  0  2  0  0  0  0  0  0
  160.8380  213.0600  149.9500 C   0  0  0  0  0  0  0  0  0  0  0  0
  161.5850  210.8980  149.1050 C   0  0  0  0  0  0  0  0  0  0  0  0
  159.1950  210.9880  154.6600 C   0  0  2  0  0  3  0  0  0  0  0  0
  159.1540  209.4650  154.8740 C   0  0  2  0  0  3  0  0  0  0  0  0
  161.9240  209.6010  149.2770 N   0  0  0  0  0  0  0  0  0  0  0  0
  160.4570  213.9150  150.8910 C   0  0  0  0  0  1  0  0  0  0  0  0
  162.3450  206.6450  151.4080 C   0  0  0  0  0  2  0  0  0  0  0  0
  158.1200  211.7480  155.4540 C   0  0  0  0  0  2  0  0  0  0  0  0
  159.2520  213.8330  155.7950 O   0  0  0  0  0  1  0  0  0  0  0  0
  161.6830  211.4440  147.8240 C   0  0  0  0  0  3  0  0  0  0  0  0
  161.8670  208.9620  150.4700 C   0  0  0  0  0  0  0  0  0  0  0  0
  160.9260  207.6650  154.8480 C   0  0  0  0  0  2  0  0  0  0  0  0
  161.9550  205.5160  153.5110 O   0  0  0  0  0  1  0  0  0  0  0  0
  161.3630  212.7770  147.5980 C   0  0  0  0  0  3  0  0  0  0  0  0
  161.2870  209.1320  152.8150 C   0  0  0  0  0  3  0  0  0  0  0  0
  160.5770  211.7890  152.7070 C   0  0  0  0  0  2  0  0  0  0  0  0
  158.0670  209.0500  155.6470 O   0  0  0  0  0  1  0  0  0  0  0  0
  159.1900  211.3180  153.1510 C   0  0  2  0  0  3  0  0  0  0  0  0
  158.1560  213.2490  155.1590 C   0  0  1  0  0  3  0  0  0  0  0  0
  157.1550  214.4530  153.3440 O   0  0  0  0  0  1  0  0  0  0  0  0
  161.8860  206.7100  152.7990 C   0  0  0  0  0  0  0  0  0  0  0  0
  161.4200  207.8020  153.4200 C   0  0  0  0  0  0  0  0  0  0  0  0
  158.1960  213.5810  153.6600 C   0  0  2  0  0  3  0  0  0  0  0  0
  1 22  2  0  0  0  0
  2 18  2  0  0  0  0
  2 14  1  0  0  0  0
  4  1  1  0  0  0  0
  4 23  1  0  0  0  0
  5  4  2  0  0  0  0
  6  8  2  0  0  0  0
  7 25  1  0  0  0  0
  7 30  1  0  0  0  0
  8  5  1  0  0  0  0
  8 13  1  0  0  0  0
  9 12  2  0  0  0  0
  9  5  1  0  0  0  0
 10 11  1  0  0  0  0
 10 15  1  1  0  0  0
 11  3  1  0  0  0  0
 11 24  1  1  0  0  0
 12 18  1  0  0  0  0
 14 28  1  0  0  0  0
 17  9  1  0  0  0  0
 18  1  1  0  0  0  0
 19  3  1  0  0  0  0
 21 17  2  0  0  0  0
 21  6  1  0  0  0  0
 22 29  1  0  0  0  0
 25 23  1  1  0  0  0
 25 10  1  0  0  0  0
 26 15  1  0  0  0  0
 26 16  1  1  0  0  0
 28 29  2  0  0  0  0
 28 20  1  0  0  0  0
 29 19  1  0  0  0  0
 30 27  1  6  0  0  0
 30 26  1  0  0  0  0
M  END
>  <MODEL>
6

>  <REMARK>
 VINA RESULT:      -4.4      2.655      7.012
  Name = 
  0 active torsions:
  status: ('A' for Active; 'I' for Inactive)
                            x       y       z     vdW  Elec       q    Type
                         _______ _______ _______ _____ _____    ______ ____

>  <TORSDO>
F 0

$$$$
=
 OpenBabel11052421593D

 30 34  0  0  1  0  0  0  0  0999 V2000
  161.5620  208.8650  151.1440 C   0  0  0  0  0  0  0  0  0  0  0  0
  162.0500  206.9310  149.5370 C   0  0  0  0  0  3  0  0  0  0  0  0
  161.1870  207.5890  154.9960 C   0  0  0  0  0  2  0  0  0  0  0  0
  161.3170  210.2620  151.2960 C   0  0  0  0  0  0  0  0  0  0  0  0
  161.2570  211.1030  150.1440 C   0  0  0  0  0  0  0  0  0  0  0  0
  160.9880  213.2400  148.9720 C   0  0  0  0  0  3  0  0  0  0  0  0
  158.7780  211.5320  153.2760 C   0  0  0  0  0  2  0  0  0  0  0  0
  161.0450  212.5200  150.1680 C   0  0  0  0  0  0  0  0  0  0  0  0
  161.4240  210.4860  148.8780 C   0  0  0  0  0  0  0  0  0  0  0  0
  160.0090  209.8010  154.7180 C   0  0  2  0  0  3  0  0  0  0  0  0
  159.8540  208.2700  154.6980 C   0  0  2  0  0  3  0  0  0  0  0  0
  161.6570  209.1570  148.7840 N   0  0  0  0  0  0  0  0  0  0  0  0
  160.9130  213.2280  151.2830 C   0  0  0  0  0  1  0  0  0  0  0  0
  162.1310  205.8610  150.3210 C   0  0  0  0  0  2  0  0  0  0  0  0
  159.1610  210.4890  155.8000 C   0  0  0  0  0  2  0  0  0  0  0  0
  160.5340  212.4010  156.2500 O   0  0  0  0  0  1  0  0  0  0  0  0
  161.3630  211.2330  147.7000 C   0  0  0  0  0  3  0  0  0  0  0  0
  161.7360  208.3310  149.8540 C   0  0  0  0  0  0  0  0  0  0  0  0
  161.4100  206.3800  154.0750 C   0  0  0  0  0  2  0  0  0  0  0  0
  161.9850  204.4220  152.2590 O   0  0  0  0  0  1  0  0  0  0  0  0
  161.1430  212.6040  147.7440 C   0  0  0  0  0  3  0  0  0  0  0  0
  161.5720  208.1420  152.2630 C   0  0  0  0  0  3  0  0  0  0  0  0
  161.1210  210.8220  152.6960 C   0  0  0  0  0  2  0  0  0  0  0  0
  158.8740  207.8080  155.5800 O   0  0  0  0  0  1  0  0  0  0  0  0
  159.7870  210.3820  153.3040 C   0  0  2  0  0  3  0  0  0  0  0  0
  159.2960  212.0120  155.7390 C   0  0  1  0  0  3  0  0  0  0  0  0
  158.1320  213.5740  154.3420 O   0  0  0  0  0  1  0  0  0  0  0  0
  161.9170  205.7220  151.7650 C   0  0  0  0  0  0  0  0  0  0  0  0
  161.6710  206.7230  152.6200 C   0  0  0  0  0  0  0  0  0  0  0  0
  159.1200  212.5900  154.3270 C   0  0  2  0  0  3  0  0  0  0  0  0
  1  4  1  0  0  0  0
  1 22  2  0  0  0  0
  2 18  2  0  0  0  0
  2 14  1  0  0  0  0
  4 23  1  0  0  0  0
  5  8  1  0  0  0  0
  5  4  2  0  0  0  0
  6  8  2  0  0  0  0
  7 25  1  0  0  0  0
  7 30  1  0  0  0  0
  8 13  1  0  0  0  0
  9  5  1  0  0  0  0
 10 15  1  1  0  0  0
 11 10  1  0  0  0  0
 11  3  1  0  0  0  0
 11 24  1  1  0  0  0
 12  9  2  0  0  0  0
 12 18  1  0  0  0  0
 14 28  1  0  0  0  0
 17 21  2  0  0  0  0
 17  9  1  0  0  0  0
 18  1  1  0  0  0  0
 19  3  1  0  0  0  0
 21  6  1  0  0  0  0
 22 29  1  0  0  0  0
 25 23  1  1  0  0  0
 25 10  1  0  0  0  0
 26 15  1  0  0  0  0
 26 16  1  6  0  0  0
 28 20  1  0  0  0  0
 28 29  2  0  0  0  0
 29 19  1  0  0  0  0
 30 27  1  1  0  0  0
 30 26  1  0  0  0  0
M  END
>  <MODEL>
7

>  <REMARK>
 VINA RESULT:      -4.0      2.578      6.723
  Name = 
  0 active torsions:
  status: ('A' for Active; 'I' for Inactive)
                            x       y       z     vdW  Elec       q    Type
                         _______ _______ _______ _____ _____    ______ ____

>  <TORSDO>
F 0

$$$$
=
 OpenBabel11052421593D

 30 34  0  0  1  0  0  0  0  0999 V2000
  160.7250  208.1590  152.6630 C   0  0  0  0  0  0  0  0  0  0  0  0
  161.0150  206.2040  154.2920 C   0  0  0  0  0  3  0  0  0  0  0  0
  161.1390  206.9850  148.7830 C   0  0  0  0  0  2  0  0  0  0  0  0
  160.5030  209.5580  152.5010 C   0  0  0  0  0  0  0  0  0  0  0  0
  160.3980  210.4000  153.6490 C   0  0  0  0  0  0  0  0  0  0  0  0
  160.0830  212.5380  154.8100 C   0  0  0  0  0  3  0  0  0  0  0  0
  162.3270  211.5200  150.3090 C   0  0  0  0  0  2  0  0  0  0  0  0
  160.1500  211.8110  153.6180 C   0  0  0  0  0  0  0  0  0  0  0  0
  160.5460  209.7880  154.9200 C   0  0  0  0  0  0  0  0  0  0  0  0
  161.5810  209.4590  148.9710 C   0  0  2  0  0  3  0  0  0  0  0  0
  162.2110  208.0560  148.9640 C   0  0  2  0  0  3  0  0  0  0  0  0
  160.7520  208.4560  155.0250 N   0  0  0  0  0  0  0  0  0  0  0  0
  159.9530  212.5010  152.5010 C   0  0  0  0  0  2  0  0  0  0  0  0
  161.2060  205.1460  153.5110 C   0  0  0  0  0  3  0  0  0  0  0  0
  162.0690  210.3560  147.8210 C   0  0  0  0  0  2  0  0  0  0  0  0
  160.1300  211.7300  147.5130 O   0  0  0  0  0  1  0  0  0  0  0  0
  160.4740  210.5410  156.0940 C   0  0  0  0  0  3  0  0  0  0  0  0
  160.8430  207.6240  153.9590 C   0  0  0  0  0  0  0  0  0  0  0  0
  161.3900  205.7870  149.7110 C   0  0  0  0  0  2  0  0  0  0  0  0
  161.6240  203.7850  151.5560 O   0  0  0  0  0  1  0  0  0  0  0  0
  160.2460  211.9110  156.0410 C   0  0  0  0  0  3  0  0  0  0  0  0
  160.8440  207.4460  151.5450 C   0  0  0  0  0  3  0  0  0  0  0  0
  160.3880  210.1220  151.0930 C   0  0  0  0  0  2  0  0  0  0  0  0
  163.2040  207.9070  147.9930 O   0  0  0  0  0  1  0  0  0  0  0  0
  161.7330  210.1110  150.3630 C   0  0  2  0  0  3  0  0  0  0  0  0
  161.4680  211.7610  147.9060 C   0  0  1  0  0  3  0  0  0  0  0  0
  162.2010  213.6380  149.2050 O   0  0  0  0  0  1  0  0  0  0  0  0
  161.3230  205.0510  152.0520 C   0  0  0  0  0  0  0  0  0  0  0  0
  161.1650  206.0600  151.1860 C   0  0  0  0  0  0  0  0  0  0  0  0
  161.5780  212.3940  149.3020 C   0  0  2  0  0  3  0  0  0  0  0  0
  1 18  1  0  0  0  0
  3 11  1  0  0  0  0
  3 19  1  0  0  0  0
  4  1  1  0  0  0  0
  4  5  2  0  0  0  0
  5  9  1  0  0  0  0
  6 21  2  0  0  0  0
  8  5  1  0  0  0  0
  8  6  1  0  0  0  0
  9 12  1  0  0  0  0
  9 17  2  0  0  0  0
 10 15  1  6  0  0  0
 10 25  1  0  0  0  0
 11 24  1  6  0  0  0
 11 10  1  0  0  0  0
 13  8  2  0  0  0  0
 14  2  2  0  0  0  0
 15 26  1  0  0  0  0
 18  2  1  0  0  0  0
 18 12  2  0  0  0  0
 19 29  1  0  0  0  0
 20 28  1  0  0  0  0
 21 17  1  0  0  0  0
 22  1  2  0  0  0  0
 23  4  1  0  0  0  0
 25  7  1  6  0  0  0
 25 23  1  0  0  0  0
 26 16  1  1  0  0  0
 26 30  1  0  0  0  0
 28 14  1  0  0  0  0
 29 22  1  0  0  0  0
 29 28  2  0  0  0  0
 30 27  1  6  0  0  0
 30  7  1  0  0  0  0
M  END
>  <MODEL>
8

>  <REMARK>
 VINA RESULT:      -4.0      1.615      5.399
  Name = 
  0 active torsions:
  status: ('A' for Active; 'I' for Inactive)
                            x       y       z     vdW  Elec       q    Type
                         _______ _______ _______ _____ _____    ______ ____

>  <TORSDO>
F 0

$$$$
=
 OpenBabel11052421593D

 30 34  0  0  1  0  0  0  0  0999 V2000
  157.9660  213.3090  152.7450 C   0  0  0  0  0  0  0  0  0  0  0  0
  156.4880  214.3300  150.9180 C   0  0  0  0  0  3  0  0  0  0  0  0
  161.3800  211.6930  151.2170 C   0  0  0  0  0  2  0  0  0  0  0  0
  158.1200  213.0090  154.1310 C   0  0  0  0  0  0  0  0  0  0  0  0
  157.0710  213.3240  155.0480 C   0  0  0  0  0  0  0  0  0  0  0  0
  156.0210  213.4310  157.2610 C   0  0  0  0  0  3  0  0  0  0  0  0
  159.2220  209.9400  155.2890 C   0  0  0  0  0  2  0  0  0  0  0  0
  157.1180  213.0970  156.4610 C   0  0  0  0  0  0  0  0  0  0  0  0
  155.8960  213.9110  154.5150 C   0  0  0  0  0  0  0  0  0  0  0  0
  160.8740  210.6450  153.4530 C   0  0  2  0  0  3  0  0  0  0  0  0
  160.7020  210.5260  151.9290 C   0  0  2  0  0  3  0  0  0  0  0  0
  155.7960  214.1800  153.1930 N   0  0  0  0  0  0  0  0  0  0  0  0
  158.1690  212.5920  157.0950 C   0  0  0  0  0  1  0  0  0  0  0  0
  157.1820  214.1600  149.7970 C   0  0  0  0  0  3  0  0  0  0  0  0
  161.6560  209.4760  154.0760 C   0  0  0  0  0  2  0  0  0  0  0  0
  162.6620  210.5960  155.9400 O   0  0  0  0  0  1  0  0  0  0  0  0
  154.8160  214.2340  155.3390 C   0  0  0  0  0  3  0  0  0  0  0  0
  156.7750  213.9090  152.2970 C   0  0  2  0  0  3  0  0  0  0  0  0
  160.5080  212.2260  150.0710 C   0  0  0  0  0  2  0  0  0  0  0  0
  158.8610  213.3980  148.2330 O   0  0  0  0  0  1  0  0  0  0  0  0
  154.8760  213.9940  156.7070 C   0  0  0  0  0  3  0  0  0  0  0  0
  158.9740  212.9570  151.9480 C   0  0  0  0  0  3  0  0  0  0  0  0
  159.4090  212.3520  154.5980 C   0  0  0  0  0  2  0  0  0  0  0  0
  161.1760  209.3150  151.4180 O   0  0  0  0  0  1  0  0  0  0  0  0
  159.5080  210.8980  154.1300 C   0  0  2  0  0  3  0  0  0  0  0  0
  161.7440  209.6030  155.5980 C   0  0  1  0  0  3  0  0  0  0  0  0
  160.1460  208.9490  157.2610 O   0  0  0  0  0  1  0  0  0  0  0  0
  158.4600  213.4810  149.5640 C   0  0  0  0  0  0  0  0  0  0  0  0
  159.2490  212.9510  150.5070 C   0  0  0  0  0  0  0  0  0  0  0  0
  160.3950  209.8990  156.2700 C   0  0  2  0  0  3  0  0  0  0  0  0
  1  4  1  0  0  0  0
  3 11  1  0  0  0  0
  4 23  1  0  0  0  0
  4  5  2  0  0  0  0
  5  8  1  0  0  0  0
  7 30  1  0  0  0  0
  8 13  1  0  0  0  0
  8  6  2  0  0  0  0
  9  5  1  0  0  0  0
  9 17  1  0  0  0  0
 10 15  1  1  0  0  0
 10 25  1  0  0  0  0
 11 24  1  6  0  0  0
 11 10  1  0  0  0  0
 12  9  2  0  0  0  0
 14  2  2  0  0  0  0
 15 26  1  0  0  0  0
 17 21  2  0  0  0  0
 18  2  1  1  0  0  0
 18  1  1  0  0  0  0
 18 12  1  0  0  0  0
 19 29  1  0  0  0  0
 19  3  1  0  0  0  0
 20 28  1  0  0  0  0
 21  6  1  0  0  0  0
 22  1  2  0  0  0  0
 25 23  1  1  0  0  0
 25  7  1  0  0  0  0
 26 16  1  6  0  0  0
 26 30  1  0  0  0  0
 28 14  1  0  0  0  0
 28 29  2  0  0  0  0
 29 22  1  0  0  0  0
 30 27  1  1  0  0  0
M  END
>  <MODEL>
9

>  <REMARK>
 VINA RESULT:      -3.8      2.878      4.266
  Name = 
  0 active torsions:
  status: ('A' for Active; 'I' for Inactive)
                            x       y       z     vdW  Elec       q    Type
                         _______ _______ _______ _____ _____    ______ ____

>  <TORSDO>
F 0

$$$$
