=
 OpenBabel11062408293D

 32 36  0  0  1  0  0  0  0  0999 V2000
  161.7110  208.8660  150.8300 C   0  0  0  0  0  0  0  0  0  0  0  0
  161.6250  208.1120  153.2100 C   0  0  2  0  0  3  0  0  0  0  0  0
  161.5440  208.6270  149.3810 C   0  0  0  0  0  3  0  0  0  0  0  0
  161.4120  207.8820  151.7210 C   0  0  0  0  0  0  0  0  0  0  0  0
  160.6490  207.4740  153.9940 O   0  0  0  0  0  0  0  0  0  0  0  0
  160.0520  211.3630  155.7390 C   0  0  0  0  0  3  0  0  0  0  0  0
  161.5800  209.5890  153.5730 C   0  0  2  0  0  3  0  0  0  0  0  0
  159.5380  208.9600  156.1530 C   0  0  0  0  0  2  0  0  0  0  0  0
  161.0210  208.6460  155.8440 C   0  0  1  0  0  3  0  0  0  0  0  0
  160.9030  206.5380  151.2040 C   0  0  1  0  0  3  0  0  0  0  0  0
  161.1740  207.3850  155.2140 O   0  0  0  0  0  0  0  0  0  0  0  0
  161.4700  206.2150  149.8170 C   0  0  0  0  0  2  0  0  0  0  0  0
  162.5930  210.3400  152.7300 C   0  0  0  0  0  2  0  0  0  0  0  0
  162.1640  210.2510  151.2610 C   0  0  2  0  0  3  0  0  0  0  0  0
  161.8010  209.7530  155.0770 C   0  0  2  0  0  3  0  0  0  0  0  0
  161.3840  207.3960  148.9010 C   0  0  0  0  0  3  0  0  0  0  0  0
  159.0500  210.2680  155.5190 C   0  0  0  0  0  2  0  0  0  0  0  0
  161.3510  211.1190  155.5280 C   0  0  0  0  0  3  0  0  0  0  0  0
  160.7510  213.4770  149.4990 C   0  0  1  0  0  3  0  0  0  0  0  0
  157.5070  214.0100  150.7730 F   0  0  0  0  0  0  0  0  0  0  0  0
  161.3080  214.3170  148.3550 C   0  0  0  0  0  1  0  0  0  0  0  0
  158.9570  212.4300  151.6280 C   0  0  0  0  0  3  0  0  0  0  0  0
  161.1680  211.3300  150.8990 C   0  0  0  0  0  0  0  0  0  0  0  0
  159.2780  213.2310  149.2890 C   0  0  0  0  0  2  0  0  0  0  0  0
  160.1080  211.5000  151.7130 C   0  0  0  0  0  3  0  0  0  0  0  0
  161.4350  212.1490  149.6880 C   0  0  0  0  0  0  0  0  0  0  0  0
  162.2050  211.6450  148.7210 C   0  0  0  0  0  2  0  0  0  0  0  0
  158.5830  213.2050  150.6070 C   0  0  0  0  0  0  0  0  0  0  0  0
  161.2320  205.3820  152.1430 C   0  0  0  0  0  2  0  0  0  0  0  0
  161.9380  203.1710  151.6030 O   0  0  0  0  0  1  0  0  0  0  0  0
  159.9640  203.8410  150.6470 O   0  0  0  0  0  0  0  0  0  0  0  0
  161.0760  204.0750  151.4460 C   0  0  0  0  0  0  0  0  0  0  0  0
  1 14  1  0  0  0  0
  1  4  2  0  0  0  0
  2  4  1  6  0  0  0
  2  7  1  0  0  0  0
  2  5  1  0  0  0  0
  3  1  1  0  0  0  0
  5 11  1  0  0  0  0
  7 13  1  6  0  0  0
  7 15  1  0  0  0  0
  9  8  1  6  0  0  0
 10  4  1  0  0  0  0
 10 29  1  1  0  0  0
 11  9  1  0  0  0  0
 12 10  1  0  0  0  0
 14 23  1  1  0  0  0
 14 13  1  0  0  0  0
 15 18  1  1  0  0  0
 15  9  1  0  0  0  0
 16  3  2  0  0  0  0
 16 12  1  0  0  0  0
 17  6  1  0  0  0  0
 17  8  1  0  0  0  0
 18  6  2  0  0  0  0
 19 21  1  6  0  0  0
 19 26  1  0  0  0  0
 22 25  1  0  0  0  0
 23 25  2  0  0  0  0
 24 19  1  0  0  0  0
 24 28  1  0  0  0  0
 26 23  1  0  0  0  0
 27 26  2  0  0  0  0
 28 20  1  0  0  0  0
 28 22  2  0  0  0  0
 31 32  2  0  0  0  0
 32 30  1  0  0  0  0
 32 29  1  0  0  0  0
M  END
>  <MODEL>
1

>  <REMARK>
 VINA RESULT:      -6.5      0.000      0.000
  Name = 
  3 active torsions:
  status: ('A' for Active; 'I' for Inactive)
    1  A    between atoms: C_14  and  C_18
    2  A    between atoms: C_16  and  C_27
    3  A    between atoms: C_18  and  C_29
                            x       y       z     vdW  Elec       q    Type
                         _______ _______ _______ _____ _____    ______ ____

>  <TORSDO>
F 3

$$$$
=
 OpenBabel11062408293D

 32 36  0  0  1  0  0  0  0  0999 V2000
  160.9410  210.0400  152.5380 C   0  0  0  0  0  0  0  0  0  0  0  0
  160.7260  212.2500  151.3930 C   0  0  2  0  0  3  0  0  0  0  0  0
  160.5320  209.0610  153.5660 C   0  0  0  0  0  3  0  0  0  0  0  0
  160.2780  211.2230  152.4210 C   0  0  0  0  0  0  0  0  0  0  0  0
  159.6470  212.9580  150.8380 O   0  0  0  0  0  0  0  0  0  0  0  0
  161.2730  211.7260  147.0480 C   0  0  0  0  0  3  0  0  0  0  0  0
  161.4700  211.6080  150.2300 C   0  0  2  0  0  3  0  0  0  0  0  0
  159.6610  213.3590  148.0200 C   0  0  0  0  0  2  0  0  0  0  0  0
  160.7430  213.7230  149.0650 C   0  0  1  0  0  3  0  0  0  0  0  0
  159.1110  211.5180  153.3610 C   0  0  1  0  0  3  0  0  0  0  0  0
  160.1740  214.0630  150.3180 O   0  0  0  0  0  0  0  0  0  0  0  0
  159.2940  210.8350  154.7220 C   0  0  0  0  0  2  0  0  0  0  0  0
  162.6320  210.7980  150.7700 C   0  0  0  0  0  2  0  0  0  0  0  0
  162.0720  209.6410  151.6050 C   0  0  2  0  0  3  0  0  0  0  0  0
  161.8930  212.6890  149.2350 C   0  0  2  0  0  3  0  0  0  0  0  0
  159.7250  209.4100  154.5660 C   0  0  0  0  0  3  0  0  0  0  0  0
  159.8390  211.9580  147.4250 C   0  0  0  0  0  2  0  0  0  0  0  0
  162.2420  212.0700  147.9050 C   0  0  0  0  0  3  0  0  0  0  0  0
  161.7130  205.8510  150.5960 C   0  0  1  0  0  3  0  0  0  0  0  0
  160.5020  205.7750  147.2860 F   0  0  0  0  0  0  0  0  0  0  0  0
  161.8590  204.5780  151.4220 C   0  0  0  0  0  1  0  0  0  0  0  0
  161.1830  207.7140  148.3390 C   0  0  0  0  0  3  0  0  0  0  0  0
  161.7270  208.4430  150.7480 C   0  0  0  0  0  0  0  0  0  0  0  0
  160.4850  205.7620  149.7240 C   0  0  0  0  0  2  0  0  0  0  0  0
  161.5500  208.6500  149.4280 C   0  0  0  0  0  3  0  0  0  0  0  0
  161.6300  207.1160  151.4090 C   0  0  0  0  0  0  0  0  0  0  0  0
  161.3630  207.0600  152.7150 C   0  0  0  0  0  2  0  0  0  0  0  0
  160.7400  206.4580  148.4310 C   0  0  0  0  0  0  0  0  0  0  0  0
  158.9040  213.0120  153.5930 C   0  0  0  0  0  2  0  0  0  0  0  0
  157.0030  213.9640  152.5190 O   0  0  0  0  0  0  0  0  0  0  0  0
  156.6040  212.9960  154.5600 O   0  0  0  0  0  1  0  0  0  0  0  0
  157.4580  213.3610  153.5260 C   0  0  0  0  0  0  0  0  0  0  0  0
  1  3  1  0  0  0  0
  2  5  1  6  0  0  0
  2  4  1  0  0  0  0
  3 16  2  0  0  0  0
  4  1  2  0  0  0  0
  4 10  1  0  0  0  0
  6 17  1  0  0  0  0
  6 18  2  0  0  0  0
  7 13  1  1  0  0  0
  7  2  1  0  0  0  0
  9  8  1  6  0  0  0
  9 15  1  0  0  0  0
  9 11  1  0  0  0  0
 10 29  1  1  0  0  0
 10 12  1  0  0  0  0
 11  5  1  0  0  0  0
 13 14  1  0  0  0  0
 14 23  1  6  0  0  0
 14  1  1  0  0  0  0
 15 18  1  6  0  0  0
 15  7  1  0  0  0  0
 16 12  1  0  0  0  0
 17  8  1  0  0  0  0
 19 26  1  0  0  0  0
 19 21  1  1  0  0  0
 20 28  1  0  0  0  0
 22 28  2  0  0  0  0
 22 25  1  0  0  0  0
 23 26  1  0  0  0  0
 24 19  1  0  0  0  0
 25 23  2  0  0  0  0
 26 27  2  0  0  0  0
 28 24  1  0  0  0  0
 30 32  2  0  0  0  0
 32 29  1  0  0  0  0
 32 31  1  0  0  0  0
M  END
>  <MODEL>
2

>  <REMARK>
 VINA RESULT:      -4.3      3.589      7.141
  Name = 
  3 active torsions:
  status: ('A' for Active; 'I' for Inactive)
    1  A    between atoms: C_14  and  C_18
    2  A    between atoms: C_16  and  C_27
    3  A    between atoms: C_18  and  C_29
                            x       y       z     vdW  Elec       q    Type
                         _______ _______ _______ _____ _____    ______ ____

>  <TORSDO>
F 3

$$$$
