=
 OpenBabel11052422363D

 31 35  0  0  0  0  0  0  0  0999 V2000
  161.0910  204.5590  149.3210 C   0  0  0  0  0  0  0  0  0  0  0  0
  161.0790  203.1500  149.4370 C   0  0  0  0  0  0  0  0  0  0  0  0
  161.2350  200.9830  148.4640 C   0  0  0  0  0  0  0  0  0  0  0  0
  161.2720  205.2460  148.1050 C   0  0  0  0  0  0  0  0  0  0  0  0
  161.5860  205.8560  146.0290 C   0  0  0  0  0  0  0  0  0  0  0  0
  161.2460  202.3380  148.3550 N   0  0  0  0  0  2  0  0  0  0  0  0
  160.9170  206.7630  150.4110 C   0  0  0  0  0  0  0  0  0  0  0  0
  160.7180  203.3570  151.8060 N   0  0  0  0  0  0  0  0  0  0  0  0
  161.3940  200.2700  147.4400 O   0  0  0  0  0  0  0  0  0  0  0  0
  161.1040  207.3710  149.1600 C   0  0  0  0  0  3  0  0  0  0  0  0
  160.9110  205.3510  150.4880 C   0  0  0  0  0  0  0  0  0  0  0  0
  161.4680  204.7280  146.8340 C   0  0  0  0  0  3  0  0  0  0  0  0
  161.0490  200.3800  149.7100 C   0  0  0  0  0  3  0  0  0  0  0  0
  161.2720  206.5900  148.0680 N   0  0  0  0  0  0  0  0  0  0  0  0
  161.4630  206.9950  146.8050 C   0  0  0  0  0  3  0  0  0  0  0  0
  160.7260  204.7110  151.7210 C   0  0  0  0  0  3  0  0  0  0  0  0
  160.8870  202.5730  150.7110 C   0  0  0  0  0  0  0  0  0  0  0  0
  160.8740  201.1830  150.8370 C   0  0  0  0  0  3  0  0  0  0  0  0
  162.4500  209.1040  151.3060 O   0  0  0  0  0  0  0  0  0  0  0  0
  161.4970  208.6900  152.0190 C   0  0  0  0  0  0  0  0  0  0  0  0
  160.7320  207.5470  151.6020 N   0  0  0  0  0  2  0  0  0  0  0  0
  160.5000  210.8000  155.6320 C   0  0  0  0  0  0  0  0  0  0  0  0
  161.1070  210.7730  153.2950 C   0  0  0  0  0  3  0  0  0  0  0  0
  160.8660  206.9290  154.6500 Cl  0  0  0  0  0  0  0  0  0  0  0  0
  160.1590  211.5540  156.8660 C   0  0  0  0  0  1  0  0  0  0  0  0
  160.7860  211.4840  154.4530 C   0  0  0  0  0  3  0  0  0  0  0  0
  160.8550  208.6820  154.4990 C   0  0  0  0  0  0  0  0  0  0  0  0
  161.1480  209.3700  153.2920 C   0  0  0  0  0  0  0  0  0  0  0  0
  160.5360  209.4060  155.6530 C   0  0  0  0  0  3  0  0  0  0  0  0
  161.8060  205.8600  144.5800 C   0  0  0  0  0  3  0  0  0  0  0  0
  161.0660  205.1490  143.7940 N   0  0  0  0  0  2  0  0  0  0  0  0
  1  2  2  0  0  0  0
  1 11  1  0  0  0  0
  2 17  1  0  0  0  0
  3 13  1  0  0  0  0
  4  1  1  0  0  0  0
  5 15  2  0  0  0  0
  5 12  1  0  0  0  0
  6  3  1  0  0  0  0
  6  2  1  0  0  0  0
  7 11  1  0  0  0  0
  7 21  1  0  0  0  0
  9  3  2  0  0  0  0
 10  7  2  0  0  0  0
 11 16  2  0  0  0  0
 12  4  2  0  0  0  0
 13 18  2  0  0  0  0
 14  4  1  0  0  0  0
 14 10  1  0  0  0  0
 15 14  1  0  0  0  0
 16  8  1  0  0  0  0
 17 18  1  0  0  0  0
 17  8  2  0  0  0  0
 19 20  2  0  0  0  0
 20 28  1  0  0  0  0
 21 20  1  0  0  0  0
 22 29  1  0  0  0  0
 22 25  1  0  0  0  0
 23 26  1  0  0  0  0
 26 22  2  0  0  0  0
 27 24  1  0  0  0  0
 27 29  2  0  0  0  0
 28 23  2  0  0  0  0
 28 27  1  0  0  0  0
 30  5  1  0  0  0  0
 31 30  2  0  0  0  0
M  END
>  <MODEL>
1

>  <REMARK>
 VINA RESULT:      -9.6      0.000      0.000
  Name = 
  3 active torsions:
  status: ('A' for Active; 'I' for Inactive)
    1  A    between atoms: C_2  and  C_13
    2  A    between atoms: C_9  and  C_22
    3  A    between atoms: C_15  and  N_23
                            x       y       z     vdW  Elec       q    Type
                         _______ _______ _______ _____ _____    ______ ____

>  <TORSDO>
F 3

$$$$
=
 OpenBabel11052422363D

 31 35  0  0  0  0  0  0  0  0999 V2000
  161.5190  208.5320  151.3590 C   0  0  0  0  0  0  0  0  0  0  0  0
  161.3490  208.7790  152.7410 C   0  0  0  0  0  0  0  0  0  0  0  0
  161.2160  210.2830  154.5830 C   0  0  0  0  0  0  0  0  0  0  0  0
  161.7300  209.5420  150.4000 C   0  0  0  0  0  0  0  0  0  0  0  0
  162.0260  211.4100  149.3020 C   0  0  0  0  0  0  0  0  0  0  0  0
  161.3780  210.0420  153.2540 N   0  0  0  0  0  2  0  0  0  0  0  0
  161.6440  206.9060  149.5110 C   0  0  0  0  0  0  0  0  0  0  0  0
  161.1110  206.4180  153.1260 N   0  0  0  0  0  0  0  0  0  0  0  0
  161.2490  211.4630  155.0150 O   0  0  0  0  0  0  0  0  0  0  0  0
  161.8490  207.9690  148.6190 C   0  0  0  0  0  3  0  0  0  0  0  0
  161.4780  207.1920  150.8860 C   0  0  0  0  0  0  0  0  0  0  0  0
  161.8120  210.9130  150.5840 C   0  0  0  0  0  3  0  0  0  0  0  0
  161.0110  209.2230  155.4680 C   0  0  0  0  0  3  0  0  0  0  0  0
  161.8840  209.2330  149.1010 N   0  0  0  0  0  0  0  0  0  0  0  0
  162.0670  210.3620  148.4000 C   0  0  0  0  0  3  0  0  0  0  0  0
  161.2710  206.1530  151.8040 C   0  0  0  0  0  3  0  0  0  0  0  0
  161.1450  207.6860  153.6090 C   0  0  0  0  0  0  0  0  0  0  0  0
  160.9760  207.9180  154.9750 C   0  0  0  0  0  3  0  0  0  0  0  0
  160.4940  205.8600  147.0180 O   0  0  0  0  0  0  0  0  0  0  0  0
  161.0310  205.0570  147.8260 C   0  0  0  0  0  0  0  0  0  0  0  0
  161.6000  205.5440  149.0520 N   0  0  0  0  0  2  0  0  0  0  0  0
  161.1980  200.8800  146.8110 C   0  0  0  0  0  0  0  0  0  0  0  0
  161.1710  203.2120  146.1830 C   0  0  0  0  0  3  0  0  0  0  0  0
  160.9520  202.9270  150.2510 Cl  0  0  0  0  0  0  0  0  0  0  0  0
  161.2580  199.4450  146.4310 C   0  0  0  0  0  1  0  0  0  0  0  0
  161.2270  201.8640  145.8240 C   0  0  0  0  0  3  0  0  0  0  0  0
  161.0570  202.5920  148.5270 C   0  0  0  0  0  0  0  0  0  0  0  0
  161.0850  203.6030  147.5290 C   0  0  0  0  0  0  0  0  0  0  0  0
  161.1130  201.2450  148.1540 C   0  0  0  0  0  3  0  0  0  0  0  0
  162.1870  212.8210  148.9430 C   0  0  0  0  0  3  0  0  0  0  0  0
  162.8240  213.1660  147.8730 N   0  0  0  0  0  2  0  0  0  0  0  0
  1  2  1  0  0  0  0
  2  6  1  0  0  0  0
  2 17  2  0  0  0  0
  3  9  2  0  0  0  0
  3 13  1  0  0  0  0
  4 12  2  0  0  0  0
  4  1  1  0  0  0  0
  5 12  1  0  0  0  0
  6  3  1  0  0  0  0
  7 11  1  0  0  0  0
  8 17  1  0  0  0  0
 10 14  1  0  0  0  0
 10  7  2  0  0  0  0
 11  1  2  0  0  0  0
 11 16  1  0  0  0  0
 14  4  1  0  0  0  0
 15 14  1  0  0  0  0
 15  5  2  0  0  0  0
 16  8  2  0  0  0  0
 17 18  1  0  0  0  0
 18 13  2  0  0  0  0
 19 20  2  0  0  0  0
 20 21  1  0  0  0  0
 21  7  1  0  0  0  0
 22 29  1  0  0  0  0
 23 28  2  0  0  0  0
 25 22  1  0  0  0  0
 26 23  1  0  0  0  0
 26 22  2  0  0  0  0
 27 24  1  0  0  0  0
 28 20  1  0  0  0  0
 28 27  1  0  0  0  0
 29 27  2  0  0  0  0
 30  5  1  0  0  0  0
 31 30  2  0  0  0  0
M  END
>  <MODEL>
2

>  <REMARK>
 VINA RESULT:      -8.8      2.850      8.142
  Name = 
  3 active torsions:
  status: ('A' for Active; 'I' for Inactive)
    1  A    between atoms: C_2  and  C_13
    2  A    between atoms: C_9  and  C_22
    3  A    between atoms: C_15  and  N_23
                            x       y       z     vdW  Elec       q    Type
                         _______ _______ _______ _____ _____    ______ ____

>  <TORSDO>
F 3

$$$$
=
 OpenBabel11052422363D

 31 35  0  0  0  0  0  0  0  0999 V2000
  161.5190  208.5090  151.2770 C   0  0  0  0  0  0  0  0  0  0  0  0
  161.3820  208.7050  152.6700 C   0  0  0  0  0  0  0  0  0  0  0  0
  161.2840  210.1400  154.5670 C   0  0  0  0  0  0  0  0  0  0  0  0
  161.6990  209.5530  150.3490 C   0  0  0  0  0  0  0  0  0  0  0  0
  161.9560  211.4610  149.3120 C   0  0  0  0  0  0  0  0  0  0  0  0
  161.4160  209.9480  153.2270 N   0  0  0  0  0  2  0  0  0  0  0  0
  161.6090  206.9500  149.3690 C   0  0  0  0  0  0  0  0  0  0  0  0
  161.1690  206.3290  152.9760 N   0  0  0  0  0  0  0  0  0  0  0  0
  161.3210  211.3050  155.0410 O   0  0  0  0  0  0  0  0  0  0  0  0
  161.7850  208.0460  148.5110 C   0  0  0  0  0  3  0  0  0  0  0  0
  161.4750  207.1850  150.7570 C   0  0  0  0  0  0  0  0  0  0  0  0
  161.7770  210.9170  150.5810 C   0  0  0  0  0  3  0  0  0  0  0  0
  161.1080  209.0480  155.4190 C   0  0  0  0  0  3  0  0  0  0  0  0
  161.8230  209.2920  149.0370 N   0  0  0  0  0  0  0  0  0  0  0  0
  161.9820  210.4460  148.3720 C   0  0  0  0  0  3  0  0  0  0  0  0
  161.2980  206.1130  151.6420 C   0  0  0  0  0  3  0  0  0  0  0  0
  161.2060  207.5790  153.5040 C   0  0  0  0  0  0  0  0  0  0  0  0
  161.0700  207.7610  154.8800 C   0  0  0  0  0  3  0  0  0  0  0  0
  160.5380  206.0060  146.8010 O   0  0  0  0  0  0  0  0  0  0  0  0
  161.0320  205.1680  147.6000 C   0  0  0  0  0  0  0  0  0  0  0  0
  161.5620  205.6050  148.8630 N   0  0  0  0  0  2  0  0  0  0  0  0
  161.1750  200.9510  146.7630 C   0  0  0  0  0  0  0  0  0  0  0  0
  161.2060  202.8040  148.3110 C   0  0  0  0  0  3  0  0  0  0  0  0
  160.8310  204.2520  144.5110 Cl  0  0  0  0  0  0  0  0  0  0  0  0
  161.2270  199.4890  146.5030 C   0  0  0  0  0  1  0  0  0  0  0  0
  161.2550  201.4310  148.0690 C   0  0  0  0  0  3  0  0  0  0  0  0
  160.9950  203.2250  145.9300 C   0  0  0  0  0  0  0  0  0  0  0  0
  161.0770  203.7240  147.2570 C   0  0  0  0  0  0  0  0  0  0  0  0
  161.0460  201.8460  145.7010 C   0  0  0  0  0  3  0  0  0  0  0  0
  162.0980  212.8850  148.9990 C   0  0  0  0  0  3  0  0  0  0  0  0
  162.7070  213.2730  147.9280 N   0  0  0  0  0  2  0  0  0  0  0  0
  1  2  1  0  0  0  0
  2  6  1  0  0  0  0
  2 17  2  0  0  0  0
  3  9  2  0  0  0  0
  3 13  1  0  0  0  0
  4 12  2  0  0  0  0
  4  1  1  0  0  0  0
  5 12  1  0  0  0  0
  6  3  1  0  0  0  0
  7 11  1  0  0  0  0
  8 17  1  0  0  0  0
 10 14  1  0  0  0  0
 10  7  2  0  0  0  0
 11  1  2  0  0  0  0
 11 16  1  0  0  0  0
 14  4  1  0  0  0  0
 15 14  1  0  0  0  0
 15  5  2  0  0  0  0
 16  8  2  0  0  0  0
 17 18  1  0  0  0  0
 18 13  2  0  0  0  0
 19 20  2  0  0  0  0
 20 21  1  0  0  0  0
 21  7  1  0  0  0  0
 22 26  1  0  0  0  0
 24 27  1  0  0  0  0
 25 22  1  0  0  0  0
 26 23  2  0  0  0  0
 27 28  2  0  0  0  0
 28 20  1  0  0  0  0
 28 23  1  0  0  0  0
 29 27  1  0  0  0  0
 29 22  2  0  0  0  0
 30  5  1  0  0  0  0
 31 30  2  0  0  0  0
M  END
>  <MODEL>
3

>  <REMARK>
 VINA RESULT:      -8.7      3.259      8.300
  Name = 
  3 active torsions:
  status: ('A' for Active; 'I' for Inactive)
    1  A    between atoms: C_2  and  C_13
    2  A    between atoms: C_9  and  C_22
    3  A    between atoms: C_15  and  N_23
                            x       y       z     vdW  Elec       q    Type
                         _______ _______ _______ _____ _____    ______ ____

>  <TORSDO>
F 3

$$$$
=
 OpenBabel11052422363D

 31 35  0  0  0  0  0  0  0  0999 V2000
  161.3890  207.1960  150.7850 C   0  0  0  0  0  0  0  0  0  0  0  0
  161.2210  205.8100  150.5650 C   0  0  0  0  0  0  0  0  0  0  0  0
  160.8810  203.6010  151.3860 C   0  0  0  0  0  0  0  0  0  0  0  0
  161.3880  207.7950  152.0600 C   0  0  0  0  0  0  0  0  0  0  0  0
  161.3160  208.2630  154.1950 C   0  0  0  0  0  0  0  0  0  0  0  0
  161.0430  204.9350  151.5950 N   0  0  0  0  0  2  0  0  0  0  0  0
  161.7420  209.4490  149.8490 C   0  0  0  0  0  0  0  0  0  0  0  0
  161.4160  206.1700  148.1950 N   0  0  0  0  0  0  0  0  0  0  0  0
  160.7190  202.8280  152.3650 O   0  0  0  0  0  0  0  0  0  0  0  0
  161.7290  209.9680  151.1520 C   0  0  0  0  0  3  0  0  0  0  0  0
  161.5710  208.0570  149.6680 C   0  0  0  0  0  0  0  0  0  0  0  0
  161.2330  207.1990  153.3010 C   0  0  0  0  0  3  0  0  0  0  0  0
  160.8940  203.0870  150.0880 C   0  0  0  0  0  3  0  0  0  0  0  0
  161.5540  209.1230  152.1940 N   0  0  0  0  0  0  0  0  0  0  0  0
  161.5140  209.4400  153.4960 C   0  0  0  0  0  3  0  0  0  0  0  0
  161.5790  207.5050  148.3790 C   0  0  0  0  0  3  0  0  0  0  0  0
  161.2400  205.3220  149.2400 C   0  0  0  0  0  0  0  0  0  0  0  0
  161.0750  203.9560  149.0110 C   0  0  0  0  0  3  0  0  0  0  0  0
  161.0110  212.2800  149.5560 O   0  0  0  0  0  0  0  0  0  0  0  0
  161.5580  211.6880  148.5880 C   0  0  0  0  0  0  0  0  0  0  0  0
  161.9250  210.3030  148.7060 N   0  0  0  0  0  2  0  0  0  0  0  0
  162.5120  213.7450  144.9320 C   0  0  0  0  0  0  0  0  0  0  0  0
  163.1750  212.6360  146.9720 C   0  0  0  0  0  3  0  0  0  0  0  0
  159.0990  212.6400  146.7250 Cl  0  0  0  0  0  0  0  0  0  0  0  0
  162.8700  214.4530  143.6760 C   0  0  0  0  0  1  0  0  0  0  0  0
  163.5140  213.3010  145.7930 C   0  0  0  0  0  3  0  0  0  0  0  0
  160.8200  212.8590  146.4310 C   0  0  0  0  0  0  0  0  0  0  0  0
  161.8330  212.4030  147.3150 C   0  0  0  0  0  0  0  0  0  0  0  0
  161.1720  213.5240  145.2530 C   0  0  0  0  0  3  0  0  0  0  0  0
  161.2140  208.1700  155.6530 C   0  0  0  0  0  3  0  0  0  0  0  0
  160.2770  207.4770  156.2110 N   0  0  0  0  0  2  0  0  0  0  0  0
  1  4  1  0  0  0  0
  2  1  1  0  0  0  0
  2  6  1  0  0  0  0
  3  6  1  0  0  0  0
  3  9  2  0  0  0  0
  4 14  1  0  0  0  0
  4 12  2  0  0  0  0
  5 30  1  0  0  0  0
  7 10  2  0  0  0  0
  8 16  2  0  0  0  0
  8 17  1  0  0  0  0
 10 14  1  0  0  0  0
 11  7  1  0  0  0  0
 11  1  2  0  0  0  0
 12  5  1  0  0  0  0
 13  3  1  0  0  0  0
 14 15  1  0  0  0  0
 15  5  2  0  0  0  0
 16 11  1  0  0  0  0
 17  2  2  0  0  0  0
 18 17  1  0  0  0  0
 18 13  2  0  0  0  0
 20 21  1  0  0  0  0
 20 19  2  0  0  0  0
 21  7  1  0  0  0  0
 22 29  2  0  0  0  0
 22 26  1  0  0  0  0
 23 28  1  0  0  0  0
 25 22  1  0  0  0  0
 26 23  2  0  0  0  0
 27 24  1  0  0  0  0
 27 28  2  0  0  0  0
 28 20  1  0  0  0  0
 29 27  1  0  0  0  0
 30 31  2  0  0  0  0
M  END
>  <MODEL>
4

>  <REMARK>
 VINA RESULT:      -8.6      4.148      7.049
  Name = 
  3 active torsions:
  status: ('A' for Active; 'I' for Inactive)
    1  A    between atoms: C_2  and  C_13
    2  A    between atoms: C_9  and  C_22
    3  A    between atoms: C_15  and  N_23
                            x       y       z     vdW  Elec       q    Type
                         _______ _______ _______ _____ _____    ______ ____

>  <TORSDO>
F 3

$$$$
=
 OpenBabel11052422363D

 31 35  0  0  0  0  0  0  0  0999 V2000
  161.2390  205.4570  149.5810 C   0  0  0  0  0  0  0  0  0  0  0  0
  161.2600  205.6980  148.1880 C   0  0  0  0  0  0  0  0  0  0  0  0
  161.2270  204.9090  145.9410 C   0  0  0  0  0  0  0  0  0  0  0  0
  161.1650  204.1730  150.1550 C   0  0  0  0  0  0  0  0  0  0  0  0
  161.0430  202.0310  150.5770 C   0  0  0  0  0  0  0  0  0  0  0  0
  161.2080  204.6800  147.2820 N   0  0  0  0  0  2  0  0  0  0  0  0
  161.2780  206.3600  151.8740 C   0  0  0  0  0  0  0  0  0  0  0  0
  161.3900  208.0620  148.6060 N   0  0  0  0  0  0  0  0  0  0  0  0
  161.1770  203.9410  145.1390 O   0  0  0  0  0  0  0  0  0  0  0  0
  161.2030  205.0480  152.3670 C   0  0  0  0  0  3  0  0  0  0  0  0
  161.2960  206.5610  150.4740 C   0  0  0  0  0  0  0  0  0  0  0  0
  161.0990  202.9410  149.5260 C   0  0  0  0  0  3  0  0  0  0  0  0
  161.3020  206.2150  145.4530 C   0  0  0  0  0  3  0  0  0  0  0  0
  161.1500  204.0190  151.4910 N   0  0  0  0  0  0  0  0  0  0  0  0
  161.0750  202.7120  151.7810 C   0  0  0  0  0  3  0  0  0  0  0  0
  161.3710  207.8580  149.9480 C   0  0  0  0  0  3  0  0  0  0  0  0
  161.3360  207.0290  147.7270 C   0  0  0  0  0  0  0  0  0  0  0  0
  161.3570  207.2790  146.3540 C   0  0  0  0  0  3  0  0  0  0  0  0
  160.3650  206.5360  154.6610 O   0  0  0  0  0  0  0  0  0  0  0  0
  160.8830  207.5500  154.1240 C   0  0  0  0  0  0  0  0  0  0  0  0
  161.3370  207.4890  152.7620 N   0  0  0  0  0  2  0  0  0  0  0  0
  161.3810  211.1410  156.4390 C   0  0  0  0  0  0  0  0  0  0  0  0
  161.5770  208.7490  156.1730 C   0  0  0  0  0  3  0  0  0  0  0  0
  159.9670  210.3360  152.7730 Cl  0  0  0  0  0  0  0  0  0  0  0  0
  161.5640  212.3660  157.2610 C   0  0  0  0  0  1  0  0  0  0  0  0
  161.7500  209.8980  156.9480 C   0  0  0  0  0  3  0  0  0  0  0  0
  160.6600  210.0910  154.3720 C   0  0  0  0  0  0  0  0  0  0  0  0
  161.0330  208.8190  154.8810 C   0  0  0  0  0  0  0  0  0  0  0  0
  160.8380  211.2340  155.1570 C   0  0  0  0  0  3  0  0  0  0  0  0
  160.9630  200.5740  150.4500 C   0  0  0  0  0  3  0  0  0  0  0  0
  161.1610  199.9930  149.3130 N   0  0  0  0  0  2  0  0  0  0  0  0
  1  4  1  0  0  0  0
  1 11  1  0  0  0  0
  2  1  2  0  0  0  0
  3  6  1  0  0  0  0
  4 14  1  0  0  0  0
  5 15  2  0  0  0  0
  6  2  1  0  0  0  0
  7 10  2  0  0  0  0
  7 21  1  0  0  0  0
  8 16  1  0  0  0  0
  9  3  2  0  0  0  0
 11  7  1  0  0  0  0
 12  4  2  0  0  0  0
 12  5  1  0  0  0  0
 13  3  1  0  0  0  0
 13 18  2  0  0  0  0
 14 15  1  0  0  0  0
 14 10  1  0  0  0  0
 16 11  2  0  0  0  0
 17  2  1  0  0  0  0
 17  8  2  0  0  0  0
 18 17  1  0  0  0  0
 20 19  2  0  0  0  0
 20 28  1  0  0  0  0
 21 20  1  0  0  0  0
 22 26  1  0  0  0  0
 22 25  1  0  0  0  0
 23 26  2  0  0  0  0
 24 27  1  0  0  0  0
 27 28  2  0  0  0  0
 27 29  1  0  0  0  0
 28 23  1  0  0  0  0
 29 22  2  0  0  0  0
 30  5  1  0  0  0  0
 31 30  2  0  0  0  0
M  END
>  <MODEL>
5

>  <REMARK>
 VINA RESULT:      -6.9      1.851      4.308
  Name = 
  3 active torsions:
  status: ('A' for Active; 'I' for Inactive)
    1  A    between atoms: C_2  and  C_13
    2  A    between atoms: C_9  and  C_22
    3  A    between atoms: C_15  and  N_23
                            x       y       z     vdW  Elec       q    Type
                         _______ _______ _______ _____ _____    ______ ____

>  <TORSDO>
F 3

$$$$
