=
 OpenBabel11062408113D

 34 37  0  0  1  0  0  0  0  0999 V2000
  161.9440  210.2420  150.3530 C   0  0  2  0  0  3  0  0  0  0  0  0
  161.0120  207.8890  150.8490 C   0  0  2  0  0  3  0  0  0  0  0  0
  160.5780  205.5120  151.6240 C   0  0  1  0  0  3  0  0  0  0  0  0
  160.7780  206.0240  149.1600 C   0  0  0  0  0  2  0  0  0  0  0  0
  161.8420  208.7810  149.8860 C   0  0  2  0  0  3  0  0  0  0  0  0
  160.3590  204.5570  149.0030 C   0  0  0  0  0  2  0  0  0  0  0  0
  160.9320  204.0340  151.4250 C   0  0  0  0  0  2  0  0  0  0  0  0
  161.2720  208.3020  152.2490 N   0  0  2  0  0  0  0  0  0  0  0  0
  160.7820  210.6000  151.2650 C   0  0  0  0  0  2  0  0  0  0  0  0
  161.0140  205.9460  153.0020 C   0  0  0  0  0  2  0  0  0  0  0  0
  160.6190  207.4010  153.2220 C   0  0  1  0  0  3  0  0  0  0  0  0
  161.1420  203.6500  149.9510 C   0  0  1  0  0  3  0  0  0  0  0  0
  161.2570  206.3910  150.5760 C   0  0  1  0  0  3  0  0  0  0  0  0
  160.6990  209.6490  152.4710 C   0  0  0  0  0  2  0  0  0  0  0  0
  162.0710  209.2760  156.1850 C   0  0  0  0  0  0  0  0  0  0  0  0
  161.6170  208.5080  157.2610 C   0  0  0  0  0  3  0  0  0  0  0  0
  160.9640  207.7740  154.6370 C   0  0  0  0  0  0  0  0  0  0  0  0
  160.8330  207.3730  157.0280 C   0  0  0  0  0  3  0  0  0  0  0  0
  161.7430  208.9110  154.8750 C   0  0  0  0  0  3  0  0  0  0  0  0
  160.5050  207.0060  155.7200 C   0  0  0  0  0  3  0  0  0  0  0  0
  162.8250  210.3790  156.4110 F   0  0  0  0  0  0  0  0  0  0  0  0
  160.4270  201.4140  150.7860 O   0  0  0  0  0  1  0  0  0  0  0  0
  160.9200  201.6760  148.5260 C   0  0  0  0  0  0  0  0  0  0  0  0
  161.0180  201.1570  147.3340 C   0  0  0  0  0  0  0  0  0  0  0  0
  160.8250  202.2050  149.7170 C   0  0  0  0  0  0  0  0  0  0  0  0
  161.8590  199.9400  147.1280 C   0  0  0  0  0  2  0  0  0  0  0  0
  161.3580  199.1420  145.9380 C   0  0  0  0  0  1  0  0  0  0  0  0
  160.3100  201.8100  146.1920 C   0  0  0  0  0  2  0  0  0  0  0  0
  161.1110  202.9920  145.6770 C   0  0  0  0  0  1  0  0  0  0  0  0
  162.0060  211.1700  149.1840 C   0  0  0  0  0  0  0  0  0  0  0  0
  161.2610  212.3410  149.1980 O   0  0  0  0  0  1  0  0  0  0  0  0
  162.7260  210.8980  148.1870 O   0  0  0  0  0  0  0  0  0  0  0  0
  163.0940  208.2390  149.5070 O   0  0  0  0  0  0  0  0  0  0  0  0
  162.9930  207.7030  148.2120 C   0  0  0  0  0  1  0  0  0  0  0  0
  1 30  1  6  0  0  0
  1  9  1  0  0  0  0
  2  8  1  0  0  0  0
  3 10  1  0  0  0  0
  4 13  1  0  0  0  0
  5  1  1  0  0  0  0
  5  2  1  0  0  0  0
  6  4  1  0  0  0  0
  6 12  1  0  0  0  0
  7  3  1  0  0  0  0
  8 14  1  0  0  0  0
  8 11  1  0  0  0  0
  9 14  1  0  0  0  0
 10 11  1  0  0  0  0
 11 17  1  0  0  0  0
 12  7  1  0  0  0  0
 13  2  1  0  0  0  0
 13  3  1  0  0  0  0
 15 21  1  0  0  0  0
 15 16  1  0  0  0  0
 17 19  1  0  0  0  0
 17 20  2  0  0  0  0
 18 16  2  0  0  0  0
 19 15  2  0  0  0  0
 20 18  1  0  0  0  0
 23 25  2  0  0  0  0
 24 23  2  0  0  0  0
 25 12  1  0  0  0  0
 25 22  1  0  0  0  0
 26 24  1  0  0  0  0
 27 26  1  0  0  0  0
 28 24  1  0  0  0  0
 29 28  1  0  0  0  0
 30 31  1  0  0  0  0
 32 30  2  0  0  0  0
 33  5  1  0  0  0  0
 34 33  1  0  0  0  0
M  END
>  <MODEL>
1

>  <REMARK>
 VINA RESULT:      -7.8      0.000      0.000
  Name = 
  6 active torsions:
  status: ('A' for Active; 'I' for Inactive)
    1  A    between atoms: C_1  and  C_6
    2  A    between atoms: O_2  and  C_15
    3  A    between atoms: C_11  and  C_20
    4  A    between atoms: C_12  and  C_28
    5  A    between atoms: C_14  and  C_20
    6  A    between atoms: C_29  and  C_33
                            x       y       z     vdW  Elec       q    Type
                         _______ _______ _______ _____ _____    ______ ____

>  <TORSDO>
F 6

$$$$
=
 OpenBabel11062408113D

 34 37  0  0  1  0  0  0  0  0999 V2000
  161.2350  209.6140  154.9670 C   0  0  2  0  0  3  0  0  0  0  0  0
  161.7450  208.3780  152.7620 C   0  0  2  0  0  3  0  0  0  0  0  0
  161.7510  207.3790  150.4290 C   0  0  1  0  0  3  0  0  0  0  0  0
  161.7190  205.8700  152.4530 C   0  0  0  0  0  2  0  0  0  0  0  0
  161.1070  208.3020  154.1760 C   0  0  2  0  0  3  0  0  0  0  0  0
  161.8930  204.7610  151.4080 C   0  0  0  0  0  2  0  0  0  0  0  0
  161.1610  206.2980  149.5170 C   0  0  0  0  0  2  0  0  0  0  0  0
  161.5120  209.7250  152.1880 N   0  0  2  0  0  0  0  0  0  0  0  0
  162.4110  210.4370  154.4640 C   0  0  0  0  0  2  0  0  0  0  0  0
  161.3490  208.7380  149.9120 C   0  0  0  0  0  2  0  0  0  0  0  0
  161.9740  209.8170  150.7880 C   0  0  1  0  0  3  0  0  0  0  0  0
  160.9380  204.9540  150.2300 C   0  0  1  0  0  3  0  0  0  0  0  0
  161.2620  207.2180  151.8680 C   0  0  1  0  0  3  0  0  0  0  0  0
  162.2940  210.7200  152.9560 C   0  0  0  0  0  2  0  0  0  0  0  0
  162.0220  212.8050  148.4470 C   0  0  0  0  0  0  0  0  0  0  0  0
  161.0630  213.6400  149.0280 C   0  0  0  0  0  3  0  0  0  0  0  0
  161.6490  211.1570  150.1860 C   0  0  0  0  0  0  0  0  0  0  0  0
  160.3930  213.2350  150.1870 C   0  0  0  0  0  3  0  0  0  0  0  0
  162.3130  211.5650  149.0240 C   0  0  0  0  0  3  0  0  0  0  0  0
  160.6830  211.9950  150.7650 C   0  0  0  0  0  3  0  0  0  0  0  0
  162.6660  213.1950  147.3220 F   0  0  0  0  0  0  0  0  0  0  0  0
  160.8380  202.5140  149.7330 O   0  0  0  0  0  1  0  0  0  0  0  0
  161.2570  204.0080  147.9970 C   0  0  0  0  0  0  0  0  0  0  0  0
  161.4950  204.2160  146.7330 C   0  0  0  0  0  0  0  0  0  0  0  0
  161.0170  203.8090  149.2670 C   0  0  0  0  0  0  0  0  0  0  0  0
  162.6310  203.5050  146.0710 C   0  0  0  0  0  2  0  0  0  0  0  0
  163.8650  204.3880  146.0400 C   0  0  0  0  0  1  0  0  0  0  0  0
  160.6460  205.1860  145.9790 C   0  0  0  0  0  2  0  0  0  0  0  0
  160.7600  204.9410  144.4850 C   0  0  0  0  0  1  0  0  0  0  0  0
  161.3670  209.3410  156.4300 C   0  0  0  0  0  0  0  0  0  0  0  0
  162.3310  208.4480  156.8760 O   0  0  0  0  0  0  0  0  0  0  0  0
  160.6130  209.9140  157.2600 O   0  0  0  0  0  1  0  0  0  0  0  0
  159.7950  207.7710  154.2070 O   0  0  0  0  0  0  0  0  0  0  0  0
  159.6710  206.9110  155.3120 C   0  0  0  0  0  1  0  0  0  0  0  0
  1 30  1  1  0  0  0
  2  5  1  0  0  0  0
  3 13  1  0  0  0  0
  5 33  1  0  0  0  0
  5  1  1  0  0  0  0
  6  4  1  0  0  0  0
  7 12  1  0  0  0  0
  7  3  1  0  0  0  0
  8  2  1  0  0  0  0
  8 14  1  0  0  0  0
  9  1  1  0  0  0  0
 10  3  1  0  0  0  0
 10 11  1  0  0  0  0
 11  8  1  0  0  0  0
 12  6  1  0  0  0  0
 13  4  1  0  0  0  0
 13  2  1  0  0  0  0
 14  9  1  0  0  0  0
 15 19  2  0  0  0  0
 15 16  1  0  0  0  0
 16 18  2  0  0  0  0
 17 20  2  0  0  0  0
 17 11  1  0  0  0  0
 18 20  1  0  0  0  0
 19 17  1  0  0  0  0
 21 15  1  0  0  0  0
 23 25  2  0  0  0  0
 24 23  2  0  0  0  0
 25 22  1  0  0  0  0
 25 12  1  0  0  0  0
 26 24  1  0  0  0  0
 27 26  1  0  0  0  0
 28 24  1  0  0  0  0
 29 28  1  0  0  0  0
 30 31  2  0  0  0  0
 30 32  1  0  0  0  0
 33 34  1  0  0  0  0
M  END
>  <MODEL>
2

>  <REMARK>
 VINA RESULT:      -7.2      3.089      5.416
  Name = 
  6 active torsions:
  status: ('A' for Active; 'I' for Inactive)
    1  A    between atoms: C_1  and  C_6
    2  A    between atoms: O_2  and  C_15
    3  A    between atoms: C_11  and  C_20
    4  A    between atoms: C_12  and  C_28
    5  A    between atoms: C_14  and  C_20
    6  A    between atoms: C_29  and  C_33
                            x       y       z     vdW  Elec       q    Type
                         _______ _______ _______ _____ _____    ______ ____

>  <TORSDO>
F 6

$$$$
=
 OpenBabel11062408113D

 34 37  0  0  1  0  0  0  0  0999 V2000
  160.9820  212.2570  150.7520 C   0  0  2  0  0  3  0  0  0  0  0  0
  160.8780  209.6980  150.4470 C   0  0  2  0  0  3  0  0  0  0  0  0
  161.2630  207.1900  150.4330 C   0  0  1  0  0  3  0  0  0  0  0  0
  161.1920  208.4740  148.2590 C   0  0  0  0  0  2  0  0  0  0  0  0
  161.3380  211.0600  149.8570 C   0  0  2  0  0  3  0  0  0  0  0  0
  161.2630  207.0740  147.6370 C   0  0  0  0  0  2  0  0  0  0  0  0
  162.0670  206.0400  149.8170 C   0  0  0  0  0  2  0  0  0  0  0  0
  161.0440  209.7190  151.9200 N   0  0  2  0  0  0  0  0  0  0  0  0
  159.8010  211.9270  151.6530 C   0  0  0  0  0  2  0  0  0  0  0  0
  161.5880  207.2930  151.9030 C   0  0  0  0  0  2  0  0  0  0  0  0
  160.7540  208.4040  152.5280 C   0  0  1  0  0  3  0  0  0  0  0  0
  162.3330  206.2180  148.3130 C   0  0  1  0  0  3  0  0  0  0  0  0
  161.5810  208.5180  149.7480 C   0  0  1  0  0  3  0  0  0  0  0  0
  160.0760  210.6760  152.5030 C   0  0  0  0  0  2  0  0  0  0  0  0
  161.9630  209.5080  155.9520 C   0  0  0  0  0  0  0  0  0  0  0  0
  161.5090  208.4660  156.7660 C   0  0  0  0  0  3  0  0  0  0  0  0
  161.0150  208.4110  154.0090 C   0  0  0  0  0  0  0  0  0  0  0  0
  160.8040  207.3960  156.2050 C   0  0  0  0  0  3  0  0  0  0  0  0
  161.7150  209.4810  154.5760 C   0  0  0  0  0  3  0  0  0  0  0  0
  160.5550  207.3680  154.8300 C   0  0  0  0  0  3  0  0  0  0  0  0
  162.6410  210.5460  156.4970 F   0  0  0  0  0  0  0  0  0  0  0  0
  163.4570  204.7480  146.6450 O   0  0  0  0  0  1  0  0  0  0  0  0
  161.7300  203.8770  147.9420 C   0  0  0  0  0  0  0  0  0  0  0  0
  160.9690  202.8680  148.2600 C   0  0  0  0  0  0  0  0  0  0  0  0
  162.4900  204.8940  147.6300 C   0  0  0  0  0  0  0  0  0  0  0  0
  160.1960  202.1640  147.1930 C   0  0  0  0  0  2  0  0  0  0  0  0
  160.9280  202.2460  145.8660 C   0  0  0  0  0  1  0  0  0  0  0  0
  160.8600  202.4570  149.6920 C   0  0  0  0  0  2  0  0  0  0  0  0
  161.0630  200.9590  149.8300 C   0  0  0  0  0  1  0  0  0  0  0  0
  160.6950  213.4690  149.9270 C   0  0  0  0  0  0  0  0  0  0  0  0
  161.7480  214.2090  149.4080 O   0  0  0  0  0  0  0  0  0  0  0  0
  159.5080  213.8250  149.7000 O   0  0  0  0  0  1  0  0  0  0  0  0
  162.6820  211.0890  149.4140 O   0  0  0  0  0  0  0  0  0  0  0  0
  162.7290  211.6250  148.1160 C   0  0  0  0  0  1  0  0  0  0  0  0
  1 30  1  6  0  0  0
  1  9  1  0  0  0  0
  2  8  1  0  0  0  0
  3 10  1  0  0  0  0
  4 13  1  0  0  0  0
  5  2  1  0  0  0  0
  5  1  1  0  0  0  0
  6  4  1  0  0  0  0
  6 12  1  0  0  0  0
  7  3  1  0  0  0  0
  8 14  1  0  0  0  0
  8 11  1  0  0  0  0
  9 14  1  0  0  0  0
 10 11  1  0  0  0  0
 11 17  1  0  0  0  0
 12  7  1  0  0  0  0
 13  3  1  0  0  0  0
 13  2  1  0  0  0  0
 15 21  1  0  0  0  0
 15 16  1  0  0  0  0
 17 19  1  0  0  0  0
 17 20  2  0  0  0  0
 18 16  2  0  0  0  0
 19 15  2  0  0  0  0
 20 18  1  0  0  0  0
 22 25  1  0  0  0  0
 23 24  2  0  0  0  0
 24 28  1  0  0  0  0
 25 23  2  0  0  0  0
 25 12  1  0  0  0  0
 26 24  1  0  0  0  0
 27 26  1  0  0  0  0
 28 29  1  0  0  0  0
 31 30  2  0  0  0  0
 32 30  1  0  0  0  0
 33  5  1  0  0  0  0
 34 33  1  0  0  0  0
M  END
>  <MODEL>
3

>  <REMARK>
 VINA RESULT:      -5.4      1.788      2.673
  Name = 
  6 active torsions:
  status: ('A' for Active; 'I' for Inactive)
    1  A    between atoms: C_1  and  C_6
    2  A    between atoms: O_2  and  C_15
    3  A    between atoms: C_11  and  C_20
    4  A    between atoms: C_12  and  C_28
    5  A    between atoms: C_14  and  C_20
    6  A    between atoms: C_29  and  C_33
                            x       y       z     vdW  Elec       q    Type
                         _______ _______ _______ _____ _____    ______ ____

>  <TORSDO>
F 6

$$$$
=
 OpenBabel11062408113D

 34 37  0  0  1  0  0  0  0  0999 V2000
  161.9610  206.2460  148.8420 C   0  0  2  0  0  3  0  0  0  0  0  0
  161.2880  208.0790  150.5290 C   0  0  2  0  0  3  0  0  0  0  0  0
  161.1590  210.0540  152.1160 C   0  0  1  0  0  3  0  0  0  0  0  0
  160.8310  207.7060  152.9860 C   0  0  0  0  0  2  0  0  0  0  0  0
  161.8530  206.6470  150.3230 C   0  0  2  0  0  3  0  0  0  0  0  0
  160.4770  208.4300  154.2910 C   0  0  0  0  0  2  0  0  0  0  0  0
  161.5540  210.5930  153.4960 C   0  0  0  0  0  2  0  0  0  0  0  0
  161.7980  208.9680  149.4580 N   0  0  2  0  0  0  0  0  0  0  0  0
  160.9850  207.0470  147.9940 C   0  0  0  0  0  2  0  0  0  0  0  0
  161.8360  210.8780  151.0490 C   0  0  0  0  0  2  0  0  0  0  0  0
  161.4070  210.3760  149.6750 C   0  0  1  0  0  3  0  0  0  0  0  0
  161.4870  209.5320  154.6070 C   0  0  1  0  0  3  0  0  0  0  0  0
  161.5610  208.5880  151.9570 C   0  0  1  0  0  3  0  0  0  0  0  0
  161.2020  208.5600  148.1650 C   0  0  0  0  0  2  0  0  0  0  0  0
  161.6990  212.8270  146.7920 C   0  0  0  0  0  0  0  0  0  0  0  0
  163.0840  212.9910  146.6950 C   0  0  0  0  0  3  0  0  0  0  0  0
  162.0060  211.2830  148.6360 C   0  0  0  0  0  0  0  0  0  0  0  0
  163.9330  212.3040  147.5680 C   0  0  0  0  0  3  0  0  0  0  0  0
  161.1610  211.9760  147.7620 C   0  0  0  0  0  3  0  0  0  0  0  0
  163.3970  211.4530  148.5380 C   0  0  0  0  0  3  0  0  0  0  0  0
  160.8770  213.4970  145.9490 F   0  0  0  0  0  0  0  0  0  0  0  0
  161.9480  209.7500  157.0460 O   0  0  0  0  0  1  0  0  0  0  0  0
  160.3000  211.0810  156.0800 C   0  0  0  0  0  0  0  0  0  0  0  0
  159.3840  212.0010  156.2100 C   0  0  0  0  0  0  0  0  0  0  0  0
  161.2150  210.1600  155.9400 C   0  0  0  0  0  0  0  0  0  0  0  0
  158.3050  211.8260  157.2290 C   0  0  0  0  0  2  0  0  0  0  0  0
  156.9580  211.6550  156.5520 C   0  0  0  0  0  1  0  0  0  0  0  0
  159.4160  213.1960  155.3160 C   0  0  0  0  0  2  0  0  0  0  0  0
  158.9480  212.8280  153.9200 C   0  0  0  0  0  1  0  0  0  0  0  0
  161.7310  204.7800  148.6710 C   0  0  0  0  0  0  0  0  0  0  0  0
  162.2460  204.1310  147.5580 O   0  0  0  0  0  0  0  0  0  0  0  0
  161.0760  204.1300  149.5280 O   0  0  0  0  0  1  0  0  0  0  0  0
  163.0340  206.3660  151.0520 O   0  0  0  0  0  0  0  0  0  0  0  0
  162.7570  205.3850  152.0200 C   0  0  0  0  0  1  0  0  0  0  0  0
  1 30  1  1  0  0  0
  1  5  1  0  0  0  0
  2 13  1  0  0  0  0
  3  7  1  0  0  0  0
  4  6  1  0  0  0  0
  5  2  1  0  0  0  0
  5 33  1  0  0  0  0
  6 12  1  0  0  0  0
  7 12  1  0  0  0  0
  8 11  1  0  0  0  0
  8  2  1  0  0  0  0
  9 14  1  0  0  0  0
  9  1  1  0  0  0  0
 10  3  1  0  0  0  0
 11 10  1  0  0  0  0
 12 25  1  0  0  0  0
 13  3  1  0  0  0  0
 13  4  1  0  0  0  0
 14  8  1  0  0  0  0
 15 19  1  0  0  0  0
 16 15  2  0  0  0  0
 16 18  1  0  0  0  0
 17 11  1  0  0  0  0
 18 20  2  0  0  0  0
 19 17  2  0  0  0  0
 20 17  1  0  0  0  0
 21 15  1  0  0  0  0
 23 24  2  0  0  0  0
 24 26  1  0  0  0  0
 25 23  2  0  0  0  0
 25 22  1  0  0  0  0
 27 26  1  0  0  0  0
 28 24  1  0  0  0  0
 29 28  1  0  0  0  0
 30 32  1  0  0  0  0
 31 30  2  0  0  0  0
 33 34  1  0  0  0  0
M  END
>  <MODEL>
4

>  <REMARK>
 VINA RESULT:      -5.3      3.421      8.850
  Name = 
  6 active torsions:
  status: ('A' for Active; 'I' for Inactive)
    1  A    between atoms: C_1  and  C_6
    2  A    between atoms: O_2  and  C_15
    3  A    between atoms: C_11  and  C_20
    4  A    between atoms: C_12  and  C_28
    5  A    between atoms: C_14  and  C_20
    6  A    between atoms: C_29  and  C_33
                            x       y       z     vdW  Elec       q    Type
                         _______ _______ _______ _____ _____    ______ ____

>  <TORSDO>
F 6

$$$$
