=
 OpenBabel11062407423D

 34 39  0  0  1  0  0  0  0  0999 V2000
  162.1600  209.1870  149.0790 C   0  0  0  0  0  0  0  0  0  0  0  0
  161.3820  210.9390  150.5380 C   0  0  0  0  0  0  0  0  0  0  0  0
  160.9990  208.4940  151.2520 C   0  0  1  0  0  3  0  0  0  0  0  0
  160.7060  207.5880  153.4700 N   0  0  2  0  0  0  0  0  0  0  0  0
  162.5790  211.4550  148.5630 C   0  0  0  0  0  3  0  0  0  0  0  0
  161.9120  211.8450  149.6770 N   0  0  0  0  0  0  0  0  0  0  0  0
  161.7710  209.6700  153.3780 N   0  0  0  0  0  2  0  0  0  0  0  0
  161.5810  209.5570  150.3190 C   0  0  0  0  0  0  0  0  0  0  0  0
  161.2020  207.8320  154.8060 C   0  0  0  0  0  2  0  0  0  0  0  0
  162.6780  210.1380  148.2610 N   0  0  0  0  0  0  0  0  0  0  0  0
  161.2430  207.0640  150.7370 C   0  0  1  0  0  3  0  0  0  0  0  0
  162.1800  207.7590  148.6080 C   0  0  0  0  0  2  0  0  0  0  0  0
  160.4980  211.4510  151.6240 C   0  0  0  0  0  1  0  0  0  0  0  0
  160.9170  206.1970  153.0770 C   0  0  0  0  0  2  0  0  0  0  0  0
  160.5150  206.0110  151.5980 C   0  0  2  0  0  3  0  0  0  0  0  0
  161.7140  209.2660  154.7790 C   0  0  2  0  0  3  0  0  0  0  0  0
  161.5820  208.4210  152.6660 C   0  0  2  0  0  3  0  0  0  0  0  0
  161.0500  206.9540  149.2390 C   0  0  0  0  0  2  0  0  0  0  0  0
  160.9980  202.9920  149.3590 C   0  0  0  0  0  0  0  0  0  0  0  0
  161.3840  202.0110  150.2780 C   0  0  0  0  0  3  0  0  0  0  0  0
  160.8180  204.6120  151.1540 C   0  0  0  0  0  0  0  0  0  0  0  0
  161.4860  202.3280  151.6350 C   0  0  0  0  0  3  0  0  0  0  0  0
  160.7150  204.2890  149.7970 C   0  0  0  0  0  3  0  0  0  0  0  0
  161.2060  203.6240  152.0740 C   0  0  0  0  0  3  0  0  0  0  0  0
  160.8980  202.6850  148.0440 F   0  0  0  0  0  0  0  0  0  0  0  0
  160.0160  210.8580  156.0870 C   0  0  0  0  0  0  0  0  0  0  0  0
  160.7820  210.1380  155.4970 C   0  0  0  0  0  0  0  0  0  0  0  0
  160.3860  213.8220  157.2600 C   0  0  0  0  0  1  0  0  0  0  0  0
  159.0840  211.7360  156.8020 C   0  0  1  0  0  3  0  0  0  0  0  0
  159.3180  213.1980  156.3840 C   0  0  1  0  0  3  0  0  0  0  0  0
  156.9430  213.4670  155.5540 C   0  0  0  0  0  2  0  0  0  0  0  0
  157.0110  211.9450  155.3650 C   0  0  0  0  0  2  0  0  0  0  0  0
  157.6410  211.2580  156.5740 C   0  0  0  0  0  2  0  0  0  0  0  0
  158.0370  214.0230  156.4760 C   0  0  0  0  0  2  0  0  0  0  0  0
  1  8  1  0  0  0  0
  2 13  1  0  0  0  0
  3  8  1  6  0  0  0
  3 17  1  0  0  0  0
  4 14  1  6  0  0  0
  4  9  1  0  0  0  0
  5  6  2  0  0  0  0
  6  2  1  0  0  0  0
  7 16  1  0  0  0  0
  8  2  2  0  0  0  0
 10  5  1  0  0  0  0
 10  1  2  0  0  0  0
 11 18  1  6  0  0  0
 11  3  1  0  0  0  0
 11 15  1  0  0  0  0
 12  1  1  0  0  0  0
 12 18  1  0  0  0  0
 15 21  1  6  0  0  0
 15 14  1  0  0  0  0
 16  9  1  0  0  0  0
 16 27  1  1  0  0  0
 17  7  1  1  0  0  0
 17  4  1  0  0  0  0
 19 23  2  0  0  0  0
 19 20  1  0  0  0  0
 20 22  2  0  0  0  0
 21 24  2  0  0  0  0
 22 24  1  0  0  0  0
 23 21  1  0  0  0  0
 25 19  1  0  0  0  0
 27 26  3  0  0  0  0
 29 26  1  6  0  0  0
 30 34  1  0  0  0  0
 30 29  1  0  0  0  0
 30 28  1  1  0  0  0
 31 34  1  0  0  0  0
 32 31  1  0  0  0  0
 32 33  1  0  0  0  0
 33 29  1  0  0  0  0
M  END
>  <MODEL>
1

>  <REMARK>
 VINA RESULT:      -7.5      0.000      0.000
  Name = 
  3 active torsions:
  status: ('A' for Active; 'I' for Inactive)
    1  A    between atoms: C_3  and  C_13
    2  A    between atoms: C_12  and  C_28
    3  A    between atoms: C_17  and  C_29
                            x       y       z     vdW  Elec       q    Type
                         _______ _______ _______ _____ _____    ______ ____

>  <TORSDO>
F 3

$$$$
=
 OpenBabel11062407423D

 34 39  0  0  1  0  0  0  0  0999 V2000
  161.4110  204.7210  150.6390 C   0  0  0  0  0  0  0  0  0  0  0  0
  160.8950  205.8370  148.5670 C   0  0  0  0  0  0  0  0  0  0  0  0
  160.8450  207.2140  150.7430 C   0  0  1  0  0  3  0  0  0  0  0  0
  161.1440  209.5910  151.0450 N   0  0  2  0  0  0  0  0  0  0  0  0
  161.5540  203.5650  148.5820 C   0  0  0  0  0  3  0  0  0  0  0  0
  161.1480  204.6730  147.9160 N   0  0  0  0  0  0  0  0  0  0  0  0
  162.0240  208.7200  149.0580 N   0  0  0  0  0  2  0  0  0  0  0  0
  161.1210  205.9310  149.9600 C   0  0  0  0  0  0  0  0  0  0  0  0
  161.9260  210.6580  150.4630 C   0  0  0  0  0  2  0  0  0  0  0  0
  161.6600  203.5880  149.9320 N   0  0  0  0  0  0  0  0  0  0  0  0
  161.0480  207.0320  152.2590 C   0  0  1  0  0  3  0  0  0  0  0  0
  161.4080  204.6330  152.1390 C   0  0  0  0  0  2  0  0  0  0  0  0
  160.2630  206.9430  147.7900 C   0  0  0  0  0  1  0  0  0  0  0  0
  161.3420  209.5200  152.4900 C   0  0  0  0  0  2  0  0  0  0  0  0
  160.6130  208.2810  153.0520 C   0  0  2  0  0  3  0  0  0  0  0  0
  162.3260  210.1470  149.0860 C   0  0  2  0  0  3  0  0  0  0  0  0
  161.7500  208.4140  150.4490 C   0  0  2  0  0  3  0  0  0  0  0  0
  160.5130  205.7040  152.7520 C   0  0  0  0  0  2  0  0  0  0  0  0
  161.9970  208.9610  156.5140 C   0  0  0  0  0  0  0  0  0  0  0  0
  161.4260  207.9260  157.2600 C   0  0  0  0  0  3  0  0  0  0  0  0
  160.8890  208.1420  154.5190 C   0  0  0  0  0  0  0  0  0  0  0  0
  160.5870  206.9970  156.6390 C   0  0  0  0  0  3  0  0  0  0  0  0
  161.7290  209.0680  155.1450 C   0  0  0  0  0  3  0  0  0  0  0  0
  160.3170  207.1030  155.2720 C   0  0  0  0  0  3  0  0  0  0  0  0
  162.8110  209.8610  157.1160 F   0  0  0  0  0  0  0  0  0  0  0  0
  160.8880  211.3900  147.2110 C   0  0  0  0  0  0  0  0  0  0  0  0
  161.5390  210.8290  148.0570 C   0  0  0  0  0  0  0  0  0  0  0  0
  158.5940  213.6210  147.4570 C   0  0  0  0  0  1  0  0  0  0  0  0
  160.0950  212.0750  146.1850 C   0  0  1  0  0  3  0  0  0  0  0  0
  159.8450  213.5340  146.6060 C   0  0  1  0  0  3  0  0  0  0  0  0
  160.9740  214.4500  144.5340 C   0  0  0  0  0  2  0  0  0  0  0  0
  161.7280  213.1140  144.5540 C   0  0  0  0  0  2  0  0  0  0  0  0
  160.7850  211.9410  144.8190 C   0  0  0  0  0  2  0  0  0  0  0  0
  159.7030  214.4530  145.3950 C   0  0  0  0  0  2  0  0  0  0  0  0
  1 12  1  0  0  0  0
  2  8  2  0  0  0  0
  3  8  1  6  0  0  0
  3 11  1  0  0  0  0
  4  9  1  6  0  0  0
  4 14  1  0  0  0  0
  5 10  1  0  0  0  0
  6  2  1  0  0  0  0
  6  5  2  0  0  0  0
  7 16  1  0  0  0  0
  8  1  1  0  0  0  0
 10  1  2  0  0  0  0
 11 18  1  1  0  0  0
 11 15  1  0  0  0  0
 12 18  1  0  0  0  0
 13  2  1  0  0  0  0
 14 15  1  0  0  0  0
 15 21  1  1  0  0  0
 16 27  1  6  0  0  0
 16  9  1  0  0  0  0
 17  7  1  6  0  0  0
 17  3  1  0  0  0  0
 17  4  1  0  0  0  0
 19 25  1  0  0  0  0
 19 20  1  0  0  0  0
 21 23  1  0  0  0  0
 21 24  2  0  0  0  0
 22 20  2  0  0  0  0
 23 19  2  0  0  0  0
 24 22  1  0  0  0  0
 26 27  3  0  0  0  0
 29 30  1  0  0  0  0
 29 26  1  1  0  0  0
 30 28  1  6  0  0  0
 31 32  1  0  0  0  0
 31 34  1  0  0  0  0
 32 33  1  0  0  0  0
 33 29  1  0  0  0  0
 34 30  1  0  0  0  0
M  END
>  <MODEL>
2

>  <REMARK>
 VINA RESULT:      -7.0      3.476      7.431
  Name = 
  3 active torsions:
  status: ('A' for Active; 'I' for Inactive)
    1  A    between atoms: C_3  and  C_13
    2  A    between atoms: C_12  and  C_28
    3  A    between atoms: C_17  and  C_29
                            x       y       z     vdW  Elec       q    Type
                         _______ _______ _______ _____ _____    ______ ____

>  <TORSDO>
F 3

$$$$
=
 OpenBabel11062407423D

 34 39  0  0  1  0  0  0  0  0999 V2000
  161.5440  209.0450  153.4840 C   0  0  0  0  0  0  0  0  0  0  0  0
  160.9950  206.7570  152.9670 C   0  0  0  0  0  0  0  0  0  0  0  0
  161.1610  208.4430  151.0260 C   0  0  1  0  0  3  0  0  0  0  0  0
  161.6420  208.0340  148.6960 N   0  0  2  0  0  0  0  0  0  0  0  0
  161.4930  207.4070  155.1870 C   0  0  0  0  0  3  0  0  0  0  0  0
  161.1300  206.4620  154.2850 N   0  0  0  0  0  0  0  0  0  0  0  0
  162.3500  206.3570  150.1680 N   0  0  0  0  0  2  0  0  0  0  0  0
  161.3030  208.0550  152.4990 C   0  0  0  0  0  0  0  0  0  0  0  0
  162.4650  207.1450  147.9090 C   0  0  0  0  0  2  0  0  0  0  0  0
  161.6740  208.6890  154.7870 N   0  0  0  0  0  0  0  0  0  0  0  0
  161.4330  209.9390  150.7850 C   0  0  1  0  0  3  0  0  0  0  0  0
  161.6160  210.5070  153.1380 C   0  0  0  0  0  2  0  0  0  0  0  0
  160.4020  205.7140  152.0810 C   0  0  0  0  0  1  0  0  0  0  0  0
  161.9130  209.4310  148.3670 C   0  0  0  0  0  2  0  0  0  0  0  0
  161.1300  210.3510  149.3290 C   0  0  2  0  0  3  0  0  0  0  0  0
  162.7520  205.9610  148.8230 C   0  0  2  0  0  3  0  0  0  0  0  0
  162.1310  207.7850  150.0400 C   0  0  2  0  0  3  0  0  0  0  0  0
  160.8330  210.8120  151.8670 C   0  0  0  0  0  2  0  0  0  0  0  0
  162.8340  213.4170  147.8950 C   0  0  0  0  0  0  0  0  0  0  0  0
  162.1480  214.4530  148.5360 C   0  0  0  0  0  3  0  0  0  0  0  0
  161.4750  211.7850  149.0660 C   0  0  0  0  0  0  0  0  0  0  0  0
  161.1260  214.1580  149.4420 C   0  0  0  0  0  3  0  0  0  0  0  0
  162.4980  212.0860  148.1600 C   0  0  0  0  0  3  0  0  0  0  0  0
  160.7880  212.8290  149.7070 C   0  0  0  0  0  3  0  0  0  0  0  0
  163.8250  213.7020  147.0170 F   0  0  0  0  0  0  0  0  0  0  0  0
  161.3070  203.8550  148.0500 C   0  0  0  0  0  0  0  0  0  0  0  0
  161.9610  204.8050  148.4000 C   0  0  0  0  0  0  0  0  0  0  0  0
  160.4550  202.8500  145.1240 C   0  0  0  0  0  1  0  0  0  0  0  0
  160.5130  202.6980  147.6200 C   0  0  1  0  0  3  0  0  0  0  0  0
  161.0800  202.1350  146.3060 C   0  0  1  0  0  3  0  0  0  0  0  0
  161.5050  199.8580  147.3250 C   0  0  0  0  0  2  0  0  0  0  0  0
  161.5810  200.6440  148.6410 C   0  0  0  0  0  2  0  0  0  0  0  0
  160.4480  201.6620  148.7530 C   0  0  0  0  0  2  0  0  0  0  0  0
  160.8330  200.6340  146.1830 C   0  0  0  0  0  2  0  0  0  0  0  0
  1 10  1  0  0  0  0
  2  6  2  0  0  0  0
  3  8  1  1  0  0  0
  4  9  1  6  0  0  0
  4 17  1  0  0  0  0
  6  5  1  0  0  0  0
  8  2  1  0  0  0  0
  8  1  2  0  0  0  0
  9 16  1  0  0  0  0
 10  5  2  0  0  0  0
 11  3  1  0  0  0  0
 11 18  1  1  0  0  0
 12  1  1  0  0  0  0
 13  2  1  0  0  0  0
 14  4  1  0  0  0  0
 14 15  1  0  0  0  0
 15 21  1  1  0  0  0
 15 11  1  0  0  0  0
 16 27  1  6  0  0  0
 16  7  1  0  0  0  0
 17  7  1  1  0  0  0
 17  3  1  0  0  0  0
 18 12  1  0  0  0  0
 19 23  2  0  0  0  0
 19 20  1  0  0  0  0
 20 22  2  0  0  0  0
 21 24  2  0  0  0  0
 22 24  1  0  0  0  0
 23 21  1  0  0  0  0
 25 19  1  0  0  0  0
 26 27  3  0  0  0  0
 29 26  1  1  0  0  0
 29 33  1  0  0  0  0
 30 28  1  6  0  0  0
 30 29  1  0  0  0  0
 31 32  1  0  0  0  0
 32 33  1  0  0  0  0
 34 30  1  0  0  0  0
 34 31  1  0  0  0  0
M  END
>  <MODEL>
3

>  <REMARK>
 VINA RESULT:      -5.4      3.493      9.472
  Name = 
  3 active torsions:
  status: ('A' for Active; 'I' for Inactive)
    1  A    between atoms: C_3  and  C_13
    2  A    between atoms: C_12  and  C_28
    3  A    between atoms: C_17  and  C_29
                            x       y       z     vdW  Elec       q    Type
                         _______ _______ _______ _____ _____    ______ ____

>  <TORSDO>
F 3

$$$$
=
 OpenBabel11062407423D

 34 39  0  0  1  0  0  0  0  0999 V2000
  163.4380  214.1330  141.6140 C   0  0  0  0  0  0  0  0  0  0  0  0
  161.9990  213.4120  139.8210 C   0  0  0  0  0  0  0  0  0  0  0  0
  161.0840  213.3390  142.2280 C   0  0  1  0  0  3  0  0  0  0  0  0
  158.7940  213.4260  142.9850 N   0  0  2  0  0  0  0  0  0  0  0  0
  164.1510  214.2840  139.3650 C   0  0  0  0  0  3  0  0  0  0  0  0
  162.9820  213.7420  138.9440 N   0  0  0  0  0  0  0  0  0  0  0  0
  159.1670  214.2870  140.8410 N   0  0  0  0  0  2  0  0  0  0  0  0
  162.1560  213.6970  141.1970 C   0  0  0  0  0  0  0  0  0  0  0  0
  157.5600  214.0740  142.6050 C   0  0  0  0  0  2  0  0  0  0  0  0
  164.3800  214.4530  140.6900 N   0  0  0  0  0  0  0  0  0  0  0  0
  161.5360  213.6330  143.6700 C   0  0  1  0  0  3  0  0  0  0  0  0
  163.8160  214.2120  143.0670 C   0  0  0  0  0  2  0  0  0  0  0  0
  160.8350  212.6420  139.2980 C   0  0  0  0  0  1  0  0  0  0  0  0
  159.1240  213.7010  144.3810 C   0  0  0  0  0  2  0  0  0  0  0  0
  160.5170  213.1200  144.7080 C   0  0  2  0  0  3  0  0  0  0  0  0
  157.7490  214.4530  141.1420 C   0  0  2  0  0  3  0  0  0  0  0  0
  159.7640  214.1110  142.1500 C   0  0  2  0  0  3  0  0  0  0  0  0
  162.9830  213.2510  143.9060 C   0  0  0  0  0  2  0  0  0  0  0  0
  162.5860  213.4980  147.8600 C   0  0  0  0  0  0  0  0  0  0  0  0
  161.6880  214.1410  148.7180 C   0  0  0  0  0  3  0  0  0  0  0  0
  160.9090  213.4800  146.1090 C   0  0  0  0  0  0  0  0  0  0  0  0
  160.4000  214.4530  148.2750 C   0  0  0  0  0  3  0  0  0  0  0  0
  162.1960  213.1680  146.5590 C   0  0  0  0  0  3  0  0  0  0  0  0
  160.0090  214.1250  146.9740 C   0  0  0  0  0  3  0  0  0  0  0  0
  163.8330  213.1950  148.2910 F   0  0  0  0  0  0  0  0  0  0  0  0
  156.3200  212.8140  139.5930 C   0  0  0  0  0  0  0  0  0  0  0  0
  156.9640  213.5560  140.2930 C   0  0  0  0  0  0  0  0  0  0  0  0
  157.0880  210.0180  138.2180 C   0  0  0  0  0  1  0  0  0  0  0  0
  155.5370  211.9090  138.7450 C   0  0  1  0  0  3  0  0  0  0  0  0
  155.9040  210.4490  139.0610 C   0  0  1  0  0  3  0  0  0  0  0  0
  153.5240  209.8630  139.6920 C   0  0  0  0  0  2  0  0  0  0  0  0
  153.4130  211.3610  140.0050 C   0  0  0  0  0  2  0  0  0  0  0  0
  154.0390  212.2130  138.9040 C   0  0  0  0  0  2  0  0  0  0  0  0
  154.7290  209.5060  138.8100 C   0  0  0  0  0  2  0  0  0  0  0  0
  1 12  1  0  0  0  0
  2  8  2  0  0  0  0
  3  8  1  6  0  0  0
  3 11  1  0  0  0  0
  4  9  1  6  0  0  0
  4 14  1  0  0  0  0
  5 10  1  0  0  0  0
  6  5  2  0  0  0  0
  6  2  1  0  0  0  0
  7 16  1  0  0  0  0
  8  1  1  0  0  0  0
 10  1  2  0  0  0  0
 11 18  1  1  0  0  0
 11 15  1  0  0  0  0
 12 18  1  0  0  0  0
 13  2  1  0  0  0  0
 14 15  1  0  0  0  0
 15 21  1  1  0  0  0
 16 27  1  6  0  0  0
 16  9  1  0  0  0  0
 17  7  1  6  0  0  0
 17  3  1  0  0  0  0
 17  4  1  0  0  0  0
 19 25  1  0  0  0  0
 19 20  1  0  0  0  0
 21 23  1  0  0  0  0
 21 24  2  0  0  0  0
 22 20  2  0  0  0  0
 23 19  2  0  0  0  0
 24 22  1  0  0  0  0
 26 27  3  0  0  0  0
 29 33  1  0  0  0  0
 29 30  1  0  0  0  0
 29 26  1  1  0  0  0
 30 28  1  6  0  0  0
 31 32  1  0  0  0  0
 33 32  1  0  0  0  0
 34 30  1  0  0  0  0
 34 31  1  0  0  0  0
M  END
>  <MODEL>
4

>  <REMARK>
 VINA RESULT:      -4.9      8.694     13.176
  Name = 
  3 active torsions:
  status: ('A' for Active; 'I' for Inactive)
    1  A    between atoms: C_3  and  C_13
    2  A    between atoms: C_12  and  C_28
    3  A    between atoms: C_17  and  C_29
                            x       y       z     vdW  Elec       q    Type
                         _______ _______ _______ _____ _____    ______ ____

>  <TORSDO>
F 3

$$$$
=
 OpenBabel11062407423D

 34 39  0  0  1  0  0  0  0  0999 V2000
  161.3770  208.0440  153.1260 C   0  0  0  0  0  0  0  0  0  0  0  0
  161.4460  208.0430  150.7180 C   0  0  0  0  0  0  0  0  0  0  0  0
  160.2830  210.0100  151.9060 C   0  0  1  0  0  3  0  0  0  0  0  0
  159.9200  212.2620  151.1170 N   0  0  2  0  0  0  0  0  0  0  0  0
  162.5310  206.3440  151.9570 C   0  0  0  0  0  3  0  0  0  0  0  0
  162.1730  206.8980  150.7730 N   0  0  0  0  0  0  0  0  0  0  0  0
  161.6500  211.1000  150.0510 N   0  0  0  0  0  2  0  0  0  0  0  0
  161.1070  208.7220  151.9110 C   0  0  0  0  0  0  0  0  0  0  0  0
  160.6110  213.2420  150.3090 C   0  0  0  0  0  2  0  0  0  0  0  0
  162.1140  206.9040  153.1190 N   0  0  0  0  0  0  0  0  0  0  0  0
  159.9370  210.4900  153.3280 C   0  0  1  0  0  3  0  0  0  0  0  0
  160.8290  208.5250  154.4410 C   0  0  0  0  0  2  0  0  0  0  0  0
  160.9290  208.4720  149.3870 C   0  0  0  0  0  1  0  0  0  0  0  0
  159.5710  212.8100  152.4250 C   0  0  0  0  0  2  0  0  0  0  0  0
  158.9740  211.6940  153.3100 C   0  0  2  0  0  3  0  0  0  0  0  0
  161.6000  212.4400  149.4760 C   0  0  2  0  0  3  0  0  0  0  0  0
  160.9480  211.2540  151.3100 C   0  0  2  0  0  3  0  0  0  0  0  0
  159.5590  209.3430  154.2430 C   0  0  0  0  0  2  0  0  0  0  0  0
  157.1430  212.5630  156.5130 C   0  0  0  0  0  0  0  0  0  0  0  0
  158.1500  213.1800  157.2610 C   0  0  0  0  0  3  0  0  0  0  0  0
  158.7010  212.2200  154.6870 C   0  0  0  0  0  0  0  0  0  0  0  0
  159.4320  213.3200  156.7240 C   0  0  0  0  0  3  0  0  0  0  0  0
  157.4190  212.0840  155.2280 C   0  0  0  0  0  3  0  0  0  0  0  0
  159.7100  212.8410  155.4420 C   0  0  0  0  0  3  0  0  0  0  0  0
  155.8990  212.4280  157.0320 F   0  0  0  0  0  0  0  0  0  0  0  0
  160.7390  212.2850  146.9540 C   0  0  0  0  0  0  0  0  0  0  0  0
  161.1290  212.3560  148.0920 C   0  0  0  0  0  0  0  0  0  0  0  0
  157.7720  212.3770  145.7360 C   0  0  0  0  0  1  0  0  0  0  0  0
  160.2610  212.1980  145.5700 C   0  0  1  0  0  3  0  0  0  0  0  0
  159.0440  213.1200  145.3790 C   0  0  1  0  0  3  0  0  0  0  0  0
  160.1890  214.4530  143.5580 C   0  0  0  0  0  2  0  0  0  0  0  0
  161.4750  213.9850  144.2520 C   0  0  0  0  0  2  0  0  0  0  0  0
  161.4160  212.5000  144.6010 C   0  0  0  0  0  2  0  0  0  0  0  0
  158.9480  213.6370  143.9460 C   0  0  0  0  0  2  0  0  0  0  0  0
  1 12  1  0  0  0  0
  2  6  2  0  0  0  0
  2  8  1  0  0  0  0
  3  8  1  1  0  0  0
  3 11  1  0  0  0  0
  4  9  1  6  0  0  0
  4 17  1  0  0  0  0
  4 14  1  0  0  0  0
  5 10  2  0  0  0  0
  6  5  1  0  0  0  0
  8  1  2  0  0  0  0
 10  1  1  0  0  0  0
 11 18  1  1  0  0  0
 13  2  1  0  0  0  0
 14 15  1  0  0  0  0
 15 11  1  0  0  0  0
 15 21  1  1  0  0  0
 16 27  1  6  0  0  0
 16  7  1  0  0  0  0
 16  9  1  0  0  0  0
 17  7  1  6  0  0  0
 17  3  1  0  0  0  0
 18 12  1  0  0  0  0
 19 25  1  0  0  0  0
 19 20  1  0  0  0  0
 21 23  1  0  0  0  0
 21 24  2  0  0  0  0
 22 20  2  0  0  0  0
 23 19  2  0  0  0  0
 24 22  1  0  0  0  0
 26 27  3  0  0  0  0
 29 26  1  1  0  0  0
 30 29  1  0  0  0  0
 30 28  1  6  0  0  0
 31 34  1  0  0  0  0
 31 32  1  0  0  0  0
 32 33  1  0  0  0  0
 33 29  1  0  0  0  0
 34 30  1  0  0  0  0
M  END
>  <MODEL>
5

>  <REMARK>
 VINA RESULT:      -4.5      3.711      8.715
  Name = 
  3 active torsions:
  status: ('A' for Active; 'I' for Inactive)
    1  A    between atoms: C_3  and  C_13
    2  A    between atoms: C_12  and  C_28
    3  A    between atoms: C_17  and  C_29
                            x       y       z     vdW  Elec       q    Type
                         _______ _______ _______ _____ _____    ______ ____

>  <TORSDO>
F 3

$$$$
