=
 OpenBabel11062410003D

 43 48  0  0  1  0  0  0  0  0999 V2000
  161.1440  203.2930  151.3100 C   0  0  0  0  0  0  0  0  0  0  0  0
  161.5760  208.1330  152.6310 C   0  0  2  0  0  3  0  0  0  0  0  0
  161.8170  209.5130  150.1970 C   0  0  0  0  0  0  0  0  0  0  0  0
  161.0150  205.3450  152.4970 C   0  0  0  0  0  0  0  0  0  0  0  0
  161.2240  203.9760  150.0950 C   0  0  0  0  0  3  0  0  0  0  0  0
  161.1640  201.8710  151.3300 N   0  0  0  0  0  1  0  0  0  0  0  0
  161.1110  206.0690  151.2930 C   0  0  0  0  0  0  0  0  0  0  0  0
  161.0310  203.9830  152.4770 N   0  0  0  0  0  0  0  0  0  0  0  0
  161.1940  205.3710  150.0860 C   0  0  0  0  0  3  0  0  0  0  0  0
  161.5110  208.2490  150.1640 N   0  0  0  0  0  0  0  0  0  0  0  0
  160.9590  207.5680  151.3420 C   0  0  2  0  0  3  0  0  0  0  0  0
  161.0690  207.3900  153.8400 C   0  0  0  0  0  3  0  0  0  0  0  0
  161.2750  209.6270  152.6710 C   0  0  2  0  0  3  0  0  0  0  0  0
  161.7660  210.2450  151.4390 N   0  0  0  0  0  2  0  0  0  0  0  0
  160.8610  206.0680  153.7790 C   0  0  0  0  0  3  0  0  0  0  0  0
  162.3120  210.1870  148.9610 C   0  0  1  0  0  3  0  0  0  0  0  0
  162.6290  209.1330  147.9070 C   0  0  0  0  0  1  0  0  0  0  0  0
  161.3430  211.0900  148.4920 O   0  0  0  0  0  0  0  0  0  0  0  0
  161.8680  212.3700  148.7110 C   0  0  1  0  0  3  0  0  0  0  0  0
  163.1530  212.5210  147.9210 C   0  0  0  0  0  1  0  0  0  0  0  0
  160.8850  213.4570  148.2620 C   0  0  0  0  0  2  0  0  0  0  0  0
  159.7970  212.9780  147.3940 N   0  0  0  0  0  0  0  0  0  0  0  0
  157.4560  212.8180  145.8050 C   0  0  0  0  0  2  0  0  0  0  0  0
  158.5330  213.3020  148.0560 C   0  0  0  0  0  2  0  0  0  0  0  0
  159.8740  213.5460  146.0210 C   0  0  2  0  0  3  0  0  0  0  0  0
  158.5000  213.8590  145.3970 C   0  0  0  0  0  2  0  0  0  0  0  0
  157.3680  212.6420  147.3240 C   0  0  0  0  0  2  0  0  0  0  0  0
  162.0700  213.3350  144.7390 C   0  0  0  0  0  2  0  0  0  0  0  0
  160.7160  212.6710  145.0840 C   0  0  2  0  0  3  0  0  0  0  0  0
  159.5000  212.0770  141.1890 Cl  0  0  0  0  0  0  0  0  0  0  0  0
  161.8390  212.6140  142.3950 C   0  0  0  0  0  3  0  0  0  0  0  0
  160.3630  212.8280  142.5470 C   0  0  2  0  0  3  0  0  0  0  0  0
  162.6440  212.8380  143.4410 C   0  0  0  0  0  3  0  0  0  0  0  0
  159.8830  212.2070  143.8630 C   0  0  0  0  0  2  0  0  0  0  0  0
  161.9180  210.2470  153.8220 N   0  0  0  0  0  2  0  0  0  0  0  0
  159.2000  210.6550  156.2300 C   0  0  0  0  0  3  0  0  0  0  0  0
  158.3250  211.6880  155.5530 C   0  0  0  0  0  0  0  0  0  0  0  0
  156.8670  211.3740  155.8270 C   0  0  0  0  0  1  0  0  0  0  0  0
  159.7720  211.3870  153.5580 C   0  0  0  0  0  3  0  0  0  0  0  0
  160.4110  210.3530  155.7300 C   0  0  0  0  0  3  0  0  0  0  0  0
  160.9140  211.0610  154.4950 C   0  0  1  0  0  3  0  0  0  0  0  0
  158.6410  213.0620  156.1090 C   0  0  0  0  0  1  0  0  0  0  0  0
  158.5630  211.6880  154.0590 C   0  0  0  0  0  3  0  0  0  0  0  0
  1  6  1  0  0  0  0
  1  8  1  0  0  0  0
  2 13  1  0  0  0  0
  2 12  1  1  0  0  0
  3 14  1  0  0  0  0
  4 15  1  0  0  0  0
  5  1  2  0  0  0  0
  7 11  1  0  0  0  0
  7  4  1  0  0  0  0
  8  4  2  0  0  0  0
  9  5  1  0  0  0  0
  9  7  2  0  0  0  0
 10  3  2  0  0  0  0
 11 10  1  6  0  0  0
 11  2  1  0  0  0  0
 13 35  1  1  0  0  0
 14 13  1  0  0  0  0
 15 12  2  0  0  0  0
 16 17  1  6  0  0  0
 16  3  1  0  0  0  0
 18 19  1  0  0  0  0
 18 16  1  0  0  0  0
 19 20  1  6  0  0  0
 21 19  1  0  0  0  0
 22 24  1  0  0  0  0
 22 21  1  0  0  0  0
 23 27  1  0  0  0  0
 25 26  1  6  0  0  0
 25 22  1  0  0  0  0
 26 23  1  0  0  0  0
 27 24  1  0  0  0  0
 28 29  1  0  0  0  0
 29 34  1  6  0  0  0
 29 25  1  0  0  0  0
 31 32  1  0  0  0  0
 31 33  2  0  0  0  0
 32 30  1  6  0  0  0
 32 34  1  0  0  0  0
 33 28  1  0  0  0  0
 37 38  1  0  0  0  0
 37 42  1  0  0  0  0
 37 36  1  0  0  0  0
 39 43  2  0  0  0  0
 39 41  1  0  0  0  0
 40 36  2  0  0  0  0
 41 35  1  6  0  0  0
 41 40  1  0  0  0  0
 43 37  1  0  0  0  0
M  END
>  <MODEL>
1

>  <REMARK>
 VINA RESULT:      -8.4      0.000      0.000
  Name = 
  8 active torsions:
  status: ('A' for Active; 'I' for Inactive)
    1  A    between atoms: N_1  and  C_34
    2  A    between atoms: N_1  and  C_35
    3  A    between atoms: C_2  and  O_6
    4  A    between atoms: C_2  and  C_13
    5  A    between atoms: C_3  and  N_4
    6  A    between atoms: C_3  and  C_12
    7  A    between atoms: O_6  and  C_12
    8  A    between atoms: C_14  and  C_22
                            x       y       z     vdW  Elec       q    Type
                         _______ _______ _______ _____ _____    ______ ____

>  <TORSDO>
F 8

$$$$
=
 OpenBabel11062410003D

 43 48  0  0  1  0  0  0  0  0999 V2000
  161.2460  201.4950  147.9600 C   0  0  0  0  0  0  0  0  0  0  0  0
  161.1750  204.9500  151.6220 C   0  0  2  0  0  3  0  0  0  0  0  0
  161.5970  207.3920  150.3020 C   0  0  0  0  0  0  0  0  0  0  0  0
  160.8340  202.6350  150.0010 C   0  0  0  0  0  0  0  0  0  0  0  0
  161.4180  202.7090  147.2910 C   0  0  0  0  0  3  0  0  0  0  0  0
  161.3660  200.2690  147.2490 N   0  0  0  0  0  1  0  0  0  0  0  0
  161.0170  203.8780  149.3650 C   0  0  0  0  0  0  0  0  0  0  0  0
  160.9490  201.4800  149.2870 N   0  0  0  0  0  0  0  0  0  0  0  0
  161.2890  203.9060  147.9960 C   0  0  0  0  0  3  0  0  0  0  0  0
  161.3890  206.3280  149.5830 N   0  0  0  0  0  0  0  0  0  0  0  0
  160.7540  205.1350  150.1560 C   0  0  2  0  0  3  0  0  0  0  0  0
  160.5860  203.6870  152.1960 C   0  0  0  0  0  3  0  0  0  0  0  0
  160.7650  206.2070  152.3820 C   0  0  2  0  0  3  0  0  0  0  0  0
  161.3500  207.3740  151.7220 N   0  0  0  0  0  2  0  0  0  0  0  0
  160.4810  202.5890  151.4370 C   0  0  0  0  0  3  0  0  0  0  0  0
  162.1830  208.6100  149.6680 C   0  0  1  0  0  3  0  0  0  0  0  0
  162.6560  208.2650  148.2600 C   0  0  0  0  0  1  0  0  0  0  0  0
  161.2250  209.6370  149.6380 O   0  0  0  0  0  0  0  0  0  0  0  0
  161.4600  210.4200  150.7750 C   0  0  1  0  0  3  0  0  0  0  0  0
  162.9290  210.3370  151.1390 C   0  0  0  0  0  1  0  0  0  0  0  0
  161.0990  211.8880  150.5210 C   0  0  0  0  0  2  0  0  0  0  0  0
  159.8360  212.3240  151.1370 N   0  0  0  0  0  0  0  0  0  0  0  0
  157.9090  213.5170  152.8400 C   0  0  0  0  0  2  0  0  0  0  0  0
  159.8800  211.9370  152.5480 C   0  0  0  0  0  2  0  0  0  0  0  0
  159.5900  213.7810  150.9620 C   0  0  2  0  0  3  0  0  0  0  0  0
  158.9220  214.4520  152.1780 C   0  0  0  0  0  2  0  0  0  0  0  0
  158.5180  212.1580  153.2000 C   0  0  0  0  0  2  0  0  0  0  0  0
  157.6030  213.1360  149.4970 C   0  0  0  0  0  2  0  0  0  0  0  0
  158.8150  214.0810  149.6730 C   0  0  2  0  0  3  0  0  0  0  0  0
  160.5400  213.2890  146.0120 Cl  0  0  0  0  0  0  0  0  0  0  0  0
  158.1120  212.9120  147.0970 C   0  0  0  0  0  3  0  0  0  0  0  0
  159.5620  213.0030  147.4660 C   0  0  2  0  0  3  0  0  0  0  0  0
  157.1850  212.9930  148.0600 C   0  0  0  0  0  3  0  0  0  0  0  0
  159.7720  214.1540  148.4570 C   0  0  0  0  0  2  0  0  0  0  0  0
  161.2240  206.1410  153.7620 N   0  0  0  0  0  2  0  0  0  0  0  0
  161.3670  209.5980  154.9370 C   0  0  0  0  0  3  0  0  0  0  0  0
  160.6290  209.5180  156.2570 C   0  0  0  0  0  0  0  0  0  0  0  0
  161.2830  210.4510  157.2590 C   0  0  0  0  0  1  0  0  0  0  0  0
  160.6770  207.0530  155.9620 C   0  0  0  0  0  3  0  0  0  0  0  0
  161.3840  208.5450  154.1010 C   0  0  0  0  0  3  0  0  0  0  0  0
  160.6490  207.2800  154.4670 C   0  0  1  0  0  3  0  0  0  0  0  0
  159.1890  209.9460  156.0590 C   0  0  0  0  0  1  0  0  0  0  0  0
  160.6600  208.1060  156.7970 C   0  0  0  0  0  3  0  0  0  0  0  0
  1  8  1  0  0  0  0
  2 12  1  1  0  0  0
  2 13  1  0  0  0  0
  3 14  1  0  0  0  0
  4 15  1  0  0  0  0
  5  1  2  0  0  0  0
  5  9  1  0  0  0  0
  6  1  1  0  0  0  0
  7  4  1  0  0  0  0
  8  4  2  0  0  0  0
  9  7  2  0  0  0  0
 10 11  1  0  0  0  0
 10  3  2  0  0  0  0
 11  7  1  6  0  0  0
 11  2  1  0  0  0  0
 13 35  1  1  0  0  0
 14 13  1  0  0  0  0
 15 12  2  0  0  0  0
 16 17  1  6  0  0  0
 16  3  1  0  0  0  0
 18 16  1  0  0  0  0
 18 19  1  0  0  0  0
 19 20  1  6  0  0  0
 21 19  1  0  0  0  0
 21 22  1  0  0  0  0
 22 24  1  0  0  0  0
 23 27  1  0  0  0  0
 24 27  1  0  0  0  0
 25 22  1  0  0  0  0
 25 26  1  1  0  0  0
 26 23  1  0  0  0  0
 28 29  1  0  0  0  0
 29 34  1  6  0  0  0
 29 25  1  0  0  0  0
 31 32  1  0  0  0  0
 31 33  2  0  0  0  0
 32 30  1  6  0  0  0
 32 34  1  0  0  0  0
 33 28  1  0  0  0  0
 36 37  1  0  0  0  0
 37 43  1  0  0  0  0
 37 38  1  0  0  0  0
 39 43  2  0  0  0  0
 40 41  1  0  0  0  0
 40 36  2  0  0  0  0
 41 35  1  6  0  0  0
 41 39  1  0  0  0  0
 42 37  1  0  0  0  0
M  END
>  <MODEL>
2

>  <REMARK>
 VINA RESULT:      -7.3      2.500      4.247
  Name = 
  8 active torsions:
  status: ('A' for Active; 'I' for Inactive)
    1  A    between atoms: N_1  and  C_34
    2  A    between atoms: N_1  and  C_35
    3  A    between atoms: C_2  and  O_6
    4  A    between atoms: C_2  and  C_13
    5  A    between atoms: C_3  and  N_4
    6  A    between atoms: C_3  and  C_12
    7  A    between atoms: O_6  and  C_12
    8  A    between atoms: C_14  and  C_22
                            x       y       z     vdW  Elec       q    Type
                         _______ _______ _______ _____ _____    ______ ____

>  <TORSDO>
F 8

$$$$
=
 OpenBabel11062410003D

 43 48  0  0  1  0  0  0  0  0999 V2000
  159.3770  211.3810  156.0480 C   0  0  0  0  0  0  0  0  0  0  0  0
  161.3720  210.3000  151.5530 C   0  0  2  0  0  3  0  0  0  0  0  0
  161.4780  207.4950  151.4800 C   0  0  0  0  0  0  0  0  0  0  0  0
  160.0580  211.4970  153.7770 C   0  0  0  0  0  0  0  0  0  0  0  0
  159.3910  209.9860  156.0040 C   0  0  0  0  0  3  0  0  0  0  0  0
  159.0120  212.0510  157.2480 N   0  0  0  0  0  1  0  0  0  0  0  0
  160.0990  210.0910  153.6990 C   0  0  0  0  0  0  0  0  0  0  0  0
  159.6970  212.1040  154.9410 N   0  0  0  0  0  0  0  0  0  0  0  0
  159.7410  209.3380  154.8190 C   0  0  0  0  0  3  0  0  0  0  0  0
  160.8400  208.0650  152.4600 N   0  0  0  0  0  0  0  0  0  0  0  0
  160.3760  209.4540  152.3600 C   0  0  2  0  0  3  0  0  0  0  0  0
  160.9400  211.7430  151.5080 C   0  0  0  0  0  3  0  0  0  0  0  0
  161.5050  209.6660  150.1730 C   0  0  2  0  0  3  0  0  0  0  0  0
  161.8840  208.2620  150.3280 N   0  0  0  0  0  2  0  0  0  0  0  0
  160.3720  212.3090  152.5810 C   0  0  0  0  0  3  0  0  0  0  0  0
  161.8750  206.0610  151.5910 C   0  0  1  0  0  3  0  0  0  0  0  0
  162.6430  205.8510  152.8920 C   0  0  0  0  0  1  0  0  0  0  0  0
  160.7310  205.2460  151.5470 O   0  0  0  0  0  0  0  0  0  0  0  0
  161.1760  203.9720  151.1740 C   0  0  1  0  0  3  0  0  0  0  0  0
  161.1160  203.0530  152.3780 C   0  0  0  0  0  1  0  0  0  0  0  0
  160.3000  203.3820  150.0630 C   0  0  0  0  0  2  0  0  0  0  0  0
  161.0160  202.5120  149.1160 N   0  0  0  0  0  0  0  0  0  0  0  0
  161.6470  200.5750  147.1450 C   0  0  0  0  0  2  0  0  0  0  0  0
  160.6230  201.1330  149.4040 C   0  0  0  0  0  2  0  0  0  0  0  0
  160.7610  202.8840  147.6980 C   0  0  2  0  0  3  0  0  0  0  0  0
  160.6670  201.6780  146.7430 C   0  0  0  0  0  2  0  0  0  0  0  0
  161.4890  200.1580  148.6110 C   0  0  0  0  0  2  0  0  0  0  0  0
  161.6510  205.2640  147.9290 C   0  0  0  0  0  2  0  0  0  0  0  0
  161.7740  203.9140  147.1840 C   0  0  2  0  0  3  0  0  0  0  0  0
  161.3740  205.4610  143.3820 Cl  0  0  0  0  0  0  0  0  0  0  0  0
  161.9360  206.4770  145.8040 C   0  0  0  0  0  3  0  0  0  0  0  0
  161.1860  205.3590  145.1440 C   0  0  2  0  0  3  0  0  0  0  0  0
  162.1700  206.4210  147.1210 C   0  0  0  0  0  3  0  0  0  0  0  0
  161.7270  204.0120  145.6380 C   0  0  0  0  0  2  0  0  0  0  0  0
  162.5130  210.3630  149.3860 N   0  0  0  0  0  2  0  0  0  0  0  0
  160.5930  212.1610  146.8490 C   0  0  0  0  0  3  0  0  0  0  0  0
  161.2240  213.5360  146.8860 C   0  0  0  0  0  0  0  0  0  0  0  0
  161.2730  214.1070  145.4810 C   0  0  0  0  0  1  0  0  0  0  0  0
  162.9510  212.5400  148.3650 C   0  0  0  0  0  3  0  0  0  0  0  0
  160.9150  211.2380  147.7730 C   0  0  0  0  0  3  0  0  0  0  0  0
  161.8970  211.5780  148.8660 C   0  0  1  0  0  3  0  0  0  0  0  0
  160.3890  214.4530  147.7570 C   0  0  0  0  0  1  0  0  0  0  0  0
  162.6280  213.4610  147.4420 C   0  0  0  0  0  3  0  0  0  0  0  0
  1  6  1  0  0  0  0
  2 12  1  6  0  0  0
  2 11  1  0  0  0  0
  3 16  1  0  0  0  0
  3 10  2  0  0  0  0
  4  8  1  0  0  0  0
  5  1  1  0  0  0  0
  7  4  2  0  0  0  0
  7  9  1  0  0  0  0
  8  1  2  0  0  0  0
  9  5  2  0  0  0  0
 11 10  1  1  0  0  0
 11  7  1  0  0  0  0
 12 15  2  0  0  0  0
 13 35  1  6  0  0  0
 13 14  1  0  0  0  0
 13  2  1  0  0  0  0
 14  3  1  0  0  0  0
 15  4  1  0  0  0  0
 16 17  1  1  0  0  0
 18 16  1  0  0  0  0
 19 18  1  0  0  0  0
 19 20  1  1  0  0  0
 21 19  1  0  0  0  0
 22 24  1  0  0  0  0
 22 21  1  0  0  0  0
 23 27  1  0  0  0  0
 25 26  1  6  0  0  0
 25 22  1  0  0  0  0
 26 23  1  0  0  0  0
 27 24  1  0  0  0  0
 29 34  1  6  0  0  0
 29 25  1  0  0  0  0
 29 28  1  0  0  0  0
 31 33  2  0  0  0  0
 32 30  1  6  0  0  0
 32 34  1  0  0  0  0
 32 31  1  0  0  0  0
 33 28  1  0  0  0  0
 36 37  1  0  0  0  0
 36 40  2  0  0  0  0
 37 43  1  0  0  0  0
 37 42  1  0  0  0  0
 38 37  1  0  0  0  0
 39 41  1  0  0  0  0
 40 41  1  0  0  0  0
 41 35  1  6  0  0  0
 43 39  2  0  0  0  0
M  END
>  <MODEL>
3

>  <REMARK>
 VINA RESULT:      -6.8      2.768      8.250
  Name = 
  8 active torsions:
  status: ('A' for Active; 'I' for Inactive)
    1  A    between atoms: N_1  and  C_34
    2  A    between atoms: N_1  and  C_35
    3  A    between atoms: C_2  and  O_6
    4  A    between atoms: C_2  and  C_13
    5  A    between atoms: C_3  and  N_4
    6  A    between atoms: C_3  and  C_12
    7  A    between atoms: O_6  and  C_12
    8  A    between atoms: C_14  and  C_22
                            x       y       z     vdW  Elec       q    Type
                         _______ _______ _______ _____ _____    ______ ____

>  <TORSDO>
F 8

$$$$
=
 OpenBabel11062410003D

 43 48  0  0  1  0  0  0  0  0999 V2000
  161.1820  201.6410  148.5030 C   0  0  0  0  0  0  0  0  0  0  0  0
  161.2650  205.5100  151.7230 C   0  0  2  0  0  3  0  0  0  0  0  0
  161.6730  207.7700  150.1060 C   0  0  0  0  0  0  0  0  0  0  0  0
  160.8470  203.0230  150.4040 C   0  0  0  0  0  0  0  0  0  0  0  0
  161.3470  202.7630  147.6890 C   0  0  0  0  0  3  0  0  0  0  0  0
  161.2660  200.3370  147.9420 N   0  0  0  0  0  1  0  0  0  0  0  0
  161.0240  204.1780  149.6180 C   0  0  0  0  0  0  0  0  0  0  0  0
  160.9270  201.7900  149.8310 N   0  0  0  0  0  0  0  0  0  0  0  0
  161.2540  204.0380  148.2470 C   0  0  0  0  0  3  0  0  0  0  0  0
  161.4300  206.6300  149.5270 N   0  0  0  0  0  0  0  0  0  0  0  0
  160.8000  205.5240  150.2590 C   0  0  2  0  0  3  0  0  0  0  0  0
  160.6800  204.3350  152.4620 C   0  0  0  0  0  3  0  0  0  0  0  0
  160.8930  206.8560  152.3380 C   0  0  2  0  0  3  0  0  0  0  0  0
  161.4710  207.9260  151.5250 N   0  0  0  0  0  2  0  0  0  0  0  0
  160.5390  203.1550  151.8450 C   0  0  0  0  0  3  0  0  0  0  0  0
  162.2520  208.8940  149.3130 C   0  0  1  0  0  3  0  0  0  0  0  0
  162.9520  208.3310  148.0810 C   0  0  0  0  0  1  0  0  0  0  0  0
  161.2340  209.7900  148.9460 O   0  0  0  0  0  0  0  0  0  0  0  0
  161.5130  210.9890  149.6150 C   0  0  1  0  0  3  0  0  0  0  0  0
  162.4110  210.6970  150.8010 C   0  0  0  0  0  1  0  0  0  0  0  0
  162.2230  211.9860  148.6940 C   0  0  0  0  0  2  0  0  0  0  0  0
  161.3220  212.8750  147.9430 N   0  0  0  0  0  0  0  0  0  0  0  0
  159.3440  213.8880  146.1840 C   0  0  0  0  0  2  0  0  0  0  0  0
  161.4960  212.5770  146.5220 C   0  0  0  0  0  2  0  0  0  0  0  0
  159.9050  212.7460  148.3760 C   0  0  2  0  0  3  0  0  0  0  0  0
  158.8870  212.8640  147.2240 C   0  0  0  0  0  2  0  0  0  0  0  0
  160.7590  213.6070  145.6700 C   0  0  0  0  0  2  0  0  0  0  0  0
  159.9650  213.1450  150.8960 C   0  0  0  0  0  2  0  0  0  0  0  0
  159.5610  213.7140  149.5150 C   0  0  2  0  0  3  0  0  0  0  0  0
  155.6150  214.4440  150.4640 Cl  0  0  0  0  0  0  0  0  0  0  0  0
  157.8570  213.9740  151.8660 C   0  0  0  0  0  3  0  0  0  0  0  0
  157.2110  213.6710  150.5470 C   0  0  2  0  0  3  0  0  0  0  0  0
  159.1660  213.7400  152.0220 C   0  0  0  0  0  3  0  0  0  0  0  0
  158.0930  214.1940  149.4070 C   0  0  0  0  0  2  0  0  0  0  0  0
  161.3940  206.9490  153.7020 N   0  0  0  0  0  2  0  0  0  0  0  0
  161.1040  210.4140  154.8290 C   0  0  0  0  0  3  0  0  0  0  0  0
  160.3160  210.2670  156.1120 C   0  0  0  0  0  0  0  0  0  0  0  0
  160.8140  211.2760  157.1300 C   0  0  0  0  0  1  0  0  0  0  0  0
  160.6440  207.8190  155.8590 C   0  0  0  0  0  3  0  0  0  0  0  0
  161.2770  209.3600  154.0110 C   0  0  0  0  0  3  0  0  0  0  0  0
  160.6660  208.0260  154.3610 C   0  0  1  0  0  3  0  0  0  0  0  0
  158.8490  210.5340  155.8390 C   0  0  0  0  0  1  0  0  0  0  0  0
  160.4720  208.8720  156.6750 C   0  0  0  0  0  3  0  0  0  0  0  0
  1  8  1  0  0  0  0
  2 13  1  0  0  0  0
  2 12  1  1  0  0  0
  3 14  1  0  0  0  0
  4 15  1  0  0  0  0
  5  9  1  0  0  0  0
  5  1  2  0  0  0  0
  6  1  1  0  0  0  0
  7 11  1  0  0  0  0
  7  4  1  0  0  0  0
  8  4  2  0  0  0  0
  9  7  2  0  0  0  0
 10  3  2  0  0  0  0
 11 10  1  6  0  0  0
 11  2  1  0  0  0  0
 13 35  1  1  0  0  0
 14 13  1  0  0  0  0
 15 12  2  0  0  0  0
 16 17  1  6  0  0  0
 16  3  1  0  0  0  0
 18 16  1  0  0  0  0
 18 19  1  0  0  0  0
 19 20  1  1  0  0  0
 21 19  1  0  0  0  0
 22 25  1  0  0  0  0
 22 21  1  0  0  0  0
 23 26  1  0  0  0  0
 24 22  1  0  0  0  0
 25 26  1  6  0  0  0
 25 29  1  0  0  0  0
 27 23  1  0  0  0  0
 27 24  1  0  0  0  0
 28 33  1  0  0  0  0
 29 34  1  1  0  0  0
 29 28  1  0  0  0  0
 31 33  2  0  0  0  0
 32 30  1  1  0  0  0
 32 31  1  0  0  0  0
 34 32  1  0  0  0  0
 36 37  1  0  0  0  0
 37 43  1  0  0  0  0
 37 38  1  0  0  0  0
 39 43  2  0  0  0  0
 40 41  1  0  0  0  0
 40 36  2  0  0  0  0
 41 35  1  6  0  0  0
 41 39  1  0  0  0  0
 42 37  1  0  0  0  0
M  END
>  <MODEL>
4

>  <REMARK>
 VINA RESULT:      -6.8      2.347      4.220
  Name = 
  8 active torsions:
  status: ('A' for Active; 'I' for Inactive)
    1  A    between atoms: N_1  and  C_34
    2  A    between atoms: N_1  and  C_35
    3  A    between atoms: C_2  and  O_6
    4  A    between atoms: C_2  and  C_13
    5  A    between atoms: C_3  and  N_4
    6  A    between atoms: C_3  and  C_12
    7  A    between atoms: O_6  and  C_12
    8  A    between atoms: C_14  and  C_22
                            x       y       z     vdW  Elec       q    Type
                         _______ _______ _______ _____ _____    ______ ____

>  <TORSDO>
F 8

$$$$
=
 OpenBabel11062410003D

 43 48  0  0  1  0  0  0  0  0999 V2000
  160.9860  202.1290  149.9000 C   0  0  0  0  0  0  0  0  0  0  0  0
  161.2330  207.0610  148.9190 C   0  0  2  0  0  3  0  0  0  0  0  0
  161.0210  208.2950  151.4330 C   0  0  0  0  0  0  0  0  0  0  0  0
  161.4370  204.2220  148.8750 C   0  0  0  0  0  0  0  0  0  0  0  0
  160.9190  202.7330  151.1560 C   0  0  0  0  0  3  0  0  0  0  0  0
  160.7920  200.7250  149.7750 N   0  0  0  0  0  1  0  0  0  0  0  0
  161.3600  204.8700  150.1230 C   0  0  0  0  0  0  0  0  0  0  0  0
  161.2520  202.8750  148.7940 N   0  0  0  0  0  0  0  0  0  0  0  0
  161.1210  204.1090  151.2690 C   0  0  0  0  0  3  0  0  0  0  0  0
  161.1650  207.0030  151.3880 N   0  0  0  0  0  0  0  0  0  0  0  0
  161.6980  206.3380  150.1920 C   0  0  2  0  0  3  0  0  0  0  0  0
  161.7140  206.3420  147.6850 C   0  0  0  0  0  3  0  0  0  0  0  0
  161.7170  208.5040  149.0050 C   0  0  2  0  0  3  0  0  0  0  0  0
  161.2340  209.0950  150.2520 N   0  0  0  0  0  2  0  0  0  0  0  0
  161.7540  205.0040  147.6600 C   0  0  0  0  0  3  0  0  0  0  0  0
  160.5400  208.9420  152.6890 C   0  0  1  0  0  3  0  0  0  0  0  0
  161.0720  208.1670  153.8890 C   0  0  0  0  0  1  0  0  0  0  0  0
  160.9680  210.2800  152.7270 O   0  0  0  0  0  0  0  0  0  0  0  0
  160.0660  210.9520  153.5620 C   0  0  1  0  0  3  0  0  0  0  0  0
  160.8430  211.7530  154.5880 C   0  0  0  0  0  1  0  0  0  0  0  0
  159.1770  211.9100  152.7620 C   0  0  0  0  0  2  0  0  0  0  0  0
  157.8840  212.2170  153.3940 N   0  0  0  0  0  0  0  0  0  0  0  0
  155.8650  212.9310  155.2520 C   0  0  0  0  0  2  0  0  0  0  0  0
  157.7730  211.3850  154.5930 C   0  0  0  0  0  2  0  0  0  0  0  0
  157.7300  213.6650  153.6990 C   0  0  2  0  0  3  0  0  0  0  0  0
  156.9820  213.9500  155.0170 C   0  0  0  0  0  2  0  0  0  0  0  0
  156.3670  211.4860  155.1790 C   0  0  0  0  0  2  0  0  0  0  0  0
  155.6000  214.0870  152.3590 C   0  0  0  0  0  2  0  0  0  0  0  0
  157.0980  214.4340  152.5330 C   0  0  2  0  0  3  0  0  0  0  0  0
  158.2150  213.5620  148.6600 Cl  0  0  0  0  0  0  0  0  0  0  0  0
  155.8850  214.0310  149.9120 C   0  0  0  0  0  3  0  0  0  0  0  0
  157.2590  213.4820  150.1540 C   0  0  2  0  0  3  0  0  0  0  0  0
  155.1080  214.3340  150.9600 C   0  0  0  0  0  3  0  0  0  0  0  0
  157.9560  214.2960  151.2500 C   0  0  0  0  0  2  0  0  0  0  0  0
  161.2250  209.2760  147.8720 N   0  0  0  0  0  2  0  0  0  0  0  0
  161.2570  212.8130  146.9530 C   0  0  0  0  0  3  0  0  0  0  0  0
  162.3070  213.3760  147.8870 C   0  0  0  0  0  0  0  0  0  0  0  0
  163.0960  214.4530  147.1680 C   0  0  0  0  0  1  0  0  0  0  0  0
  162.8200  211.0220  148.4880 C   0  0  0  0  0  3  0  0  0  0  0  0
  160.8240  211.5480  147.0980 C   0  0  0  0  0  3  0  0  0  0  0  0
  161.3720  210.6860  148.2090 C   0  0  1  0  0  3  0  0  0  0  0  0
  161.6320  213.9910  149.0960 C   0  0  0  0  0  1  0  0  0  0  0  0
  163.2510  212.2860  148.3420 C   0  0  0  0  0  3  0  0  0  0  0  0
  1  5  1  0  0  0  0
  2 12  1  6  0  0  0
  2 13  1  0  0  0  0
  2 11  1  0  0  0  0
  3 16  1  0  0  0  0
  4  7  2  0  0  0  0
  5  9  2  0  0  0  0
  6  1  1  0  0  0  0
  7  9  1  0  0  0  0
  8  4  1  0  0  0  0
  8  1  2  0  0  0  0
 10  3  2  0  0  0  0
 11  7  1  6  0  0  0
 11 10  1  0  0  0  0
 13 35  1  6  0  0  0
 13 14  1  0  0  0  0
 14  3  1  0  0  0  0
 15 12  2  0  0  0  0
 15  4  1  0  0  0  0
 16 18  1  0  0  0  0
 16 17  1  1  0  0  0
 18 19  1  0  0  0  0
 19 20  1  1  0  0  0
 21 22  1  0  0  0  0
 21 19  1  0  0  0  0
 22 25  1  0  0  0  0
 22 24  1  0  0  0  0
 24 27  1  0  0  0  0
 25 26  1  1  0  0  0
 26 23  1  0  0  0  0
 27 23  1  0  0  0  0
 28 29  1  0  0  0  0
 29 34  1  6  0  0  0
 29 25  1  0  0  0  0
 31 32  1  0  0  0  0
 31 33  2  0  0  0  0
 32 30  1  6  0  0  0
 32 34  1  0  0  0  0
 33 28  1  0  0  0  0
 36 40  2  0  0  0  0
 36 37  1  0  0  0  0
 37 43  1  0  0  0  0
 37 42  1  0  0  0  0
 38 37  1  0  0  0  0
 40 41  1  0  0  0  0
 41 35  1  6  0  0  0
 41 39  1  0  0  0  0
 43 39  2  0  0  0  0
M  END
>  <MODEL>
5

>  <REMARK>
 VINA RESULT:      -6.7      2.594      6.681
  Name = 
  8 active torsions:
  status: ('A' for Active; 'I' for Inactive)
    1  A    between atoms: N_1  and  C_34
    2  A    between atoms: N_1  and  C_35
    3  A    between atoms: C_2  and  O_6
    4  A    between atoms: C_2  and  C_13
    5  A    between atoms: C_3  and  N_4
    6  A    between atoms: C_3  and  C_12
    7  A    between atoms: O_6  and  C_12
    8  A    between atoms: C_14  and  C_22
                            x       y       z     vdW  Elec       q    Type
                         _______ _______ _______ _____ _____    ______ ____

>  <TORSDO>
F 8

$$$$
=
 OpenBabel11062410003D

 43 48  0  0  1  0  0  0  0  0999 V2000
  161.9800  204.6490  146.3250 C   0  0  0  0  0  0  0  0  0  0  0  0
  161.7630  207.7210  150.3080 C   0  0  2  0  0  3  0  0  0  0  0  0
  161.8530  210.3070  149.2160 C   0  0  0  0  0  0  0  0  0  0  0  0
  161.5710  205.5430  148.4860 C   0  0  0  0  0  0  0  0  0  0  0  0
  161.9860  205.9310  145.7720 C   0  0  0  0  0  3  0  0  0  0  0  0
  162.1840  203.5150  145.4920 N   0  0  0  0  0  1  0  0  0  0  0  0
  161.5870  206.8520  147.9670 C   0  0  0  0  0  0  0  0  0  0  0  0
  161.7630  204.4790  147.6570 N   0  0  0  0  0  0  0  0  0  0  0  0
  161.7750  207.0370  146.5960 C   0  0  0  0  0  3  0  0  0  0  0  0
  161.7150  209.2970  148.4070 N   0  0  0  0  0  0  0  0  0  0  0  0
  161.2410  207.9940  148.8890 C   0  0  2  0  0  3  0  0  0  0  0  0
  161.3420  206.3550  150.7830 C   0  0  0  0  0  3  0  0  0  0  0  0
  161.2700  208.8510  151.2060 C   0  0  2  0  0  3  0  0  0  0  0  0
  161.6930  210.1310  150.6380 N   0  0  0  0  0  2  0  0  0  0  0  0
  161.3080  205.3260  149.9260 C   0  0  0  0  0  3  0  0  0  0  0  0
  162.2720  211.6340  148.6770 C   0  0  1  0  0  3  0  0  0  0  0  0
  163.7830  211.6380  148.4690 C   0  0  0  0  0  1  0  0  0  0  0  0
  161.5990  211.8910  147.4710 O   0  0  0  0  0  0  0  0  0  0  0  0
  162.1630  213.0650  146.9540 C   0  0  1  0  0  3  0  0  0  0  0  0
  162.8810  212.7420  145.6590 C   0  0  0  0  0  1  0  0  0  0  0  0
  161.0870  214.1190  146.6700 C   0  0  0  0  0  2  0  0  0  0  0  0
  159.7470  213.5710  146.4070 N   0  0  0  0  0  0  0  0  0  0  0  0
  156.9410  213.2080  146.2400 C   0  0  0  0  0  2  0  0  0  0  0  0
  159.0080  213.5940  147.6690 C   0  0  0  0  0  2  0  0  0  0  0  0
  159.0360  214.3040  145.3250 C   0  0  2  0  0  3  0  0  0  0  0  0
  157.5200  214.4520  145.5640 C   0  0  0  0  0  2  0  0  0  0  0  0
  157.6890  212.8400  147.5250 C   0  0  0  0  0  2  0  0  0  0  0  0
  159.4750  212.1650  144.0050 C   0  0  0  0  0  2  0  0  0  0  0  0
  159.3180  213.7030  143.9430 C   0  0  2  0  0  3  0  0  0  0  0  0
  162.9200  214.4490  142.0790 Cl  0  0  0  0  0  0  0  0  0  0  0  0
  161.3720  212.2840  142.4360 C   0  0  0  0  0  3  0  0  0  0  0  0
  161.7330  213.5890  143.0810 C   0  0  2  0  0  3  0  0  0  0  0  0
  160.2900  211.6200  142.8650 C   0  0  0  0  0  3  0  0  0  0  0  0
  160.4770  214.4520  143.2400 C   0  0  0  0  0  2  0  0  0  0  0  0
  161.8120  208.7070  152.5510 N   0  0  0  0  0  2  0  0  0  0  0  0
  160.7660  211.3420  154.8570 C   0  0  0  0  0  3  0  0  0  0  0  0
  159.9690  210.5680  155.8850 C   0  0  0  0  0  0  0  0  0  0  0  0
  160.2030  211.1640  157.2600 C   0  0  0  0  0  1  0  0  0  0  0  0
  160.8050  208.5150  154.7690 C   0  0  0  0  0  3  0  0  0  0  0  0
  161.1870  210.7420  153.7290 C   0  0  0  0  0  3  0  0  0  0  0  0
  160.8490  209.2940  153.4740 C   0  0  1  0  0  3  0  0  0  0  0  0
  158.4920  210.6640  155.5580 C   0  0  0  0  0  1  0  0  0  0  0  0
  160.3840  209.1140  155.8950 C   0  0  0  0  0  3  0  0  0  0  0  0
  1  8  1  0  0  0  0
  2 12  1  1  0  0  0
  2 13  1  0  0  0  0
  3 14  1  0  0  0  0
  4 15  1  0  0  0  0
  5  1  2  0  0  0  0
  5  9  1  0  0  0  0
  6  1  1  0  0  0  0
  7  4  1  0  0  0  0
  8  4  2  0  0  0  0
  9  7  2  0  0  0  0
 10 11  1  0  0  0  0
 10  3  2  0  0  0  0
 11  7  1  6  0  0  0
 11  2  1  0  0  0  0
 13 35  1  1  0  0  0
 14 13  1  0  0  0  0
 15 12  2  0  0  0  0
 16 17  1  6  0  0  0
 16  3  1  0  0  0  0
 18 16  1  0  0  0  0
 19 20  1  6  0  0  0
 19 18  1  0  0  0  0
 21 19  1  0  0  0  0
 22 21  1  0  0  0  0
 22 24  1  0  0  0  0
 23 27  1  0  0  0  0
 25 26  1  1  0  0  0
 25 22  1  0  0  0  0
 26 23  1  0  0  0  0
 27 24  1  0  0  0  0
 29 34  1  1  0  0  0
 29 28  1  0  0  0  0
 29 25  1  0  0  0  0
 31 33  2  0  0  0  0
 31 32  1  0  0  0  0
 32 30  1  6  0  0  0
 32 34  1  0  0  0  0
 33 28  1  0  0  0  0
 36 37  1  0  0  0  0
 37 43  1  0  0  0  0
 37 38  1  0  0  0  0
 39 43  2  0  0  0  0
 40 36  2  0  0  0  0
 41 35  1  6  0  0  0
 41 40  1  0  0  0  0
 41 39  1  0  0  0  0
 42 37  1  0  0  0  0
M  END
>  <MODEL>
6

>  <REMARK>
 VINA RESULT:      -6.7      2.004      2.833
  Name = 
  8 active torsions:
  status: ('A' for Active; 'I' for Inactive)
    1  A    between atoms: N_1  and  C_34
    2  A    between atoms: N_1  and  C_35
    3  A    between atoms: C_2  and  O_6
    4  A    between atoms: C_2  and  C_13
    5  A    between atoms: C_3  and  N_4
    6  A    between atoms: C_3  and  C_12
    7  A    between atoms: O_6  and  C_12
    8  A    between atoms: C_14  and  C_22
                            x       y       z     vdW  Elec       q    Type
                         _______ _______ _______ _____ _____    ______ ____

>  <TORSDO>
F 8

$$$$
=
 OpenBabel11062410003D

 43 48  0  0  1  0  0  0  0  0999 V2000
  159.7060  213.6350  144.9370 C   0  0  0  0  0  0  0  0  0  0  0  0
  160.3400  212.4200  149.7810 C   0  0  2  0  0  3  0  0  0  0  0  0
  161.8250  210.0370  149.7260 C   0  0  0  0  0  0  0  0  0  0  0  0
  159.9120  213.7450  147.2990 C   0  0  0  0  0  0  0  0  0  0  0  0
  160.4770  212.4720  144.9020 C   0  0  0  0  0  3  0  0  0  0  0  0
  159.1990  214.1890  143.7290 N   0  0  0  0  0  1  0  0  0  0  0  0
  160.6790  212.5650  147.3050 C   0  0  0  0  0  0  0  0  0  0  0  0
  159.4490  214.2510  146.1220 N   0  0  0  0  0  0  0  0  0  0  0  0
  160.9770  211.9420  146.0910 C   0  0  0  0  0  3  0  0  0  0  0  0
  161.6580  210.6880  148.6120 N   0  0  0  0  0  0  0  0  0  0  0  0
  161.2830  212.1070  148.6090 C   0  0  2  0  0  3  0  0  0  0  0  0
  159.8920  213.8580  149.7430 C   0  0  0  0  0  3  0  0  0  0  0  0
  161.0660  212.0470  151.0690 C   0  0  2  0  0  3  0  0  0  0  0  0
  161.4950  210.6520  150.9880 N   0  0  0  0  0  2  0  0  0  0  0  0
  159.6420  214.4530  148.5700 C   0  0  0  0  0  3  0  0  0  0  0  0
  162.2720  208.6140  149.6910 C   0  0  1  0  0  3  0  0  0  0  0  0
  162.4920  208.1200  151.1170 C   0  0  0  0  0  1  0  0  0  0  0  0
  161.3100  207.8300  149.0310 O   0  0  0  0  0  0  0  0  0  0  0  0
  161.5290  206.5120  149.4520 C   0  0  1  0  0  3  0  0  0  0  0  0
  160.2010  205.8830  149.8250 C   0  0  0  0  0  1  0  0  0  0  0  0
  162.1740  205.6750  148.3430 C   0  0  0  0  0  2  0  0  0  0  0  0
  161.2730  205.3310  147.2320 N   0  0  0  0  0  0  0  0  0  0  0  0
  160.2020  204.8010  144.6610 C   0  0  0  0  0  2  0  0  0  0  0  0
  161.3440  206.4190  146.2560 C   0  0  0  0  0  2  0  0  0  0  0  0
  161.5940  204.0110  146.6260 C   0  0  2  0  0  3  0  0  0  0  0  0
  161.4040  203.9620  145.0970 C   0  0  0  0  0  2  0  0  0  0  0  0
  160.2730  206.2400  145.1840 C   0  0  0  0  0  2  0  0  0  0  0  0
  161.3560  202.6100  148.7450 C   0  0  0  0  0  2  0  0  0  0  0  0
  160.8390  202.8650  147.3100 C   0  0  2  0  0  3  0  0  0  0  0  0
  161.3210  198.9980  145.9630 Cl  0  0  0  0  0  0  0  0  0  0  0  0
  161.2230  200.1780  148.3730 C   0  0  0  0  0  3  0  0  0  0  0  0
  161.6120  200.4440  146.9500 C   0  0  2  0  0  3  0  0  0  0  0  0
  161.0860  201.2080  149.2170 C   0  0  0  0  0  3  0  0  0  0  0  0
  160.7890  201.6140  146.3990 C   0  0  0  0  0  2  0  0  0  0  0  0
  160.1890  212.2260  152.2190 N   0  0  0  0  0  2  0  0  0  0  0  0
  159.2730  210.2450  155.1500 C   0  0  0  0  0  3  0  0  0  0  0  0
  160.5620  209.5150  155.4580 C   0  0  0  0  0  0  0  0  0  0  0  0
  160.7270  209.3930  156.9610 C   0  0  0  0  0  1  0  0  0  0  0  0
  161.6220  210.9790  153.7560 C   0  0  0  0  0  3  0  0  0  0  0  0
  159.1480  210.9600  154.0180 C   0  0  0  0  0  3  0  0  0  0  0  0
  160.2930  211.0240  153.0370 C   0  0  1  0  0  3  0  0  0  0  0  0
  160.5140  208.1240  154.8580 C   0  0  0  0  0  1  0  0  0  0  0  0
  161.7460  210.2640  154.8860 C   0  0  0  0  0  3  0  0  0  0  0  0
  1  8  1  0  0  0  0
  2 12  1  1  0  0  0
  2 13  1  0  0  0  0
  3 14  1  0  0  0  0
  4  7  1  0  0  0  0
  4 15  1  0  0  0  0
  5  1  2  0  0  0  0
  5  9  1  0  0  0  0
  6  1  1  0  0  0  0
  8  4  2  0  0  0  0
  9  7  2  0  0  0  0
 10  3  2  0  0  0  0
 11  7  1  6  0  0  0
 11 10  1  0  0  0  0
 11  2  1  0  0  0  0
 13 35  1  1  0  0  0
 14 13  1  0  0  0  0
 15 12  2  0  0  0  0
 16  3  1  0  0  0  0
 16 17  1  1  0  0  0
 18 19  1  0  0  0  0
 18 16  1  0  0  0  0
 19 20  1  6  0  0  0
 21 19  1  0  0  0  0
 22 21  1  0  0  0  0
 23 26  1  0  0  0  0
 23 27  1  0  0  0  0
 24 22  1  0  0  0  0
 25 26  1  6  0  0  0
 25 22  1  0  0  0  0
 25 29  1  0  0  0  0
 27 24  1  0  0  0  0
 28 33  1  0  0  0  0
 29 34  1  6  0  0  0
 29 28  1  0  0  0  0
 31 33  2  0  0  0  0
 32 30  1  6  0  0  0
 32 31  1  0  0  0  0
 34 32  1  0  0  0  0
 36 37  1  0  0  0  0
 37 38  1  0  0  0  0
 39 43  2  0  0  0  0
 40 36  2  0  0  0  0
 41 35  1  1  0  0  0
 41 39  1  0  0  0  0
 41 40  1  0  0  0  0
 42 37  1  0  0  0  0
 43 37  1  0  0  0  0
M  END
>  <MODEL>
7

>  <REMARK>
 VINA RESULT:      -6.4      3.362      8.164
  Name = 
  8 active torsions:
  status: ('A' for Active; 'I' for Inactive)
    1  A    between atoms: N_1  and  C_34
    2  A    between atoms: N_1  and  C_35
    3  A    between atoms: C_2  and  O_6
    4  A    between atoms: C_2  and  C_13
    5  A    between atoms: C_3  and  N_4
    6  A    between atoms: C_3  and  C_12
    7  A    between atoms: O_6  and  C_12
    8  A    between atoms: C_14  and  C_22
                            x       y       z     vdW  Elec       q    Type
                         _______ _______ _______ _____ _____    ______ ____

>  <TORSDO>
F 8

$$$$
=
 OpenBabel11062410003D

 43 48  0  0  1  0  0  0  0  0999 V2000
  161.6690  204.2300  146.3480 C   0  0  0  0  0  0  0  0  0  0  0  0
  161.3310  206.1910  150.9730 C   0  0  2  0  0  3  0  0  0  0  0  0
  161.5280  208.9650  150.5840 C   0  0  0  0  0  0  0  0  0  0  0  0
  161.1780  204.5570  148.6480 C   0  0  0  0  0  0  0  0  0  0  0  0
  161.7280  205.6100  146.1420 C   0  0  0  0  0  3  0  0  0  0  0  0
  161.8870  203.3390  145.2610 N   0  0  0  0  0  1  0  0  0  0  0  0
  161.2460  205.9530  148.4820 C   0  0  0  0  0  0  0  0  0  0  0  0
  161.3860  203.7330  147.5820 N   0  0  0  0  0  0  0  0  0  0  0  0
  161.5030  206.4750  147.2130 C   0  0  0  0  0  3  0  0  0  0  0  0
  161.4060  208.2000  149.5380 N   0  0  0  0  0  0  0  0  0  0  0  0
  160.8820  206.8340  149.6520 C   0  0  2  0  0  3  0  0  0  0  0  0
  160.8590  204.7630  151.0650 C   0  0  0  0  0  3  0  0  0  0  0  0
  160.8210  207.0700  152.1100 C   0  0  2  0  0  3  0  0  0  0  0  0
  161.2970  208.4380  151.9050 N   0  0  0  0  0  2  0  0  0  0  0  0
  160.8430  203.9890  149.9720 C   0  0  0  0  0  3  0  0  0  0  0  0
  162.0000  210.3710  150.4200 C   0  0  1  0  0  3  0  0  0  0  0  0
  163.2070  210.6040  151.3220 C   0  0  0  0  0  1  0  0  0  0  0  0
  162.3270  210.6090  149.0740 O   0  0  0  0  0  0  0  0  0  0  0  0
  161.4220  211.5770  148.6210 C   0  0  1  0  0  3  0  0  0  0  0  0
  161.2070  212.6060  149.7130 C   0  0  0  0  0  1  0  0  0  0  0  0
  161.9510  212.2900  147.3720 C   0  0  0  0  0  2  0  0  0  0  0  0
  160.9530  212.4860  146.3090 N   0  0  0  0  0  0  0  0  0  0  0  0
  158.8670  213.5210  144.6930 C   0  0  0  0  0  2  0  0  0  0  0  0
  159.6540  212.6680  146.9550 C   0  0  0  0  0  2  0  0  0  0  0  0
  161.2970  213.6190  145.4080 C   0  0  2  0  0  3  0  0  0  0  0  0
  160.0750  214.4290  144.9290 C   0  0  0  0  0  2  0  0  0  0  0  0
  158.5380  212.6570  145.9140 C   0  0  0  0  0  2  0  0  0  0  0  0
  163.0050  214.3310  143.6510 C   0  0  0  0  0  2  0  0  0  0  0  0
  162.1570  213.1690  144.2210 C   0  0  2  0  0  3  0  0  0  0  0  0
  160.3540  212.1350  140.6590 Cl  0  0  0  0  0  0  0  0  0  0  0  0
  162.5060  213.5830  141.3570 C   0  0  0  0  0  3  0  0  0  0  0  0
  161.1540  213.1720  141.8580 C   0  0  2  0  0  3  0  0  0  0  0  0
  163.3870  214.1160  142.2130 C   0  0  0  0  0  3  0  0  0  0  0  0
  161.3030  212.4070  143.1770 C   0  0  0  0  0  2  0  0  0  0  0  0
  161.2960  206.5710  153.3930 N   0  0  0  0  0  2  0  0  0  0  0  0
  160.9690  208.2000  156.6480 C   0  0  0  0  0  3  0  0  0  0  0  0
  160.6890  209.6360  156.2600 C   0  0  0  0  0  0  0  0  0  0  0  0
  159.7010  210.2410  157.2390 C   0  0  0  0  0  1  0  0  0  0  0  0
  160.4660  208.8050  153.9310 C   0  0  0  0  0  3  0  0  0  0  0  0
  161.3230  207.2980  155.7150 C   0  0  0  0  0  3  0  0  0  0  0  0
  161.4620  207.7200  154.2740 C   0  0  1  0  0  3  0  0  0  0  0  0
  161.9760  210.4340  156.3100 C   0  0  0  0  0  1  0  0  0  0  0  0
  160.1130  209.7050  154.8630 C   0  0  0  0  0  3  0  0  0  0  0  0
  1  8  1  0  0  0  0
  2 12  1  1  0  0  0
  2 13  1  0  0  0  0
  3 14  1  0  0  0  0
  4 15  1  0  0  0  0
  5  1  2  0  0  0  0
  5  9  1  0  0  0  0
  6  1  1  0  0  0  0
  7  4  1  0  0  0  0
  8  4  2  0  0  0  0
  9  7  2  0  0  0  0
 10 11  1  0  0  0  0
 10  3  2  0  0  0  0
 11  7  1  6  0  0  0
 11  2  1  0  0  0  0
 13 35  1  1  0  0  0
 14 13  1  0  0  0  0
 15 12  2  0  0  0  0
 16  3  1  0  0  0  0
 16 17  1  1  0  0  0
 18 16  1  0  0  0  0
 19 18  1  0  0  0  0
 19 20  1  1  0  0  0
 21 19  1  0  0  0  0
 22 24  1  0  0  0  0
 22 21  1  0  0  0  0
 23 26  1  0  0  0  0
 23 27  1  0  0  0  0
 25 26  1  6  0  0  0
 25 22  1  0  0  0  0
 27 24  1  0  0  0  0
 28 29  1  0  0  0  0
 29 34  1  6  0  0  0
 29 25  1  0  0  0  0
 31 32  1  0  0  0  0
 31 33  2  0  0  0  0
 32 30  1  6  0  0  0
 32 34  1  0  0  0  0
 33 28  1  0  0  0  0
 37 42  1  0  0  0  0
 37 36  1  0  0  0  0
 37 38  1  0  0  0  0
 39 41  1  0  0  0  0
 39 43  2  0  0  0  0
 40 36  2  0  0  0  0
 41 35  1  6  0  0  0
 41 40  1  0  0  0  0
 43 37  1  0  0  0  0
M  END
>  <MODEL>
8

>  <REMARK>
 VINA RESULT:      -6.3      1.983      2.891
  Name = 
  8 active torsions:
  status: ('A' for Active; 'I' for Inactive)
    1  A    between atoms: N_1  and  C_34
    2  A    between atoms: N_1  and  C_35
    3  A    between atoms: C_2  and  O_6
    4  A    between atoms: C_2  and  C_13
    5  A    between atoms: C_3  and  N_4
    6  A    between atoms: C_3  and  C_12
    7  A    between atoms: O_6  and  C_12
    8  A    between atoms: C_14  and  C_22
                            x       y       z     vdW  Elec       q    Type
                         _______ _______ _______ _____ _____    ______ ____

>  <TORSDO>
F 8

$$$$
=
 OpenBabel11062410003D

 43 48  0  0  1  0  0  0  0  0999 V2000
  161.2510  201.4380  147.8490 C   0  0  0  0  0  0  0  0  0  0  0  0
  161.2510  204.9910  151.4150 C   0  0  2  0  0  3  0  0  0  0  0  0
  161.6090  207.4000  150.0170 C   0  0  0  0  0  0  0  0  0  0  0  0
  160.8870  202.6290  149.8700 C   0  0  0  0  0  0  0  0  0  0  0  0
  161.3910  202.6340  147.1430 C   0  0  0  0  0  3  0  0  0  0  0  0
  161.3620  200.1940  147.1680 N   0  0  0  0  0  1  0  0  0  0  0  0
  161.0380  203.8560  149.1940 C   0  0  0  0  0  0  0  0  0  0  0  0
  160.9930  201.4570  149.1840 N   0  0  0  0  0  0  0  0  0  0  0  0
  161.2700  203.8490  147.8170 C   0  0  0  0  0  3  0  0  0  0  0  0
  161.3910  206.3140  149.3340 N   0  0  0  0  0  0  0  0  0  0  0  0
  160.7850  205.1320  149.9580 C   0  0  2  0  0  3  0  0  0  0  0  0
  160.6920  203.7390  152.0410 C   0  0  0  0  0  3  0  0  0  0  0  0
  160.8500  206.2650  152.1520 C   0  0  2  0  0  3  0  0  0  0  0  0
  161.4040  207.4190  151.4440 N   0  0  0  0  0  2  0  0  0  0  0  0
  160.5770  202.6200  151.3160 C   0  0  0  0  0  3  0  0  0  0  0  0
  162.1630  208.6050  149.3330 C   0  0  1  0  0  3  0  0  0  0  0  0
  162.3960  208.2850  147.8610 C   0  0  0  0  0  1  0  0  0  0  0  0
  161.2740  209.6840  149.4780 O   0  0  0  0  0  0  0  0  0  0  0  0
  161.9850  210.6840  150.1530 C   0  0  1  0  0  3  0  0  0  0  0  0
  162.4840  211.7040  149.1480 C   0  0  0  0  0  1  0  0  0  0  0  0
  161.0980  211.3990  151.1780 C   0  0  0  0  0  2  0  0  0  0  0  0
  160.4520  212.6240  150.6810 N   0  0  0  0  0  0  0  0  0  0  0  0
  158.7980  214.4520  149.2800 C   0  0  0  0  0  2  0  0  0  0  0  0
  160.5500  212.6100  149.2210 C   0  0  0  0  0  2  0  0  0  0  0  0
  159.0460  212.7560  151.1480 C   0  0  2  0  0  3  0  0  0  0  0  0
  158.0950  213.3700  150.1020 C   0  0  0  0  0  2  0  0  0  0  0  0
  160.1000  213.9510  148.6470 C   0  0  0  0  0  2  0  0  0  0  0  0
  159.5310  212.6750  153.6520 C   0  0  0  0  0  2  0  0  0  0  0  0
  158.9520  213.5060  152.4820 C   0  0  2  0  0  3  0  0  0  0  0  0
  155.2630  214.1860  154.1960 Cl  0  0  0  0  0  0  0  0  0  0  0  0
  157.6640  213.3830  155.0950 C   0  0  0  0  0  3  0  0  0  0  0  0
  156.7980  213.3550  153.8710 C   0  0  2  0  0  3  0  0  0  0  0  0
  158.9620  213.0770  154.9840 C   0  0  0  0  0  3  0  0  0  0  0  0
  157.5200  214.0500  152.7110 C   0  0  0  0  0  2  0  0  0  0  0  0
  161.3500  206.2420  153.5200 N   0  0  0  0  0  2  0  0  0  0  0  0
  161.1790  209.6200  154.9030 C   0  0  0  0  0  3  0  0  0  0  0  0
  160.3770  209.4070  156.1680 C   0  0  0  0  0  0  0  0  0  0  0  0
  160.9050  210.3180  157.2610 C   0  0  0  0  0  1  0  0  0  0  0  0
  160.6180  206.9750  155.7330 C   0  0  0  0  0  3  0  0  0  0  0  0
  161.3190  208.6250  154.0090 C   0  0  0  0  0  3  0  0  0  0  0  0
  160.6570  207.2920  154.2550 C   0  0  1  0  0  3  0  0  0  0  0  0
  158.9230  209.7480  155.9100 C   0  0  0  0  0  1  0  0  0  0  0  0
  160.4790  207.9690  156.6260 C   0  0  0  0  0  3  0  0  0  0  0  0
  1  8  1  0  0  0  0
  2 12  1  1  0  0  0
  2 13  1  0  0  0  0
  3 14  1  0  0  0  0
  4 15  1  0  0  0  0
  5  9  1  0  0  0  0
  5  1  2  0  0  0  0
  6  1  1  0  0  0  0
  7  4  1  0  0  0  0
  8  4  2  0  0  0  0
  9  7  2  0  0  0  0
 10 11  1  0  0  0  0
 10  3  2  0  0  0  0
 11  7  1  6  0  0  0
 11  2  1  0  0  0  0
 13 35  1  1  0  0  0
 14 13  1  0  0  0  0
 15 12  2  0  0  0  0
 16 17  1  6  0  0  0
 16 18  1  0  0  0  0
 16  3  1  0  0  0  0
 18 19  1  0  0  0  0
 19 20  1  6  0  0  0
 19 21  1  0  0  0  0
 22 25  1  0  0  0  0
 22 21  1  0  0  0  0
 23 26  1  0  0  0  0
 24 22  1  0  0  0  0
 25 26  1  6  0  0  0
 25 29  1  0  0  0  0
 27 24  1  0  0  0  0
 27 23  1  0  0  0  0
 28 33  1  0  0  0  0
 29 34  1  1  0  0  0
 29 28  1  0  0  0  0
 32 30  1  1  0  0  0
 32 31  1  0  0  0  0
 33 31  2  0  0  0  0
 34 32  1  0  0  0  0
 36 37  1  0  0  0  0
 37 43  1  0  0  0  0
 37 38  1  0  0  0  0
 39 43  2  0  0  0  0
 40 41  1  0  0  0  0
 40 36  2  0  0  0  0
 41 35  1  6  0  0  0
 41 39  1  0  0  0  0
 42 37  1  0  0  0  0
M  END
>  <MODEL>
9

>  <REMARK>
 VINA RESULT:      -5.9      3.427      5.548
  Name = 
  8 active torsions:
  status: ('A' for Active; 'I' for Inactive)
    1  A    between atoms: N_1  and  C_34
    2  A    between atoms: N_1  and  C_35
    3  A    between atoms: C_2  and  O_6
    4  A    between atoms: C_2  and  C_13
    5  A    between atoms: C_3  and  N_4
    6  A    between atoms: C_3  and  C_12
    7  A    between atoms: O_6  and  C_12
    8  A    between atoms: C_14  and  C_22
                            x       y       z     vdW  Elec       q    Type
                         _______ _______ _______ _____ _____    ______ ____

>  <TORSDO>
F 8

$$$$
