=
 OpenBabel11062409183D

 37 40  0  0  1  0  0  0  0  0999 V2000
  161.4750  211.1040  155.1880 C   0  0  0  0  0  2  0  0  0  0  0  0
  161.0530  208.9630  150.9820 C   0  0  1  0  0  3  0  0  0  0  0  0
  160.4110  210.8980  156.2730 C   0  0  1  0  0  3  0  0  0  0  0  0
  161.0320  206.6480  154.1060 C   0  0  0  0  0  2  0  0  0  0  0  0
  161.4020  208.5020  152.3780 C   0  0  2  0  0  3  0  0  0  0  0  0
  160.8640  210.4720  151.0790 C   0  0  1  0  0  3  0  0  0  0  0  0
  160.9540  207.0560  152.6300 C   0  0  1  0  0  3  0  0  0  0  0  0
  160.8190  209.9060  157.1920 O   0  0  0  0  0  0  0  0  0  0  0  0
  160.3200  210.6920  152.4870 C   0  0  2  0  0  3  0  0  0  0  0  0
  162.7980  207.4410  149.9210 C   0  0  0  0  0  3  0  0  0  0  0  0
  160.8520  208.6510  156.5400 C   0  0  2  0  0  3  0  0  0  0  0  0
  162.2270  207.2520  154.8500 C   0  0  0  0  0  2  0  0  0  0  0  0
  161.9990  208.5210  149.8900 C   0  0  0  0  0  3  0  0  0  0  0  0
  160.7340  209.4760  153.3350 C   0  0  2  0  0  3  0  0  0  0  0  0
  161.6950  206.0240  151.7630 C   0  0  2  0  0  3  0  0  0  0  0  0
  161.9280  208.6430  155.4410 C   0  0  1  0  0  3  0  0  0  0  0  0
  161.7590  209.7990  154.4330 C   0  0  2  0  0  3  0  0  0  0  0  0
  162.9900  206.5150  151.0940 C   0  0  0  0  0  2  0  0  0  0  0  0
  159.8530  205.9000  150.2000 O   0  0  0  0  0  1  0  0  0  0  0  0
  160.7750  205.1150  150.9090 C   0  0  2  0  0  0  0  0  0  0  0  0
  160.8120  203.1360  152.2750 O   0  0  0  0  0  1  0  0  0  0  0  0
  159.9930  204.1710  151.8190 C   0  0  0  0  0  2  0  0  0  0  0  0
  161.5430  204.3240  150.0190 O   0  0  0  0  0  0  0  0  0  0  0  0
  161.9100  204.9150  147.8520 F   0  0  0  0  0  0  0  0  0  0  0  0
  160.9840  204.3870  148.7310 C   0  0  0  0  0  2  0  0  0  0  0  0
  159.5850  208.3040  156.0460 O   0  0  0  0  0  0  0  0  0  0  0  0
  159.2850  207.0870  156.6600 C   0  0  0  0  0  1  0  0  0  0  0  0
  159.9590  213.2900  156.0970 N   0  0  0  0  0  1  0  0  0  0  0  0
  160.1830  212.1970  157.0270 C   0  0  0  0  0  2  0  0  0  0  0  0
  158.7960  210.9010  152.4530 C   0  0  2  0  0  3  0  0  0  0  0  0
  158.4590  212.2880  151.9490 C   0  0  0  0  0  1  0  0  0  0  0  0
  158.1020  210.6700  153.7960 C   0  0  0  0  0  2  0  0  0  0  0  0
  157.3070  211.8920  154.2300 C   0  0  0  0  0  2  0  0  0  0  0  0
  156.6630  211.6520  155.5810 C   0  0  0  0  0  1  0  0  0  0  0  0
  162.1810  211.2340  150.9310 C   0  0  0  0  0  2  0  0  0  0  0  0
  162.3210  211.7760  149.5220 C   0  0  0  0  0  2  0  0  0  0  0  0
  161.1320  212.6580  149.2020 C   0  0  0  0  0  1  0  0  0  0  0  0
  1  3  1  0  0  0  0
  2 13  1  6  0  0  0
  2  6  1  0  0  0  0
  2  5  1  0  0  0  0
  3 29  1  1  0  0  0
  3  8  1  0  0  0  0
  4 12  1  0  0  0  0
  5  7  1  0  0  0  0
  5 14  1  0  0  0  0
  6  9  1  0  0  0  0
  7  4  1  0  0  0  0
  9 14  1  0  0  0  0
 10 18  1  0  0  0  0
 11  8  1  0  0  0  0
 12 16  1  0  0  0  0
 13 10  2  0  0  0  0
 14 17  1  0  0  0  0
 15  7  1  0  0  0  0
 16 11  1  0  0  0  0
 17  1  1  0  0  0  0
 17 16  1  0  0  0  0
 18 15  1  0  0  0  0
 19 20  1  0  0  0  0
 20 15  1  0  0  0  0
 20 22  1  0  0  0  0
 22 21  1  0  0  0  0
 23 20  1  0  0  0  0
 24 25  1  0  0  0  0
 25 23  1  0  0  0  0
 26 11  1  0  0  0  0
 26 27  1  0  0  0  0
 28 29  1  0  0  0  0
 30  9  1  0  0  0  0
 30 32  1  0  0  0  0
 31 30  1  0  0  0  0
 32 33  1  0  0  0  0
 33 34  1  0  0  0  0
 35  6  1  0  0  0  0
 36 35  1  0  0  0  0
 37 36  1  0  0  0  0
M  END
>  <MODEL>
1

>  <REMARK>
 VINA RESULT:      -2.5      0.000      0.000
  Name = 
  11 active torsions:
  status: ('A' for Active; 'I' for Inactive)
    1  A    between atoms: C_3  and  C_32
    2  A    between atoms: C_5  and  C_23
    3  A    between atoms: C_8  and  O_18
    4  A    between atoms: C_8  and  C_19
    5  A    between atoms: C_8  and  C_31
    6  A    between atoms: C_9  and  C_13
    7  A    between atoms: C_9  and  C_16
    8  A    between atoms: O_11  and  C_26
    9  A    between atoms: O_18  and  C_35
   10  A    between atoms: C_20  and  C_21
   11  A    between atoms: C_21  and  C_32
                            x       y       z     vdW  Elec       q    Type
                         _______ _______ _______ _____ _____    ______ ____

>  <TORSDO>
F 11

$$$$
