=
 OpenBabel11052422363D

 31 35  0  0  1  0  0  0  0  0999 V2000
  161.1130  204.9020  145.2640 C   0  0  0  0  0  0  0  0  0  0  0  0
  161.0400  204.4320  149.0670 C   0  0  0  0  0  0  0  0  0  0  0  0
  161.2110  203.1050  149.3250 C   0  0  1  0  0  3  0  0  0  0  0  0
  161.2510  200.7770  148.5580 C   0  0  0  0  0  0  0  0  0  0  0  0
  161.0140  205.0360  147.6960 C   0  0  0  0  0  0  0  0  0  0  0  0
  161.0020  206.2900  145.1740 C   0  0  0  0  0  3  0  0  0  0  0  0
  161.3110  202.0780  148.2640 C   0  0  0  0  0  3  0  0  0  0  0  0
  160.7190  206.6840  150.0290 C   0  0  0  0  0  0  0  0  0  0  0  0
  161.2160  204.1570  144.1370 F   0  0  0  0  0  0  0  0  0  0  0  0
  160.8840  203.5080  151.8120 C   0  0  0  0  0  3  0  0  0  0  0  0
  161.3240  199.8630  147.5620 F   0  0  0  0  0  0  0  0  0  0  0  0
  160.7850  207.2240  148.7370 O   0  0  0  0  0  0  0  0  0  0  0  0
  160.8330  205.3570  150.2220 C   0  0  0  0  0  0  0  0  0  0  0  0
  161.1220  204.2820  146.5140 C   0  0  0  0  0  2  0  0  0  0  0  0
  161.0180  200.3270  149.9440 C   0  0  0  0  0  3  0  0  0  0  0  0
  160.9000  206.4360  147.5900 C   0  0  0  0  0  0  0  0  0  0  0  0
  160.8950  207.0550  146.3370 C   0  0  0  0  0  3  0  0  0  0  0  0
  160.6450  204.7930  151.5730 C   0  0  0  0  0  3  0  0  0  0  0  0
  161.4540  202.6230  150.7490 C   0  0  1  0  0  3  0  0  0  0  0  0
  161.0670  201.1870  150.9640 C   0  0  0  0  0  3  0  0  0  0  0  0
  162.6380  208.5290  151.1700 O   0  0  0  0  0  0  0  0  0  0  0  0
  161.4920  208.4580  151.6910 C   0  0  0  0  0  0  0  0  0  0  0  0
  160.5170  207.5550  151.1510 N   0  0  0  0  0  2  0  0  0  0  0  0
  160.4580  211.0210  154.9870 C   0  0  0  0  0  0  0  0  0  0  0  0
  160.9550  210.6780  152.6480 C   0  0  0  0  0  3  0  0  0  0  0  0
  161.1370  207.3470  154.5120 C   0  0  0  0  0  1  0  0  0  0  0  0
  160.1240  211.8680  156.0340 O   0  0  0  0  0  1  0  0  0  0  0  0
  160.6200  211.5320  153.7000 C   0  0  0  0  0  3  0  0  0  0  0  0
  160.9700  208.7910  154.1750 C   0  0  0  0  0  0  0  0  0  0  0  0
  161.1360  209.3010  152.8600 C   0  0  0  0  0  0  0  0  0  0  0  0
  160.6330  209.6560  155.2200 C   0  0  0  0  0  3  0  0  0  0  0  0
  1 14  1  0  0  0  0
  2  3  1  0  0  0  0
  2 13  1  0  0  0  0
  3  7  1  6  0  0  0
  3 19  1  0  0  0  0
  4 15  1  0  0  0  0
  5  2  2  0  0  0  0
  6  1  2  0  0  0  0
  6 17  1  0  0  0  0
  7  4  2  0  0  0  0
  8 13  2  0  0  0  0
  8 23  1  0  0  0  0
  9  1  1  0  0  0  0
 11  4  1  0  0  0  0
 12  8  1  0  0  0  0
 13 18  1  0  0  0  0
 14  5  1  0  0  0  0
 15 20  2  0  0  0  0
 16  5  1  0  0  0  0
 16 12  1  0  0  0  0
 17 16  2  0  0  0  0
 18 10  2  0  0  0  0
 19 20  1  6  0  0  0
 19 10  1  0  0  0  0
 21 22  2  0  0  0  0
 22 30  1  0  0  0  0
 23 22  1  0  0  0  0
 24 31  1  0  0  0  0
 24 27  1  0  0  0  0
 25 30  2  0  0  0  0
 25 28  1  0  0  0  0
 28 24  2  0  0  0  0
 29 26  1  0  0  0  0
 29 31  2  0  0  0  0
 30 29  1  0  0  0  0
M  END
>  <MODEL>
1

>  <REMARK>
 VINA RESULT:      -9.9      0.000      0.000
  Name = 
  2 active torsions:
  status: ('A' for Active; 'I' for Inactive)
    1  A    between atoms: C_9  and  C_22
    2  A    between atoms: C_15  and  N_23
                            x       y       z     vdW  Elec       q    Type
                         _______ _______ _______ _____ _____    ______ ____

>  <TORSDO>
F 2

$$$$
=
 OpenBabel11052422363D

 31 35  0  0  1  0  0  0  0  0999 V2000
  161.1050  207.5520  154.6390 C   0  0  0  0  0  0  0  0  0  0  0  0
  161.2180  207.0530  150.8400 C   0  0  0  0  0  0  0  0  0  0  0  0
  161.0130  205.7300  150.5880 C   0  0  1  0  0  3  0  0  0  0  0  0
  160.8970  203.4090  151.3690 C   0  0  0  0  0  0  0  0  0  0  0  0
  161.2420  207.6660  152.2070 C   0  0  0  0  0  0  0  0  0  0  0  0
  161.2530  208.9360  154.7210 C   0  0  0  0  0  3  0  0  0  0  0  0
  160.8690  204.7140  151.6540 C   0  0  0  0  0  3  0  0  0  0  0  0
  161.6160  209.2890  149.8680 C   0  0  0  0  0  0  0  0  0  0  0  0
  160.9640  206.8170  155.7680 F   0  0  0  0  0  0  0  0  0  0  0  0
  161.3870  206.1070  148.1030 C   0  0  0  0  0  3  0  0  0  0  0  0
  160.7840  202.5040  152.3700 F   0  0  0  0  0  0  0  0  0  0  0  0
  161.5470  209.8390  151.1550 O   0  0  0  0  0  0  0  0  0  0  0  0
  161.4670  207.9650  149.6820 C   0  0  0  0  0  0  0  0  0  0  0  0
  161.0960  206.9240  153.3920 C   0  0  0  0  0  3  0  0  0  0  0  0
  161.1370  202.9430  149.9900 C   0  0  0  0  0  3  0  0  0  0  0  0
  161.3930  209.0620  152.3060 C   0  0  2  0  0  3  0  0  0  0  0  0
  161.3980  209.6900  153.5550 C   0  0  0  0  0  3  0  0  0  0  0  0
  161.6590  207.3860  148.3370 C   0  0  0  0  0  3  0  0  0  0  0  0
  160.7770  205.2450  149.1640 C   0  0  1  0  0  3  0  0  0  0  0  0
  161.1260  203.7970  148.9630 C   0  0  0  0  0  3  0  0  0  0  0  0
  161.0350  212.1200  149.6790 O   0  0  0  0  0  0  0  0  0  0  0  0
  161.5580  211.5480  148.6850 C   0  0  0  0  0  0  0  0  0  0  0  0
  161.8580  210.1460  148.7430 N   0  0  0  0  0  2  0  0  0  0  0  0
  162.6030  213.7440  145.1370 C   0  0  0  0  0  0  0  0  0  0  0  0
  163.2130  212.6160  147.1840 C   0  0  0  0  0  3  0  0  0  0  0  0
  159.4260  212.4640  146.7010 C   0  0  0  0  0  1  0  0  0  0  0  0
  162.9650  214.4510  143.9990 O   0  0  0  0  0  1  0  0  0  0  0  0
  163.5800  213.3280  146.0410 C   0  0  0  0  0  3  0  0  0  0  0  0
  160.8810  212.7370  146.5210 C   0  0  0  0  0  0  0  0  0  0  0  0
  161.8680  212.3080  147.4470 C   0  0  0  0  0  0  0  0  0  0  0  0
  161.2610  213.4490  145.3780 C   0  0  0  0  0  3  0  0  0  0  0  0
  1  6  1  0  0  0  0
  1  9  1  0  0  0  0
  2  5  2  0  0  0  0
  3  2  1  0  0  0  0
  3  7  1  1  0  0  0
  4  7  2  0  0  0  0
  4 11  1  0  0  0  0
  5 16  1  0  0  0  0
  5 14  1  0  0  0  0
  8 12  1  0  0  0  0
 10 18  2  0  0  0  0
 12 16  1  0  0  0  0
 13  8  2  0  0  0  0
 13  2  1  0  0  0  0
 14  1  2  0  0  0  0
 15  4  1  0  0  0  0
 16 17  1  1  0  0  0
 17  6  2  0  0  0  0
 18 13  1  0  0  0  0
 19 10  1  6  0  0  0
 19  3  1  0  0  0  0
 20 19  1  0  0  0  0
 20 15  2  0  0  0  0
 22 23  1  0  0  0  0
 22 21  2  0  0  0  0
 23  8  1  0  0  0  0
 24 31  2  0  0  0  0
 24 28  1  0  0  0  0
 25 30  1  0  0  0  0
 27 24  1  0  0  0  0
 28 25  2  0  0  0  0
 29 26  1  0  0  0  0
 29 30  2  0  0  0  0
 30 22  1  0  0  0  0
 31 29  1  0  0  0  0
M  END
>  <MODEL>
2

>  <REMARK>
 VINA RESULT:      -9.6      4.258      6.784
  Name = 
  2 active torsions:
  status: ('A' for Active; 'I' for Inactive)
    1  A    between atoms: C_9  and  C_22
    2  A    between atoms: C_15  and  N_23
                            x       y       z     vdW  Elec       q    Type
                         _______ _______ _______ _____ _____    ______ ____

>  <TORSDO>
F 2

$$$$
=
 OpenBabel11052422363D

 31 35  0  0  1  0  0  0  0  0999 V2000
  161.1610  201.2950  149.9030 C   0  0  0  0  0  0  0  0  0  0  0  0
  161.1980  205.0840  149.3290 C   0  0  0  0  0  0  0  0  0  0  0  0
  161.1590  205.3020  147.9850 C   0  0  1  0  0  3  0  0  0  0  0  0
  161.3770  204.4710  145.6890 C   0  0  0  0  0  0  0  0  0  0  0  0
  161.1920  203.7320  149.9740 C   0  0  0  0  0  0  0  0  0  0  0  0
  161.1300  201.2470  151.2970 C   0  0  0  0  0  3  0  0  0  0  0  0
  161.1890  204.2110  146.9850 C   0  0  0  0  0  3  0  0  0  0  0  0
  161.2620  206.1160  151.5730 C   0  0  0  0  0  0  0  0  0  0  0  0
  161.1600  200.1470  149.1850 F   0  0  0  0  0  0  0  0  0  0  0  0
  161.3870  207.8070  148.3450 C   0  0  0  0  0  3  0  0  0  0  0  0
  161.4210  203.4480  144.8020 F   0  0  0  0  0  0  0  0  0  0  0  0
  161.1700  204.8380  152.1410 O   0  0  0  0  0  0  0  0  0  0  0  0
  161.2810  206.2700  150.2360 C   0  0  0  0  0  0  0  0  0  0  0  0
  161.1880  202.5280  149.2480 C   0  0  0  0  0  2  0  0  0  0  0  0
  161.6250  205.8490  145.2240 C   0  0  0  0  0  3  0  0  0  0  0  0
  161.1620  203.6670  151.3800 C   0  0  0  0  0  0  0  0  0  0  0  0
  161.1310  202.4320  152.0340 C   0  0  0  0  0  3  0  0  0  0  0  0
  161.4970  207.6090  149.6540 C   0  0  0  0  0  3  0  0  0  0  0  0
  160.9350  206.7060  147.4380 C   0  0  1  0  0  3  0  0  0  0  0  0
  161.4640  206.8910  146.0430 C   0  0  0  0  0  3  0  0  0  0  0  0
  160.4290  206.2980  154.3410 O   0  0  0  0  0  0  0  0  0  0  0  0
  160.9250  207.3210  153.7960 C   0  0  0  0  0  0  0  0  0  0  0  0
  161.3480  207.2660  152.4260 N   0  0  0  0  0  2  0  0  0  0  0  0
  161.4180  210.9100  156.1140 C   0  0  0  0  0  0  0  0  0  0  0  0
  161.5550  208.5100  155.8750 C   0  0  0  0  0  3  0  0  0  0  0  0
  160.2560  210.0630  152.6340 C   0  0  0  0  0  1  0  0  0  0  0  0
  161.5860  212.0540  156.8820 O   0  0  0  0  0  1  0  0  0  0  0  0
  161.7240  209.6590  156.6490 C   0  0  0  0  0  3  0  0  0  0  0  0
  160.7680  209.8660  154.0210 C   0  0  0  0  0  0  0  0  0  0  0  0
  161.0780  208.5870  154.5550 C   0  0  0  0  0  0  0  0  0  0  0  0
  160.9430  211.0100  154.8070 C   0  0  0  0  0  3  0  0  0  0  0  0
  1  6  2  0  0  0  0
  2  5  2  0  0  0  0
  2 13  1  0  0  0  0
  3  7  1  1  0  0  0
  3  2  1  0  0  0  0
  4  7  2  0  0  0  0
  5 16  1  0  0  0  0
  6 17  1  0  0  0  0
  8 12  1  0  0  0  0
  8 23  1  0  0  0  0
  9  1  1  0  0  0  0
 10 18  2  0  0  0  0
 11  4  1  0  0  0  0
 13  8  2  0  0  0  0
 14  1  1  0  0  0  0
 14  5  1  0  0  0  0
 15  4  1  0  0  0  0
 15 20  2  0  0  0  0
 16 17  2  0  0  0  0
 16 12  1  0  0  0  0
 18 13  1  0  0  0  0
 19 20  1  6  0  0  0
 19  3  1  0  0  0  0
 19 10  1  0  0  0  0
 22 21  2  0  0  0  0
 22 30  1  0  0  0  0
 23 22  1  0  0  0  0
 24 28  1  0  0  0  0
 24 27  1  0  0  0  0
 25 28  2  0  0  0  0
 26 29  1  0  0  0  0
 29 30  2  0  0  0  0
 29 31  1  0  0  0  0
 30 25  1  0  0  0  0
 31 24  2  0  0  0  0
M  END
>  <MODEL>
3

>  <REMARK>
 VINA RESULT:      -9.2      1.503      4.293
  Name = 
  2 active torsions:
  status: ('A' for Active; 'I' for Inactive)
    1  A    between atoms: C_9  and  C_22
    2  A    between atoms: C_15  and  N_23
                            x       y       z     vdW  Elec       q    Type
                         _______ _______ _______ _____ _____    ______ ____

>  <TORSDO>
F 2

$$$$
=
 OpenBabel11052422363D

 31 35  0  0  1  0  0  0  0  0999 V2000
  161.8330  211.7280  149.7980 C   0  0  0  0  0  0  0  0  0  0  0  0
  161.4010  208.3830  151.6180 C   0  0  0  0  0  0  0  0  0  0  0  0
  161.2320  208.6490  152.9440 C   0  0  1  0  0  3  0  0  0  0  0  0
  161.3600  210.2060  154.8330 C   0  0  0  0  0  0  0  0  0  0  0  0
  161.5960  209.4230  150.5580 C   0  0  0  0  0  0  0  0  0  0  0  0
  161.9170  211.2920  148.4760 C   0  0  0  0  0  3  0  0  0  0  0  0
  161.3060  210.0130  153.5130 C   0  0  0  0  0  3  0  0  0  0  0  0
  161.5260  206.6350  149.8770 C   0  0  0  0  0  0  0  0  0  0  0  0
  161.9040  213.0510  150.0810 F   0  0  0  0  0  0  0  0  0  0  0  0
  161.2070  206.1650  153.4790 C   0  0  0  0  0  3  0  0  0  0  0  0
  161.4490  211.4660  155.3210 F   0  0  0  0  0  0  0  0  0  0  0  0
  161.6220  207.6390  148.9040 O   0  0  0  0  0  0  0  0  0  0  0  0
  161.4220  206.9530  151.1810 C   0  0  0  0  0  0  0  0  0  0  0  0
  161.6710  210.8010  150.8290 C   0  0  0  0  0  3  0  0  0  0  0  0
  161.4150  209.0600  155.7610 C   0  0  0  0  0  3  0  0  0  0  0  0
  161.6850  208.9980  149.2190 C   0  0  2  0  0  3  0  0  0  0  0  0
  161.8440  209.9280  148.1880 C   0  0  0  0  0  3  0  0  0  0  0  0
  161.4410  205.8870  152.2010 C   0  0  0  0  0  3  0  0  0  0  0  0
  160.8110  207.5440  153.9040 C   0  0  1  0  0  3  0  0  0  0  0  0
  161.2040  207.8140  155.3290 C   0  0  0  0  0  3  0  0  0  0  0  0
  160.4710  205.5140  147.4240 O   0  0  0  0  0  0  0  0  0  0  0  0
  161.0170  204.7350  148.2530 C   0  0  0  0  0  0  0  0  0  0  0  0
  161.5500  205.2570  149.4780 N   0  0  0  0  0  2  0  0  0  0  0  0
  161.3170  200.5510  147.3060 C   0  0  0  0  0  0  0  0  0  0  0  0
  161.2700  202.8720  146.6410 C   0  0  0  0  0  3  0  0  0  0  0  0
  160.9010  202.6040  150.4350 C   0  0  0  0  0  1  0  0  0  0  0  0
  161.4170  199.2060  146.9750 O   0  0  0  0  0  1  0  0  0  0  0  0
  161.3700  201.5210  146.3060 C   0  0  0  0  0  3  0  0  0  0  0  0
  161.0630  202.2830  148.9860 C   0  0  0  0  0  0  0  0  0  0  0  0
  161.1160  203.2800  147.9760 C   0  0  0  0  0  0  0  0  0  0  0  0
  161.1640  200.9320  148.6380 C   0  0  0  0  0  3  0  0  0  0  0  0
  1  9  1  0  0  0  0
  1 14  2  0  0  0  0
  2  3  1  0  0  0  0
  3  7  1  6  0  0  0
  3 19  1  0  0  0  0
  4 11  1  0  0  0  0
  4 15  1  0  0  0  0
  5 14  1  0  0  0  0
  5  2  2  0  0  0  0
  6  1  1  0  0  0  0
  7  4  2  0  0  0  0
  8 13  2  0  0  0  0
 12 16  1  0  0  0  0
 12  8  1  0  0  0  0
 13  2  1  0  0  0  0
 13 18  1  0  0  0  0
 16 17  1  1  0  0  0
 16  5  1  0  0  0  0
 17  6  2  0  0  0  0
 18 10  2  0  0  0  0
 19 10  1  6  0  0  0
 19 20  1  0  0  0  0
 20 15  2  0  0  0  0
 21 22  2  0  0  0  0
 22 23  1  0  0  0  0
 23  8  1  0  0  0  0
 24 31  1  0  0  0  0
 25 30  2  0  0  0  0
 27 24  1  0  0  0  0
 28 25  1  0  0  0  0
 28 24  2  0  0  0  0
 29 26  1  0  0  0  0
 30 22  1  0  0  0  0
 30 29  1  0  0  0  0
 31 29  2  0  0  0  0
M  END
>  <MODEL>
4

>  <REMARK>
 VINA RESULT:      -8.0      3.822      8.138
  Name = 
  2 active torsions:
  status: ('A' for Active; 'I' for Inactive)
    1  A    between atoms: C_9  and  C_22
    2  A    between atoms: C_15  and  N_23
                            x       y       z     vdW  Elec       q    Type
                         _______ _______ _______ _____ _____    ______ ____

>  <TORSDO>
F 2

$$$$
=
 OpenBabel11052422363D

 31 35  0  0  1  0  0  0  0  0999 V2000
  160.6160  209.7200  154.8320 C   0  0  0  0  0  0  0  0  0  0  0  0
  161.3650  208.9870  151.1450 C   0  0  0  0  0  0  0  0  0  0  0  0
  161.4800  210.1810  150.4980 C   0  0  1  0  0  3  0  0  0  0  0  0
  161.1520  212.6100  150.4440 C   0  0  0  0  0  0  0  0  0  0  0  0
  161.0800  208.8340  152.6080 C   0  0  0  0  0  0  0  0  0  0  0  0
  160.6030  208.4260  155.3530 C   0  0  0  0  0  3  0  0  0  0  0  0
  161.2510  211.4860  151.1580 C   0  0  0  0  0  3  0  0  0  0  0  0
  161.4580  206.5270  150.9410 C   0  0  0  0  0  0  0  0  0  0  0  0
  160.4000  210.7810  155.6450 F   0  0  0  0  0  0  0  0  0  0  0  0
  161.7570  208.9910  148.2710 C   0  0  0  0  0  3  0  0  0  0  0  0
  160.9210  213.7850  151.0760 F   0  0  0  0  0  0  0  0  0  0  0  0
  161.2750  206.4250  152.3270 O   0  0  0  0  0  0  0  0  0  0  0  0
  161.5030  207.7320  150.3440 C   0  0  0  0  0  0  0  0  0  0  0  0
  160.8560  209.9210  153.4710 C   0  0  0  0  0  3  0  0  0  0  0  0
  161.2010  212.5730  148.9700 C   0  0  0  0  0  3  0  0  0  0  0  0
  161.0620  207.5340  153.1480 C   0  0  2  0  0  3  0  0  0  0  0  0
  160.8250  207.3350  154.5120 C   0  0  0  0  0  3  0  0  0  0  0  0
  161.5780  207.8210  148.8730 C   0  0  0  0  0  3  0  0  0  0  0  0
  161.9970  210.2350  149.0670 C   0  0  1  0  0  3  0  0  0  0  0  0
  161.5510  211.4600  148.3200 C   0  0  0  0  0  3  0  0  0  0  0  0
  159.6890  204.2340  150.9490 O   0  0  0  0  0  0  0  0  0  0  0  0
  160.6910  204.2150  150.1830 C   0  0  0  0  0  0  0  0  0  0  0  0
  161.5880  205.3340  150.1540 N   0  0  0  0  0  2  0  0  0  0  0  0
  161.4330  200.7390  147.7610 C   0  0  0  0  0  0  0  0  0  0  0  0
  160.8630  201.7640  149.8730 C   0  0  0  0  0  3  0  0  0  0  0  0
  161.4230  204.4670  147.2310 C   0  0  0  0  0  1  0  0  0  0  0  0
  161.6680  199.6020  147.0000 O   0  0  0  0  0  1  0  0  0  0  0  0
  161.1000  200.6200  149.1100 C   0  0  0  0  0  3  0  0  0  0  0  0
  161.2970  203.1570  147.9330 C   0  0  0  0  0  0  0  0  0  0  0  0
  160.9560  203.0470  149.3070 C   0  0  0  0  0  0  0  0  0  0  0  0
  161.5310  202.0030  147.1780 C   0  0  0  0  0  3  0  0  0  0  0  0
  1  6  1  0  0  0  0
  1  9  1  0  0  0  0
  2  5  2  0  0  0  0
  3  2  1  0  0  0  0
  3  7  1  1  0  0  0
  4 11  1  0  0  0  0
  4  7  2  0  0  0  0
  5 16  1  0  0  0  0
  5 14  1  0  0  0  0
  8 12  1  0  0  0  0
 10 18  2  0  0  0  0
 12 16  1  0  0  0  0
 13  8  2  0  0  0  0
 13  2  1  0  0  0  0
 14  1  2  0  0  0  0
 15  4  1  0  0  0  0
 16 17  1  6  0  0  0
 17  6  2  0  0  0  0
 18 13  1  0  0  0  0
 19 10  1  6  0  0  0
 19  3  1  0  0  0  0
 20 15  2  0  0  0  0
 20 19  1  0  0  0  0
 22 21  2  0  0  0  0
 23 22  1  0  0  0  0
 23  8  1  0  0  0  0
 24 28  1  0  0  0  0
 26 29  1  0  0  0  0
 27 24  1  0  0  0  0
 28 25  2  0  0  0  0
 29 30  2  0  0  0  0
 30 25  1  0  0  0  0
 30 22  1  0  0  0  0
 31 24  2  0  0  0  0
 31 29  1  0  0  0  0
M  END
>  <MODEL>
5

>  <REMARK>
 VINA RESULT:      -7.8      4.014      9.039
  Name = 
  2 active torsions:
  status: ('A' for Active; 'I' for Inactive)
    1  A    between atoms: C_9  and  C_22
    2  A    between atoms: C_15  and  N_23
                            x       y       z     vdW  Elec       q    Type
                         _______ _______ _______ _____ _____    ______ ____

>  <TORSDO>
F 2

$$$$
