=
 OpenBabel11062410453D

 32 34  0  0  1  0  0  0  0  0999 V2000
  161.2490  207.6710  150.1850 C   0  0  0  0  0  0  0  0  0  0  0  0
  161.4870  202.8460  149.8060 C   0  0  0  0  0  2  0  0  0  0  0  0
  161.5270  202.7320  151.3440 C   0  0  0  0  0  2  0  0  0  0  0  0
  161.6120  208.7290  152.4910 C   0  0  0  0  0  0  0  0  0  0  0  0
  161.2110  208.7100  153.9500 C   0  0  2  0  0  3  0  0  0  0  0  0
  160.6100  203.9890  149.2830 C   0  0  0  0  0  2  0  0  0  0  0  0
  161.0170  206.4950  149.4130 C   0  0  0  0  0  0  0  0  0  0  0  0
  160.9320  205.1620  151.4490 C   0  0  0  0  0  0  0  0  0  0  0  0
  161.1530  206.3070  152.2210 C   0  0  0  0  0  0  0  0  0  0  0  0
  160.7290  203.8140  152.0830 C   0  0  0  0  0  2  0  0  0  0  0  0
  160.8700  205.2530  150.0560 C   0  0  0  0  0  0  0  0  0  0  0  0
  161.2610  206.1970  153.7150 C   0  0  0  0  0  2  0  0  0  0  0  0
  162.2490  209.7280  152.0590 O   0  0  0  0  0  0  0  0  0  0  0  0
  161.3400  207.5600  151.6010 C   0  0  0  0  0  0  0  0  0  0  0  0
  160.5690  207.3790  154.3780 C   0  0  1  0  0  3  0  0  0  0  0  0
  162.3470  209.4660  148.8090 C   0  0  0  0  0  3  0  0  0  0  0  0
  161.3590  209.0270  149.5780 C   0  0  0  0  0  3  0  0  0  0  0  0
  161.7280  211.7790  149.3160 C   0  0  0  0  0  1  0  0  0  0  0  0
  162.3180  210.8510  148.2750 C   0  0  0  0  0  2  0  0  0  0  0  0
  159.6350  207.2530  156.5460 O   0  0  0  0  0  0  0  0  0  0  0  0
  160.6450  207.2030  155.8610 C   0  0  0  0  0  3  0  0  0  0  0  0
  160.9140  210.8980  155.1190 C   0  0  0  0  0  1  0  0  0  0  0  0
  160.2480  209.8550  154.2430 C   0  0  0  0  0  2  0  0  0  0  0  0
  160.9800  206.5230  147.9130 C   0  0  0  0  0  2  0  0  0  0  0  0
  162.3360  206.5160  147.3920 N   0  0  0  0  0  2  0  0  0  0  0  0
  162.3360  205.6220  146.2470 C   0  0  0  0  0  2  0  0  0  0  0  0
  160.9830  205.6610  145.5570 C   0  0  0  0  0  2  0  0  0  0  0  0
  160.6920  204.3770  144.9370 N   0  0  0  0  0  2  0  0  0  0  0  0
  161.4860  203.3720  145.6230 C   0  0  0  0  0  2  0  0  0  0  0  0
  160.7160  202.1040  145.7140 C   0  0  0  0  0  0  0  0  0  0  0  0
  159.7800  201.7880  144.7390 O   0  0  0  0  0  0  0  0  0  0  0  0
  160.8830  201.3350  146.6960 O   0  0  0  0  0  1  0  0  0  0  0  0
  1 14  1  0  0  0  0
  2  3  1  0  0  0  0
  3 10  1  0  0  0  0
  4  5  1  0  0  0  0
  5 23  1  6  0  0  0
  5 15  1  0  0  0  0
  6  2  1  0  0  0  0
  6 11  1  0  0  0  0
  7 11  1  0  0  0  0
  7  1  2  0  0  0  0
  8 10  1  0  0  0  0
  8  9  1  0  0  0  0
  9 12  1  0  0  0  0
 11  8  2  0  0  0  0
 12 15  1  0  0  0  0
 13  4  2  0  0  0  0
 14  9  2  0  0  0  0
 14  4  1  0  0  0  0
 15 21  1  1  0  0  0
 16 17  2  0  0  0  0
 17  1  1  0  0  0  0
 19 16  1  0  0  0  0
 19 18  1  0  0  0  0
 21 20  2  0  0  0  0
 23 22  1  0  0  0  0
 24  7  1  0  0  0  0
 25 24  1  0  0  0  0
 26 25  1  0  0  0  0
 27 26  1  0  0  0  0
 28 27  1  0  0  0  0
 28 29  1  0  0  0  0
 29 30  1  0  0  0  0
 30 32  1  0  0  0  0
 31 30  2  0  0  0  0
M  END
>  <MODEL>
1

>  <REMARK>
 VINA RESULT:      -8.3      0.000      0.000
  Name = 
  11 active torsions:
  status: ('A' for Active; 'I' for Inactive)
    1  A    between atoms: C_1  and  C_24
    2  A    between atoms: C_2  and  N_10
    3  A    between atoms: C_2  and  C_12
    4  A    between atoms: C_3  and  C_28
    5  A    between atoms: C_7  and  C_22
    6  A    between atoms: C_8  and  C_23
    7  A    between atoms: C_9  and  C_14
    8  A    between atoms: C_9  and  N_21
    9  A    between atoms: N_10  and  C_24
   10  A    between atoms: C_12  and  N_21
   11  A    between atoms: C_30  and  C_32
                            x       y       z     vdW  Elec       q    Type
                         _______ _______ _______ _____ _____    ______ ____

>  <TORSDO>
F 11

$$$$
=
 OpenBabel11062410453D

 32 34  0  0  1  0  0  0  0  0999 V2000
  161.5730  207.4640  149.3780 C   0  0  0  0  0  0  0  0  0  0  0  0
  160.9660  205.1760  153.6060 C   0  0  0  0  0  2  0  0  0  0  0  0
  160.6990  203.8590  152.8490 C   0  0  0  0  0  2  0  0  0  0  0  0
  160.9830  206.2110  147.2210 C   0  0  0  0  0  0  0  0  0  0  0  0
  161.1710  204.9360  146.4270 C   0  0  2  0  0  3  0  0  0  0  0  0
  162.0050  206.0850  152.9410 C   0  0  0  0  0  2  0  0  0  0  0  0
  161.8070  207.4160  150.7840 C   0  0  0  0  0  0  0  0  0  0  0  0
  161.4850  205.0020  150.7660 C   0  0  0  0  0  0  0  0  0  0  0  0
  161.2600  205.0320  149.3850 C   0  0  0  0  0  0  0  0  0  0  0  0
  161.4770  203.7110  151.5360 C   0  0  0  0  0  2  0  0  0  0  0  0
  161.7510  206.1850  151.4600 C   0  0  0  0  0  0  0  0  0  0  0  0
  160.9330  203.7640  148.6500 C   0  0  0  0  0  2  0  0  0  0  0  0
  160.5040  207.2180  146.6320 O   0  0  0  0  0  0  0  0  0  0  0  0
  161.2730  206.2570  148.6860 C   0  0  0  0  0  0  0  0  0  0  0  0
  161.6260  203.7510  147.2960 C   0  0  1  0  0  3  0  0  0  0  0  0
  162.0500  209.9100  149.0400 C   0  0  0  0  0  3  0  0  0  0  0  0
  161.6700  208.7230  148.5860 C   0  0  0  0  0  3  0  0  0  0  0  0
  161.6680  212.3210  148.8750 C   0  0  0  0  0  1  0  0  0  0  0  0
  162.0970  211.0780  148.1250 C   0  0  0  0  0  2  0  0  0  0  0  0
  161.0430  201.4600  147.2760 O   0  0  0  0  0  0  0  0  0  0  0  0
  161.3260  202.4500  146.6210 C   0  0  0  0  0  3  0  0  0  0  0  0
  161.4670  205.4070  143.9910 C   0  0  0  0  0  1  0  0  0  0  0  0
  162.1800  205.1620  145.3070 C   0  0  0  0  0  2  0  0  0  0  0  0
  162.0570  208.6560  151.5910 C   0  0  0  0  0  2  0  0  0  0  0  0
  160.8000  209.1570  152.1180 N   0  0  0  0  0  2  0  0  0  0  0  0
  161.0430  210.5240  152.5450 C   0  0  0  0  0  2  0  0  0  0  0  0
  160.1780  210.8530  153.7500 C   0  0  0  0  0  2  0  0  0  0  0  0
  160.8160  210.3900  154.9740 N   0  0  0  0  0  2  0  0  0  0  0  0
  159.8280  209.6310  155.7210 C   0  0  0  0  0  2  0  0  0  0  0  0
  160.3080  208.2370  155.9100 C   0  0  0  0  0  0  0  0  0  0  0  0
  161.6690  207.9740  155.9760 O   0  0  0  0  0  1  0  0  0  0  0  0
  159.4810  207.2890  155.9700 O   0  0  0  0  0  0  0  0  0  0  0  0
  1  7  1  0  0  0  0
  3  2  1  0  0  0  0
  4 14  1  0  0  0  0
  5 23  1  6  0  0  0
  5  4  1  0  0  0  0
  5 15  1  0  0  0  0
  6  2  1  0  0  0  0
  7 11  2  0  0  0  0
  7 24  1  0  0  0  0
  8 11  1  0  0  0  0
  8 10  1  0  0  0  0
  9  8  2  0  0  0  0
 10  3  1  0  0  0  0
 11  6  1  0  0  0  0
 12  9  1  0  0  0  0
 13  4  2  0  0  0  0
 14  1  2  0  0  0  0
 14  9  1  0  0  0  0
 15 21  1  6  0  0  0
 15 12  1  0  0  0  0
 17 16  2  0  0  0  0
 17  1  1  0  0  0  0
 19 18  1  0  0  0  0
 19 16  1  0  0  0  0
 21 20  2  0  0  0  0
 22 23  1  0  0  0  0
 24 25  1  0  0  0  0
 25 26  1  0  0  0  0
 26 27  1  0  0  0  0
 27 28  1  0  0  0  0
 28 29  1  0  0  0  0
 29 30  1  0  0  0  0
 30 32  2  0  0  0  0
 30 31  1  0  0  0  0
M  END
>  <MODEL>
2

>  <REMARK>
 VINA RESULT:      -7.4      2.346      7.354
  Name = 
  11 active torsions:
  status: ('A' for Active; 'I' for Inactive)
    1  A    between atoms: C_1  and  C_24
    2  A    between atoms: C_2  and  N_10
    3  A    between atoms: C_2  and  C_12
    4  A    between atoms: C_3  and  C_28
    5  A    between atoms: C_7  and  C_22
    6  A    between atoms: C_8  and  C_23
    7  A    between atoms: C_9  and  C_14
    8  A    between atoms: C_9  and  N_21
    9  A    between atoms: N_10  and  C_24
   10  A    between atoms: C_12  and  N_21
   11  A    between atoms: C_30  and  C_32
                            x       y       z     vdW  Elec       q    Type
                         _______ _______ _______ _____ _____    ______ ____

>  <TORSDO>
F 11

$$$$
=
 OpenBabel11062410453D

 32 34  0  0  1  0  0  0  0  0999 V2000
  161.5620  207.0650  149.2750 C   0  0  0  0  0  0  0  0  0  0  0  0
  160.8610  204.7480  153.4730 C   0  0  0  0  0  2  0  0  0  0  0  0
  160.5650  203.4470  152.7000 C   0  0  0  0  0  2  0  0  0  0  0  0
  160.9550  205.8520  147.1010 C   0  0  0  0  0  0  0  0  0  0  0  0
  161.1150  204.5810  146.2940 C   0  0  2  0  0  3  0  0  0  0  0  0
  161.9290  205.6360  152.8260 C   0  0  0  0  0  2  0  0  0  0  0  0
  161.7830  206.9960  150.6820 C   0  0  0  0  0  0  0  0  0  0  0  0
  161.3980  204.5920  150.6350 C   0  0  0  0  0  0  0  0  0  0  0  0
  161.1840  204.6420  149.2530 C   0  0  0  0  0  0  0  0  0  0  0  0
  161.3490  203.2930  151.3910 C   0  0  0  0  0  2  0  0  0  0  0  0
  161.6900  205.7590  151.3450 C   0  0  0  0  0  0  0  0  0  0  0  0
  160.8290  203.3920  148.5020 C   0  0  0  0  0  2  0  0  0  0  0  0
  160.5080  206.8770  146.5190 O   0  0  0  0  0  0  0  0  0  0  0  0
  161.2360  205.8740  148.5680 C   0  0  0  0  0  0  0  0  0  0  0  0
  161.5310  203.3750  147.1530 C   0  0  1  0  0  3  0  0  0  0  0  0
  161.9440  209.5350  148.9950 C   0  0  0  0  0  3  0  0  0  0  0  0
  161.6990  208.3290  148.4980 C   0  0  0  0  0  3  0  0  0  0  0  0
  161.9170  211.9800  148.8960 C   0  0  0  0  0  1  0  0  0  0  0  0
  162.0540  210.7060  148.0890 C   0  0  0  0  0  2  0  0  0  0  0  0
  160.4500  202.0750  145.5000 O   0  0  0  0  0  0  0  0  0  0  0  0
  161.2030  202.0900  146.4610 C   0  0  0  0  0  3  0  0  0  0  0  0
  163.5470  204.6500  145.7260 C   0  0  0  0  0  1  0  0  0  0  0  0
  162.1380  204.7910  145.1840 C   0  0  0  0  0  2  0  0  0  0  0  0
  162.0610  208.2200  151.5050 C   0  0  0  0  0  2  0  0  0  0  0  0
  160.8140  208.7490  152.0280 N   0  0  0  0  0  2  0  0  0  0  0  0
  160.9900  208.8890  153.4630 C   0  0  0  0  0  2  0  0  0  0  0  0
  160.3490  210.1800  153.9410 C   0  0  0  0  0  2  0  0  0  0  0  0
  160.3000  210.2140  155.3950 N   0  0  0  0  0  2  0  0  0  0  0  0
  161.3130  211.1540  155.8440 C   0  0  0  0  0  2  0  0  0  0  0  0
  162.5120  210.4110  156.3140 C   0  0  0  0  0  0  0  0  0  0  0  0
  162.3690  209.1510  156.8800 O   0  0  0  0  0  1  0  0  0  0  0  0
  163.6510  210.9390  156.2340 O   0  0  0  0  0  0  0  0  0  0  0  0
  1  7  1  0  0  0  0
  3  2  1  0  0  0  0
  4 14  1  0  0  0  0
  5 23  1  6  0  0  0
  5  4  1  0  0  0  0
  5 15  1  0  0  0  0
  6  2  1  0  0  0  0
  7 11  2  0  0  0  0
  7 24  1  0  0  0  0
  8 11  1  0  0  0  0
  8 10  1  0  0  0  0
  9  8  2  0  0  0  0
 10  3  1  0  0  0  0
 11  6  1  0  0  0  0
 12  9  1  0  0  0  0
 13  4  2  0  0  0  0
 14  9  1  0  0  0  0
 14  1  2  0  0  0  0
 15 21  1  6  0  0  0
 15 12  1  0  0  0  0
 17 16  2  0  0  0  0
 17  1  1  0  0  0  0
 19 18  1  0  0  0  0
 19 16  1  0  0  0  0
 20 21  2  0  0  0  0
 23 22  1  0  0  0  0
 24 25  1  0  0  0  0
 25 26  1  0  0  0  0
 26 27  1  0  0  0  0
 27 28  1  0  0  0  0
 28 29  1  0  0  0  0
 29 30  1  0  0  0  0
 30 31  1  0  0  0  0
 32 30  2  0  0  0  0
M  END
>  <MODEL>
3

>  <REMARK>
 VINA RESULT:      -7.2      2.523      7.778
  Name = 
  11 active torsions:
  status: ('A' for Active; 'I' for Inactive)
    1  A    between atoms: C_1  and  C_24
    2  A    between atoms: C_2  and  N_10
    3  A    between atoms: C_2  and  C_12
    4  A    between atoms: C_3  and  C_28
    5  A    between atoms: C_7  and  C_22
    6  A    between atoms: C_8  and  C_23
    7  A    between atoms: C_9  and  C_14
    8  A    between atoms: C_9  and  N_21
    9  A    between atoms: N_10  and  C_24
   10  A    between atoms: C_12  and  N_21
   11  A    between atoms: C_30  and  C_32
                            x       y       z     vdW  Elec       q    Type
                         _______ _______ _______ _____ _____    ______ ____

>  <TORSDO>
F 11

$$$$
=
 OpenBabel11062410453D

 32 34  0  0  1  0  0  0  0  0999 V2000
  161.5970  207.2990  149.3590 C   0  0  0  0  0  0  0  0  0  0  0  0
  160.9470  205.1320  153.6450 C   0  0  0  0  0  2  0  0  0  0  0  0
  160.6630  203.7990  152.9220 C   0  0  0  0  0  2  0  0  0  0  0  0
  160.9930  205.9980  147.2350 C   0  0  0  0  0  0  0  0  0  0  0  0
  161.1640  204.7000  146.4760 C   0  0  2  0  0  3  0  0  0  0  0  0
  162.0000  206.0080  152.9580 C   0  0  0  0  0  2  0  0  0  0  0  0
  161.8270  207.2840  150.7670 C   0  0  0  0  0  0  0  0  0  0  0  0
  161.4700  204.8760  150.8110 C   0  0  0  0  0  0  0  0  0  0  0  0
  161.2480  204.8720  149.4300 C   0  0  0  0  0  0  0  0  0  0  0  0
  161.4420  203.6060  151.6150 C   0  0  0  0  0  2  0  0  0  0  0  0
  161.7520  206.0720  151.4750 C   0  0  0  0  0  0  0  0  0  0  0  0
  160.9040  203.5910  148.7280 C   0  0  0  0  0  2  0  0  0  0  0  0
  160.5300  206.9960  146.6190 O   0  0  0  0  0  0  0  0  0  0  0  0
  161.2810  206.0780  148.6990 C   0  0  0  0  0  0  0  0  0  0  0  0
  161.6000  203.5320  147.3760 C   0  0  1  0  0  3  0  0  0  0  0  0
  162.0160  209.7490  148.9760 C   0  0  0  0  0  3  0  0  0  0  0  0
  161.7140  208.5340  148.5340 C   0  0  0  0  0  3  0  0  0  0  0  0
  161.8930  212.1850  148.7830 C   0  0  0  0  0  1  0  0  0  0  0  0
  162.0960  210.8880  148.0280 C   0  0  0  0  0  2  0  0  0  0  0  0
  160.6650  201.3600  147.3460 O   0  0  0  0  0  0  0  0  0  0  0  0
  161.2830  202.2180  146.7350 C   0  0  0  0  0  3  0  0  0  0  0  0
  163.5910  204.7250  145.8820 C   0  0  0  0  0  1  0  0  0  0  0  0
  162.1790  204.8810  145.3530 C   0  0  0  0  0  2  0  0  0  0  0  0
  162.0930  208.5420  151.5410 C   0  0  0  0  0  2  0  0  0  0  0  0
  160.8500  209.0450  152.0990 N   0  0  0  0  0  2  0  0  0  0  0  0
  161.2050  209.8220  153.2730 C   0  0  0  0  0  2  0  0  0  0  0  0
  160.6570  209.1540  154.5230 C   0  0  0  0  0  2  0  0  0  0  0  0
  160.1230  210.1510  155.4390 N   0  0  0  0  0  2  0  0  0  0  0  0
  159.4290  211.1470  154.6420 C   0  0  0  0  0  2  0  0  0  0  0  0
  159.6420  212.4960  155.2310 C   0  0  0  0  0  0  0  0  0  0  0  0
  159.0860  213.6140  154.6250 O   0  0  0  0  0  0  0  0  0  0  0  0
  160.3590  212.6290  156.2570 O   0  0  0  0  0  1  0  0  0  0  0  0
  1  7  1  0  0  0  0
  3  2  1  0  0  0  0
  4 14  1  0  0  0  0
  5 23  1  6  0  0  0
  5  4  1  0  0  0  0
  5 15  1  0  0  0  0
  6  2  1  0  0  0  0
  7 11  2  0  0  0  0
  7 24  1  0  0  0  0
  8 11  1  0  0  0  0
  8 10  1  0  0  0  0
  9  8  2  0  0  0  0
 10  3  1  0  0  0  0
 11  6  1  0  0  0  0
 12  9  1  0  0  0  0
 13  4  2  0  0  0  0
 14  1  2  0  0  0  0
 14  9  1  0  0  0  0
 15 21  1  6  0  0  0
 15 12  1  0  0  0  0
 17 16  2  0  0  0  0
 17  1  1  0  0  0  0
 19 18  1  0  0  0  0
 19 16  1  0  0  0  0
 21 20  2  0  0  0  0
 23 22  1  0  0  0  0
 24 25  1  0  0  0  0
 25 26  1  0  0  0  0
 26 27  1  0  0  0  0
 27 28  1  0  0  0  0
 29 30  1  0  0  0  0
 29 28  1  0  0  0  0
 30 32  1  0  0  0  0
 31 30  2  0  0  0  0
M  END
>  <MODEL>
4

>  <REMARK>
 VINA RESULT:      -7.0      2.734      7.795
  Name = 
  11 active torsions:
  status: ('A' for Active; 'I' for Inactive)
    1  A    between atoms: C_1  and  C_24
    2  A    between atoms: C_2  and  N_10
    3  A    between atoms: C_2  and  C_12
    4  A    between atoms: C_3  and  C_28
    5  A    between atoms: C_7  and  C_22
    6  A    between atoms: C_8  and  C_23
    7  A    between atoms: C_9  and  C_14
    8  A    between atoms: C_9  and  N_21
    9  A    between atoms: N_10  and  C_24
   10  A    between atoms: C_12  and  N_21
   11  A    between atoms: C_30  and  C_32
                            x       y       z     vdW  Elec       q    Type
                         _______ _______ _______ _____ _____    ______ ____

>  <TORSDO>
F 11

$$$$
=
 OpenBabel11062410453D

 32 34  0  0  1  0  0  0  0  0999 V2000
  161.7510  207.8830  151.2610 C   0  0  0  0  0  0  0  0  0  0  0  0
  161.2440  211.5650  148.1500 C   0  0  0  0  0  2  0  0  0  0  0  0
  160.7570  212.4650  149.3040 C   0  0  0  0  0  2  0  0  0  0  0  0
  160.8290  208.1630  153.6360 C   0  0  0  0  0  0  0  0  0  0  0  0
  160.7940  209.0460  154.8650 C   0  0  2  0  0  3  0  0  0  0  0  0
  162.3230  210.5540  148.5540 C   0  0  0  0  0  2  0  0  0  0  0  0
  162.0990  208.4850  150.0160 C   0  0  0  0  0  0  0  0  0  0  0  0
  161.4900  210.6750  150.8920 C   0  0  0  0  0  0  0  0  0  0  0  0
  161.1500  210.1000  152.1220 C   0  0  0  0  0  0  0  0  0  0  0  0
  161.3950  212.1580  150.6640 C   0  0  0  0  0  2  0  0  0  0  0  0
  161.9550  209.8740  149.8460 C   0  0  0  0  0  0  0  0  0  0  0  0
  160.6120  210.9590  153.2290 C   0  0  0  0  0  2  0  0  0  0  0  0
  160.4250  206.9740  153.7420 O   0  0  0  0  0  0  0  0  0  0  0  0
  161.2500  208.7060  152.3090 C   0  0  0  0  0  0  0  0  0  0  0  0
  161.1770  210.5050  154.5660 C   0  0  1  0  0  3  0  0  0  0  0  0
  161.1150  205.4530  151.1500 C   0  0  0  0  0  3  0  0  0  0  0  0
  161.9290  206.4290  151.5320 C   0  0  0  0  0  3  0  0  0  0  0  0
  160.7770  203.1210  150.4880 C   0  0  0  0  0  1  0  0  0  0  0  0
  161.4260  204.0440  151.4980 C   0  0  0  0  0  2  0  0  0  0  0  0
  159.5260  211.8540  155.5880 O   0  0  0  0  0  0  0  0  0  0  0  0
  160.6670  211.4200  155.6340 C   0  0  0  0  0  3  0  0  0  0  0  0
  160.9180  207.9360  157.1010 C   0  0  0  0  0  1  0  0  0  0  0  0
  161.7210  208.4870  155.9380 C   0  0  0  0  0  2  0  0  0  0  0  0
  162.5650  207.6730  148.8430 C   0  0  0  0  0  2  0  0  0  0  0  0
  161.4210  207.2640  148.0470 N   0  0  0  0  0  2  0  0  0  0  0  0
  161.6710  205.8950  147.6330 C   0  0  0  0  0  2  0  0  0  0  0  0
  162.1190  205.8650  146.1810 C   0  0  0  0  0  2  0  0  0  0  0  0
  162.4360  204.5040  145.7760 N   0  0  0  0  0  2  0  0  0  0  0  0
  161.2670  203.9670  145.1010 C   0  0  0  0  0  2  0  0  0  0  0  0
  160.8820  202.6720  145.7220 C   0  0  0  0  0  0  0  0  0  0  0  0
  161.1690  202.4310  147.0580 O   0  0  0  0  0  1  0  0  0  0  0  0
  160.3320  201.7790  145.0260 O   0  0  0  0  0  0  0  0  0  0  0  0
  1 17  1  0  0  0  0
  1 14  1  0  0  0  0
  2  6  1  0  0  0  0
  2  3  1  0  0  0  0
  3 10  1  0  0  0  0
  4 13  2  0  0  0  0
  4  5  1  0  0  0  0
  5 23  1  1  0  0  0
  6 11  1  0  0  0  0
  7  1  2  0  0  0  0
  8  9  1  0  0  0  0
  9 14  2  0  0  0  0
  9 12  1  0  0  0  0
 10  8  1  0  0  0  0
 11  7  1  0  0  0  0
 11  8  2  0  0  0  0
 12 15  1  0  0  0  0
 14  4  1  0  0  0  0
 15  5  1  0  0  0  0
 15 21  1  1  0  0  0
 16 19  1  0  0  0  0
 16 17  2  0  0  0  0
 18 19  1  0  0  0  0
 20 21  2  0  0  0  0
 23 22  1  0  0  0  0
 24  7  1  0  0  0  0
 25 24  1  0  0  0  0
 26 25  1  0  0  0  0
 27 26  1  0  0  0  0
 28 27  1  0  0  0  0
 29 30  1  0  0  0  0
 29 28  1  0  0  0  0
 30 31  1  0  0  0  0
 32 30  2  0  0  0  0
M  END
>  <MODEL>
5

>  <REMARK>
 VINA RESULT:      -6.5      1.487      4.607
  Name = 
  11 active torsions:
  status: ('A' for Active; 'I' for Inactive)
    1  A    between atoms: C_1  and  C_24
    2  A    between atoms: C_2  and  N_10
    3  A    between atoms: C_2  and  C_12
    4  A    between atoms: C_3  and  C_28
    5  A    between atoms: C_7  and  C_22
    6  A    between atoms: C_8  and  C_23
    7  A    between atoms: C_9  and  C_14
    8  A    between atoms: C_9  and  N_21
    9  A    between atoms: N_10  and  C_24
   10  A    between atoms: C_12  and  N_21
   11  A    between atoms: C_30  and  C_32
                            x       y       z     vdW  Elec       q    Type
                         _______ _______ _______ _____ _____    ______ ____

>  <TORSDO>
F 11

$$$$
=
 OpenBabel11062410453D

 32 34  0  0  1  0  0  0  0  0999 V2000
  161.4240  208.8310  151.8850 C   0  0  0  0  0  0  0  0  0  0  0  0
  160.9490  211.9590  148.2140 C   0  0  0  0  0  2  0  0  0  0  0  0
  160.2970  212.9770  149.1730 C   0  0  0  0  0  2  0  0  0  0  0  0
  160.2730  209.3810  154.1080 C   0  0  0  0  0  0  0  0  0  0  0  0
  160.0650  210.4300  155.1800 C   0  0  2  0  0  3  0  0  0  0  0  0
  162.0530  211.1110  148.8540 C   0  0  0  0  0  2  0  0  0  0  0  0
  161.8410  209.2700  150.5940 C   0  0  0  0  0  0  0  0  0  0  0  0
  161.0050  211.5060  151.0710 C   0  0  0  0  0  0  0  0  0  0  0  0
  160.5960  211.0940  152.3440 C   0  0  0  0  0  0  0  0  0  0  0  0
  160.8280  212.9270  150.6110 C   0  0  0  0  0  2  0  0  0  0  0  0
  161.6180  210.6010  150.2010 C   0  0  0  0  0  0  0  0  0  0  0  0
  159.9000  212.0600  153.2590 C   0  0  0  0  0  2  0  0  0  0  0  0
  159.9440  208.1920  154.3640 O   0  0  0  0  0  0  0  0  0  0  0  0
  160.7740  209.7550  152.7510 C   0  0  0  0  0  0  0  0  0  0  0  0
  160.3720  211.8560  154.6910 C   0  0  1  0  0  3  0  0  0  0  0  0
  160.9430  206.3760  152.1380 C   0  0  0  0  0  3  0  0  0  0  0  0
  161.6770  207.4530  152.3910 C   0  0  0  0  0  3  0  0  0  0  0  0
  161.5710  204.0730  151.5980 C   0  0  0  0  0  1  0  0  0  0  0  0
  161.3230  205.0630  152.7170 C   0  0  0  0  0  2  0  0  0  0  0  0
  158.5310  212.7490  155.8750 O   0  0  0  0  0  0  0  0  0  0  0  0
  159.7040  212.8730  155.5610 C   0  0  0  0  0  3  0  0  0  0  0  0
  162.3970  210.2950  156.0680 C   0  0  0  0  0  1  0  0  0  0  0  0
  160.9270  210.1140  156.3960 C   0  0  0  0  0  2  0  0  0  0  0  0
  162.4670  208.3350  149.6010 C   0  0  0  0  0  2  0  0  0  0  0  0
  161.4740  207.9210  148.6270 N   0  0  0  0  0  2  0  0  0  0  0  0
  161.9250  206.6510  148.0850 C   0  0  0  0  0  2  0  0  0  0  0  0
  160.9190  205.5600  148.4130 C   0  0  0  0  0  2  0  0  0  0  0  0
  161.3980  204.2700  147.9400 N   0  0  0  0  0  2  0  0  0  0  0  0
  162.2130  204.5130  146.7620 C   0  0  0  0  0  2  0  0  0  0  0  0
  161.5240  203.9780  145.5580 C   0  0  0  0  0  0  0  0  0  0  0  0
  161.2030  204.8260  144.5070 O   0  0  0  0  0  0  0  0  0  0  0  0
  161.1950  202.7640  145.5080 O   0  0  0  0  0  1  0  0  0  0  0  0
  1 17  1  0  0  0  0
  1 14  1  0  0  0  0
  2  6  1  0  0  0  0
  2  3  1  0  0  0  0
  3 10  1  0  0  0  0
  4 13  2  0  0  0  0
  4  5  1  0  0  0  0
  5 23  1  1  0  0  0
  6 11  1  0  0  0  0
  7  1  2  0  0  0  0
  8  9  1  0  0  0  0
  9 14  2  0  0  0  0
  9 12  1  0  0  0  0
 10  8  1  0  0  0  0
 11  7  1  0  0  0  0
 11  8  2  0  0  0  0
 12 15  1  0  0  0  0
 14  4  1  0  0  0  0
 15  5  1  0  0  0  0
 15 21  1  1  0  0  0
 16 17  2  0  0  0  0
 16 19  1  0  0  0  0
 18 19  1  0  0  0  0
 21 20  2  0  0  0  0
 22 23  1  0  0  0  0
 24  7  1  0  0  0  0
 25 24  1  0  0  0  0
 26 27  1  0  0  0  0
 26 25  1  0  0  0  0
 28 27  1  0  0  0  0
 29 28  1  0  0  0  0
 30 29  1  0  0  0  0
 31 30  2  0  0  0  0
 32 30  1  0  0  0  0
M  END
>  <MODEL>
6

>  <REMARK>
 VINA RESULT:      -5.8      1.906      5.036
  Name = 
  11 active torsions:
  status: ('A' for Active; 'I' for Inactive)
    1  A    between atoms: C_1  and  C_24
    2  A    between atoms: C_2  and  N_10
    3  A    between atoms: C_2  and  C_12
    4  A    between atoms: C_3  and  C_28
    5  A    between atoms: C_7  and  C_22
    6  A    between atoms: C_8  and  C_23
    7  A    between atoms: C_9  and  C_14
    8  A    between atoms: C_9  and  N_21
    9  A    between atoms: N_10  and  C_24
   10  A    between atoms: C_12  and  N_21
   11  A    between atoms: C_30  and  C_32
                            x       y       z     vdW  Elec       q    Type
                         _______ _______ _______ _____ _____    ______ ____

>  <TORSDO>
F 11

$$$$
=
 OpenBabel11062410453D

 32 34  0  0  1  0  0  0  0  0999 V2000
  161.6620  207.0940  148.5410 C   0  0  0  0  0  0  0  0  0  0  0  0
  161.2450  210.0900  152.3280 C   0  0  0  0  0  2  0  0  0  0  0  0
  160.8340  208.8990  153.2180 C   0  0  0  0  0  2  0  0  0  0  0  0
  160.8220  204.6860  148.7970 C   0  0  0  0  0  0  0  0  0  0  0  0
  160.8630  203.4340  149.6470 C   0  0  2  0  0  3  0  0  0  0  0  0
  162.2850  209.7450  151.2560 C   0  0  0  0  0  2  0  0  0  0  0  0
  162.0030  208.3320  149.1610 C   0  0  0  0  0  0  0  0  0  0  0  0
  161.5250  207.3810  151.3510 C   0  0  0  0  0  0  0  0  0  0  0  0
  161.1930  206.1580  150.7590 C   0  0  0  0  0  0  0  0  0  0  0  0
  161.4940  207.5660  152.8430 C   0  0  0  0  0  2  0  0  0  0  0  0
  161.9220  208.4610  150.5590 C   0  0  0  0  0  0  0  0  0  0  0  0
  160.7270  205.0130  151.6110 C   0  0  0  0  0  2  0  0  0  0  0  0
  160.3640  204.6000  147.6260 O   0  0  0  0  0  0  0  0  0  0  0  0
  161.2300  206.0100  149.3570 C   0  0  0  0  0  0  0  0  0  0  0  0
  161.3080  203.7050  151.0940 C   0  0  1  0  0  3  0  0  0  0  0  0
  162.4520  205.8900  146.4800 C   0  0  0  0  0  3  0  0  0  0  0  0
  161.7770  206.8670  147.0730 C   0  0  0  0  0  3  0  0  0  0  0  0
  161.1030  205.3890  144.5000 C   0  0  0  0  0  1  0  0  0  0  0  0
  162.4750  205.7930  144.9990 C   0  0  0  0  0  2  0  0  0  0  0  0
  160.0870  202.8140  152.9120 O   0  0  0  0  0  0  0  0  0  0  0  0
  160.8720  202.5990  152.0020 C   0  0  0  0  0  3  0  0  0  0  0  0
  161.0160  201.1670  148.6060 C   0  0  0  0  0  1  0  0  0  0  0  0
  161.7920  202.4040  149.0150 C   0  0  0  0  0  2  0  0  0  0  0  0
  162.3960  209.5390  148.3610 C   0  0  0  0  0  2  0  0  0  0  0  0
  161.2750  210.4580  148.2790 N   0  0  0  0  0  2  0  0  0  0  0  0
  161.8350  211.7820  148.0720 C   0  0  0  0  0  2  0  0  0  0  0  0
  160.9290  212.8320  148.6930 C   0  0  0  0  0  2  0  0  0  0  0  0
  160.3120  213.6460  147.6560 N   0  0  0  0  0  2  0  0  0  0  0  0
  158.8790  213.4130  147.7150 C   0  0  0  0  0  2  0  0  0  0  0  0
  158.4470  212.6450  146.5170 C   0  0  0  0  0  0  0  0  0  0  0  0
  157.1350  212.2070  146.4100 O   0  0  0  0  0  1  0  0  0  0  0  0
  159.2810  212.3570  145.6200 O   0  0  0  0  0  0  0  0  0  0  0  0
  1  7  2  0  0  0  0
  1 14  1  0  0  0  0
  2  3  1  0  0  0  0
  4 14  1  0  0  0  0
  4  5  1  0  0  0  0
  5 23  1  6  0  0  0
  5 15  1  0  0  0  0
  6  2  1  0  0  0  0
  7 11  1  0  0  0  0
  8 10  1  0  0  0  0
  9  8  1  0  0  0  0
  9 12  1  0  0  0  0
 10  3  1  0  0  0  0
 11  6  1  0  0  0  0
 11  8  2  0  0  0  0
 13  4  2  0  0  0  0
 14  9  2  0  0  0  0
 15 12  1  0  0  0  0
 15 21  1  1  0  0  0
 16 17  2  0  0  0  0
 17  1  1  0  0  0  0
 18 19  1  0  0  0  0
 19 16  1  0  0  0  0
 21 20  2  0  0  0  0
 22 23  1  0  0  0  0
 24  7  1  0  0  0  0
 25 24  1  0  0  0  0
 26 25  1  0  0  0  0
 26 27  1  0  0  0  0
 28 29  1  0  0  0  0
 28 27  1  0  0  0  0
 30 29  1  0  0  0  0
 31 30  1  0  0  0  0
 32 30  2  0  0  0  0
M  END
>  <MODEL>
7

>  <REMARK>
 VINA RESULT:      -5.7      3.065      6.770
  Name = 
  11 active torsions:
  status: ('A' for Active; 'I' for Inactive)
    1  A    between atoms: C_1  and  C_24
    2  A    between atoms: C_2  and  N_10
    3  A    between atoms: C_2  and  C_12
    4  A    between atoms: C_3  and  C_28
    5  A    between atoms: C_7  and  C_22
    6  A    between atoms: C_8  and  C_23
    7  A    between atoms: C_9  and  C_14
    8  A    between atoms: C_9  and  N_21
    9  A    between atoms: N_10  and  C_24
   10  A    between atoms: C_12  and  N_21
   11  A    between atoms: C_30  and  C_32
                            x       y       z     vdW  Elec       q    Type
                         _______ _______ _______ _____ _____    ______ ____

>  <TORSDO>
F 11

$$$$
=
 OpenBabel11062410453D

 32 34  0  0  1  0  0  0  0  0999 V2000
  161.0920  205.0350  150.0430 C   0  0  0  0  0  0  0  0  0  0  0  0
  162.2720  209.6470  150.9500 C   0  0  0  0  0  2  0  0  0  0  0  0
  162.4990  209.8800  149.4430 C   0  0  0  0  0  2  0  0  0  0  0  0
  161.4760  204.1240  147.6780 C   0  0  0  0  0  0  0  0  0  0  0  0
  161.2460  204.3540  146.2000 C   0  0  2  0  0  3  0  0  0  0  0  0
  161.1290  208.6780  151.2720 C   0  0  0  0  0  2  0  0  0  0  0  0
  161.0250  206.1630  150.9120 C   0  0  0  0  0  0  0  0  0  0  0  0
  161.4340  207.6520  149.0290 C   0  0  0  0  0  0  0  0  0  0  0  0
  161.4970  206.5560  148.1620 C   0  0  0  0  0  0  0  0  0  0  0  0
  161.5800  209.0620  148.5270 C   0  0  0  0  0  2  0  0  0  0  0  0
  161.2050  207.4580  150.3940 C   0  0  0  0  0  0  0  0  0  0  0  0
  161.7840  206.7680  146.7040 C   0  0  0  0  0  2  0  0  0  0  0  0
  161.8450  202.9790  148.0550 O   0  0  0  0  0  0  0  0  0  0  0  0
  161.3560  205.2440  148.6590 C   0  0  0  0  0  0  0  0  0  0  0  0
  160.9410  205.8230  145.8610 C   0  0  1  0  0  3  0  0  0  0  0  0
  161.6820  202.9070  151.2460 C   0  0  0  0  0  3  0  0  0  0  0  0
  160.8560  203.6400  150.5100 C   0  0  0  0  0  3  0  0  0  0  0  0
  160.7460  200.7980  150.4310 C   0  0  0  0  0  1  0  0  0  0  0  0
  161.3060  201.5250  151.6350 C   0  0  0  0  0  2  0  0  0  0  0  0
  161.5810  205.2150  143.6680 O   0  0  0  0  0  0  0  0  0  0  0  0
  161.2090  206.1050  144.4170 C   0  0  0  0  0  3  0  0  0  0  0  0
  160.6190  202.0890  145.3520 C   0  0  0  0  0  1  0  0  0  0  0  0
  160.1060  203.4710  145.7040 C   0  0  0  0  0  2  0  0  0  0  0  0
  160.8230  206.0150  152.3910 C   0  0  0  0  0  2  0  0  0  0  0  0
  162.0810  206.2390  153.0810 N   0  0  0  0  0  2  0  0  0  0  0  0
  161.7500  206.5500  154.4610 C   0  0  0  0  0  2  0  0  0  0  0  0
  160.3990  207.2430  154.5270 C   0  0  0  0  0  2  0  0  0  0  0  0
  160.4330  208.3290  155.4950 N   0  0  0  0  0  2  0  0  0  0  0  0
  161.2640  209.3830  154.9390 C   0  0  0  0  0  2  0  0  0  0  0  0
  160.4150  210.5460  154.5680 C   0  0  0  0  0  0  0  0  0  0  0  0
  159.1990  210.7490  155.2070 O   0  0  0  0  0  1  0  0  0  0  0  0
  160.7790  211.3230  153.6470 O   0  0  0  0  0  0  0  0  0  0  0  0
  1 17  1  0  0  0  0
  1  7  1  0  0  0  0
  2  6  1  0  0  0  0
  3  2  1  0  0  0  0
  4 13  2  0  0  0  0
  4 14  1  0  0  0  0
  5 23  1  1  0  0  0
  5  4  1  0  0  0  0
  7 24  1  0  0  0  0
  8 11  1  0  0  0  0
  9 14  1  0  0  0  0
  9  8  2  0  0  0  0
 10  8  1  0  0  0  0
 10  3  1  0  0  0  0
 11  7  2  0  0  0  0
 11  6  1  0  0  0  0
 12  9  1  0  0  0  0
 14  1  2  0  0  0  0
 15 21  1  6  0  0  0
 15  5  1  0  0  0  0
 15 12  1  0  0  0  0
 16 19  1  0  0  0  0
 17 16  2  0  0  0  0
 18 19  1  0  0  0  0
 20 21  2  0  0  0  0
 22 23  1  0  0  0  0
 24 25  1  0  0  0  0
 25 26  1  0  0  0  0
 26 27  1  0  0  0  0
 27 28  1  0  0  0  0
 29 28  1  0  0  0  0
 30 29  1  0  0  0  0
 30 31  1  0  0  0  0
 32 30  2  0  0  0  0
M  END
>  <MODEL>
8

>  <REMARK>
 VINA RESULT:      -5.4      2.380      8.617
  Name = 
  11 active torsions:
  status: ('A' for Active; 'I' for Inactive)
    1  A    between atoms: C_1  and  C_24
    2  A    between atoms: C_2  and  N_10
    3  A    between atoms: C_2  and  C_12
    4  A    between atoms: C_3  and  C_28
    5  A    between atoms: C_7  and  C_22
    6  A    between atoms: C_8  and  C_23
    7  A    between atoms: C_9  and  C_14
    8  A    between atoms: C_9  and  N_21
    9  A    between atoms: N_10  and  C_24
   10  A    between atoms: C_12  and  N_21
   11  A    between atoms: C_30  and  C_32
                            x       y       z     vdW  Elec       q    Type
                         _______ _______ _______ _____ _____    ______ ____

>  <TORSDO>
F 11

$$$$
=
 OpenBabel11062410453D

 32 34  0  0  1  0  0  0  0  0999 V2000
  161.2150  205.8700  150.7030 C   0  0  0  0  0  0  0  0  0  0  0  0
  161.1740  204.1970  146.1550 C   0  0  0  0  0  2  0  0  0  0  0  0
  161.3040  205.6410  145.6280 C   0  0  0  0  0  2  0  0  0  0  0  0
  161.0490  208.4020  151.0690 C   0  0  0  0  0  0  0  0  0  0  0  0
  161.6050  209.7570  150.6870 C   0  0  2  0  0  3  0  0  0  0  0  0
  161.9320  203.9330  147.4600 C   0  0  0  0  0  2  0  0  0  0  0  0
  161.4200  204.7860  149.8000 C   0  0  0  0  0  0  0  0  0  0  0  0
  161.7870  206.3590  147.9780 C   0  0  0  0  0  0  0  0  0  0  0  0
  161.5950  207.4340  148.8520 C   0  0  0  0  0  0  0  0  0  0  0  0
  162.1230  206.5750  146.5280 C   0  0  0  0  0  2  0  0  0  0  0  0
  161.6950  205.0460  148.4460 C   0  0  0  0  0  0  0  0  0  0  0  0
  161.6530  208.8420  148.3350 C   0  0  0  0  0  2  0  0  0  0  0  0
  160.3220  208.3210  152.0950 O   0  0  0  0  0  0  0  0  0  0  0  0
  161.2810  207.2030  150.2080 C   0  0  0  0  0  0  0  0  0  0  0  0
  162.3530  209.7410  149.3430 C   0  0  1  0  0  3  0  0  0  0  0  0
  161.7130  206.1570  153.1510 C   0  0  0  0  0  3  0  0  0  0  0  0
  160.9740  205.6740  152.1610 C   0  0  0  0  0  3  0  0  0  0  0  0
  160.8570  207.1470  155.2190 C   0  0  0  0  0  1  0  0  0  0  0  0
  161.3460  205.8740  154.5610 C   0  0  0  0  0  2  0  0  0  0  0  0
  161.6030  211.9610  149.0340 O   0  0  0  0  0  0  0  0  0  0  0  0
  162.4460  211.1190  148.7680 C   0  0  0  0  0  3  0  0  0  0  0  0
  161.8230  210.2930  153.1180 C   0  0  0  0  0  1  0  0  0  0  0  0
  162.5370  210.2670  151.7800 C   0  0  0  0  0  2  0  0  0  0  0  0
  161.2940  203.3550  150.2350 C   0  0  0  0  0  2  0  0  0  0  0  0
  159.9320  202.8980  150.0210 N   0  0  0  0  0  2  0  0  0  0  0  0
  159.9960  201.4550  149.8760 C   0  0  0  0  0  2  0  0  0  0  0  0
  161.1950  201.0710  149.0250 C   0  0  0  0  0  2  0  0  0  0  0  0
  160.7880  200.8470  147.6460 N   0  0  0  0  0  2  0  0  0  0  0  0
  161.6070  199.7690  147.1190 C   0  0  0  0  0  2  0  0  0  0  0  0
  161.1300  199.3970  145.7610 C   0  0  0  0  0  0  0  0  0  0  0  0
  160.3520  200.2850  145.0310 O   0  0  0  0  0  0  0  0  0  0  0  0
  161.3980  198.2620  145.2880 O   0  0  0  0  0  1  0  0  0  0  0  0
  1 17  1  0  0  0  0
  2  6  1  0  0  0  0
  3  2  1  0  0  0  0
  3 10  1  0  0  0  0
  4 13  2  0  0  0  0
  5  4  1  0  0  0  0
  5 23  1  1  0  0  0
  6 11  1  0  0  0  0
  7 24  1  0  0  0  0
  7  1  2  0  0  0  0
  8 11  2  0  0  0  0
  8  9  1  0  0  0  0
  9 14  2  0  0  0  0
 10  8  1  0  0  0  0
 11  7  1  0  0  0  0
 12  9  1  0  0  0  0
 12 15  1  0  0  0  0
 14  1  1  0  0  0  0
 14  4  1  0  0  0  0
 15 21  1  6  0  0  0
 15  5  1  0  0  0  0
 16 19  1  0  0  0  0
 17 16  2  0  0  0  0
 19 18  1  0  0  0  0
 21 20  2  0  0  0  0
 23 22  1  0  0  0  0
 25 24  1  0  0  0  0
 26 25  1  0  0  0  0
 27 26  1  0  0  0  0
 28 27  1  0  0  0  0
 29 28  1  0  0  0  0
 30 29  1  0  0  0  0
 31 30  2  0  0  0  0
 32 30  1  0  0  0  0
M  END
>  <MODEL>
9

>  <REMARK>
 VINA RESULT:      -5.4      2.023      4.800
  Name = 
  11 active torsions:
  status: ('A' for Active; 'I' for Inactive)
    1  A    between atoms: C_1  and  C_24
    2  A    between atoms: C_2  and  N_10
    3  A    between atoms: C_2  and  C_12
    4  A    between atoms: C_3  and  C_28
    5  A    between atoms: C_7  and  C_22
    6  A    between atoms: C_8  and  C_23
    7  A    between atoms: C_9  and  C_14
    8  A    between atoms: C_9  and  N_21
    9  A    between atoms: N_10  and  C_24
   10  A    between atoms: C_12  and  N_21
   11  A    between atoms: C_30  and  C_32
                            x       y       z     vdW  Elec       q    Type
                         _______ _______ _______ _____ _____    ______ ____

>  <TORSDO>
F 11

$$$$
