=
 OpenBabel11062408273D

 32 36  0  0  0  0  0  0  0  0999 V2000
  161.2040  205.2020  150.3420 C   0  0  0  0  0  0  0  0  0  0  0  0
  161.5830  207.9560  149.8380 C   0  0  0  0  0  0  0  0  0  0  0  0
  160.8180  203.7510  150.5390 C   0  0  0  0  0  2  0  0  0  0  0  0
  161.2850  206.1000  151.4490 C   0  0  0  0  0  0  0  0  0  0  0  0
  161.5380  208.4540  152.2090 C   0  0  0  0  0  3  0  0  0  0  0  0
  162.0600  211.2380  148.0370 C   0  0  0  0  0  3  0  0  0  0  0  0
  161.4660  207.4970  151.1800 C   0  0  0  0  0  0  0  0  0  0  0  0
  162.0020  211.6190  150.3720 O   0  0  0  0  0  0  0  0  0  0  0  0
  161.8260  210.2520  150.6330 C   0  0  0  0  0  0  0  0  0  0  0  0
  161.2070  205.5920  152.7170 C   0  0  0  0  0  0  0  0  0  0  0  0
  161.7140  209.8090  151.9450 C   0  0  0  0  0  3  0  0  0  0  0  0
  161.1200  204.1350  152.9450 C   0  0  0  0  0  3  0  0  0  0  0  0
  161.5260  207.0350  148.7920 C   0  0  0  0  0  3  0  0  0  0  0  0
  161.3490  205.6760  149.0220 C   0  0  0  0  0  0  0  0  0  0  0  0
  161.7610  209.3340  149.5670 C   0  0  0  0  0  0  0  0  0  0  0  0
  160.9730  203.2770  151.9450 C   0  0  0  0  0  3  0  0  0  0  0  0
  162.1180  212.0940  149.0590 C   0  0  0  0  0  3  0  0  0  0  0  0
  161.8740  209.8000  148.3090 C   0  0  0  0  0  3  0  0  0  0  0  0
  161.1960  204.4080  145.4460 C   0  0  0  0  0  0  0  0  0  0  0  0
  161.1620  204.9000  144.1460 O   0  0  0  0  0  1  0  0  0  0  0  0
  161.2950  204.7780  147.8470 C   0  0  0  0  0  0  0  0  0  0  0  0
  161.1700  203.0280  145.6610 C   0  0  0  0  0  3  0  0  0  0  0  0
  161.2550  203.3920  148.0480 C   0  0  0  0  0  3  0  0  0  0  0  0
  161.2500  205.2880  146.5340 C   0  0  0  0  0  0  0  0  0  0  0  0
  161.2420  206.6610  146.3080 O   0  0  0  0  0  1  0  0  0  0  0  0
  161.1960  202.5120  146.9650 C   0  0  0  0  0  0  0  0  0  0  0  0
  161.3610  200.5830  148.5040 C   0  0  0  0  0  1  0  0  0  0  0  0
  161.1640  201.1370  147.2110 O   0  0  0  0  0  0  0  0  0  0  0  0
  161.2440  206.4230  153.8420 O   0  0  0  0  0  0  0  0  0  0  0  0
  160.1990  206.4790  154.7380 N   0  0  0  0  0  2  0  0  0  0  0  0
  160.5870  207.4210  155.7710 C   0  0  0  0  0  2  0  0  0  0  0  0
  160.1060  206.9820  157.0040 O   0  0  0  0  0  1  0  0  0  0  0  0
  1  3  1  0  0  0  0
  1  4  1  0  0  0  0
  2  7  1  0  0  0  0
  3 16  1  0  0  0  0
  4 10  2  0  0  0  0
  6 18  1  0  0  0  0
  6 17  2  0  0  0  0
  7  4  1  0  0  0  0
  7  5  2  0  0  0  0
  8  9  1  0  0  0  0
  9 11  2  0  0  0  0
 10 12  1  0  0  0  0
 10 29  1  0  0  0  0
 11  5  1  0  0  0  0
 13 14  1  0  0  0  0
 13  2  2  0  0  0  0
 14  1  2  0  0  0  0
 15  2  1  0  0  0  0
 15  9  1  0  0  0  0
 16 12  2  0  0  0  0
 17  8  1  0  0  0  0
 18 15  2  0  0  0  0
 19 22  2  0  0  0  0
 19 24  1  0  0  0  0
 20 19  1  0  0  0  0
 21 23  1  0  0  0  0
 21 14  1  0  0  0  0
 22 26  1  0  0  0  0
 24 21  2  0  0  0  0
 25 24  1  0  0  0  0
 26 28  1  0  0  0  0
 26 23  2  0  0  0  0
 28 27  1  0  0  0  0
 29 30  1  0  0  0  0
 30 31  1  0  0  0  0
 31 32  1  0  0  0  0
M  END
>  <MODEL>
1

>  <REMARK>
 VINA RESULT:      -9.9      0.000      0.000
  Name = 
  5 active torsions:
  status: ('A' for Active; 'I' for Inactive)
    1  A    between atoms: C_13  and  N_18
    2  A    between atoms: C_14  and  O_29
    3  A    between atoms: O_15  and  C_26
    4  A    between atoms: C_16  and  C_27
    5  A    between atoms: N_18  and  O_29
                            x       y       z     vdW  Elec       q    Type
                         _______ _______ _______ _____ _____    ______ ____

>  <TORSDO>
F 5

$$$$
=
 OpenBabel11062408273D

 32 36  0  0  0  0  0  0  0  0999 V2000
  161.5680  207.1100  149.9410 C   0  0  0  0  0  0  0  0  0  0  0  0
  161.0430  207.5650  152.6800 C   0  0  0  0  0  0  0  0  0  0  0  0
  162.0190  206.7800  148.5340 C   0  0  0  0  0  2  0  0  0  0  0  0
  161.6390  208.4450  150.4440 C   0  0  0  0  0  0  0  0  0  0  0  0
  161.4470  209.9400  152.4210 C   0  0  0  0  0  3  0  0  0  0  0  0
  160.2010  206.9850  156.3140 C   0  0  0  0  0  3  0  0  0  0  0  0
  161.3810  208.6610  151.8380 C   0  0  0  0  0  0  0  0  0  0  0  0
  160.6170  209.2880  155.9550 O   0  0  0  0  0  0  0  0  0  0  0  0
  160.8680  209.0730  154.5920 C   0  0  0  0  0  0  0  0  0  0  0  0
  161.9290  209.4610  149.5760 C   0  0  0  0  0  0  0  0  0  0  0  0
  161.1960  210.1480  153.7740 C   0  0  0  0  0  3  0  0  0  0  0  0
  162.0900  209.2000  148.1300 C   0  0  0  0  0  3  0  0  0  0  0  0
  160.9580  206.2830  152.1350 C   0  0  0  0  0  3  0  0  0  0  0  0
  161.2050  206.0430  150.7890 C   0  0  0  0  0  0  0  0  0  0  0  0
  160.7880  207.7730  154.0570 C   0  0  0  0  0  0  0  0  0  0  0  0
  162.0990  207.9700  147.6380 C   0  0  0  0  0  3  0  0  0  0  0  0
  160.2830  208.2240  156.8040 C   0  0  0  0  0  3  0  0  0  0  0  0
  160.4660  206.7580  154.8800 C   0  0  0  0  0  3  0  0  0  0  0  0
  160.8460  202.2630  150.7070 C   0  0  0  0  0  0  0  0  0  0  0  0
  160.6820  201.1940  151.5790 O   0  0  0  0  0  1  0  0  0  0  0  0
  161.0970  204.6480  150.3060 C   0  0  0  0  0  0  0  0  0  0  0  0
  160.9200  202.0260  149.3320 C   0  0  0  0  0  3  0  0  0  0  0  0
  161.1840  204.3940  148.9300 C   0  0  0  0  0  3  0  0  0  0  0  0
  160.9410  203.5700  151.2000 C   0  0  0  0  0  0  0  0  0  0  0  0
  160.8990  203.7920  152.5730 O   0  0  0  0  0  1  0  0  0  0  0  0
  161.0940  203.0910  148.4360 C   0  0  0  0  0  0  0  0  0  0  0  0
  161.5620  203.9040  146.1480 C   0  0  0  0  0  1  0  0  0  0  0  0
  161.1790  202.8820  147.0570 O   0  0  0  0  0  0  0  0  0  0  0  0
  162.0480  210.7850  150.0130 O   0  0  0  0  0  0  0  0  0  0  0  0
  162.3520  211.8110  149.1450 N   0  0  0  0  0  2  0  0  0  0  0  0
  161.1870  212.6740  149.0970 C   0  0  0  0  0  2  0  0  0  0  0  0
  160.5770  212.5610  147.8490 O   0  0  0  0  0  1  0  0  0  0  0  0
  1  4  1  0  0  0  0
  1 14  2  0  0  0  0
  2 15  1  0  0  0  0
  3  1  1  0  0  0  0
  4  7  1  0  0  0  0
  5 11  1  0  0  0  0
  6 17  2  0  0  0  0
  7  5  2  0  0  0  0
  7  2  1  0  0  0  0
  8 17  1  0  0  0  0
  9  8  1  0  0  0  0
 10 29  1  0  0  0  0
 10  4  2  0  0  0  0
 11  9  2  0  0  0  0
 12 10  1  0  0  0  0
 13  2  2  0  0  0  0
 14 13  1  0  0  0  0
 15  9  1  0  0  0  0
 15 18  2  0  0  0  0
 16 12  2  0  0  0  0
 16  3  1  0  0  0  0
 18  6  1  0  0  0  0
 19 24  1  0  0  0  0
 19 20  1  0  0  0  0
 21 14  1  0  0  0  0
 21 24  2  0  0  0  0
 22 19  2  0  0  0  0
 23 21  1  0  0  0  0
 24 25  1  0  0  0  0
 26 23  2  0  0  0  0
 26 22  1  0  0  0  0
 27 28  1  0  0  0  0
 28 26  1  0  0  0  0
 30 29  1  0  0  0  0
 31 30  1  0  0  0  0
 32 31  1  0  0  0  0
M  END
>  <MODEL>
2

>  <REMARK>
 VINA RESULT:      -9.1      2.122      5.539
  Name = 
  5 active torsions:
  status: ('A' for Active; 'I' for Inactive)
    1  A    between atoms: C_13  and  N_18
    2  A    between atoms: C_14  and  O_29
    3  A    between atoms: O_15  and  C_26
    4  A    between atoms: C_16  and  C_27
    5  A    between atoms: N_18  and  O_29
                            x       y       z     vdW  Elec       q    Type
                         _______ _______ _______ _____ _____    ______ ____

>  <TORSDO>
F 5

$$$$
=
 OpenBabel11062408273D

 32 36  0  0  1  0  0  0  0  0999 V2000
  161.2800  205.5790  150.8390 C   0  0  0  0  0  0  0  0  0  0  0  0
  161.2410  205.3280  148.0250 C   0  0  0  0  0  0  0  0  0  0  0  0
  161.4900  205.7730  152.3250 C   0  0  0  0  0  3  0  0  0  0  0  0
  161.2380  204.2730  150.2640 C   0  0  2  0  0  3  0  0  0  0  0  0
  161.2060  202.9100  148.1850 C   0  0  0  0  0  3  0  0  0  0  0  0
  161.2360  206.1840  144.3480 C   0  0  0  0  0  3  0  0  0  0  0  0
  161.2290  204.1580  148.8350 C   0  0  0  0  0  0  0  0  0  0  0  0
  161.2040  203.8330  144.6130 O   0  0  0  0  0  0  0  0  0  0  0  0
  161.2110  203.9470  146.0100 C   0  0  0  0  0  0  0  0  0  0  0  0
  161.1860  203.1890  151.0960 C   0  0  0  0  0  0  0  0  0  0  0  0
  161.1970  202.8020  146.7970 C   0  0  0  0  0  3  0  0  0  0  0  0
  161.0970  203.3610  152.5610 C   0  0  0  0  0  3  0  0  0  0  0  0
  161.2540  206.5830  148.6340 C   0  0  0  0  0  3  0  0  0  0  0  0
  161.2650  206.7240  150.0160 C   0  0  0  0  0  0  0  0  0  0  0  0
  161.2330  205.2200  146.6130 C   0  0  0  0  0  0  0  0  0  0  0  0
  161.2030  204.5520  153.1330 C   0  0  0  0  0  3  0  0  0  0  0  0
  161.2160  204.9700  143.7950 C   0  0  0  0  0  3  0  0  0  0  0  0
  161.2450  206.3070  145.8190 C   0  0  0  0  0  3  0  0  0  0  0  0
  161.8120  210.4640  150.3880 C   0  0  0  0  0  0  0  0  0  0  0  0
  162.3140  211.5400  149.6650 O   0  0  0  0  0  1  0  0  0  0  0  0
  161.2850  208.0970  150.5690 C   0  0  0  0  0  0  0  0  0  0  0  0
  161.3170  210.6720  151.6780 C   0  0  0  0  0  3  0  0  0  0  0  0
  160.8040  208.3180  151.8670 C   0  0  0  0  0  3  0  0  0  0  0  0
  161.8060  209.1790  149.8320 C   0  0  0  0  0  0  0  0  0  0  0  0
  162.3330  208.9790  148.5590 O   0  0  0  0  0  1  0  0  0  0  0  0
  160.8130  209.5980  152.4260 C   0  0  0  0  0  0  0  0  0  0  0  0
  160.6210  208.8850  154.7870 C   0  0  0  0  0  1  0  0  0  0  0  0
  160.3180  209.7740  153.7210 O   0  0  0  0  0  0  0  0  0  0  0  0
  161.1780  201.8820  150.5960 O   0  0  0  0  0  0  0  0  0  0  0  0
  160.0700  201.0700  150.7030 N   0  0  0  0  0  2  0  0  0  0  0  0
  159.5660  200.8730  149.3570 C   0  0  0  0  0  2  0  0  0  0  0  0
  158.1910  201.1010  149.3380 O   0  0  0  0  0  1  0  0  0  0  0  0
  1  3  1  0  0  0  0
  2 13  2  0  0  0  0
  2  7  1  0  0  0  0
  3 16  2  0  0  0  0
  4  7  1  6  0  0  0
  4  1  1  0  0  0  0
  4 10  1  0  0  0  0
  5  7  2  0  0  0  0
  6 18  1  0  0  0  0
  8  9  1  0  0  0  0
  9 15  1  0  0  0  0
  9 11  2  0  0  0  0
 10 12  2  0  0  0  0
 11  5  1  0  0  0  0
 12 16  1  0  0  0  0
 13 14  1  0  0  0  0
 14 21  1  0  0  0  0
 14  1  2  0  0  0  0
 15  2  1  0  0  0  0
 17  6  2  0  0  0  0
 17  8  1  0  0  0  0
 18 15  2  0  0  0  0
 19 22  1  0  0  0  0
 20 19  1  0  0  0  0
 21 23  2  0  0  0  0
 22 26  2  0  0  0  0
 23 26  1  0  0  0  0
 24 19  2  0  0  0  0
 24 21  1  0  0  0  0
 25 24  1  0  0  0  0
 26 28  1  0  0  0  0
 28 27  1  0  0  0  0
 29 30  1  0  0  0  0
 29 10  1  0  0  0  0
 31 30  1  0  0  0  0
 32 31  1  0  0  0  0
M  END
>  <MODEL>
3

>  <REMARK>
 VINA RESULT:      -8.1      2.022      6.591
  Name = 
  5 active torsions:
  status: ('A' for Active; 'I' for Inactive)
    1  A    between atoms: C_13  and  N_18
    2  A    between atoms: C_14  and  O_29
    3  A    between atoms: O_15  and  C_26
    4  A    between atoms: C_16  and  C_27
    5  A    between atoms: N_18  and  O_29
                            x       y       z     vdW  Elec       q    Type
                         _______ _______ _______ _____ _____    ______ ____

>  <TORSDO>
F 5

$$$$
=
 OpenBabel11062408273D

 32 36  0  0  0  0  0  0  0  0999 V2000
  161.3370  209.7530  152.7740 C   0  0  0  0  0  0  0  0  0  0  0  0
  161.2180  207.3220  151.3380 C   0  0  0  0  0  0  0  0  0  0  0  0
  161.5850  211.0730  153.4700 C   0  0  0  0  0  2  0  0  0  0  0  0
  161.3490  208.5230  153.4990 C   0  0  0  0  0  0  0  0  0  0  0  0
  161.3240  206.0390  153.3910 C   0  0  0  0  0  3  0  0  0  0  0  0
  161.0430  204.8390  148.5010 C   0  0  0  0  0  3  0  0  0  0  0  0
  161.2990  207.2960  152.7590 C   0  0  0  0  0  0  0  0  0  0  0  0
  161.1520  203.6790  150.5610 O   0  0  0  0  0  0  0  0  0  0  0  0
  161.1990  204.8800  151.2830 C   0  0  0  0  0  0  0  0  0  0  0  0
  161.3850  208.5650  154.8660 C   0  0  0  0  0  0  0  0  0  0  0  0
  161.2760  204.8490  152.6700 C   0  0  0  0  0  3  0  0  0  0  0  0
  161.3360  209.8540  155.5870 C   0  0  0  0  0  3  0  0  0  0  0  0
  161.1810  208.5500  150.6770 C   0  0  0  0  0  3  0  0  0  0  0  0
  161.2300  209.7540  151.3680 C   0  0  0  0  0  0  0  0  0  0  0  0
  161.1700  206.1130  150.6030 C   0  0  0  0  0  0  0  0  0  0  0  0
  161.3940  211.0140  154.9490 C   0  0  0  0  0  3  0  0  0  0  0  0
  161.0730  203.6800  149.1620 C   0  0  0  0  0  3  0  0  0  0  0  0
  161.0940  206.1040  149.2590 C   0  0  0  0  0  3  0  0  0  0  0  0
  160.2690  213.2040  150.1030 C   0  0  0  0  0  0  0  0  0  0  0  0
  159.3800  214.2310  150.3960 O   0  0  0  0  0  1  0  0  0  0  0  0
  161.1920  211.0050  150.5770 C   0  0  0  0  0  0  0  0  0  0  0  0
  161.1510  213.3420  149.0290 C   0  0  0  0  0  3  0  0  0  0  0  0
  162.0620  211.1510  149.4880 C   0  0  0  0  0  3  0  0  0  0  0  0
  160.2790  212.0360  150.8760 C   0  0  0  0  0  0  0  0  0  0  0  0
  159.3730  211.8960  151.9220 O   0  0  0  0  0  1  0  0  0  0  0  0
  162.0510  212.3130  148.7130 C   0  0  0  0  0  0  0  0  0  0  0  0
  162.6180  213.1120  146.4430 C   0  0  0  0  0  1  0  0  0  0  0  0
  162.9400  212.4200  147.6400 O   0  0  0  0  0  0  0  0  0  0  0  0
  161.4340  207.3950  155.6320 O   0  0  0  0  0  0  0  0  0  0  0  0
  161.2640  207.4150  157.0000 N   0  0  0  0  0  2  0  0  0  0  0  0
  159.9350  206.8920  157.2610 C   0  0  0  0  0  2  0  0  0  0  0  0
  159.1900  206.9120  156.0830 O   0  0  0  0  0  1  0  0  0  0  0  0
  1  3  1  0  0  0  0
  1  4  1  0  0  0  0
  2  7  1  0  0  0  0
  3 16  1  0  0  0  0
  4 10  2  0  0  0  0
  6 17  2  0  0  0  0
  6 18  1  0  0  0  0
  7  5  2  0  0  0  0
  7  4  1  0  0  0  0
  8  9  1  0  0  0  0
  9 11  2  0  0  0  0
 10 12  1  0  0  0  0
 10 29  1  0  0  0  0
 11  5  1  0  0  0  0
 13  2  2  0  0  0  0
 13 14  1  0  0  0  0
 14  1  2  0  0  0  0
 15  9  1  0  0  0  0
 15  2  1  0  0  0  0
 16 12  2  0  0  0  0
 17  8  1  0  0  0  0
 18 15  2  0  0  0  0
 19 20  1  0  0  0  0
 19 24  1  0  0  0  0
 21 24  2  0  0  0  0
 21 14  1  0  0  0  0
 22 19  2  0  0  0  0
 23 21  1  0  0  0  0
 24 25  1  0  0  0  0
 26 22  1  0  0  0  0
 26 23  2  0  0  0  0
 27 28  1  0  0  0  0
 28 26  1  0  0  0  0
 29 30  1  0  0  0  0
 30 31  1  0  0  0  0
 32 31  1  0  0  0  0
M  END
>  <MODEL>
4

>  <REMARK>
 VINA RESULT:      -8.0      2.348      6.882
  Name = 
  5 active torsions:
  status: ('A' for Active; 'I' for Inactive)
    1  A    between atoms: C_13  and  N_18
    2  A    between atoms: C_14  and  O_29
    3  A    between atoms: O_15  and  C_26
    4  A    between atoms: C_16  and  C_27
    5  A    between atoms: N_18  and  O_29
                            x       y       z     vdW  Elec       q    Type
                         _______ _______ _______ _____ _____    ______ ____

>  <TORSDO>
F 5

$$$$
=
 OpenBabel11062408273D

 32 36  0  0  1  0  0  0  0  0999 V2000
  161.2470  209.7400  152.4970 C   0  0  0  0  0  0  0  0  0  0  0  0
  161.2170  207.3320  151.0190 C   0  0  0  0  0  0  0  0  0  0  0  0
  161.4510  211.0500  153.2270 C   0  0  0  0  0  3  0  0  0  0  0  0
  161.2290  208.4980  153.2030 C   0  0  2  0  0  3  0  0  0  0  0  0
  161.2260  206.0170  153.0540 C   0  0  0  0  0  3  0  0  0  0  0  0
  161.2030  204.8940  148.1370 C   0  0  0  0  0  3  0  0  0  0  0  0
  161.2250  207.2840  152.4410 C   0  0  0  0  0  0  0  0  0  0  0  0
  161.2140  203.7020  150.1820 O   0  0  0  0  0  0  0  0  0  0  0  0
  161.2160  204.8920  150.9240 C   0  0  0  0  0  0  0  0  0  0  0  0
  161.1950  208.5180  154.5700 C   0  0  0  0  0  0  0  0  0  0  0  0
  161.2220  204.8390  152.3130 C   0  0  0  0  0  3  0  0  0  0  0  0
  161.1010  209.7960  155.3070 C   0  0  0  0  0  3  0  0  0  0  0  0
  161.2070  208.5700  150.3760 C   0  0  0  0  0  3  0  0  0  0  0  0
  161.2120  209.7630  151.0880 C   0  0  0  0  0  0  0  0  0  0  0  0
  161.2140  206.1350  150.2630 C   0  0  0  0  0  0  0  0  0  0  0  0
  161.1840  210.9670  154.6920 C   0  0  0  0  0  3  0  0  0  0  0  0
  161.2070  203.7250  148.7810 C   0  0  0  0  0  3  0  0  0  0  0  0
  161.2080  206.1470  148.9170 C   0  0  0  0  0  3  0  0  0  0  0  0
  161.9140  212.3730  148.4190 C   0  0  0  0  0  0  0  0  0  0  0  0
  162.6250  212.5120  147.2330 O   0  0  0  0  0  1  0  0  0  0  0  0
  161.2070  211.0270  150.3160 C   0  0  0  0  0  0  0  0  0  0  0  0
  161.1750  213.4520  148.9100 C   0  0  0  0  0  3  0  0  0  0  0  0
  160.4810  212.1220  150.8050 C   0  0  0  0  0  3  0  0  0  0  0  0
  161.9400  211.1610  149.1200 C   0  0  0  0  0  0  0  0  0  0  0  0
  162.7060  210.1040  148.6380 O   0  0  0  0  0  1  0  0  0  0  0  0
  160.4570  213.3330  150.1090 C   0  0  0  0  0  0  0  0  0  0  0  0
  158.4310  214.2260  151.2110 C   0  0  0  0  0  1  0  0  0  0  0  0
  159.7150  214.3970  150.6290 O   0  0  0  0  0  0  0  0  0  0  0  0
  161.2120  207.3370  155.3190 O   0  0  0  0  0  0  0  0  0  0  0  0
  161.3620  207.3480  156.6890 N   0  0  0  0  0  2  0  0  0  0  0  0
  160.0830  206.9530  157.2500 C   0  0  0  0  0  2  0  0  0  0  0  0
  159.1270  206.9060  156.2370 O   0  0  0  0  0  1  0  0  0  0  0  0
  1  4  1  0  0  0  0
  1  3  1  0  0  0  0
  2  7  1  0  0  0  0
  3 16  2  0  0  0  0
  4  7  1  6  0  0  0
  4 10  1  0  0  0  0
  6 17  2  0  0  0  0
  6 18  1  0  0  0  0
  7  5  2  0  0  0  0
  8  9  1  0  0  0  0
  9 11  2  0  0  0  0
 10 12  2  0  0  0  0
 10 29  1  0  0  0  0
 11  5  1  0  0  0  0
 13  2  2  0  0  0  0
 13 14  1  0  0  0  0
 14  1  2  0  0  0  0
 15  9  1  0  0  0  0
 15  2  1  0  0  0  0
 16 12  1  0  0  0  0
 17  8  1  0  0  0  0
 18 15  2  0  0  0  0
 19 22  2  0  0  0  0
 19 24  1  0  0  0  0
 20 19  1  0  0  0  0
 21 23  1  0  0  0  0
 21 14  1  0  0  0  0
 22 26  1  0  0  0  0
 24 21  2  0  0  0  0
 25 24  1  0  0  0  0
 26 28  1  0  0  0  0
 26 23  2  0  0  0  0
 28 27  1  0  0  0  0
 29 30  1  0  0  0  0
 30 31  1  0  0  0  0
 32 31  1  0  0  0  0
M  END
>  <MODEL>
5

>  <REMARK>
 VINA RESULT:      -7.7      2.125      6.817
  Name = 
  5 active torsions:
  status: ('A' for Active; 'I' for Inactive)
    1  A    between atoms: C_13  and  N_18
    2  A    between atoms: C_14  and  O_29
    3  A    between atoms: O_15  and  C_26
    4  A    between atoms: C_16  and  C_27
    5  A    between atoms: N_18  and  O_29
                            x       y       z     vdW  Elec       q    Type
                         _______ _______ _______ _____ _____    ______ ____

>  <TORSDO>
F 5

$$$$
=
 OpenBabel11062408273D

 32 36  0  0  1  0  0  0  0  0999 V2000
  161.5020  207.4830  150.2510 C   0  0  0  0  0  0  0  0  0  0  0  0
  161.1690  204.6770  150.2530 C   0  0  0  0  0  0  0  0  0  0  0  0
  161.4860  208.9960  150.2860 C   0  0  0  0  0  3  0  0  0  0  0  0
  161.6080  206.7750  149.0150 C   0  0  2  0  0  3  0  0  0  0  0  0
  161.4950  204.5800  147.8540 C   0  0  0  0  0  3  0  0  0  0  0  0
  160.5550  201.1410  151.4210 C   0  0  0  0  0  3  0  0  0  0  0  0
  161.4260  205.3530  149.0270 C   0  0  0  0  0  0  0  0  0  0  0  0
  160.8850  201.1540  149.0770 O   0  0  0  0  0  0  0  0  0  0  0  0
  161.0650  202.5440  149.0680 C   0  0  0  0  0  0  0  0  0  0  0  0
  161.8980  207.4770  147.8770 C   0  0  0  0  0  0  0  0  0  0  0  0
  161.3180  203.1990  147.8690 C   0  0  0  0  0  3  0  0  0  0  0  0
  162.1750  208.9280  147.9310 C   0  0  0  0  0  3  0  0  0  0  0  0
  161.1030  205.4100  151.4380 C   0  0  0  0  0  3  0  0  0  0  0  0
  161.2730  206.7890  151.4560 C   0  0  0  0  0  0  0  0  0  0  0  0
  160.9870  203.2730  150.2700 C   0  0  0  0  0  0  0  0  0  0  0  0
  162.0200  209.6290  149.0450 C   0  0  0  0  0  3  0  0  0  0  0  0
  160.6300  200.4670  150.2720 C   0  0  0  0  0  3  0  0  0  0  0  0
  160.7410  202.6050  151.4120 C   0  0  0  0  0  3  0  0  0  0  0  0
  160.9010  207.4480  155.1780 C   0  0  0  0  0  0  0  0  0  0  0  0
  160.7240  206.7500  156.3660 O   0  0  0  0  0  1  0  0  0  0  0  0
  161.1790  207.4780  152.7620 C   0  0  0  0  0  0  0  0  0  0  0  0
  160.9860  208.8430  155.2040 C   0  0  0  0  0  3  0  0  0  0  0  0
  161.2490  208.8780  152.8020 C   0  0  0  0  0  3  0  0  0  0  0  0
  160.9890  206.7620  153.9610 C   0  0  0  0  0  0  0  0  0  0  0  0
  160.8700  205.3750  153.9430 O   0  0  0  0  0  1  0  0  0  0  0  0
  161.1570  209.5660  154.0140 C   0  0  0  0  0  0  0  0  0  0  0  0
  160.2190  211.7870  153.4640 C   0  0  0  0  0  1  0  0  0  0  0  0
  161.2380  210.9610  154.0090 O   0  0  0  0  0  0  0  0  0  0  0  0
  161.9800  206.8470  146.6300 O   0  0  0  0  0  0  0  0  0  0  0  0
  160.8580  206.5810  145.8760 N   0  0  0  0  0  2  0  0  0  0  0  0
  161.3040  205.8260  144.7200 C   0  0  0  0  0  2  0  0  0  0  0  0
  160.4660  204.7280  144.5320 O   0  0  0  0  0  1  0  0  0  0  0  0
  1  3  1  0  0  0  0
  1 14  2  0  0  0  0
  2 15  1  0  0  0  0
  2 13  2  0  0  0  0
  4 10  1  1  0  0  0
  4  7  1  0  0  0  0
  4  1  1  0  0  0  0
  5 11  1  0  0  0  0
  5  7  2  0  0  0  0
  7  2  1  0  0  0  0
  8 17  1  0  0  0  0
  9  8  1  0  0  0  0
  9 15  1  0  0  0  0
 10 12  2  0  0  0  0
 11  9  2  0  0  0  0
 12 16  1  0  0  0  0
 13 14  1  0  0  0  0
 14 21  1  0  0  0  0
 15 18  2  0  0  0  0
 16  3  2  0  0  0  0
 17  6  2  0  0  0  0
 18  6  1  0  0  0  0
 19 22  1  0  0  0  0
 19 20  1  0  0  0  0
 21 23  2  0  0  0  0
 21 24  1  0  0  0  0
 23 26  1  0  0  0  0
 24 19  2  0  0  0  0
 25 24  1  0  0  0  0
 26 22  2  0  0  0  0
 27 28  1  0  0  0  0
 28 26  1  0  0  0  0
 29 10  1  0  0  0  0
 30 29  1  0  0  0  0
 31 30  1  0  0  0  0
 32 31  1  0  0  0  0
M  END
>  <MODEL>
6

>  <REMARK>
 VINA RESULT:      -7.4      2.097      8.334
  Name = 
  5 active torsions:
  status: ('A' for Active; 'I' for Inactive)
    1  A    between atoms: C_13  and  N_18
    2  A    between atoms: C_14  and  O_29
    3  A    between atoms: O_15  and  C_26
    4  A    between atoms: C_16  and  C_27
    5  A    between atoms: N_18  and  O_29
                            x       y       z     vdW  Elec       q    Type
                         _______ _______ _______ _____ _____    ______ ____

>  <TORSDO>
F 5

$$$$
=
 OpenBabel11062408273D

 32 36  0  0  1  0  0  0  0  0999 V2000
  161.3660  208.1140  152.9390 C   0  0  0  0  0  0  0  0  0  0  0  0
  161.5780  209.8940  150.7540 C   0  0  0  0  0  0  0  0  0  0  0  0
  161.4380  207.2170  154.1560 C   0  0  0  0  0  3  0  0  0  0  0  0
  161.4680  207.5770  151.6190 C   0  0  2  0  0  3  0  0  0  0  0  0
  161.7100  208.0470  149.1900 C   0  0  0  0  0  3  0  0  0  0  0  0
  161.8120  213.0680  148.7250 C   0  0  0  0  0  3  0  0  0  0  0  0
  161.5860  208.4900  150.5210 C   0  0  0  0  0  0  0  0  0  0  0  0
  161.9330  211.1960  147.2820 O   0  0  0  0  0  0  0  0  0  0  0  0
  161.8170  210.3060  148.3590 C   0  0  0  0  0  0  0  0  0  0  0  0
  161.4290  206.2200  151.4570 C   0  0  0  0  0  0  0  0  0  0  0  0
  161.8230  208.9360  148.1250 C   0  0  0  0  0  3  0  0  0  0  0  0
  161.2070  205.3230  152.6110 C   0  0  0  0  0  3  0  0  0  0  0  0
  161.4470  210.3700  152.0590 C   0  0  0  0  0  3  0  0  0  0  0  0
  161.3340  209.5090  153.1440 C   0  0  0  0  0  0  0  0  0  0  0  0
  161.6950  210.7990  149.6720 C   0  0  0  0  0  0  0  0  0  0  0  0
  161.1770  205.7800  153.8550 C   0  0  0  0  0  3  0  0  0  0  0  0
  161.9280  212.5820  147.4880 C   0  0  0  0  0  3  0  0  0  0  0  0
  161.6910  212.1320  149.8600 C   0  0  0  0  0  3  0  0  0  0  0  0
  159.8730  211.0660  156.2840 C   0  0  0  0  0  0  0  0  0  0  0  0
  158.6410  211.4430  156.8070 O   0  0  0  0  0  1  0  0  0  0  0  0
  161.2060  210.1100  154.4900 C   0  0  0  0  0  0  0  0  0  0  0  0
  161.0310  211.2620  157.0400 C   0  0  0  0  0  3  0  0  0  0  0  0
  162.3620  210.3250  155.2540 C   0  0  0  0  0  3  0  0  0  0  0  0
  159.9540  210.4980  155.0070 C   0  0  0  0  0  0  0  0  0  0  0  0
  158.7970  210.3380  154.2500 O   0  0  0  0  0  1  0  0  0  0  0  0
  162.2840  210.8960  156.5260 C   0  0  0  0  0  0  0  0  0  0  0  0
  164.6280  211.6660  156.6920 C   0  0  0  0  0  1  0  0  0  0  0  0
  163.4600  211.0860  157.2560 O   0  0  0  0  0  0  0  0  0  0  0  0
  161.5590  205.6300  150.1940 O   0  0  0  0  0  0  0  0  0  0  0  0
  160.6390  204.7210  149.7190 N   0  0  0  0  0  2  0  0  0  0  0  0
  161.2920  203.9900  148.6480 C   0  0  0  0  0  2  0  0  0  0  0  0
  160.7730  202.6980  148.5850 O   0  0  0  0  0  1  0  0  0  0  0  0
  1 14  2  0  0  0  0
  1  3  1  0  0  0  0
  2 13  2  0  0  0  0
  4  7  1  6  0  0  0
  4  1  1  0  0  0  0
  5  7  2  0  0  0  0
  6 18  1  0  0  0  0
  7  2  1  0  0  0  0
  8 17  1  0  0  0  0
  8  9  1  0  0  0  0
  9 15  1  0  0  0  0
 10  4  1  0  0  0  0
 10 12  2  0  0  0  0
 11  9  2  0  0  0  0
 11  5  1  0  0  0  0
 12 16  1  0  0  0  0
 13 14  1  0  0  0  0
 14 21  1  0  0  0  0
 15 18  2  0  0  0  0
 15  2  1  0  0  0  0
 16  3  2  0  0  0  0
 17  6  2  0  0  0  0
 19 20  1  0  0  0  0
 19 22  1  0  0  0  0
 21 24  1  0  0  0  0
 21 23  2  0  0  0  0
 23 26  1  0  0  0  0
 24 19  2  0  0  0  0
 25 24  1  0  0  0  0
 26 22  2  0  0  0  0
 26 28  1  0  0  0  0
 27 28  1  0  0  0  0
 29 10  1  0  0  0  0
 30 29  1  0  0  0  0
 31 30  1  0  0  0  0
 32 31  1  0  0  0  0
M  END
>  <MODEL>
7

>  <REMARK>
 VINA RESULT:      -7.3      2.814      7.631
  Name = 
  5 active torsions:
  status: ('A' for Active; 'I' for Inactive)
    1  A    between atoms: C_13  and  N_18
    2  A    between atoms: C_14  and  O_29
    3  A    between atoms: O_15  and  C_26
    4  A    between atoms: C_16  and  C_27
    5  A    between atoms: N_18  and  O_29
                            x       y       z     vdW  Elec       q    Type
                         _______ _______ _______ _____ _____    ______ ____

>  <TORSDO>
F 5

$$$$
=
 OpenBabel11062408273D

 32 36  0  0  1  0  0  0  0  0999 V2000
  159.5030  212.2190  152.3700 C   0  0  0  0  0  0  0  0  0  0  0  0
  160.6030  209.6220  152.5340 C   0  0  0  0  0  0  0  0  0  0  0  0
  158.7410  213.5210  152.2420 C   0  0  0  0  0  3  0  0  0  0  0  0
  160.3890  211.7800  151.3400 C   0  0  2  0  0  3  0  0  0  0  0  0
  161.7990  209.9350  150.4500 C   0  0  0  0  0  3  0  0  0  0  0  0
  161.4030  206.1370  153.7450 C   0  0  0  0  0  3  0  0  0  0  0  0
  160.9320  210.4560  151.4290 C   0  0  0  0  0  0  0  0  0  0  0  0
  162.5290  206.5440  151.7030 O   0  0  0  0  0  0  0  0  0  0  0  0
  161.9980  207.8380  151.6190 C   0  0  0  0  0  0  0  0  0  0  0  0
  160.7000  212.6430  150.3260 C   0  0  0  0  0  0  0  0  0  0  0  0
  162.3250  208.6500  150.5390 C   0  0  0  0  0  3  0  0  0  0  0  0
  160.1940  214.0320  150.3300 C   0  0  0  0  0  3  0  0  0  0  0  0
  159.7540  210.1070  153.5290 C   0  0  0  0  0  3  0  0  0  0  0  0
  159.2110  211.3850  153.4680 C   0  0  0  0  0  0  0  0  0  0  0  0
  161.1350  208.3130  152.6260 C   0  0  0  0  0  0  0  0  0  0  0  0
  159.3160  214.4530  151.2300 C   0  0  0  0  0  3  0  0  0  0  0  0
  162.2180  205.7040  152.7810 C   0  0  0  0  0  3  0  0  0  0  0  0
  160.8420  207.5000  153.6580 C   0  0  0  0  0  3  0  0  0  0  0  0
  157.7700  213.2650  156.4370 C   0  0  0  0  0  0  0  0  0  0  0  0
  158.0740  214.3430  157.2590 O   0  0  0  0  0  1  0  0  0  0  0  0
  158.3160  211.8070  154.5690 C   0  0  0  0  0  0  0  0  0  0  0  0
  156.5910  212.5460  156.6520 C   0  0  0  0  0  3  0  0  0  0  0  0
  157.1370  211.0870  154.8050 C   0  0  0  0  0  3  0  0  0  0  0  0
  158.6390  212.8960  155.4030 C   0  0  0  0  0  0  0  0  0  0  0  0
  159.8270  213.5980  155.2200 O   0  0  0  0  0  1  0  0  0  0  0  0
  156.2700  211.4500  155.8380 C   0  0  0  0  0  0  0  0  0  0  0  0
  154.3840  210.7160  157.2590 C   0  0  0  0  0  1  0  0  0  0  0  0
  155.1020  210.7080  156.0340 O   0  0  0  0  0  0  0  0  0  0  0  0
  161.5340  212.2610  149.2700 O   0  0  0  0  0  0  0  0  0  0  0  0
  161.0670  212.1520  147.9780 N   0  0  0  0  0  2  0  0  0  0  0  0
  162.1000  212.6930  147.1150 C   0  0  0  0  0  2  0  0  0  0  0  0
  163.0460  213.3640  147.8880 O   0  0  0  0  0  1  0  0  0  0  0  0
  1 14  2  0  0  0  0
  2 15  1  0  0  0  0
  2 13  2  0  0  0  0
  3  1  1  0  0  0  0
  4 10  1  1  0  0  0
  4  7  1  0  0  0  0
  4  1  1  0  0  0  0
  5 11  1  0  0  0  0
  5  7  2  0  0  0  0
  7  2  1  0  0  0  0
  8 17  1  0  0  0  0
  9  8  1  0  0  0  0
  9 15  1  0  0  0  0
 10 12  2  0  0  0  0
 11  9  2  0  0  0  0
 12 16  1  0  0  0  0
 14 13  1  0  0  0  0
 14 21  1  0  0  0  0
 15 18  2  0  0  0  0
 16  3  2  0  0  0  0
 17  6  2  0  0  0  0
 18  6  1  0  0  0  0
 19 22  1  0  0  0  0
 19 20  1  0  0  0  0
 21 23  2  0  0  0  0
 21 24  1  0  0  0  0
 23 26  1  0  0  0  0
 24 19  2  0  0  0  0
 25 24  1  0  0  0  0
 26 28  1  0  0  0  0
 26 22  2  0  0  0  0
 28 27  1  0  0  0  0
 29 10  1  0  0  0  0
 30 29  1  0  0  0  0
 31 32  1  0  0  0  0
 31 30  1  0  0  0  0
M  END
>  <MODEL>
8

>  <REMARK>
 VINA RESULT:      -6.9      4.367      9.678
  Name = 
  5 active torsions:
  status: ('A' for Active; 'I' for Inactive)
    1  A    between atoms: C_13  and  N_18
    2  A    between atoms: C_14  and  O_29
    3  A    between atoms: O_15  and  C_26
    4  A    between atoms: C_16  and  C_27
    5  A    between atoms: N_18  and  O_29
                            x       y       z     vdW  Elec       q    Type
                         _______ _______ _______ _____ _____    ______ ____

>  <TORSDO>
F 5

$$$$
