=
 OpenBabel11062410183D

 43 47  0  0  1  0  0  0  0  0999 V2000
  160.1350  201.8400  145.0580 C   0  0  0  0  0  0  0  0  0  0  0  0
  161.3230  204.9860  148.7580 C   0  0  0  0  0  0  0  0  0  0  0  0
  161.1840  202.8180  147.0750 C   0  0  0  0  0  0  0  0  0  0  0  0
  159.7940  203.2220  144.5520 C   0  0  0  0  0  2  0  0  0  0  0  0
  159.5950  200.8220  144.5000 N   0  0  0  0  0  2  0  0  0  0  0  0
  160.9800  204.1130  146.5620 C   0  0  0  0  0  0  0  0  0  0  0  0
  161.1310  201.6290  146.1640 C   0  0  0  0  0  2  0  0  0  0  0  0
  160.7300  204.3040  145.0970 C   0  0  0  0  0  2  0  0  0  0  0  0
  160.9090  206.6350  147.1780 C   0  0  0  0  0  2  0  0  0  0  0  0
  161.0650  205.1900  147.4430 C   0  0  0  0  0  0  0  0  0  0  0  0
  161.5320  203.7430  149.2660 N   0  0  0  0  0  0  0  0  0  0  0  0
  161.3360  206.2620  149.4940 C   0  0  1  0  0  3  0  0  0  0  0  0
  161.0840  207.3150  148.4800 N   0  0  0  0  0  0  0  0  0  0  0  0
  161.4700  202.6550  148.4440 C   0  0  0  0  0  3  0  0  0  0  0  0
  163.5140  207.6250  148.9810 C   0  0  0  0  0  1  0  0  0  0  0  0
  162.2450  208.2140  148.3620 C   0  0  2  0  0  3  0  0  0  0  0  0
  161.9520  209.5660  149.0170 C   0  0  0  0  0  2  0  0  0  0  0  0
  161.7590  210.6630  147.9750 C   0  0  0  0  0  2  0  0  0  0  0  0
  162.2820  211.9280  148.4740 N   0  0  0  0  0  0  0  0  0  0  0  0
  161.3770  212.4220  149.4980 C   0  0  0  0  0  1  0  0  0  0  0  0
  162.4120  212.9490  147.4170 C   0  0  0  0  0  2  0  0  0  0  0  0
  161.2260  213.1150  146.4400 C   0  0  2  0  0  3  0  0  0  0  0  0
  160.7810  212.3570  144.0600 C   0  0  0  0  0  0  0  0  0  0  0  0
  161.6320  212.9390  145.0500 N   0  0  0  0  0  2  0  0  0  0  0  0
  159.6540  211.8940  144.3880 O   0  0  0  0  0  0  0  0  0  0  0  0
  161.2280  212.3090  142.6600 C   0  0  0  0  0  0  0  0  0  0  0  0
  161.1860  211.3190  140.3900 C   0  0  0  0  0  2  0  0  0  0  0  0
  162.6770  213.2600  140.8150 C   0  0  0  0  0  2  0  0  0  0  0  0
  162.6040  211.8570  140.2170 C   0  0  0  0  0  2  0  0  0  0  0  0
  162.2300  213.2300  142.2050 N   0  0  0  0  0  2  0  0  0  0  0  0
  160.7600  211.3680  141.8300 C   0  0  0  0  0  3  0  0  0  0  0  0
  160.5100  214.4510  146.6260 C   0  0  0  0  0  2  0  0  0  0  0  0
  158.7690  212.9900  147.3690 O   0  0  0  0  0  1  0  0  0  0  0  0
  159.0180  214.2590  146.8460 C   0  0  0  0  0  2  0  0  0  0  0  0
  160.2100  206.2670  150.5190 C   0  0  0  0  0  2  0  0  0  0  0  0
  160.7400  206.0910  151.8260 O   0  0  0  0  0  0  0  0  0  0  0  0
  161.0410  209.5030  153.2710 C   0  0  0  0  0  3  0  0  0  0  0  0
  160.9500  207.8680  155.0540 C   0  0  0  0  0  3  0  0  0  0  0  0
  161.0480  209.1990  154.6350 C   0  0  0  0  0  0  0  0  0  0  0  0
  160.9400  208.4780  152.3290 C   0  0  0  0  0  3  0  0  0  0  0  0
  160.8440  207.1400  152.7450 C   0  0  0  0  0  0  0  0  0  0  0  0
  161.1600  210.2880  155.6400 C   0  0  0  0  0  1  0  0  0  0  0  0
  160.8500  206.8410  154.1110 C   0  0  0  0  0  3  0  0  0  0  0  0
  1  7  1  0  0  0  0
  2 11  1  0  0  0  0
  2 12  1  0  0  0  0
  3 14  1  0  0  0  0
  4  1  1  0  0  0  0
  4  8  1  0  0  0  0
  5  1  2  0  0  0  0
  6  3  2  0  0  0  0
  6 10  1  0  0  0  0
  7  3  1  0  0  0  0
  8  6  1  0  0  0  0
  9 10  1  0  0  0  0
  9 13  1  0  0  0  0
 10  2  2  0  0  0  0
 12 35  1  1  0  0  0
 13 12  1  0  0  0  0
 14 11  2  0  0  0  0
 16 13  1  0  0  0  0
 16 15  1  1  0  0  0
 16 17  1  0  0  0  0
 18 19  1  0  0  0  0
 18 17  1  0  0  0  0
 19 20  1  0  0  0  0
 21 19  1  0  0  0  0
 22 32  1  6  0  0  0
 22 21  1  0  0  0  0
 23 25  2  0  0  0  0
 23 24  1  0  0  0  0
 24 22  1  0  0  0  0
 26 23  1  0  0  0  0
 27 31  1  0  0  0  0
 28 30  1  0  0  0  0
 29 27  1  0  0  0  0
 29 28  1  0  0  0  0
 30 26  1  0  0  0  0
 31 26  2  0  0  0  0
 32 34  1  0  0  0  0
 34 33  1  0  0  0  0
 35 36  1  0  0  0  0
 36 41  1  0  0  0  0
 37 39  1  0  0  0  0
 39 38  2  0  0  0  0
 39 42  1  0  0  0  0
 40 41  1  0  0  0  0
 40 37  2  0  0  0  0
 41 43  2  0  0  0  0
 43 38  1  0  0  0  0
M  END
>  <MODEL>
1

>  <REMARK>
 VINA RESULT:      -6.1      0.000      0.000
  Name = 
  13 active torsions:
  status: ('A' for Active; 'I' for Inactive)
    1  A    between atoms: C_1  and  O_28
    2  A    between atoms: C_1  and  C_34
    3  A    between atoms: C_2  and  C_6
    4  A    between atoms: C_2  and  C_13
    5  A    between atoms: C_3  and  C_4
    6  A    between atoms: C_3  and  N_12
    7  A    between atoms: C_4  and  C_15
    8  A    between atoms: C_4  and  N_22
    9  A    between atoms: C_6  and  N_12
   10  A    between atoms: C_11  and  C_14
   11  A    between atoms: C_13  and  N_38
   12  A    between atoms: C_15  and  C_42
   13  A    between atoms: O_28  and  C_35
                            x       y       z     vdW  Elec       q    Type
                         _______ _______ _______ _____ _____    ______ ____

>  <TORSDO>
F 13

$$$$
=
 OpenBabel11062410183D

 43 47  0  0  1  0  0  0  0  0999 V2000
  161.5370  212.7940  148.6440 C   0  0  0  0  0  0  0  0  0  0  0  0
  161.7990  207.9740  149.9440 C   0  0  0  0  0  0  0  0  0  0  0  0
  162.3000  210.4500  148.8630 C   0  0  0  0  0  0  0  0  0  0  0  0
  160.7400  212.6660  149.9200 C   0  0  0  0  0  2  0  0  0  0  0  0
  161.3350  213.8040  147.8820 N   0  0  0  0  0  2  0  0  0  0  0  0
  161.6610  210.3510  150.1130 C   0  0  0  0  0  0  0  0  0  0  0  0
  162.5970  211.7950  148.2720 C   0  0  0  0  0  2  0  0  0  0  0  0
  161.2950  211.5950  150.8640 C   0  0  0  0  0  2  0  0  0  0  0  0
  160.7970  208.6890  151.9110 C   0  0  0  0  0  2  0  0  0  0  0  0
  161.4290  209.0790  150.6340 C   0  0  0  0  0  0  0  0  0  0  0  0
  162.4270  208.0530  148.7400 N   0  0  0  0  0  0  0  0  0  0  0  0
  161.4280  206.7500  150.6750 C   0  0  1  0  0  3  0  0  0  0  0  0
  160.8000  207.2090  151.9380 N   0  0  0  0  0  0  0  0  0  0  0  0
  162.6860  209.2750  148.1900 C   0  0  0  0  0  3  0  0  0  0  0  0
  162.0660  205.3320  152.9980 C   0  0  0  0  0  1  0  0  0  0  0  0
  161.5960  206.7850  153.1020 C   0  0  2  0  0  3  0  0  0  0  0  0
  160.7980  206.9590  154.3960 C   0  0  0  0  0  2  0  0  0  0  0  0
  161.0760  208.3090  155.0480 C   0  0  0  0  0  2  0  0  0  0  0  0
  160.5490  208.3320  156.4060 N   0  0  0  0  0  0  0  0  0  0  0  0
  160.0570  207.0010  156.7240 C   0  0  0  0  0  1  0  0  0  0  0  0
  159.4520  209.3020  156.5780 C   0  0  0  0  0  2  0  0  0  0  0  0
  159.8400  210.7650  156.8960 C   0  0  2  0  0  3  0  0  0  0  0  0
  158.1810  211.7450  155.2450 C   0  0  0  0  0  0  0  0  0  0  0  0
  159.4940  211.6730  155.8090 N   0  0  0  0  0  2  0  0  0  0  0  0
  157.2840  210.9450  155.6280 O   0  0  0  0  0  0  0  0  0  0  0  0
  157.8890  212.7580  154.2210 C   0  0  0  0  0  0  0  0  0  0  0  0
  156.3070  214.1430  152.9120 C   0  0  0  0  0  2  0  0  0  0  0  0
  158.7410  214.3820  152.4750 C   0  0  0  0  0  2  0  0  0  0  0  0
  157.3740  214.1890  151.8220 C   0  0  0  0  0  2  0  0  0  0  0  0
  158.9660  213.3370  153.4700 N   0  0  0  0  0  2  0  0  0  0  0  0
  156.6230  213.0910  153.9370 C   0  0  0  0  0  3  0  0  0  0  0  0
  161.3170  210.9010  157.2610 C   0  0  0  0  0  2  0  0  0  0  0  0
  163.4420  210.7640  156.1730 O   0  0  0  0  0  1  0  0  0  0  0  0
  162.1560  211.2920  156.0550 C   0  0  0  0  0  2  0  0  0  0  0  0
  160.4110  205.9630  149.8610 C   0  0  0  0  0  2  0  0  0  0  0  0
  161.0720  204.9880  149.0650 O   0  0  0  0  0  0  0  0  0  0  0  0
  162.1220  204.3980  145.5470 C   0  0  0  0  0  3  0  0  0  0  0  0
  160.4910  206.1860  145.6220 C   0  0  0  0  0  3  0  0  0  0  0  0
  161.3500  205.3590  144.8900 C   0  0  0  0  0  0  0  0  0  0  0  0
  162.0380  204.2660  146.9350 C   0  0  0  0  0  3  0  0  0  0  0  0
  161.1800  205.0960  147.6750 C   0  0  0  0  0  0  0  0  0  0  0  0
  161.4410  205.5040  143.4140 C   0  0  0  0  0  1  0  0  0  0  0  0
  160.4080  206.0550  147.0120 C   0  0  0  0  0  3  0  0  0  0  0  0
  1  4  1  0  0  0  0
  2 10  1  0  0  0  0
  2 12  1  0  0  0  0
  3  6  1  0  0  0  0
  4  8  1  0  0  0  0
  5  1  2  0  0  0  0
  6 10  2  0  0  0  0
  6  8  1  0  0  0  0
  7  1  1  0  0  0  0
  7  3  1  0  0  0  0
  9 13  1  0  0  0  0
 10  9  1  0  0  0  0
 11  2  2  0  0  0  0
 12 35  1  6  0  0  0
 12 13  1  0  0  0  0
 13 16  1  0  0  0  0
 14 11  1  0  0  0  0
 14  3  2  0  0  0  0
 16 15  1  6  0  0  0
 16 17  1  0  0  0  0
 17 18  1  0  0  0  0
 18 19  1  0  0  0  0
 19 21  1  0  0  0  0
 19 20  1  0  0  0  0
 22 21  1  6  0  0  0
 22 32  1  0  0  0  0
 23 25  2  0  0  0  0
 23 24  1  0  0  0  0
 24 22  1  0  0  0  0
 26 23  1  0  0  0  0
 27 31  1  0  0  0  0
 28 30  1  0  0  0  0
 29 28  1  0  0  0  0
 29 27  1  0  0  0  0
 30 26  1  0  0  0  0
 31 26  2  0  0  0  0
 34 33  1  0  0  0  0
 34 32  1  0  0  0  0
 36 35  1  0  0  0  0
 37 40  1  0  0  0  0
 38 43  2  0  0  0  0
 39 37  2  0  0  0  0
 39 38  1  0  0  0  0
 40 41  2  0  0  0  0
 41 36  1  0  0  0  0
 42 39  1  0  0  0  0
 43 41  1  0  0  0  0
M  END
>  <MODEL>
2

>  <REMARK>
 VINA RESULT:      -5.7      3.820      9.270
  Name = 
  13 active torsions:
  status: ('A' for Active; 'I' for Inactive)
    1  A    between atoms: C_1  and  O_28
    2  A    between atoms: C_1  and  C_34
    3  A    between atoms: C_2  and  C_6
    4  A    between atoms: C_2  and  C_13
    5  A    between atoms: C_3  and  C_4
    6  A    between atoms: C_3  and  N_12
    7  A    between atoms: C_4  and  C_15
    8  A    between atoms: C_4  and  N_22
    9  A    between atoms: C_6  and  N_12
   10  A    between atoms: C_11  and  C_14
   11  A    between atoms: C_13  and  N_38
   12  A    between atoms: C_15  and  C_42
   13  A    between atoms: O_28  and  C_35
                            x       y       z     vdW  Elec       q    Type
                         _______ _______ _______ _____ _____    ______ ____

>  <TORSDO>
F 13

$$$$
=
 OpenBabel11062410183D

 43 47  0  0  1  0  0  0  0  0999 V2000
  161.1450  213.1500  148.8860 C   0  0  0  0  0  0  0  0  0  0  0  0
  161.8200  208.3420  150.0760 C   0  0  0  0  0  0  0  0  0  0  0  0
  162.1270  210.8880  149.0880 C   0  0  0  0  0  0  0  0  0  0  0  0
  160.2990  212.9050  150.1120 C   0  0  0  0  0  2  0  0  0  0  0  0
  160.8840  214.1580  148.1400 N   0  0  0  0  0  2  0  0  0  0  0  0
  161.4350  210.6880  150.2980 C   0  0  0  0  0  0  0  0  0  0  0  0
  162.3190  212.2730  148.5490 C   0  0  0  0  0  2  0  0  0  0  0  0
  160.9080  211.8660  151.0580 C   0  0  0  0  0  2  0  0  0  0  0  0
  160.6490  208.8930  152.0020 C   0  0  0  0  0  2  0  0  0  0  0  0
  161.3050  209.3840  150.7730 C   0  0  0  0  0  0  0  0  0  0  0  0
  162.5000  208.5200  148.9120 N   0  0  0  0  0  0  0  0  0  0  0  0
  161.5360  207.0650  150.7550 C   0  0  1  0  0  3  0  0  0  0  0  0
  160.7990  207.4210  151.9910 N   0  0  0  0  0  0  0  0  0  0  0  0
  162.6640  209.7780  148.4090 C   0  0  0  0  0  3  0  0  0  0  0  0
  162.1650  205.6360  153.0850 C   0  0  0  0  0  1  0  0  0  0  0  0
  161.5710  207.0420  153.1870 C   0  0  2  0  0  3  0  0  0  0  0  0
  160.6990  207.1240  154.4430 C   0  0  0  0  0  2  0  0  0  0  0  0
  160.5250  208.5650  154.9100 C   0  0  0  0  0  2  0  0  0  0  0  0
  160.6090  208.6370  156.3630 N   0  0  0  0  0  0  0  0  0  0  0  0
  160.3260  207.3170  156.9000 C   0  0  0  0  0  1  0  0  0  0  0  0
  159.6600  209.6050  156.9430 C   0  0  0  0  0  2  0  0  0  0  0  0
  160.1210  211.0770  157.0500 C   0  0  2  0  0  3  0  0  0  0  0  0
  158.5480  211.9910  155.2820 C   0  0  0  0  0  0  0  0  0  0  0  0
  159.0920  212.0080  156.6050 N   0  0  0  0  0  2  0  0  0  0  0  0
  159.0150  211.2010  154.4170 O   0  0  0  0  0  0  0  0  0  0  0  0
  157.4410  212.8980  154.9440 C   0  0  0  0  0  0  0  0  0  0  0  0
  155.3330  214.0690  155.5060 C   0  0  0  0  0  2  0  0  0  0  0  0
  156.3270  214.4220  153.2570 C   0  0  0  0  0  2  0  0  0  0  0  0
  155.0400  214.0920  154.0090 C   0  0  0  0  0  2  0  0  0  0  0  0
  157.3770  213.4780  153.6330 N   0  0  0  0  0  2  0  0  0  0  0  0
  156.4580  213.1270  155.8240 C   0  0  0  0  0  3  0  0  0  0  0  0
  161.4310  211.3240  156.3040 C   0  0  0  0  0  2  0  0  0  0  0  0
  163.4580  210.3280  157.0870 O   0  0  0  0  0  1  0  0  0  0  0  0
  162.6080  211.4200  157.2600 C   0  0  0  0  0  2  0  0  0  0  0  0
  160.6470  206.2070  149.8650 C   0  0  0  0  0  2  0  0  0  0  0  0
  160.5440  204.8940  150.4000 O   0  0  0  0  0  0  0  0  0  0  0  0
  161.4230  202.6580  147.5630 C   0  0  0  0  0  3  0  0  0  0  0  0
  160.7080  201.3300  149.4570 C   0  0  0  0  0  3  0  0  0  0  0  0
  161.1660  201.4100  148.1380 C   0  0  0  0  0  0  0  0  0  0  0  0
  161.2190  203.8220  148.3060 C   0  0  0  0  0  3  0  0  0  0  0  0
  160.7560  203.7470  149.6300 C   0  0  0  0  0  0  0  0  0  0  0  0
  161.3780  200.1700  147.3480 C   0  0  0  0  0  1  0  0  0  0  0  0
  160.5020  202.4960  150.2010 C   0  0  0  0  0  3  0  0  0  0  0  0
  1  4  1  0  0  0  0
  2 12  1  0  0  0  0
  2 10  1  0  0  0  0
  3  6  1  0  0  0  0
  4  8  1  0  0  0  0
  5  1  2  0  0  0  0
  6 10  2  0  0  0  0
  6  8  1  0  0  0  0
  7  1  1  0  0  0  0
  7  3  1  0  0  0  0
 10  9  1  0  0  0  0
 11  2  2  0  0  0  0
 12 35  1  6  0  0  0
 12 13  1  0  0  0  0
 13  9  1  0  0  0  0
 13 16  1  0  0  0  0
 14 11  1  0  0  0  0
 14  3  2  0  0  0  0
 16 15  1  6  0  0  0
 16 17  1  0  0  0  0
 17 18  1  0  0  0  0
 18 19  1  0  0  0  0
 19 20  1  0  0  0  0
 19 21  1  0  0  0  0
 21 22  1  0  0  0  0
 22 32  1  6  0  0  0
 23 24  1  0  0  0  0
 24 22  1  0  0  0  0
 25 23  2  0  0  0  0
 26 23  1  0  0  0  0
 26 31  2  0  0  0  0
 27 31  1  0  0  0  0
 28 30  1  0  0  0  0
 28 29  1  0  0  0  0
 29 27  1  0  0  0  0
 30 26  1  0  0  0  0
 32 34  1  0  0  0  0
 33 34  1  0  0  0  0
 35 36  1  0  0  0  0
 37 39  2  0  0  0  0
 37 40  1  0  0  0  0
 38 43  2  0  0  0  0
 39 38  1  0  0  0  0
 40 41  2  0  0  0  0
 41 43  1  0  0  0  0
 41 36  1  0  0  0  0
 42 39  1  0  0  0  0
M  END
>  <MODEL>
3

>  <REMARK>
 VINA RESULT:      -5.6      4.062      9.644
  Name = 
  13 active torsions:
  status: ('A' for Active; 'I' for Inactive)
    1  A    between atoms: C_1  and  O_28
    2  A    between atoms: C_1  and  C_34
    3  A    between atoms: C_2  and  C_6
    4  A    between atoms: C_2  and  C_13
    5  A    between atoms: C_3  and  C_4
    6  A    between atoms: C_3  and  N_12
    7  A    between atoms: C_4  and  C_15
    8  A    between atoms: C_4  and  N_22
    9  A    between atoms: C_6  and  N_12
   10  A    between atoms: C_11  and  C_14
   11  A    between atoms: C_13  and  N_38
   12  A    between atoms: C_15  and  C_42
   13  A    between atoms: O_28  and  C_35
                            x       y       z     vdW  Elec       q    Type
                         _______ _______ _______ _____ _____    ______ ____

>  <TORSDO>
F 13

$$$$
=
 OpenBabel11062410183D

 43 47  0  0  1  0  0  0  0  0999 V2000
  161.2870  202.8790  150.3930 C   0  0  0  0  0  0  0  0  0  0  0  0
  161.2030  207.8690  150.1060 C   0  0  0  0  0  0  0  0  0  0  0  0
  160.6660  205.1940  149.7780 C   0  0  0  0  0  0  0  0  0  0  0  0
  161.9310  203.3770  151.6650 C   0  0  0  0  0  2  0  0  0  0  0  0
  161.5080  201.6760  150.0120 N   0  0  0  0  0  2  0  0  0  0  0  0
  161.1560  205.6610  151.0130 C   0  0  0  0  0  0  0  0  0  0  0  0
  160.3500  203.7410  149.5930 C   0  0  0  0  0  2  0  0  0  0  0  0
  161.3410  204.7040  152.1510 C   0  0  0  0  0  2  0  0  0  0  0  0
  161.9100  207.7770  152.3150 C   0  0  0  0  0  2  0  0  0  0  0  0
  161.4110  207.0250  151.1460 C   0  0  0  0  0  0  0  0  0  0  0  0
  160.7210  207.4350  148.9120 N   0  0  0  0  0  0  0  0  0  0  0  0
  161.5670  209.2490  150.4710 C   0  0  1  0  0  3  0  0  0  0  0  0
  162.0060  209.1900  151.8860 N   0  0  0  0  0  0  0  0  0  0  0  0
  160.4460  206.1100  148.7320 C   0  0  0  0  0  3  0  0  0  0  0  0
  160.0200  209.1270  153.4040 C   0  0  0  0  0  1  0  0  0  0  0  0
  161.1070  209.9800  152.7450 C   0  0  2  0  0  3  0  0  0  0  0  0
  160.4420  211.1040  151.9470 C   0  0  0  0  0  2  0  0  0  0  0  0
  159.0380  211.4020  152.4610 C   0  0  0  0  0  2  0  0  0  0  0  0
  158.6690  212.7760  152.1480 N   0  0  0  0  0  0  0  0  0  0  0  0
  159.7160  213.3510  151.3200 C   0  0  0  0  0  1  0  0  0  0  0  0
  158.4980  213.6110  153.3520 C   0  0  0  0  0  2  0  0  0  0  0  0
  157.9310  212.9260  154.6170 C   0  0  2  0  0  3  0  0  0  0  0  0
  159.8840  212.0510  155.9810 C   0  0  0  0  0  0  0  0  0  0  0  0
  158.7890  211.8430  155.0850 N   0  0  0  0  0  2  0  0  0  0  0  0
  160.1960  213.2210  156.3370 O   0  0  0  0  0  0  0  0  0  0  0  0
  160.6360  210.8930  156.4840 C   0  0  0  0  0  0  0  0  0  0  0  0
  162.7440  209.8020  157.1940 C   0  0  0  0  0  2  0  0  0  0  0  0
  160.6390  208.4830  157.2600 C   0  0  0  0  0  2  0  0  0  0  0  0
  162.0960  208.4770  156.8030 C   0  0  0  0  0  2  0  0  0  0  0  0
  159.9540  209.6520  156.7160 N   0  0  0  0  0  2  0  0  0  0  0  0
  161.9620  210.9680  156.6580 C   0  0  0  0  0  3  0  0  0  0  0  0
  156.5020  212.4300  154.4110 C   0  0  0  0  0  2  0  0  0  0  0  0
  156.1190  212.0430  156.7390 O   0  0  0  0  0  1  0  0  0  0  0  0
  156.0970  211.4330  155.4850 C   0  0  0  0  0  2  0  0  0  0  0  0
  162.7270  209.7130  149.6010 C   0  0  0  0  0  2  0  0  0  0  0  0
  162.7120  211.1300  149.4820 O   0  0  0  0  0  0  0  0  0  0  0  0
  160.4640  212.2930  146.7590 C   0  0  0  0  0  3  0  0  0  0  0  0
  162.6470  213.3060  146.5020 C   0  0  0  0  0  3  0  0  0  0  0  0
  161.3320  213.1350  146.0590 C   0  0  0  0  0  0  0  0  0  0  0  0
  160.9120  211.6210  147.8980 C   0  0  0  0  0  3  0  0  0  0  0  0
  162.2340  211.7870  148.3450 C   0  0  0  0  0  0  0  0  0  0  0  0
  160.8580  213.8470  144.8440 C   0  0  0  0  0  1  0  0  0  0  0  0
  163.0970  212.6320  147.6410 C   0  0  0  0  0  3  0  0  0  0  0  0
  1  4  1  0  0  0  0
  2 12  1  0  0  0  0
  2 10  1  0  0  0  0
  3  6  1  0  0  0  0
  4  8  1  0  0  0  0
  5  1  2  0  0  0  0
  6 10  2  0  0  0  0
  6  8  1  0  0  0  0
  7  3  1  0  0  0  0
  7  1  1  0  0  0  0
 10  9  1  0  0  0  0
 11  2  2  0  0  0  0
 12 35  1  6  0  0  0
 12 13  1  0  0  0  0
 13  9  1  0  0  0  0
 13 16  1  0  0  0  0
 14 11  1  0  0  0  0
 14  3  2  0  0  0  0
 16 15  1  6  0  0  0
 17 18  1  0  0  0  0
 17 16  1  0  0  0  0
 19 18  1  0  0  0  0
 19 21  1  0  0  0  0
 20 19  1  0  0  0  0
 22 21  1  6  0  0  0
 22 24  1  0  0  0  0
 23 25  2  0  0  0  0
 23 26  1  0  0  0  0
 24 23  1  0  0  0  0
 26 31  2  0  0  0  0
 26 30  1  0  0  0  0
 29 27  1  0  0  0  0
 29 28  1  0  0  0  0
 30 28  1  0  0  0  0
 31 27  1  0  0  0  0
 32 22  1  0  0  0  0
 32 34  1  0  0  0  0
 34 33  1  0  0  0  0
 36 35  1  0  0  0  0
 37 40  1  0  0  0  0
 38 43  2  0  0  0  0
 39 38  1  0  0  0  0
 39 37  2  0  0  0  0
 40 41  2  0  0  0  0
 41 36  1  0  0  0  0
 42 39  1  0  0  0  0
 43 41  1  0  0  0  0
M  END
>  <MODEL>
4

>  <REMARK>
 VINA RESULT:      -5.6      3.560      8.835
  Name = 
  13 active torsions:
  status: ('A' for Active; 'I' for Inactive)
    1  A    between atoms: C_1  and  O_28
    2  A    between atoms: C_1  and  C_34
    3  A    between atoms: C_2  and  C_6
    4  A    between atoms: C_2  and  C_13
    5  A    between atoms: C_3  and  C_4
    6  A    between atoms: C_3  and  N_12
    7  A    between atoms: C_4  and  C_15
    8  A    between atoms: C_4  and  N_22
    9  A    between atoms: C_6  and  N_12
   10  A    between atoms: C_11  and  C_14
   11  A    between atoms: C_13  and  N_38
   12  A    between atoms: C_15  and  C_42
   13  A    between atoms: O_28  and  C_35
                            x       y       z     vdW  Elec       q    Type
                         _______ _______ _______ _____ _____    ______ ____

>  <TORSDO>
F 13

$$$$
=
 OpenBabel11062410183D

 43 47  0  0  1  0  0  0  0  0999 V2000
  161.2430  201.6020  149.1040 C   0  0  0  0  0  0  0  0  0  0  0  0
  161.1830  206.5250  149.9730 C   0  0  0  0  0  0  0  0  0  0  0  0
  160.7110  204.0150  148.9590 C   0  0  0  0  0  0  0  0  0  0  0  0
  161.6890  201.7750  150.5360 C   0  0  0  0  0  2  0  0  0  0  0  0
  161.5230  200.5130  148.4910 N   0  0  0  0  0  2  0  0  0  0  0  0
  161.0110  204.1700  150.3260 C   0  0  0  0  0  0  0  0  0  0  0  0
  160.4310  202.6530  148.3990 C   0  0  0  0  0  2  0  0  0  0  0  0
  161.0290  202.9730  151.2260 C   0  0  0  0  0  2  0  0  0  0  0  0
  161.5550  205.9070  152.1780 C   0  0  0  0  0  2  0  0  0  0  0  0
  161.2370  205.4590  150.8070 C   0  0  0  0  0  0  0  0  0  0  0  0
  160.8850  206.3920  148.6530 N   0  0  0  0  0  0  0  0  0  0  0  0
  161.4840  207.7730  150.6960 C   0  0  1  0  0  3  0  0  0  0  0  0
  161.7080  207.3770  152.1080 N   0  0  0  0  0  0  0  0  0  0  0  0
  160.6450  205.1530  148.1340 C   0  0  0  0  0  3  0  0  0  0  0  0
  160.0930  209.2620  152.4100 C   0  0  0  0  0  1  0  0  0  0  0  0
  160.6880  207.9750  152.9860 C   0  0  2  0  0  3  0  0  0  0  0  0
  161.2720  208.2720  154.3700 C   0  0  0  0  0  2  0  0  0  0  0  0
  160.2450  208.9380  155.2800 C   0  0  0  0  0  2  0  0  0  0  0  0
  160.7710  210.1940  155.7970 N   0  0  0  0  0  0  0  0  0  0  0  0
  160.7040  210.1520  157.2480 C   0  0  0  0  0  1  0  0  0  0  0  0
  160.0210  211.3700  155.3170 C   0  0  0  0  0  2  0  0  0  0  0  0
  158.4780  211.2750  155.3150 C   0  0  2  0  0  3  0  0  0  0  0  0
  158.3490  213.1330  153.5920 C   0  0  0  0  0  0  0  0  0  0  0  0
  157.8920  211.8890  154.1290 N   0  0  0  0  0  2  0  0  0  0  0  0
  159.2410  213.7920  154.1940 O   0  0  0  0  0  0  0  0  0  0  0  0
  157.7730  213.6330  152.3350 C   0  0  0  0  0  0  0  0  0  0  0  0
  155.8660  214.4530  150.9840 C   0  0  0  0  0  2  0  0  0  0  0  0
  158.0980  214.2760  149.9080 C   0  0  0  0  0  2  0  0  0  0  0  0
  156.6170  213.9390  149.7590 C   0  0  0  0  0  2  0  0  0  0  0  0
  158.6030  213.7420  151.1700 N   0  0  0  0  0  2  0  0  0  0  0  0
  156.4670  213.9180  152.2530 C   0  0  0  0  0  3  0  0  0  0  0  0
  157.8640  211.8630  156.5840 C   0  0  0  0  0  2  0  0  0  0  0  0
  155.4770  211.8930  156.7190 O   0  0  0  0  0  1  0  0  0  0  0  0
  156.5830  212.6230  156.2830 C   0  0  0  0  0  2  0  0  0  0  0  0
  162.7580  208.3890  150.1350 C   0  0  0  0  0  2  0  0  0  0  0  0
  162.5190  208.9030  148.8310 O   0  0  0  0  0  0  0  0  0  0  0  0
  160.9140  212.2400  148.4980 C   0  0  0  0  0  3  0  0  0  0  0  0
  163.2540  212.3980  147.8990 C   0  0  0  0  0  3  0  0  0  0  0  0
  162.0040  213.0010  148.0690 C   0  0  0  0  0  0  0  0  0  0  0  0
  161.0730  210.8770  148.7540 C   0  0  0  0  0  3  0  0  0  0  0  0
  162.3260  210.2650  148.5820 C   0  0  0  0  0  0  0  0  0  0  0  0
  161.8350  214.4510  147.7910 C   0  0  0  0  0  1  0  0  0  0  0  0
  163.4140  211.0320  148.1540 C   0  0  0  0  0  3  0  0  0  0  0  0
  1  4  1  0  0  0  0
  2 12  1  0  0  0  0
  2 10  1  0  0  0  0
  3  6  1  0  0  0  0
  4  8  1  0  0  0  0
  5  1  2  0  0  0  0
  6 10  2  0  0  0  0
  6  8  1  0  0  0  0
  7  3  1  0  0  0  0
  7  1  1  0  0  0  0
 10  9  1  0  0  0  0
 11  2  2  0  0  0  0
 12 35  1  6  0  0  0
 12 13  1  0  0  0  0
 13  9  1  0  0  0  0
 13 16  1  0  0  0  0
 14 11  1  0  0  0  0
 14  3  2  0  0  0  0
 16 15  1  6  0  0  0
 16 17  1  0  0  0  0
 17 18  1  0  0  0  0
 18 19  1  0  0  0  0
 19 20  1  0  0  0  0
 21 19  1  0  0  0  0
 22 21  1  1  0  0  0
 22 32  1  0  0  0  0
 23 24  1  0  0  0  0
 23 25  2  0  0  0  0
 24 22  1  0  0  0  0
 26 23  1  0  0  0  0
 27 31  1  0  0  0  0
 28 30  1  0  0  0  0
 29 28  1  0  0  0  0
 29 27  1  0  0  0  0
 30 26  1  0  0  0  0
 31 26  2  0  0  0  0
 34 32  1  0  0  0  0
 34 33  1  0  0  0  0
 36 35  1  0  0  0  0
 37 40  1  0  0  0  0
 38 39  1  0  0  0  0
 38 43  2  0  0  0  0
 39 37  2  0  0  0  0
 41 40  2  0  0  0  0
 41 36  1  0  0  0  0
 42 39  1  0  0  0  0
 43 41  1  0  0  0  0
M  END
>  <MODEL>
5

>  <REMARK>
 VINA RESULT:      -4.8      3.844      7.395
  Name = 
  13 active torsions:
  status: ('A' for Active; 'I' for Inactive)
    1  A    between atoms: C_1  and  O_28
    2  A    between atoms: C_1  and  C_34
    3  A    between atoms: C_2  and  C_6
    4  A    between atoms: C_2  and  C_13
    5  A    between atoms: C_3  and  C_4
    6  A    between atoms: C_3  and  N_12
    7  A    between atoms: C_4  and  C_15
    8  A    between atoms: C_4  and  N_22
    9  A    between atoms: C_6  and  N_12
   10  A    between atoms: C_11  and  C_14
   11  A    between atoms: C_13  and  N_38
   12  A    between atoms: C_15  and  C_42
   13  A    between atoms: O_28  and  C_35
                            x       y       z     vdW  Elec       q    Type
                         _______ _______ _______ _____ _____    ______ ____

>  <TORSDO>
F 13

$$$$
=
 OpenBabel11062410183D

 43 47  0  0  1  0  0  0  0  0999 V2000
  161.1510  201.6690  150.4290 C   0  0  0  0  0  0  0  0  0  0  0  0
  160.9200  206.6550  150.1490 C   0  0  0  0  0  0  0  0  0  0  0  0
  160.3210  203.9740  150.0780 C   0  0  0  0  0  0  0  0  0  0  0  0
  162.2310  202.1850  151.3500 C   0  0  0  0  0  2  0  0  0  0  0  0
  161.2200  200.4630  150.0040 N   0  0  0  0  0  2  0  0  0  0  0  0
  161.2450  204.4580  151.0250 C   0  0  0  0  0  0  0  0  0  0  0  0
  159.9710  202.5170  150.0430 C   0  0  0  0  0  2  0  0  0  0  0  0
  161.8620  203.5160  152.0130 C   0  0  0  0  0  2  0  0  0  0  0  0
  162.4230  206.5930  151.9160 C   0  0  0  0  0  2  0  0  0  0  0  0
  161.5190  205.8250  151.0370 C   0  0  0  0  0  0  0  0  0  0  0  0
  160.0190  206.2040  149.2360 N   0  0  0  0  0  0  0  0  0  0  0  0
  161.3840  208.0410  150.3320 C   0  0  1  0  0  3  0  0  0  0  0  0
  162.3340  208.0020  151.4700 N   0  0  0  0  0  0  0  0  0  0  0  0
  159.7080  204.8760  149.1890 C   0  0  0  0  0  3  0  0  0  0  0  0
  160.8480  208.0170  153.4810 C   0  0  0  0  0  1  0  0  0  0  0  0
  161.8280  208.7970  152.6020 C   0  0  2  0  0  3  0  0  0  0  0  0
  161.1440  210.0730  152.1040 C   0  0  0  0  0  2  0  0  0  0  0  0
  159.7800  210.2680  152.7570 C   0  0  0  0  0  2  0  0  0  0  0  0
  159.8920  211.1650  153.8990 N   0  0  0  0  0  0  0  0  0  0  0  0
  158.7060  211.0020  154.7230 C   0  0  0  0  0  1  0  0  0  0  0  0
  160.0110  212.5810  153.5060 C   0  0  0  0  0  2  0  0  0  0  0  0
  159.1350  213.0670  152.3280 C   0  0  2  0  0  3  0  0  0  0  0  0
  159.2830  213.3630  149.8120 C   0  0  0  0  0  0  0  0  0  0  0  0
  159.8990  213.1910  151.0910 N   0  0  0  0  0  2  0  0  0  0  0  0
  158.0260  213.3310  149.7060 O   0  0  0  0  0  0  0  0  0  0  0  0
  160.1270  213.5820  148.6280 C   0  0  0  0  0  0  0  0  0  0  0  0
  160.4410  213.7640  146.1780 C   0  0  0  0  0  2  0  0  0  0  0  0
  162.4160  214.0580  147.6570 C   0  0  0  0  0  2  0  0  0  0  0  0
  161.8890  213.3450  146.4140 C   0  0  0  0  0  2  0  0  0  0  0  0
  161.5370  213.7890  148.7920 N   0  0  0  0  0  2  0  0  0  0  0  0
  159.6000  213.5180  147.3980 C   0  0  0  0  0  3  0  0  0  0  0  0
  158.4140  214.3740  152.6480 C   0  0  0  0  0  2  0  0  0  0  0  0
  156.4180  213.3650  153.4920 O   0  0  0  0  0  1  0  0  0  0  0  0
  157.4700  214.2160  153.8290 C   0  0  0  0  0  2  0  0  0  0  0  0
  162.1160  208.5000  149.0780 C   0  0  0  0  0  2  0  0  0  0  0  0
  162.8570  207.4210  148.5240 O   0  0  0  0  0  0  0  0  0  0  0  0
  162.2830  204.4460  146.3700 C   0  0  0  0  0  3  0  0  0  0  0  0
  160.7440  206.2090  145.7510 C   0  0  0  0  0  3  0  0  0  0  0  0
  161.2420  204.9150  145.5660 C   0  0  0  0  0  0  0  0  0  0  0  0
  162.8280  205.2700  147.3560 C   0  0  0  0  0  3  0  0  0  0  0  0
  162.3340  206.5720  147.5440 C   0  0  0  0  0  0  0  0  0  0  0  0
  160.6640  204.0400  144.5120 C   0  0  0  0  0  1  0  0  0  0  0  0
  161.2910  207.0360  146.7370 C   0  0  0  0  0  3  0  0  0  0  0  0
  1  4  1  0  0  0  0
  2 12  1  0  0  0  0
  2 10  1  0  0  0  0
  3  6  1  0  0  0  0
  4  8  1  0  0  0  0
  5  1  2  0  0  0  0
  6 10  2  0  0  0  0
  6  8  1  0  0  0  0
  7  3  1  0  0  0  0
  7  1  1  0  0  0  0
 10  9  1  0  0  0  0
 11  2  2  0  0  0  0
 12 35  1  6  0  0  0
 12 13  1  0  0  0  0
 13  9  1  0  0  0  0
 13 16  1  0  0  0  0
 14 11  1  0  0  0  0
 14  3  2  0  0  0  0
 16 15  1  6  0  0  0
 17 16  1  0  0  0  0
 17 18  1  0  0  0  0
 18 19  1  0  0  0  0
 19 20  1  0  0  0  0
 21 19  1  0  0  0  0
 22 32  1  1  0  0  0
 22 21  1  0  0  0  0
 23 24  1  0  0  0  0
 24 22  1  0  0  0  0
 25 23  2  0  0  0  0
 26 30  1  0  0  0  0
 26 23  1  0  0  0  0
 27 29  1  0  0  0  0
 27 31  1  0  0  0  0
 28 30  1  0  0  0  0
 29 28  1  0  0  0  0
 31 26  2  0  0  0  0
 32 34  1  0  0  0  0
 33 34  1  0  0  0  0
 36 35  1  0  0  0  0
 37 40  1  0  0  0  0
 38 43  2  0  0  0  0
 39 38  1  0  0  0  0
 39 37  2  0  0  0  0
 40 41  2  0  0  0  0
 41 36  1  0  0  0  0
 42 39  1  0  0  0  0
 43 41  1  0  0  0  0
M  END
>  <MODEL>
6

>  <REMARK>
 VINA RESULT:      -4.7      3.028      6.095
  Name = 
  13 active torsions:
  status: ('A' for Active; 'I' for Inactive)
    1  A    between atoms: C_1  and  O_28
    2  A    between atoms: C_1  and  C_34
    3  A    between atoms: C_2  and  C_6
    4  A    between atoms: C_2  and  C_13
    5  A    between atoms: C_3  and  C_4
    6  A    between atoms: C_3  and  N_12
    7  A    between atoms: C_4  and  C_15
    8  A    between atoms: C_4  and  N_22
    9  A    between atoms: C_6  and  N_12
   10  A    between atoms: C_11  and  C_14
   11  A    between atoms: C_13  and  N_38
   12  A    between atoms: C_15  and  C_42
   13  A    between atoms: O_28  and  C_35
                            x       y       z     vdW  Elec       q    Type
                         _______ _______ _______ _____ _____    ______ ____

>  <TORSDO>
F 13

$$$$
=
 OpenBabel11062410183D

 43 47  0  0  1  0  0  0  0  0999 V2000
  161.4050  204.2800  150.2900 C   0  0  0  0  0  0  0  0  0  0  0  0
  161.4710  209.1060  148.9860 C   0  0  0  0  0  0  0  0  0  0  0  0
  161.0510  206.3910  149.0470 C   0  0  0  0  0  0  0  0  0  0  0  0
  161.5860  205.0530  151.5740 C   0  0  0  0  0  2  0  0  0  0  0  0
  161.7310  203.0420  150.2560 N   0  0  0  0  0  2  0  0  0  0  0  0
  161.0990  207.1160  150.2530 C   0  0  0  0  0  0  0  0  0  0  0  0
  160.8020  204.9130  149.0670 C   0  0  0  0  0  2  0  0  0  0  0  0
  160.8800  206.4120  151.5570 C   0  0  0  0  0  2  0  0  0  0  0  0
  161.3890  209.4870  151.2740 C   0  0  0  0  0  2  0  0  0  0  0  0
  161.3070  208.4930  150.1840 C   0  0  0  0  0  0  0  0  0  0  0  0
  161.4160  208.4200  147.8130 N   0  0  0  0  0  0  0  0  0  0  0  0
  161.7030  210.5500  149.1630 C   0  0  1  0  0  3  0  0  0  0  0  0
  161.6370  210.7930  150.6240 N   0  0  0  0  0  0  0  0  0  0  0  0
  161.2050  207.0720  147.8250 C   0  0  0  0  0  3  0  0  0  0  0  0
  160.6370  213.0640  150.3190 C   0  0  0  0  0  1  0  0  0  0  0  0
  160.5080  211.6790  150.9570 C   0  0  2  0  0  3  0  0  0  0  0  0
  160.3730  211.8380  152.4730 C   0  0  0  0  0  2  0  0  0  0  0  0
  159.7100  213.1620  152.8400 C   0  0  0  0  0  2  0  0  0  0  0  0
  158.3230  212.9410  153.2270 N   0  0  0  0  0  0  0  0  0  0  0  0
  157.4680  213.5490  152.2210 C   0  0  0  0  0  1  0  0  0  0  0  0
  157.9980  213.5180  154.5440 C   0  0  0  0  0  2  0  0  0  0  0  0
  157.5780  212.5390  155.6650 C   0  0  2  0  0  3  0  0  0  0  0  0
  159.5210  210.9360  155.9670 C   0  0  0  0  0  0  0  0  0  0  0  0
  158.1990  211.2280  155.5090 N   0  0  0  0  0  2  0  0  0  0  0  0
  160.2370  211.8510  156.4600 O   0  0  0  0  0  0  0  0  0  0  0  0
  160.0350  209.5620  155.8630 C   0  0  0  0  0  0  0  0  0  0  0  0
  161.1910  207.7540  154.6280 C   0  0  0  0  0  2  0  0  0  0  0  0
  160.3460  207.2800  156.9150 C   0  0  0  0  0  2  0  0  0  0  0  0
  160.3910  206.7710  155.4770 C   0  0  0  0  0  2  0  0  0  0  0  0
  159.8180  208.6410  156.9430 N   0  0  0  0  0  2  0  0  0  0  0  0
  160.6380  209.1460  154.7430 C   0  0  0  0  0  3  0  0  0  0  0  0
  156.0610  212.4060  155.7730 C   0  0  0  0  0  2  0  0  0  0  0  0
  155.1640  210.3020  155.0760 O   0  0  0  0  0  1  0  0  0  0  0  0
  155.6510  211.0000  156.1810 C   0  0  0  0  0  2  0  0  0  0  0  0
  163.0930  210.9050  148.6530 C   0  0  0  0  0  2  0  0  0  0  0  0
  163.1360  212.2720  148.2640 O   0  0  0  0  0  0  0  0  0  0  0  0
  161.9220  214.4530  145.5090 C   0  0  0  0  0  3  0  0  0  0  0  0
  160.4290  212.5660  145.7720 C   0  0  0  0  0  3  0  0  0  0  0  0
  160.7790  213.7510  145.1180 C   0  0  0  0  0  0  0  0  0  0  0  0
  162.7130  213.9710  146.5540 C   0  0  0  0  0  3  0  0  0  0  0  0
  162.3640  212.7820  147.2160 C   0  0  0  0  0  0  0  0  0  0  0  0
  159.9330  214.2660  144.0100 C   0  0  0  0  0  1  0  0  0  0  0  0
  161.2200  212.0830  146.8200 C   0  0  0  0  0  3  0  0  0  0  0  0
  1  4  1  0  0  0  0
  2 12  1  0  0  0  0
  2 10  1  0  0  0  0
  3  7  1  0  0  0  0
  3  6  1  0  0  0  0
  5  1  2  0  0  0  0
  6  8  1  0  0  0  0
  7  1  1  0  0  0  0
  8  4  1  0  0  0  0
 10  6  2  0  0  0  0
 10  9  1  0  0  0  0
 11 14  1  0  0  0  0
 11  2  2  0  0  0  0
 12 35  1  1  0  0  0
 12 13  1  0  0  0  0
 13 16  1  0  0  0  0
 13  9  1  0  0  0  0
 14  3  2  0  0  0  0
 16 15  1  6  0  0  0
 16 17  1  0  0  0  0
 17 18  1  0  0  0  0
 18 19  1  0  0  0  0
 19 21  1  0  0  0  0
 20 19  1  0  0  0  0
 22 21  1  6  0  0  0
 22 32  1  0  0  0  0
 23 25  2  0  0  0  0
 24 22  1  0  0  0  0
 24 23  1  0  0  0  0
 26 23  1  0  0  0  0
 26 30  1  0  0  0  0
 27 31  1  0  0  0  0
 27 29  1  0  0  0  0
 28 30  1  0  0  0  0
 29 28  1  0  0  0  0
 31 26  2  0  0  0  0
 32 34  1  0  0  0  0
 33 34  1  0  0  0  0
 36 35  1  0  0  0  0
 37 40  1  0  0  0  0
 38 43  2  0  0  0  0
 39 37  2  0  0  0  0
 39 38  1  0  0  0  0
 40 41  2  0  0  0  0
 41 36  1  0  0  0  0
 42 39  1  0  0  0  0
 43 41  1  0  0  0  0
M  END
>  <MODEL>
7

>  <REMARK>
 VINA RESULT:      -4.6      3.487      9.120
  Name = 
  13 active torsions:
  status: ('A' for Active; 'I' for Inactive)
    1  A    between atoms: C_1  and  O_28
    2  A    between atoms: C_1  and  C_34
    3  A    between atoms: C_2  and  C_6
    4  A    between atoms: C_2  and  C_13
    5  A    between atoms: C_3  and  C_4
    6  A    between atoms: C_3  and  N_12
    7  A    between atoms: C_4  and  C_15
    8  A    between atoms: C_4  and  N_22
    9  A    between atoms: C_6  and  N_12
   10  A    between atoms: C_11  and  C_14
   11  A    between atoms: C_13  and  N_38
   12  A    between atoms: C_15  and  C_42
   13  A    between atoms: O_28  and  C_35
                            x       y       z     vdW  Elec       q    Type
                         _______ _______ _______ _____ _____    ______ ____

>  <TORSDO>
F 13

$$$$
=
 OpenBabel11062410183D

 43 47  0  0  1  0  0  0  0  0999 V2000
  159.8650  213.8170  142.8340 C   0  0  0  0  0  0  0  0  0  0  0  0
  161.8250  212.8570  147.3320 C   0  0  0  0  0  0  0  0  0  0  0  0
  161.3470  213.8530  144.8160 C   0  0  0  0  0  0  0  0  0  0  0  0
  158.7240  213.3070  143.6820 C   0  0  0  0  0  2  0  0  0  0  0  0
  159.7590  213.7790  141.5580 N   0  0  0  0  0  2  0  0  0  0  0  0
  160.2640  213.4930  145.6400 C   0  0  0  0  0  0  0  0  0  0  0  0
  161.0990  214.4170  143.4490 C   0  0  0  0  0  2  0  0  0  0  0  0
  158.8600  213.6930  145.1570 C   0  0  0  0  0  2  0  0  0  0  0  0
  159.6150  212.5610  147.9750 C   0  0  0  0  0  2  0  0  0  0  0  0
  160.5440  212.9980  146.9130 C   0  0  0  0  0  0  0  0  0  0  0  0
  162.8800  213.2110  146.5510 N   0  0  0  0  0  0  0  0  0  0  0  0
  161.8730  212.2920  148.6920 C   0  0  1  0  0  3  0  0  0  0  0  0
  160.4600  212.1150  149.1060 N   0  0  0  0  0  0  0  0  0  0  0  0
  162.6610  213.7100  145.3000 C   0  0  0  0  0  3  0  0  0  0  0  0
  160.5810  214.4220  150.0620 C   0  0  0  0  0  1  0  0  0  0  0  0
  160.1440  212.9700  150.2630 C   0  0  2  0  0  3  0  0  0  0  0  0
  160.7990  212.4240  151.5340 C   0  0  0  0  0  2  0  0  0  0  0  0
  159.9860  211.2840  152.1380 C   0  0  0  0  0  2  0  0  0  0  0  0
  160.8700  210.2120  152.5760 N   0  0  0  0  0  0  0  0  0  0  0  0
  162.1910  210.4570  152.0220 C   0  0  0  0  0  1  0  0  0  0  0  0
  160.4100  208.8790  152.1450 C   0  0  0  0  0  2  0  0  0  0  0  0
  161.1250  207.6500  152.7530 C   0  0  2  0  0  3  0  0  0  0  0  0
  161.2840  205.1570  152.3060 C   0  0  0  0  0  0  0  0  0  0  0  0
  161.1000  206.5010  151.8540 N   0  0  0  0  0  2  0  0  0  0  0  0
  161.5610  204.9290  153.5160 O   0  0  0  0  0  0  0  0  0  0  0  0
  161.1440  204.0480  151.3510 C   0  0  0  0  0  0  0  0  0  0  0  0
  160.7200  203.1720  149.0740 C   0  0  0  0  0  2  0  0  0  0  0  0
  161.1710  201.5550  150.9070 C   0  0  0  0  0  2  0  0  0  0  0  0
  160.2380  201.8880  149.7450 C   0  0  0  0  0  2  0  0  0  0  0  0
  161.2540  202.6950  151.8170 N   0  0  0  0  0  2  0  0  0  0  0  0
  160.8430  204.2900  150.0690 C   0  0  0  0  0  3  0  0  0  0  0  0
  160.5610  207.2750  154.1210 C   0  0  0  0  0  2  0  0  0  0  0  0
  161.3720  207.7670  156.3160 O   0  0  0  0  0  1  0  0  0  0  0  0
  160.8530  208.3470  155.1580 C   0  0  0  0  0  2  0  0  0  0  0  0
  162.5610  210.9350  148.6510 C   0  0  0  0  0  2  0  0  0  0  0  0
  161.6060  209.8970  148.8320 O   0  0  0  0  0  0  0  0  0  0  0  0
  161.1330  206.8160  146.8060 C   0  0  0  0  0  3  0  0  0  0  0  0
  163.0290  206.5360  148.2840 C   0  0  0  0  0  3  0  0  0  0  0  0
  162.1810  206.0320  147.2930 C   0  0  0  0  0  0  0  0  0  0  0  0
  160.9320  208.1020  147.3100 C   0  0  0  0  0  3  0  0  0  0  0  0
  161.7800  208.6130  148.3080 C   0  0  0  0  0  0  0  0  0  0  0  0
  162.3930  204.6600  146.7610 C   0  0  0  0  0  1  0  0  0  0  0  0
  162.8270  207.8240  148.7910 C   0  0  0  0  0  3  0  0  0  0  0  0
  1  7  1  0  0  0  0
  1  4  1  0  0  0  0
  2 12  1  0  0  0  0
  3 14  2  0  0  0  0
  3  6  1  0  0  0  0
  4  8  1  0  0  0  0
  5  1  2  0  0  0  0
  6 10  2  0  0  0  0
  7  3  1  0  0  0  0
  8  6  1  0  0  0  0
  9 13  1  0  0  0  0
 10  2  1  0  0  0  0
 10  9  1  0  0  0  0
 11  2  2  0  0  0  0
 12 35  1  6  0  0  0
 12 13  1  0  0  0  0
 13 16  1  0  0  0  0
 14 11  1  0  0  0  0
 16 15  1  6  0  0  0
 16 17  1  0  0  0  0
 17 18  1  0  0  0  0
 18 19  1  0  0  0  0
 20 19  1  0  0  0  0
 21 19  1  0  0  0  0
 22 21  1  6  0  0  0
 22 32  1  0  0  0  0
 23 25  2  0  0  0  0
 24 23  1  0  0  0  0
 24 22  1  0  0  0  0
 26 30  1  0  0  0  0
 26 23  1  0  0  0  0
 27 29  1  0  0  0  0
 27 31  1  0  0  0  0
 28 30  1  0  0  0  0
 29 28  1  0  0  0  0
 31 26  2  0  0  0  0
 32 34  1  0  0  0  0
 34 33  1  0  0  0  0
 35 36  1  0  0  0  0
 37 39  2  0  0  0  0
 37 40  1  0  0  0  0
 38 43  2  0  0  0  0
 39 38  1  0  0  0  0
 40 41  2  0  0  0  0
 41 43  1  0  0  0  0
 41 36  1  0  0  0  0
 42 39  1  0  0  0  0
M  END
>  <MODEL>
8

>  <REMARK>
 VINA RESULT:      -4.3      2.602      9.357
  Name = 
  13 active torsions:
  status: ('A' for Active; 'I' for Inactive)
    1  A    between atoms: C_1  and  O_28
    2  A    between atoms: C_1  and  C_34
    3  A    between atoms: C_2  and  C_6
    4  A    between atoms: C_2  and  C_13
    5  A    between atoms: C_3  and  C_4
    6  A    between atoms: C_3  and  N_12
    7  A    between atoms: C_4  and  C_15
    8  A    between atoms: C_4  and  N_22
    9  A    between atoms: C_6  and  N_12
   10  A    between atoms: C_11  and  C_14
   11  A    between atoms: C_13  and  N_38
   12  A    between atoms: C_15  and  C_42
   13  A    between atoms: O_28  and  C_35
                            x       y       z     vdW  Elec       q    Type
                         _______ _______ _______ _____ _____    ______ ____

>  <TORSDO>
F 13

$$$$
=
 OpenBabel11062410183D

 43 47  0  0  1  0  0  0  0  0999 V2000
  160.7320  212.2170  142.0100 C   0  0  0  0  0  0  0  0  0  0  0  0
  162.2310  212.4090  146.7760 C   0  0  0  0  0  0  0  0  0  0  0  0
  162.0600  212.6800  144.0470 C   0  0  0  0  0  0  0  0  0  0  0  0
  159.4800  212.0860  142.8430 C   0  0  0  0  0  2  0  0  0  0  0  0
  160.7140  211.8240  140.7920 N   0  0  0  0  0  2  0  0  0  0  0  0
  160.8850  212.6780  144.8220 C   0  0  0  0  0  0  0  0  0  0  0  0
  161.9820  212.8480  142.5590 C   0  0  0  0  0  2  0  0  0  0  0  0
  159.5550  212.8660  144.1590 C   0  0  0  0  0  2  0  0  0  0  0  0
  159.9610  212.5250  147.2440 C   0  0  0  0  0  2  0  0  0  0  0  0
  161.0100  212.5460  146.2040 C   0  0  0  0  0  0  0  0  0  0  0  0
  163.3750  212.4190  146.0420 N   0  0  0  0  0  0  0  0  0  0  0  0
  162.1120  212.2580  148.2370 C   0  0  1  0  0  3  0  0  0  0  0  0
  160.6620  212.3450  148.5340 N   0  0  0  0  0  0  0  0  0  0  0  0
  163.3090  212.5560  144.6850 C   0  0  0  0  0  3  0  0  0  0  0  0
  161.5750  214.4530  149.5200 C   0  0  0  0  0  1  0  0  0  0  0  0
  160.3700  213.5230  149.3700 C   0  0  2  0  0  3  0  0  0  0  0  0
  159.8930  213.0960  150.7600 C   0  0  0  0  0  2  0  0  0  0  0  0
  158.3740  212.9810  150.8200 C   0  0  0  0  0  2  0  0  0  0  0  0
  157.8480  213.8120  151.8950 N   0  0  0  0  0  0  0  0  0  0  0  0
  158.9710  214.3880  152.6150 C   0  0  0  0  0  1  0  0  0  0  0  0
  157.0070  213.0560  152.8420 C   0  0  0  0  0  2  0  0  0  0  0  0
  157.4910  212.9700  154.3090 C   0  0  2  0  0  3  0  0  0  0  0  0
  159.6610  211.8850  155.0520 C   0  0  0  0  0  0  0  0  0  0  0  0
  158.3280  211.7990  154.5410 N   0  0  0  0  0  2  0  0  0  0  0  0
  160.1920  213.0130  155.2450 O   0  0  0  0  0  0  0  0  0  0  0  0
  160.4010  210.6510  155.3540 C   0  0  0  0  0  0  0  0  0  0  0  0
  160.6940  208.1960  155.2170 C   0  0  0  0  0  2  0  0  0  0  0  0
  162.3850  209.5300  156.4570 C   0  0  0  0  0  2  0  0  0  0  0  0
  161.4840  208.2990  156.5190 C   0  0  0  0  0  2  0  0  0  0  0  0
  161.5840  210.7150  156.1640 N   0  0  0  0  0  2  0  0  0  0  0  0
  159.9390  209.4640  154.9400 C   0  0  0  0  0  3  0  0  0  0  0  0
  156.3310  213.0080  155.3000 C   0  0  0  0  0  2  0  0  0  0  0  0
  155.5200  211.8400  157.2230 O   0  0  0  0  0  1  0  0  0  0  0  0
  156.6800  212.2950  156.5960 C   0  0  0  0  0  2  0  0  0  0  0  0
  162.6310  210.8860  148.6470 C   0  0  0  0  0  2  0  0  0  0  0  0
  161.9190  210.4150  149.7830 O   0  0  0  0  0  0  0  0  0  0  0  0
  162.1180  206.7060  149.6230 C   0  0  0  0  0  3  0  0  0  0  0  0
  161.5780  207.3960  151.8790 C   0  0  0  0  0  3  0  0  0  0  0  0
  161.8310  206.3810  150.9510 C   0  0  0  0  0  0  0  0  0  0  0  0
  162.1500  208.0430  149.2230 C   0  0  0  0  0  3  0  0  0  0  0  0
  161.8930  209.0660  150.1510 C   0  0  0  0  0  0  0  0  0  0  0  0
  161.7930  204.9580  151.3770 C   0  0  0  0  0  1  0  0  0  0  0  0
  161.6080  208.7360  151.4790 C   0  0  0  0  0  3  0  0  0  0  0  0
  1  7  1  0  0  0  0
  1  4  1  0  0  0  0
  2 12  1  0  0  0  0
  3 14  2  0  0  0  0
  3  6  1  0  0  0  0
  4  8  1  0  0  0  0
  5  1  2  0  0  0  0
  6 10  2  0  0  0  0
  7  3  1  0  0  0  0
  8  6  1  0  0  0  0
  9 13  1  0  0  0  0
 10  2  1  0  0  0  0
 10  9  1  0  0  0  0
 11  2  2  0  0  0  0
 12 13  1  0  0  0  0
 12 35  1  6  0  0  0
 13 16  1  0  0  0  0
 14 11  1  0  0  0  0
 16 15  1  1  0  0  0
 16 17  1  0  0  0  0
 17 18  1  0  0  0  0
 18 19  1  0  0  0  0
 19 20  1  0  0  0  0
 19 21  1  0  0  0  0
 22 21  1  6  0  0  0
 22 24  1  0  0  0  0
 22 32  1  0  0  0  0
 23 25  2  0  0  0  0
 23 26  1  0  0  0  0
 24 23  1  0  0  0  0
 26 30  1  0  0  0  0
 27 29  1  0  0  0  0
 28 29  1  0  0  0  0
 30 28  1  0  0  0  0
 31 27  1  0  0  0  0
 31 26  2  0  0  0  0
 32 34  1  0  0  0  0
 34 33  1  0  0  0  0
 35 36  1  0  0  0  0
 36 41  1  0  0  0  0
 37 39  1  0  0  0  0
 39 42  1  0  0  0  0
 39 38  2  0  0  0  0
 40 37  2  0  0  0  0
 40 41  1  0  0  0  0
 41 43  2  0  0  0  0
 43 38  1  0  0  0  0
M  END
>  <MODEL>
9

>  <REMARK>
 VINA RESULT:      -4.0      3.781      9.180
  Name = 
  13 active torsions:
  status: ('A' for Active; 'I' for Inactive)
    1  A    between atoms: C_1  and  O_28
    2  A    between atoms: C_1  and  C_34
    3  A    between atoms: C_2  and  C_6
    4  A    between atoms: C_2  and  C_13
    5  A    between atoms: C_3  and  C_4
    6  A    between atoms: C_3  and  N_12
    7  A    between atoms: C_4  and  C_15
    8  A    between atoms: C_4  and  N_22
    9  A    between atoms: C_6  and  N_12
   10  A    between atoms: C_11  and  C_14
   11  A    between atoms: C_13  and  N_38
   12  A    between atoms: C_15  and  C_42
   13  A    between atoms: O_28  and  C_35
                            x       y       z     vdW  Elec       q    Type
                         _______ _______ _______ _____ _____    ______ ____

>  <TORSDO>
F 13

$$$$
