=
 OpenBabel11052423183D

 27 31  0  0  1  0  0  0  0  0999 V2000
  161.6360  207.1070  150.4260 C   0  0  2  0  0  3  0  0  0  0  0  0
  161.4500  207.1370  151.9240 C   0  0  0  0  0  0  0  0  0  0  0  0
  161.0640  209.6120  151.8460 C   0  0  0  0  0  0  0  0  0  0  0  0
  160.6550  207.2660  155.9470 N   0  0  0  0  0  0  0  0  0  0  0  0
  160.0310  209.2940  157.2610 C   0  0  0  0  0  1  0  0  0  0  0  0
  161.5380  205.9250  152.6460 C   0  0  0  0  0  3  0  0  0  0  0  0
  160.5000  209.2440  154.8110 N   0  0  0  0  0  2  0  0  0  0  0  0
  162.3770  210.9010  148.5600 C   0  0  0  0  0  3  0  0  0  0  0  0
  160.6170  210.6620  152.3830 O   0  0  0  0  0  0  0  0  0  0  0  0
  162.7160  209.7390  147.9430 N   0  0  0  0  0  0  0  0  0  0  0  0
  160.8400  208.2550  153.9680 C   0  0  0  0  0  0  0  0  0  0  0  0
  160.3960  208.5970  155.9990 C   0  0  0  0  0  0  0  0  0  0  0  0
  160.9330  207.0780  154.6490 C   0  0  0  0  0  0  0  0  0  0  0  0
  161.9520  208.4560  149.8160 C   0  0  0  0  0  0  0  0  0  0  0  0
  161.0970  208.3370  152.5930 C   0  0  0  0  0  0  0  0  0  0  0  0
  161.8160  210.8790  149.8360 C   0  0  0  0  0  3  0  0  0  0  0  0
  161.2850  205.8850  154.0270 C   0  0  0  0  0  3  0  0  0  0  0  0
  162.8630  207.4000  147.8680 F   0  0  0  0  0  0  0  0  0  0  0  0
  162.5200  208.5310  148.5340 C   0  0  0  0  0  0  0  0  0  0  0  0
  161.6020  209.6530  150.4750 C   0  0  0  0  0  0  0  0  0  0  0  0
  160.4470  206.4300  149.7230 C   0  0  0  0  0  2  0  0  0  0  0  0
  161.2860  202.4700  148.2850 C   0  0  0  0  0  3  0  0  0  0  0  0
  160.7600  205.0510  149.2290 C   0  0  0  0  0  0  0  0  0  0  0  0
  160.5200  203.9420  150.0480 C   0  0  0  0  0  3  0  0  0  0  0  0
  160.7830  202.6520  149.5760 C   0  0  0  0  0  3  0  0  0  0  0  0
  161.5280  203.5760  147.4650 C   0  0  0  0  0  3  0  0  0  0  0  0
  161.2650  204.8660  147.9370 C   0  0  0  0  0  3  0  0  0  0  0  0
  1 21  1  6  0  0  0
  1  2  1  0  0  0  0
  2 15  2  0  0  0  0
  2  6  1  0  0  0  0
  3  9  2  0  0  0  0
  3 15  1  0  0  0  0
  4 12  2  0  0  0  0
  6 17  2  0  0  0  0
  7 12  1  0  0  0  0
  8 16  1  0  0  0  0
 10 19  1  0  0  0  0
 10  8  2  0  0  0  0
 11 13  2  0  0  0  0
 11  7  1  0  0  0  0
 12  5  1  0  0  0  0
 13  4  1  0  0  0  0
 14  1  1  0  0  0  0
 14 20  1  0  0  0  0
 15 11  1  0  0  0  0
 16 20  2  0  0  0  0
 17 13  1  0  0  0  0
 18 19  1  0  0  0  0
 19 14  2  0  0  0  0
 20  3  1  0  0  0  0
 22 25  1  0  0  0  0
 23 21  1  0  0  0  0
 23 24  1  0  0  0  0
 25 24  2  0  0  0  0
 26 27  1  0  0  0  0
 26 22  2  0  0  0  0
 27 23  2  0  0  0  0
M  END
>  <MODEL>
1

>  <REMARK>
 VINA RESULT:      -9.1      0.000      0.000
  Name = 
  2 active torsions:
  status: ('A' for Active; 'I' for Inactive)
    1  A    between atoms: C_1  and  C_15
    2  A    between atoms: C_9  and  C_15
                            x       y       z     vdW  Elec       q    Type
                         _______ _______ _______ _____ _____    ______ ____

>  <TORSDO>
F 2

$$$$
=
 OpenBabel11052423183D

 27 31  0  0  1  0  0  0  0  0999 V2000
  161.0290  205.0950  149.1110 C   0  0  2  0  0  3  0  0  0  0  0  0
  160.9540  206.0540  150.2750 C   0  0  0  0  0  0  0  0  0  0  0  0
  161.3660  204.1700  151.8770 C   0  0  0  0  0  0  0  0  0  0  0  0
  161.0450  208.6240  153.4710 N   0  0  0  0  0  0  0  0  0  0  0  0
  161.4480  208.0000  155.8530 C   0  0  0  0  0  1  0  0  0  0  0  0
  160.7340  207.4250  150.0150 C   0  0  0  0  0  3  0  0  0  0  0  0
  161.4080  206.4140  153.9270 N   0  0  0  0  0  2  0  0  0  0  0  0
  160.6490  200.9330  150.0900 C   0  0  0  0  0  3  0  0  0  0  0  0
  161.7220  203.7700  153.0180 O   0  0  0  0  0  0  0  0  0  0  0  0
  160.4120  201.3800  148.8290 N   0  0  0  0  0  0  0  0  0  0  0  0
  161.2110  206.5850  152.6100 C   0  0  0  0  0  0  0  0  0  0  0  0
  161.3010  207.6780  154.4090 C   0  0  0  0  0  0  0  0  0  0  0  0
  160.9940  207.9040  152.3420 C   0  0  0  0  0  0  0  0  0  0  0  0
  160.8330  203.6430  149.4930 C   0  0  0  0  0  0  0  0  0  0  0  0
  161.1950  205.6120  151.6010 C   0  0  0  0  0  0  0  0  0  0  0  0
  160.9810  201.8320  151.1010 C   0  0  0  0  0  3  0  0  0  0  0  0
  160.7450  208.3690  151.0560 C   0  0  0  0  0  3  0  0  0  0  0  0
  160.2640  203.0900  147.2320 F   0  0  0  0  0  0  0  0  0  0  0  0
  160.4940  202.6990  148.5100 C   0  0  0  0  0  0  0  0  0  0  0  0
  161.0720  203.1980  150.8090 C   0  0  0  0  0  0  0  0  0  0  0  0
  162.3160  205.2980  148.2940 C   0  0  0  0  0  2  0  0  0  0  0  0
  161.5840  205.5100  144.0660 C   0  0  0  0  0  3  0  0  0  0  0  0
  162.0720  205.3910  146.8180 C   0  0  0  0  0  0  0  0  0  0  0  0
  162.9680  204.7990  145.9210 C   0  0  0  0  0  3  0  0  0  0  0  0
  162.7250  204.8590  144.5450 C   0  0  0  0  0  3  0  0  0  0  0  0
  160.6890  206.1040  144.9600 C   0  0  0  0  0  3  0  0  0  0  0  0
  160.9320  206.0440  146.3360 C   0  0  0  0  0  3  0  0  0  0  0  0
  1 21  1  1  0  0  0
  1 14  1  0  0  0  0
  1  2  1  0  0  0  0
  2 15  1  0  0  0  0
  3  9  2  0  0  0  0
  4 12  2  0  0  0  0
  6  2  2  0  0  0  0
  6 17  1  0  0  0  0
  7 12  1  0  0  0  0
  8 16  1  0  0  0  0
 10  8  2  0  0  0  0
 11  7  1  0  0  0  0
 12  5  1  0  0  0  0
 13 11  1  0  0  0  0
 13  4  1  0  0  0  0
 14 20  1  0  0  0  0
 15  3  1  0  0  0  0
 15 11  2  0  0  0  0
 17 13  2  0  0  0  0
 18 19  1  0  0  0  0
 19 10  1  0  0  0  0
 19 14  2  0  0  0  0
 20 16  2  0  0  0  0
 20  3  1  0  0  0  0
 22 25  2  0  0  0  0
 22 26  1  0  0  0  0
 23 21  1  0  0  0  0
 24 23  2  0  0  0  0
 25 24  1  0  0  0  0
 26 27  2  0  0  0  0
 27 23  1  0  0  0  0
M  END
>  <MODEL>
2

>  <REMARK>
 VINA RESULT:      -8.1      2.924      4.993
  Name = 
  2 active torsions:
  status: ('A' for Active; 'I' for Inactive)
    1  A    between atoms: C_1  and  C_15
    2  A    between atoms: C_9  and  C_15
                            x       y       z     vdW  Elec       q    Type
                         _______ _______ _______ _____ _____    ______ ____

>  <TORSDO>
F 2

$$$$
=
 OpenBabel11052423183D

 27 31  0  0  1  0  0  0  0  0999 V2000
  160.8600  207.3690  152.1040 C   0  0  2  0  0  3  0  0  0  0  0  0
  160.9210  206.3620  150.9800 C   0  0  0  0  0  0  0  0  0  0  0  0
  161.9820  208.0700  149.4830 C   0  0  0  0  0  0  0  0  0  0  0  0
  161.3820  203.6170  147.9660 N   0  0  0  0  0  0  0  0  0  0  0  0
  162.4300  204.0350  145.7410 C   0  0  0  0  0  1  0  0  0  0  0  0
  160.4400  205.0530  151.2110 C   0  0  0  0  0  3  0  0  0  0  0  0
  162.1720  205.7230  147.5590 N   0  0  0  0  0  2  0  0  0  0  0  0
  161.3570  211.4770  150.9620 C   0  0  0  0  0  3  0  0  0  0  0  0
  162.6560  208.3470  148.4540 O   0  0  0  0  0  0  0  0  0  0  0  0
  160.7620  211.1440  152.1370 N   0  0  0  0  0  0  0  0  0  0  0  0
  161.6440  205.6610  148.7930 C   0  0  0  0  0  0  0  0  0  0  0  0
  161.9930  204.4600  147.0970 C   0  0  0  0  0  0  0  0  0  0  0  0
  161.1720  204.4040  149.0310 C   0  0  0  0  0  0  0  0  0  0  0  0
  160.9820  208.8080  151.6510 C   0  0  0  0  0  0  0  0  0  0  0  0
  161.5350  206.6850  149.7430 C   0  0  0  0  0  0  0  0  0  0  0  0
  161.7810  210.4800  150.0840 C   0  0  0  0  0  3  0  0  0  0  0  0
  160.5570  204.0560  150.2280 C   0  0  0  0  0  3  0  0  0  0  0  0
  159.9810  209.5700  153.6900 F   0  0  0  0  0  0  0  0  0  0  0  0
  160.5650  209.8480  152.4980 C   0  0  0  0  0  0  0  0  0  0  0  0
  161.5920  209.1360  150.4230 C   0  0  0  0  0  0  0  0  0  0  0  0
  161.8690  207.0360  153.2160 C   0  0  0  0  0  2  0  0  0  0  0  0
  160.2960  207.7690  157.1460 C   0  0  0  0  0  3  0  0  0  0  0  0
  161.3320  207.2750  154.5940 C   0  0  0  0  0  0  0  0  0  0  0  0
  162.0020  208.1390  155.4670 C   0  0  0  0  0  3  0  0  0  0  0  0
  161.4840  208.3860  156.7420 C   0  0  0  0  0  3  0  0  0  0  0  0
  159.6270  206.9030  156.2760 C   0  0  0  0  0  3  0  0  0  0  0  0
  160.1440  206.6560  155.0000 C   0  0  0  0  0  3  0  0  0  0  0  0
  1 21  1  1  0  0  0
  2  6  1  0  0  0  0
  2  1  1  0  0  0  0
  3 15  1  0  0  0  0
  3 20  1  0  0  0  0
  4 13  1  0  0  0  0
  5 12  1  0  0  0  0
  7 11  1  0  0  0  0
  8 10  1  0  0  0  0
  9  3  2  0  0  0  0
 10 19  2  0  0  0  0
 11 13  2  0  0  0  0
 11 15  1  0  0  0  0
 12  7  1  0  0  0  0
 12  4  2  0  0  0  0
 13 17  1  0  0  0  0
 14  1  1  0  0  0  0
 14 19  1  0  0  0  0
 15  2  2  0  0  0  0
 16 20  1  0  0  0  0
 16  8  2  0  0  0  0
 17  6  2  0  0  0  0
 19 18  1  0  0  0  0
 20 14  2  0  0  0  0
 21 23  1  0  0  0  0
 23 27  2  0  0  0  0
 23 24  1  0  0  0  0
 24 25  2  0  0  0  0
 25 22  1  0  0  0  0
 26 22  2  0  0  0  0
 27 26  1  0  0  0  0
M  END
>  <MODEL>
3

>  <REMARK>
 VINA RESULT:      -8.0      2.493      6.372
  Name = 
  2 active torsions:
  status: ('A' for Active; 'I' for Inactive)
    1  A    between atoms: C_1  and  C_15
    2  A    between atoms: C_9  and  C_15
                            x       y       z     vdW  Elec       q    Type
                         _______ _______ _______ _____ _____    ______ ____

>  <TORSDO>
F 2

$$$$
=
 OpenBabel11052423183D

 27 31  0  0  1  0  0  0  0  0999 V2000
  161.2420  206.1460  149.4810 C   0  0  2  0  0  3  0  0  0  0  0  0
  161.2400  207.3720  150.3630 C   0  0  0  0  0  0  0  0  0  0  0  0
  161.6660  205.9450  152.3790 C   0  0  0  0  0  0  0  0  0  0  0  0
  161.5300  210.6670  152.7900 N   0  0  0  0  0  0  0  0  0  0  0  0
  162.0120  210.6560  155.2380 C   0  0  0  0  0  1  0  0  0  0  0  0
  161.0470  208.6400  149.7680 C   0  0  0  0  0  3  0  0  0  0  0  0
  161.8510  208.6340  153.7850 N   0  0  0  0  0  2  0  0  0  0  0  0
  160.7890  202.3880  151.5040 C   0  0  0  0  0  3  0  0  0  0  0  0
  162.0560  205.8360  153.5730 O   0  0  0  0  0  0  0  0  0  0  0  0
  160.5140  202.5070  150.1790 N   0  0  0  0  0  0  0  0  0  0  0  0
  161.6060  208.4710  152.4740 C   0  0  0  0  0  0  0  0  0  0  0  0
  161.7980  209.9830  153.9300 C   0  0  0  0  0  0  0  0  0  0  0  0
  161.4130  209.6850  151.8850 C   0  0  0  0  0  0  0  0  0  0  0  0
  161.0220  204.8480  150.2280 C   0  0  0  0  0  0  0  0  0  0  0  0
  161.5230  207.2740  151.7500 C   0  0  0  0  0  0  0  0  0  0  0  0
  161.1860  203.5030  152.2400 C   0  0  0  0  0  3  0  0  0  0  0  0
  161.1260  209.8170  150.5310 C   0  0  0  0  0  3  0  0  0  0  0  0
  160.3470  203.7590  148.2030 F   0  0  0  0  0  0  0  0  0  0  0  0
  160.6190  203.6980  149.5300 C   0  0  0  0  0  0  0  0  0  0  0  0
  161.3020  204.7440  151.6050 C   0  0  0  0  0  0  0  0  0  0  0  0
  162.5000  206.0880  148.5980 C   0  0  0  0  0  2  0  0  0  0  0  0
  161.6100  205.1430  144.5020 C   0  0  0  0  0  3  0  0  0  0  0  0
  162.2020  205.7750  147.1630 C   0  0  0  0  0  0  0  0  0  0  0  0
  163.0200  204.8880  146.4540 C   0  0  0  0  0  3  0  0  0  0  0  0
  162.7250  204.5730  145.1250 C   0  0  0  0  0  3  0  0  0  0  0  0
  160.7920  206.0310  145.2080 C   0  0  0  0  0  3  0  0  0  0  0  0
  161.0870  206.3460  146.5380 C   0  0  0  0  0  3  0  0  0  0  0  0
  1 21  1  1  0  0  0
  1 14  1  0  0  0  0
  1  2  1  0  0  0  0
  2 15  1  0  0  0  0
  3  9  2  0  0  0  0
  4 12  2  0  0  0  0
  6  2  2  0  0  0  0
  6 17  1  0  0  0  0
  7 12  1  0  0  0  0
  8 16  1  0  0  0  0
 10  8  2  0  0  0  0
 11  7  1  0  0  0  0
 12  5  1  0  0  0  0
 13 11  1  0  0  0  0
 13  4  1  0  0  0  0
 14 20  1  0  0  0  0
 15  3  1  0  0  0  0
 15 11  2  0  0  0  0
 17 13  2  0  0  0  0
 18 19  1  0  0  0  0
 19 10  1  0  0  0  0
 19 14  2  0  0  0  0
 20 16  2  0  0  0  0
 20  3  1  0  0  0  0
 22 25  2  0  0  0  0
 22 26  1  0  0  0  0
 23 21  1  0  0  0  0
 24 23  2  0  0  0  0
 25 24  1  0  0  0  0
 26 27  2  0  0  0  0
 27 23  1  0  0  0  0
M  END
>  <MODEL>
4

>  <REMARK>
 VINA RESULT:      -7.6      2.604      4.484
  Name = 
  2 active torsions:
  status: ('A' for Active; 'I' for Inactive)
    1  A    between atoms: C_1  and  C_15
    2  A    between atoms: C_9  and  C_15
                            x       y       z     vdW  Elec       q    Type
                         _______ _______ _______ _____ _____    ______ ____

>  <TORSDO>
F 2

$$$$
=
 OpenBabel11052423183D

 27 31  0  0  1  0  0  0  0  0999 V2000
  161.0430  204.4330  148.5900 C   0  0  2  0  0  3  0  0  0  0  0  0
  161.1560  205.8290  149.1570 C   0  0  0  0  0  0  0  0  0  0  0  0
  161.6970  204.8870  151.4160 C   0  0  0  0  0  0  0  0  0  0  0  0
  161.7580  209.5770  150.7120 N   0  0  0  0  0  0  0  0  0  0  0  0
  162.4390  210.1080  153.0530 C   0  0  0  0  0  1  0  0  0  0  0  0
  160.9580  206.9310  148.2950 C   0  0  0  0  0  3  0  0  0  0  0  0
  162.0890  207.8160  152.1320 N   0  0  0  0  0  2  0  0  0  0  0  0
  160.6300  201.2760  151.4690 C   0  0  0  0  0  3  0  0  0  0  0  0
  162.1800  205.0380  152.5710 O   0  0  0  0  0  0  0  0  0  0  0  0
  160.2510  201.0990  150.1760 N   0  0  0  0  0  0  0  0  0  0  0  0
  161.7320  207.3670  150.9180 C   0  0  0  0  0  0  0  0  0  0  0  0
  162.0950  209.1620  151.9590 C   0  0  0  0  0  0  0  0  0  0  0  0
  161.5340  208.4190  150.0740 C   0  0  0  0  0  0  0  0  0  0  0  0
  160.8410  203.3570  149.6350 C   0  0  0  0  0  0  0  0  0  0  0  0
  161.5480  206.0400  150.5030 C   0  0  0  0  0  0  0  0  0  0  0  0
  161.1240  202.5090  151.8910 C   0  0  0  0  0  3  0  0  0  0  0  0
  161.1400  208.2480  148.7520 C   0  0  0  0  0  3  0  0  0  0  0  0
  159.9650  201.8650  147.9780 F   0  0  0  0  0  0  0  0  0  0  0  0
  160.3430  202.0990  149.2590 C   0  0  0  0  0  0  0  0  0  0  0  0
  161.2300  203.5610  150.9750 C   0  0  0  0  0  0  0  0  0  0  0  0
  162.2220  204.1050  147.6580 C   0  0  0  0  0  2  0  0  0  0  0  0
  161.5310  205.3860  143.6150 C   0  0  0  0  0  3  0  0  0  0  0  0
  161.9920  204.5350  146.2410 C   0  0  0  0  0  0  0  0  0  0  0  0
  160.8520  204.1030  145.5530 C   0  0  0  0  0  3  0  0  0  0  0  0
  160.6220  204.5280  144.2410 C   0  0  0  0  0  3  0  0  0  0  0  0
  162.6720  205.8170  144.2990 C   0  0  0  0  0  3  0  0  0  0  0  0
  162.9020  205.3920  145.6120 C   0  0  0  0  0  3  0  0  0  0  0  0
  1 21  1  1  0  0  0
  1  2  1  0  0  0  0
  1 14  1  0  0  0  0
  2 15  1  0  0  0  0
  3  9  2  0  0  0  0
  4 12  2  0  0  0  0
  6 17  1  0  0  0  0
  6  2  2  0  0  0  0
  8 16  1  0  0  0  0
 10  8  2  0  0  0  0
 11  7  1  0  0  0  0
 12  7  1  0  0  0  0
 12  5  1  0  0  0  0
 13  4  1  0  0  0  0
 13 11  1  0  0  0  0
 14 20  1  0  0  0  0
 15 11  2  0  0  0  0
 15  3  1  0  0  0  0
 17 13  2  0  0  0  0
 18 19  1  0  0  0  0
 19 14  2  0  0  0  0
 19 10  1  0  0  0  0
 20  3  1  0  0  0  0
 20 16  2  0  0  0  0
 22 25  2  0  0  0  0
 22 26  1  0  0  0  0
 23 21  1  0  0  0  0
 24 23  2  0  0  0  0
 25 24  1  0  0  0  0
 26 27  2  0  0  0  0
 27 23  1  0  0  0  0
M  END
>  <MODEL>
5

>  <REMARK>
 VINA RESULT:      -7.1      3.080      5.478
  Name = 
  2 active torsions:
  status: ('A' for Active; 'I' for Inactive)
    1  A    between atoms: C_1  and  C_15
    2  A    between atoms: C_9  and  C_15
                            x       y       z     vdW  Elec       q    Type
                         _______ _______ _______ _____ _____    ______ ____

>  <TORSDO>
F 2

$$$$
=
 OpenBabel11052423183D

 27 31  0  0  1  0  0  0  0  0999 V2000
  160.7380  209.7810  153.0280 C   0  0  2  0  0  3  0  0  0  0  0  0
  160.9960  208.5060  152.2620 C   0  0  0  0  0  0  0  0  0  0  0  0
  160.9480  207.1920  154.3960 C   0  0  0  0  0  0  0  0  0  0  0  0
  161.4160  204.9630  150.2360 N   0  0  0  0  0  0  0  0  0  0  0  0
  161.4800  202.6840  151.2510 C   0  0  0  0  0  1  0  0  0  0  0  0
  161.1200  208.5700  150.8550 C   0  0  0  0  0  3  0  0  0  0  0  0
  161.2140  204.8230  152.5090 N   0  0  0  0  0  2  0  0  0  0  0  0
  161.4250  209.5890  157.2610 C   0  0  0  0  0  3  0  0  0  0  0  0
  160.8220  206.0870  154.9910 O   0  0  0  0  0  0  0  0  0  0  0  0
  161.4100  210.7800  156.6070 N   0  0  0  0  0  0  0  0  0  0  0  0
  161.1580  206.1080  152.1200 C   0  0  0  0  0  0  0  0  0  0  0  0
  161.3680  204.1650  151.3320 C   0  0  0  0  0  0  0  0  0  0  0  0
  161.2800  206.1870  150.7650 C   0  0  0  0  0  0  0  0  0  0  0  0
  161.0470  209.6860  154.5060 C   0  0  0  0  0  0  0  0  0  0  0  0
  161.0180  207.2500  152.9200 C   0  0  0  0  0  0  0  0  0  0  0  0
  161.2570  208.4000  156.5540 C   0  0  0  0  0  3  0  0  0  0  0  0
  161.2710  207.4020  150.0890 C   0  0  0  0  0  3  0  0  0  0  0  0
  161.2060  212.0720  154.6610 F   0  0  0  0  0  0  0  0  0  0  0  0
  161.2280  210.8570  155.2620 C   0  0  0  0  0  0  0  0  0  0  0  0
  161.0700  208.4410  155.1670 C   0  0  0  0  0  0  0  0  0  0  0  0
  159.3160  210.3120  152.7780 C   0  0  0  0  0  2  0  0  0  0  0  0
  159.1830  214.4460  151.6180 C   0  0  0  0  0  3  0  0  0  0  0  0
  159.2840  211.7580  152.3880 C   0  0  0  0  0  0  0  0  0  0  0  0
  160.1280  212.2300  151.3760 C   0  0  0  0  0  3  0  0  0  0  0  0
  160.0780  213.5730  150.9910 C   0  0  0  0  0  3  0  0  0  0  0  0
  158.3410  213.9780  152.6300 C   0  0  0  0  0  3  0  0  0  0  0  0
  158.3910  212.6340  153.0150 C   0  0  0  0  0  3  0  0  0  0  0  0
  1 21  1  1  0  0  0
  1 14  1  0  0  0  0
  2 15  1  0  0  0  0
  2  1  1  0  0  0  0
  3  9  2  0  0  0  0
  3 20  1  0  0  0  0
  4 13  1  0  0  0  0
  4 12  2  0  0  0  0
  5 12  1  0  0  0  0
  6  2  2  0  0  0  0
 10  8  1  0  0  0  0
 11  7  1  0  0  0  0
 11 15  2  0  0  0  0
 12  7  1  0  0  0  0
 13 11  1  0  0  0  0
 14 20  2  0  0  0  0
 14 19  1  0  0  0  0
 15  3  1  0  0  0  0
 16  8  2  0  0  0  0
 17 13  2  0  0  0  0
 17  6  1  0  0  0  0
 18 19  1  0  0  0  0
 19 10  2  0  0  0  0
 20 16  1  0  0  0  0
 22 26  1  0  0  0  0
 23 21  1  0  0  0  0
 23 27  1  0  0  0  0
 24 23  2  0  0  0  0
 25 24  1  0  0  0  0
 25 22  2  0  0  0  0
 26 27  2  0  0  0  0
M  END
>  <MODEL>
6

>  <REMARK>
 VINA RESULT:      -7.1      3.201      7.075
  Name = 
  2 active torsions:
  status: ('A' for Active; 'I' for Inactive)
    1  A    between atoms: C_1  and  C_15
    2  A    between atoms: C_9  and  C_15
                            x       y       z     vdW  Elec       q    Type
                         _______ _______ _______ _____ _____    ______ ____

>  <TORSDO>
F 2

$$$$
=
 OpenBabel11052423183D

 27 31  0  0  1  0  0  0  0  0999 V2000
  161.7240  206.1600  149.6060 C   0  0  2  0  0  3  0  0  0  0  0  0
  161.7060  205.2590  148.3950 C   0  0  0  0  0  0  0  0  0  0  0  0
  160.6090  203.4470  149.7360 C   0  0  0  0  0  0  0  0  0  0  0  0
  161.3630  202.8500  145.0920 N   0  0  0  0  0  0  0  0  0  0  0  0
  160.3260  200.5810  145.0250 C   0  0  0  0  0  1  0  0  0  0  0  0
  162.2240  205.7480  147.1740 C   0  0  0  0  0  3  0  0  0  0  0  0
  160.5120  202.0280  147.0480 N   0  0  0  0  0  2  0  0  0  0  0  0
  161.1130  204.2210  153.3870 C   0  0  0  0  0  3  0  0  0  0  0  0
  159.9380  202.3800  149.7800 O   0  0  0  0  0  0  0  0  0  0  0  0
  161.7050  205.4420  153.3140 N   0  0  0  0  0  0  0  0  0  0  0  0
  161.0290  203.2520  147.2500 C   0  0  0  0  0  0  0  0  0  0  0  0
  160.7350  201.8270  145.7250 C   0  0  0  0  0  0  0  0  0  0  0  0
  161.5360  203.7370  146.0810 C   0  0  0  0  0  0  0  0  0  0  0  0
  161.5620  205.4290  150.9220 C   0  0  0  0  0  0  0  0  0  0  0  0
  161.0960  203.9790  148.4460 C   0  0  0  0  0  0  0  0  0  0  0  0
  160.7300  203.5570  152.2230 C   0  0  0  0  0  3  0  0  0  0  0  0
  162.1490  204.9830  145.9980 C   0  0  0  0  0  3  0  0  0  0  0  0
  162.5180  207.2800  152.1060 F   0  0  0  0  0  0  0  0  0  0  0  0
  161.9370  206.0550  152.1220 C   0  0  0  0  0  0  0  0  0  0  0  0
  160.9550  204.1580  150.9790 C   0  0  0  0  0  0  0  0  0  0  0  0
  160.7130  207.3110  149.4680 C   0  0  0  0  0  2  0  0  0  0  0  0
  162.4710  211.2240  149.7060 C   0  0  0  0  0  3  0  0  0  0  0  0
  161.3450  208.6670  149.5540 C   0  0  0  0  0  0  0  0  0  0  0  0
  161.8090  209.2990  148.3950 C   0  0  0  0  0  3  0  0  0  0  0  0
  162.3710  210.5770  148.4710 C   0  0  0  0  0  3  0  0  0  0  0  0
  162.0100  210.5940  150.8660 C   0  0  0  0  0  3  0  0  0  0  0  0
  161.4470  209.3160  150.7900 C   0  0  0  0  0  3  0  0  0  0  0  0
  1 21  1  6  0  0  0
  1 14  1  0  0  0  0
  2 15  1  0  0  0  0
  2  1  1  0  0  0  0
  3  9  2  0  0  0  0
  3 20  1  0  0  0  0
  4 12  2  0  0  0  0
  4 13  1  0  0  0  0
  5 12  1  0  0  0  0
  6  2  2  0  0  0  0
  7 11  1  0  0  0  0
 10  8  1  0  0  0  0
 11 15  2  0  0  0  0
 12  7  1  0  0  0  0
 13 11  1  0  0  0  0
 14 20  2  0  0  0  0
 14 19  1  0  0  0  0
 15  3  1  0  0  0  0
 16  8  2  0  0  0  0
 17 13  2  0  0  0  0
 17  6  1  0  0  0  0
 18 19  1  0  0  0  0
 19 10  2  0  0  0  0
 20 16  1  0  0  0  0
 21 23  1  0  0  0  0
 22 26  1  0  0  0  0
 23 27  1  0  0  0  0
 24 25  1  0  0  0  0
 24 23  2  0  0  0  0
 25 22  2  0  0  0  0
 27 26  2  0  0  0  0
M  END
>  <MODEL>
7

>  <REMARK>
 VINA RESULT:      -6.9      3.219      7.678
  Name = 
  2 active torsions:
  status: ('A' for Active; 'I' for Inactive)
    1  A    between atoms: C_1  and  C_15
    2  A    between atoms: C_9  and  C_15
                            x       y       z     vdW  Elec       q    Type
                         _______ _______ _______ _____ _____    ______ ____

>  <TORSDO>
F 2

$$$$
=
 OpenBabel11052423183D

 27 31  0  0  1  0  0  0  0  0999 V2000
  161.0910  206.7290  151.8350 C   0  0  2  0  0  3  0  0  0  0  0  0
  161.2560  207.7640  150.7480 C   0  0  0  0  0  0  0  0  0  0  0  0
  161.9530  209.4670  152.4500 C   0  0  0  0  0  0  0  0  0  0  0  0
  162.0010  210.5550  147.8350 N   0  0  0  0  0  0  0  0  0  0  0  0
  162.8560  212.8710  148.1980 C   0  0  0  0  0  1  0  0  0  0  0  0
  161.0050  207.3910  149.4080 C   0  0  0  0  0  3  0  0  0  0  0  0
  162.4210  211.1910  149.9900 N   0  0  0  0  0  2  0  0  0  0  0  0
  160.8630  208.2480  155.8430 C   0  0  0  0  0  3  0  0  0  0  0  0
  162.5210  210.5580  152.7300 O   0  0  0  0  0  0  0  0  0  0  0  0
  160.3890  207.0130  155.5350 N   0  0  0  0  0  0  0  0  0  0  0  0
  161.9720  209.9250  149.9630 C   0  0  0  0  0  0  0  0  0  0  0  0
  162.4250  211.5310  148.6760 C   0  0  0  0  0  0  0  0  0  0  0  0
  161.7210  209.5500  148.6770 C   0  0  0  0  0  0  0  0  0  0  0  0
  160.9570  207.3110  153.2260 C   0  0  0  0  0  0  0  0  0  0  0  0
  161.7480  209.0620  151.0440 C   0  0  0  0  0  0  0  0  0  0  0  0
  161.3970  209.0630  154.8460 C   0  0  0  0  0  3  0  0  0  0  0  0
  161.2310  208.2910  148.3530 C   0  0  0  0  0  3  0  0  0  0  0  0
  159.9490  205.2840  154.0130 F   0  0  0  0  0  0  0  0  0  0  0  0
  160.4210  206.5300  154.2640 C   0  0  0  0  0  0  0  0  0  0  0  0
  161.4440  208.5990  153.5270 C   0  0  0  0  0  0  0  0  0  0  0  0
  162.1950  205.6600  151.7700 C   0  0  0  0  0  2  0  0  0  0  0  0
  160.7940  201.9480  150.1230 C   0  0  0  0  0  3  0  0  0  0  0  0
  161.7260  204.3610  151.1900 C   0  0  0  0  0  0  0  0  0  0  0  0
  161.6480  203.2200  151.9970 C   0  0  0  0  0  3  0  0  0  0  0  0
  161.1820  202.0140  151.4640 C   0  0  0  0  0  3  0  0  0  0  0  0
  160.8730  203.0850  149.3140 C   0  0  0  0  0  3  0  0  0  0  0  0
  161.3380  204.2910  149.8470 C   0  0  0  0  0  3  0  0  0  0  0  0
  1 21  1  1  0  0  0
  1 14  1  0  0  0  0
  2 15  1  0  0  0  0
  2  1  1  0  0  0  0
  3  9  2  0  0  0  0
  3 20  1  0  0  0  0
  4 12  2  0  0  0  0
  4 13  1  0  0  0  0
  5 12  1  0  0  0  0
  6  2  2  0  0  0  0
 10  8  1  0  0  0  0
 11  7  1  0  0  0  0
 11 15  2  0  0  0  0
 12  7  1  0  0  0  0
 13 11  1  0  0  0  0
 14 20  2  0  0  0  0
 14 19  1  0  0  0  0
 15  3  1  0  0  0  0
 16  8  2  0  0  0  0
 17 13  2  0  0  0  0
 17  6  1  0  0  0  0
 18 19  1  0  0  0  0
 19 10  2  0  0  0  0
 20 16  1  0  0  0  0
 22 25  1  0  0  0  0
 23 21  1  0  0  0  0
 23 24  1  0  0  0  0
 25 24  2  0  0  0  0
 26 27  1  0  0  0  0
 26 22  2  0  0  0  0
 27 23  2  0  0  0  0
M  END
>  <MODEL>
8

>  <REMARK>
 VINA RESULT:      -6.9      1.885      5.153
  Name = 
  2 active torsions:
  status: ('A' for Active; 'I' for Inactive)
    1  A    between atoms: C_1  and  C_15
    2  A    between atoms: C_9  and  C_15
                            x       y       z     vdW  Elec       q    Type
                         _______ _______ _______ _____ _____    ______ ____

>  <TORSDO>
F 2

$$$$
=
 OpenBabel11052423183D

 27 31  0  0  1  0  0  0  0  0999 V2000
  161.2320  209.0620  150.2690 C   0  0  2  0  0  3  0  0  0  0  0  0
  160.8710  209.0270  151.7350 C   0  0  0  0  0  0  0  0  0  0  0  0
  161.4620  206.5930  151.8400 C   0  0  0  0  0  0  0  0  0  0  0  0
  160.1820  208.9060  155.7770 N   0  0  0  0  0  0  0  0  0  0  0  0
  160.4600  206.9180  157.2610 C   0  0  0  0  0  1  0  0  0  0  0  0
  160.4310  210.2170  152.3570 C   0  0  0  0  0  3  0  0  0  0  0  0
  160.8960  206.9640  154.8040 N   0  0  0  0  0  2  0  0  0  0  0  0
  161.5240  205.2470  148.3240 C   0  0  0  0  0  3  0  0  0  0  0  0
  161.7730  205.5760  152.5190 O   0  0  0  0  0  0  0  0  0  0  0  0
  161.3330  206.3860  147.6070 N   0  0  0  0  0  0  0  0  0  0  0  0
  160.8000  207.9340  153.8800 C   0  0  0  0  0  0  0  0  0  0  0  0
  160.5140  207.6010  155.9410 C   0  0  0  0  0  0  0  0  0  0  0  0
  160.3730  209.0890  154.4630 C   0  0  0  0  0  0  0  0  0  0  0  0
  161.2680  207.7010  149.6090 C   0  0  0  0  0  0  0  0  0  0  0  0
  161.0590  207.8500  152.5050 C   0  0  0  0  0  0  0  0  0  0  0  0
  161.5860  205.2970  149.7150 C   0  0  0  0  0  3  0  0  0  0  0  0
  160.1690  210.2570  153.7370 C   0  0  0  0  0  3  0  0  0  0  0  0
  161.0310  208.7060  147.4470 F   0  0  0  0  0  0  0  0  0  0  0  0
  161.2040  207.5980  148.2100 C   0  0  0  0  0  0  0  0  0  0  0  0
  161.4550  206.5280  150.3680 C   0  0  0  0  0  0  0  0  0  0  0  0
  162.5340  209.8450  150.0270 C   0  0  0  0  0  2  0  0  0  0  0  0
  161.9810  213.4800  147.8050 C   0  0  0  0  0  3  0  0  0  0  0  0
  162.3300  211.1020  149.2370 C   0  0  0  0  0  0  0  0  0  0  0  0
  161.2320  211.9290  149.5070 C   0  0  0  0  0  3  0  0  0  0  0  0
  161.0580  213.1170  148.7910 C   0  0  0  0  0  3  0  0  0  0  0  0
  163.0760  212.6550  147.5330 C   0  0  0  0  0  3  0  0  0  0  0  0
  163.2510  211.4670  148.2490 C   0  0  0  0  0  3  0  0  0  0  0  0
  1 21  1  1  0  0  0
  1  2  1  0  0  0  0
  2  6  2  0  0  0  0
  2 15  1  0  0  0  0
  3 15  1  0  0  0  0
  3  9  2  0  0  0  0
  4 12  2  0  0  0  0
  6 17  1  0  0  0  0
  7 12  1  0  0  0  0
  8 16  1  0  0  0  0
 10 19  1  0  0  0  0
 10  8  2  0  0  0  0
 11 13  1  0  0  0  0
 11  7  1  0  0  0  0
 12  5  1  0  0  0  0
 13  4  1  0  0  0  0
 14  1  1  0  0  0  0
 14 20  1  0  0  0  0
 15 11  2  0  0  0  0
 16 20  2  0  0  0  0
 17 13  2  0  0  0  0
 18 19  1  0  0  0  0
 19 14  2  0  0  0  0
 20  3  1  0  0  0  0
 22 25  1  0  0  0  0
 23 24  1  0  0  0  0
 23 21  1  0  0  0  0
 25 24  2  0  0  0  0
 26 22  2  0  0  0  0
 26 27  1  0  0  0  0
 27 23  2  0  0  0  0
M  END
>  <MODEL>
9

>  <REMARK>
 VINA RESULT:      -6.3      1.854      5.037
  Name = 
  2 active torsions:
  status: ('A' for Active; 'I' for Inactive)
    1  A    between atoms: C_1  and  C_15
    2  A    between atoms: C_9  and  C_15
                            x       y       z     vdW  Elec       q    Type
                         _______ _______ _______ _____ _____    ______ ____

>  <TORSDO>
F 2

$$$$
