=
 OpenBabel11062410173D

 43 48  0  0  1  0  0  0  0  0999 V2000
  161.5040  213.1310  141.7320 C   0  0  0  0  0  0  0  0  0  0  0  0
  160.4150  212.7130  146.6110 C   0  0  0  0  0  0  0  0  0  0  0  0
  160.3410  212.8750  143.8410 C   0  0  0  0  0  0  0  0  0  0  0  0
  162.7270  213.2230  142.4090 C   0  0  0  0  0  3  0  0  0  0  0  0
  161.4670  213.2300  139.9860 Cl  0  0  0  0  0  0  0  0  0  0  0  0
  161.5810  212.9710  144.5250 C   0  0  0  0  0  0  0  0  0  0  0  0
  160.3140  212.9570  142.4460 C   0  0  0  0  0  3  0  0  0  0  0  0
  162.7680  213.1420  143.8060 C   0  0  0  0  0  3  0  0  0  0  0  0
  162.6610  212.9160  146.7990 N   0  0  0  0  0  2  0  0  0  0  0  0
  161.5640  212.8830  145.9170 C   0  0  0  0  0  0  0  0  0  0  0  0
  159.1780  212.6040  145.9720 C   0  0  0  0  0  3  0  0  0  0  0  0
  160.7550  212.6200  148.0590 C   0  0  1  0  0  3  0  0  0  0  0  0
  162.2280  212.7540  148.1320 N   0  0  0  0  0  0  0  0  0  0  0  0
  159.1480  212.6920  144.5680 C   0  0  0  0  0  3  0  0  0  0  0  0
  160.1000  213.7600  148.8220 C   0  0  0  0  0  2  0  0  0  0  0  0
  158.9030  213.3020  149.4360 O   0  0  0  0  0  0  0  0  0  0  0  0
  159.5950  212.3190  152.9280 C   0  0  0  0  0  3  0  0  0  0  0  0
  157.1090  214.0570  152.6440 C   0  0  0  0  0  3  0  0  0  0  0  0
  157.4410  213.2630  153.6610 C   0  0  0  0  0  3  0  0  0  0  0  0
  159.7750  212.8700  151.7280 C   0  0  0  0  0  3  0  0  0  0  0  0
  158.7000  213.3410  150.8170 C   0  0  0  0  0  0  0  0  0  0  0  0
  158.2490  212.0210  153.4940 C   0  0  0  0  0  2  0  0  0  0  0  0
  157.5500  213.8830  151.2450 C   0  0  0  0  0  3  0  0  0  0  0  0
  162.7480  211.4700  148.5960 C   0  0  0  0  0  2  0  0  0  0  0  0
  161.6880  210.5810  149.2620 C   0  0  1  0  0  3  0  0  0  0  0  0
  162.3440  209.2760  149.6870 C   0  0  1  0  0  3  0  0  0  0  0  0
  161.9280  210.2830  150.7390 C   0  0  0  0  0  2  0  0  0  0  0  0
  161.3870  208.0680  149.6270 C   0  0  1  0  0  3  0  0  0  0  0  0
  161.5830  207.2780  148.4840 O   0  0  0  0  0  1  0  0  0  0  0  0
  162.7900  206.9940  151.2520 O   0  0  0  0  0  1  0  0  0  0  0  0
  161.4480  207.2010  150.9000 C   0  0  1  0  0  0  0  0  0  0  0  0
  160.6730  207.8810  152.0490 C   0  0  0  0  0  2  0  0  0  0  0  0
  160.7600  208.7990  154.3720 C   0  0  0  0  0  1  0  0  0  0  0  0
  161.3350  207.7700  153.4190 C   0  0  0  0  0  2  0  0  0  0  0  0
  160.8120  205.9120  150.5990 N   0  0  0  0  0  2  0  0  0  0  0  0
  161.5030  204.8130  151.2740 C   0  0  1  0  0  3  0  0  0  0  0  0
  160.8100  204.4840  152.4410 O   0  0  0  0  0  1  0  0  0  0  0  0
  161.5810  203.5980  150.3520 C   0  0  0  0  0  3  0  0  0  0  0  0
  160.6600  202.8160  148.0780 C   0  0  0  0  0  2  0  0  0  0  0  0
  160.8330  201.2000  150.0070 C   0  0  0  0  0  2  0  0  0  0  0  0
  161.2370  201.4850  148.5540 C   0  0  0  0  0  2  0  0  0  0  0  0
  160.6840  202.4660  150.8610 C   0  0  0  0  0  2  0  0  0  0  0  0
  161.2010  203.9870  148.9120 C   0  0  0  0  0  2  0  0  0  0  0  0
  1  4  2  0  0  0  0
  1  7  1  0  0  0  0
  2 12  1  0  0  0  0
  3  6  1  0  0  0  0
  3 14  1  0  0  0  0
  4  8  1  0  0  0  0
  5  1  1  0  0  0  0
  6 10  1  0  0  0  0
  7  3  2  0  0  0  0
  8  6  2  0  0  0  0
  9 13  1  0  0  0  0
 10  2  2  0  0  0  0
 10  9  1  0  0  0  0
 11  2  1  0  0  0  0
 12 13  1  0  0  0  0
 12 15  1  1  0  0  0
 13 24  1  0  0  0  0
 14 11  2  0  0  0  0
 15 16  1  0  0  0  0
 16 21  1  0  0  0  0
 17 22  1  0  0  0  0
 18 19  2  0  0  0  0
 20 17  2  0  0  0  0
 21 23  2  0  0  0  0
 21 20  1  0  0  0  0
 22 19  1  0  0  0  0
 23 18  1  0  0  0  0
 25 24  1  6  0  0  0
 25 26  1  0  0  0  0
 25 27  1  0  0  0  0
 26 28  1  1  0  0  0
 26 27  1  0  0  0  0
 28 29  1  6  0  0  0
 28 31  1  0  0  0  0
 31 30  1  1  0  0  0
 31 32  1  0  0  0  0
 32 34  1  0  0  0  0
 34 33  1  0  0  0  0
 35 31  1  0  0  0  0
 35 36  1  0  0  0  0
 36 37  1  1  0  0  0
 38 42  1  0  0  0  0
 38 36  1  0  0  0  0
 39 41  1  0  0  0  0
 39 43  1  0  0  0  0
 40 42  1  0  0  0  0
 41 40  1  0  0  0  0
 43 38  1  0  0  0  0
M  END
>  <MODEL>
1

>  <REMARK>
 VINA RESULT:      -8.0      0.000      0.000
  Name = 
  12 active torsions:
  status: ('A' for Active; 'I' for Inactive)
    1  A    between atoms: C_1  and  O_28
    2  A    between atoms: C_1  and  C_34
    3  A    between atoms: C_2  and  C_13
    4  A    between atoms: C_4  and  C_12
    5  A    between atoms: C_4  and  C_15
    6  A    between atoms: C_4  and  N_22
    7  A    between atoms: C_6  and  C_12
    8  A    between atoms: C_11  and  C_14
    9  A    between atoms: C_13  and  N_38
   10  A    between atoms: C_14  and  N_22
   11  A    between atoms: C_15  and  C_42
   12  A    between atoms: O_28  and  C_35
                            x       y       z     vdW  Elec       q    Type
                         _______ _______ _______ _____ _____    ______ ____

>  <TORSDO>
F 12

$$$$
=
 OpenBabel11062410173D

 43 48  0  0  1  0  0  0  0  0999 V2000
  160.7050  207.8960  155.4750 C   0  0  0  0  0  0  0  0  0  0  0  0
  161.3890  207.8820  150.5060 C   0  0  0  0  0  0  0  0  0  0  0  0
  160.7990  207.2490  153.1430 C   0  0  0  0  0  0  0  0  0  0  0  0
  161.2020  209.1650  155.1510 C   0  0  0  0  0  3  0  0  0  0  0  0
  160.3320  207.5070  157.1390 Cl  0  0  0  0  0  0  0  0  0  0  0  0
  161.3040  208.5360  152.8170 C   0  0  0  0  0  0  0  0  0  0  0  0
  160.5030  206.9410  154.4740 C   0  0  0  0  0  3  0  0  0  0  0  0
  161.5010  209.4880  153.8230 C   0  0  0  0  0  3  0  0  0  0  0  0
  162.0560  210.0060  150.9160 N   0  0  0  0  0  2  0  0  0  0  0  0
  161.5850  208.8040  151.4780 C   0  0  0  0  0  0  0  0  0  0  0  0
  160.8840  206.6110  150.7870 C   0  0  0  0  0  3  0  0  0  0  0  0
  161.7480  208.5020  149.1990 C   0  0  1  0  0  3  0  0  0  0  0  0
  162.1720  209.8850  149.5150 N   0  0  0  0  0  0  0  0  0  0  0  0
  160.5920  206.2960  152.1270 C   0  0  0  0  0  3  0  0  0  0  0  0
  162.9030  207.7460  148.5630 C   0  0  0  0  0  2  0  0  0  0  0  0
  162.4930  207.2020  147.3160 O   0  0  0  0  0  0  0  0  0  0  0  0
  162.2560  204.1410  145.2620 C   0  0  0  0  0  3  0  0  0  0  0  0
  161.4490  203.7000  148.1670 C   0  0  0  0  0  3  0  0  0  0  0  0
  161.1580  202.9390  147.1120 C   0  0  0  0  0  3  0  0  0  0  0  0
  162.7940  205.2000  145.8660 C   0  0  0  0  0  3  0  0  0  0  0  0
  162.3020  205.8330  147.1160 C   0  0  0  0  0  0  0  0  0  0  0  0
  161.0020  203.4860  145.7330 C   0  0  0  0  0  2  0  0  0  0  0  0
  161.7390  205.1470  148.1230 C   0  0  0  0  0  3  0  0  0  0  0  0
  161.1780  210.7790  148.9270 C   0  0  0  0  0  2  0  0  0  0  0  0
  161.7870  211.8900  148.0580 C   0  0  1  0  0  3  0  0  0  0  0  0
  160.6590  212.7400  147.4920 C   0  0  1  0  0  3  0  0  0  0  0  0
  161.5580  213.3090  148.5690 C   0  0  0  0  0  2  0  0  0  0  0  0
  160.9780  213.3200  146.1000 C   0  0  1  0  0  3  0  0  0  0  0  0
  162.0660  212.6850  145.4840 O   0  0  0  0  0  1  0  0  0  0  0  0
  159.1300  212.0640  145.2200 O   0  0  0  0  0  1  0  0  0  0  0  0
  159.7520  213.3200  145.1640 C   0  0  1  0  0  0  0  0  0  0  0  0
  158.7700  214.4410  145.5680 C   0  0  0  0  0  2  0  0  0  0  0  0
  156.8020  214.0740  147.0640 C   0  0  0  0  0  1  0  0  0  0  0  0
  157.3070  214.0140  145.6360 C   0  0  0  0  0  2  0  0  0  0  0  0
  160.2260  213.5770  143.7980 N   0  0  0  0  0  2  0  0  0  0  0  0
  159.7210  212.5670  142.8670 C   0  0  1  0  0  3  0  0  0  0  0  0
  158.7140  213.1330  142.0810 O   0  0  0  0  0  1  0  0  0  0  0  0
  160.8550  212.0600  141.9790 C   0  0  0  0  0  3  0  0  0  0  0  0
  162.6360  212.9920  140.3710 C   0  0  0  0  0  2  0  0  0  0  0  0
  161.4260  210.8480  139.8260 C   0  0  0  0  0  2  0  0  0  0  0  0
  162.7940  211.5110  140.0410 C   0  0  0  0  0  2  0  0  0  0  0  0
  160.3080  211.4590  140.6820 C   0  0  0  0  0  2  0  0  0  0  0  0
  161.8530  213.1920  141.6760 C   0  0  0  0  0  2  0  0  0  0  0  0
  1  5  1  0  0  0  0
  2 11  2  0  0  0  0
  2 10  1  0  0  0  0
  3  7  1  0  0  0  0
  4  1  1  0  0  0  0
  6  3  1  0  0  0  0
  6  8  1  0  0  0  0
  7  1  2  0  0  0  0
  8  4  2  0  0  0  0
  9 10  1  0  0  0  0
 10  6  2  0  0  0  0
 11 14  1  0  0  0  0
 12 15  1  1  0  0  0
 12 13  1  0  0  0  0
 12  2  1  0  0  0  0
 13  9  1  0  0  0  0
 14  3  2  0  0  0  0
 16 15  1  0  0  0  0
 17 22  1  0  0  0  0
 17 20  2  0  0  0  0
 19 18  2  0  0  0  0
 20 21  1  0  0  0  0
 21 16  1  0  0  0  0
 21 23  2  0  0  0  0
 22 19  1  0  0  0  0
 23 18  1  0  0  0  0
 24 13  1  0  0  0  0
 25 27  1  0  0  0  0
 25 24  1  1  0  0  0
 26 28  1  6  0  0  0
 26 25  1  0  0  0  0
 26 27  1  0  0  0  0
 28 29  1  6  0  0  0
 31 30  1  1  0  0  0
 31 32  1  0  0  0  0
 31 28  1  0  0  0  0
 32 34  1  0  0  0  0
 34 33  1  0  0  0  0
 35 31  1  0  0  0  0
 36 37  1  6  0  0  0
 36 35  1  0  0  0  0
 38 36  1  0  0  0  0
 39 43  1  0  0  0  0
 40 41  1  0  0  0  0
 40 42  1  0  0  0  0
 41 39  1  0  0  0  0
 42 38  1  0  0  0  0
 43 38  1  0  0  0  0
M  END
>  <MODEL>
2

>  <REMARK>
 VINA RESULT:      -7.5      3.872     10.233
  Name = 
  12 active torsions:
  status: ('A' for Active; 'I' for Inactive)
    1  A    between atoms: C_1  and  O_28
    2  A    between atoms: C_1  and  C_34
    3  A    between atoms: C_2  and  C_13
    4  A    between atoms: C_4  and  C_12
    5  A    between atoms: C_4  and  C_15
    6  A    between atoms: C_4  and  N_22
    7  A    between atoms: C_6  and  C_12
    8  A    between atoms: C_11  and  C_14
    9  A    between atoms: C_13  and  N_38
   10  A    between atoms: C_14  and  N_22
   11  A    between atoms: C_15  and  C_42
   12  A    between atoms: O_28  and  C_35
                            x       y       z     vdW  Elec       q    Type
                         _______ _______ _______ _____ _____    ______ ____

>  <TORSDO>
F 12

$$$$
=
 OpenBabel11062410173D

 43 48  0  0  1  0  0  0  0  0999 V2000
  161.1370  202.9820  150.1980 C   0  0  0  0  0  0  0  0  0  0  0  0
  161.3540  207.6080  152.1240 C   0  0  0  0  0  0  0  0  0  0  0  0
  161.3230  204.8630  151.7110 C   0  0  0  0  0  0  0  0  0  0  0  0
  160.9840  203.8580  149.1150 C   0  0  0  0  0  3  0  0  0  0  0  0
  161.1200  201.2540  149.9270 Cl  0  0  0  0  0  0  0  0  0  0  0  0
  161.1650  205.7490  150.6120 C   0  0  0  0  0  0  0  0  0  0  0  0
  161.3070  203.4830  151.4920 C   0  0  0  0  0  3  0  0  0  0  0  0
  160.9990  205.2420  149.3200 C   0  0  0  0  0  3  0  0  0  0  0  0
  161.0880  208.1770  149.9500 N   0  0  0  0  0  2  0  0  0  0  0  0
  161.1880  207.1190  150.8730 C   0  0  0  0  0  0  0  0  0  0  0  0
  161.5220  206.7680  153.2270 C   0  0  0  0  0  3  0  0  0  0  0  0
  161.3700  209.0960  152.0440 C   0  0  1  0  0  3  0  0  0  0  0  0
  161.1980  209.4200  150.6090 N   0  0  0  0  0  0  0  0  0  0  0  0
  161.5010  205.3780  153.0100 C   0  0  0  0  0  3  0  0  0  0  0  0
  160.2130  209.6740  152.8410 C   0  0  0  0  0  2  0  0  0  0  0  0
  160.6480  210.8230  153.5560 O   0  0  0  0  0  0  0  0  0  0  0  0
  157.5390  212.7500  154.0670 C   0  0  0  0  0  3  0  0  0  0  0  0
  159.5690  213.1370  156.3050 C   0  0  0  0  0  3  0  0  0  0  0  0
  158.5340  213.9160  155.9960 C   0  0  0  0  0  3  0  0  0  0  0  0
  158.3430  211.7010  153.9000 C   0  0  0  0  0  3  0  0  0  0  0  0
  159.7750  211.6320  154.2880 C   0  0  0  0  0  0  0  0  0  0  0  0
  158.0080  214.0580  154.6070 C   0  0  0  0  0  2  0  0  0  0  0  0
  160.2820  212.2500  155.3650 C   0  0  0  0  0  3  0  0  0  0  0  0
  162.4450  210.0320  150.1590 C   0  0  0  0  0  2  0  0  0  0  0  0
  162.3990  210.5280  148.7060 C   0  0  1  0  0  3  0  0  0  0  0  0
  161.8320  211.9400  148.6910 C   0  0  1  0  0  3  0  0  0  0  0  0
  163.3020  211.7190  148.4000 C   0  0  0  0  0  2  0  0  0  0  0  0
  161.0270  212.2560  147.4140 C   0  0  1  0  0  3  0  0  0  0  0  0
  160.3070  211.1490  146.9400 O   0  0  0  0  0  1  0  0  0  0  0  0
  158.7620  213.0410  147.5400 O   0  0  0  0  0  1  0  0  0  0  0  0
  160.0960  213.4720  147.5880 C   0  0  1  0  0  0  0  0  0  0  0  0
  160.3960  214.1900  148.9220 C   0  0  0  0  0  2  0  0  0  0  0  0
  159.6120  214.1450  151.2950 C   0  0  0  0  0  1  0  0  0  0  0  0
  159.1950  214.3410  149.8510 C   0  0  0  0  0  2  0  0  0  0  0  0
  160.3560  214.4020  146.4820 N   0  0  0  0  0  2  0  0  0  0  0  0
  159.9510  213.8220  145.2000 C   0  0  1  0  0  3  0  0  0  0  0  0
  158.7840  214.4510  144.7610 O   0  0  0  0  0  1  0  0  0  0  0  0
  161.0630  214.0050  144.1690 C   0  0  0  0  0  3  0  0  0  0  0  0
  162.1220  212.7290  142.1990 C   0  0  0  0  0  2  0  0  0  0  0  0
  163.5710  214.0330  143.8000 C   0  0  0  0  0  2  0  0  0  0  0  0
  163.1640  213.8360  142.3330 C   0  0  0  0  0  2  0  0  0  0  0  0
  162.4360  213.7490  144.7930 C   0  0  0  0  0  2  0  0  0  0  0  0
  160.8340  213.0820  142.9580 C   0  0  0  0  0  2  0  0  0  0  0  0
  1  7  1  0  0  0  0
  2 11  1  0  0  0  0
  3 14  1  0  0  0  0
  4  8  1  0  0  0  0
  4  1  2  0  0  0  0
  5  1  1  0  0  0  0
  6 10  1  0  0  0  0
  6  3  1  0  0  0  0
  7  3  2  0  0  0  0
  8  6  2  0  0  0  0
  9 13  1  0  0  0  0
  9 10  1  0  0  0  0
 10  2  2  0  0  0  0
 12  2  1  0  0  0  0
 12 15  1  1  0  0  0
 13 12  1  0  0  0  0
 14 11  2  0  0  0  0
 15 16  1  0  0  0  0
 16 21  1  0  0  0  0
 17 22  1  0  0  0  0
 19 18  2  0  0  0  0
 20 17  2  0  0  0  0
 20 21  1  0  0  0  0
 21 23  2  0  0  0  0
 22 19  1  0  0  0  0
 23 18  1  0  0  0  0
 24 13  1  0  0  0  0
 25 24  1  1  0  0  0
 26 28  1  6  0  0  0
 26 25  1  0  0  0  0
 27 26  1  0  0  0  0
 27 25  1  0  0  0  0
 28 29  1  1  0  0  0
 28 31  1  0  0  0  0
 31 30  1  6  0  0  0
 31 32  1  0  0  0  0
 32 34  1  0  0  0  0
 34 33  1  0  0  0  0
 35 31  1  0  0  0  0
 36 37  1  6  0  0  0
 36 35  1  0  0  0  0
 38 42  1  0  0  0  0
 38 36  1  0  0  0  0
 39 41  1  0  0  0  0
 39 43  1  0  0  0  0
 40 42  1  0  0  0  0
 41 40  1  0  0  0  0
 43 38  1  0  0  0  0
M  END
>  <MODEL>
3

>  <REMARK>
 VINA RESULT:      -7.1      3.075      8.740
  Name = 
  12 active torsions:
  status: ('A' for Active; 'I' for Inactive)
    1  A    between atoms: C_1  and  O_28
    2  A    between atoms: C_1  and  C_34
    3  A    between atoms: C_2  and  C_13
    4  A    between atoms: C_4  and  C_12
    5  A    between atoms: C_4  and  C_15
    6  A    between atoms: C_4  and  N_22
    7  A    between atoms: C_6  and  C_12
    8  A    between atoms: C_11  and  C_14
    9  A    between atoms: C_13  and  N_38
   10  A    between atoms: C_14  and  N_22
   11  A    between atoms: C_15  and  C_42
   12  A    between atoms: O_28  and  C_35
                            x       y       z     vdW  Elec       q    Type
                         _______ _______ _______ _____ _____    ______ ____

>  <TORSDO>
F 12

$$$$
=
 OpenBabel11062410173D

 43 48  0  0  1  0  0  0  0  0999 V2000
  161.0220  202.1930  148.5890 C   0  0  0  0  0  0  0  0  0  0  0  0
  161.4520  206.2700  151.4800 C   0  0  0  0  0  0  0  0  0  0  0  0
  161.2870  203.6870  150.4760 C   0  0  0  0  0  0  0  0  0  0  0  0
  160.9250  203.2910  147.7230 C   0  0  0  0  0  3  0  0  0  0  0  0
  160.9210  200.5690  147.9470 Cl  0  0  0  0  0  0  0  0  0  0  0  0
  161.1860  204.7980  149.5980 C   0  0  0  0  0  0  0  0  0  0  0  0
  161.2030  202.3900  149.9610 C   0  0  0  0  0  3  0  0  0  0  0  0
  161.0070  204.5940  148.2260 C   0  0  0  0  0  3  0  0  0  0  0  0
  161.2380  207.3130  149.4830 N   0  0  0  0  0  2  0  0  0  0  0  0
  161.2750  206.0740  150.1520 C   0  0  0  0  0  0  0  0  0  0  0  0
  161.5660  205.2010  152.3720 C   0  0  0  0  0  3  0  0  0  0  0  0
  161.5440  207.7360  151.7270 C   0  0  1  0  0  3  0  0  0  0  0  0
  161.4030  208.3740  150.3970 N   0  0  0  0  0  0  0  0  0  0  0  0
  161.4770  203.8950  151.8560 C   0  0  0  0  0  3  0  0  0  0  0  0
  160.4090  208.1850  152.6310 C   0  0  0  0  0  2  0  0  0  0  0  0
  160.8110  209.3280  153.3750 O   0  0  0  0  0  0  0  0  0  0  0  0
  158.7330  210.9380  155.9690 C   0  0  0  0  0  3  0  0  0  0  0  0
  158.1970  212.0130  153.1690 C   0  0  0  0  0  3  0  0  0  0  0  0
  157.4160  212.1050  154.2440 C   0  0  0  0  0  3  0  0  0  0  0  0
  159.8210  210.5480  155.3070 C   0  0  0  0  0  3  0  0  0  0  0  0
  159.9030  210.2780  153.8490 C   0  0  0  0  0  0  0  0  0  0  0  0
  157.3950  211.0780  155.3260 C   0  0  0  0  0  2  0  0  0  0  0  0
  159.1990  210.9540  152.9290 C   0  0  0  0  0  3  0  0  0  0  0  0
  162.6850  209.0040  150.0910 C   0  0  0  0  0  2  0  0  0  0  0  0
  162.6330  210.5390  150.0930 C   0  0  1  0  0  3  0  0  0  0  0  0
  161.8090  211.0010  148.9000 C   0  0  1  0  0  3  0  0  0  0  0  0
  161.2460  211.1400  150.2990 C   0  0  0  0  0  2  0  0  0  0  0  0
  162.2780  212.3510  148.3240 C   0  0  1  0  0  3  0  0  0  0  0  0
  163.4750  212.2450  147.5990 O   0  0  0  0  0  1  0  0  0  0  0  0
  160.0550  212.2230  147.4270 O   0  0  0  0  0  1  0  0  0  0  0  0
  161.1920  213.0430  147.4760 C   0  0  1  0  0  0  0  0  0  0  0  0
  160.8500  214.4270  148.0690 C   0  0  0  0  0  2  0  0  0  0  0  0
  159.2520  214.2600  149.9830 C   0  0  0  0  0  1  0  0  0  0  0  0
  160.7030  214.4530  149.5870 C   0  0  0  0  0  2  0  0  0  0  0  0
  161.7270  213.2280  146.1210 N   0  0  0  0  0  2  0  0  0  0  0  0
  160.6700  213.1070  145.1160 C   0  0  1  0  0  3  0  0  0  0  0  0
  160.1370  214.3720  144.8570 O   0  0  0  0  0  1  0  0  0  0  0  0
  161.2350  212.5040  143.8320 C   0  0  0  0  0  3  0  0  0  0  0  0
  162.8430  213.1400  141.9250 C   0  0  0  0  0  2  0  0  0  0  0  0
  160.7200  211.8710  141.4320 C   0  0  0  0  0  2  0  0  0  0  0  0
  162.2500  211.8790  141.3030 C   0  0  0  0  0  2  0  0  0  0  0  0
  160.2080  212.5690  142.6990 C   0  0  0  0  0  2  0  0  0  0  0  0
  162.5380  213.2170  143.4280 C   0  0  0  0  0  2  0  0  0  0  0  0
  1  7  1  0  0  0  0
  2 12  1  0  0  0  0
  2 11  1  0  0  0  0
  3 14  1  0  0  0  0
  4  8  1  0  0  0  0
  4  1  2  0  0  0  0
  5  1  1  0  0  0  0
  6 10  1  0  0  0  0
  6  3  1  0  0  0  0
  7  3  2  0  0  0  0
  8  6  2  0  0  0  0
  9 10  1  0  0  0  0
  9 13  1  0  0  0  0
 10  2  2  0  0  0  0
 12 15  1  1  0  0  0
 13 12  1  0  0  0  0
 14 11  2  0  0  0  0
 15 16  1  0  0  0  0
 16 21  1  0  0  0  0
 18 19  2  0  0  0  0
 19 22  1  0  0  0  0
 20 17  2  0  0  0  0
 21 20  1  0  0  0  0
 22 17  1  0  0  0  0
 23 18  1  0  0  0  0
 23 21  2  0  0  0  0
 24 13  1  0  0  0  0
 25 24  1  6  0  0  0
 25 27  1  0  0  0  0
 26 28  1  1  0  0  0
 26 25  1  0  0  0  0
 26 27  1  0  0  0  0
 28 29  1  6  0  0  0
 31 30  1  6  0  0  0
 31 32  1  0  0  0  0
 31 28  1  0  0  0  0
 32 34  1  0  0  0  0
 34 33  1  0  0  0  0
 35 31  1  0  0  0  0
 36 37  1  6  0  0  0
 36 35  1  0  0  0  0
 38 36  1  0  0  0  0
 39 43  1  0  0  0  0
 40 42  1  0  0  0  0
 41 40  1  0  0  0  0
 41 39  1  0  0  0  0
 42 38  1  0  0  0  0
 43 38  1  0  0  0  0
M  END
>  <MODEL>
4

>  <REMARK>
 VINA RESULT:      -7.0      2.894      8.641
  Name = 
  12 active torsions:
  status: ('A' for Active; 'I' for Inactive)
    1  A    between atoms: C_1  and  O_28
    2  A    between atoms: C_1  and  C_34
    3  A    between atoms: C_2  and  C_13
    4  A    between atoms: C_4  and  C_12
    5  A    between atoms: C_4  and  C_15
    6  A    between atoms: C_4  and  N_22
    7  A    between atoms: C_6  and  C_12
    8  A    between atoms: C_11  and  C_14
    9  A    between atoms: C_13  and  N_38
   10  A    between atoms: C_14  and  N_22
   11  A    between atoms: C_15  and  C_42
   12  A    between atoms: O_28  and  C_35
                            x       y       z     vdW  Elec       q    Type
                         _______ _______ _______ _____ _____    ______ ____

>  <TORSDO>
F 12

$$$$
=
 OpenBabel11062410173D

 43 48  0  0  1  0  0  0  0  0999 V2000
  161.2420  204.2180  148.4350 C   0  0  0  0  0  0  0  0  0  0  0  0
  161.8180  208.7510  150.5050 C   0  0  0  0  0  0  0  0  0  0  0  0
  161.5670  206.0310  150.0060 C   0  0  0  0  0  0  0  0  0  0  0  0
  161.1700  205.1360  147.3780 C   0  0  0  0  0  3  0  0  0  0  0  0
  161.0860  202.5060  148.1110 Cl  0  0  0  0  0  0  0  0  0  0  0  0
  161.4920  206.9600  148.9350 C   0  0  0  0  0  0  0  0  0  0  0  0
  161.4410  204.6640  149.7450 C   0  0  0  0  0  3  0  0  0  0  0  0
  161.2950  206.5070  147.6260 C   0  0  0  0  0  3  0  0  0  0  0  0
  161.6180  209.4050  148.3480 N   0  0  0  0  0  2  0  0  0  0  0  0
  161.6240  208.3150  149.2380 C   0  0  0  0  0  0  0  0  0  0  0  0
  161.9080  207.8660  151.5820 C   0  0  0  0  0  3  0  0  0  0  0  0
  161.9560  210.2340  150.4710 C   0  0  1  0  0  3  0  0  0  0  0  0
  161.8230  210.6150  149.0450 N   0  0  0  0  0  0  0  0  0  0  0  0
  161.7750  206.4900  151.3220 C   0  0  0  0  0  3  0  0  0  0  0  0
  160.8430  210.8800  151.2780 C   0  0  0  0  0  2  0  0  0  0  0  0
  161.0540  210.6440  152.6630 O   0  0  0  0  0  0  0  0  0  0  0  0
  159.2320  210.3920  155.8660 C   0  0  0  0  0  3  0  0  0  0  0  0
  158.3460  212.7610  154.1670 C   0  0  0  0  0  3  0  0  0  0  0  0
  157.6890  212.1840  155.1730 C   0  0  0  0  0  3  0  0  0  0  0  0
  160.2500  210.5240  155.0170 C   0  0  0  0  0  3  0  0  0  0  0  0
  160.1740  211.0970  153.6490 C   0  0  0  0  0  0  0  0  0  0  0  0
  157.8260  210.7380  155.5100 C   0  0  0  0  0  2  0  0  0  0  0  0
  159.3480  212.0980  153.3090 C   0  0  0  0  0  3  0  0  0  0  0  0
  163.1200  211.1360  148.6220 C   0  0  0  0  0  2  0  0  0  0  0  0
  163.0310  212.4690  147.8650 C   0  0  1  0  0  3  0  0  0  0  0  0
  161.6780  212.5490  147.1750 C   0  0  1  0  0  3  0  0  0  0  0  0
  161.9620  213.4320  148.3720 C   0  0  0  0  0  2  0  0  0  0  0  0
  161.7180  213.3350  145.8490 C   0  0  1  0  0  3  0  0  0  0  0  0
  162.8240  212.9990  145.0540 O   0  0  0  0  0  1  0  0  0  0  0  0
  159.7790  211.9970  145.3860 O   0  0  0  0  0  1  0  0  0  0  0  0
  160.4110  213.2010  145.0420 C   0  0  1  0  0  0  0  0  0  0  0  0
  159.4870  214.4080  145.3150 C   0  0  0  0  0  2  0  0  0  0  0  0
  158.1100  213.7450  147.2920 C   0  0  0  0  0  1  0  0  0  0  0  0
  158.0890  214.0440  145.8060 C   0  0  0  0  0  2  0  0  0  0  0  0
  160.7610  213.1860  143.6160 N   0  0  0  0  0  2  0  0  0  0  0  0
  159.8990  212.2660  142.8720 C   0  0  1  0  0  3  0  0  0  0  0  0
  158.9430  213.0020  142.1690 O   0  0  0  0  0  1  0  0  0  0  0  0
  160.7360  211.4340  141.9020 C   0  0  0  0  0  3  0  0  0  0  0  0
  162.7200  211.7330  140.2900 C   0  0  0  0  0  2  0  0  0  0  0  0
  160.7640  210.2760  139.6470 C   0  0  0  0  0  2  0  0  0  0  0  0
  162.2840  210.3380  139.8490 C   0  0  0  0  0  2  0  0  0  0  0  0
  159.9820  211.2010  140.5910 C   0  0  0  0  0  2  0  0  0  0  0  0
  162.0920  212.1130  141.6390 C   0  0  0  0  0  2  0  0  0  0  0  0
  1  7  1  0  0  0  0
  2 11  1  0  0  0  0
  3 14  1  0  0  0  0
  4  8  1  0  0  0  0
  4  1  2  0  0  0  0
  5  1  1  0  0  0  0
  6 10  1  0  0  0  0
  6  3  1  0  0  0  0
  7  3  2  0  0  0  0
  8  6  2  0  0  0  0
  9 13  1  0  0  0  0
  9 10  1  0  0  0  0
 10  2  2  0  0  0  0
 12  2  1  0  0  0  0
 12 15  1  1  0  0  0
 13 12  1  0  0  0  0
 14 11  2  0  0  0  0
 15 16  1  0  0  0  0
 16 21  1  0  0  0  0
 18 19  2  0  0  0  0
 19 22  1  0  0  0  0
 20 17  2  0  0  0  0
 21 20  1  0  0  0  0
 22 17  1  0  0  0  0
 23 21  2  0  0  0  0
 23 18  1  0  0  0  0
 24 13  1  0  0  0  0
 25 27  1  0  0  0  0
 25 24  1  1  0  0  0
 26 28  1  6  0  0  0
 26 25  1  0  0  0  0
 26 27  1  0  0  0  0
 28 29  1  6  0  0  0
 31 32  1  0  0  0  0
 31 30  1  1  0  0  0
 31 28  1  0  0  0  0
 32 34  1  0  0  0  0
 34 33  1  0  0  0  0
 35 31  1  0  0  0  0
 36 37  1  6  0  0  0
 36 35  1  0  0  0  0
 38 36  1  0  0  0  0
 39 43  1  0  0  0  0
 40 41  1  0  0  0  0
 40 42  1  0  0  0  0
 41 39  1  0  0  0  0
 42 38  1  0  0  0  0
 43 38  1  0  0  0  0
M  END
>  <MODEL>
5

>  <REMARK>
 VINA RESULT:      -6.7      3.206      8.306
  Name = 
  12 active torsions:
  status: ('A' for Active; 'I' for Inactive)
    1  A    between atoms: C_1  and  O_28
    2  A    between atoms: C_1  and  C_34
    3  A    between atoms: C_2  and  C_13
    4  A    between atoms: C_4  and  C_12
    5  A    between atoms: C_4  and  C_15
    6  A    between atoms: C_4  and  N_22
    7  A    between atoms: C_6  and  C_12
    8  A    between atoms: C_11  and  C_14
    9  A    between atoms: C_13  and  N_38
   10  A    between atoms: C_14  and  N_22
   11  A    between atoms: C_15  and  C_42
   12  A    between atoms: O_28  and  C_35
                            x       y       z     vdW  Elec       q    Type
                         _______ _______ _______ _____ _____    ______ ____

>  <TORSDO>
F 12

$$$$
=
 OpenBabel11062410173D

 43 48  0  0  1  0  0  0  0  0999 V2000
  161.2500  213.7580  146.6310 C   0  0  0  0  0  0  0  0  0  0  0  0
  159.6660  212.3420  151.1750 C   0  0  0  0  0  0  0  0  0  0  0  0
  159.9440  213.4570  148.6480 C   0  0  0  0  0  0  0  0  0  0  0  0
  162.2630  212.9450  147.1560 C   0  0  0  0  0  3  0  0  0  0  0  0
  161.4320  214.4530  145.0360 Cl  0  0  0  0  0  0  0  0  0  0  0  0
  160.9730  212.6350  149.1790 C   0  0  0  0  0  0  0  0  0  0  0  0
  160.0930  214.0120  147.3740 C   0  0  0  0  0  3  0  0  0  0  0  0
  162.1260  212.3820  148.4290 C   0  0  0  0  0  3  0  0  0  0  0  0
  161.6410  211.2370  151.1640 N   0  0  0  0  0  2  0  0  0  0  0  0
  160.7850  212.0990  150.4520 C   0  0  0  0  0  0  0  0  0  0  0  0
  158.6290  213.1360  150.6800 C   0  0  0  0  0  3  0  0  0  0  0  0
  159.7690  211.5930  152.4580 C   0  0  1  0  0  3  0  0  0  0  0  0
  161.0690  210.8860  152.4050 N   0  0  0  0  0  0  0  0  0  0  0  0
  158.7790  213.7010  149.4010 C   0  0  0  0  0  3  0  0  0  0  0  0
  159.7620  212.5610  153.6290 C   0  0  0  0  0  2  0  0  0  0  0  0
  159.1650  211.9430  154.7610 O   0  0  0  0  0  0  0  0  0  0  0  0
  162.1540  211.0810  156.7500 C   0  0  0  0  0  3  0  0  0  0  0  0
  159.9790  208.9510  156.8740 C   0  0  0  0  0  3  0  0  0  0  0  0
  161.2730  208.8180  157.1660 C   0  0  0  0  0  3  0  0  0  0  0  0
  161.0800  211.7540  156.3410 C   0  0  0  0  0  3  0  0  0  0  0  0
  159.8900  211.1700  155.6700 C   0  0  0  0  0  0  0  0  0  0  0  0
  162.3420  209.6210  156.5070 C   0  0  0  0  0  2  0  0  0  0  0  0
  159.4120  209.9470  155.9430 C   0  0  0  0  0  3  0  0  0  0  0  0
  160.7740  209.4560  152.3480 C   0  0  0  0  0  2  0  0  0  0  0  0
  161.8280  208.6390  151.5870 C   0  0  1  0  0  3  0  0  0  0  0  0
  161.1630  207.3940  151.0190 C   0  0  1  0  0  3  0  0  0  0  0  0
  161.5880  208.5090  150.0870 C   0  0  0  0  0  2  0  0  0  0  0  0
  162.1120  206.1800  150.9450 C   0  0  1  0  0  3  0  0  0  0  0  0
  163.1950  206.2850  151.8300 O   0  0  0  0  0  1  0  0  0  0  0  0
  162.3190  203.8110  151.2740 O   0  0  0  0  0  1  0  0  0  0  0  0
  161.3750  204.8410  151.1490 C   0  0  1  0  0  0  0  0  0  0  0  0
  160.4680  204.9130  152.3970 C   0  0  0  0  0  2  0  0  0  0  0  0
  160.7870  206.4630  154.3310 C   0  0  0  0  0  1  0  0  0  0  0  0
  161.2070  205.1450  153.7110 C   0  0  0  0  0  2  0  0  0  0  0  0
  160.5360  204.6030  149.9680 N   0  0  0  0  0  2  0  0  0  0  0  0
  161.1740  203.6560  149.0510 C   0  0  1  0  0  3  0  0  0  0  0  0
  160.5050  202.4330  149.1180 O   0  0  0  0  0  1  0  0  0  0  0  0
  161.1300  204.1990  147.6240 C   0  0  0  0  0  3  0  0  0  0  0  0
  162.7560  204.9060  145.7580 C   0  0  0  0  0  2  0  0  0  0  0  0
  160.6550  206.2340  146.1890 C   0  0  0  0  0  2  0  0  0  0  0  0
  161.4670  205.4510  145.1480 C   0  0  0  0  0  2  0  0  0  0  0  0
  160.8100  205.6960  147.6170 C   0  0  0  0  0  2  0  0  0  0  0  0
  162.4590  203.9230  146.8990 C   0  0  0  0  0  2  0  0  0  0  0  0
  1  4  2  0  0  0  0
  1  7  1  0  0  0  0
  2 12  1  0  0  0  0
  3  6  1  0  0  0  0
  3 14  1  0  0  0  0
  4  8  1  0  0  0  0
  5  1  1  0  0  0  0
  6 10  1  0  0  0  0
  7  3  2  0  0  0  0
  8  6  2  0  0  0  0
  9 13  1  0  0  0  0
 10  9  1  0  0  0  0
 10  2  2  0  0  0  0
 11  2  1  0  0  0  0
 12 15  1  1  0  0  0
 13 12  1  0  0  0  0
 14 11  2  0  0  0  0
 15 16  1  0  0  0  0
 16 21  1  0  0  0  0
 18 19  2  0  0  0  0
 20 17  2  0  0  0  0
 21 23  2  0  0  0  0
 21 20  1  0  0  0  0
 22 17  1  0  0  0  0
 22 19  1  0  0  0  0
 23 18  1  0  0  0  0
 24 13  1  0  0  0  0
 25 24  1  1  0  0  0
 26 28  1  6  0  0  0
 26 25  1  0  0  0  0
 27 26  1  0  0  0  0
 27 25  1  0  0  0  0
 28 31  1  0  0  0  0
 28 29  1  1  0  0  0
 31 30  1  1  0  0  0
 31 32  1  0  0  0  0
 32 34  1  0  0  0  0
 34 33  1  0  0  0  0
 35 31  1  0  0  0  0
 36 37  1  6  0  0  0
 36 35  1  0  0  0  0
 38 36  1  0  0  0  0
 39 43  1  0  0  0  0
 40 42  1  0  0  0  0
 41 39  1  0  0  0  0
 41 40  1  0  0  0  0
 42 38  1  0  0  0  0
 43 38  1  0  0  0  0
M  END
>  <MODEL>
6

>  <REMARK>
 VINA RESULT:      -6.6      2.559      4.494
  Name = 
  12 active torsions:
  status: ('A' for Active; 'I' for Inactive)
    1  A    between atoms: C_1  and  O_28
    2  A    between atoms: C_1  and  C_34
    3  A    between atoms: C_2  and  C_13
    4  A    between atoms: C_4  and  C_12
    5  A    between atoms: C_4  and  C_15
    6  A    between atoms: C_4  and  N_22
    7  A    between atoms: C_6  and  C_12
    8  A    between atoms: C_11  and  C_14
    9  A    between atoms: C_13  and  N_38
   10  A    between atoms: C_14  and  N_22
   11  A    between atoms: C_15  and  C_42
   12  A    between atoms: O_28  and  C_35
                            x       y       z     vdW  Elec       q    Type
                         _______ _______ _______ _____ _____    ______ ____

>  <TORSDO>
F 12

$$$$
=
 OpenBabel11062410173D

 43 48  0  0  1  0  0  0  0  0999 V2000
  161.6760  213.6720  146.1440 C   0  0  0  0  0  0  0  0  0  0  0  0
  159.0450  213.2450  150.3930 C   0  0  0  0  0  0  0  0  0  0  0  0
  159.9320  213.7890  147.8200 C   0  0  0  0  0  0  0  0  0  0  0  0
  162.5160  213.0150  147.0530 C   0  0  0  0  0  3  0  0  0  0  0  0
  162.2420  214.0070  144.5230 Cl  0  0  0  0  0  0  0  0  0  0  0  0
  160.7850  213.1250  148.7400 C   0  0  0  0  0  0  0  0  0  0  0  0
  160.3870  214.0570  146.5260 C   0  0  0  0  0  3  0  0  0  0  0  0
  162.0720  212.7390  148.3510 C   0  0  0  0  0  3  0  0  0  0  0  0
  160.9350  212.2070  151.0800 N   0  0  0  0  0  2  0  0  0  0  0  0
  160.2920  212.8750  150.0200 C   0  0  0  0  0  0  0  0  0  0  0  0
  158.1740  213.8900  149.5120 C   0  0  0  0  0  3  0  0  0  0  0  0
  158.8260  212.7950  151.7970 C   0  0  1  0  0  3  0  0  0  0  0  0
  160.0820  212.1220  152.2010 N   0  0  0  0  0  0  0  0  0  0  0  0
  158.6320  214.1660  148.2120 C   0  0  0  0  0  3  0  0  0  0  0  0
  158.5790  213.9950  152.6960 C   0  0  0  0  0  2  0  0  0  0  0  0
  157.2280  213.9940  153.1390 O   0  0  0  0  0  0  0  0  0  0  0  0
  157.1960  211.5900  155.9420 C   0  0  0  0  0  3  0  0  0  0  0  0
  155.2190  213.8800  156.3060 C   0  0  0  0  0  3  0  0  0  0  0  0
  155.2230  212.6970  156.9190 C   0  0  0  0  0  3  0  0  0  0  0  0
  157.6570  212.4970  155.0820 C   0  0  0  0  0  3  0  0  0  0  0  0
  156.8500  213.5440  154.4060 C   0  0  0  0  0  0  0  0  0  0  0  0
  155.7520  211.4540  156.2860 C   0  0  0  0  0  2  0  0  0  0  0  0
  155.8000  214.1550  154.9770 C   0  0  0  0  0  3  0  0  0  0  0  0
  159.7650  210.7080  152.3880 C   0  0  0  0  0  2  0  0  0  0  0  0
  160.9930  209.8340  152.6770 C   0  0  1  0  0  3  0  0  0  0  0  0
  160.9370  208.6020  151.7850 C   0  0  1  0  0  3  0  0  0  0  0  0
  161.9660  209.6790  151.5120 C   0  0  0  0  0  2  0  0  0  0  0  0
  161.5600  207.3520  152.4370 C   0  0  1  0  0  3  0  0  0  0  0  0
  160.7570  206.8150  153.4540 O   0  0  0  0  0  1  0  0  0  0  0  0
  163.2380  205.8340  151.6340 O   0  0  0  0  0  1  0  0  0  0  0  0
  161.9230  206.2660  151.4050 C   0  0  1  0  0  0  0  0  0  0  0  0
  160.9310  205.0870  151.4960 C   0  0  0  0  0  2  0  0  0  0  0  0
  160.8640  202.6980  150.7630 C   0  0  0  0  0  1  0  0  0  0  0  0
  161.5820  203.7130  151.6300 C   0  0  0  0  0  2  0  0  0  0  0  0
  161.8250  206.8630  150.0670 N   0  0  0  0  0  2  0  0  0  0  0  0
  160.9950  206.0440  149.1840 C   0  0  1  0  0  3  0  0  0  0  0  0
  159.7040  206.5760  149.1440 O   0  0  0  0  0  1  0  0  0  0  0  0
  161.5930  206.0170  147.7780 C   0  0  0  0  0  3  0  0  0  0  0  0
  160.8330  205.6580  145.3450 C   0  0  0  0  0  2  0  0  0  0  0  0
  163.0210  204.6980  146.1520 C   0  0  0  0  0  2  0  0  0  0  0  0
  162.3410  205.6050  145.1170 C   0  0  0  0  0  2  0  0  0  0  0  0
  162.3230  204.6980  147.5190 C   0  0  0  0  0  2  0  0  0  0  0  0
  160.4980  206.2510  146.7210 C   0  0  0  0  0  2  0  0  0  0  0  0
  1  7  2  0  0  0  0
  1  4  1  0  0  0  0
  2 12  1  0  0  0  0
  3 14  2  0  0  0  0
  3  6  1  0  0  0  0
  4  8  2  0  0  0  0
  5  1  1  0  0  0  0
  6 10  2  0  0  0  0
  7  3  1  0  0  0  0
  8  6  1  0  0  0  0
  9 13  1  0  0  0  0
 10  2  1  0  0  0  0
 10  9  1  0  0  0  0
 11  2  2  0  0  0  0
 12 13  1  0  0  0  0
 12 15  1  1  0  0  0
 13 24  1  0  0  0  0
 14 11  1  0  0  0  0
 15 16  1  0  0  0  0
 16 21  1  0  0  0  0
 17 22  1  0  0  0  0
 18 19  2  0  0  0  0
 20 17  2  0  0  0  0
 21 23  2  0  0  0  0
 21 20  1  0  0  0  0
 22 19  1  0  0  0  0
 23 18  1  0  0  0  0
 25 24  1  6  0  0  0
 26 28  1  1  0  0  0
 26 25  1  0  0  0  0
 27 26  1  0  0  0  0
 27 25  1  0  0  0  0
 28 29  1  1  0  0  0
 31 32  1  0  0  0  0
 31 30  1  1  0  0  0
 31 28  1  0  0  0  0
 32 34  1  0  0  0  0
 33 34  1  0  0  0  0
 35 31  1  0  0  0  0
 36 37  1  6  0  0  0
 36 35  1  0  0  0  0
 38 36  1  0  0  0  0
 39 43  1  0  0  0  0
 40 42  1  0  0  0  0
 41 39  1  0  0  0  0
 41 40  1  0  0  0  0
 42 38  1  0  0  0  0
 43 38  1  0  0  0  0
M  END
>  <MODEL>
7

>  <REMARK>
 VINA RESULT:      -6.6      2.384      4.076
  Name = 
  12 active torsions:
  status: ('A' for Active; 'I' for Inactive)
    1  A    between atoms: C_1  and  O_28
    2  A    between atoms: C_1  and  C_34
    3  A    between atoms: C_2  and  C_13
    4  A    between atoms: C_4  and  C_12
    5  A    between atoms: C_4  and  C_15
    6  A    between atoms: C_4  and  N_22
    7  A    between atoms: C_6  and  C_12
    8  A    between atoms: C_11  and  C_14
    9  A    between atoms: C_13  and  N_38
   10  A    between atoms: C_14  and  N_22
   11  A    between atoms: C_15  and  C_42
   12  A    between atoms: O_28  and  C_35
                            x       y       z     vdW  Elec       q    Type
                         _______ _______ _______ _____ _____    ______ ____

>  <TORSDO>
F 12

$$$$
=
 OpenBabel11062410173D

 43 48  0  0  1  0  0  0  0  0999 V2000
  160.5340  202.0940  145.6450 C   0  0  0  0  0  0  0  0  0  0  0  0
  161.3320  205.4710  149.2670 C   0  0  0  0  0  0  0  0  0  0  0  0
  160.9620  203.1580  147.7770 C   0  0  0  0  0  0  0  0  0  0  0  0
  160.4800  203.3470  145.0210 C   0  0  0  0  0  3  0  0  0  0  0  0
  160.3040  200.6410  144.6970 Cl  0  0  0  0  0  0  0  0  0  0  0  0
  160.9040  204.4270  147.1440 C   0  0  0  0  0  0  0  0  0  0  0  0
  160.7750  201.9990  147.0190 C   0  0  0  0  0  3  0  0  0  0  0  0
  160.6660  204.5150  145.7690 C   0  0  0  0  0  3  0  0  0  0  0  0
  161.1190  206.9060  147.5300 N   0  0  0  0  0  2  0  0  0  0  0  0
  161.0970  205.5580  147.9360 C   0  0  0  0  0  0  0  0  0  0  0  0
  161.4050  204.2400  149.9220 C   0  0  0  0  0  3  0  0  0  0  0  0
  161.5290  206.8500  149.7960 C   0  0  1  0  0  3  0  0  0  0  0  0
  161.3860  207.7500  148.6290 N   0  0  0  0  0  0  0  0  0  0  0  0
  161.2120  203.0720  149.1610 C   0  0  0  0  0  3  0  0  0  0  0  0
  160.4580  207.1720  150.8240 C   0  0  0  0  0  2  0  0  0  0  0  0
  160.9600  206.9320  152.1330 O   0  0  0  0  0  0  0  0  0  0  0  0
  160.8300  210.3470  153.5320 C   0  0  0  0  0  3  0  0  0  0  0  0
  160.9450  208.1800  155.6710 C   0  0  0  0  0  3  0  0  0  0  0  0
  161.2360  209.4740  155.8000 C   0  0  0  0  0  3  0  0  0  0  0  0
  160.4600  209.2630  152.8520 C   0  0  0  0  0  3  0  0  0  0  0  0
  160.8480  207.8640  153.1670 C   0  0  0  0  0  0  0  0  0  0  0  0
  161.7760  210.3020  154.6840 C   0  0  0  0  0  2  0  0  0  0  0  0
  161.0280  207.4070  154.4150 C   0  0  0  0  0  3  0  0  0  0  0  0
  162.6950  208.3540  148.3950 C   0  0  0  0  0  2  0  0  0  0  0  0
  162.8480  209.7520  149.0120 C   0  0  1  0  0  3  0  0  0  0  0  0
  161.9550  210.7210  148.2530 C   0  0  1  0  0  3  0  0  0  0  0  0
  161.5890  210.3130  149.6650 C   0  0  0  0  0  2  0  0  0  0  0  0
  162.5270  212.1510  148.1900 C   0  0  1  0  0  3  0  0  0  0  0  0
  163.8390  212.1880  147.6940 O   0  0  0  0  0  1  0  0  0  0  0  0
  161.9930  214.4370  147.6870 O   0  0  0  0  0  1  0  0  0  0  0  0
  161.6230  213.1160  147.3970 C   0  0  1  0  0  0  0  0  0  0  0  0
  161.7330  212.8310  145.8840 C   0  0  0  0  0  2  0  0  0  0  0  0
  163.1590  213.3300  143.8930 C   0  0  0  0  0  1  0  0  0  0  0  0
  162.4210  213.9260  145.0750 C   0  0  0  0  0  2  0  0  0  0  0  0
  160.2360  212.8870  147.8220 N   0  0  0  0  0  2  0  0  0  0  0  0
  159.4510  214.1200  147.7450 C   0  0  1  0  0  3  0  0  0  0  0  0
  158.6440  214.0780  146.6060 O   0  0  0  0  0  1  0  0  0  0  0  0
  158.5850  214.2680  148.9940 C   0  0  0  0  0  3  0  0  0  0  0  0
  158.4220  213.3060  151.3770 C   0  0  0  0  0  2  0  0  0  0  0  0
  156.3330  213.7480  150.0350 C   0  0  0  0  0  2  0  0  0  0  0  0
  157.0840  214.0400  151.3410 C   0  0  0  0  0  2  0  0  0  0  0  0
  157.2590  213.5200  148.8330 C   0  0  0  0  0  2  0  0  0  0  0  0
  159.3430  213.7720  150.2390 C   0  0  0  0  0  2  0  0  0  0  0  0
  1  7  1  0  0  0  0
  2 12  1  0  0  0  0
  2 11  1  0  0  0  0
  3 14  1  0  0  0  0
  4  1  2  0  0  0  0
  4  8  1  0  0  0  0
  5  1  1  0  0  0  0
  6  3  1  0  0  0  0
  6 10  1  0  0  0  0
  7  3  2  0  0  0  0
  8  6  2  0  0  0  0
  9 10  1  0  0  0  0
  9 13  1  0  0  0  0
 10  2  2  0  0  0  0
 12 15  1  1  0  0  0
 13 12  1  0  0  0  0
 14 11  2  0  0  0  0
 15 16  1  0  0  0  0
 16 21  1  0  0  0  0
 17 22  1  0  0  0  0
 18 19  2  0  0  0  0
 20 21  1  0  0  0  0
 20 17  2  0  0  0  0
 21 23  2  0  0  0  0
 22 19  1  0  0  0  0
 23 18  1  0  0  0  0
 24 13  1  0  0  0  0
 25 24  1  6  0  0  0
 25 27  1  0  0  0  0
 26 28  1  1  0  0  0
 26 25  1  0  0  0  0
 26 27  1  0  0  0  0
 28 29  1  6  0  0  0
 31 30  1  1  0  0  0
 31 35  1  0  0  0  0
 31 28  1  0  0  0  0
 32 31  1  0  0  0  0
 33 34  1  0  0  0  0
 34 32  1  0  0  0  0
 36 37  1  6  0  0  0
 36 35  1  0  0  0  0
 36 38  1  0  0  0  0
 38 43  1  0  0  0  0
 40 41  1  0  0  0  0
 41 39  1  0  0  0  0
 42 38  1  0  0  0  0
 42 40  1  0  0  0  0
 43 39  1  0  0  0  0
M  END
>  <MODEL>
8

>  <REMARK>
 VINA RESULT:      -6.5      2.806      8.678
  Name = 
  12 active torsions:
  status: ('A' for Active; 'I' for Inactive)
    1  A    between atoms: C_1  and  O_28
    2  A    between atoms: C_1  and  C_34
    3  A    between atoms: C_2  and  C_13
    4  A    between atoms: C_4  and  C_12
    5  A    between atoms: C_4  and  C_15
    6  A    between atoms: C_4  and  N_22
    7  A    between atoms: C_6  and  C_12
    8  A    between atoms: C_11  and  C_14
    9  A    between atoms: C_13  and  N_38
   10  A    between atoms: C_14  and  N_22
   11  A    between atoms: C_15  and  C_42
   12  A    between atoms: O_28  and  C_35
                            x       y       z     vdW  Elec       q    Type
                         _______ _______ _______ _____ _____    ______ ____

>  <TORSDO>
F 12

$$$$
=
 OpenBabel11062410173D

 43 48  0  0  1  0  0  0  0  0999 V2000
  161.1180  203.4860  147.7150 C   0  0  0  0  0  0  0  0  0  0  0  0
  161.7910  207.7080  150.3390 C   0  0  0  0  0  0  0  0  0  0  0  0
  161.5520  205.0760  149.4890 C   0  0  0  0  0  0  0  0  0  0  0  0
  160.9270  204.5370  146.8090 C   0  0  0  0  0  3  0  0  0  0  0  0
  160.9690  201.8300  147.1700 Cl  0  0  0  0  0  0  0  0  0  0  0  0
  161.3560  206.1400  148.5690 C   0  0  0  0  0  0  0  0  0  0  0  0
  161.4310  203.7550  149.0520 C   0  0  0  0  0  3  0  0  0  0  0  0
  161.0470  205.8650  147.2340 C   0  0  0  0  0  3  0  0  0  0  0  0
  161.3740  208.6460  148.3220 N   0  0  0  0  0  2  0  0  0  0  0  0
  161.4870  207.4440  149.0460 C   0  0  0  0  0  0  0  0  0  0  0  0
  162.0010  206.6880  151.2680 C   0  0  0  0  0  3  0  0  0  0  0  0
  161.8940  209.1860  150.5000 C   0  0  1  0  0  3  0  0  0  0  0  0
  161.6180  209.7540  149.1600 N   0  0  0  0  0  0  0  0  0  0  0  0
  161.8740  205.3570  150.8320 C   0  0  0  0  0  3  0  0  0  0  0  0
  160.8490  209.6770  151.4870 C   0  0  0  0  0  2  0  0  0  0  0  0
  160.6840  208.7230  152.5280 O   0  0  0  0  0  0  0  0  0  0  0  0
  161.3910  210.9990  155.3480 C   0  0  0  0  0  3  0  0  0  0  0  0
  161.3990  208.0610  156.1510 C   0  0  0  0  0  3  0  0  0  0  0  0
  161.9410  209.0880  156.8030 C   0  0  0  0  0  3  0  0  0  0  0  0
  160.7340  210.4320  154.3380 C   0  0  0  0  0  3  0  0  0  0  0  0
  160.8940  209.0300  153.8740 C   0  0  0  0  0  0  0  0  0  0  0  0
  162.4640  210.3040  156.1150 C   0  0  0  0  0  2  0  0  0  0  0  0
  161.1590  208.0030  154.6950 C   0  0  0  0  0  3  0  0  0  0  0  0
  162.8580  210.3730  148.6980 C   0  0  0  0  0  2  0  0  0  0  0  0
  162.7040  211.8530  148.3190 C   0  0  1  0  0  3  0  0  0  0  0  0
  161.3780  212.0370  147.5980 C   0  0  1  0  0  3  0  0  0  0  0  0
  161.5490  212.5790  149.0010 C   0  0  0  0  0  2  0  0  0  0  0  0
  161.4150  213.1520  146.5340 C   0  0  1  0  0  3  0  0  0  0  0  0
  162.4770  213.0010  145.6280 O   0  0  0  0  0  1  0  0  0  0  0  0
  159.5250  212.0220  145.5780 O   0  0  0  0  0  1  0  0  0  0  0  0
  160.0780  213.2950  145.7800 C   0  0  1  0  0  0  0  0  0  0  0  0
  159.1100  214.1990  146.5730 C   0  0  0  0  0  2  0  0  0  0  0  0
  157.5910  213.2650  148.3240 C   0  0  0  0  0  1  0  0  0  0  0  0
  157.7420  213.5820  146.8490 C   0  0  0  0  0  2  0  0  0  0  0  0
  160.3560  213.9240  144.4820 N   0  0  0  0  0  2  0  0  0  0  0  0
  159.4840  213.3860  143.4380 C   0  0  1  0  0  3  0  0  0  0  0  0
  158.4560  214.2970  143.1860 O   0  0  0  0  0  1  0  0  0  0  0  0
  160.2860  213.1370  142.1620 C   0  0  0  0  0  3  0  0  0  0  0  0
  160.1180  211.7610  139.9930 C   0  0  0  0  0  2  0  0  0  0  0  0
  162.3300  212.0020  141.1810 C   0  0  0  0  0  2  0  0  0  0  0  0
  161.5720  212.2060  139.8620 C   0  0  0  0  0  2  0  0  0  0  0  0
  161.4500  212.1790  142.4260 C   0  0  0  0  0  2  0  0  0  0  0  0
  159.3740  212.5930  141.0480 C   0  0  0  0  0  2  0  0  0  0  0  0
  1  7  1  0  0  0  0
  2 12  1  0  0  0  0
  2 11  1  0  0  0  0
  3 14  1  0  0  0  0
  4  8  1  0  0  0  0
  4  1  2  0  0  0  0
  5  1  1  0  0  0  0
  6 10  1  0  0  0  0
  6  3  1  0  0  0  0
  7  3  2  0  0  0  0
  8  6  2  0  0  0  0
  9 10  1  0  0  0  0
  9 13  1  0  0  0  0
 10  2  2  0  0  0  0
 12 15  1  1  0  0  0
 13 12  1  0  0  0  0
 14 11  2  0  0  0  0
 15 16  1  0  0  0  0
 16 21  1  0  0  0  0
 17 22  1  0  0  0  0
 18 19  2  0  0  0  0
 20 17  2  0  0  0  0
 21 20  1  0  0  0  0
 21 23  2  0  0  0  0
 22 19  1  0  0  0  0
 23 18  1  0  0  0  0
 24 13  1  0  0  0  0
 25 24  1  1  0  0  0
 25 27  1  0  0  0  0
 26 28  1  6  0  0  0
 26 25  1  0  0  0  0
 26 27  1  0  0  0  0
 28 29  1  6  0  0  0
 31 30  1  6  0  0  0
 31 28  1  0  0  0  0
 31 32  1  0  0  0  0
 32 34  1  0  0  0  0
 34 33  1  0  0  0  0
 35 31  1  0  0  0  0
 36 37  1  6  0  0  0
 36 35  1  0  0  0  0
 38 42  1  0  0  0  0
 38 36  1  0  0  0  0
 39 43  1  0  0  0  0
 40 42  1  0  0  0  0
 41 39  1  0  0  0  0
 41 40  1  0  0  0  0
 43 38  1  0  0  0  0
M  END
>  <MODEL>
9

>  <REMARK>
 VINA RESULT:      -6.5      3.117      8.727
  Name = 
  12 active torsions:
  status: ('A' for Active; 'I' for Inactive)
    1  A    between atoms: C_1  and  O_28
    2  A    between atoms: C_1  and  C_34
    3  A    between atoms: C_2  and  C_13
    4  A    between atoms: C_4  and  C_12
    5  A    between atoms: C_4  and  C_15
    6  A    between atoms: C_4  and  N_22
    7  A    between atoms: C_6  and  C_12
    8  A    between atoms: C_11  and  C_14
    9  A    between atoms: C_13  and  N_38
   10  A    between atoms: C_14  and  N_22
   11  A    between atoms: C_15  and  C_42
   12  A    between atoms: O_28  and  C_35
                            x       y       z     vdW  Elec       q    Type
                         _______ _______ _______ _____ _____    ______ ____

>  <TORSDO>
F 12

$$$$
