=
 OpenBabel11052423213D

 27 31  0  0  1  0  0  0  0  0999 V2000
  161.0840  207.8040  151.7560 C   0  0  2  0  0  3  0  0  0  0  0  0
  160.7600  206.6170  151.0580 O   0  0  0  0  0  0  0  0  0  0  0  0
  161.9260  208.0300  149.6090 C   0  0  2  0  0  0  0  0  0  0  0  0
  161.6380  210.8460  149.7340 N   0  0  0  0  0  0  0  0  0  0  0  0
  163.1610  207.9820  148.7380 C   0  0  0  0  0  2  0  0  0  0  0  0
  161.0090  212.0940  149.6450 N   0  0  0  0  0  1  0  0  0  0  0  0
  162.0570  208.6630  150.9620 C   0  0  1  0  0  3  0  0  0  0  0  0
  160.9630  206.8570  149.6830 C   0  0  1  0  0  3  0  0  0  0  0  0
  162.3520  210.3180  148.5820 C   0  0  0  0  0  2  0  0  0  0  0  0
  161.2150  210.6480  152.0200 O   0  0  0  0  0  0  0  0  0  0  0  0
  161.5970  210.0960  150.9530 C   0  0  0  0  0  0  0  0  0  0  0  0
  161.9750  208.8600  148.3280 C   0  0  2  0  0  3  0  0  0  0  0  0
  160.9450  203.1540  148.8350 C   0  0  0  0  0  3  0  0  0  0  0  0
  161.4720  203.1830  147.4260 C   0  0  0  0  0  2  0  0  0  0  0  0
  161.0960  205.6130  147.4970 C   0  0  0  0  0  3  0  0  0  0  0  0
  161.4440  205.5720  148.9720 C   0  0  2  0  0  3  0  0  0  0  0  0
  161.1110  204.4880  146.7690 C   0  0  0  0  0  3  0  0  0  0  0  0
  160.9260  204.2720  149.5820 C   0  0  0  0  0  0  0  0  0  0  0  0
  160.8780  203.2680  151.8530 C   0  0  0  0  0  1  0  0  0  0  0  0
  160.4590  204.2390  150.9030 O   0  0  0  0  0  0  0  0  0  0  0  0
  161.5830  207.5150  153.1780 C   0  0  0  0  0  2  0  0  0  0  0  0
  160.7530  208.2130  157.2590 C   0  0  0  0  0  2  0  0  0  0  0  0
  160.7550  208.1130  154.3220 C   0  0  1  0  0  3  0  0  0  0  0  0
  160.0820  207.0560  155.1690 C   0  0  0  0  0  3  0  0  0  0  0  0
  160.0980  207.0890  156.5090 C   0  0  0  0  0  3  0  0  0  0  0  0
  161.9440  208.7520  156.4780 C   0  0  0  0  0  2  0  0  0  0  0  0
  161.4740  209.2250  155.1050 C   0  0  0  0  0  2  0  0  0  0  0  0
  1 21  1  1  0  0  0
  2  1  1  0  0  0  0
  3  5  1  6  0  0  0
  3  8  1  0  0  0  0
  3  7  1  0  0  0  0
  4 11  1  0  0  0  0
  6  4  1  0  0  0  0
  7 11  1  6  0  0  0
  7  1  1  0  0  0  0
  8  2  1  1  0  0  0
  9  4  1  0  0  0  0
 11 10  2  0  0  0  0
 12  9  1  1  0  0  0
 12  5  1  0  0  0  0
 12  3  1  0  0  0  0
 13 18  2  0  0  0  0
 14 13  1  0  0  0  0
 16 15  1  6  0  0  0
 16 18  1  0  0  0  0
 16  8  1  0  0  0  0
 17 14  1  0  0  0  0
 17 15  2  0  0  0  0
 18 20  1  0  0  0  0
 20 19  1  0  0  0  0
 23 21  1  6  0  0  0
 23 27  1  0  0  0  0
 23 24  1  0  0  0  0
 24 25  2  0  0  0  0
 25 22  1  0  0  0  0
 26 22  1  0  0  0  0
 27 26  1  0  0  0  0
M  END
>  <MODEL>
1

>  <REMARK>
 VINA RESULT:      -7.8      0.000      0.000
  Name = 
  4 active torsions:
  status: ('A' for Active; 'I' for Inactive)
    1  A    between atoms: C_1  and  C_15
    2  A    between atoms: C_9  and  C_15
    3  A    between atoms: C_14  and  C_19
    4  A    between atoms: C_17  and  O_21
                            x       y       z     vdW  Elec       q    Type
                         _______ _______ _______ _____ _____    ______ ____

>  <TORSDO>
F 4

$$$$
=
 OpenBabel11052423213D

 27 31  0  0  1  0  0  0  0  0999 V2000
  160.4750  210.1170  153.0200 C   0  0  2  0  0  3  0  0  0  0  0  0
  160.7090  209.1210  152.0420 O   0  0  0  0  0  0  0  0  0  0  0  0
  160.8580  208.1320  154.1540 C   0  0  2  0  0  0  0  0  0  0  0  0
  161.8980  209.5430  156.3790 N   0  0  0  0  0  0  0  0  0  0  0  0
  160.2310  206.9810  154.9060 C   0  0  0  0  0  2  0  0  0  0  0  0
  162.8420  210.2060  157.1730 N   0  0  0  0  0  1  0  0  0  0  0  0
  160.3070  209.5050  154.4020 C   0  0  1  0  0  3  0  0  0  0  0  0
  161.2620  207.9990  152.6950 C   0  0  1  0  0  3  0  0  0  0  0  0
  161.6880  208.1140  156.5570 C   0  0  0  0  0  2  0  0  0  0  0  0
  161.1120  211.5210  155.4270 O   0  0  0  0  0  0  0  0  0  0  0  0
  161.1290  210.2610  155.4100 C   0  0  0  0  0  0  0  0  0  0  0  0
  161.6740  207.3930  155.2110 C   0  0  2  0  0  3  0  0  0  0  0  0
  161.0040  205.4820  149.8600 C   0  0  0  0  0  3  0  0  0  0  0  0
  160.8440  204.2010  150.6320 C   0  0  0  0  0  2  0  0  0  0  0  0
  161.5040  205.4930  152.6190 C   0  0  0  0  0  3  0  0  0  0  0  0
  160.8060  206.6910  152.0080 C   0  0  2  0  0  3  0  0  0  0  0  0
  161.5210  204.3200  151.9710 C   0  0  0  0  0  3  0  0  0  0  0  0
  160.9860  206.6700  150.4920 C   0  0  0  0  0  0  0  0  0  0  0  0
  161.9790  208.0140  148.6560 C   0  0  0  0  0  1  0  0  0  0  0  0
  161.1090  207.8640  149.7700 O   0  0  0  0  0  0  0  0  0  0  0  0
  159.3050  211.0320  152.6370 C   0  0  0  0  0  2  0  0  0  0  0  0
  158.9990  214.4520  150.1790 C   0  0  0  0  0  2  0  0  0  0  0  0
  159.6680  212.4690  152.2410 C   0  0  1  0  0  3  0  0  0  0  0  0
  160.4010  212.5430  150.9210 C   0  0  0  0  0  3  0  0  0  0  0  0
  160.0830  213.4340  149.9710 C   0  0  0  0  0  3  0  0  0  0  0  0
  157.9070  213.8910  151.0800 C   0  0  0  0  0  2  0  0  0  0  0  0
  158.5200  213.4790  152.4160 C   0  0  0  0  0  2  0  0  0  0  0  0
  1 21  1  6  0  0  0
  1  7  1  0  0  0  0
  2  1  1  0  0  0  0
  3  7  1  0  0  0  0
  3  5  1  1  0  0  0
  3 12  1  0  0  0  0
  4  9  1  0  0  0  0
  4  6  1  0  0  0  0
  7 11  1  1  0  0  0
  8  2  1  6  0  0  0
  8  3  1  0  0  0  0
 11 10  2  0  0  0  0
 11  4  1  0  0  0  0
 12  5  1  1  0  0  0
 12  9  1  0  0  0  0
 13 18  2  0  0  0  0
 13 14  1  0  0  0  0
 14 17  1  0  0  0  0
 16 15  1  1  0  0  0
 16  8  1  0  0  0  0
 17 15  2  0  0  0  0
 18 16  1  0  0  0  0
 19 20  1  0  0  0  0
 20 18  1  0  0  0  0
 22 26  1  0  0  0  0
 23 27  1  0  0  0  0
 23 21  1  6  0  0  0
 24 23  1  0  0  0  0
 25 22  1  0  0  0  0
 25 24  2  0  0  0  0
 26 27  1  0  0  0  0
M  END
>  <MODEL>
2

>  <REMARK>
 VINA RESULT:      -7.4      3.125      5.710
  Name = 
  4 active torsions:
  status: ('A' for Active; 'I' for Inactive)
    1  A    between atoms: C_1  and  C_15
    2  A    between atoms: C_9  and  C_15
    3  A    between atoms: C_14  and  C_19
    4  A    between atoms: C_17  and  O_21
                            x       y       z     vdW  Elec       q    Type
                         _______ _______ _______ _____ _____    ______ ____

>  <TORSDO>
F 4

$$$$
=
 OpenBabel11052423213D

 27 31  0  0  1  0  0  0  0  0999 V2000
  161.6180  205.9150  148.4290 C   0  0  2  0  0  3  0  0  0  0  0  0
  161.4050  207.1260  149.1280 O   0  0  0  0  0  0  0  0  0  0  0  0
  161.5170  205.3860  150.6830 C   0  0  2  0  0  0  0  0  0  0  0  0
  160.5210  202.8010  150.0860 N   0  0  0  0  0  0  0  0  0  0  0  0
  162.3080  205.0280  151.9200 C   0  0  0  0  0  2  0  0  0  0  0  0
  159.5830  201.8060  149.7860 N   0  0  0  0  0  1  0  0  0  0  0  0
  161.9510  204.7780  149.3820 C   0  0  1  0  0  3  0  0  0  0  0  0
  161.0150  206.8000  150.4440 C   0  0  1  0  0  3  0  0  0  0  0  0
  160.8810  203.0540  151.4740 C   0  0  0  0  0  2  0  0  0  0  0  0
  161.0380  203.1770  147.8430 O   0  0  0  0  0  0  0  0  0  0  0  0
  161.1400  203.5570  149.0400 C   0  0  0  0  0  0  0  0  0  0  0  0
  160.8600  204.5490  151.7780 C   0  0  2  0  0  3  0  0  0  0  0  0
  161.9620  210.2860  151.6230 C   0  0  0  0  0  3  0  0  0  0  0  0
  161.7160  210.1620  153.1010 C   0  0  0  0  0  2  0  0  0  0  0  0
  160.5570  208.0570  152.5780 C   0  0  0  0  0  3  0  0  0  0  0  0
  161.5410  207.8560  151.4430 C   0  0  2  0  0  3  0  0  0  0  0  0
  160.6400  209.1420  153.3600 C   0  0  0  0  0  3  0  0  0  0  0  0
  161.8860  209.2080  150.8220 C   0  0  0  0  0  0  0  0  0  0  0  0
  162.0430  210.5440  148.7360 C   0  0  0  0  0  1  0  0  0  0  0  0
  162.1410  209.3180  149.4490 O   0  0  0  0  0  0  0  0  0  0  0  0
  162.6620  206.0710  147.3150 C   0  0  0  0  0  2  0  0  0  0  0  0
  160.0720  204.3690  144.4460 C   0  0  0  0  0  2  0  0  0  0  0  0
  162.1620  205.8550  145.8810 C   0  0  1  0  0  3  0  0  0  0  0  0
  162.3620  204.4350  145.4010 C   0  0  0  0  0  3  0  0  0  0  0  0
  161.4020  203.7490  144.7640 C   0  0  0  0  0  3  0  0  0  0  0  0
  159.6890  205.3850  145.5130 C   0  0  0  0  0  2  0  0  0  0  0  0
  160.7740  206.4560  145.6010 C   0  0  0  0  0  2  0  0  0  0  0  0
  1 21  1  6  0  0  0
  1  2  1  0  0  0  0
  1  7  1  0  0  0  0
  3 12  1  0  0  0  0
  3  5  1  1  0  0  0
  4  9  1  0  0  0  0
  6  4  1  0  0  0  0
  7 11  1  6  0  0  0
  7  3  1  0  0  0  0
  8  2  1  6  0  0  0
  8  3  1  0  0  0  0
  8 16  1  0  0  0  0
 10 11  2  0  0  0  0
 11  4  1  0  0  0  0
 12  9  1  6  0  0  0
 12  5  1  0  0  0  0
 13 14  1  0  0  0  0
 14 17  1  0  0  0  0
 15 17  2  0  0  0  0
 16 15  1  1  0  0  0
 18 16  1  0  0  0  0
 18 13  2  0  0  0  0
 19 20  1  0  0  0  0
 20 18  1  0  0  0  0
 22 25  1  0  0  0  0
 22 26  1  0  0  0  0
 23 21  1  1  0  0  0
 24 23  1  0  0  0  0
 25 24  2  0  0  0  0
 26 27  1  0  0  0  0
 27 23  1  0  0  0  0
M  END
>  <MODEL>
3

>  <REMARK>
 VINA RESULT:      -7.2      3.091      7.732
  Name = 
  4 active torsions:
  status: ('A' for Active; 'I' for Inactive)
    1  A    between atoms: C_1  and  C_15
    2  A    between atoms: C_9  and  C_15
    3  A    between atoms: C_14  and  C_19
    4  A    between atoms: C_17  and  O_21
                            x       y       z     vdW  Elec       q    Type
                         _______ _______ _______ _____ _____    ______ ____

>  <TORSDO>
F 4

$$$$
=
 OpenBabel11052423213D

 27 31  0  0  1  0  0  0  0  0999 V2000
  160.9420  207.4260  152.5280 C   0  0  2  0  0  3  0  0  0  0  0  0
  160.8480  208.3100  151.4270 O   0  0  0  0  0  0  0  0  0  0  0  0
  161.5380  209.5300  153.2970 C   0  0  2  0  0  0  0  0  0  0  0  0
  160.6140  208.9000  155.8990 N   0  0  0  0  0  0  0  0  0  0  0  0
  162.6780  210.4400  153.6910 C   0  0  0  0  0  2  0  0  0  0  0  0
  159.7080  208.7440  156.9560 N   0  0  0  0  0  1  0  0  0  0  0  0
  161.6230  208.0920  153.7140 C   0  0  1  0  0  3  0  0  0  0  0  0
  160.8820  209.6280  151.9290 C   0  0  1  0  0  3  0  0  0  0  0  0
  161.3390  210.1530  155.7540 C   0  0  0  0  0  2  0  0  0  0  0  0
  160.4290  206.6710  155.2370 O   0  0  0  0  0  0  0  0  0  0  0  0
  160.8440  207.8320  154.9750 C   0  0  0  0  0  0  0  0  0  0  0  0
  161.2920  210.6450  154.3100 C   0  0  2  0  0  3  0  0  0  0  0  0
  162.1810  210.7380  148.5360 C   0  0  0  0  0  3  0  0  0  0  0  0
  162.1130  212.2340  148.6810 C   0  0  0  0  0  2  0  0  0  0  0  0
  160.7690  211.8240  150.7000 C   0  0  0  0  0  3  0  0  0  0  0  0
  161.5910  210.5720  150.9310 C   0  0  2  0  0  3  0  0  0  0  0  0
  161.0150  212.6070  149.6410 C   0  0  0  0  0  3  0  0  0  0  0  0
  161.9400  209.9350  149.5880 C   0  0  0  0  0  0  0  0  0  0  0  0
  162.4260  207.8960  148.2570 C   0  0  0  0  0  1  0  0  0  0  0  0
  162.0300  208.5430  149.4590 O   0  0  0  0  0  0  0  0  0  0  0  0
  161.6040  206.0970  152.1420 C   0  0  0  0  0  2  0  0  0  0  0  0
  160.9010  202.5090  150.0290 C   0  0  0  0  0  2  0  0  0  0  0  0
  160.6920  205.0470  151.4950 C   0  0  1  0  0  3  0  0  0  0  0  0
  160.8430  204.9900  149.9910 C   0  0  0  0  0  3  0  0  0  0  0  0
  160.9590  203.8340  149.3230 C   0  0  0  0  0  3  0  0  0  0  0  0
  161.4770  202.6280  151.4330 C   0  0  0  0  0  2  0  0  0  0  0  0
  160.6950  203.6850  152.2100 C   0  0  0  0  0  2  0  0  0  0  0  0
  1 21  1  6  0  0  0
  1  7  1  0  0  0  0
  2  1  1  0  0  0  0
  3  5  1  6  0  0  0
  3  7  1  0  0  0  0
  3 12  1  0  0  0  0
  4  6  1  0  0  0  0
  7 11  1  1  0  0  0
  8  2  1  6  0  0  0
  8  3  1  0  0  0  0
  9  4  1  0  0  0  0
 11 10  2  0  0  0  0
 11  4  1  0  0  0  0
 12  5  1  1  0  0  0
 12  9  1  0  0  0  0
 13 14  1  0  0  0  0
 13 18  2  0  0  0  0
 14 17  1  0  0  0  0
 16 15  1  6  0  0  0
 16  8  1  0  0  0  0
 17 15  2  0  0  0  0
 18 16  1  0  0  0  0
 19 20  1  0  0  0  0
 20 18  1  0  0  0  0
 22 26  1  0  0  0  0
 23 21  1  1  0  0  0
 23 27  1  0  0  0  0
 24 23  1  0  0  0  0
 25 24  2  0  0  0  0
 25 22  1  0  0  0  0
 26 27  1  0  0  0  0
M  END
>  <MODEL>
4

>  <REMARK>
 VINA RESULT:      -7.1      2.554      6.122
  Name = 
  4 active torsions:
  status: ('A' for Active; 'I' for Inactive)
    1  A    between atoms: C_1  and  C_15
    2  A    between atoms: C_9  and  C_15
    3  A    between atoms: C_14  and  C_19
    4  A    between atoms: C_17  and  O_21
                            x       y       z     vdW  Elec       q    Type
                         _______ _______ _______ _____ _____    ______ ____

>  <TORSDO>
F 4

$$$$
=
 OpenBabel11052423213D

 27 31  0  0  1  0  0  0  0  0999 V2000
  160.5500  210.1460  153.0480 C   0  0  2  0  0  3  0  0  0  0  0  0
  160.7640  209.1450  152.0720 O   0  0  0  0  0  0  0  0  0  0  0  0
  160.8800  208.1520  154.1830 C   0  0  2  0  0  0  0  0  0  0  0  0
  161.9450  209.5360  156.4140 N   0  0  0  0  0  0  0  0  0  0  0  0
  160.2220  207.0160  154.9330 C   0  0  0  0  0  2  0  0  0  0  0  0
  162.9010  210.1770  157.2120 N   0  0  0  0  0  1  0  0  0  0  0  0
  160.3610  209.5380  154.4300 C   0  0  1  0  0  3  0  0  0  0  0  0
  161.2870  208.0100  152.7260 C   0  0  1  0  0  3  0  0  0  0  0  0
  161.6990  208.1130  156.5900 C   0  0  0  0  0  2  0  0  0  0  0  0
  161.2100  211.5330  155.4590 O   0  0  0  0  0  0  0  0  0  0  0  0
  161.1970  210.2730  155.4410 C   0  0  0  0  0  0  0  0  0  0  0  0
  161.6730  207.3930  155.2440 C   0  0  2  0  0  3  0  0  0  0  0  0
  160.9990  205.4890  149.8980 C   0  0  0  0  0  3  0  0  0  0  0  0
  160.7850  204.2170  150.6720 C   0  0  0  0  0  2  0  0  0  0  0  0
  161.4520  205.4970  152.6640 C   0  0  0  0  0  3  0  0  0  0  0  0
  160.8010  206.7140  152.0370 C   0  0  2  0  0  3  0  0  0  0  0  0
  161.4430  204.3210  152.0220 C   0  0  0  0  0  3  0  0  0  0  0  0
  161.0070  206.6790  150.5240 C   0  0  0  0  0  0  0  0  0  0  0  0
  162.1180  208.0030  148.7410 C   0  0  0  0  0  1  0  0  0  0  0  0
  161.1790  207.8660  149.7990 O   0  0  0  0  0  0  0  0  0  0  0  0
  159.4040  211.0890  152.6610 C   0  0  0  0  0  2  0  0  0  0  0  0
  156.8630  214.0750  154.2310 C   0  0  0  0  0  2  0  0  0  0  0  0
  159.0220  212.1550  153.6970 C   0  0  1  0  0  3  0  0  0  0  0  0
  159.0210  213.5530  153.1210 C   0  0  0  0  0  3  0  0  0  0  0  0
  158.0260  214.4230  153.3480 C   0  0  0  0  0  3  0  0  0  0  0  0
  156.5560  212.5860  154.1450 C   0  0  0  0  0  2  0  0  0  0  0  0
  157.7950  211.7920  154.5510 C   0  0  0  0  0  2  0  0  0  0  0  0
  1 21  1  6  0  0  0
  1  7  1  0  0  0  0
  2  1  1  0  0  0  0
  3  7  1  0  0  0  0
  3  5  1  1  0  0  0
  3 12  1  0  0  0  0
  4  9  1  0  0  0  0
  4  6  1  0  0  0  0
  7 11  1  1  0  0  0
  8  2  1  6  0  0  0
  8  3  1  0  0  0  0
 11 10  2  0  0  0  0
 11  4  1  0  0  0  0
 12  5  1  1  0  0  0
 12  9  1  0  0  0  0
 13 18  2  0  0  0  0
 13 14  1  0  0  0  0
 14 17  1  0  0  0  0
 16 15  1  1  0  0  0
 16  8  1  0  0  0  0
 17 15  2  0  0  0  0
 18 16  1  0  0  0  0
 19 20  1  0  0  0  0
 20 18  1  0  0  0  0
 23 21  1  6  0  0  0
 23 27  1  0  0  0  0
 24 25  2  0  0  0  0
 24 23  1  0  0  0  0
 25 22  1  0  0  0  0
 26 22  1  0  0  0  0
 26 27  1  0  0  0  0
M  END
>  <MODEL>
5

>  <REMARK>
 VINA RESULT:      -7.0      3.516      5.428
  Name = 
  4 active torsions:
  status: ('A' for Active; 'I' for Inactive)
    1  A    between atoms: C_1  and  C_15
    2  A    between atoms: C_9  and  C_15
    3  A    between atoms: C_14  and  C_19
    4  A    between atoms: C_17  and  O_21
                            x       y       z     vdW  Elec       q    Type
                         _______ _______ _______ _____ _____    ______ ____

>  <TORSDO>
F 4

$$$$
=
 OpenBabel11052423213D

 27 31  0  0  1  0  0  0  0  0999 V2000
  162.3590  209.7410  151.4710 C   0  0  2  0  0  3  0  0  0  0  0  0
  162.3960  209.5980  152.8780 O   0  0  0  0  0  0  0  0  0  0  0  0
  160.6110  211.0000  152.3250 C   0  0  2  0  0  0  0  0  0  0  0  0
  160.7560  212.7890  150.1330 N   0  0  0  0  0  0  0  0  0  0  0  0
  159.1190  211.0720  152.5590 C   0  0  0  0  0  2  0  0  0  0  0  0
  161.1970  213.8760  149.3690 N   0  0  0  0  0  1  0  0  0  0  0  0
  161.0810  210.4320  151.0200 C   0  0  1  0  0  3  0  0  0  0  0  0
  161.5680  210.5960  153.4340 C   0  0  1  0  0  3  0  0  0  0  0  0
  159.6240  212.9550  151.0320 C   0  0  0  0  0  2  0  0  0  0  0  0
  162.1950  211.2900  149.0730 O   0  0  0  0  0  0  0  0  0  0  0  0
  161.3980  211.5140  150.0240 C   0  0  0  0  0  0  0  0  0  0  0  0
  159.9280  212.3630  152.4060 C   0  0  2  0  0  3  0  0  0  0  0  0
  160.5460  208.0000  156.0140 C   0  0  0  0  0  3  0  0  0  0  0  0
  160.4720  208.8470  157.2550 C   0  0  0  0  0  2  0  0  0  0  0  0
  161.6250  210.5860  155.9520 C   0  0  0  0  0  3  0  0  0  0  0  0
  160.8910  210.0820  154.7260 C   0  0  2  0  0  3  0  0  0  0  0  0
  161.4270  210.0050  157.1430 C   0  0  0  0  0  3  0  0  0  0  0  0
  160.7400  208.5650  154.8090 C   0  0  0  0  0  0  0  0  0  0  0  0
  161.2090  206.4230  153.6440 C   0  0  0  0  0  1  0  0  0  0  0  0
  160.7820  207.7790  153.6500 O   0  0  0  0  0  0  0  0  0  0  0  0
  162.5890  208.4060  150.7520 C   0  0  0  0  0  2  0  0  0  0  0  0
  160.8830  205.7300  147.9660 C   0  0  0  0  0  2  0  0  0  0  0  0
  161.5120  207.9820  149.7450 C   0  0  1  0  0  3  0  0  0  0  0  0
  162.0380  207.8970  148.3300 C   0  0  0  0  0  3  0  0  0  0  0  0
  161.7690  206.8600  147.5240 C   0  0  0  0  0  3  0  0  0  0  0  0
  161.0180  205.5030  149.4660 C   0  0  0  0  0  2  0  0  0  0  0  0
  160.6560  206.7890  150.2040 C   0  0  0  0  0  2  0  0  0  0  0  0
  1 21  1  6  0  0  0
  1  2  1  0  0  0  0
  3 12  1  0  0  0  0
  3  5  1  1  0  0  0
  3  8  1  0  0  0  0
  4  9  1  0  0  0  0
  6  4  1  0  0  0  0
  7 11  1  6  0  0  0
  7  1  1  0  0  0  0
  7  3  1  0  0  0  0
  8  2  1  6  0  0  0
  8 16  1  0  0  0  0
 10 11  2  0  0  0  0
 11  4  1  0  0  0  0
 12  9  1  6  0  0  0
 12  5  1  0  0  0  0
 13 14  1  0  0  0  0
 15 17  2  0  0  0  0
 16 18  1  0  0  0  0
 16 15  1  1  0  0  0
 17 14  1  0  0  0  0
 18 13  2  0  0  0  0
 19 20  1  0  0  0  0
 20 18  1  0  0  0  0
 22 26  1  0  0  0  0
 23 27  1  0  0  0  0
 23 21  1  1  0  0  0
 24 23  1  0  0  0  0
 25 22  1  0  0  0  0
 25 24  2  0  0  0  0
 26 27  1  0  0  0  0
M  END
>  <MODEL>
6

>  <REMARK>
 VINA RESULT:      -7.0      1.792      6.401
  Name = 
  4 active torsions:
  status: ('A' for Active; 'I' for Inactive)
    1  A    between atoms: C_1  and  C_15
    2  A    between atoms: C_9  and  C_15
    3  A    between atoms: C_14  and  C_19
    4  A    between atoms: C_17  and  O_21
                            x       y       z     vdW  Elec       q    Type
                         _______ _______ _______ _____ _____    ______ ____

>  <TORSDO>
F 4

$$$$
=
 OpenBabel11052423213D

 27 31  0  0  1  0  0  0  0  0999 V2000
  161.4430  209.3320  150.5730 C   0  0  2  0  0  3  0  0  0  0  0  0
  161.0350  209.4520  151.9220 O   0  0  0  0  0  0  0  0  0  0  0  0
  161.6470  207.2320  151.5310 C   0  0  2  0  0  0  0  0  0  0  0  0
  161.1820  205.9870  149.0290 N   0  0  0  0  0  0  0  0  0  0  0  0
  162.5980  206.2070  152.1050 C   0  0  0  0  0  2  0  0  0  0  0  0
  160.4560  205.4530  147.9570 N   0  0  0  0  0  1  0  0  0  0  0  0
  162.0910  207.9820  150.3100 C   0  0  1  0  0  3  0  0  0  0  0  0
  160.8360  208.1510  152.4290 C   0  0  1  0  0  3  0  0  0  0  0  0
  161.5950  205.1170  150.1200 C   0  0  0  0  0  2  0  0  0  0  0  0
  161.4150  208.0700  148.0080 O   0  0  0  0  0  0  0  0  0  0  0  0
  161.5340  207.3730  149.0510 C   0  0  0  0  0  0  0  0  0  0  0  0
  161.2800  205.7520  151.4730 C   0  0  2  0  0  3  0  0  0  0  0  0
  160.9200  209.3640  156.0290 C   0  0  0  0  0  3  0  0  0  0  0  0
  161.0030  208.0560  156.7670 C   0  0  0  0  0  2  0  0  0  0  0  0
  160.4370  206.9860  154.6260 C   0  0  0  0  0  3  0  0  0  0  0  0
  161.2060  208.0900  153.9290 C   0  0  2  0  0  3  0  0  0  0  0  0
  160.3420  206.9700  155.9630 C   0  0  0  0  0  3  0  0  0  0  0  0
  161.0170  209.4020  154.6880 C   0  0  0  0  0  0  0  0  0  0  0  0
  160.2250  211.7440  154.4640 C   0  0  0  0  0  1  0  0  0  0  0  0
  160.9660  210.6220  154.0020 O   0  0  0  0  0  0  0  0  0  0  0  0
  162.3310  210.5040  150.1350 C   0  0  0  0  0  2  0  0  0  0  0  0
  162.1630  214.0730  147.8850 C   0  0  0  0  0  2  0  0  0  0  0  0
  161.7880  211.3800  148.9990 C   0  0  1  0  0  3  0  0  0  0  0  0
  161.0190  212.5800  149.5040 C   0  0  0  0  0  3  0  0  0  0  0  0
  161.2040  213.8130  149.0110 C   0  0  0  0  0  3  0  0  0  0  0  0
  163.3360  213.1050  147.9490 C   0  0  0  0  0  2  0  0  0  0  0  0
  162.8100  211.6720  147.8870 C   0  0  0  0  0  2  0  0  0  0  0  0
  1 21  1  1  0  0  0
  1  2  1  0  0  0  0
  3  5  1  1  0  0  0
  3  8  1  0  0  0  0
  4 11  1  0  0  0  0
  4  9  1  0  0  0  0
  6  4  1  0  0  0  0
  7 11  1  6  0  0  0
  7  1  1  0  0  0  0
  7  3  1  0  0  0  0
  8  2  1  6  0  0  0
  8 16  1  0  0  0  0
 10 11  2  0  0  0  0
 12  9  1  6  0  0  0
 12  3  1  0  0  0  0
 12  5  1  0  0  0  0
 13 14  1  0  0  0  0
 15 17  2  0  0  0  0
 16 15  1  1  0  0  0
 16 18  1  0  0  0  0
 17 14  1  0  0  0  0
 18 13  2  0  0  0  0
 20 19  1  0  0  0  0
 20 18  1  0  0  0  0
 22 26  1  0  0  0  0
 22 25  1  0  0  0  0
 23 24  1  0  0  0  0
 23 21  1  1  0  0  0
 25 24  2  0  0  0  0
 27 26  1  0  0  0  0
 27 23  1  0  0  0  0
M  END
>  <MODEL>
7

>  <REMARK>
 VINA RESULT:      -7.0      2.405      6.829
  Name = 
  4 active torsions:
  status: ('A' for Active; 'I' for Inactive)
    1  A    between atoms: C_1  and  C_15
    2  A    between atoms: C_9  and  C_15
    3  A    between atoms: C_14  and  C_19
    4  A    between atoms: C_17  and  O_21
                            x       y       z     vdW  Elec       q    Type
                         _______ _______ _______ _____ _____    ______ ____

>  <TORSDO>
F 4

$$$$
=
 OpenBabel11052423213D

 27 31  0  0  1  0  0  0  0  0999 V2000
  161.5380  206.5980  151.3710 C   0  0  2  0  0  3  0  0  0  0  0  0
  161.8680  206.3380  152.7210 O   0  0  0  0  0  0  0  0  0  0  0  0
  161.1930  208.5670  152.5430 C   0  0  2  0  0  0  0  0  0  0  0  0
  161.7560  210.1050  150.2320 N   0  0  0  0  0  0  0  0  0  0  0  0
  160.1690  209.4880  153.1670 C   0  0  0  0  0  2  0  0  0  0  0  0
  162.5230  210.7820  149.2750 N   0  0  0  0  0  1  0  0  0  0  0  0
  160.8530  207.9480  151.2200 C   0  0  1  0  0  3  0  0  0  0  0  0
  161.9850  207.5780  153.3830 C   0  0  1  0  0  3  0  0  0  0  0  0
  161.2450  210.8310  151.3850 C   0  0  0  0  0  2  0  0  0  0  0  0
  161.6680  208.1450  148.9700 O   0  0  0  0  0  0  0  0  0  0  0  0
  161.4590  208.7140  150.0750 C   0  0  0  0  0  0  0  0  0  0  0  0
  161.5040  210.0560  152.6750 C   0  0  2  0  0  3  0  0  0  0  0  0
  160.9900  208.8550  156.8210 C   0  0  0  0  0  3  0  0  0  0  0  0
  160.0410  207.7730  157.2610 C   0  0  0  0  0  2  0  0  0  0  0  0
  160.0810  206.9980  154.9270 C   0  0  0  0  0  3  0  0  0  0  0  0
  161.5240  207.4550  154.8530 C   0  0  2  0  0  3  0  0  0  0  0  0
  159.3830  207.1480  156.0610 C   0  0  0  0  0  3  0  0  0  0  0  0
  161.7020  208.7220  155.6870 C   0  0  0  0  0  0  0  0  0  0  0  0
  163.1260  210.6950  156.1810 C   0  0  0  0  0  1  0  0  0  0  0  0
  162.6050  209.7170  155.2900 O   0  0  0  0  0  0  0  0  0  0  0  0
  160.7250  205.4560  150.7490 C   0  0  0  0  0  2  0  0  0  0  0  0
  160.9900  201.3520  149.7870 C   0  0  0  0  0  2  0  0  0  0  0  0
  161.5020  204.1800  150.4000 C   0  0  1  0  0  3  0  0  0  0  0  0
  161.4010  203.1230  151.4770 C   0  0  0  0  0  3  0  0  0  0  0  0
  161.1470  201.8360  151.2000 C   0  0  0  0  0  3  0  0  0  0  0  0
  160.3850  202.4430  148.9140 C   0  0  0  0  0  2  0  0  0  0  0  0
  161.2790  203.6800  148.9630 C   0  0  0  0  0  2  0  0  0  0  0  0
  1 21  1  1  0  0  0
  1  2  1  0  0  0  0
  3 12  1  0  0  0  0
  3  5  1  1  0  0  0
  3  8  1  0  0  0  0
  4  9  1  0  0  0  0
  6  4  1  0  0  0  0
  7 11  1  6  0  0  0
  7  1  1  0  0  0  0
  7  3  1  0  0  0  0
  8  2  1  6  0  0  0
  8 16  1  0  0  0  0
 10 11  2  0  0  0  0
 11  4  1  0  0  0  0
 12  9  1  6  0  0  0
 12  5  1  0  0  0  0
 13 14  1  0  0  0  0
 15 17  2  0  0  0  0
 16 15  1  6  0  0  0
 16 18  1  0  0  0  0
 17 14  1  0  0  0  0
 18 13  2  0  0  0  0
 20 18  1  0  0  0  0
 20 19  1  0  0  0  0
 22 25  1  0  0  0  0
 23 21  1  1  0  0  0
 23 24  1  0  0  0  0
 25 24  2  0  0  0  0
 26 27  1  0  0  0  0
 26 22  1  0  0  0  0
 27 23  1  0  0  0  0
M  END
>  <MODEL>
8

>  <REMARK>
 VINA RESULT:      -6.8      1.683      6.432
  Name = 
  4 active torsions:
  status: ('A' for Active; 'I' for Inactive)
    1  A    between atoms: C_1  and  C_15
    2  A    between atoms: C_9  and  C_15
    3  A    between atoms: C_14  and  C_19
    4  A    between atoms: C_17  and  O_21
                            x       y       z     vdW  Elec       q    Type
                         _______ _______ _______ _____ _____    ______ ____

>  <TORSDO>
F 4

$$$$
=
 OpenBabel11052423213D

 27 31  0  0  1  0  0  0  0  0999 V2000
  161.1570  208.6960  152.3150 C   0  0  2  0  0  3  0  0  0  0  0  0
  160.4930  209.7650  151.6680 O   0  0  0  0  0  0  0  0  0  0  0  0
  160.4550  210.1590  153.9710 C   0  0  2  0  0  0  0  0  0  0  0  0
  160.2440  208.0340  155.8330 N   0  0  0  0  0  0  0  0  0  0  0  0
  160.8680  211.2460  154.9360 C   0  0  0  0  0  2  0  0  0  0  0  0
  159.6710  206.9520  156.5120 N   0  0  0  0  0  1  0  0  0  0  0  0
  161.3930  209.0030  153.7860 C   0  0  1  0  0  3  0  0  0  0  0  0
  159.7800  210.4860  152.6490 C   0  0  1  0  0  3  0  0  0  0  0  0
  160.0870  209.3800  156.3630 C   0  0  0  0  0  2  0  0  0  0  0  0
  161.3590  206.6610  154.3120 O   0  0  0  0  0  0  0  0  0  0  0  0
  160.9970  207.8240  154.6340 C   0  0  0  0  0  0  0  0  0  0  0  0
  159.6680  210.3530  155.2640 C   0  0  2  0  0  3  0  0  0  0  0  0
  160.0890  213.5210  150.3840 C   0  0  0  0  0  3  0  0  0  0  0  0
  159.0930  214.4520  151.0210 C   0  0  0  0  0  2  0  0  0  0  0  0
  158.3090  212.4990  152.2930 C   0  0  0  0  0  3  0  0  0  0  0  0
  159.7360  211.9900  152.2930 C   0  0  2  0  0  3  0  0  0  0  0  0
  158.0060  213.6590  151.6950 C   0  0  0  0  0  3  0  0  0  0  0  0
  160.4080  212.3530  150.9710 C   0  0  0  0  0  0  0  0  0  0  0  0
  161.9460  211.7380  149.1220 C   0  0  0  0  0  1  0  0  0  0  0  0
  161.3540  211.4980  150.3920 O   0  0  0  0  0  0  0  0  0  0  0  0
  162.4450  208.2960  151.5860 C   0  0  0  0  0  2  0  0  0  0  0  0
  160.4570  205.7370  148.8770 C   0  0  0  0  0  2  0  0  0  0  0  0
  162.3600  207.0540  150.6880 C   0  0  1  0  0  3  0  0  0  0  0  0
  161.3390  206.0510  151.1760 C   0  0  0  0  0  3  0  0  0  0  0  0
  160.4570  205.4650  150.3540 C   0  0  0  0  0  3  0  0  0  0  0  0
  160.9130  207.1630  148.5990 C   0  0  0  0  0  2  0  0  0  0  0  0
  162.3090  207.3690  149.1830 C   0  0  0  0  0  2  0  0  0  0  0  0
  1 21  1  6  0  0  0
  1  7  1  0  0  0  0
  2  1  1  0  0  0  0
  3  5  1  1  0  0  0
  3 12  1  0  0  0  0
  4  9  1  0  0  0  0
  4  6  1  0  0  0  0
  7  3  1  0  0  0  0
  7 11  1  1  0  0  0
  8  2  1  6  0  0  0
  8  3  1  0  0  0  0
 10 11  2  0  0  0  0
 11  4  1  0  0  0  0
 12  5  1  1  0  0  0
 12  9  1  0  0  0  0
 13 18  2  0  0  0  0
 13 14  1  0  0  0  0
 14 17  1  0  0  0  0
 16 15  1  6  0  0  0
 16  8  1  0  0  0  0
 17 15  2  0  0  0  0
 18 16  1  0  0  0  0
 19 20  1  0  0  0  0
 20 18  1  0  0  0  0
 22 25  1  0  0  0  0
 23 24  1  0  0  0  0
 23 21  1  1  0  0  0
 25 24  2  0  0  0  0
 26 22  1  0  0  0  0
 26 27  1  0  0  0  0
 27 23  1  0  0  0  0
M  END
>  <MODEL>
9

>  <REMARK>
 VINA RESULT:      -6.6      3.133      7.146
  Name = 
  4 active torsions:
  status: ('A' for Active; 'I' for Inactive)
    1  A    between atoms: C_1  and  C_15
    2  A    between atoms: C_9  and  C_15
    3  A    between atoms: C_14  and  C_19
    4  A    between atoms: C_17  and  O_21
                            x       y       z     vdW  Elec       q    Type
                         _______ _______ _______ _____ _____    ______ ____

>  <TORSDO>
F 4

$$$$
