=
 OpenBabel11062410433D

 32 37  0  0  1  0  0  0  0  0999 V2000
  160.2140  207.5090  156.5270 C   0  0  0  0  0  3  0  0  0  0  0  0
  161.3160  207.6120  151.5470 C   0  0  0  0  0  0  0  0  0  0  0  0
  161.2000  202.7310  150.3270 C   0  0  0  0  0  2  0  0  0  0  0  0
  160.8350  203.1330  148.9000 C   0  0  0  0  0  2  0  0  0  0  0  0
  161.7110  209.3460  149.8740 C   0  0  0  0  0  0  0  0  0  0  0  0
  161.5800  210.3150  150.8960 C   0  0  0  0  0  0  0  0  0  0  0  0
  160.9260  208.2940  153.8630 C   0  0  0  0  0  0  0  0  0  0  0  0
  160.9930  205.9390  153.2850 C   0  0  0  0  0  3  0  0  0  0  0  0
  162.0800  211.1450  148.2720 C   0  0  0  0  0  0  0  0  0  0  0  0
  160.5850  206.5800  155.6430 C   0  0  0  0  0  3  0  0  0  0  0  0
  160.7900  203.8260  151.3090 C   0  0  0  0  0  2  0  0  0  0  0  0
  161.2070  206.2530  151.9360 C   0  0  0  0  0  0  0  0  0  0  0  0
  161.4820  205.1440  150.9440 C   0  0  2  0  0  3  0  0  0  0  0  0
  161.6510  206.8920  149.1790 C   0  0  0  0  0  0  0  0  0  0  0  0
  161.9560  212.0910  149.2910 C   0  0  0  0  0  3  0  0  0  0  0  0
  160.8330  206.9420  154.2380 C   0  0  0  0  0  0  0  0  0  0  0  0
  161.7050  211.6760  150.6000 C   0  0  0  0  0  3  0  0  0  0  0  0
  160.8660  209.3570  154.9320 C   0  0  0  0  0  2  0  0  0  0  0  0
  159.9550  208.9270  156.0890 C   0  0  2  0  0  3  0  0  0  0  0  0
  161.5060  204.4550  148.5330 C   0  0  0  0  0  2  0  0  0  0  0  0
  161.0810  205.5460  149.5200 C   0  0  1  0  0  3  0  0  0  0  0  0
  162.1360  207.1030  148.0330 O   0  0  0  0  0  0  0  0  0  0  0  0
  161.1840  208.6300  152.5250 C   0  0  0  0  0  0  0  0  0  0  0  0
  161.3210  209.9340  152.1700 N   0  0  0  0  0  0  0  0  0  0  0  0
  162.3210  211.5480  147.0010 F   0  0  0  0  0  0  0  0  0  0  0  0
  161.5730  207.9740  150.2010 C   0  0  0  0  0  0  0  0  0  0  0  0
  161.9560  209.7840  148.5620 C   0  0  0  0  0  3  0  0  0  0  0  0
  160.0220  209.9040  157.2580 C   0  0  0  0  0  2  0  0  0  0  0  0
  160.6740  211.2270  156.8700 C   0  0  0  0  0  2  0  0  0  0  0  0
  159.4330  212.5230  156.6760 S   0  0  1  0  0  0  0  0  0  0  0  0
  159.2830  212.7470  154.8960 C   0  0  0  0  0  1  0  0  0  0  0  0
  158.1250  211.8470  157.0660 O   0  0  0  0  0  0  0  0  0  0  0  0
  2 12  2  0  0  0  0
  2 23  1  0  0  0  0
  3 11  1  0  0  0  0
  4  3  1  0  0  0  0
  5 26  2  0  0  0  0
  5  6  1  0  0  0  0
  6 24  2  0  0  0  0
  7 16  1  0  0  0  0
  7 18  1  0  0  0  0
  8 16  2  0  0  0  0
  9 27  2  0  0  0  0
  9 15  1  0  0  0  0
 10  1  2  0  0  0  0
 12  8  1  0  0  0  0
 13 11  1  1  0  0  0
 13 12  1  0  0  0  0
 14 21  1  0  0  0  0
 14 26  1  0  0  0  0
 15 17  2  0  0  0  0
 16 10  1  0  0  0  0
 17  6  1  0  0  0  0
 18 19  1  0  0  0  0
 19  1  1  0  0  0  0
 19 28  1  1  0  0  0
 20  4  1  0  0  0  0
 21 20  1  6  0  0  0
 21 13  1  0  0  0  0
 22 14  2  0  0  0  0
 23  7  2  0  0  0  0
 24 23  1  0  0  0  0
 25  9  1  0  0  0  0
 26  2  1  0  0  0  0
 27  5  1  0  0  0  0
 29 28  1  0  0  0  0
 30 31  1  6  0  0  0
 30 29  1  0  0  0  0
 30 32  2  0  0  0  0
M  END
>  <MODEL>
1

>  <REMARK>
 VINA RESULT:      -9.1      0.000      0.000
  Name = 
  3 active torsions:
  status: ('A' for Active; 'I' for Inactive)
    1  A    between atoms: S_1  and  C_10
    2  A    between atoms: C_10  and  C_19
    3  A    between atoms: C_19  and  C_24
                            x       y       z     vdW  Elec       q    Type
                         _______ _______ _______ _____ _____    ______ ____

>  <TORSDO>
F 3

$$$$
=
 OpenBabel11062410433D

 32 37  0  0  1  0  0  0  0  0999 V2000
  160.9650  202.4480  151.2990 C   0  0  0  0  0  3  0  0  0  0  0  0
  161.2170  207.4710  152.1570 C   0  0  0  0  0  0  0  0  0  0  0  0
  160.6730  207.7290  157.1530 C   0  0  0  0  0  2  0  0  0  0  0  0
  161.4620  209.0350  157.1350 C   0  0  0  0  0  2  0  0  0  0  0  0
  161.6140  209.4630  150.8020 C   0  0  0  0  0  0  0  0  0  0  0  0
  161.6680  208.6330  149.6580 C   0  0  0  0  0  0  0  0  0  0  0  0
  161.1280  205.2980  151.0370 C   0  0  0  0  0  0  0  0  0  0  0  0
  160.7460  205.4480  153.4280 C   0  0  0  0  0  3  0  0  0  0  0  0
  162.0300  211.3930  149.3730 C   0  0  0  0  0  0  0  0  0  0  0  0
  160.6560  203.2240  152.3400 C   0  0  0  0  0  3  0  0  0  0  0  0
  161.0260  206.8780  155.9360 C   0  0  0  0  0  2  0  0  0  0  0  0
  160.9510  206.8350  153.3960 C   0  0  0  0  0  0  0  0  0  0  0  0
  160.7250  207.6540  154.6490 C   0  0  2  0  0  3  0  0  0  0  0  0
  161.3630  209.6690  153.3330 C   0  0  0  0  0  0  0  0  0  0  0  0
  162.0740  210.5630  148.2510 C   0  0  0  0  0  3  0  0  0  0  0  0
  160.8520  204.6820  152.2710 C   0  0  0  0  0  0  0  0  0  0  0  0
  161.8950  209.1870  148.3940 C   0  0  0  0  0  3  0  0  0  0  0  0
  161.1220  204.4620  149.7810 C   0  0  0  0  0  2  0  0  0  0  0  0
  161.6040  203.0330  150.0660 C   0  0  2  0  0  3  0  0  0  0  0  0
  161.1830  209.8070  155.8480 C   0  0  0  0  0  2  0  0  0  0  0  0
  161.5480  208.9470  154.6350 C   0  0  1  0  0  3  0  0  0  0  0  0
  161.2380  210.9250  153.3160 O   0  0  0  0  0  0  0  0  0  0  0  0
  161.2930  206.6900  150.9750 C   0  0  0  0  0  0  0  0  0  0  0  0
  161.5120  207.2930  149.7770 N   0  0  0  0  0  0  0  0  0  0  0  0
  162.2070  212.7280  149.2350 F   0  0  0  0  0  0  0  0  0  0  0  0
  161.3890  208.8750  152.0720 C   0  0  0  0  0  0  0  0  0  0  0  0
  161.8040  210.8450  150.6380 C   0  0  0  0  0  3  0  0  0  0  0  0
  161.4340  202.1240  148.8540 C   0  0  0  0  0  2  0  0  0  0  0  0
  160.5550  202.7530  147.7780 C   0  0  0  0  0  2  0  0  0  0  0  0
  161.3110  202.5840  146.1470 S   0  0  1  0  0  0  0  0  0  0  0  0
  160.1540  201.5700  145.2130 C   0  0  0  0  0  1  0  0  0  0  0  0
  161.1640  203.9660  145.5250 O   0  0  0  0  0  0  0  0  0  0  0  0
  1 10  2  0  0  0  0
  2 12  2  0  0  0  0
  4  3  1  0  0  0  0
  5 26  2  0  0  0  0
  6 24  2  0  0  0  0
  6  5  1  0  0  0  0
  7 16  1  0  0  0  0
  9 27  2  0  0  0  0
 11  3  1  0  0  0  0
 12  8  1  0  0  0  0
 12 13  1  0  0  0  0
 13 11  1  1  0  0  0
 14 21  1  0  0  0  0
 15 17  2  0  0  0  0
 15  9  1  0  0  0  0
 16 10  1  0  0  0  0
 16  8  2  0  0  0  0
 17  6  1  0  0  0  0
 18 19  1  0  0  0  0
 18  7  1  0  0  0  0
 19 28  1  6  0  0  0
 19  1  1  0  0  0  0
 20  4  1  0  0  0  0
 21 13  1  0  0  0  0
 21 20  1  1  0  0  0
 22 14  2  0  0  0  0
 23  7  2  0  0  0  0
 23  2  1  0  0  0  0
 24 23  1  0  0  0  0
 25  9  1  0  0  0  0
 26  2  1  0  0  0  0
 26 14  1  0  0  0  0
 27  5  1  0  0  0  0
 29 28  1  0  0  0  0
 30 31  1  6  0  0  0
 30 29  1  0  0  0  0
 32 30  2  0  0  0  0
M  END
>  <MODEL>
2

>  <REMARK>
 VINA RESULT:      -8.9      3.135      7.126
  Name = 
  3 active torsions:
  status: ('A' for Active; 'I' for Inactive)
    1  A    between atoms: S_1  and  C_10
    2  A    between atoms: C_10  and  C_19
    3  A    between atoms: C_19  and  C_24
                            x       y       z     vdW  Elec       q    Type
                         _______ _______ _______ _____ _____    ______ ____

>  <TORSDO>
F 3

$$$$
=
 OpenBabel11062410433D

 32 37  0  0  1  0  0  0  0  0999 V2000
  161.1260  203.2180  149.2220 C   0  0  0  0  0  3  0  0  0  0  0  0
  161.2010  207.9670  151.0860 C   0  0  0  0  0  0  0  0  0  0  0  0
  160.6150  207.1840  156.0230 C   0  0  0  0  0  2  0  0  0  0  0  0
  161.3590  208.4920  156.2820 C   0  0  0  0  0  2  0  0  0  0  0  0
  161.5400  210.2040  150.1700 C   0  0  0  0  0  0  0  0  0  0  0  0
  161.6300  209.6270  148.8830 C   0  0  0  0  0  0  0  0  0  0  0  0
  161.1940  206.0660  149.5470 C   0  0  0  0  0  0  0  0  0  0  0  0
  160.7910  205.7140  151.9130 C   0  0  0  0  0  3  0  0  0  0  0  0
  161.9000  212.3970  149.1690 C   0  0  0  0  0  0  0  0  0  0  0  0
  160.7840  203.7560  150.3950 C   0  0  0  0  0  3  0  0  0  0  0  0
  161.0050  206.6110  154.6630 C   0  0  0  0  0  2  0  0  0  0  0  0
  160.9490  207.0840  152.1670 C   0  0  0  0  0  0  0  0  0  0  0  0
  160.6870  207.6230  153.5570 C   0  0  2  0  0  3  0  0  0  0  0  0
  161.2650  209.8830  152.6870 C   0  0  0  0  0  0  0  0  0  0  0  0
  161.9790  211.8150  147.9030 C   0  0  0  0  0  3  0  0  0  0  0  0
  160.9310  205.2030  150.6260 C   0  0  0  0  0  0  0  0  0  0  0  0
  161.8460  210.4330  147.7600 C   0  0  0  0  0  3  0  0  0  0  0  0
  161.2250  205.5030  148.1480 C   0  0  0  0  0  2  0  0  0  0  0  0
  161.7530  204.0620  148.1430 C   0  0  2  0  0  3  0  0  0  0  0  0
  161.0630  209.5000  155.1750 C   0  0  0  0  0  2  0  0  0  0  0  0
  161.4650  208.9170  153.8180 C   0  0  1  0  0  3  0  0  0  0  0  0
  161.0970  211.1110  152.9240 O   0  0  0  0  0  0  0  0  0  0  0  0
  161.3120  207.4460  149.7720 C   0  0  0  0  0  0  0  0  0  0  0  0
  161.5180  208.2860  148.7250 N   0  0  0  0  0  0  0  0  0  0  0  0
  162.0320  213.7380  149.3080 F   0  0  0  0  0  0  0  0  0  0  0  0
  161.3260  209.3640  151.2910 C   0  0  0  0  0  0  0  0  0  0  0  0
  161.6840  211.5970  150.2940 C   0  0  0  0  0  3  0  0  0  0  0  0
  161.6220  203.4140  146.7690 C   0  0  0  0  0  2  0  0  0  0  0  0
  162.2080  204.2840  145.6620 C   0  0  0  0  0  2  0  0  0  0  0  0
  160.9210  204.8190  144.5140 S   0  0  1  0  0  0  0  0  0  0  0  0
  160.1310  206.2130  145.3350 C   0  0  0  0  0  1  0  0  0  0  0  0
  161.6910  205.4650  143.3690 O   0  0  0  0  0  0  0  0  0  0  0  0
  1 10  2  0  0  0  0
  2 26  1  0  0  0  0
  2 12  2  0  0  0  0
  3  4  1  0  0  0  0
  5 27  1  0  0  0  0
  5 26  2  0  0  0  0
  6  5  1  0  0  0  0
  7 23  2  0  0  0  0
  7 16  1  0  0  0  0
  8 12  1  0  0  0  0
  9 25  1  0  0  0  0
  9 27  2  0  0  0  0
 10 16  1  0  0  0  0
 11  3  1  0  0  0  0
 12 13  1  0  0  0  0
 13 21  1  0  0  0  0
 13 11  1  1  0  0  0
 14 22  2  0  0  0  0
 14 21  1  0  0  0  0
 15  9  1  0  0  0  0
 16  8  2  0  0  0  0
 17 15  2  0  0  0  0
 17  6  1  0  0  0  0
 18  7  1  0  0  0  0
 19 28  1  6  0  0  0
 19 18  1  0  0  0  0
 19  1  1  0  0  0  0
 20  4  1  0  0  0  0
 21 20  1  1  0  0  0
 23  2  1  0  0  0  0
 24  6  2  0  0  0  0
 24 23  1  0  0  0  0
 26 14  1  0  0  0  0
 29 28  1  0  0  0  0
 30 31  1  1  0  0  0
 30 29  1  0  0  0  0
 32 30  2  0  0  0  0
M  END
>  <MODEL>
3

>  <REMARK>
 VINA RESULT:      -8.7      3.205      7.098
  Name = 
  3 active torsions:
  status: ('A' for Active; 'I' for Inactive)
    1  A    between atoms: S_1  and  C_10
    2  A    between atoms: C_10  and  C_19
    3  A    between atoms: C_19  and  C_24
                            x       y       z     vdW  Elec       q    Type
                         _______ _______ _______ _____ _____    ______ ____

>  <TORSDO>
F 3

$$$$
=
 OpenBabel11062410433D

 32 37  0  0  1  0  0  0  0  0999 V2000
  161.4860  212.9380  148.8810 C   0  0  0  0  0  3  0  0  0  0  0  0
  161.5060  208.0330  150.2830 C   0  0  0  0  0  0  0  0  0  0  0  0
  161.1020  208.3530  155.2890 C   0  0  0  0  0  2  0  0  0  0  0  0
  160.4460  206.9740  155.2880 C   0  0  0  0  0  2  0  0  0  0  0  0
  161.5480  205.8810  149.1310 C   0  0  0  0  0  0  0  0  0  0  0  0
  161.6430  206.5770  147.9040 C   0  0  0  0  0  0  0  0  0  0  0  0
  161.6210  210.0760  148.9420 C   0  0  0  0  0  0  0  0  0  0  0  0
  161.5490  210.2150  151.3630 C   0  0  0  0  0  3  0  0  0  0  0  0
  161.5810  203.7800  147.8960 C   0  0  0  0  0  0  0  0  0  0  0  0
  161.6550  212.3110  150.0470 C   0  0  0  0  0  3  0  0  0  0  0  0
  160.9170  209.0310  153.9340 C   0  0  0  0  0  2  0  0  0  0  0  0
  161.4740  208.8180  151.4630 C   0  0  0  0  0  0  0  0  0  0  0  0
  161.5250  208.1620  152.8260 C   0  0  2  0  0  3  0  0  0  0  0  0
  161.3260  205.9650  151.6710 C   0  0  0  0  0  0  0  0  0  0  0  0
  161.6820  204.4800  146.6920 C   0  0  0  0  0  3  0  0  0  0  0  0
  161.6010  210.8420  150.1210 C   0  0  0  0  0  0  0  0  0  0  0  0
  161.7120  205.8750  146.6960 C   0  0  0  0  0  3  0  0  0  0  0  0
  161.7960  210.7730  147.6160 C   0  0  0  0  0  2  0  0  0  0  0  0
  161.1490  212.1640  147.6330 C   0  0  2  0  0  3  0  0  0  0  0  0
  161.0320  206.1080  154.1760 C   0  0  0  0  0  2  0  0  0  0  0  0
  160.8330  206.7940  152.8220 C   0  0  1  0  0  3  0  0  0  0  0  0
  161.5590  204.7350  151.8310 O   0  0  0  0  0  0  0  0  0  0  0  0
  161.5920  208.6750  149.0210 C   0  0  0  0  0  0  0  0  0  0  0  0
  161.6590  207.9320  147.8860 N   0  0  0  0  0  0  0  0  0  0  0  0
  161.5500  202.4260  147.8910 F   0  0  0  0  0  0  0  0  0  0  0  0
  161.4740  206.6170  150.3400 C   0  0  0  0  0  0  0  0  0  0  0  0
  161.5130  204.4770  149.1050 C   0  0  0  0  0  3  0  0  0  0  0  0
  161.4690  212.9560  146.3700 C   0  0  0  0  0  2  0  0  0  0  0  0
  160.3130  212.9500  145.3750 C   0  0  0  0  0  2  0  0  0  0  0  0
  160.9180  213.1170  143.6830 S   0  0  1  0  0  0  0  0  0  0  0  0
  162.7060  212.9530  143.8210 C   0  0  0  0  0  1  0  0  0  0  0  0
  160.4890  211.8220  143.0060 O   0  0  0  0  0  0  0  0  0  0  0  0
  1 10  2  0  0  0  0
  2 26  1  0  0  0  0
  2 12  2  0  0  0  0
  4  3  1  0  0  0  0
  5 26  2  0  0  0  0
  6  5  1  0  0  0  0
  7 23  2  0  0  0  0
  7 16  1  0  0  0  0
  8 12  1  0  0  0  0
  9 27  2  0  0  0  0
 10 16  1  0  0  0  0
 11  3  1  0  0  0  0
 12 13  1  0  0  0  0
 13 11  1  1  0  0  0
 14 22  2  0  0  0  0
 14 21  1  0  0  0  0
 15 17  2  0  0  0  0
 15  9  1  0  0  0  0
 16  8  2  0  0  0  0
 17  6  1  0  0  0  0
 18 19  1  0  0  0  0
 18  7  1  0  0  0  0
 19 28  1  6  0  0  0
 19  1  1  0  0  0  0
 20  4  1  0  0  0  0
 21 13  1  0  0  0  0
 21 20  1  1  0  0  0
 23  2  1  0  0  0  0
 24  6  2  0  0  0  0
 24 23  1  0  0  0  0
 25  9  1  0  0  0  0
 26 14  1  0  0  0  0
 27  5  1  0  0  0  0
 29 28  1  0  0  0  0
 30 31  1  1  0  0  0
 30 29  1  0  0  0  0
 32 30  2  0  0  0  0
M  END
>  <MODEL>
4

>  <REMARK>
 VINA RESULT:      -8.2      3.761      7.390
  Name = 
  3 active torsions:
  status: ('A' for Active; 'I' for Inactive)
    1  A    between atoms: S_1  and  C_10
    2  A    between atoms: C_10  and  C_19
    3  A    between atoms: C_19  and  C_24
                            x       y       z     vdW  Elec       q    Type
                         _______ _______ _______ _____ _____    ______ ____

>  <TORSDO>
F 3

$$$$
=
 OpenBabel11062410433D

 32 37  0  0  1  0  0  0  0  0999 V2000
  161.4480  204.0600  147.9190 C   0  0  0  0  0  3  0  0  0  0  0  0
  161.3130  208.0030  151.1530 C   0  0  0  0  0  0  0  0  0  0  0  0
  162.1320  211.9170  148.0970 C   0  0  0  0  0  2  0  0  0  0  0  0
  161.3610  212.7980  149.0780 C   0  0  0  0  0  2  0  0  0  0  0  0
  160.8720  208.3020  153.5350 C   0  0  0  0  0  0  0  0  0  0  0  0
  160.7430  206.8990  153.6530 C   0  0  0  0  0  0  0  0  0  0  0  0
  161.3110  205.7330  150.2430 C   0  0  0  0  0  0  0  0  0  0  0  0
  161.8240  207.6170  148.8040 C   0  0  0  0  0  3  0  0  0  0  0  0
  160.4060  208.5060  155.9190 C   0  0  0  0  0  0  0  0  0  0  0  0
  161.8230  205.3380  147.8340 C   0  0  0  0  0  3  0  0  0  0  0  0
  161.7010  210.4600  148.2400 C   0  0  0  0  0  2  0  0  0  0  0  0
  161.6370  208.5100  149.8690 C   0  0  0  0  0  0  0  0  0  0  0  0
  161.9420  209.9800  149.6750 C   0  0  2  0  0  3  0  0  0  0  0  0
  161.2620  210.3360  152.0450 C   0  0  0  0  0  0  0  0  0  0  0  0
  160.2900  207.1190  156.0230 C   0  0  0  0  0  3  0  0  0  0  0  0
  161.6440  206.2480  148.9770 C   0  0  0  0  0  0  0  0  0  0  0  0
  160.4560  206.3170  154.8930 C   0  0  0  0  0  3  0  0  0  0  0  0
  161.2370  204.2380  150.4300 C   0  0  0  0  0  2  0  0  0  0  0  0
  160.7520  203.5430  149.1510 C   0  0  2  0  0  3  0  0  0  0  0  0
  161.5810  212.3160  150.5100 C   0  0  0  0  0  2  0  0  0  0  0  0
  161.1380  210.8570  150.6420 C   0  0  1  0  0  3  0  0  0  0  0  0
  161.4040  211.1380  153.0080 O   0  0  0  0  0  0  0  0  0  0  0  0
  161.1630  206.6050  151.3330 C   0  0  0  0  0  0  0  0  0  0  0  0
  160.8880  206.1050  152.5660 N   0  0  0  0  0  0  0  0  0  0  0  0
  160.2410  209.2830  157.0160 F   0  0  0  0  0  0  0  0  0  0  0  0
  161.1570  208.8660  152.2670 C   0  0  0  0  0  0  0  0  0  0  0  0
  160.6920  209.0920  154.6840 C   0  0  0  0  0  3  0  0  0  0  0  0
  160.8420  202.0250  149.2600 C   0  0  0  0  0  2  0  0  0  0  0  0
  161.6920  201.4170  148.1490 C   0  0  0  0  0  2  0  0  0  0  0  0
  160.6600  200.5400  146.9550 S   0  0  1  0  0  0  0  0  0  0  0  0
  160.4560  201.6990  145.5920 C   0  0  0  0  0  1  0  0  0  0  0  0
  161.5810  199.4700  146.3830 O   0  0  0  0  0  0  0  0  0  0  0  0
  1 19  1  0  0  0  0
  2 23  2  0  0  0  0
  2 26  1  0  0  0  0
  3 11  1  0  0  0  0
  3  4  1  0  0  0  0
  4 20  1  0  0  0  0
  5  6  1  0  0  0  0
  5 27  1  0  0  0  0
  6 17  1  0  0  0  0
  7 18  1  0  0  0  0
  7 23  1  0  0  0  0
  8 16  1  0  0  0  0
  8 12  2  0  0  0  0
  9 15  1  0  0  0  0
  9 25  1  0  0  0  0
 10  1  2  0  0  0  0
 10 16  1  0  0  0  0
 12  2  1  0  0  0  0
 13 11  1  6  0  0  0
 13 12  1  0  0  0  0
 13 21  1  0  0  0  0
 14 26  1  0  0  0  0
 14 22  2  0  0  0  0
 16  7  2  0  0  0  0
 17 15  2  0  0  0  0
 19 28  1  1  0  0  0
 19 18  1  0  0  0  0
 21 20  1  1  0  0  0
 21 14  1  0  0  0  0
 23 24  1  0  0  0  0
 24  6  2  0  0  0  0
 26  5  2  0  0  0  0
 27  9  2  0  0  0  0
 29 28  1  0  0  0  0
 30 31  1  6  0  0  0
 30 29  1  0  0  0  0
 32 30  2  0  0  0  0
M  END
>  <MODEL>
5

>  <REMARK>
 VINA RESULT:      -7.8      3.896      8.305
  Name = 
  3 active torsions:
  status: ('A' for Active; 'I' for Inactive)
    1  A    between atoms: S_1  and  C_10
    2  A    between atoms: C_10  and  C_19
    3  A    between atoms: C_19  and  C_24
                            x       y       z     vdW  Elec       q    Type
                         _______ _______ _______ _____ _____    ______ ____

>  <TORSDO>
F 3

$$$$
=
 OpenBabel11062410433D

 32 37  0  0  1  0  0  0  0  0999 V2000
  162.1890  205.6310  147.1910 C   0  0  0  0  0  3  0  0  0  0  0  0
  161.3190  208.9490  150.9680 C   0  0  0  0  0  0  0  0  0  0  0  0
  161.4770  213.3680  148.5650 C   0  0  0  0  0  2  0  0  0  0  0  0
  160.5500  213.9410  149.6340 C   0  0  0  0  0  2  0  0  0  0  0  0
  160.7990  208.7980  153.3490 C   0  0  0  0  0  0  0  0  0  0  0  0
  160.9190  207.3920  153.2510 C   0  0  0  0  0  0  0  0  0  0  0  0
  161.7280  206.8790  149.7310 C   0  0  0  0  0  0  0  0  0  0  0  0
  161.9210  209.0220  148.6100 C   0  0  0  0  0  3  0  0  0  0  0  0
  160.2730  208.5500  155.7150 C   0  0  0  0  0  0  0  0  0  0  0  0
  162.3350  206.9530  147.3120 C   0  0  0  0  0  3  0  0  0  0  0  0
  161.3070  211.8530  148.4710 C   0  0  0  0  0  2  0  0  0  0  0  0
  161.5660  209.6950  149.7880 C   0  0  0  0  0  0  0  0  0  0  0  0
  161.6100  211.2080  149.8280 C   0  0  2  0  0  3  0  0  0  0  0  0
  160.8460  211.0730  152.1940 C   0  0  0  0  0  0  0  0  0  0  0  0
  160.4010  207.1640  155.6070 C   0  0  0  0  0  3  0  0  0  0  0  0
  161.9830  207.6320  148.5710 C   0  0  0  0  0  0  0  0  0  0  0  0
  160.7220  206.5870  154.3780 C   0  0  0  0  0  3  0  0  0  0  0  0
  161.9160  205.3830  149.6900 C   0  0  0  0  0  2  0  0  0  0  0  0
  161.5780  204.8200  148.3040 C   0  0  2  0  0  3  0  0  0  0  0  0
  160.8320  213.2910  150.9860 C   0  0  0  0  0  2  0  0  0  0  0  0
  160.6510  211.7740  150.8810 C   0  0  1  0  0  3  0  0  0  0  0  0
  160.8310  211.7300  153.2720 O   0  0  0  0  0  0  0  0  0  0  0  0
  161.4150  207.5340  150.9320 C   0  0  0  0  0  0  0  0  0  0  0  0
  161.2150  206.8120  152.0640 N   0  0  0  0  0  0  0  0  0  0  0  0
  159.9590  209.1090  156.9080 F   0  0  0  0  0  0  0  0  0  0  0  0
  160.9980  209.5900  152.1910 C   0  0  0  0  0  0  0  0  0  0  0  0
  160.4690  209.3590  154.5940 C   0  0  0  0  0  3  0  0  0  0  0  0
  161.9330  203.3420  148.1880 C   0  0  0  0  0  2  0  0  0  0  0  0
  160.7130  202.4760  147.8910 C   0  0  0  0  0  2  0  0  0  0  0  0
  160.4170  201.2990  149.2270 S   0  0  1  0  0  0  0  0  0  0  0  0
  160.9990  202.1380  150.7100 C   0  0  0  0  0  1  0  0  0  0  0  0
  158.9030  201.2940  149.3870 O   0  0  0  0  0  0  0  0  0  0  0  0
  1 10  2  0  0  0  0
  1 19  1  0  0  0  0
  2 26  1  0  0  0  0
  3  4  1  0  0  0  0
  4 20  1  0  0  0  0
  5 27  1  0  0  0  0
  6  5  1  0  0  0  0
  6 17  1  0  0  0  0
  7 23  1  0  0  0  0
  8 12  2  0  0  0  0
  9 25  1  0  0  0  0
 10 16  1  0  0  0  0
 11  3  1  0  0  0  0
 12 13  1  0  0  0  0
 12  2  1  0  0  0  0
 13 11  1  6  0  0  0
 13 21  1  0  0  0  0
 14 22  2  0  0  0  0
 15  9  1  0  0  0  0
 16  8  1  0  0  0  0
 16  7  2  0  0  0  0
 17 15  2  0  0  0  0
 18  7  1  0  0  0  0
 19 28  1  1  0  0  0
 19 18  1  0  0  0  0
 21 20  1  1  0  0  0
 21 14  1  0  0  0  0
 23  2  2  0  0  0  0
 23 24  1  0  0  0  0
 24  6  2  0  0  0  0
 26 14  1  0  0  0  0
 26  5  2  0  0  0  0
 27  9  2  0  0  0  0
 29 28  1  0  0  0  0
 29 30  1  0  0  0  0
 30 32  2  0  0  0  0
 30 31  1  1  0  0  0
M  END
>  <MODEL>
6

>  <REMARK>
 VINA RESULT:      -7.1      3.614      8.074
  Name = 
  3 active torsions:
  status: ('A' for Active; 'I' for Inactive)
    1  A    between atoms: S_1  and  C_10
    2  A    between atoms: C_10  and  C_19
    3  A    between atoms: C_19  and  C_24
                            x       y       z     vdW  Elec       q    Type
                         _______ _______ _______ _____ _____    ______ ____

>  <TORSDO>
F 3

$$$$
=
 OpenBabel11062410433D

 32 37  0  0  1  0  0  0  0  0999 V2000
  162.0710  211.6400  149.6560 C   0  0  0  0  0  3  0  0  0  0  0  0
  161.5200  206.5920  149.1620 C   0  0  0  0  0  0  0  0  0  0  0  0
  161.2090  205.0790  153.9520 C   0  0  0  0  0  2  0  0  0  0  0  0
  160.3930  203.8770  153.4820 C   0  0  0  0  0  2  0  0  0  0  0  0
  161.2930  205.0260  147.3020 C   0  0  0  0  0  0  0  0  0  0  0  0
  161.4580  206.1130  146.4120 C   0  0  0  0  0  0  0  0  0  0  0  0
  161.8650  208.9600  148.6580 C   0  0  0  0  0  0  0  0  0  0  0  0
  161.8340  208.2010  150.9620 C   0  0  0  0  0  3  0  0  0  0  0  0
  161.0620  203.5410  145.3840 C   0  0  0  0  0  0  0  0  0  0  0  0
  162.1760  210.6110  150.5010 C   0  0  0  0  0  3  0  0  0  0  0  0
  161.0920  206.2260  152.9510 C   0  0  0  0  0  2  0  0  0  0  0  0
  161.5940  206.8830  150.5480 C   0  0  0  0  0  0  0  0  0  0  0  0
  161.5800  205.7690  151.5720 C   0  0  2  0  0  3  0  0  0  0  0  0
  161.1090  204.1890  149.7050 C   0  0  0  0  0  0  0  0  0  0  0  0
  161.2340  204.6210  144.5160 C   0  0  0  0  0  3  0  0  0  0  0  0
  161.9480  209.2330  150.0350 C   0  0  0  0  0  0  0  0  0  0  0  0
  161.4300  205.9040  145.0290 C   0  0  0  0  0  3  0  0  0  0  0  0
  162.1080  210.0760  147.6720 C   0  0  0  0  0  2  0  0  0  0  0  0
  161.6310  211.4220  148.2320 C   0  0  2  0  0  3  0  0  0  0  0  0
  160.8600  203.4260  152.1000 C   0  0  0  0  0  2  0  0  0  0  0  0
  160.7300  204.5810  151.1040 C   0  0  1  0  0  3  0  0  0  0  0  0
  161.1950  202.9700  149.3910 O   0  0  0  0  0  0  0  0  0  0  0  0
  161.6690  207.6410  148.2200 C   0  0  0  0  0  0  0  0  0  0  0  0
  161.6350  207.3680  146.8900 N   0  0  0  0  0  0  0  0  0  0  0  0
  160.8690  202.2960  144.8860 F   0  0  0  0  0  0  0  0  0  0  0  0
  161.3200  205.2670  148.6990 C   0  0  0  0  0  0  0  0  0  0  0  0
  161.0900  203.7440  146.7660 C   0  0  0  0  0  3  0  0  0  0  0  0
  162.0310  212.5860  147.3310 C   0  0  0  0  0  2  0  0  0  0  0  0
  160.8670  213.5350  147.0620 C   0  0  0  0  0  2  0  0  0  0  0  0
  160.3280  213.4220  145.3430 S   0  0  1  0  0  0  0  0  0  0  0  0
  161.8520  213.2780  144.3970 C   0  0  0  0  0  1  0  0  0  0  0  0
  159.7060  212.0360  145.2390 O   0  0  0  0  0  0  0  0  0  0  0  0
  1 10  2  0  0  0  0
  2 12  2  0  0  0  0
  4  3  1  0  0  0  0
  5 26  2  0  0  0  0
  6 24  2  0  0  0  0
  6  5  1  0  0  0  0
  7 16  1  0  0  0  0
  9 27  2  0  0  0  0
 11  3  1  0  0  0  0
 12  8  1  0  0  0  0
 12 13  1  0  0  0  0
 13 11  1  1  0  0  0
 14 21  1  0  0  0  0
 15 17  2  0  0  0  0
 15  9  1  0  0  0  0
 16 10  1  0  0  0  0
 16  8  2  0  0  0  0
 17  6  1  0  0  0  0
 18 19  1  0  0  0  0
 18  7  1  0  0  0  0
 19 28  1  6  0  0  0
 19  1  1  0  0  0  0
 20  4  1  0  0  0  0
 21 13  1  0  0  0  0
 21 20  1  1  0  0  0
 22 14  2  0  0  0  0
 23  7  2  0  0  0  0
 23  2  1  0  0  0  0
 24 23  1  0  0  0  0
 25  9  1  0  0  0  0
 26  2  1  0  0  0  0
 26 14  1  0  0  0  0
 27  5  1  0  0  0  0
 29 28  1  0  0  0  0
 30 31  1  6  0  0  0
 30 29  1  0  0  0  0
 32 30  2  0  0  0  0
M  END
>  <MODEL>
7

>  <REMARK>
 VINA RESULT:      -7.0      4.328      6.797
  Name = 
  3 active torsions:
  status: ('A' for Active; 'I' for Inactive)
    1  A    between atoms: S_1  and  C_10
    2  A    between atoms: C_10  and  C_19
    3  A    between atoms: C_19  and  C_24
                            x       y       z     vdW  Elec       q    Type
                         _______ _______ _______ _____ _____    ______ ____

>  <TORSDO>
F 3

$$$$
=
 OpenBabel11062410433D

 32 37  0  0  1  0  0  0  0  0999 V2000
  158.2430  214.4370  154.8750 C   0  0  0  0  0  3  0  0  0  0  0  0
  160.6220  211.1810  151.7490 C   0  0  0  0  0  0  0  0  0  0  0  0
  161.5160  214.0430  147.7070 C   0  0  0  0  0  2  0  0  0  0  0  0
  162.7140  213.1530  147.3870 C   0  0  0  0  0  2  0  0  0  0  0  0
  161.3950  208.8690  151.8850 C   0  0  0  0  0  0  0  0  0  0  0  0
  160.8310  208.7920  153.1790 C   0  0  0  0  0  0  0  0  0  0  0  0
  159.4190  212.1220  153.6600 C   0  0  0  0  0  0  0  0  0  0  0  0
  159.7500  213.4520  151.6590 C   0  0  0  0  0  3  0  0  0  0  0  0
  162.1430  206.5610  152.1150 C   0  0  0  0  0  0  0  0  0  0  0  0
  158.5350  214.4520  153.5720 C   0  0  0  0  0  3  0  0  0  0  0  0
  161.1900  213.9800  149.1970 C   0  0  0  0  0  2  0  0  0  0  0  0
  160.4580  212.4050  151.0530 C   0  0  0  0  0  0  0  0  0  0  0  0
  160.8930  212.5330  149.6090 C   0  0  2  0  0  3  0  0  0  0  0  0
  161.8990  210.2640  149.8090 C   0  0  0  0  0  0  0  0  0  0  0  0
  161.5750  206.4950  153.3890 C   0  0  0  0  0  3  0  0  0  0  0  0
  159.2530  213.3260  152.9530 C   0  0  0  0  0  0  0  0  0  0  0  0
  160.9230  207.6080  153.9200 C   0  0  0  0  0  3  0  0  0  0  0  0
  158.7710  211.9700  155.0140 C   0  0  0  0  0  2  0  0  0  0  0  0
  158.7200  213.3110  155.7560 C   0  0  2  0  0  3  0  0  0  0  0  0
  162.4350  211.7130  147.8100 C   0  0  0  0  0  2  0  0  0  0  0  0
  162.1180  211.6620  149.3070 C   0  0  1  0  0  3  0  0  0  0  0  0
  162.2690  209.2770  149.1150 O   0  0  0  0  0  0  0  0  0  0  0  0
  160.0860  211.0450  153.0550 C   0  0  0  0  0  0  0  0  0  0  0  0
  160.2060  209.8650  153.7180 N   0  0  0  0  0  0  0  0  0  0  0  0
  162.7790  205.4810  151.6010 F   0  0  0  0  0  0  0  0  0  0  0  0
  161.2940  210.0820  151.1580 C   0  0  0  0  0  0  0  0  0  0  0  0
  162.0550  207.7400  151.3710 C   0  0  0  0  0  3  0  0  0  0  0  0
  157.9090  213.2180  157.0440 C   0  0  0  0  0  2  0  0  0  0  0  0
  157.3270  211.8250  157.2610 C   0  0  0  0  0  2  0  0  0  0  0  0
  155.5270  211.8500  157.1280 S   0  0  1  0  0  0  0  0  0  0  0  0
  155.1390  213.5020  156.5250 C   0  0  0  0  0  1  0  0  0  0  0  0
  155.2300  210.9520  155.9350 O   0  0  0  0  0  0  0  0  0  0  0  0
  1 19  1  0  0  0  0
  2 23  1  0  0  0  0
  3 11  1  0  0  0  0
  4  3  1  0  0  0  0
  4 20  1  0  0  0  0
  5  6  1  0  0  0  0
  6 24  1  0  0  0  0
  6 17  2  0  0  0  0
  7 18  1  0  0  0  0
  8 16  1  0  0  0  0
  9 15  2  0  0  0  0
 10  1  2  0  0  0  0
 12  8  2  0  0  0  0
 12  2  1  0  0  0  0
 13 11  1  1  0  0  0
 13 12  1  0  0  0  0
 14 26  1  0  0  0  0
 15 17  1  0  0  0  0
 16 10  1  0  0  0  0
 16  7  2  0  0  0  0
 18 19  1  0  0  0  0
 19 28  1  1  0  0  0
 21 20  1  6  0  0  0
 21 13  1  0  0  0  0
 21 14  1  0  0  0  0
 22 14  2  0  0  0  0
 23  7  1  0  0  0  0
 23 24  2  0  0  0  0
 25  9  1  0  0  0  0
 26  2  2  0  0  0  0
 26  5  1  0  0  0  0
 27  5  2  0  0  0  0
 27  9  1  0  0  0  0
 28 29  1  0  0  0  0
 30 31  1  6  0  0  0
 30 29  1  0  0  0  0
 32 30  2  0  0  0  0
M  END
>  <MODEL>
8

>  <REMARK>
 VINA RESULT:      -6.3      2.712      5.951
  Name = 
  3 active torsions:
  status: ('A' for Active; 'I' for Inactive)
    1  A    between atoms: S_1  and  C_10
    2  A    between atoms: C_10  and  C_19
    3  A    between atoms: C_19  and  C_24
                            x       y       z     vdW  Elec       q    Type
                         _______ _______ _______ _____ _____    ______ ____

>  <TORSDO>
F 3

$$$$
