=
 OpenBabel11062408023D

 34 40  0  0  1  0  0  0  0  0999 V2000
  161.1750  203.7070  147.5130 C   0  0  2  0  0  3  0  0  0  0  0  0
  160.6010  204.0800  149.7510 C   0  0  2  0  0  3  0  0  0  0  0  0
  161.3670  206.0300  148.4000 C   0  0  1  0  0  3  0  0  0  0  0  0
  161.9420  208.1180  149.9220 C   0  0  2  0  0  0  0  0  0  0  0  0
  161.1920  202.7610  149.5800 N   0  0  0  0  0  0  0  0  0  0  0  0
  160.2280  201.7910  150.0780 C   0  0  0  0  0  1  0  0  0  0  0  0
  161.4260  206.1070  150.8580 C   0  0  0  0  0  0  0  0  0  0  0  0
  160.9360  204.7570  148.4990 C   0  0  1  0  0  3  0  0  0  0  0  0
  162.1400  208.2550  151.4290 C   0  0  0  0  0  2  0  0  0  0  0  0
  161.3620  202.5040  148.2340 O   0  0  0  0  0  0  0  0  0  0  0  0
  162.1740  205.4300  146.0480 C   0  0  0  0  0  2  0  0  0  0  0  0
  162.3930  204.0460  146.6620 C   0  0  0  0  0  2  0  0  0  0  0  0
  161.1410  204.7400  150.9070 O   0  0  0  0  0  0  0  0  0  0  0  0
  163.1360  208.5460  149.1040 C   0  0  0  0  0  2  0  0  0  0  0  0
  161.7800  209.2330  148.9070 C   0  0  2  0  0  3  0  0  0  0  0  0
  161.7850  206.8670  151.8830 C   0  0  0  0  0  0  0  0  0  0  0  0
  161.4420  206.7870  149.6200 N   0  0  0  0  0  0  0  0  0  0  0  0
  162.0350  206.5130  147.1320 C   0  0  0  0  0  2  0  0  0  0  0  0
  161.8070  210.5960  149.5810 C   0  0  0  0  0  2  0  0  0  0  0  0
  162.0370  214.4480  147.7690 N   0  0  0  0  0  2  0  0  0  0  0  0
  160.7190  214.0180  148.2360 C   0  0  0  0  0  2  0  0  0  0  0  0
  160.8640  212.8700  149.2320 C   0  0  0  0  0  2  0  0  0  0  0  0
  162.9020  212.1630  147.9630 C   0  0  0  0  0  2  0  0  0  0  0  0
  161.5740  211.6980  148.5610 C   0  0  0  0  0  3  0  0  0  0  0  0
  162.6540  213.3480  147.0310 C   0  0  0  0  0  2  0  0  0  0  0  0
  161.9370  206.3740  153.2830 C   0  0  0  0  0  2  0  0  0  0  0  0
  160.4910  206.8550  154.2800 S   0  0  0  0  0  0  0  0  0  0  0  0
  161.4940  207.8690  155.4000 C   0  0  0  0  0  2  0  0  0  0  0  0
  160.6480  208.9940  155.9600 C   0  0  0  0  0  2  0  0  0  0  0  0
  160.0420  209.6870  154.9130 O   0  0  0  0  0  0  0  0  0  0  0  0
  159.4670  210.9700  152.6300 C   0  0  0  0  0  1  0  0  0  0  0  0
  160.4610  211.6470  153.5650 C   0  0  1  0  0  3  0  0  0  0  0  0
  160.7600  210.8860  154.8180 C   0  0  2  0  0  3  0  0  0  0  0  0
  161.6040  210.8340  153.6930 O   0  0  0  0  0  0  0  0  0  0  0  0
  1 12  1  1  0  0  0
  1 10  1  0  0  0  0
  1  8  1  0  0  0  0
  2 13  1  1  0  0  0
  3 18  1  1  0  0  0
  3  8  1  0  0  0  0
  3 17  1  0  0  0  0
  4 14  1  6  0  0  0
  4  9  1  0  0  0  0
  5  2  1  0  0  0  0
  5  6  1  0  0  0  0
  7 13  1  0  0  0  0
  7 16  2  0  0  0  0
  8  2  1  0  0  0  0
  9 16  1  0  0  0  0
 10  5  1  0  0  0  0
 11 12  1  0  0  0  0
 11 18  1  0  0  0  0
 15 14  1  0  0  0  0
 15 19  1  0  0  0  0
 15  4  1  0  0  0  0
 16 26  1  0  0  0  0
 17  4  1  0  0  0  0
 17  7  1  0  0  0  0
 20 21  1  0  0  0  0
 21 22  1  0  0  0  0
 23 24  1  0  0  0  0
 24 22  1  0  0  0  0
 24 19  1  0  0  0  0
 25 20  1  0  0  0  0
 25 23  1  0  0  0  0
 26 27  1  0  0  0  0
 27 28  1  0  0  0  0
 28 29  1  0  0  0  0
 30 29  1  0  0  0  0
 31 32  1  0  0  0  0
 32 34  1  0  0  0  0
 32 33  1  0  0  0  0
 33 30  1  0  0  0  0
 34 33  1  0  0  0  0
M  END
>  <MODEL>
1

>  <REMARK>
 VINA RESULT:      -7.1      0.000      0.000
  Name = 
  8 active torsions:
  status: ('A' for Active; 'I' for Inactive)
    1  A    between atoms: S_3  and  C_13
    2  A    between atoms: S_3  and  C_17
    3  A    between atoms: C_12  and  C_27
    4  A    between atoms: C_12  and  C_28
    5  A    between atoms: C_13  and  C_33
    6  A    between atoms: C_17  and  C_29
    7  A    between atoms: C_20  and  O_34
    8  A    between atoms: C_33  and  O_34
                            x       y       z     vdW  Elec       q    Type
                         _______ _______ _______ _____ _____    ______ ____

>  <TORSDO>
F 8

$$$$
=
 OpenBabel11062408023D

 34 40  0  0  1  0  0  0  0  0999 V2000
  161.5370  204.8610  149.1040 C   0  0  2  0  0  3  0  0  0  0  0  0
  162.3680  206.8160  148.1250 C   0  0  2  0  0  3  0  0  0  0  0  0
  161.7890  206.8780  150.5480 C   0  0  1  0  0  3  0  0  0  0  0  0
  161.6870  209.3550  151.4750 C   0  0  2  0  0  0  0  0  0  0  0  0
  161.5690  206.0590  147.1730 N   0  0  0  0  0  0  0  0  0  0  0  0
  162.4140  205.7900  146.0200 C   0  0  0  0  0  1  0  0  0  0  0  0
  161.9730  208.9590  149.2500 C   0  0  0  0  0  0  0  0  0  0  0  0
  162.0260  206.2030  149.4070 C   0  0  1  0  0  3  0  0  0  0  0  0
  161.6550  210.7060  150.7660 C   0  0  0  0  0  2  0  0  0  0  0  0
  161.2350  204.8370  147.7220 O   0  0  0  0  0  0  0  0  0  0  0  0
  160.6810  204.7430  151.4220 C   0  0  0  0  0  2  0  0  0  0  0  0
  160.3110  204.5390  149.9510 C   0  0  0  0  0  2  0  0  0  0  0  0
  162.0480  208.2150  148.0700 O   0  0  0  0  0  0  0  0  0  0  0  0
  160.5020  209.1060  152.3740 C   0  0  0  0  0  2  0  0  0  0  0  0
  161.9230  209.0920  152.9500 C   0  0  2  0  0  3  0  0  0  0  0  0
  161.8330  210.2740  149.3370 C   0  0  0  0  0  0  0  0  0  0  0  0
  161.9460  208.3060  150.5030 N   0  0  0  0  0  0  0  0  0  0  0  0
  161.0870  206.2000  151.7040 C   0  0  0  0  0  2  0  0  0  0  0  0
  162.1700  210.3890  153.7040 C   0  0  0  0  0  2  0  0  0  0  0  0
  160.0450  209.3800  157.2600 N   0  0  0  0  0  2  0  0  0  0  0  0
  160.3690  210.7930  157.0650 C   0  0  0  0  0  2  0  0  0  0  0  0
  160.7070  211.0570  155.6010 C   0  0  0  0  0  2  0  0  0  0  0  0
  161.6190  208.7280  155.4980 C   0  0  0  0  0  2  0  0  0  0  0  0
  161.8990  210.2000  155.1880 C   0  0  0  0  0  3  0  0  0  0  0  0
  161.2350  208.5820  156.9690 C   0  0  0  0  0  2  0  0  0  0  0  0
  161.7400  211.1900  148.1620 C   0  0  0  0  0  2  0  0  0  0  0  0
  161.2610  212.8610  148.7030 S   0  0  0  0  0  0  0  0  0  0  0  0
  162.4380  213.6550  147.5750 C   0  0  0  0  0  2  0  0  0  0  0  0
  161.8150  213.7860  146.2010 C   0  0  0  0  0  2  0  0  0  0  0  0
  160.4280  213.8640  146.3240 O   0  0  0  0  0  0  0  0  0  0  0  0
  158.0740  212.6270  146.6690 C   0  0  0  0  0  1  0  0  0  0  0  0
  158.6130  212.6900  145.2470 C   0  0  1  0  0  3  0  0  0  0  0  0
  159.9350  213.3760  145.1080 C   0  0  2  0  0  3  0  0  0  0  0  0
  159.8250  211.9750  145.1780 O   0  0  0  0  0  0  0  0  0  0  0  0
  1  8  1  0  0  0  0
  1 12  1  1  0  0  0
  2 13  1  1  0  0  0
  2  8  1  0  0  0  0
  3 18  1  6  0  0  0
  4  9  1  6  0  0  0
  4 14  1  0  0  0  0
  4 15  1  0  0  0  0
  5 10  1  0  0  0  0
  5  2  1  0  0  0  0
  6  5  1  0  0  0  0
  7 16  2  0  0  0  0
  7 17  1  0  0  0  0
  8  3  1  0  0  0  0
 10  1  1  0  0  0  0
 11 18  1  0  0  0  0
 12 11  1  0  0  0  0
 13  7  1  0  0  0  0
 14 15  1  0  0  0  0
 15 19  1  0  0  0  0
 16  9  1  0  0  0  0
 17  3  1  0  0  0  0
 17  4  1  0  0  0  0
 19 24  1  0  0  0  0
 21 20  1  0  0  0  0
 22 21  1  0  0  0  0
 23 25  1  0  0  0  0
 24 23  1  0  0  0  0
 24 22  1  0  0  0  0
 25 20  1  0  0  0  0
 26 27  1  0  0  0  0
 26 16  1  0  0  0  0
 28 27  1  0  0  0  0
 29 30  1  0  0  0  0
 29 28  1  0  0  0  0
 32 31  1  0  0  0  0
 33 34  1  0  0  0  0
 33 32  1  0  0  0  0
 33 30  1  0  0  0  0
 34 32  1  0  0  0  0
M  END
>  <MODEL>
2

>  <REMARK>
 VINA RESULT:      -6.5      3.364      6.595
  Name = 
  8 active torsions:
  status: ('A' for Active; 'I' for Inactive)
    1  A    between atoms: S_3  and  C_13
    2  A    between atoms: S_3  and  C_17
    3  A    between atoms: C_12  and  C_27
    4  A    between atoms: C_12  and  C_28
    5  A    between atoms: C_13  and  C_33
    6  A    between atoms: C_17  and  C_29
    7  A    between atoms: C_20  and  O_34
    8  A    between atoms: C_33  and  O_34
                            x       y       z     vdW  Elec       q    Type
                         _______ _______ _______ _____ _____    ______ ____

>  <TORSDO>
F 8

$$$$
=
 OpenBabel11062408023D

 34 40  0  0  1  0  0  0  0  0999 V2000
  161.5570  204.7890  149.0180 C   0  0  2  0  0  3  0  0  0  0  0  0
  162.3780  206.7350  148.0120 C   0  0  2  0  0  3  0  0  0  0  0  0
  161.8000  206.8270  150.4340 C   0  0  1  0  0  3  0  0  0  0  0  0
  161.6880  209.3160  151.3270 C   0  0  2  0  0  0  0  0  0  0  0  0
  161.5810  205.9620  147.0710 N   0  0  0  0  0  0  0  0  0  0  0  0
  162.4260  205.6810  145.9200 C   0  0  0  0  0  1  0  0  0  0  0  0
  161.9740  208.8910  149.1070 C   0  0  0  0  0  0  0  0  0  0  0  0
  162.0390  206.1370  149.3020 C   0  0  1  0  0  3  0  0  0  0  0  0
  161.6500  210.6570  150.6000 C   0  0  0  0  0  2  0  0  0  0  0  0
  161.2530  204.7460  147.6360 O   0  0  0  0  0  0  0  0  0  0  0  0
  160.7030  204.6990  151.3370 C   0  0  0  0  0  2  0  0  0  0  0  0
  160.3320  204.4730  149.8700 C   0  0  0  0  0  2  0  0  0  0  0  0
  162.0510  208.1320  147.9380 O   0  0  0  0  0  0  0  0  0  0  0  0
  160.5050  209.0730  152.2310 C   0  0  0  0  0  2  0  0  0  0  0  0
  161.9270  209.0740  152.8050 C   0  0  2  0  0  3  0  0  0  0  0  0
  161.8280  210.2070  149.1770 C   0  0  0  0  0  0  0  0  0  0  0  0
  161.9510  208.2550  150.3690 N   0  0  0  0  0  0  0  0  0  0  0  0
  161.1030  206.1620  151.5990 C   0  0  0  0  0  2  0  0  0  0  0  0
  162.1680  210.3820  153.5420 C   0  0  0  0  0  2  0  0  0  0  0  0
  160.1650  209.4930  157.1990 N   0  0  0  0  0  2  0  0  0  0  0  0
  160.5860  210.8790  156.9990 C   0  0  0  0  0  2  0  0  0  0  0  0
  160.8640  211.1360  155.5210 C   0  0  0  0  0  2  0  0  0  0  0  0
  161.5880  208.7460  155.3490 C   0  0  0  0  0  2  0  0  0  0  0  0
  161.9630  210.1950  155.0360 C   0  0  0  0  0  3  0  0  0  0  0  0
  161.2730  208.6100  156.8370 C   0  0  0  0  0  2  0  0  0  0  0  0
  161.7300  211.1060  147.9900 C   0  0  0  0  0  2  0  0  0  0  0  0
  162.3300  212.7720  148.4110 S   0  0  0  0  0  0  0  0  0  0  0  0
  160.8080  213.5620  147.8200 C   0  0  0  0  0  2  0  0  0  0  0  0
  160.2130  214.4080  148.9270 C   0  0  0  0  0  2  0  0  0  0  0  0
  159.7280  213.5780  149.9370 O   0  0  0  0  0  0  0  0  0  0  0  0
  158.7290  212.3510  152.1020 C   0  0  0  0  0  1  0  0  0  0  0  0
  157.9390  213.5340  151.5590 C   0  0  1  0  0  3  0  0  0  0  0  0
  158.5280  214.1750  150.3430 C   0  0  2  0  0  3  0  0  0  0  0  0
  157.4870  213.2320  150.2590 O   0  0  0  0  0  0  0  0  0  0  0  0
  1  8  1  0  0  0  0
  1 12  1  1  0  0  0
  2 13  1  1  0  0  0
  2  8  1  0  0  0  0
  3 18  1  6  0  0  0
  4  9  1  6  0  0  0
  4 14  1  0  0  0  0
  4 15  1  0  0  0  0
  5 10  1  0  0  0  0
  5  2  1  0  0  0  0
  6  5  1  0  0  0  0
  7 16  2  0  0  0  0
  7 17  1  0  0  0  0
  8  3  1  0  0  0  0
 10  1  1  0  0  0  0
 11 18  1  0  0  0  0
 12 11  1  0  0  0  0
 13  7  1  0  0  0  0
 14 15  1  0  0  0  0
 15 19  1  0  0  0  0
 16  9  1  0  0  0  0
 17  3  1  0  0  0  0
 17  4  1  0  0  0  0
 19 24  1  0  0  0  0
 21 20  1  0  0  0  0
 22 21  1  0  0  0  0
 23 25  1  0  0  0  0
 24 23  1  0  0  0  0
 24 22  1  0  0  0  0
 25 20  1  0  0  0  0
 26 27  1  0  0  0  0
 26 16  1  0  0  0  0
 28 27  1  0  0  0  0
 28 29  1  0  0  0  0
 29 30  1  0  0  0  0
 30 33  1  0  0  0  0
 32 31  1  0  0  0  0
 33 32  1  0  0  0  0
 34 33  1  0  0  0  0
 34 32  1  0  0  0  0
M  END
>  <MODEL>
3

>  <REMARK>
 VINA RESULT:      -6.4      2.915      5.846
  Name = 
  8 active torsions:
  status: ('A' for Active; 'I' for Inactive)
    1  A    between atoms: S_3  and  C_13
    2  A    between atoms: S_3  and  C_17
    3  A    between atoms: C_12  and  C_27
    4  A    between atoms: C_12  and  C_28
    5  A    between atoms: C_13  and  C_33
    6  A    between atoms: C_17  and  C_29
    7  A    between atoms: C_20  and  O_34
    8  A    between atoms: C_33  and  O_34
                            x       y       z     vdW  Elec       q    Type
                         _______ _______ _______ _____ _____    ______ ____

>  <TORSDO>
F 8

$$$$
=
 OpenBabel11062408023D

 34 40  0  0  1  0  0  0  0  0999 V2000
  161.5690  208.0150  147.9310 C   0  0  2  0  0  3  0  0  0  0  0  0
  160.8360  205.8290  148.3280 C   0  0  2  0  0  3  0  0  0  0  0  0
  161.1410  207.3340  150.2910 C   0  0  1  0  0  3  0  0  0  0  0  0
  161.1180  205.9950  152.5740 C   0  0  2  0  0  0  0  0  0  0  0  0
  161.7440  205.8730  147.1910 N   0  0  0  0  0  0  0  0  0  0  0  0
  161.0350  205.3060  146.0530 C   0  0  0  0  0  1  0  0  0  0  0  0
  161.0860  204.8920  150.5810 C   0  0  0  0  0  0  0  0  0  0  0  0
  161.0390  207.1300  148.9630 C   0  0  1  0  0  3  0  0  0  0  0  0
  161.2170  204.5030  152.8790 C   0  0  0  0  0  2  0  0  0  0  0  0
  162.0240  207.1870  146.8760 O   0  0  0  0  0  0  0  0  0  0  0  0
  162.1620  209.6110  149.7240 C   0  0  0  0  0  2  0  0  0  0  0  0
  162.6960  208.8730  148.4950 C   0  0  0  0  0  2  0  0  0  0  0  0
  161.1490  204.7270  149.1950 O   0  0  0  0  0  0  0  0  0  0  0  0
  162.1970  206.8270  153.2200 C   0  0  0  0  0  2  0  0  0  0  0  0
  160.7210  207.1070  153.5250 C   0  0  2  0  0  3  0  0  0  0  0  0
  161.2040  203.9330  151.4880 C   0  0  0  0  0  0  0  0  0  0  0  0
  160.9770  206.1850  151.1400 N   0  0  0  0  0  0  0  0  0  0  0  0
  161.7150  208.6290  150.8210 C   0  0  0  0  0  2  0  0  0  0  0  0
  160.3810  206.5550  154.9000 C   0  0  0  0  0  2  0  0  0  0  0  0
  161.0840  210.3900  156.6250 N   0  0  0  0  0  2  0  0  0  0  0  0
  161.7460  209.2520  157.2610 C   0  0  0  0  0  2  0  0  0  0  0  0
  161.7730  208.0610  156.3070 C   0  0  0  0  0  2  0  0  0  0  0  0
  159.6050  208.8910  155.3710 C   0  0  0  0  0  2  0  0  0  0  0  0
  160.3470  207.6750  155.9280 C   0  0  0  0  0  3  0  0  0  0  0  0
  159.6870  210.0410  156.3740 C   0  0  0  0  0  2  0  0  0  0  0  0
  161.4200  202.4920  151.1660 C   0  0  0  0  0  2  0  0  0  0  0  0
  159.8350  201.6920  150.7630 S   0  0  0  0  0  0  0  0  0  0  0  0
  160.1500  201.7710  148.9800 C   0  0  0  0  0  2  0  0  0  0  0  0
  161.2130  200.7570  148.6070 C   0  0  0  0  0  2  0  0  0  0  0  0
  161.3100  200.6740  147.2190 O   0  0  0  0  0  0  0  0  0  0  0  0
  160.1550  200.2560  144.8350 C   0  0  0  0  0  1  0  0  0  0  0  0
  160.0230  201.6540  145.4260 C   0  0  1  0  0  3  0  0  0  0  0  0
  160.6960  201.8410  146.7480 C   0  0  2  0  0  3  0  0  0  0  0  0
  161.3030  202.2320  145.5400 O   0  0  0  0  0  0  0  0  0  0  0  0
  1 12  1  1  0  0  0
  1  8  1  0  0  0  0
  2  8  1  0  0  0  0
  2 13  1  1  0  0  0
  3 18  1  6  0  0  0
  3 17  1  0  0  0  0
  4  9  1  1  0  0  0
  4 14  1  0  0  0  0
  4 15  1  0  0  0  0
  5  2  1  0  0  0  0
  6  5  1  0  0  0  0
  7 17  1  0  0  0  0
  7 16  2  0  0  0  0
  8  3  1  0  0  0  0
 10  5  1  0  0  0  0
 10  1  1  0  0  0  0
 11 18  1  0  0  0  0
 12 11  1  0  0  0  0
 13  7  1  0  0  0  0
 14 15  1  0  0  0  0
 15 19  1  0  0  0  0
 16  9  1  0  0  0  0
 17  4  1  0  0  0  0
 19 24  1  0  0  0  0
 20 21  1  0  0  0  0
 22 21  1  0  0  0  0
 23 24  1  0  0  0  0
 23 25  1  0  0  0  0
 24 22  1  0  0  0  0
 25 20  1  0  0  0  0
 26 16  1  0  0  0  0
 27 26  1  0  0  0  0
 28 27  1  0  0  0  0
 29 28  1  0  0  0  0
 30 29  1  0  0  0  0
 31 32  1  0  0  0  0
 32 34  1  0  0  0  0
 32 33  1  0  0  0  0
 33 30  1  0  0  0  0
 34 33  1  0  0  0  0
M  END
>  <MODEL>
4

>  <REMARK>
 VINA RESULT:      -6.2      3.355      7.445
  Name = 
  8 active torsions:
  status: ('A' for Active; 'I' for Inactive)
    1  A    between atoms: S_3  and  C_13
    2  A    between atoms: S_3  and  C_17
    3  A    between atoms: C_12  and  C_27
    4  A    between atoms: C_12  and  C_28
    5  A    between atoms: C_13  and  C_33
    6  A    between atoms: C_17  and  C_29
    7  A    between atoms: C_20  and  O_34
    8  A    between atoms: C_33  and  O_34
                            x       y       z     vdW  Elec       q    Type
                         _______ _______ _______ _____ _____    ______ ____

>  <TORSDO>
F 8

$$$$
=
 OpenBabel11062408023D

 34 40  0  0  1  0  0  0  0  0999 V2000
  161.2330  202.7010  147.6270 C   0  0  2  0  0  3  0  0  0  0  0  0
  162.1170  204.8130  147.1480 C   0  0  2  0  0  3  0  0  0  0  0  0
  161.6180  204.2670  149.5280 C   0  0  1  0  0  3  0  0  0  0  0  0
  161.6550  206.4240  151.0630 C   0  0  2  0  0  0  0  0  0  0  0  0
  161.2550  204.3550  146.0690 N   0  0  0  0  0  0  0  0  0  0  0  0
  162.0500  204.3640  144.8500 C   0  0  0  0  0  1  0  0  0  0  0  0
  161.8510  206.6060  148.8010 C   0  0  0  0  0  0  0  0  0  0  0  0
  161.7890  203.9020  148.2430 C   0  0  1  0  0  3  0  0  0  0  0  0
  161.6590  207.9120  150.7260 C   0  0  0  0  0  2  0  0  0  0  0  0
  160.8860  203.0450  146.2990 O   0  0  0  0  0  0  0  0  0  0  0  0
  160.4480  202.0190  149.8710 C   0  0  0  0  0  2  0  0  0  0  0  0
  160.0210  202.2130  148.4140 C   0  0  0  0  0  2  0  0  0  0  0  0
  161.8560  206.1900  147.4670 O   0  0  0  0  0  0  0  0  0  0  0  0
  160.4890  205.9910  151.9170 C   0  0  0  0  0  2  0  0  0  0  0  0
  161.9260  205.7820  152.4100 C   0  0  2  0  0  3  0  0  0  0  0  0
  161.7720  207.8580  149.2280 C   0  0  0  0  0  0  0  0  0  0  0  0
  161.8370  205.6530  149.8440 N   0  0  0  0  0  0  0  0  0  0  0  0
  160.9260  203.3390  150.5000 C   0  0  0  0  0  2  0  0  0  0  0  0
  162.2530  206.8310  153.4600 C   0  0  0  0  0  2  0  0  0  0  0  0
  159.7280  208.8520  156.2380 N   0  0  0  0  0  2  0  0  0  0  0  0
  159.5450  207.4070  156.1130 C   0  0  0  0  0  2  0  0  0  0  0  0
  160.7690  206.7770  155.4550 C   0  0  0  0  0  2  0  0  0  0  0  0
  161.0510  208.9100  154.1750 C   0  0  0  0  0  2  0  0  0  0  0  0
  160.9770  207.3850  154.0720 C   0  0  0  0  0  3  0  0  0  0  0  0
  159.8110  209.4320  154.8980 C   0  0  0  0  0  2  0  0  0  0  0  0
  161.6810  209.0480  148.3320 C   0  0  0  0  0  2  0  0  0  0  0  0
  162.0980  210.5620  149.2530 S   0  0  0  0  0  0  0  0  0  0  0  0
  161.5210  211.6380  147.9130 C   0  0  0  0  0  2  0  0  0  0  0  0
  161.0600  212.9620  148.4880 C   0  0  0  0  0  2  0  0  0  0  0  0
  160.8250  212.8200  149.8550 O   0  0  0  0  0  0  0  0  0  0  0  0
  159.8310  212.4760  152.3210 C   0  0  0  0  0  1  0  0  0  0  0  0
  159.3160  213.6750  151.5350 C   0  0  1  0  0  3  0  0  0  0  0  0
  159.8890  213.8150  150.1610 C   0  0  2  0  0  3  0  0  0  0  0  0
  158.6350  213.2200  150.3890 O   0  0  0  0  0  0  0  0  0  0  0  0
  1  8  1  0  0  0  0
  1 12  1  1  0  0  0
  2 13  1  1  0  0  0
  2  8  1  0  0  0  0
  3 17  1  0  0  0  0
  3 18  1  6  0  0  0
  4  9  1  6  0  0  0
  4 14  1  0  0  0  0
  4 15  1  0  0  0  0
  5 10  1  0  0  0  0
  5  2  1  0  0  0  0
  6  5  1  0  0  0  0
  7 16  2  0  0  0  0
  7 17  1  0  0  0  0
  8  3  1  0  0  0  0
 10  1  1  0  0  0  0
 11 18  1  0  0  0  0
 12 11  1  0  0  0  0
 13  7  1  0  0  0  0
 14 15  1  0  0  0  0
 15 19  1  0  0  0  0
 16  9  1  0  0  0  0
 17  4  1  0  0  0  0
 19 24  1  0  0  0  0
 21 20  1  0  0  0  0
 22 21  1  0  0  0  0
 23 25  1  0  0  0  0
 24 23  1  0  0  0  0
 24 22  1  0  0  0  0
 25 20  1  0  0  0  0
 26 16  1  0  0  0  0
 26 27  1  0  0  0  0
 28 29  1  0  0  0  0
 28 27  1  0  0  0  0
 29 30  1  0  0  0  0
 30 33  1  0  0  0  0
 32 31  1  0  0  0  0
 33 34  1  0  0  0  0
 33 32  1  0  0  0  0
 34 32  1  0  0  0  0
M  END
>  <MODEL>
5

>  <REMARK>
 VINA RESULT:      -5.8      2.696      5.542
  Name = 
  8 active torsions:
  status: ('A' for Active; 'I' for Inactive)
    1  A    between atoms: S_3  and  C_13
    2  A    between atoms: S_3  and  C_17
    3  A    between atoms: C_12  and  C_27
    4  A    between atoms: C_12  and  C_28
    5  A    between atoms: C_13  and  C_33
    6  A    between atoms: C_17  and  C_29
    7  A    between atoms: C_20  and  O_34
    8  A    between atoms: C_33  and  O_34
                            x       y       z     vdW  Elec       q    Type
                         _______ _______ _______ _____ _____    ______ ____

>  <TORSDO>
F 8

$$$$
=
 OpenBabel11062408023D

 34 40  0  0  1  0  0  0  0  0999 V2000
  161.2080  202.5810  147.6870 C   0  0  2  0  0  3  0  0  0  0  0  0
  162.0640  204.6960  147.1700 C   0  0  2  0  0  3  0  0  0  0  0  0
  161.5880  204.1810  149.5610 C   0  0  1  0  0  3  0  0  0  0  0  0
  161.6100  206.3610  151.0620 C   0  0  2  0  0  0  0  0  0  0  0  0
  161.2000  204.2110  146.1030 N   0  0  0  0  0  0  0  0  0  0  0  0
  161.9870  204.2110  144.8790 C   0  0  0  0  0  1  0  0  0  0  0  0
  161.7890  206.5100  148.7960 C   0  0  0  0  0  0  0  0  0  0  0  0
  161.7540  203.7980  148.2800 C   0  0  1  0  0  3  0  0  0  0  0  0
  161.5950  207.8440  150.7020 C   0  0  0  0  0  2  0  0  0  0  0  0
  160.8480  202.9010  146.3560 O   0  0  0  0  0  0  0  0  0  0  0  0
  160.4450  201.9240  149.9460 C   0  0  0  0  0  2  0  0  0  0  0  0
  160.0070  202.0920  148.4900 C   0  0  0  0  0  2  0  0  0  0  0  0
  161.7900  206.0740  147.4690 O   0  0  0  0  0  0  0  0  0  0  0  0
  160.4550  205.9280  151.9310 C   0  0  0  0  0  2  0  0  0  0  0  0
  161.8980  205.7430  152.4170 C   0  0  2  0  0  3  0  0  0  0  0  0
  161.6980  207.7680  149.2040 C   0  0  0  0  0  0  0  0  0  0  0  0
  161.7920  205.5730  149.8540 N   0  0  0  0  0  0  0  0  0  0  0  0
  160.9120  203.2600  150.5520 C   0  0  0  0  0  2  0  0  0  0  0  0
  162.2200  206.8110  153.4490 C   0  0  0  0  0  2  0  0  0  0  0  0
  159.7120  208.7800  156.2800 N   0  0  0  0  0  2  0  0  0  0  0  0
  159.5790  207.3270  156.1810 C   0  0  0  0  0  2  0  0  0  0  0  0
  160.8050  206.7330  155.4920 C   0  0  0  0  0  2  0  0  0  0  0  0
  160.9640  208.8550  154.1740 C   0  0  0  0  0  2  0  0  0  0  0  0
  160.9440  207.3270  154.0940 C   0  0  0  0  0  3  0  0  0  0  0  0
  159.7290  209.3420  154.9300 C   0  0  0  0  0  2  0  0  0  0  0  0
  161.5880  208.9430  148.2920 C   0  0  0  0  0  2  0  0  0  0  0  0
  162.1750  210.4490  149.1290 S   0  0  0  0  0  0  0  0  0  0  0  0
  161.4180  211.5350  147.8900 C   0  0  0  0  0  2  0  0  0  0  0  0
  162.2100  212.8240  147.7950 C   0  0  0  0  0  2  0  0  0  0  0  0
  161.4600  213.7810  147.1130 O   0  0  0  0  0  0  0  0  0  0  0  0
  160.3520  213.7090  144.6730 C   0  0  0  0  0  1  0  0  0  0  0  0
  161.7540  214.2930  144.7710 C   0  0  1  0  0  3  0  0  0  0  0  0
  162.3350  214.2980  146.1490 C   0  0  2  0  0  3  0  0  0  0  0  0
  162.6430  213.2930  145.2130 O   0  0  0  0  0  0  0  0  0  0  0  0
  1  8  1  0  0  0  0
  1 12  1  1  0  0  0
  2 13  1  1  0  0  0
  2  8  1  0  0  0  0
  3 17  1  0  0  0  0
  3 18  1  6  0  0  0
  4  9  1  6  0  0  0
  4 14  1  0  0  0  0
  4 15  1  0  0  0  0
  5 10  1  0  0  0  0
  5  2  1  0  0  0  0
  6  5  1  0  0  0  0
  7 16  2  0  0  0  0
  7 17  1  0  0  0  0
  8  3  1  0  0  0  0
 10  1  1  0  0  0  0
 11 18  1  0  0  0  0
 12 11  1  0  0  0  0
 13  7  1  0  0  0  0
 14 15  1  0  0  0  0
 15 19  1  0  0  0  0
 16  9  1  0  0  0  0
 17  4  1  0  0  0  0
 19 24  1  0  0  0  0
 21 20  1  0  0  0  0
 22 21  1  0  0  0  0
 23 25  1  0  0  0  0
 24 23  1  0  0  0  0
 24 22  1  0  0  0  0
 25 20  1  0  0  0  0
 26 27  1  0  0  0  0
 26 16  1  0  0  0  0
 28 27  1  0  0  0  0
 29 28  1  0  0  0  0
 30 29  1  0  0  0  0
 31 32  1  0  0  0  0
 32 34  1  0  0  0  0
 32 33  1  0  0  0  0
 33 30  1  0  0  0  0
 34 33  1  0  0  0  0
M  END
>  <MODEL>
6

>  <REMARK>
 VINA RESULT:      -5.6      3.115      6.341
  Name = 
  8 active torsions:
  status: ('A' for Active; 'I' for Inactive)
    1  A    between atoms: S_3  and  C_13
    2  A    between atoms: S_3  and  C_17
    3  A    between atoms: C_12  and  C_27
    4  A    between atoms: C_12  and  C_28
    5  A    between atoms: C_13  and  C_33
    6  A    between atoms: C_17  and  C_29
    7  A    between atoms: C_20  and  O_34
    8  A    between atoms: C_33  and  O_34
                            x       y       z     vdW  Elec       q    Type
                         _______ _______ _______ _____ _____    ______ ____

>  <TORSDO>
F 8

$$$$
=
 OpenBabel11062408023D

 34 40  0  0  1  0  0  0  0  0999 V2000
  161.1890  204.5790  148.2730 C   0  0  2  0  0  3  0  0  0  0  0  0
  160.4990  205.3700  150.3640 C   0  0  2  0  0  3  0  0  0  0  0  0
  161.2780  207.0360  148.6830 C   0  0  1  0  0  3  0  0  0  0  0  0
  161.7260  209.4050  149.7770 C   0  0  2  0  0  0  0  0  0  0  0  0
  161.1300  204.0640  150.4860 N   0  0  0  0  0  0  0  0  0  0  0  0
  160.1700  203.1800  151.1280 C   0  0  0  0  0  1  0  0  0  0  0  0
  161.2170  207.6030  151.0760 C   0  0  0  0  0  0  0  0  0  0  0  0
  160.8760  205.7950  149.0170 C   0  0  1  0  0  3  0  0  0  0  0  0
  161.8470  209.8460  151.2330 C   0  0  0  0  0  2  0  0  0  0  0  0
  161.3720  203.5500  149.2280 O   0  0  0  0  0  0  0  0  0  0  0  0
  162.2130  206.0090  146.5350 C   0  0  0  0  0  2  0  0  0  0  0  0
  162.4380  204.7830  147.4220 C   0  0  0  0  0  2  0  0  0  0  0  0
  160.9650  206.2650  151.3860 O   0  0  0  0  0  0  0  0  0  0  0  0
  162.9460  209.7020  148.9420 C   0  0  0  0  0  2  0  0  0  0  0  0
  161.5830  210.2890  148.5540 C   0  0  2  0  0  3  0  0  0  0  0  0
  161.5060  208.5650  151.9420 C   0  0  0  0  0  0  0  0  0  0  0  0
  161.2740  208.0240  149.7280 N   0  0  0  0  0  0  0  0  0  0  0  0
  161.9930  207.2800  147.3730 C   0  0  0  0  0  2  0  0  0  0  0  0
  161.5420  211.7590  148.9420 C   0  0  0  0  0  2  0  0  0  0  0  0
  161.5060  212.9530  144.8490 N   0  0  0  0  0  2  0  0  0  0  0  0
  162.3310  213.7460  145.7590 C   0  0  0  0  0  2  0  0  0  0  0  0
  162.6000  212.9640  147.0420 C   0  0  0  0  0  2  0  0  0  0  0  0
  160.3570  211.8970  146.7390 C   0  0  0  0  0  2  0  0  0  0  0  0
  161.2780  212.6230  147.7210 C   0  0  0  0  0  3  0  0  0  0  0  0
  160.2010  212.7340  145.4710 C   0  0  0  0  0  2  0  0  0  0  0  0
  161.6030  208.3660  153.4170 C   0  0  0  0  0  2  0  0  0  0  0  0
  161.7540  209.9730  154.2600 S   0  0  0  0  0  0  0  0  0  0  0  0
  159.9800  210.0400  154.6330 C   0  0  0  0  0  2  0  0  0  0  0  0
  159.3240  211.1100  153.7850 C   0  0  0  0  0  2  0  0  0  0  0  0
  158.5620  211.9470  154.5990 O   0  0  0  0  0  0  0  0  0  0  0  0
  155.9590  212.5880  154.6520 C   0  0  0  0  0  1  0  0  0  0  0  0
  156.3860  211.3870  155.4840 C   0  0  1  0  0  3  0  0  0  0  0  0
  157.8490  211.0780  155.4340 C   0  0  2  0  0  3  0  0  0  0  0  0
  157.2770  211.8130  156.4900 O   0  0  0  0  0  0  0  0  0  0  0  0
  1 12  1  1  0  0  0
  1  8  1  0  0  0  0
  1 10  1  0  0  0  0
  2  5  1  0  0  0  0
  2 13  1  1  0  0  0
  3 18  1  1  0  0  0
  3  8  1  0  0  0  0
  3 17  1  0  0  0  0
  4 14  1  6  0  0  0
  4  9  1  0  0  0  0
  5  6  1  0  0  0  0
  7 13  1  0  0  0  0
  7 16  2  0  0  0  0
  8  2  1  0  0  0  0
  9 16  1  0  0  0  0
 10  5  1  0  0  0  0
 11 18  1  0  0  0  0
 11 12  1  0  0  0  0
 15 19  1  0  0  0  0
 15 14  1  0  0  0  0
 15  4  1  0  0  0  0
 16 26  1  0  0  0  0
 17  4  1  0  0  0  0
 17  7  1  0  0  0  0
 20 25  1  0  0  0  0
 20 21  1  0  0  0  0
 21 22  1  0  0  0  0
 22 24  1  0  0  0  0
 23 24  1  0  0  0  0
 24 19  1  0  0  0  0
 25 23  1  0  0  0  0
 26 27  1  0  0  0  0
 27 28  1  0  0  0  0
 29 30  1  0  0  0  0
 29 28  1  0  0  0  0
 30 33  1  0  0  0  0
 31 32  1  0  0  0  0
 32 34  1  0  0  0  0
 33 32  1  0  0  0  0
 33 34  1  0  0  0  0
M  END
>  <MODEL>
7

>  <REMARK>
 VINA RESULT:      -5.4      2.031      2.410
  Name = 
  8 active torsions:
  status: ('A' for Active; 'I' for Inactive)
    1  A    between atoms: S_3  and  C_13
    2  A    between atoms: S_3  and  C_17
    3  A    between atoms: C_12  and  C_27
    4  A    between atoms: C_12  and  C_28
    5  A    between atoms: C_13  and  C_33
    6  A    between atoms: C_17  and  C_29
    7  A    between atoms: C_20  and  O_34
    8  A    between atoms: C_33  and  O_34
                            x       y       z     vdW  Elec       q    Type
                         _______ _______ _______ _____ _____    ______ ____

>  <TORSDO>
F 8

$$$$
=
 OpenBabel11062408023D

 34 40  0  0  1  0  0  0  0  0999 V2000
  160.3080  209.9940  156.1570 C   0  0  2  0  0  3  0  0  0  0  0  0
  161.2000  208.0860  155.1390 C   0  0  2  0  0  3  0  0  0  0  0  0
  161.0870  210.1820  153.7960 C   0  0  1  0  0  3  0  0  0  0  0  0
  161.4890  209.7240  151.2190 C   0  0  2  0  0  0  0  0  0  0  0  0
  160.1460  207.7290  156.0770 N   0  0  0  0  0  0  0  0  0  0  0  0
  160.7220  206.8010  157.0390 C   0  0  0  0  0  1  0  0  0  0  0  0
  161.3070  207.9950  152.6910 C   0  0  0  0  0  0  0  0  0  0  0  0
  161.0190  209.5260  154.9700 C   0  0  1  0  0  3  0  0  0  0  0  0
  161.5090  208.4330  150.4070 C   0  0  0  0  0  2  0  0  0  0  0  0
  159.7580  208.8500  156.7820 O   0  0  0  0  0  0  0  0  0  0  0  0
  159.8830  212.1160  154.9590 C   0  0  0  0  0  2  0  0  0  0  0  0
  159.2250  210.9950  155.7660 C   0  0  0  0  0  2  0  0  0  0  0  0
  161.0650  207.3560  153.9090 O   0  0  0  0  0  0  0  0  0  0  0  0
  160.4660  210.7290  150.7510 C   0  0  0  0  0  2  0  0  0  0  0  0
  161.9540  211.0990  150.7790 C   0  0  2  0  0  3  0  0  0  0  0  0
  161.3630  207.4130  151.5010 C   0  0  0  0  0  0  0  0  0  0  0  0
  161.4240  209.4020  152.6350 N   0  0  0  0  0  0  0  0  0  0  0  0
  160.5250  211.5800  153.6680 C   0  0  0  0  0  2  0  0  0  0  0  0
  162.5060  211.0630  149.3630 C   0  0  0  0  0  2  0  0  0  0  0  0
  161.8550  213.6220  146.0150 N   0  0  0  0  0  2  0  0  0  0  0  0
  162.7170  214.1360  147.0780 C   0  0  0  0  0  2  0  0  0  0  0  0
  163.2110  212.9880  147.9560 C   0  0  0  0  0  2  0  0  0  0  0  0
  161.0460  211.8270  147.4750 C   0  0  0  0  0  2  0  0  0  0  0  0
  162.0170  212.2650  148.5730 C   0  0  0  0  0  3  0  0  0  0  0  0
  160.6610  213.0340  146.6220 C   0  0  0  0  0  2  0  0  0  0  0  0
  161.1800  205.9500  151.2710 C   0  0  0  0  0  2  0  0  0  0  0  0
  160.5000  205.6550  149.6080 S   0  0  0  0  0  0  0  0  0  0  0  0
  161.2050  203.9860  149.5230 C   0  0  0  0  0  2  0  0  0  0  0  0
  161.5770  203.6650  148.0900 C   0  0  0  0  0  2  0  0  0  0  0  0
  161.6000  204.8400  147.3410 O   0  0  0  0  0  0  0  0  0  0  0  0
  160.4560  206.1450  145.2970 C   0  0  0  0  0  1  0  0  0  0  0  0
  161.5880  205.1870  144.9500 C   0  0  1  0  0  3  0  0  0  0  0  0
  162.1840  204.4730  146.1220 C   0  0  2  0  0  3  0  0  0  0  0  0
  161.2090  203.8760  145.3010 O   0  0  0  0  0  0  0  0  0  0  0  0
  1 12  1  6  0  0  0
  1 10  1  0  0  0  0
  2 13  1  6  0  0  0
  2  5  1  0  0  0  0
  3 18  1  6  0  0  0
  3  8  1  0  0  0  0
  4  9  1  6  0  0  0
  4 17  1  0  0  0  0
  5 10  1  0  0  0  0
  5  6  1  0  0  0  0
  7 13  1  0  0  0  0
  8  2  1  0  0  0  0
  8  1  1  0  0  0  0
  9 16  1  0  0  0  0
 11 12  1  0  0  0  0
 14 15  1  0  0  0  0
 14  4  1  0  0  0  0
 15  4  1  0  0  0  0
 16  7  2  0  0  0  0
 17  7  1  0  0  0  0
 17  3  1  0  0  0  0
 18 11  1  0  0  0  0
 19 15  1  0  0  0  0
 20 25  1  0  0  0  0
 20 21  1  0  0  0  0
 21 22  1  0  0  0  0
 22 24  1  0  0  0  0
 23 24  1  0  0  0  0
 24 19  1  0  0  0  0
 25 23  1  0  0  0  0
 26 16  1  0  0  0  0
 27 26  1  0  0  0  0
 28 27  1  0  0  0  0
 29 28  1  0  0  0  0
 30 29  1  0  0  0  0
 32 31  1  0  0  0  0
 32 34  1  0  0  0  0
 32 33  1  0  0  0  0
 33 30  1  0  0  0  0
 34 33  1  0  0  0  0
M  END
>  <MODEL>
8

>  <REMARK>
 VINA RESULT:      -5.3      2.305      6.963
  Name = 
  8 active torsions:
  status: ('A' for Active; 'I' for Inactive)
    1  A    between atoms: S_3  and  C_13
    2  A    between atoms: S_3  and  C_17
    3  A    between atoms: C_12  and  C_27
    4  A    between atoms: C_12  and  C_28
    5  A    between atoms: C_13  and  C_33
    6  A    between atoms: C_17  and  C_29
    7  A    between atoms: C_20  and  O_34
    8  A    between atoms: C_33  and  O_34
                            x       y       z     vdW  Elec       q    Type
                         _______ _______ _______ _____ _____    ______ ____

>  <TORSDO>
F 8

$$$$
=
 OpenBabel11062408023D

 34 40  0  0  1  0  0  0  0  0999 V2000
  161.5000  205.7930  153.4630 C   0  0  2  0  0  3  0  0  0  0  0  0
  161.9230  205.1230  151.2620 C   0  0  2  0  0  3  0  0  0  0  0  0
  161.9040  207.5650  151.7570 C   0  0  1  0  0  3  0  0  0  0  0  0
  161.8090  209.0190  149.5460 C   0  0  2  0  0  0  0  0  0  0  0  0
  160.9940  204.2100  151.9130 N   0  0  0  0  0  0  0  0  0  0  0  0
  161.5760  202.8790  151.8360 C   0  0  0  0  0  1  0  0  0  0  0  0
  161.6160  206.7510  149.4530 C   0  0  0  0  0  0  0  0  0  0  0  0
  161.9320  206.2790  152.1560 C   0  0  1  0  0  3  0  0  0  0  0  0
  161.5060  208.6480  148.0970 C   0  0  0  0  0  2  0  0  0  0  0  0
  160.8960  204.5310  153.2510 O   0  0  0  0  0  0  0  0  0  0  0  0
  161.2040  208.1510  154.1470 C   0  0  0  0  0  2  0  0  0  0  0  0
  160.5280  206.7790  154.1020 C   0  0  0  0  0  2  0  0  0  0  0  0
  161.4830  205.4450  149.9330 O   0  0  0  0  0  0  0  0  0  0  0  0
  160.8830  210.0620  150.1200 C   0  0  0  0  0  2  0  0  0  0  0  0
  162.3940  210.3190  150.0630 C   0  0  2  0  0  3  0  0  0  0  0  0
  161.3910  207.1530  148.2110 C   0  0  0  0  0  0  0  0  0  0  0  0
  161.9280  207.8070  150.3390 N   0  0  0  0  0  0  0  0  0  0  0  0
  161.5410  208.6610  152.7340 C   0  0  0  0  0  2  0  0  0  0  0  0
  162.6960  211.2750  148.9200 C   0  0  0  0  0  2  0  0  0  0  0  0
  160.3800  214.4200  147.2100 N   0  0  0  0  0  2  0  0  0  0  0  0
  160.5540  214.4450  148.6610 C   0  0  0  0  0  2  0  0  0  0  0  0
  161.7320  213.5630  149.0650 C   0  0  0  0  0  2  0  0  0  0  0  0
  161.1770  212.1040  147.1080 C   0  0  0  0  0  2  0  0  0  0  0  0
  161.4790  212.1300  148.6080 C   0  0  0  0  0  3  0  0  0  0  0  0
  160.0260  213.0610  146.8040 C   0  0  0  0  0  2  0  0  0  0  0  0
  160.9580  206.2540  147.1010 C   0  0  0  0  0  2  0  0  0  0  0  0
  162.3540  205.9190  145.9810 S   0  0  0  0  0  0  0  0  0  0  0  0
  162.3580  204.1500  146.3780 C   0  0  0  0  0  2  0  0  0  0  0  0
  161.1820  203.4760  145.7000 C   0  0  0  0  0  2  0  0  0  0  0  0
  160.9620  202.2290  146.2830 O   0  0  0  0  0  0  0  0  0  0  0  0
  161.5810  199.9730  147.5930 C   0  0  0  0  0  1  0  0  0  0  0  0
  161.4130  201.2300  148.4350 C   0  0  1  0  0  3  0  0  0  0  0  0
  161.0540  202.4590  147.6610 C   0  0  2  0  0  3  0  0  0  0  0  0
  160.0840  201.6870  148.3270 O   0  0  0  0  0  0  0  0  0  0  0  0
  1 12  1  6  0  0  0
  2 13  1  6  0  0  0
  2  5  1  0  0  0  0
  2  8  1  0  0  0  0
  3  8  1  0  0  0  0
  3 18  1  6  0  0  0
  4  9  1  6  0  0  0
  4 15  1  0  0  0  0
  4 14  1  0  0  0  0
  4 17  1  0  0  0  0
  5 10  1  0  0  0  0
  6  5  1  0  0  0  0
  7 13  1  0  0  0  0
  7 17  1  0  0  0  0
  8  1  1  0  0  0  0
  9 16  1  0  0  0  0
 10  1  1  0  0  0  0
 12 11  1  0  0  0  0
 15 14  1  0  0  0  0
 16  7  2  0  0  0  0
 17  3  1  0  0  0  0
 18 11  1  0  0  0  0
 19 15  1  0  0  0  0
 20 21  1  0  0  0  0
 21 22  1  0  0  0  0
 23 24  1  0  0  0  0
 24 19  1  0  0  0  0
 24 22  1  0  0  0  0
 25 23  1  0  0  0  0
 25 20  1  0  0  0  0
 26 16  1  0  0  0  0
 27 28  1  0  0  0  0
 27 26  1  0  0  0  0
 29 30  1  0  0  0  0
 29 28  1  0  0  0  0
 30 33  1  0  0  0  0
 31 32  1  0  0  0  0
 33 34  1  0  0  0  0
 33 32  1  0  0  0  0
 34 32  1  0  0  0  0
M  END
>  <MODEL>
9

>  <REMARK>
 VINA RESULT:      -5.2      2.592      6.313
  Name = 
  8 active torsions:
  status: ('A' for Active; 'I' for Inactive)
    1  A    between atoms: S_3  and  C_13
    2  A    between atoms: S_3  and  C_17
    3  A    between atoms: C_12  and  C_27
    4  A    between atoms: C_12  and  C_28
    5  A    between atoms: C_13  and  C_33
    6  A    between atoms: C_17  and  C_29
    7  A    between atoms: C_20  and  O_34
    8  A    between atoms: C_33  and  O_34
                            x       y       z     vdW  Elec       q    Type
                         _______ _______ _______ _____ _____    ______ ____

>  <TORSDO>
F 8

$$$$
