=
 OpenBabel11062408573D

 55 61  0  0  1  0  0  0  0  0999 V2000
  162.3060  208.3560  150.4350 C   0  0  0  0  0  3  0  0  0  0  0  0
  161.9510  210.8020  149.1220 C   0  0  0  0  0  0  0  0  0  0  0  0
  161.5800  209.6070  148.4950 C   0  0  0  0  0  3  0  0  0  0  0  0
  162.6760  209.5490  151.0650 C   0  0  0  0  0  3  0  0  0  0  0  0
  161.7500  208.3840  149.1480 C   0  0  0  0  0  0  0  0  0  0  0  0
  162.5000  210.7700  150.4080 C   0  0  0  0  0  3  0  0  0  0  0  0
  161.3670  207.1270  148.4380 C   0  0  1  0  0  3  0  0  0  0  0  0
  160.1480  206.3330  146.4300 C   0  0  0  0  0  2  0  0  0  0  0  0
  161.2560  205.4370  144.3970 C   0  0  0  0  0  1  0  0  0  0  0  0
  162.0830  204.6080  146.6110 C   0  0  1  0  0  3  0  0  0  0  0  0
  161.1010  207.3930  146.9630 C   0  0  0  0  0  2  0  0  0  0  0  0
  162.4930  203.2220  146.1430 C   0  0  0  0  0  1  0  0  0  0  0  0
  160.8630  205.1220  145.8260 C   0  0  1  0  0  3  0  0  0  0  0  0
  161.9710  204.6540  148.1440 C   0  0  1  0  0  3  0  0  0  0  0  0
  162.4080  206.0290  148.6610 C   0  0  0  0  0  2  0  0  0  0  0  0
  160.3560  202.7310  148.2020 C   0  0  0  0  0  2  0  0  0  0  0  0
  161.9800  201.0920  149.1350 C   0  0  0  0  0  1  0  0  0  0  0  0
  160.7320  203.8970  150.1900 C   0  0  0  0  0  0  0  0  0  0  0  0
  160.7580  202.6550  150.5310 N   0  0  0  0  0  0  0  0  0  0  0  0
  160.6560  201.7950  149.3690 C   0  0  1  0  0  3  0  0  0  0  0  0
  160.6320  204.1380  148.7240 C   0  0  1  0  0  3  0  0  0  0  0  0
  160.7230  204.9510  151.1520 N   0  0  0  0  0  2  0  0  0  0  0  0
  161.1420  204.7550  152.5290 C   0  0  0  0  0  2  0  0  0  0  0  0
  160.5990  207.1890  152.5960 C   0  0  0  0  0  3  0  0  0  0  0  0
  160.8520  208.4850  154.6300 C   0  0  0  0  0  0  0  0  0  0  0  0
  161.3290  206.1030  154.6290 C   0  0  0  0  0  3  0  0  0  0  0  0
  161.2520  207.3240  155.3060 C   0  0  0  0  0  3  0  0  0  0  0  0
  160.5260  208.4090  153.2710 C   0  0  0  0  0  3  0  0  0  0  0  0
  160.9970  206.0360  153.2740 C   0  0  0  0  0  0  0  0  0  0  0  0
  160.7750  209.7730  155.3340 C   0  0  0  0  0  0  0  0  0  0  0  0
  161.8230  210.3950  155.6440 O   0  0  0  0  0  0  0  0  0  0  0  0
  159.5400  210.3200  155.6660 O   0  0  0  0  0  1  0  0  0  0  0  0
  161.7840  212.1050  148.4150 C   0  0  0  0  0  2  0  0  0  0  0  0
  163.0880  212.5420  147.7640 C   0  0  0  0  0  2  0  0  0  0  0  0
  162.8140  213.5370  146.6470 C   0  0  0  0  0  2  0  0  0  0  0  0
  161.3410  213.5400  146.2790 C   0  0  0  0  0  2  0  0  0  0  0  0
  161.1230  214.2360  144.9470 C   0  0  0  0  0  2  0  0  0  0  0  0
  162.8400  212.8390  143.1570 O   0  0  0  0  0  0  0  0  0  0  0  0
  161.6040  212.6070  143.0820 C   0  0  0  0  0  0  0  0  0  0  0  0
  160.6900  213.2560  143.9670 N   0  0  0  0  0  2  0  0  0  0  0  0
  159.7270  211.4540  142.2660 O   0  0  0  0  0  1  0  0  0  0  0  0
  161.0910  211.6530  142.0510 C   0  0  1  0  0  3  0  0  0  0  0  0
  162.0250  211.1710  139.6620 C   0  0  0  0  0  0  0  0  0  0  0  0
  160.4690  212.7140  138.3890 C   0  0  2  0  0  3  0  0  0  0  0  0
  160.9300  210.4250  137.3810 C   0  0  0  0  0  2  0  0  0  0  0  0
  161.1740  213.8530  137.9930 O   0  0  0  0  0  1  0  0  0  0  0  0
  161.7450  209.7130  140.0470 C   0  0  0  0  0  1  0  0  0  0  0  0
  163.5290  211.4030  139.6490 C   0  0  0  0  0  1  0  0  0  0  0  0
  160.1420  212.7520  139.8930 C   0  0  1  0  0  3  0  0  0  0  0  0
  161.3700  212.1910  140.6290 C   0  0  1  0  0  3  0  0  0  0  0  0
  162.1440  211.2660  137.0110 C   0  0  0  0  0  2  0  0  0  0  0  0
  161.3990  211.5330  138.3080 C   0  0  0  0  0  0  0  0  0  0  0  0
  159.5720  214.0450  140.5200 C   0  0  2  0  0  3  0  0  0  0  0  0
  158.2660  213.8210  141.1790 C   0  0  0  0  0  2  0  0  0  0  0  0
  158.3680  214.4530  139.9210 O   0  0  0  0  0  0  0  0  0  0  0  0
  1  4  1  0  0  0  0
  2  6  1  0  0  0  0
  3  2  2  0  0  0  0
  3  5  1  0  0  0  0
  5  1  2  0  0  0  0
  6  4  2  0  0  0  0
  7 15  1  0  0  0  0
  7  5  1  6  0  0  0
  8 11  1  0  0  0  0
 10 12  1  6  0  0  0
 10 14  1  0  0  0  0
 11  7  1  0  0  0  0
 13  9  1  6  0  0  0
 13  8  1  0  0  0  0
 13 10  1  0  0  0  0
 14 15  1  6  0  0  0
 14 21  1  0  0  0  0
 16 20  1  0  0  0  0
 18 19  2  0  0  0  0
 18 22  1  0  0  0  0
 20 17  1  6  0  0  0
 20 19  1  0  0  0  0
 21 16  1  6  0  0  0
 21 18  1  0  0  0  0
 22 23  1  0  0  0  0
 23 29  1  0  0  0  0
 24 28  2  0  0  0  0
 24 29  1  0  0  0  0
 25 27  2  0  0  0  0
 25 30  1  0  0  0  0
 26 27  1  0  0  0  0
 28 25  1  0  0  0  0
 29 26  2  0  0  0  0
 30 31  2  0  0  0  0
 30 32  1  0  0  0  0
 33  2  1  0  0  0  0
 34 33  1  0  0  0  0
 35 34  1  0  0  0  0
 36 35  1  0  0  0  0
 37 36  1  0  0  0  0
 39 38  2  0  0  0  0
 39 40  1  0  0  0  0
 40 37  1  0  0  0  0
 42 41  1  1  0  0  0
 42 39  1  0  0  0  0
 43 47  1  0  0  0  0
 43 50  1  0  0  0  0
 44 46  1  1  0  0  0
 44 49  1  0  0  0  0
 45 52  1  0  0  0  0
 48 43  1  0  0  0  0
 49 53  1  1  0  0  0
 49 50  1  0  0  0  0
 50 42  1  1  0  0  0
 51 45  1  0  0  0  0
 51 52  1  0  0  0  0
 52 44  1  0  0  0  0
 52 43  1  0  0  0  0
 53 54  1  1  0  0  0
 55 53  1  0  0  0  0
 55 54  1  0  0  0  0
M  END
>  <MODEL>
1

>  <REMARK>
 VINA RESULT:      -6.7      0.000      0.000
  Name = 
  14 active torsions:
  status: ('A' for Active; 'I' for Inactive)
    1  A    between atoms: C_2  and  C_44
    2  A    between atoms: C_8  and  N_22
    3  A    between atoms: C_8  and  C_35
    4  A    between atoms: C_10  and  C_32
    5  A    between atoms: C_11  and  C_38
    6  A    between atoms: C_20  and  C_50
    7  A    between atoms: C_26  and  C_45
    8  A    between atoms: C_27  and  C_54
    9  A    between atoms: C_33  and  N_36
   10  A    between atoms: C_33  and  C_52
   11  A    between atoms: C_35  and  C_43
   12  A    between atoms: C_42  and  C_50
   13  A    between atoms: C_43  and  C_51
   14  A    between atoms: C_51  and  C_54
                            x       y       z     vdW  Elec       q    Type
                         _______ _______ _______ _____ _____    ______ ____

>  <TORSDO>
F 14

$$$$
=
 OpenBabel11062408573D

 55 61  0  0  1  0  0  0  0  0999 V2000
  162.7630  205.6090  148.7830 C   0  0  0  0  0  3  0  0  0  0  0  0
  161.1320  206.1080  146.5650 C   0  0  0  0  0  0  0  0  0  0  0  0
  161.1140  206.9790  147.6600 C   0  0  0  0  0  3  0  0  0  0  0  0
  162.7840  204.7390  147.6890 C   0  0  0  0  0  3  0  0  0  0  0  0
  161.9310  206.7380  148.7670 C   0  0  0  0  0  0  0  0  0  0  0  0
  161.9680  204.9870  146.5810 C   0  0  0  0  0  3  0  0  0  0  0  0
  161.8670  207.6750  149.9290 C   0  0  1  0  0  3  0  0  0  0  0  0
  162.7550  209.8550  150.7090 C   0  0  0  0  0  2  0  0  0  0  0  0
  161.4220  211.9470  150.7950 C   0  0  0  0  0  1  0  0  0  0  0  0
  160.3470  209.8660  151.6840 C   0  0  1  0  0  3  0  0  0  0  0  0
  162.2170  209.0940  149.5050 C   0  0  0  0  0  2  0  0  0  0  0  0
  159.4910  210.5430  152.7410 C   0  0  0  0  0  1  0  0  0  0  0  0
  161.6740  210.6170  151.4780 C   0  0  1  0  0  3  0  0  0  0  0  0
  160.4570  208.3570  151.9570 C   0  0  1  0  0  3  0  0  0  0  0  0
  160.5120  207.5870  150.6330 C   0  0  0  0  0  2  0  0  0  0  0  0
  161.3170  208.7210  154.2890 C   0  0  0  0  0  2  0  0  0  0  0  0
  159.2250  207.9930  155.4240 C   0  0  0  0  0  1  0  0  0  0  0  0
  161.3500  206.5440  153.4430 C   0  0  0  0  0  0  0  0  0  0  0  0
  160.8990  206.4200  154.6430 N   0  0  0  0  0  0  0  0  0  0  0  0
  160.7080  207.7160  155.2630 C   0  0  1  0  0  3  0  0  0  0  0  0
  161.5350  207.9500  152.9900 C   0  0  1  0  0  3  0  0  0  0  0  0
  161.7130  205.4170  152.6460 N   0  0  0  0  0  2  0  0  0  0  0  0
  161.2440  204.0730  152.9340 C   0  0  0  0  0  2  0  0  0  0  0  0
  161.6770  202.0530  151.5370 C   0  0  0  0  0  3  0  0  0  0  0  0
  160.9630  201.9400  149.2220 C   0  0  0  0  0  0  0  0  0  0  0  0
  160.4610  203.9020  150.5630 C   0  0  0  0  0  3  0  0  0  0  0  0
  160.3880  203.2120  149.3500 C   0  0  0  0  0  3  0  0  0  0  0  0
  161.6070  201.3650  150.3230 C   0  0  0  0  0  3  0  0  0  0  0  0
  161.1010  203.3180  151.6590 C   0  0  0  0  0  0  0  0  0  0  0  0
  160.8950  201.2120  147.9460 C   0  0  0  0  0  0  0  0  0  0  0  0
  161.4190  200.0740  147.8320 O   0  0  0  0  0  1  0  0  0  0  0  0
  160.2510  201.7750  146.8500 O   0  0  0  0  0  0  0  0  0  0  0  0
  160.2460  206.3600  145.3900 C   0  0  0  0  0  2  0  0  0  0  0  0
  160.3730  205.2450  144.3630 C   0  0  0  0  0  2  0  0  0  0  0  0
  161.5980  205.4670  143.4910 C   0  0  0  0  0  2  0  0  0  0  0  0
  161.3820  206.6340  142.5450 C   0  0  0  0  0  2  0  0  0  0  0  0
  162.0860  206.3910  141.2220 C   0  0  0  0  0  2  0  0  0  0  0  0
  162.2360  206.2530  138.3820 O   0  0  0  0  0  0  0  0  0  0  0  0
  161.8970  207.3510  138.8970 C   0  0  0  0  0  0  0  0  0  0  0  0
  161.7790  207.4810  140.3150 N   0  0  0  0  0  2  0  0  0  0  0  0
  160.7350  208.1450  137.0150 O   0  0  0  0  0  1  0  0  0  0  0  0
  161.6250  208.5300  138.0170 C   0  0  1  0  0  3  0  0  0  0  0  0
  161.9890  210.9560  138.9100 C   0  0  0  0  0  0  0  0  0  0  0  0
  159.5550  211.6580  138.9400 C   0  0  2  0  0  3  0  0  0  0  0  0
  161.2490  213.3460  138.0770 C   0  0  0  0  0  2  0  0  0  0  0  0
  159.0980  211.6760  140.2600 O   0  0  0  0  0  1  0  0  0  0  0  0
  162.9490  211.0530  137.7180 C   0  0  0  0  0  1  0  0  0  0  0  0
  162.7980  210.9070  140.1980 C   0  0  0  0  0  1  0  0  0  0  0  0
  159.6860  210.2180  138.4120 C   0  0  1  0  0  3  0  0  0  0  0  0
  161.0700  209.7090  138.8490 C   0  0  1  0  0  3  0  0  0  0  0  0
  161.3450  213.4390  139.5930 C   0  0  0  0  0  2  0  0  0  0  0  0
  160.9880  212.1190  138.9320 C   0  0  0  0  0  0  0  0  0  0  0  0
  158.5410  209.2070  138.6530 C   0  0  2  0  0  3  0  0  0  0  0  0
  157.3750  209.4610  137.7790 C   0  0  0  0  0  2  0  0  0  0  0  0
  157.3740  209.8170  139.1440 O   0  0  0  0  0  0  0  0  0  0  0  0
  2  6  2  0  0  0  0
  2  3  1  0  0  0  0
  3  5  2  0  0  0  0
  4  1  2  0  0  0  0
  5  1  1  0  0  0  0
  6  4  1  0  0  0  0
  7  5  1  6  0  0  0
  7 15  1  0  0  0  0
  8 13  1  0  0  0  0
 10 14  1  0  0  0  0
 10 12  1  1  0  0  0
 11  7  1  0  0  0  0
 11  8  1  0  0  0  0
 13  9  1  6  0  0  0
 13 10  1  0  0  0  0
 14 15  1  6  0  0  0
 14 21  1  0  0  0  0
 16 20  1  0  0  0  0
 18 19  2  0  0  0  0
 19 20  1  0  0  0  0
 20 17  1  6  0  0  0
 21 18  1  0  0  0  0
 21 16  1  1  0  0  0
 22 23  1  0  0  0  0
 22 18  1  0  0  0  0
 24 29  1  0  0  0  0
 25 27  2  0  0  0  0
 25 28  1  0  0  0  0
 26 29  2  0  0  0  0
 27 26  1  0  0  0  0
 28 24  2  0  0  0  0
 29 23  1  0  0  0  0
 30 25  1  0  0  0  0
 31 30  1  0  0  0  0
 32 30  2  0  0  0  0
 33  2  1  0  0  0  0
 34 33  1  0  0  0  0
 35 34  1  0  0  0  0
 36 35  1  0  0  0  0
 37 36  1  0  0  0  0
 38 39  2  0  0  0  0
 39 40  1  0  0  0  0
 40 37  1  0  0  0  0
 42 41  1  6  0  0  0
 42 39  1  0  0  0  0
 43 52  1  0  0  0  0
 43 48  1  0  0  0  0
 44 46  1  1  0  0  0
 45 52  1  0  0  0  0
 45 51  1  0  0  0  0
 47 43  1  0  0  0  0
 49 53  1  1  0  0  0
 49 50  1  0  0  0  0
 49 44  1  0  0  0  0
 50 42  1  6  0  0  0
 50 43  1  0  0  0  0
 52 44  1  0  0  0  0
 52 51  1  0  0  0  0
 53 54  1  6  0  0  0
 53 55  1  0  0  0  0
 54 55  1  0  0  0  0
M  END
>  <MODEL>
2

>  <REMARK>
 VINA RESULT:      -5.1      3.283      6.406
  Name = 
  14 active torsions:
  status: ('A' for Active; 'I' for Inactive)
    1  A    between atoms: C_2  and  C_44
    2  A    between atoms: C_8  and  N_22
    3  A    between atoms: C_8  and  C_35
    4  A    between atoms: C_10  and  C_32
    5  A    between atoms: C_11  and  C_38
    6  A    between atoms: C_20  and  C_50
    7  A    between atoms: C_26  and  C_45
    8  A    between atoms: C_27  and  C_54
    9  A    between atoms: C_33  and  N_36
   10  A    between atoms: C_33  and  C_52
   11  A    between atoms: C_35  and  C_43
   12  A    between atoms: C_42  and  C_50
   13  A    between atoms: C_43  and  C_51
   14  A    between atoms: C_51  and  C_54
                            x       y       z     vdW  Elec       q    Type
                         _______ _______ _______ _____ _____    ______ ____

>  <TORSDO>
F 14

$$$$
=
 OpenBabel11062408573D

 55 61  0  0  1  0  0  0  0  0999 V2000
  162.0790  204.3520  147.4810 C   0  0  0  0  0  3  0  0  0  0  0  0
  161.4210  205.6680  145.1010 C   0  0  0  0  0  0  0  0  0  0  0  0
  161.5570  206.3930  146.2900 C   0  0  0  0  0  3  0  0  0  0  0  0
  161.9450  203.6260  146.2930 C   0  0  0  0  0  3  0  0  0  0  0  0
  161.8910  205.7420  147.4800 C   0  0  0  0  0  0  0  0  0  0  0  0
  161.6150  204.2830  145.1040 C   0  0  0  0  0  3  0  0  0  0  0  0
  162.0040  206.5440  148.7340 C   0  0  1  0  0  3  0  0  0  0  0  0
  163.1490  208.5390  149.6610 C   0  0  0  0  0  2  0  0  0  0  0  0
  162.0280  210.7140  150.0810 C   0  0  0  0  0  1  0  0  0  0  0  0
  160.8320  208.6450  150.8330 C   0  0  1  0  0  3  0  0  0  0  0  0
  162.4530  207.9670  148.4340 C   0  0  0  0  0  2  0  0  0  0  0  0
  160.1260  209.2700  152.0250 C   0  0  0  0  0  1  0  0  0  0  0  0
  162.2050  209.2990  150.5960 C   0  0  1  0  0  3  0  0  0  0  0  0
  160.8210  207.1110  150.9360 C   0  0  1  0  0  3  0  0  0  0  0  0
  160.7030  206.4930  149.5380 C   0  0  0  0  0  2  0  0  0  0  0  0
  161.9100  207.1640  153.1990 C   0  0  0  0  0  2  0  0  0  0  0  0
  159.8540  206.5530  154.4610 C   0  0  0  0  0  1  0  0  0  0  0  0
  161.6290  205.0850  152.1740 C   0  0  0  0  0  0  0  0  0  0  0  0
  161.2710  204.8960  153.3960 N   0  0  0  0  0  0  0  0  0  0  0  0
  161.2780  206.1410  154.1380 C   0  0  1  0  0  3  0  0  0  0  0  0
  161.9310  206.5010  151.8240 C   0  0  1  0  0  3  0  0  0  0  0  0
  161.7960  204.0060  151.2540 N   0  0  0  0  0  2  0  0  0  0  0  0
  161.2070  202.6970  151.4710 C   0  0  0  0  0  2  0  0  0  0  0  0
  162.0380  201.1910  149.6650 C   0  0  0  0  0  3  0  0  0  0  0  0
  160.7650  200.8340  147.6320 C   0  0  0  0  0  0  0  0  0  0  0  0
  159.8850  202.2570  149.3920 C   0  0  0  0  0  3  0  0  0  0  0  0
  159.7540  201.6640  148.1320 C   0  0  0  0  0  3  0  0  0  0  0  0
  161.9080  200.6010  148.4050 C   0  0  0  0  0  3  0  0  0  0  0  0
  161.0260  202.0150  150.1600 C   0  0  0  0  0  0  0  0  0  0  0  0
  160.6360  200.2120  146.3050 C   0  0  0  0  0  0  0  0  0  0  0  0
  160.0040  200.7930  145.3860 O   0  0  0  0  0  0  0  0  0  0  0  0
  161.2130  198.9720  146.0520 O   0  0  0  0  0  1  0  0  0  0  0  0
  161.0470  206.3650  143.8350 C   0  0  0  0  0  2  0  0  0  0  0  0
  161.9610  205.9470  142.6930 C   0  0  0  0  0  2  0  0  0  0  0  0
  161.5740  206.6730  141.4140 C   0  0  0  0  0  2  0  0  0  0  0  0
  162.6530  206.5130  140.3570 C   0  0  0  0  0  2  0  0  0  0  0  0
  162.1080  206.8400  138.9790 C   0  0  0  0  0  2  0  0  0  0  0  0
  160.1690  208.1760  137.3780 O   0  0  0  0  0  0  0  0  0  0  0  0
  160.9940  208.8860  138.0110 C   0  0  0  0  0  0  0  0  0  0  0  0
  161.9770  208.2800  138.8510 N   0  0  0  0  0  2  0  0  0  0  0  0
  159.9050  210.7130  137.0120 O   0  0  0  0  0  1  0  0  0  0  0  0
  160.9490  210.3750  137.8730 C   0  0  1  0  0  3  0  0  0  0  0  0
  162.0130  211.8470  139.7480 C   0  0  0  0  0  0  0  0  0  0  0  0
  159.8720  212.9340  140.5580 C   0  0  2  0  0  3  0  0  0  0  0  0
  161.9250  214.4180  140.3310 C   0  0  0  0  0  2  0  0  0  0  0  0
  159.5020  212.3650  141.7800 O   0  0  0  0  0  1  0  0  0  0  0  0
  162.9040  212.3390  138.6000 C   0  0  0  0  0  1  0  0  0  0  0  0
  162.8370  210.9690  140.6770 C   0  0  0  0  0  1  0  0  0  0  0  0
  159.5750  211.9850  139.3850 C   0  0  1  0  0  3  0  0  0  0  0  0
  160.7820  211.0420  139.2580 C   0  0  1  0  0  3  0  0  0  0  0  0
  162.1140  213.6910  141.6550 C   0  0  0  0  0  2  0  0  0  0  0  0
  161.3750  213.0150  140.5140 C   0  0  0  0  0  0  0  0  0  0  0  0
  158.2070  211.2670  139.3090 C   0  0  2  0  0  3  0  0  0  0  0  0
  157.2870  211.9110  138.3470 C   0  0  0  0  0  2  0  0  0  0  0  0
  157.1440  212.0780  139.7400 O   0  0  0  0  0  0  0  0  0  0  0  0
  2  6  2  0  0  0  0
  2  3  1  0  0  0  0
  3  5  2  0  0  0  0
  4  1  2  0  0  0  0
  5  1  1  0  0  0  0
  6  4  1  0  0  0  0
  7  5  1  6  0  0  0
  7 15  1  0  0  0  0
  8 13  1  0  0  0  0
 10 14  1  0  0  0  0
 10 12  1  1  0  0  0
 11  7  1  0  0  0  0
 11  8  1  0  0  0  0
 13  9  1  6  0  0  0
 13 10  1  0  0  0  0
 14 15  1  6  0  0  0
 14 21  1  0  0  0  0
 16 20  1  0  0  0  0
 18 19  2  0  0  0  0
 19 20  1  0  0  0  0
 20 17  1  6  0  0  0
 21 18  1  0  0  0  0
 21 16  1  1  0  0  0
 22 23  1  0  0  0  0
 22 18  1  0  0  0  0
 24 29  1  0  0  0  0
 25 27  2  0  0  0  0
 25 28  1  0  0  0  0
 26 29  2  0  0  0  0
 27 26  1  0  0  0  0
 28 24  2  0  0  0  0
 29 23  1  0  0  0  0
 30 25  1  0  0  0  0
 31 30  2  0  0  0  0
 32 30  1  0  0  0  0
 33  2  1  0  0  0  0
 34 33  1  0  0  0  0
 35 34  1  0  0  0  0
 36 35  1  0  0  0  0
 37 36  1  0  0  0  0
 38 39  2  0  0  0  0
 39 40  1  0  0  0  0
 40 37  1  0  0  0  0
 42 41  1  6  0  0  0
 42 39  1  0  0  0  0
 43 52  1  0  0  0  0
 43 48  1  0  0  0  0
 44 46  1  1  0  0  0
 45 52  1  0  0  0  0
 45 51  1  0  0  0  0
 47 43  1  0  0  0  0
 49 53  1  1  0  0  0
 49 44  1  0  0  0  0
 50 42  1  6  0  0  0
 50 49  1  0  0  0  0
 50 43  1  0  0  0  0
 52 44  1  0  0  0  0
 52 51  1  0  0  0  0
 53 54  1  6  0  0  0
 53 55  1  0  0  0  0
 54 55  1  0  0  0  0
M  END
>  <MODEL>
3

>  <REMARK>
 VINA RESULT:      -4.9      3.400      6.591
  Name = 
  14 active torsions:
  status: ('A' for Active; 'I' for Inactive)
    1  A    between atoms: C_2  and  C_44
    2  A    between atoms: C_8  and  N_22
    3  A    between atoms: C_8  and  C_35
    4  A    between atoms: C_10  and  C_32
    5  A    between atoms: C_11  and  C_38
    6  A    between atoms: C_20  and  C_50
    7  A    between atoms: C_26  and  C_45
    8  A    between atoms: C_27  and  C_54
    9  A    between atoms: C_33  and  N_36
   10  A    between atoms: C_33  and  C_52
   11  A    between atoms: C_35  and  C_43
   12  A    between atoms: C_42  and  C_50
   13  A    between atoms: C_43  and  C_51
   14  A    between atoms: C_51  and  C_54
                            x       y       z     vdW  Elec       q    Type
                         _______ _______ _______ _____ _____    ______ ____

>  <TORSDO>
F 14

$$$$
=
 OpenBabel11062408573D

 55 61  0  0  1  0  0  0  0  0999 V2000
  163.1820  205.7890  148.2150 C   0  0  0  0  0  3  0  0  0  0  0  0
  161.1730  206.0690  146.2870 C   0  0  0  0  0  0  0  0  0  0  0  0
  161.1260  206.8220  147.4660 C   0  0  0  0  0  3  0  0  0  0  0  0
  163.2320  205.0360  147.0370 C   0  0  0  0  0  3  0  0  0  0  0  0
  162.1290  206.6900  148.4290 C   0  0  0  0  0  0  0  0  0  0  0  0
  162.2270  205.1760  146.0750 C   0  0  0  0  0  3  0  0  0  0  0  0
  162.0330  207.4910  149.6860 C   0  0  1  0  0  3  0  0  0  0  0  0
  162.8920  209.5720  150.7270 C   0  0  0  0  0  2  0  0  0  0  0  0
  161.5460  211.6380  151.0140 C   0  0  0  0  0  1  0  0  0  0  0  0
  160.4600  209.4690  151.6370 C   0  0  1  0  0  3  0  0  0  0  0  0
  162.3860  208.9500  149.4320 C   0  0  0  0  0  2  0  0  0  0  0  0
  159.5760  210.0220  152.7420 C   0  0  0  0  0  1  0  0  0  0  0  0
  161.7880  210.2410  151.5500 C   0  0  1  0  0  3  0  0  0  0  0  0
  160.5710  207.9390  151.7430 C   0  0  1  0  0  3  0  0  0  0  0  0
  160.6620  207.3220  150.3430 C   0  0  0  0  0  2  0  0  0  0  0  0
  161.4140  208.0910  154.1040 C   0  0  0  0  0  2  0  0  0  0  0  0
  159.2900  207.3330  155.1580 C   0  0  0  0  0  1  0  0  0  0  0  0
  161.3980  205.9890  153.0870 C   0  0  0  0  0  0  0  0  0  0  0  0
  160.9310  205.7820  154.2690 N   0  0  0  0  0  0  0  0  0  0  0  0
  160.7670  207.0290  154.9890 C   0  0  1  0  0  3  0  0  0  0  0  0
  161.6260  207.4210  152.7490 C   0  0  1  0  0  3  0  0  0  0  0  0
  161.7400  204.9200  152.2050 N   0  0  0  0  0  2  0  0  0  0  0  0
  161.2320  203.5710  152.3810 C   0  0  0  0  0  2  0  0  0  0  0  0
  161.3120  201.5430  150.9290 C   0  0  0  0  0  3  0  0  0  0  0  0
  160.9960  201.6940  148.5300 C   0  0  0  0  0  0  0  0  0  0  0  0
  160.8440  203.6860  149.9110 C   0  0  0  0  0  3  0  0  0  0  0  0
  160.7880  203.0740  148.6550 C   0  0  0  0  0  3  0  0  0  0  0  0
  161.2580  200.9330  149.6740 C   0  0  0  0  0  3  0  0  0  0  0  0
  161.1010  202.9180  151.0490 C   0  0  0  0  0  0  0  0  0  0  0  0
  160.9440  201.0450  147.2110 C   0  0  0  0  0  0  0  0  0  0  0  0
  160.3360  201.5900  146.2550 O   0  0  0  0  0  0  0  0  0  0  0  0
  161.5670  199.8180  147.0070 O   0  0  0  0  0  1  0  0  0  0  0  0
  160.0910  206.2010  145.2680 C   0  0  0  0  0  2  0  0  0  0  0  0
  160.4120  205.3870  144.0240 C   0  0  0  0  0  2  0  0  0  0  0  0
  161.6340  205.9570  143.3200 C   0  0  0  0  0  2  0  0  0  0  0  0
  161.3700  206.1240  141.8350 C   0  0  0  0  0  2  0  0  0  0  0  0
  162.3430  207.1170  141.2250 C   0  0  0  0  0  2  0  0  0  0  0  0
  162.2000  209.6910  140.0160 O   0  0  0  0  0  0  0  0  0  0  0  0
  161.8850  208.6950  139.3110 C   0  0  0  0  0  0  0  0  0  0  0  0
  161.9580  207.3740  139.8500 N   0  0  0  0  0  2  0  0  0  0  0  0
  160.4750  207.9230  137.5980 O   0  0  0  0  0  1  0  0  0  0  0  0
  161.4220  208.9000  137.9040 C   0  0  1  0  0  3  0  0  0  0  0  0
  159.3870  210.5060  138.2090 C   0  0  0  0  0  0  0  0  0  0  0  0
  160.7080  212.6340  138.5910 C   0  0  2  0  0  3  0  0  0  0  0  0
  158.6780  212.2350  140.0700 C   0  0  0  0  0  2  0  0  0  0  0  0
  160.6420  213.4280  137.4420 O   0  0  0  0  0  1  0  0  0  0  0  0
  158.9770  209.4860  139.2780 C   0  0  0  0  0  1  0  0  0  0  0  0
  158.4540  210.3750  137.0130 C   0  0  0  0  0  1  0  0  0  0  0  0
  161.6630  211.4430  138.3950 C   0  0  1  0  0  3  0  0  0  0  0  0
  160.8480  210.3250  137.7250 C   0  0  1  0  0  3  0  0  0  0  0  0
  158.1080  212.7660  138.7610 C   0  0  0  0  0  2  0  0  0  0  0  0
  159.3820  211.9390  138.7570 C   0  0  0  0  0  0  0  0  0  0  0  0
  163.0530  211.6740  137.7590 C   0  0  2  0  0  3  0  0  0  0  0  0
  164.1000  211.9240  138.7740 C   0  0  0  0  0  2  0  0  0  0  0  0
  163.5510  212.9660  137.9970 O   0  0  0  0  0  0  0  0  0  0  0  0
  1  5  1  0  0  0  0
  2  3  1  0  0  0  0
  3  5  2  0  0  0  0
  4  1  2  0  0  0  0
  6  2  2  0  0  0  0
  6  4  1  0  0  0  0
  7  5  1  6  0  0  0
  7 15  1  0  0  0  0
  8 13  1  0  0  0  0
 10 14  1  0  0  0  0
 10 12  1  1  0  0  0
 11  7  1  0  0  0  0
 11  8  1  0  0  0  0
 13  9  1  6  0  0  0
 13 10  1  0  0  0  0
 14 15  1  6  0  0  0
 14 21  1  0  0  0  0
 16 20  1  0  0  0  0
 18 19  2  0  0  0  0
 19 20  1  0  0  0  0
 20 17  1  6  0  0  0
 21 18  1  0  0  0  0
 21 16  1  1  0  0  0
 22 23  1  0  0  0  0
 22 18  1  0  0  0  0
 24 29  1  0  0  0  0
 25 27  2  0  0  0  0
 25 28  1  0  0  0  0
 26 29  2  0  0  0  0
 27 26  1  0  0  0  0
 28 24  2  0  0  0  0
 29 23  1  0  0  0  0
 30 25  1  0  0  0  0
 31 30  2  0  0  0  0
 32 30  1  0  0  0  0
 33  2  1  0  0  0  0
 34 33  1  0  0  0  0
 35 34  1  0  0  0  0
 36 35  1  0  0  0  0
 37 36  1  0  0  0  0
 39 40  1  0  0  0  0
 39 38  2  0  0  0  0
 40 37  1  0  0  0  0
 42 41  1  1  0  0  0
 42 39  1  0  0  0  0
 43 52  1  0  0  0  0
 43 47  1  0  0  0  0
 44 46  1  6  0  0  0
 44 52  1  0  0  0  0
 48 43  1  0  0  0  0
 49 53  1  6  0  0  0
 49 44  1  0  0  0  0
 50 42  1  1  0  0  0
 50 43  1  0  0  0  0
 50 49  1  0  0  0  0
 51 45  1  0  0  0  0
 52 51  1  0  0  0  0
 52 45  1  0  0  0  0
 53 55  1  0  0  0  0
 53 54  1  1  0  0  0
 55 54  1  0  0  0  0
M  END
>  <MODEL>
4

>  <REMARK>
 VINA RESULT:      -3.8      3.402      6.455
  Name = 
  14 active torsions:
  status: ('A' for Active; 'I' for Inactive)
    1  A    between atoms: C_2  and  C_44
    2  A    between atoms: C_8  and  N_22
    3  A    between atoms: C_8  and  C_35
    4  A    between atoms: C_10  and  C_32
    5  A    between atoms: C_11  and  C_38
    6  A    between atoms: C_20  and  C_50
    7  A    between atoms: C_26  and  C_45
    8  A    between atoms: C_27  and  C_54
    9  A    between atoms: C_33  and  N_36
   10  A    between atoms: C_33  and  C_52
   11  A    between atoms: C_35  and  C_43
   12  A    between atoms: C_42  and  C_50
   13  A    between atoms: C_43  and  C_51
   14  A    between atoms: C_51  and  C_54
                            x       y       z     vdW  Elec       q    Type
                         _______ _______ _______ _____ _____    ______ ____

>  <TORSDO>
F 14

$$$$
