=
 OpenBabel11052422203D

 25 28  0  0  1  0  0  0  0  0999 V2000
  161.3230  209.5900  153.7230 C   0  0  1  0  0  3  0  0  0  0  0  0
  161.7080  208.8420  152.4340 C   0  0  2  0  0  3  0  0  0  0  0  0
  160.7570  207.2640  154.7290 C   0  0  0  0  0  2  0  0  0  0  0  0
  160.0190  210.3200  153.7490 C   0  0  0  0  0  0  0  0  0  0  0  0
  162.2360  209.0060  149.9990 C   0  0  1  0  0  3  0  0  0  0  0  0
  157.6920  211.6830  154.4170 C   0  0  0  0  0  3  0  0  0  0  0  0
  161.3310  206.6580  153.4590 C   0  0  0  0  0  2  0  0  0  0  0  0
  159.4690  210.1780  154.9940 C   0  0  0  0  0  0  0  0  0  0  0  0
  158.3010  210.8430  155.3640 C   0  0  0  0  0  3  0  0  0  0  0  0
  161.2520  206.8570  151.0070 N   0  0  0  0  0  0  0  0  0  0  0  0
  160.7100  205.5220  150.7890 C   0  0  0  0  0  1  0  0  0  0  0  0
  161.5950  209.7050  151.1910 C   0  0  0  0  0  2  0  0  0  0  0  0
  158.2670  211.8530  153.1420 C   0  0  0  0  0  3  0  0  0  0  0  0
  161.2350  208.6990  155.0030 C   0  0  2  0  0  3  0  0  0  0  0  0
  160.2140  209.3220  155.7840 O   0  0  0  0  0  0  0  0  0  0  0  0
  161.8200  207.5600  149.8830 C   0  0  0  0  0  0  0  0  0  0  0  0
  159.4520  211.1800  152.8030 C   0  0  0  0  0  3  0  0  0  0  0  0
  162.0400  206.9430  148.8040 O   0  0  0  0  0  0  0  0  0  0  0  0
  160.9440  207.5320  152.2760 C   0  0  2  0  0  3  0  0  0  0  0  0
  161.9960  209.7930  148.7070 C   0  0  0  0  0  2  0  0  0  0  0  0
  162.0480  211.3030  148.9140 C   0  0  0  0  0  2  0  0  0  0  0  0
  161.0290  212.1470  147.6670 S   0  0  0  0  0  0  0  0  0  0  0  0
  162.4050  213.1370  147.1060 C   0  0  0  0  0  0  0  0  0  0  0  0
  162.6860  213.2270  145.7500 O   0  0  0  0  0  0  0  0  0  0  0  0
  163.1230  213.7460  147.9400 O   0  0  0  0  0  1  0  0  0  0  0  0
  1  4  1  6  0  0  0
  1 14  1  0  0  0  0
  2 12  1  6  0  0  0
  2  1  1  0  0  0  0
  4  8  1  0  0  0  0
  5 20  1  6  0  0  0
  5 12  1  0  0  0  0
  6  9  1  0  0  0  0
  7  3  1  0  0  0  0
  8  9  2  0  0  0  0
  8 15  1  0  0  0  0
 10 19  1  0  0  0  0
 11 10  1  0  0  0  0
 13  6  2  0  0  0  0
 14  3  1  6  0  0  0
 14 15  1  0  0  0  0
 16  5  1  0  0  0  0
 16 10  1  0  0  0  0
 17 13  1  0  0  0  0
 17  4  2  0  0  0  0
 18 16  2  0  0  0  0
 19  2  1  0  0  0  0
 19  7  1  1  0  0  0
 20 21  1  0  0  0  0
 22 21  1  0  0  0  0
 23 22  1  0  0  0  0
 23 25  1  0  0  0  0
 24 23  2  0  0  0  0
M  END
>  <MODEL>
1

>  <REMARK>
 VINA RESULT:      -6.9      0.000      0.000
  Name = 
  4 active torsions:
  status: ('A' for Active; 'I' for Inactive)
    1  A    between atoms: C_2  and  S_21
    2  A    between atoms: C_6  and  C_15
    3  A    between atoms: C_15  and  C_25
    4  A    between atoms: S_21  and  C_25
                            x       y       z     vdW  Elec       q    Type
                         _______ _______ _______ _____ _____    ______ ____

>  <TORSDO>
F 4

$$$$
=
 OpenBabel11052422203D

 25 28  0  0  1  0  0  0  0  0999 V2000
  161.4650  209.6350  153.7670 C   0  0  1  0  0  3  0  0  0  0  0  0
  161.7090  208.4510  152.8140 C   0  0  2  0  0  3  0  0  0  0  0  0
  161.0500  207.8670  155.6230 C   0  0  0  0  0  2  0  0  0  0  0  0
  160.1620  210.3620  153.6640 C   0  0  0  0  0  0  0  0  0  0  0  0
  161.9500  207.6830  150.4510 C   0  0  1  0  0  3  0  0  0  0  0  0
  157.9090  211.9450  154.0330 C   0  0  0  0  0  3  0  0  0  0  0  0
  161.4820  206.8150  154.6130 C   0  0  0  0  0  2  0  0  0  0  0  0
  159.7620  210.7080  154.9270 C   0  0  0  0  0  0  0  0  0  0  0  0
  158.6350  211.4980  155.1500 C   0  0  0  0  0  3  0  0  0  0  0  0
  161.1190  206.0930  152.2890 N   0  0  0  0  0  0  0  0  0  0  0  0
  160.5740  204.7900  152.6460 C   0  0  0  0  0  1  0  0  0  0  0  0
  161.4410  208.7940  151.3600 C   0  0  0  0  0  2  0  0  0  0  0  0
  158.3310  211.6120  152.7300 C   0  0  0  0  0  3  0  0  0  0  0  0
  161.5360  209.2870  155.2880 C   0  0  2  0  0  3  0  0  0  0  0  0
  160.6040  210.1840  155.8890 O   0  0  0  0  0  0  0  0  0  0  0  0
  161.5440  206.3100  150.9280 C   0  0  0  0  0  0  0  0  0  0  0  0
  159.4780  210.8260  152.5360 C   0  0  0  0  0  3  0  0  0  0  0  0
  161.6470  205.3310  150.1390 O   0  0  0  0  0  0  0  0  0  0  0  0
  160.9500  207.1990  153.2410 C   0  0  2  0  0  3  0  0  0  0  0  0
  161.5530  207.9410  148.9940 C   0  0  0  0  0  2  0  0  0  0  0  0
  162.3500  207.0980  148.0040 C   0  0  0  0  0  2  0  0  0  0  0  0
  161.2400  206.3500  146.7740 S   0  0  0  0  0  0  0  0  0  0  0  0
  162.2480  204.8820  146.6490 C   0  0  0  0  0  0  0  0  0  0  0  0
  161.8920  203.7350  147.3470 O   0  0  0  0  0  1  0  0  0  0  0  0
  163.2840  204.8880  145.9350 O   0  0  0  0  0  0  0  0  0  0  0  0
  1  4  1  6  0  0  0
  1 14  1  0  0  0  0
  2 12  1  6  0  0  0
  2 19  1  0  0  0  0
  2  1  1  0  0  0  0
  4  8  1  0  0  0  0
  5 20  1  6  0  0  0
  5 16  1  0  0  0  0
  5 12  1  0  0  0  0
  6  9  1  0  0  0  0
  7  3  1  0  0  0  0
  8  9  2  0  0  0  0
  8 15  1  0  0  0  0
 10 11  1  0  0  0  0
 10 19  1  0  0  0  0
 13  6  2  0  0  0  0
 14  3  1  6  0  0  0
 14 15  1  0  0  0  0
 16 10  1  0  0  0  0
 17 13  1  0  0  0  0
 17  4  2  0  0  0  0
 18 16  2  0  0  0  0
 19  7  1  1  0  0  0
 21 20  1  0  0  0  0
 22 21  1  0  0  0  0
 23 22  1  0  0  0  0
 23 24  1  0  0  0  0
 25 23  2  0  0  0  0
M  END
>  <MODEL>
2

>  <REMARK>
 VINA RESULT:      -6.4      3.136      3.602
  Name = 
  4 active torsions:
  status: ('A' for Active; 'I' for Inactive)
    1  A    between atoms: C_2  and  S_21
    2  A    between atoms: C_6  and  C_15
    3  A    between atoms: C_15  and  C_25
    4  A    between atoms: S_21  and  C_25
                            x       y       z     vdW  Elec       q    Type
                         _______ _______ _______ _____ _____    ______ ____

>  <TORSDO>
F 4

$$$$
=
 OpenBabel11052422203D

 25 28  0  0  1  0  0  0  0  0999 V2000
  159.8270  210.2720  153.8470 C   0  0  1  0  0  3  0  0  0  0  0  0
  160.3390  209.6580  152.5310 C   0  0  2  0  0  3  0  0  0  0  0  0
  159.8220  212.5550  152.6090 C   0  0  0  0  0  2  0  0  0  0  0  0
  160.8070  210.4670  154.9590 C   0  0  0  0  0  0  0  0  0  0  0  0
  161.3650  207.6800  151.4060 C   0  0  1  0  0  3  0  0  0  0  0  0
  162.1790  211.2000  157.2610 C   0  0  0  0  0  3  0  0  0  0  0  0
  160.1630  211.7850  151.3440 C   0  0  0  0  0  2  0  0  0  0  0  0
  160.5090  211.6420  155.5950 C   0  0  0  0  0  0  0  0  0  0  0  0
  161.1790  212.0440  156.7500 C   0  0  0  0  0  3  0  0  0  0  0  0
  161.6820  210.0530  150.4760 N   0  0  0  0  0  0  0  0  0  0  0  0
  162.3290  210.9280  149.5060 C   0  0  0  0  0  1  0  0  0  0  0  0
  161.1190  208.3740  152.7390 C   0  0  0  0  0  2  0  0  0  0  0  0
  162.4730  209.9780  156.6240 C   0  0  0  0  0  3  0  0  0  0  0  0
  159.1870  211.6900  153.7100 C   0  0  2  0  0  3  0  0  0  0  0  0
  159.4960  212.3260  154.9510 O   0  0  0  0  0  0  0  0  0  0  0  0
  161.8570  208.6290  150.3410 C   0  0  0  0  0  0  0  0  0  0  0  0
  161.7720  209.5930  155.4690 C   0  0  0  0  0  3  0  0  0  0  0  0
  162.3660  208.1570  149.2870 O   0  0  0  0  0  0  0  0  0  0  0  0
  161.1250  210.6600  151.6940 C   0  0  2  0  0  3  0  0  0  0  0  0
  162.2810  206.4640  151.5800 C   0  0  0  0  0  2  0  0  0  0  0  0
  161.5270  205.1410  151.5150 C   0  0  0  0  0  2  0  0  0  0  0  0
  160.8260  204.8940  149.8560 S   0  0  0  0  0  0  0  0  0  0  0  0
  160.8010  203.1190  150.0510 C   0  0  0  0  0  0  0  0  0  0  0  0
  160.5010  202.3070  148.9660 O   0  0  0  0  0  0  0  0  0  0  0  0
  161.0480  202.6050  151.1730 O   0  0  0  0  0  1  0  0  0  0  0  0
  1  4  1  1  0  0  0
  2 12  1  1  0  0  0
  2  1  1  0  0  0  0
  4 17  2  0  0  0  0
  4  8  1  0  0  0  0
  5 20  1  1  0  0  0
  5 12  1  0  0  0  0
  7  3  1  0  0  0  0
  8  9  2  0  0  0  0
  9  6  1  0  0  0  0
 10 19  1  0  0  0  0
 11 10  1  0  0  0  0
 13  6  2  0  0  0  0
 14  3  1  6  0  0  0
 14  1  1  0  0  0  0
 14 15  1  0  0  0  0
 15  8  1  0  0  0  0
 16 10  1  0  0  0  0
 16  5  1  0  0  0  0
 17 13  1  0  0  0  0
 18 16  2  0  0  0  0
 19  7  1  6  0  0  0
 19  2  1  0  0  0  0
 21 20  1  0  0  0  0
 22 23  1  0  0  0  0
 22 21  1  0  0  0  0
 23 25  1  0  0  0  0
 24 23  2  0  0  0  0
M  END
>  <MODEL>
3

>  <REMARK>
 VINA RESULT:      -6.1      2.792      5.525
  Name = 
  4 active torsions:
  status: ('A' for Active; 'I' for Inactive)
    1  A    between atoms: C_2  and  S_21
    2  A    between atoms: C_6  and  C_15
    3  A    between atoms: C_15  and  C_25
    4  A    between atoms: S_21  and  C_25
                            x       y       z     vdW  Elec       q    Type
                         _______ _______ _______ _____ _____    ______ ____

>  <TORSDO>
F 4

$$$$
=
 OpenBabel11052422203D

 25 28  0  0  1  0  0  0  0  0999 V2000
  161.9820  208.3740  153.1150 C   0  0  1  0  0  3  0  0  0  0  0  0
  162.0890  207.9870  151.6280 C   0  0  2  0  0  3  0  0  0  0  0  0
  161.2030  205.9330  153.5420 C   0  0  0  0  0  2  0  0  0  0  0  0
  160.8150  209.2040  153.5430 C   0  0  0  0  0  0  0  0  0  0  0  0
  162.3310  208.7810  149.2740 C   0  0  1  0  0  3  0  0  0  0  0  0
  158.8180  210.5650  154.9130 C   0  0  0  0  0  3  0  0  0  0  0  0
  161.5190  205.6560  152.0810 C   0  0  0  0  0  2  0  0  0  0  0  0
  160.4080  208.7730  154.7760 C   0  0  0  0  0  0  0  0  0  0  0  0
  159.4060  209.4280  155.4920 C   0  0  0  0  0  3  0  0  0  0  0  0
  161.1690  206.5550  149.8160 N   0  0  0  0  0  0  0  0  0  0  0  0
  160.4110  205.4050  149.3400 C   0  0  0  0  0  1  0  0  0  0  0  0
  161.9540  209.1760  150.6950 C   0  0  0  0  0  2  0  0  0  0  0  0
  159.2500  211.0280  153.6540 C   0  0  0  0  0  3  0  0  0  0  0  0
  161.9200  207.1700  154.1090 C   0  0  2  0  0  3  0  0  0  0  0  0
  161.1070  207.6510  155.1790 O   0  0  0  0  0  0  0  0  0  0  0  0
  161.6930  207.4820  148.8440 C   0  0  0  0  0  0  0  0  0  0  0  0
  160.2710  210.3540  152.9630 C   0  0  0  0  0  3  0  0  0  0  0  0
  161.6840  207.1790  147.6190 O   0  0  0  0  0  0  0  0  0  0  0  0
  161.1240  206.8690  151.2510 C   0  0  2  0  0  3  0  0  0  0  0  0
  162.0550  209.9250  148.2940 C   0  0  0  0  0  2  0  0  0  0  0  0
  162.0230  211.2900  148.9710 C   0  0  0  0  0  2  0  0  0  0  0  0
  162.5020  212.5910  147.7940 S   0  0  0  0  0  0  0  0  0  0  0  0
  160.8520  213.2740  147.7650 C   0  0  0  0  0  0  0  0  0  0  0  0
  160.1630  213.3690  146.5640 O   0  0  0  0  0  0  0  0  0  0  0  0
  160.3180  213.6750  148.8310 O   0  0  0  0  0  1  0  0  0  0  0  0
  1  4  1  6  0  0  0
  1 14  1  0  0  0  0
  2 12  1  6  0  0  0
  2  1  1  0  0  0  0
  4  8  1  0  0  0  0
  5 20  1  6  0  0  0
  5 12  1  0  0  0  0
  6  9  1  0  0  0  0
  7  3  1  0  0  0  0
  8 15  1  0  0  0  0
  8  9  2  0  0  0  0
 10 19  1  0  0  0  0
 11 10  1  0  0  0  0
 13  6  2  0  0  0  0
 14  3  1  6  0  0  0
 14 15  1  0  0  0  0
 16  5  1  0  0  0  0
 16 10  1  0  0  0  0
 17  4  2  0  0  0  0
 17 13  1  0  0  0  0
 18 16  2  0  0  0  0
 19  2  1  0  0  0  0
 19  7  1  1  0  0  0
 20 21  1  0  0  0  0
 22 21  1  0  0  0  0
 23 22  1  0  0  0  0
 23 25  1  0  0  0  0
 24 23  2  0  0  0  0
M  END
>  <MODEL>
4

>  <REMARK>
 VINA RESULT:      -5.8      1.353      1.577
  Name = 
  4 active torsions:
  status: ('A' for Active; 'I' for Inactive)
    1  A    between atoms: C_2  and  S_21
    2  A    between atoms: C_6  and  C_15
    3  A    between atoms: C_15  and  C_25
    4  A    between atoms: S_21  and  C_25
                            x       y       z     vdW  Elec       q    Type
                         _______ _______ _______ _____ _____    ______ ____

>  <TORSDO>
F 4

$$$$
=
 OpenBabel11052422203D

 25 28  0  0  1  0  0  0  0  0999 V2000
  160.4470  205.2060  148.9050 C   0  0  1  0  0  3  0  0  0  0  0  0
  160.7250  206.1810  150.0640 C   0  0  2  0  0  3  0  0  0  0  0  0
  160.9790  203.2940  150.5820 C   0  0  0  0  0  2  0  0  0  0  0  0
  161.4920  205.0560  147.8460 C   0  0  0  0  0  0  0  0  0  0  0  0
  161.1560  208.5420  150.7510 C   0  0  1  0  0  3  0  0  0  0  0  0
  163.1060  204.2650  145.7280 C   0  0  0  0  0  3  0  0  0  0  0  0
  161.0540  204.3630  151.6600 C   0  0  0  0  0  2  0  0  0  0  0  0
  161.5360  203.7420  147.4660 C   0  0  0  0  0  0  0  0  0  0  0  0
  162.3360  203.3080  146.4100 C   0  0  0  0  0  3  0  0  0  0  0  0
  162.0340  206.5690  152.1420 N   0  0  0  0  0  0  0  0  0  0  0  0
  162.8420  206.1050  153.2620 C   0  0  0  0  0  1  0  0  0  0  0  0
  161.1560  207.5570  149.5900 C   0  0  0  0  0  2  0  0  0  0  0  0
  163.0460  205.6230  146.0990 C   0  0  0  0  0  3  0  0  0  0  0  0
  160.1900  203.7260  149.3340 C   0  0  2  0  0  3  0  0  0  0  0  0
  160.7070  202.9590  148.2460 O   0  0  0  0  0  0  0  0  0  0  0  0
  161.8300  207.9870  151.9830 C   0  0  0  0  0  0  0  0  0  0  0  0
  162.2200  206.0320  147.1590 C   0  0  0  0  0  3  0  0  0  0  0  0
  162.1530  208.7750  152.9130 O   0  0  0  0  0  0  0  0  0  0  0  0
  161.7070  205.6080  151.0790 C   0  0  2  0  0  3  0  0  0  0  0  0
  161.7330  209.8950  150.3240 C   0  0  0  0  0  2  0  0  0  0  0  0
  161.9200  210.0090  148.8150 C   0  0  0  0  0  2  0  0  0  0  0  0
  162.6050  211.6380  148.3850 S   0  0  0  0  0  0  0  0  0  0  0  0
  160.9910  212.2940  147.9930 C   0  0  0  0  0  0  0  0  0  0  0  0
  160.3440  213.1280  148.8960 O   0  0  0  0  0  1  0  0  0  0  0  0
  160.4380  211.9960  146.9030 O   0  0  0  0  0  0  0  0  0  0  0  0
  1  4  1  6  0  0  0
  1 14  1  0  0  0  0
  1  2  1  0  0  0  0
  2 12  1  6  0  0  0
  2 19  1  0  0  0  0
  3  7  1  0  0  0  0
  5 20  1  6  0  0  0
  5 16  1  0  0  0  0
  6 13  2  0  0  0  0
  6  9  1  0  0  0  0
  8  4  1  0  0  0  0
  8 15  1  0  0  0  0
  9  8  2  0  0  0  0
 10 11  1  0  0  0  0
 12  5  1  0  0  0  0
 13 17  1  0  0  0  0
 14  3  1  1  0  0  0
 15 14  1  0  0  0  0
 16 10  1  0  0  0  0
 16 18  2  0  0  0  0
 17  4  2  0  0  0  0
 19  7  1  1  0  0  0
 19 10  1  0  0  0  0
 21 20  1  0  0  0  0
 22 21  1  0  0  0  0
 23 22  1  0  0  0  0
 23 24  1  0  0  0  0
 25 23  2  0  0  0  0
M  END
>  <MODEL>
5

>  <REMARK>
 VINA RESULT:      -5.6      2.999      6.331
  Name = 
  4 active torsions:
  status: ('A' for Active; 'I' for Inactive)
    1  A    between atoms: C_2  and  S_21
    2  A    between atoms: C_6  and  C_15
    3  A    between atoms: C_15  and  C_25
    4  A    between atoms: S_21  and  C_25
                            x       y       z     vdW  Elec       q    Type
                         _______ _______ _______ _____ _____    ______ ____

>  <TORSDO>
F 4

$$$$
=
 OpenBabel11052422203D

 25 28  0  0  1  0  0  0  0  0999 V2000
  160.0810  208.2150  154.0170 C   0  0  1  0  0  3  0  0  0  0  0  0
  159.9980  209.5600  154.7620 C   0  0  2  0  0  3  0  0  0  0  0  0
  161.5820  207.3930  155.9720 C   0  0  0  0  0  2  0  0  0  0  0  0
  160.9720  208.1290  152.8200 C   0  0  0  0  0  0  0  0  0  0  0  0
  159.3770  211.9750  154.6520 C   0  0  1  0  0  3  0  0  0  0  0  0
  162.5550  207.3500  150.6740 C   0  0  0  0  0  3  0  0  0  0  0  0
  161.2680  208.7090  156.6660 C   0  0  0  0  0  2  0  0  0  0  0  0
  161.5690  206.8970  152.8140 C   0  0  0  0  0  0  0  0  0  0  0  0
  162.3730  206.4730  151.7570 C   0  0  0  0  0  3  0  0  0  0  0  0
  161.1840  211.1380  156.2740 N   0  0  0  0  0  0  0  0  0  0  0  0
  162.2190  211.4580  157.2490 C   0  0  0  0  0  1  0  0  0  0  0  0
  159.7100  210.7310  153.8400 C   0  0  0  0  0  2  0  0  0  0  0  0
  161.9230  208.6090  150.6620 C   0  0  0  0  0  3  0  0  0  0  0  0
  160.5660  207.0080  154.8840 C   0  0  2  0  0  3  0  0  0  0  0  0
  161.2650  206.1790  153.9550 O   0  0  0  0  0  0  0  0  0  0  0  0
  160.3450  212.2040  155.7880 C   0  0  0  0  0  0  0  0  0  0  0  0
  161.1080  209.0030  151.7370 C   0  0  0  0  0  3  0  0  0  0  0  0
  160.3640  213.3290  156.3600 O   0  0  0  0  0  0  0  0  0  0  0  0
  161.2270  209.8190  155.6270 C   0  0  2  0  0  3  0  0  0  0  0  0
  159.2340  213.2010  153.7450 C   0  0  0  0  0  2  0  0  0  0  0  0
  158.2100  212.9990  152.6330 C   0  0  0  0  0  2  0  0  0  0  0  0
  158.9190  213.4760  151.0280 S   0  0  0  0  0  0  0  0  0  0  0  0
  157.3080  213.5830  150.2660 C   0  0  0  0  0  0  0  0  0  0  0  0
  157.0720  212.9520  149.0510 O   0  0  0  0  0  0  0  0  0  0  0  0
  156.3890  214.2350  150.8250 O   0  0  0  0  0  1  0  0  0  0  0  0
  1  4  1  6  0  0  0
  1  2  1  0  0  0  0
  1 14  1  0  0  0  0
  2 12  1  6  0  0  0
  2 19  1  0  0  0  0
  3  7  1  0  0  0  0
  5 20  1  6  0  0  0
  5 16  1  0  0  0  0
  6  9  1  0  0  0  0
  8  4  1  0  0  0  0
  8 15  1  0  0  0  0
  9  8  2  0  0  0  0
 10 11  1  0  0  0  0
 12  5  1  0  0  0  0
 13  6  2  0  0  0  0
 13 17  1  0  0  0  0
 14  3  1  1  0  0  0
 15 14  1  0  0  0  0
 16 10  1  0  0  0  0
 16 18  2  0  0  0  0
 17  4  2  0  0  0  0
 19 10  1  0  0  0  0
 19  7  1  1  0  0  0
 21 20  1  0  0  0  0
 22 21  1  0  0  0  0
 23 25  1  0  0  0  0
 23 22  1  0  0  0  0
 24 23  2  0  0  0  0
M  END
>  <MODEL>
6

>  <REMARK>
 VINA RESULT:      -5.4      3.222      5.638
  Name = 
  4 active torsions:
  status: ('A' for Active; 'I' for Inactive)
    1  A    between atoms: C_2  and  S_21
    2  A    between atoms: C_6  and  C_15
    3  A    between atoms: C_15  and  C_25
    4  A    between atoms: S_21  and  C_25
                            x       y       z     vdW  Elec       q    Type
                         _______ _______ _______ _____ _____    ______ ____

>  <TORSDO>
F 4

$$$$
=
 OpenBabel11052422203D

 25 28  0  0  1  0  0  0  0  0999 V2000
  162.2940  209.9060  150.9680 C   0  0  1  0  0  3  0  0  0  0  0  0
  161.6360  210.7220  152.0960 C   0  0  2  0  0  3  0  0  0  0  0  0
  161.2070  211.5900  149.3160 C   0  0  0  0  0  2  0  0  0  0  0  0
  161.6800  208.5940  150.6000 C   0  0  0  0  0  0  0  0  0  0  0  0
  161.0040  210.8230  154.5090 C   0  0  1  0  0  3  0  0  0  0  0  0
  160.8950  206.2130  149.4030 C   0  0  0  0  0  3  0  0  0  0  0  0
  160.7680  212.3870  150.5340 C   0  0  0  0  0  2  0  0  0  0  0  0
  161.7650  208.4430  149.2420 C   0  0  0  0  0  0  0  0  0  0  0  0
  161.3770  207.2650  148.6070 C   0  0  0  0  0  3  0  0  0  0  0  0
  159.6900  212.1340  152.7330 N   0  0  0  0  0  0  0  0  0  0  0  0
  158.5430  212.9710  152.4070 C   0  0  0  0  0  1  0  0  0  0  0  0
  161.4020  209.9100  153.3560 C   0  0  0  0  0  2  0  0  0  0  0  0
  160.8280  206.3530  150.8040 C   0  0  0  0  0  3  0  0  0  0  0  0
  162.3810  210.6350  149.5890 C   0  0  2  0  0  3  0  0  0  0  0  0
  162.2690  209.5780  148.6350 O   0  0  0  0  0  0  0  0  0  0  0  0
  159.9440  211.8230  154.1170 C   0  0  0  0  0  0  0  0  0  0  0  0
  161.2380  207.5490  151.4170 C   0  0  0  0  0  3  0  0  0  0  0  0
  159.3220  212.4430  155.0230 O   0  0  0  0  0  0  0  0  0  0  0  0
  160.3610  211.4210  151.6360 C   0  0  2  0  0  3  0  0  0  0  0  0
  160.6160  210.0070  155.7460 C   0  0  0  0  0  2  0  0  0  0  0  0
  161.7510  209.1250  156.2550 C   0  0  0  0  0  2  0  0  0  0  0  0
  161.0910  207.7620  157.2600 S   0  0  0  0  0  0  0  0  0  0  0  0
  160.2040  207.0710  155.8720 C   0  0  0  0  0  0  0  0  0  0  0  0
  160.8960  206.6710  154.7370 O   0  0  0  0  0  0  0  0  0  0  0  0
  158.9520  206.9530  155.9210 O   0  0  0  0  0  1  0  0  0  0  0  0
  1  4  1  6  0  0  0
  1  2  1  0  0  0  0
  2 12  1  1  0  0  0
  3  7  1  0  0  0  0
  4 17  1  0  0  0  0
  5 20  1  1  0  0  0
  6 13  1  0  0  0  0
  8  4  2  0  0  0  0
  9  8  1  0  0  0  0
  9  6  2  0  0  0  0
 10 16  1  0  0  0  0
 11 10  1  0  0  0  0
 12  5  1  0  0  0  0
 13 17  2  0  0  0  0
 14  3  1  6  0  0  0
 14  1  1  0  0  0  0
 15  8  1  0  0  0  0
 15 14  1  0  0  0  0
 16  5  1  0  0  0  0
 16 18  2  0  0  0  0
 19  7  1  6  0  0  0
 19  2  1  0  0  0  0
 19 10  1  0  0  0  0
 20 21  1  0  0  0  0
 21 22  1  0  0  0  0
 23 25  1  0  0  0  0
 23 22  1  0  0  0  0
 24 23  2  0  0  0  0
M  END
>  <MODEL>
7

>  <REMARK>
 VINA RESULT:      -5.4      3.123      7.197
  Name = 
  4 active torsions:
  status: ('A' for Active; 'I' for Inactive)
    1  A    between atoms: C_2  and  S_21
    2  A    between atoms: C_6  and  C_15
    3  A    between atoms: C_15  and  C_25
    4  A    between atoms: S_21  and  C_25
                            x       y       z     vdW  Elec       q    Type
                         _______ _______ _______ _____ _____    ______ ____

>  <TORSDO>
F 4

$$$$
=
 OpenBabel11052422203D

 25 28  0  0  1  0  0  0  0  0999 V2000
  162.0770  207.6010  152.7150 C   0  0  1  0  0  3  0  0  0  0  0  0
  161.9200  206.6260  151.5330 C   0  0  2  0  0  3  0  0  0  0  0  0
  161.2070  205.6760  154.2270 C   0  0  0  0  0  2  0  0  0  0  0  0
  161.0530  208.6770  152.8780 C   0  0  0  0  0  0  0  0  0  0  0  0
  161.8400  206.3410  149.0540 C   0  0  1  0  0  3  0  0  0  0  0  0
  159.3990  210.7300  153.7570 C   0  0  0  0  0  3  0  0  0  0  0  0
  161.2670  204.7840  152.9970 C   0  0  0  0  0  2  0  0  0  0  0  0
  160.8180  208.8490  154.2160 C   0  0  0  0  0  0  0  0  0  0  0  0
  159.9910  209.8650  154.6930 C   0  0  0  0  0  3  0  0  0  0  0  0
  160.6260  204.7080  150.6220 N   0  0  0  0  0  0  0  0  0  0  0  0
  159.7240  203.5730  150.7710 C   0  0  0  0  0  1  0  0  0  0  0  0
  161.7210  207.3320  150.2040 C   0  0  0  0  0  2  0  0  0  0  0  0
  159.6570  210.5730  152.3800 C   0  0  0  0  0  3  0  0  0  0  0  0
  162.0890  206.9320  154.1260 C   0  0  2  0  0  3  0  0  0  0  0  0
  161.4920  207.9120  154.9750 O   0  0  0  0  0  0  0  0  0  0  0  0
  161.0530  205.0760  149.2950 C   0  0  0  0  0  0  0  0  0  0  0  0
  160.5060  209.5480  151.9300 C   0  0  0  0  0  3  0  0  0  0  0  0
  160.8280  204.3000  148.3260 O   0  0  0  0  0  0  0  0  0  0  0  0
  160.8320  205.5880  151.7810 C   0  0  2  0  0  3  0  0  0  0  0  0
  161.4920  207.0060  147.7190 C   0  0  0  0  0  2  0  0  0  0  0  0
  162.1770  206.3410  146.5300 C   0  0  0  0  0  2  0  0  0  0  0  0
  160.9440  205.8290  145.2950 S   0  0  0  0  0  0  0  0  0  0  0  0
  161.6080  204.1730  145.2130 C   0  0  0  0  0  0  0  0  0  0  0  0
  162.9810  203.9730  145.2620 O   0  0  0  0  0  1  0  0  0  0  0  0
  160.8310  203.1880  145.1040 O   0  0  0  0  0  0  0  0  0  0  0  0
  1  4  1  1  0  0  0
  1 14  1  0  0  0  0
  2 12  1  6  0  0  0
  2 19  1  0  0  0  0
  2  1  1  0  0  0  0
  4  8  1  0  0  0  0
  5 20  1  6  0  0  0
  5 16  1  0  0  0  0
  5 12  1  0  0  0  0
  6  9  1  0  0  0  0
  7  3  1  0  0  0  0
  8  9  2  0  0  0  0
  8 15  1  0  0  0  0
 10 11  1  0  0  0  0
 10 19  1  0  0  0  0
 13  6  2  0  0  0  0
 14  3  1  6  0  0  0
 14 15  1  0  0  0  0
 16 10  1  0  0  0  0
 17 13  1  0  0  0  0
 17  4  2  0  0  0  0
 18 16  2  0  0  0  0
 19  7  1  1  0  0  0
 21 20  1  0  0  0  0
 22 21  1  0  0  0  0
 23 24  1  0  0  0  0
 23 22  1  0  0  0  0
 25 23  2  0  0  0  0
M  END
>  <MODEL>
8

>  <REMARK>
 VINA RESULT:      -5.1      3.597      4.370
  Name = 
  4 active torsions:
  status: ('A' for Active; 'I' for Inactive)
    1  A    between atoms: C_2  and  S_21
    2  A    between atoms: C_6  and  C_15
    3  A    between atoms: C_15  and  C_25
    4  A    between atoms: S_21  and  C_25
                            x       y       z     vdW  Elec       q    Type
                         _______ _______ _______ _____ _____    ______ ____

>  <TORSDO>
F 4

$$$$
=
 OpenBabel11052422203D

 25 28  0  0  1  0  0  0  0  0999 V2000
  160.0990  208.2010  154.1220 C   0  0  1  0  0  3  0  0  0  0  0  0
  159.9800  209.5280  154.8930 C   0  0  2  0  0  3  0  0  0  0  0  0
  161.7770  207.4550  155.9590 C   0  0  0  0  0  2  0  0  0  0  0  0
  160.9110  208.1890  152.8670 C   0  0  0  0  0  0  0  0  0  0  0  0
  159.1970  211.8990  154.8660 C   0  0  1  0  0  3  0  0  0  0  0  0
  162.3940  207.5430  150.6080 C   0  0  0  0  0  3  0  0  0  0  0  0
  161.4260  208.7380  156.6950 C   0  0  0  0  0  2  0  0  0  0  0  0
  161.5850  206.9990  152.8010 C   0  0  0  0  0  0  0  0  0  0  0  0
  162.3420  206.6430  151.6860 C   0  0  0  0  0  3  0  0  0  0  0  0
  161.1600  211.1610  156.3510 N   0  0  0  0  0  0  0  0  0  0  0  0
  162.2340  211.5360  157.2600 C   0  0  0  0  0  1  0  0  0  0  0  0
  159.5560  210.6890  154.0130 C   0  0  0  0  0  2  0  0  0  0  0  0
  161.6830  208.7580  150.6600 C   0  0  0  0  0  3  0  0  0  0  0  0
  160.7180  207.0180  154.9340 C   0  0  2  0  0  3  0  0  0  0  0  0
  161.4060  206.2480  153.9470 O   0  0  0  0  0  0  0  0  0  0  0  0
  160.2230  212.1760  155.9390 C   0  0  0  0  0  0  0  0  0  0  0  0
  160.9180  209.0840  151.7930 C   0  0  0  0  0  3  0  0  0  0  0  0
  160.2080  213.2920  156.5280 O   0  0  0  0  0  0  0  0  0  0  0  0
  161.2440  209.8560  155.6790 C   0  0  2  0  0  3  0  0  0  0  0  0
  158.9150  213.1240  153.9920 C   0  0  0  0  0  2  0  0  0  0  0  0
  157.4900  213.1500  153.4510 C   0  0  0  0  0  2  0  0  0  0  0  0
  156.4070  212.1070  154.4730 S   0  0  0  0  0  0  0  0  0  0  0  0
  156.0150  213.4610  155.5700 C   0  0  0  0  0  0  0  0  0  0  0  0
  156.4480  213.4320  156.8880 O   0  0  0  0  0  1  0  0  0  0  0  0
  155.3430  214.4380  155.1490 O   0  0  0  0  0  0  0  0  0  0  0  0
  1  4  1  6  0  0  0
  1  2  1  0  0  0  0
  1 14  1  0  0  0  0
  2 12  1  6  0  0  0
  2 19  1  0  0  0  0
  3  7  1  0  0  0  0
  5 20  1  6  0  0  0
  5 16  1  0  0  0  0
  6 13  2  0  0  0  0
  6  9  1  0  0  0  0
  8  4  1  0  0  0  0
  8 15  1  0  0  0  0
  9  8  2  0  0  0  0
 10 11  1  0  0  0  0
 12  5  1  0  0  0  0
 13 17  1  0  0  0  0
 14  3  1  1  0  0  0
 15 14  1  0  0  0  0
 16 10  1  0  0  0  0
 16 18  2  0  0  0  0
 17  4  2  0  0  0  0
 19 10  1  0  0  0  0
 19  7  1  1  0  0  0
 21 20  1  0  0  0  0
 21 22  1  0  0  0  0
 22 23  1  0  0  0  0
 23 24  1  0  0  0  0
 25 23  2  0  0  0  0
M  END
>  <MODEL>
9

>  <REMARK>
 VINA RESULT:      -5.1      4.138      6.699
  Name = 
  4 active torsions:
  status: ('A' for Active; 'I' for Inactive)
    1  A    between atoms: C_2  and  S_21
    2  A    between atoms: C_6  and  C_15
    3  A    between atoms: C_15  and  C_25
    4  A    between atoms: S_21  and  C_25
                            x       y       z     vdW  Elec       q    Type
                         _______ _______ _______ _____ _____    ______ ____

>  <TORSDO>
F 4

$$$$
