=
 OpenBabel11062409433D

 34 39  0  0  0  0  0  0  0  0999 V2000
  160.9370  208.0140  151.6080 C   0  0  0  0  0  3  0  0  0  0  0  0
  160.7000  211.7810  151.5790 C   0  0  0  0  0  0  0  0  0  0  0  0
  160.0580  211.7100  153.9560 C   0  0  0  0  0  3  0  0  0  0  0  0
  161.2240  206.8960  153.7060 C   0  0  0  0  0  3  0  0  0  0  0  0
  160.9200  209.2810  152.2260 C   0  0  0  0  0  0  0  0  0  0  0  0
  161.1920  208.1230  154.3640 C   0  0  0  0  0  0  0  0  0  0  0  0
  161.2690  209.2740  156.4330 C   0  0  0  0  0  3  0  0  0  0  0  0
  161.3730  208.1340  155.7100 N   0  0  0  0  0  0  0  0  0  0  0  0
  161.0520  206.8240  152.3260 C   0  0  0  0  0  0  0  0  0  0  0  0
  160.7480  210.5040  154.4160 C   0  0  0  0  0  0  0  0  0  0  0  0
  160.9520  209.3340  153.6460 C   0  0  0  0  0  0  0  0  0  0  0  0
  160.9250  210.4610  155.8000 C   0  0  0  0  0  3  0  0  0  0  0  0
  160.8960  212.7730  150.6080 C   0  0  0  0  0  3  0  0  0  0  0  0
  161.5180  212.4900  149.3940 C   0  0  0  0  0  0  0  0  0  0  0  0
  161.9600  211.1990  149.1360 C   0  0  0  0  0  3  0  0  0  0  0  0
  160.0380  212.2080  152.7650 N   0  0  0  0  0  0  0  0  0  0  0  0
  161.7540  210.1990  150.0830 C   0  0  0  0  0  3  0  0  0  0  0  0
  161.1140  210.4520  151.3170 C   0  0  0  0  0  0  0  0  0  0  0  0
  161.0640  203.0600  151.7240 C   0  0  0  0  0  3  0  0  0  0  0  0
  161.0640  205.4590  150.2170 C   0  0  0  0  0  3  0  0  0  0  0  0
  161.1000  202.4290  148.0860 N   0  0  0  0  0  0  0  0  0  0  0  0
  161.1280  201.6820  146.8620 C   0  0  0  0  0  0  0  0  0  0  0  0
  161.0900  201.8370  149.4300 C   0  0  0  0  0  2  0  0  0  0  0  0
  161.1480  202.2790  145.7530 O   0  0  0  0  0  0  0  0  0  0  0  0
  161.0740  203.0370  150.3310 C   0  0  0  0  0  0  0  0  0  0  0  0
  161.1340  200.1930  146.8830 C   0  0  0  0  0  1  0  0  0  0  0  0
  161.0880  203.8500  148.2130 C   0  0  0  0  0  0  0  0  0  0  0  0
  161.0740  204.2080  149.6060 C   0  0  0  0  0  0  0  0  0  0  0  0
  161.0890  204.6570  147.2450 O   0  0  0  0  0  0  0  0  0  0  0  0
  161.0530  205.5170  151.6280 C   0  0  0  0  0  0  0  0  0  0  0  0
  161.0530  204.3080  152.3680 C   0  0  0  0  0  3  0  0  0  0  0  0
  161.7420  213.5720  148.3970 C   0  0  0  0  0  2  0  0  0  0  0  0
  162.7230  213.1410  147.4150 N   0  0  0  0  0  2  0  0  0  0  0  0
  162.1440  213.4000  146.1100 C   0  0  0  0  0  1  0  0  0  0  0  0
  1  5  2  0  0  0  0
  1  9  1  0  0  0  0
  2 16  1  0  0  0  0
  3 10  1  0  0  0  0
  4  6  1  0  0  0  0
  5 11  1  0  0  0  0
  6  8  1  0  0  0  0
  8  7  2  0  0  0  0
  9  4  2  0  0  0  0
 10 12  2  0  0  0  0
 11  6  2  0  0  0  0
 11 10  1  0  0  0  0
 12  7  1  0  0  0  0
 13  2  2  0  0  0  0
 14 13  1  0  0  0  0
 15 14  2  0  0  0  0
 15 17  1  0  0  0  0
 16  3  2  0  0  0  0
 17 18  2  0  0  0  0
 18  2  1  0  0  0  0
 18  5  1  0  0  0  0
 19 31  1  0  0  0  0
 20 30  1  0  0  0  0
 21 27  1  0  0  0  0
 21 23  1  0  0  0  0
 22 26  1  0  0  0  0
 22 21  1  0  0  0  0
 23 25  1  0  0  0  0
 24 22  2  0  0  0  0
 25 19  2  0  0  0  0
 27 28  1  0  0  0  0
 28 20  2  0  0  0  0
 28 25  1  0  0  0  0
 29 27  2  0  0  0  0
 30  9  1  0  0  0  0
 30 31  2  0  0  0  0
 32 14  1  0  0  0  0
 33 32  1  0  0  0  0
 34 33  1  0  0  0  0
M  END
>  <MODEL>
1

>  <REMARK>
 VINA RESULT:     -10.5      0.000      0.000
  Name = 
  3 active torsions:
  status: ('A' for Active; 'I' for Inactive)
    1  A    between atoms: C_3  and  N_13
    2  A    between atoms: C_3  and  C_25
    3  A    between atoms: C_18  and  C_30
                            x       y       z     vdW  Elec       q    Type
                         _______ _______ _______ _____ _____    ______ ____

>  <TORSDO>
F 3

$$$$
=
 OpenBabel11062409433D

 34 39  0  0  0  0  0  0  0  0999 V2000
  161.0830  207.1720  151.3750 C   0  0  0  0  0  3  0  0  0  0  0  0
  160.9040  210.9400  151.5060 C   0  0  0  0  0  0  0  0  0  0  0  0
  160.3360  210.7800  153.8980 C   0  0  0  0  0  3  0  0  0  0  0  0
  161.4180  205.9650  153.4170 C   0  0  0  0  0  3  0  0  0  0  0  0
  161.1050  208.4130  152.0440 C   0  0  0  0  0  0  0  0  0  0  0  0
  161.4260  207.1640  154.1240 C   0  0  0  0  0  0  0  0  0  0  0  0
  161.5870  208.2280  156.2340 C   0  0  0  0  0  3  0  0  0  0  0  0
  161.6490  207.1180  155.4630 N   0  0  0  0  0  0  0  0  0  0  0  0
  161.2020  205.9520  152.0410 C   0  0  0  0  0  0  0  0  0  0  0  0
  161.0210  209.5470  154.2860 C   0  0  0  0  0  0  0  0  0  0  0  0
  161.1830  208.4070  153.4640 C   0  0  0  0  0  0  0  0  0  0  0  0
  161.2420  209.4450  155.6620 C   0  0  0  0  0  3  0  0  0  0  0  0
  161.0850  211.9670  150.5710 C   0  0  0  0  0  3  0  0  0  0  0  0
  161.6640  211.7260  149.3270 C   0  0  0  0  0  0  0  0  0  0  0  0
  162.0780  210.4400  149.0030 C   0  0  0  0  0  3  0  0  0  0  0  0
  160.2870  211.3280  152.7290 N   0  0  0  0  0  0  0  0  0  0  0  0
  161.8860  209.4050  149.9150 C   0  0  0  0  0  3  0  0  0  0  0  0
  161.2890  209.6160  151.1780 C   0  0  0  0  0  0  0  0  0  0  0  0
  161.1180  202.2170  151.2870 C   0  0  0  0  0  3  0  0  0  0  0  0
  161.1430  204.6740  149.8790 C   0  0  0  0  0  3  0  0  0  0  0  0
  161.0700  201.7330  147.6280 N   0  0  0  0  0  0  0  0  0  0  0  0
  161.0590  201.0360  146.3740 C   0  0  0  0  0  0  0  0  0  0  0  0
  161.0730  201.0880  148.9460 C   0  0  0  0  0  2  0  0  0  0  0  0
  161.0710  201.6770  145.2890 O   0  0  0  0  0  0  0  0  0  0  0  0
  161.1020  202.2500  149.8950 C   0  0  0  0  0  0  0  0  0  0  0  0
  161.0320  199.5470  146.3340 C   0  0  0  0  0  1  0  0  0  0  0  0
  161.0930  203.1470  147.8110 C   0  0  0  0  0  0  0  0  0  0  0  0
  161.1140  203.4480  149.2180 C   0  0  0  0  0  0  0  0  0  0  0  0
  161.0940  203.9930  146.8770 O   0  0  0  0  0  0  0  0  0  0  0  0
  161.1600  204.6740  151.2910 C   0  0  0  0  0  0  0  0  0  0  0  0
  161.1480  203.4370  151.9820 C   0  0  0  0  0  3  0  0  0  0  0  0
  161.8730  212.8440  148.3680 C   0  0  0  0  0  2  0  0  0  0  0  0
  163.0870  212.6150  147.6010 N   0  0  0  0  0  2  0  0  0  0  0  0
  164.1790  213.1710  148.3780 C   0  0  0  0  0  1  0  0  0  0  0  0
  1  9  2  0  0  0  0
  1  5  1  0  0  0  0
  2 16  1  0  0  0  0
  3 10  1  0  0  0  0
  4  6  2  0  0  0  0
  5 11  2  0  0  0  0
  6  8  1  0  0  0  0
  8  7  2  0  0  0  0
  9  4  1  0  0  0  0
 10 12  2  0  0  0  0
 11  6  1  0  0  0  0
 11 10  1  0  0  0  0
 12  7  1  0  0  0  0
 13  2  2  0  0  0  0
 14 13  1  0  0  0  0
 15 14  2  0  0  0  0
 15 17  1  0  0  0  0
 16  3  2  0  0  0  0
 17 18  2  0  0  0  0
 18  2  1  0  0  0  0
 18  5  1  0  0  0  0
 19 31  1  0  0  0  0
 20 30  1  0  0  0  0
 21 27  1  0  0  0  0
 21 23  1  0  0  0  0
 22 21  1  0  0  0  0
 23 25  1  0  0  0  0
 24 22  2  0  0  0  0
 25 19  2  0  0  0  0
 26 22  1  0  0  0  0
 27 28  1  0  0  0  0
 28 20  2  0  0  0  0
 28 25  1  0  0  0  0
 29 27  2  0  0  0  0
 30 31  2  0  0  0  0
 30  9  1  0  0  0  0
 32 14  1  0  0  0  0
 33 32  1  0  0  0  0
 33 34  1  0  0  0  0
M  END
>  <MODEL>
2

>  <REMARK>
 VINA RESULT:      -8.7      0.894      1.026
  Name = 
  3 active torsions:
  status: ('A' for Active; 'I' for Inactive)
    1  A    between atoms: C_3  and  N_13
    2  A    between atoms: C_3  and  C_25
    3  A    between atoms: C_18  and  C_30
                            x       y       z     vdW  Elec       q    Type
                         _______ _______ _______ _____ _____    ______ ____

>  <TORSDO>
F 3

$$$$
