=
 OpenBabel11062407553D

 34 40  0  0  1  0  0  0  0  0999 V2000
  161.9450  208.7490  148.7820 C   0  0  0  0  0  0  0  0  0  0  0  0
  161.8970  209.7020  151.0830 C   0  0  0  0  0  0  0  0  0  0  0  0
  161.6160  207.2960  150.7120 N   0  0  0  0  0  0  0  0  0  0  0  0
  161.0540  205.9360  152.6030 C   0  0  0  0  0  0  0  0  0  0  0  0
  162.0170  211.1350  149.1500 C   0  0  0  0  0  3  0  0  0  0  0  0
  161.8640  210.8970  150.5650 N   0  0  0  0  0  0  0  0  0  0  0  0
  161.4030  208.3300  152.9870 C   0  0  0  0  0  0  0  0  0  0  0  0
  162.2610  208.5130  150.2310 C   0  0  1  0  0  3  0  0  0  0  0  0
  161.1660  208.1260  154.4640 C   0  0  2  0  0  3  0  0  0  0  0  0
  160.8640  205.7690  154.0860 C   0  0  0  0  0  2  0  0  0  0  0  0
  162.0380  210.1230  148.2740 C   0  0  0  0  0  3  0  0  0  0  0  0
  161.4350  206.1840  149.8260 C   0  0  0  0  0  0  0  0  0  0  0  0
  161.6360  207.7540  148.0010 N   0  0  0  0  0  0  0  0  0  0  0  0
  161.6460  209.5110  152.4860 N   0  0  0  0  0  0  0  0  0  0  0  0
  160.9840  204.7910  151.7330 N   0  0  0  0  0  0  0  0  0  0  0  0
  161.1530  204.8520  150.4360 C   0  0  0  0  0  0  0  0  0  0  0  0
  160.2750  206.9780  154.6760 N   0  0  0  0  0  2  0  0  0  0  0  0
  161.3680  207.1410  152.1110 C   0  0  0  0  0  0  0  0  0  0  0  0
  161.4440  206.4190  148.5060 C   0  0  0  0  0  3  0  0  0  0  0  0
  161.0750  202.3930  147.5310 C   0  0  0  0  0  0  0  0  0  0  0  0
  160.9290  201.1790  148.2070 C   0  0  0  0  0  3  0  0  0  0  0  0
  161.0620  203.5910  149.6510 C   0  0  0  0  0  0  0  0  0  0  0  0
  160.8520  201.1650  149.6010 C   0  0  0  0  0  3  0  0  0  0  0  0
  161.1450  203.5890  148.2490 C   0  0  0  0  0  3  0  0  0  0  0  0
  160.9220  202.3630  150.3180 C   0  0  0  0  0  3  0  0  0  0  0  0
  161.1760  202.4140  145.7840 Cl  0  0  0  0  0  0  0  0  0  0  0  0
  160.5520  209.3650  155.1070 C   0  0  0  0  0  2  0  0  0  0  0  0
  159.0270  211.0990  156.9870 C   0  0  0  0  0  1  0  0  0  0  0  0
  160.6780  209.2960  156.5630 N   0  0  0  0  0  0  0  0  0  0  0  0
  160.4570  210.6200  157.1750 C   0  0  1  0  0  3  0  0  0  0  0  0
  162.8520  211.0880  156.4500 C   0  0  0  0  0  2  0  0  0  0  0  0
  163.0620  209.8160  157.2610 C   0  0  0  0  0  2  0  0  0  0  0  0
  162.0140  208.7560  156.8820 C   0  0  0  0  0  2  0  0  0  0  0  0
  161.4660  211.6810  156.7100 C   0  0  0  0  0  2  0  0  0  0  0  0
  2 14  1  0  0  0  0
  3 18  1  0  0  0  0
  4 10  1  0  0  0  0
  5  6  1  0  0  0  0
  6  2  2  0  0  0  0
  7  9  1  0  0  0  0
  8  1  1  6  0  0  0
  8  3  1  0  0  0  0
  8  2  1  0  0  0  0
  9 17  1  0  0  0  0
  9 27  1  6  0  0  0
 10 17  1  0  0  0  0
 11  1  1  0  0  0  0
 11  5  2  0  0  0  0
 12 16  1  0  0  0  0
 12  3  1  0  0  0  0
 13 19  1  0  0  0  0
 13  1  2  0  0  0  0
 14  7  2  0  0  0  0
 15  4  1  0  0  0  0
 16 15  2  0  0  0  0
 18  4  2  0  0  0  0
 18  7  1  0  0  0  0
 19 12  2  0  0  0  0
 20 21  2  0  0  0  0
 20 24  1  0  0  0  0
 21 23  1  0  0  0  0
 22 25  1  0  0  0  0
 22 16  1  0  0  0  0
 23 25  2  0  0  0  0
 24 22  2  0  0  0  0
 26 20  1  0  0  0  0
 27 29  1  0  0  0  0
 29 33  1  0  0  0  0
 29 30  1  0  0  0  0
 30 28  1  6  0  0  0
 31 34  1  0  0  0  0
 31 32  1  0  0  0  0
 33 32  1  0  0  0  0
 34 30  1  0  0  0  0
M  END
>  <MODEL>
1

>  <REMARK>
 VINA RESULT:     -10.3      0.000      0.000
  Name = 
  3 active torsions:
  status: ('A' for Active; 'I' for Inactive)
    1  A    between atoms: C_3  and  N_13
    2  A    between atoms: C_3  and  C_17
    3  A    between atoms: C_12  and  C_28
                            x       y       z     vdW  Elec       q    Type
                         _______ _______ _______ _____ _____    ______ ____

>  <TORSDO>
F 3

$$$$
=
 OpenBabel11062407553D

 34 40  0  0  1  0  0  0  0  0999 V2000
  161.2030  207.9610  153.9810 C   0  0  0  0  0  0  0  0  0  0  0  0
  161.3320  209.9930  152.5470 C   0  0  0  0  0  0  0  0  0  0  0  0
  161.2430  207.7550  151.5510 N   0  0  0  0  0  0  0  0  0  0  0  0
  161.5290  207.5800  149.1790 C   0  0  0  0  0  0  0  0  0  0  0  0
  161.4950  210.1550  154.9440 C   0  0  0  0  0  3  0  0  0  0  0  0
  161.5680  210.7050  153.6120 N   0  0  0  0  0  0  0  0  0  0  0  0
  161.5490  209.8220  150.1650 C   0  0  0  0  0  0  0  0  0  0  0  0
  160.8110  208.5840  152.6720 C   0  0  1  0  0  3  0  0  0  0  0  0
  161.7080  210.4240  148.7890 C   0  0  2  0  0  3  0  0  0  0  0  0
  161.6470  208.2210  147.8230 C   0  0  0  0  0  2  0  0  0  0  0  0
  161.3420  208.8410  155.1460 C   0  0  0  0  0  3  0  0  0  0  0  0
  161.2730  206.3290  151.6870 C   0  0  0  0  0  0  0  0  0  0  0  0
  161.3750  206.6730  154.0760 N   0  0  0  0  0  0  0  0  0  0  0  0
  161.5090  210.5630  151.2390 N   0  0  0  0  0  0  0  0  0  0  0  0
  161.4430  206.1470  149.2960 N   0  0  0  0  0  0  0  0  0  0  0  0
  161.3240  205.5160  150.4360 C   0  0  0  0  0  0  0  0  0  0  0  0
  162.4000  209.4780  147.9040 N   0  0  0  0  0  2  0  0  0  0  0  0
  161.4220  208.3530  150.2660 C   0  0  0  0  0  0  0  0  0  0  0  0
  161.3400  205.8110  152.9220 C   0  0  0  0  0  3  0  0  0  0  0  0
  161.0540  201.9180  149.2210 C   0  0  0  0  0  0  0  0  0  0  0  0
  161.1250  201.2190  150.4270 C   0  0  0  0  0  3  0  0  0  0  0  0
  161.2390  204.0310  150.4180 C   0  0  0  0  0  0  0  0  0  0  0  0
  161.2570  201.9170  151.6300 C   0  0  0  0  0  3  0  0  0  0  0  0
  161.1140  203.3140  149.2170 C   0  0  0  0  0  3  0  0  0  0  0  0
  161.3170  203.3140  151.6240 C   0  0  0  0  0  3  0  0  0  0  0  0
  160.8930  201.0470  147.7120 Cl  0  0  0  0  0  0  0  0  0  0  0  0
  162.4890  211.7320  148.8380 C   0  0  0  0  0  2  0  0  0  0  0  0
  163.7380  214.3790  148.2910 C   0  0  0  0  0  1  0  0  0  0  0  0
  162.1700  212.5570  147.6730 N   0  0  0  0  0  0  0  0  0  0  0  0
  162.2990  213.9920  147.9920 C   0  0  1  0  0  3  0  0  0  0  0  0
  160.0180  213.7060  149.0870 C   0  0  0  0  0  2  0  0  0  0  0  0
  159.7110  213.1840  147.6900 C   0  0  0  0  0  2  0  0  0  0  0  0
  160.8070  212.2100  147.2250 C   0  0  0  0  0  2  0  0  0  0  0  0
  161.3530  214.4530  149.1120 C   0  0  0  0  0  2  0  0  0  0  0  0
  1 13  2  0  0  0  0
  1 11  1  0  0  0  0
  2  6  2  0  0  0  0
  3 12  1  0  0  0  0
  3  8  1  0  0  0  0
  4 15  1  0  0  0  0
  4 18  2  0  0  0  0
  5 11  2  0  0  0  0
  6  5  1  0  0  0  0
  7 18  1  0  0  0  0
  7 14  2  0  0  0  0
  8  2  1  6  0  0  0
  8  1  1  0  0  0  0
  9 27  1  1  0  0  0
  9  7  1  0  0  0  0
 10 17  1  0  0  0  0
 10  4  1  0  0  0  0
 12 19  2  0  0  0  0
 14  2  1  0  0  0  0
 15 16  2  0  0  0  0
 16 12  1  0  0  0  0
 17  9  1  0  0  0  0
 18  3  1  0  0  0  0
 19 13  1  0  0  0  0
 20 21  1  0  0  0  0
 21 23  2  0  0  0  0
 22 16  1  0  0  0  0
 22 25  2  0  0  0  0
 24 20  2  0  0  0  0
 24 22  1  0  0  0  0
 25 23  1  0  0  0  0
 26 20  1  0  0  0  0
 29 30  1  0  0  0  0
 29 27  1  0  0  0  0
 30 28  1  1  0  0  0
 30 34  1  0  0  0  0
 31 34  1  0  0  0  0
 32 31  1  0  0  0  0
 33 29  1  0  0  0  0
 33 32  1  0  0  0  0
M  END
>  <MODEL>
2

>  <REMARK>
 VINA RESULT:      -7.9      1.832      5.695
  Name = 
  3 active torsions:
  status: ('A' for Active; 'I' for Inactive)
    1  A    between atoms: C_3  and  N_13
    2  A    between atoms: C_3  and  C_17
    3  A    between atoms: C_12  and  C_28
                            x       y       z     vdW  Elec       q    Type
                         _______ _______ _______ _____ _____    ______ ____

>  <TORSDO>
F 3

$$$$
=
 OpenBabel11062407553D

 34 40  0  0  1  0  0  0  0  0999 V2000
  161.9910  208.7960  148.2540 C   0  0  0  0  0  0  0  0  0  0  0  0
  161.9710  209.1710  150.7160 C   0  0  0  0  0  0  0  0  0  0  0  0
  161.7140  206.9180  149.7850 N   0  0  0  0  0  0  0  0  0  0  0  0
  161.2030  205.1380  151.3040 C   0  0  0  0  0  0  0  0  0  0  0  0
  162.0400  211.0250  149.1810 C   0  0  0  0  0  3  0  0  0  0  0  0
  161.9140  210.4540  150.5000 N   0  0  0  0  0  0  0  0  0  0  0  0
  161.5280  207.3760  152.2440 C   0  0  0  0  0  0  0  0  0  0  0  0
  162.3350  208.2250  149.6000 C   0  0  1  0  0  3  0  0  0  0  0  0
  161.3190  206.8220  153.6330 C   0  0  2  0  0  3  0  0  0  0  0  0
  161.0410  204.6180  152.7070 C   0  0  0  0  0  2  0  0  0  0  0  0
  162.0580  210.2520  148.0880 C   0  0  0  0  0  3  0  0  0  0  0  0
  161.5320  206.0480  148.6620 C   0  0  0  0  0  0  0  0  0  0  0  0
  161.6810  208.0110  147.2620 N   0  0  0  0  0  0  0  0  0  0  0  0
  161.7470  208.6460  152.0360 N   0  0  0  0  0  0  0  0  0  0  0  0
  161.1320  204.2320  150.1860 N   0  0  0  0  0  0  0  0  0  0  0  0
  161.2780  204.6040  148.9400 C   0  0  0  0  0  0  0  0  0  0  0  0
  160.4470  205.6420  153.5760 N   0  0  0  0  0  2  0  0  0  0  0  0
  161.4930  206.4300  151.1090 C   0  0  0  0  0  0  0  0  0  0  0  0
  161.5140  206.5910  147.4350 C   0  0  0  0  0  3  0  0  0  0  0  0
  161.2200  201.2390  147.1580 C   0  0  0  0  0  0  0  0  0  0  0  0
  160.9710  201.6340  145.8420 C   0  0  0  0  0  3  0  0  0  0  0  0
  161.1890  203.5660  147.8770 C   0  0  0  0  0  0  0  0  0  0  0  0
  160.8270  202.9890  145.5380 C   0  0  0  0  0  3  0  0  0  0  0  0
  161.3240  202.1990  148.1690 C   0  0  0  0  0  3  0  0  0  0  0  0
  160.9320  203.9480  146.5500 C   0  0  0  0  0  3  0  0  0  0  0  0
  161.3970  199.5420  147.5440 Cl  0  0  0  0  0  0  0  0  0  0  0  0
  160.7010  207.8610  154.5610 C   0  0  0  0  0  2  0  0  0  0  0  0
  160.6760  206.6030  157.2600 C   0  0  0  0  0  1  0  0  0  0  0  0
  161.6390  208.2070  155.6300 N   0  0  0  0  0  0  0  0  0  0  0  0
  161.0090  208.0550  156.9550 C   0  0  1  0  0  3  0  0  0  0  0  0
  159.9330  210.3030  156.4340 C   0  0  0  0  0  2  0  0  0  0  0  0
  161.4010  210.6580  156.2430 C   0  0  0  0  0  2  0  0  0  0  0  0
  162.1100  209.5870  155.3970 C   0  0  0  0  0  2  0  0  0  0  0  0
  159.7830  208.9600  157.1530 C   0  0  0  0  0  2  0  0  0  0  0  0
  2 14  1  0  0  0  0
  3 18  1  0  0  0  0
  4 10  1  0  0  0  0
  5  6  1  0  0  0  0
  6  2  2  0  0  0  0
  7  9  1  0  0  0  0
  8  1  1  6  0  0  0
  8  3  1  0  0  0  0
  8  2  1  0  0  0  0
  9 27  1  1  0  0  0
 10 17  1  0  0  0  0
 11  1  1  0  0  0  0
 11  5  2  0  0  0  0
 12 16  1  0  0  0  0
 12  3  1  0  0  0  0
 13 19  1  0  0  0  0
 13  1  2  0  0  0  0
 14  7  2  0  0  0  0
 15  4  1  0  0  0  0
 16 15  2  0  0  0  0
 17  9  1  0  0  0  0
 18  4  2  0  0  0  0
 18  7  1  0  0  0  0
 19 12  2  0  0  0  0
 20 26  1  0  0  0  0
 20 24  1  0  0  0  0
 21 20  2  0  0  0  0
 22 24  2  0  0  0  0
 22 16  1  0  0  0  0
 23 21  1  0  0  0  0
 23 25  2  0  0  0  0
 25 22  1  0  0  0  0
 27 29  1  0  0  0  0
 29 30  1  0  0  0  0
 30 34  1  0  0  0  0
 30 28  1  6  0  0  0
 31 34  1  0  0  0  0
 32 31  1  0  0  0  0
 33 29  1  0  0  0  0
 33 32  1  0  0  0  0
M  END
>  <MODEL>
3

>  <REMARK>
 VINA RESULT:      -7.4      1.349      2.090
  Name = 
  3 active torsions:
  status: ('A' for Active; 'I' for Inactive)
    1  A    between atoms: C_3  and  N_13
    2  A    between atoms: C_3  and  C_17
    3  A    between atoms: C_12  and  C_28
                            x       y       z     vdW  Elec       q    Type
                         _______ _______ _______ _____ _____    ______ ____

>  <TORSDO>
F 3

$$$$
