=
 OpenBabel11062410383D

 32 37  0  0  1  0  0  0  0  0999 V2000
  160.8030  203.0990  146.5820 C   0  0  0  0  0  2  0  0  0  0  0  0
  161.3020  206.2190  150.5970 C   0  0  0  0  0  0  0  0  0  0  0  0
  162.2330  210.5850  148.4800 C   0  0  0  0  0  3  0  0  0  0  0  0
  162.1430  211.2320  149.6410 C   0  0  0  0  0  3  0  0  0  0  0  0
  160.9140  206.1460  153.0430 C   0  0  0  0  0  0  0  0  0  0  0  0
  160.8340  206.8850  154.2180 C   0  0  0  0  0  0  0  0  0  0  0  0
  161.2250  204.1850  149.2260 C   0  0  0  0  0  0  0  0  0  0  0  0
  161.7140  206.3060  148.1290 C   0  0  0  0  0  3  0  0  0  0  0  0
  160.8710  208.6880  155.5750 C   0  0  0  0  0  0  0  0  0  0  0  0
  161.7280  204.3100  146.7050 C   0  0  0  0  0  2  0  0  0  0  0  0
  162.0450  209.1290  148.4000 C   0  0  0  0  0  3  0  0  0  0  0  0
  161.5930  206.9770  149.3980 N   0  0  0  0  0  0  0  0  0  0  0  0
  161.7760  208.3940  149.4860 C   0  0  2  0  0  3  0  0  0  0  0  0
  161.3860  208.2820  151.8930 C   0  0  0  0  0  0  0  0  0  0  0  0
  160.5740  207.5030  156.4410 C   0  0  0  0  0  2  0  0  0  0  0  0
  161.0350  202.7340  149.0540 C   0  0  0  0  0  0  0  0  0  0  0  0
  161.5270  204.9900  148.0250 C   0  0  0  0  0  0  0  0  0  0  0  0
  160.5700  206.4180  155.5030 O   0  0  0  0  0  0  0  0  0  0  0  0
  160.9610  201.9730  150.0580 O   0  0  0  0  0  0  0  0  0  0  0  0
  160.9680  202.1950  147.7230 N   0  0  0  0  0  0  0  0  0  0  0  0
  161.8450  210.5330  150.9390 C   0  0  0  0  0  3  0  0  0  0  0  0
  161.6590  209.0340  150.8070 C   0  0  0  0  0  0  0  0  0  0  0  0
  161.2880  208.9190  153.1000 N   0  0  0  0  0  0  0  0  0  0  0  0
  161.1240  204.7620  150.4250 C   0  0  0  0  0  3  0  0  0  0  0  0
  160.6480  204.4080  153.2290 Cl  0  0  0  0  0  0  0  0  0  0  0  0
  160.9750  209.8800  155.9640 O   0  0  0  0  0  0  0  0  0  0  0  0
  161.2010  206.8450  151.8130 C   0  0  0  0  0  0  0  0  0  0  0  0
  161.0170  208.2220  154.2210 C   0  0  0  0  0  0  0  0  0  0  0  0
  161.1290  200.7630  147.4850 C   0  0  0  0  0  2  0  0  0  0  0  0
  161.1740  200.4180  145.9940 C   0  0  0  0  0  3  0  0  0  0  0  0
  161.4090  198.9380  145.7560 C   0  0  0  0  0  1  0  0  0  0  0  0
  159.9220  200.8770  145.2710 C   0  0  0  0  0  1  0  0  0  0  0  0
  1 10  1  0  0  0  0
  1 20  1  0  0  0  0
  2 27  2  0  0  0  0
  3  4  1  0  0  0  0
  4 21  2  0  0  0  0
  5 25  1  0  0  0  0
  5  6  2  0  0  0  0
  6 28  1  0  0  0  0
  6 18  1  0  0  0  0
  7 24  2  0  0  0  0
  8 12  1  0  0  0  0
  9 26  2  0  0  0  0
  9 15  1  0  0  0  0
 10 17  1  0  0  0  0
 11  3  2  0  0  0  0
 12 13  1  0  0  0  0
 12  2  1  0  0  0  0
 13 11  1  6  0  0  0
 13 22  1  0  0  0  0
 14 23  1  0  0  0  0
 16  7  1  0  0  0  0
 16 19  2  0  0  0  0
 17  8  2  0  0  0  0
 17  7  1  0  0  0  0
 18 15  1  0  0  0  0
 20 16  1  0  0  0  0
 22 21  1  0  0  0  0
 22 14  2  0  0  0  0
 23 28  2  0  0  0  0
 24  2  1  0  0  0  0
 27 14  1  0  0  0  0
 27  5  1  0  0  0  0
 28  9  1  0  0  0  0
 29 20  1  0  0  0  0
 30 29  1  0  0  0  0
 31 30  1  0  0  0  0
 32 30  1  0  0  0  0
M  END
>  <MODEL>
1

>  <REMARK>
 VINA RESULT:     -10.0      0.000      0.000
  Name = 
  2 active torsions:
  status: ('A' for Active; 'I' for Inactive)
    1  A    between atoms: C_1  and  C_10
    2  A    between atoms: C_10  and  N_24
                            x       y       z     vdW  Elec       q    Type
                         _______ _______ _______ _____ _____    ______ ____

>  <TORSDO>
F 2

$$$$
=
 OpenBabel11062410383D

 32 37  0  0  0  0  0  0  0  0999 V2000
  160.5950  208.5130  154.9230 C   0  0  0  0  0  2  0  0  0  0  0  0
  161.1710  206.1130  150.4480 C   0  0  0  0  0  0  0  0  0  0  0  0
  161.0320  201.3460  151.7390 C   0  0  0  0  0  3  0  0  0  0  0  0
  161.0120  200.9440  150.4690 C   0  0  0  0  0  3  0  0  0  0  0  0
  161.1760  206.6900  148.0390 C   0  0  0  0  0  0  0  0  0  0  0  0
  161.1530  206.2000  146.7380 C   0  0  0  0  0  0  0  0  0  0  0  0
  161.2270  207.8500  152.1820 C   0  0  0  0  0  0  0  0  0  0  0  0
  161.1840  205.5150  152.8800 C   0  0  0  0  0  3  0  0  0  0  0  0
  161.0960  204.6910  145.0600 C   0  0  0  0  0  0  0  0  0  0  0  0
  161.3140  207.1870  154.6670 C   0  0  0  0  0  2  0  0  0  0  0  0
  161.0790  202.7730  152.0870 C   0  0  0  0  0  3  0  0  0  0  0  0
  161.1470  205.1140  151.4960 N   0  0  0  0  0  0  0  0  0  0  0  0
  161.1030  203.7270  151.1470 C   0  0  0  0  0  0  0  0  0  0  0  0
  161.1070  204.3350  148.7840 C   0  0  0  0  0  0  0  0  0  0  0  0
  161.1340  206.0450  144.4210 C   0  0  0  0  0  2  0  0  0  0  0  0
  161.2570  209.2570  152.6190 C   0  0  0  0  0  0  0  0  0  0  0  0
  161.2050  206.8020  153.2230 C   0  0  0  0  0  0  0  0  0  0  0  0
  161.1690  206.9280  145.5520 O   0  0  0  0  0  0  0  0  0  0  0  0
  161.4640  210.1830  151.7870 O   0  0  0  0  0  0  0  0  0  0  0  0
  161.0800  209.5540  154.0140 N   0  0  0  0  0  0  0  0  0  0  0  0
  161.0350  201.9050  149.3120 C   0  0  0  0  0  2  0  0  0  0  0  0
  161.0820  203.3640  149.7200 C   0  0  0  0  0  0  0  0  0  0  0  0
  161.0880  203.9510  147.4700 N   0  0  0  0  0  0  0  0  0  0  0  0
  161.2140  207.5240  150.8880 C   0  0  0  0  0  3  0  0  0  0  0  0
  161.2340  208.4510  148.1770 Cl  0  0  0  0  0  0  0  0  0  0  0  0
  161.0580  203.5890  144.4550 O   0  0  0  0  0  0  0  0  0  0  0  0
  161.1530  205.7430  149.1280 C   0  0  0  0  0  0  0  0  0  0  0  0
  161.1100  204.8730  146.4880 C   0  0  0  0  0  0  0  0  0  0  0  0
  161.4380  210.8650  154.5530 C   0  0  0  0  0  2  0  0  0  0  0  0
  161.6890  210.8290  156.0620 C   0  0  0  0  0  3  0  0  0  0  0  0
  163.1690  210.7910  156.3960 C   0  0  0  0  0  1  0  0  0  0  0  0
  161.0160  211.9880  156.7730 C   0  0  0  0  0  1  0  0  0  0  0  0
  2 24  1  0  0  0  0
  2 12  1  0  0  0  0
  3 11  1  0  0  0  0
  4  3  2  0  0  0  0
  5 25  1  0  0  0  0
  5 27  1  0  0  0  0
  6  5  2  0  0  0  0
  7 16  1  0  0  0  0
  7 17  1  0  0  0  0
  8 17  2  0  0  0  0
  9 28  1  0  0  0  0
 10  1  1  0  0  0  0
 12  8  1  0  0  0  0
 13 12  1  0  0  0  0
 13 11  2  0  0  0  0
 14 27  1  0  0  0  0
 14 22  2  0  0  0  0
 15  9  1  0  0  0  0
 15 18  1  0  0  0  0
 16 20  1  0  0  0  0
 17 10  1  0  0  0  0
 18  6  1  0  0  0  0
 19 16  2  0  0  0  0
 20 29  1  0  0  0  0
 20  1  1  0  0  0  0
 21 22  1  0  0  0  0
 21  4  1  0  0  0  0
 22 13  1  0  0  0  0
 23 14  1  0  0  0  0
 24  7  2  0  0  0  0
 26  9  2  0  0  0  0
 27  2  2  0  0  0  0
 28  6  1  0  0  0  0
 28 23  2  0  0  0  0
 29 30  1  0  0  0  0
 30 31  1  0  0  0  0
 30 32  1  0  0  0  0
M  END
>  <MODEL>
2

>  <REMARK>
 VINA RESULT:      -9.7      2.812      8.989
  Name = 
  2 active torsions:
  status: ('A' for Active; 'I' for Inactive)
    1  A    between atoms: C_1  and  C_10
    2  A    between atoms: C_10  and  N_24
                            x       y       z     vdW  Elec       q    Type
                         _______ _______ _______ _____ _____    ______ ____

>  <TORSDO>
F 2

$$$$
=
 OpenBabel11062410383D

 32 37  0  0  1  0  0  0  0  0999 V2000
  161.3640  204.5680  147.1300 C   0  0  0  0  0  2  0  0  0  0  0  0
  161.3410  208.1580  150.7650 C   0  0  0  0  0  0  0  0  0  0  0  0
  161.7940  212.3410  148.1750 C   0  0  0  0  0  3  0  0  0  0  0  0
  161.5860  213.0970  149.2510 C   0  0  0  0  0  3  0  0  0  0  0  0
  160.8850  208.3120  153.1960 C   0  0  0  0  0  0  0  0  0  0  0  0
  160.6760  209.1620  154.2760 C   0  0  0  0  0  0  0  0  0  0  0  0
  161.5610  205.9890  149.6380 C   0  0  0  0  0  0  0  0  0  0  0  0
  161.8190  208.0180  148.3120 C   0  0  0  0  0  3  0  0  0  0  0  0
  160.4460  211.0970  155.4160 C   0  0  0  0  0  0  0  0  0  0  0  0
  162.1270  205.8940  147.1290 C   0  0  0  0  0  2  0  0  0  0  0  0
  161.7900  210.8740  148.2610 C   0  0  0  0  0  3  0  0  0  0  0  0
  161.5750  208.8070  149.4920 N   0  0  0  0  0  0  0  0  0  0  0  0
  161.5780  210.2370  149.4190 C   0  0  2  0  0  3  0  0  0  0  0  0
  161.1270  210.3470  151.8150 C   0  0  0  0  0  0  0  0  0  0  0  0
  160.2700  209.9880  156.4080 C   0  0  0  0  0  2  0  0  0  0  0  0
  161.5580  204.5160  149.6310 C   0  0  0  0  0  0  0  0  0  0  0  0
  161.8000  206.6870  148.3580 C   0  0  0  0  0  0  0  0  0  0  0  0
  160.4310  208.8130  155.6010 O   0  0  0  0  0  0  0  0  0  0  0  0
  161.5460  203.8690  150.7150 O   0  0  0  0  0  0  0  0  0  0  0  0
  161.6020  203.8270  148.3700 N   0  0  0  0  0  0  0  0  0  0  0  0
  161.3350  212.5170  150.6160 C   0  0  0  0  0  3  0  0  0  0  0  0
  161.3400  211.0020  150.6540 C   0  0  0  0  0  0  0  0  0  0  0  0
  160.9110  211.0990  152.9380 N   0  0  0  0  0  0  0  0  0  0  0  0
  161.3510  206.6800  150.7600 C   0  0  0  0  0  3  0  0  0  0  0  0
  160.8310  206.5870  153.5760 Cl  0  0  0  0  0  0  0  0  0  0  0  0
  160.3890  212.3290  155.6660 O   0  0  0  0  0  0  0  0  0  0  0  0
  161.1240  208.8990  151.8990 C   0  0  0  0  0  0  0  0  0  0  0  0
  160.6930  210.5040  154.1270 C   0  0  0  0  0  0  0  0  0  0  0  0
  161.9470  202.4090  148.3020 C   0  0  0  0  0  2  0  0  0  0  0  0
  160.7610  201.5380  147.8780 C   0  0  0  0  0  3  0  0  0  0  0  0
  161.2060  200.2030  147.3110 C   0  0  0  0  0  1  0  0  0  0  0  0
  159.7800  201.3280  149.0160 C   0  0  0  0  0  1  0  0  0  0  0  0
  1 20  1  0  0  0  0
  2 27  2  0  0  0  0
  3 11  2  0  0  0  0
  3  4  1  0  0  0  0
  4 21  2  0  0  0  0
  5 25  1  0  0  0  0
  5  6  2  0  0  0  0
  6 18  1  0  0  0  0
  7 24  2  0  0  0  0
  8 17  2  0  0  0  0
  8 12  1  0  0  0  0
  9 26  2  0  0  0  0
  9 15  1  0  0  0  0
 10  1  1  0  0  0  0
 10 17  1  0  0  0  0
 12  2  1  0  0  0  0
 13 11  1  6  0  0  0
 13 12  1  0  0  0  0
 13 22  1  0  0  0  0
 14 27  1  0  0  0  0
 14 23  1  0  0  0  0
 16  7  1  0  0  0  0
 16 19  2  0  0  0  0
 17  7  1  0  0  0  0
 18 15  1  0  0  0  0
 20 16  1  0  0  0  0
 21 22  1  0  0  0  0
 22 14  2  0  0  0  0
 23 28  2  0  0  0  0
 24  2  1  0  0  0  0
 27  5  1  0  0  0  0
 28  6  1  0  0  0  0
 28  9  1  0  0  0  0
 29 20  1  0  0  0  0
 30 29  1  0  0  0  0
 30 32  1  0  0  0  0
 31 30  1  0  0  0  0
M  END
>  <MODEL>
3

>  <REMARK>
 VINA RESULT:      -8.2      1.508      2.132
  Name = 
  2 active torsions:
  status: ('A' for Active; 'I' for Inactive)
    1  A    between atoms: C_1  and  C_10
    2  A    between atoms: C_10  and  N_24
                            x       y       z     vdW  Elec       q    Type
                         _______ _______ _______ _____ _____    ______ ____

>  <TORSDO>
F 2

$$$$
=
 OpenBabel11062410383D

 32 37  0  0  1  0  0  0  0  0999 V2000
  161.3530  202.1940  151.2400 C   0  0  0  0  0  2  0  0  0  0  0  0
  161.2830  207.2810  150.7560 C   0  0  0  0  0  0  0  0  0  0  0  0
  161.2960  208.8250  155.4500 C   0  0  0  0  0  3  0  0  0  0  0  0
  161.4570  210.0970  155.0900 C   0  0  0  0  0  3  0  0  0  0  0  0
  161.5430  208.9600  148.9540 C   0  0  0  0  0  0  0  0  0  0  0  0
  161.7110  210.3070  148.6520 C   0  0  0  0  0  0  0  0  0  0  0  0
  161.0310  204.8910  150.2540 C   0  0  0  0  0  0  0  0  0  0  0  0
  161.0040  205.5960  152.5880 C   0  0  0  0  0  3  0  0  0  0  0  0
  161.9590  212.5250  148.9940 C   0  0  0  0  0  0  0  0  0  0  0  0
  160.6720  203.2040  152.1640 C   0  0  0  0  0  2  0  0  0  0  0  0
  161.2060  207.7550  154.4470 C   0  0  0  0  0  3  0  0  0  0  0  0
  161.1950  206.9600  152.1660 N   0  0  0  0  0  0  0  0  0  0  0  0
  161.2830  208.0110  153.1350 C   0  0  2  0  0  3  0  0  0  0  0  0
  161.5380  209.6350  151.3320 C   0  0  0  0  0  0  0  0  0  0  0  0
  161.9860  212.3120  147.5120 C   0  0  0  0  0  2  0  0  0  0  0  0
  160.9480  203.7570  149.3180 C   0  0  0  0  0  0  0  0  0  0  0  0
  160.9410  204.6040  151.7000 C   0  0  0  0  0  0  0  0  0  0  0  0
  161.8240  210.8910  147.3930 O   0  0  0  0  0  0  0  0  0  0  0  0
  160.8310  203.9550  148.0770 O   0  0  0  0  0  0  0  0  0  0  0  0
  160.9690  202.4190  149.8450 N   0  0  0  0  0  0  0  0  0  0  0  0
  161.5590  210.5300  153.6530 C   0  0  0  0  0  3  0  0  0  0  0  0
  161.4620  209.3910  152.6570 C   0  0  0  0  0  0  0  0  0  0  0  0
  161.7030  210.9340  150.9330 N   0  0  0  0  0  0  0  0  0  0  0  0
  161.1880  206.1430  149.8180 C   0  0  0  0  0  3  0  0  0  0  0  0
  161.4640  207.8820  147.5570 Cl  0  0  0  0  0  0  0  0  0  0  0  0
  162.0670  213.6310  149.5850 O   0  0  0  0  0  0  0  0  0  0  0  0
  161.4490  208.5780  150.3430 C   0  0  0  0  0  0  0  0  0  0  0  0
  161.7860  211.2420  149.6240 C   0  0  0  0  0  0  0  0  0  0  0  0
  160.5480  201.2840  149.0260 C   0  0  0  0  0  2  0  0  0  0  0  0
  161.3240  201.1930  147.7090 C   0  0  0  0  0  3  0  0  0  0  0  0
  161.9560  199.8280  147.5110 C   0  0  0  0  0  1  0  0  0  0  0  0
  160.4560  201.5520  146.5170 C   0  0  0  0  0  1  0  0  0  0  0  0
  1 10  1  0  0  0  0
  2 12  1  0  0  0  0
  4  3  1  0  0  0  0
  5 27  1  0  0  0  0
  6  5  2  0  0  0  0
  6 28  1  0  0  0  0
  7 17  1  0  0  0  0
  9 26  2  0  0  0  0
  9 28  1  0  0  0  0
 11  3  2  0  0  0  0
 12  8  1  0  0  0  0
 12 13  1  0  0  0  0
 13 11  1  1  0  0  0
 14 22  2  0  0  0  0
 15  9  1  0  0  0  0
 16 20  1  0  0  0  0
 16  7  1  0  0  0  0
 17 10  1  0  0  0  0
 17  8  2  0  0  0  0
 18 15  1  0  0  0  0
 18  6  1  0  0  0  0
 19 16  2  0  0  0  0
 20  1  1  0  0  0  0
 21  4  2  0  0  0  0
 22 13  1  0  0  0  0
 22 21  1  0  0  0  0
 23 14  1  0  0  0  0
 24  7  2  0  0  0  0
 24  2  1  0  0  0  0
 25  5  1  0  0  0  0
 27  2  2  0  0  0  0
 27 14  1  0  0  0  0
 28 23  2  0  0  0  0
 29 20  1  0  0  0  0
 30 29  1  0  0  0  0
 31 30  1  0  0  0  0
 32 30  1  0  0  0  0
M  END
>  <MODEL>
4

>  <REMARK>
 VINA RESULT:      -7.2      2.761      4.825
  Name = 
  2 active torsions:
  status: ('A' for Active; 'I' for Inactive)
    1  A    between atoms: C_1  and  C_10
    2  A    between atoms: C_10  and  N_24
                            x       y       z     vdW  Elec       q    Type
                         _______ _______ _______ _____ _____    ______ ____

>  <TORSDO>
F 2

$$$$
