=
 OpenBabel11062410403D

 32 38  0  0  1  0  0  0  0  0999 V2000
  160.6140  213.1280  145.4720 C   0  0  0  0  0  0  0  0  0  0  0  0
  162.0080  213.1710  148.6390 C   0  0  0  0  0  2  0  0  0  0  0  0
  161.3400  208.2790  150.2470 C   0  0  0  0  0  0  0  0  0  0  0  0
  160.8300  208.6790  155.0510 N   0  0  0  0  0  0  0  0  0  0  0  0
  160.7450  207.3280  155.1730 C   0  0  0  0  0  3  0  0  0  0  0  0
  161.3500  205.8160  149.4860 C   0  0  0  0  0  0  0  0  0  0  0  0
  161.5900  205.7030  148.0940 C   0  0  0  0  0  0  0  0  0  0  0  0
  162.1180  210.2590  148.9520 C   0  0  2  0  0  3  0  0  0  0  0  0
  161.3160  210.5680  151.2590 C   0  0  0  0  0  3  0  0  0  0  0  0
  159.9650  212.1870  147.4930 C   0  0  0  0  0  3  0  0  0  0  0  0
  161.1530  203.3930  149.6790 C   0  0  0  0  0  0  0  0  0  0  0  0
  161.5810  212.6330  150.0030 C   0  0  0  0  0  2  0  0  0  0  0  0
  161.0000  209.2780  153.8420 C   0  0  0  0  0  3  0  0  0  0  0  0
  161.0940  208.5060  152.6760 C   0  0  0  0  0  0  0  0  0  0  0  0
  161.2590  209.0940  151.4060 C   0  0  0  0  0  0  0  0  0  0  0  0
  161.1010  206.3510  151.6510 N   0  0  0  0  0  0  0  0  0  0  0  0
  160.5060  213.6210  144.3190 O   0  0  0  0  0  0  0  0  0  0  0  0
  161.3580  203.2750  148.3010 C   0  0  0  0  0  3  0  0  0  0  0  0
  161.9020  212.9530  146.1660 C   0  0  0  0  0  2  0  0  0  0  0  0
  159.5010  212.6900  146.2150 N   0  0  0  0  0  0  0  0  0  0  0  0
  161.6720  211.1390  150.1060 C   0  0  0  0  0  0  0  0  0  0  0  0
  161.5810  204.4200  147.5200 C   0  0  0  0  0  3  0  0  0  0  0  0
  162.1510  210.9200  147.5670 C   0  0  0  0  0  2  0  0  0  0  0  0
  161.5040  212.3020  147.4900 C   0  0  1  0  0  0  0  0  0  0  0  0
  160.8310  206.5150  154.0420 C   0  0  0  0  0  3  0  0  0  0  0  0
  161.0080  207.1030  152.7820 C   0  0  0  0  0  0  0  0  0  0  0  0
  161.0170  205.0070  151.5690 C   0  0  0  0  0  3  0  0  0  0  0  0
  161.3160  208.9600  148.9090 C   0  0  0  0  0  2  0  0  0  0  0  0
  161.9280  206.8350  147.1970 C   0  0  0  0  0  1  0  0  0  0  0  0
  160.9490  202.2620  150.4600 O   0  0  0  0  0  1  0  0  0  0  0  0
  161.2820  206.8760  150.4100 C   0  0  0  0  0  0  0  0  0  0  0  0
  161.1630  204.6670  150.2440 C   0  0  0  0  0  0  0  0  0  0  0  0
  1 19  1  0  0  0  0
  1 20  1  0  0  0  0
  2 12  1  0  0  0  0
  3 31  1  0  0  0  0
  3 15  2  0  0  0  0
  4  5  1  0  0  0  0
  6 32  1  0  0  0  0
  6 31  2  0  0  0  0
  7  6  1  0  0  0  0
  8 23  1  6  0  0  0
  8 21  1  0  0  0  0
  9 15  1  0  0  0  0
 11 32  1  0  0  0  0
 11 30  1  0  0  0  0
 12 21  1  0  0  0  0
 13  4  2  0  0  0  0
 14 26  2  0  0  0  0
 14 13  1  0  0  0  0
 15 14  1  0  0  0  0
 16 26  1  0  0  0  0
 17  1  2  0  0  0  0
 18 11  2  0  0  0  0
 20 10  2  0  0  0  0
 21  9  2  0  0  0  0
 22  7  2  0  0  0  0
 22 18  1  0  0  0  0
 24 19  1  6  0  0  0
 24 10  1  0  0  0  0
 24 23  1  0  0  0  0
 24  2  1  0  0  0  0
 25  5  2  0  0  0  0
 26 25  1  0  0  0  0
 27 16  1  0  0  0  0
 28  8  1  0  0  0  0
 28  3  1  0  0  0  0
 29  7  1  0  0  0  0
 31 16  1  0  0  0  0
 32 27  2  0  0  0  0
M  END
>  <MODEL>
1

>  <REMARK>
 VINA RESULT:      -8.5      0.000      0.000
  Name = 
  0 active torsions:
  status: ('A' for Active; 'I' for Inactive)
                            x       y       z     vdW  Elec       q    Type
                         _______ _______ _______ _____ _____    ______ ____

>  <TORSDO>
F 0

$$$$
=
 OpenBabel11062410403D

 32 38  0  0  1  0  0  0  0  0999 V2000
  160.9550  213.1640  146.4060 C   0  0  0  0  0  0  0  0  0  0  0  0
  162.3420  212.1700  149.4170 C   0  0  0  0  0  2  0  0  0  0  0  0
  161.4870  207.0490  149.4330 C   0  0  0  0  0  0  0  0  0  0  0  0
  160.9810  205.9550  154.1280 N   0  0  0  0  0  0  0  0  0  0  0  0
  160.8440  204.6370  153.8250 C   0  0  0  0  0  3  0  0  0  0  0  0
  161.4060  204.9450  147.9440 C   0  0  0  0  0  0  0  0  0  0  0  0
  161.6440  205.2610  146.5840 C   0  0  0  0  0  0  0  0  0  0  0  0
  162.3410  209.3030  148.8090 C   0  0  2  0  0  3  0  0  0  0  0  0
  161.5460  208.9100  151.1060 C   0  0  0  0  0  3  0  0  0  0  0  0
  160.2660  211.6650  148.0410 C   0  0  0  0  0  3  0  0  0  0  0  0
  161.1180  202.5900  147.3770 C   0  0  0  0  0  0  0  0  0  0  0  0
  161.8920  211.2510  150.5500 C   0  0  0  0  0  2  0  0  0  0  0  0
  161.1760  206.8930  153.1630 C   0  0  0  0  0  3  0  0  0  0  0  0
  161.2430  206.5190  151.8140 C   0  0  0  0  0  0  0  0  0  0  0  0
  161.4330  207.4660  150.7880 C   0  0  0  0  0  0  0  0  0  0  0  0
  161.1720  204.7900  150.1710 N   0  0  0  0  0  0  0  0  0  0  0  0
  160.8680  213.9940  145.4640 O   0  0  0  0  0  0  0  0  0  0  0  0
  161.3210  202.9000  146.0290 C   0  0  0  0  0  3  0  0  0  0  0  0
  162.2340  212.7350  146.9990 C   0  0  0  0  0  2  0  0  0  0  0  0
  159.8240  212.5580  146.9870 N   0  0  0  0  0  0  0  0  0  0  0  0
  161.9260  209.7970  150.1840 C   0  0  0  0  0  0  0  0  0  0  0  0
  161.5890  204.2220  145.6400 C   0  0  0  0  0  3  0  0  0  0  0  0
  162.4030  210.3600  147.6980 C   0  0  0  0  0  2  0  0  0  0  0  0
  161.8080  211.7200  148.0600 C   0  0  1  0  0  0  0  0  0  0  0  0
  160.9030  204.2120  152.4970 C   0  0  0  0  0  3  0  0  0  0  0  0
  161.1040  205.1560  151.4800 C   0  0  0  0  0  0  0  0  0  0  0  0
  161.0380  203.5420  149.6760 C   0  0  0  0  0  3  0  0  0  0  0  0
  161.4910  208.1120  148.3730 C   0  0  0  0  0  2  0  0  0  0  0  0
  162.0270  206.6030  146.0790 C   0  0  0  0  0  1  0  0  0  0  0  0
  160.8690  201.2810  147.7710 O   0  0  0  0  0  1  0  0  0  0  0  0
  161.3760  205.6670  149.1520 C   0  0  0  0  0  0  0  0  0  0  0  0
  161.1740  203.6260  148.3100 C   0  0  0  0  0  0  0  0  0  0  0  0
  1 20  1  0  0  0  0
  1 19  1  0  0  0  0
  2 12  1  0  0  0  0
  3 15  2  0  0  0  0
  5  4  1  0  0  0  0
  6 32  1  0  0  0  0
  6 31  2  0  0  0  0
  7  6  1  0  0  0  0
  8 23  1  6  0  0  0
  8 21  1  0  0  0  0
 10 24  1  0  0  0  0
 11 30  1  0  0  0  0
 11 32  1  0  0  0  0
 13  4  2  0  0  0  0
 14 13  1  0  0  0  0
 15  9  1  0  0  0  0
 15 14  1  0  0  0  0
 16 26  1  0  0  0  0
 17  1  2  0  0  0  0
 18 11  2  0  0  0  0
 20 10  2  0  0  0  0
 21 12  1  0  0  0  0
 21  9  2  0  0  0  0
 22 18  1  0  0  0  0
 22  7  2  0  0  0  0
 23 24  1  0  0  0  0
 24 19  1  6  0  0  0
 24  2  1  0  0  0  0
 25  5  2  0  0  0  0
 26 14  2  0  0  0  0
 26 25  1  0  0  0  0
 27 16  1  0  0  0  0
 28  8  1  0  0  0  0
 28  3  1  0  0  0  0
 29  7  1  0  0  0  0
 31  3  1  0  0  0  0
 31 16  1  0  0  0  0
 32 27  2  0  0  0  0
M  END
>  <MODEL>
2

>  <REMARK>
 VINA RESULT:      -6.8      1.302      1.867
  Name = 
  0 active torsions:
  status: ('A' for Active; 'I' for Inactive)
                            x       y       z     vdW  Elec       q    Type
                         _______ _______ _______ _____ _____    ______ ____

>  <TORSDO>
F 0

$$$$
=
 OpenBabel11062410403D

 32 38  0  0  1  0  0  0  0  0999 V2000
  161.0220  212.6960  144.7400 C   0  0  0  0  0  0  0  0  0  0  0  0
  161.3890  214.4340  147.7100 C   0  0  0  0  0  2  0  0  0  0  0  0
  160.8490  210.7090  151.2860 C   0  0  0  0  0  0  0  0  0  0  0  0
  158.8840  212.9960  155.0800 N   0  0  0  0  0  0  0  0  0  0  0  0
  158.9240  211.8530  155.8140 C   0  0  0  0  0  3  0  0  0  0  0  0
  161.3750  208.2420  151.8210 C   0  0  0  0  0  0  0  0  0  0  0  0
  162.0310  207.6040  150.7400 C   0  0  0  0  0  0  0  0  0  0  0  0
  161.7410  212.0620  149.3960 C   0  0  2  0  0  3  0  0  0  0  0  0
  160.2560  213.1280  151.0460 C   0  0  0  0  0  3  0  0  0  0  0  0
  159.9130  212.5890  146.7770 C   0  0  0  0  0  3  0  0  0  0  0  0
  161.4150  206.1700  153.1070 C   0  0  0  0  0  0  0  0  0  0  0  0
  160.6410  214.4480  149.0410 C   0  0  0  0  0  2  0  0  0  0  0  0
  159.3360  213.0390  153.7990 C   0  0  0  0  0  3  0  0  0  0  0  0
  159.8640  211.8900  153.1950 C   0  0  0  0  0  0  0  0  0  0  0  0
  160.3310  211.8950  151.8650 C   0  0  0  0  0  0  0  0  0  0  0  0
  160.4290  209.5770  153.3570 N   0  0  0  0  0  0  0  0  0  0  0  0
  161.2060  212.6040  143.4990 O   0  0  0  0  0  0  0  0  0  0  0  0
  162.0340  205.5250  152.0320 C   0  0  0  0  0  3  0  0  0  0  0  0
  162.0540  213.1560  145.6850 C   0  0  0  0  0  2  0  0  0  0  0  0
  159.7960  212.3640  145.3490 N   0  0  0  0  0  0  0  0  0  0  0  0
  160.8710  213.2160  149.8640 C   0  0  0  0  0  0  0  0  0  0  0  0
  162.3450  206.2400  150.8640 C   0  0  0  0  0  3  0  0  0  0  0  0
  162.1090  212.0510  147.9060 C   0  0  0  0  0  2  0  0  0  0  0  0
  161.3580  213.0620  147.0420 C   0  0  1  0  0  0  0  0  0  0  0  0
  159.4400  210.6810  155.2590 C   0  0  0  0  0  3  0  0  0  0  0  0
  159.9140  210.6940  153.9400 C   0  0  0  0  0  0  0  0  0  0  0  0
  160.5320  208.3520  153.9140 C   0  0  0  0  0  3  0  0  0  0  0  0
  161.1470  210.7200  149.8150 C   0  0  0  0  0  2  0  0  0  0  0  0
  162.4880  208.2850  149.5030 C   0  0  0  0  0  1  0  0  0  0  0  0
  161.1200  205.4720  154.2720 O   0  0  0  0  0  1  0  0  0  0  0  0
  160.9110  209.5440  152.0860 C   0  0  0  0  0  0  0  0  0  0  0  0
  161.1060  207.5230  152.9780 C   0  0  0  0  0  0  0  0  0  0  0  0
  1 20  1  0  0  0  0
  1 19  1  0  0  0  0
  2 12  1  0  0  0  0
  3 15  2  0  0  0  0
  3 31  1  0  0  0  0
  4  5  1  0  0  0  0
  6 31  2  0  0  0  0
  6 32  1  0  0  0  0
  7 22  2  0  0  0  0
  7  6  1  0  0  0  0
  8 23  1  6  0  0  0
  8 28  1  0  0  0  0
  8 21  1  0  0  0  0
  9 15  1  0  0  0  0
 10 24  1  0  0  0  0
 11 30  1  0  0  0  0
 12 21  1  0  0  0  0
 13  4  2  0  0  0  0
 14 13  1  0  0  0  0
 14 26  2  0  0  0  0
 15 14  1  0  0  0  0
 16 27  1  0  0  0  0
 16 26  1  0  0  0  0
 17  1  2  0  0  0  0
 18 11  2  0  0  0  0
 20 10  2  0  0  0  0
 21  9  2  0  0  0  0
 22 18  1  0  0  0  0
 24 19  1  6  0  0  0
 24  2  1  0  0  0  0
 24 23  1  0  0  0  0
 25  5  2  0  0  0  0
 26 25  1  0  0  0  0
 28  3  1  0  0  0  0
 29  7  1  0  0  0  0
 31 16  1  0  0  0  0
 32 11  1  0  0  0  0
 32 27  2  0  0  0  0
M  END
>  <MODEL>
3

>  <REMARK>
 VINA RESULT:      -6.6      2.043      3.210
  Name = 
  0 active torsions:
  status: ('A' for Active; 'I' for Inactive)
                            x       y       z     vdW  Elec       q    Type
                         _______ _______ _______ _____ _____    ______ ____

>  <TORSDO>
F 0

$$$$
=
 OpenBabel11062410403D

 32 38  0  0  1  0  0  0  0  0999 V2000
  155.9800  213.6030  156.5860 C   0  0  0  0  0  0  0  0  0  0  0  0
  158.6310  211.4190  157.0130 C   0  0  0  0  0  2  0  0  0  0  0  0
  160.5390  210.9840  152.2040 C   0  0  0  0  0  0  0  0  0  0  0  0
  162.3340  206.4850  152.0530 N   0  0  0  0  0  0  0  0  0  0  0  0
  162.7840  206.6870  150.7860 C   0  0  0  0  0  3  0  0  0  0  0  0
  161.0120  212.2790  150.0240 C   0  0  0  0  0  0  0  0  0  0  0  0
  160.5650  213.6210  150.1100 C   0  0  0  0  0  0  0  0  0  0  0  0
  159.8600  211.9350  154.4030 C   0  0  2  0  0  3  0  0  0  0  0  0
  160.2350  209.5100  154.2030 C   0  0  0  0  0  3  0  0  0  0  0  0
  156.7630  211.8100  155.3350 C   0  0  0  0  0  3  0  0  0  0  0  0
  161.7710  212.6460  147.7360 C   0  0  0  0  0  0  0  0  0  0  0  0
  159.1350  210.1890  156.2620 C   0  0  0  0  0  2  0  0  0  0  0  0
  161.6780  207.4560  152.7410 C   0  0  0  0  0  3  0  0  0  0  0  0
  161.4470  208.7080  152.1550 C   0  0  0  0  0  0  0  0  0  0  0  0
  160.7610  209.7340  152.8350 C   0  0  0  0  0  0  0  0  0  0  0  0
  161.6860  210.1530  150.2700 N   0  0  0  0  0  0  0  0  0  0  0  0
  155.1640  214.4350  157.0580 O   0  0  0  0  0  0  0  0  0  0  0  0
  161.3030  213.9620  147.8010 C   0  0  0  0  0  3  0  0  0  0  0  0
  157.4140  213.5840  156.9260 C   0  0  0  0  0  2  0  0  0  0  0  0
  155.5950  212.5990  155.6760 N   0  0  0  0  0  0  0  0  0  0  0  0
  159.7660  210.5180  154.9410 C   0  0  0  0  0  0  0  0  0  0  0  0
  160.7130  214.4440  148.9810 C   0  0  0  0  0  3  0  0  0  0  0  0
  158.9870  212.9860  155.1020 C   0  0  0  0  0  2  0  0  0  0  0  0
  157.9600  212.4290  156.0860 C   0  0  1  0  0  0  0  0  0  0  0  0
  162.5780  207.9150  150.1560 C   0  0  0  0  0  3  0  0  0  0  0  0
  161.9060  208.9370  150.8410 C   0  0  0  0  0  0  0  0  0  0  0  0
  162.0340  210.5310  149.0230 C   0  0  0  0  0  3  0  0  0  0  0  0
  159.6360  211.9660  152.8930 C   0  0  0  0  0  2  0  0  0  0  0  0
  160.0150  214.2560  151.3320 C   0  0  0  0  0  1  0  0  0  0  0  0
  162.3710  212.1680  146.5780 O   0  0  0  0  0  1  0  0  0  0  0  0
  161.0480  211.1760  150.8990 C   0  0  0  0  0  0  0  0  0  0  0  0
  161.6210  211.8330  148.8590 C   0  0  0  0  0  0  0  0  0  0  0  0
  1 19  1  0  0  0  0
  1 17  2  0  0  0  0
  3 15  2  0  0  0  0
  3 28  1  0  0  0  0
  4 13  1  0  0  0  0
  5  4  2  0  0  0  0
  6  7  1  0  0  0  0
  6 31  2  0  0  0  0
  7 29  1  0  0  0  0
  8 28  1  6  0  0  0
  8 21  1  0  0  0  0
  8 23  1  0  0  0  0
  9 21  2  0  0  0  0
 10 20  2  0  0  0  0
 10 24  1  0  0  0  0
 11 18  2  0  0  0  0
 11 32  1  0  0  0  0
 12  2  1  0  0  0  0
 14 13  2  0  0  0  0
 14 15  1  0  0  0  0
 15  9  1  0  0  0  0
 16 26  1  0  0  0  0
 16 31  1  0  0  0  0
 18 22  1  0  0  0  0
 20  1  1  0  0  0  0
 21 12  1  0  0  0  0
 22  7  2  0  0  0  0
 24 23  1  6  0  0  0
 24 19  1  0  0  0  0
 24  2  1  0  0  0  0
 25  5  1  0  0  0  0
 25 26  2  0  0  0  0
 26 14  1  0  0  0  0
 27 16  1  0  0  0  0
 30 11  1  0  0  0  0
 31  3  1  0  0  0  0
 32 27  2  0  0  0  0
 32  6  1  0  0  0  0
M  END
>  <MODEL>
4

>  <REMARK>
 VINA RESULT:      -5.7      3.969      7.645
  Name = 
  0 active torsions:
  status: ('A' for Active; 'I' for Inactive)
                            x       y       z     vdW  Elec       q    Type
                         _______ _______ _______ _____ _____    ______ ____

>  <TORSDO>
F 0

$$$$
