=
 OpenBabel11062408483D

 55 59  0  0  1  0  0  0  0  0999 V2000
  160.4240  212.0730  147.2830 C   0  0  0  0  0  3  0  0  0  0  0  0
  161.8420  213.6320  145.4430 C   0  0  0  0  0  0  0  0  0  0  0  0
  162.5010  213.0780  146.5440 C   0  0  0  0  0  3  0  0  0  0  0  0
  159.7640  212.6320  146.1850 C   0  0  0  0  0  3  0  0  0  0  0  0
  161.7930  212.3030  147.4670 C   0  0  0  0  0  0  0  0  0  0  0  0
  160.4720  213.4110  145.2660 C   0  0  0  0  0  3  0  0  0  0  0  0
  162.6070  214.4520  144.4630 C   0  0  0  0  0  2  0  0  0  0  0  0
  163.3850  213.5580  143.5140 C   0  0  0  0  0  2  0  0  0  0  0  0
  162.6300  213.4330  142.2030 C   0  0  0  0  0  2  0  0  0  0  0  0
  162.0710  212.0270  142.0660 C   0  0  0  0  0  2  0  0  0  0  0  0
  161.1090  210.4720  140.4940 O   0  0  0  0  0  0  0  0  0  0  0  0
  161.6430  211.7670  140.6340 C   0  0  1  0  0  0  0  0  0  0  0  0
  160.1890  211.5400  140.4070 C   0  0  1  0  0  3  0  0  0  0  0  0
  157.8120  213.0160  139.4060 C   0  0  2  0  0  3  0  0  0  0  0  0
  159.7350  209.2520  138.5040 C   0  0  0  0  0  1  0  0  0  0  0  0
  159.7430  211.7290  138.9460 C   0  0  1  0  0  3  0  0  0  0  0  0
  154.7760  210.6920  139.3540 C   0  0  0  0  0  3  0  0  0  0  0  0
  158.7470  210.7850  137.0120 F   0  0  0  0  0  0  0  0  0  0  0  0
  158.9500  210.5470  138.3630 C   0  0  1  0  0  0  0  0  0  0  0  0
  157.9720  213.3500  140.7520 O   0  0  0  0  0  1  0  0  0  0  0  0
  155.2570  209.5360  138.8910 C   0  0  0  0  0  3  0  0  0  0  0  0
  156.6570  209.4490  138.3520 C   0  0  0  0  0  2  0  0  0  0  0  0
  156.9580  211.7870  139.2490 C   0  0  0  0  0  0  0  0  0  0  0  0
  157.5990  210.4280  139.0770 C   0  0  2  0  0  3  0  0  0  0  0  0
  155.6370  211.8850  139.4340 C   0  0  0  0  0  3  0  0  0  0  0  0
  159.0670  212.9610  138.7380 O   0  0  0  0  0  0  0  0  0  0  0  0
  163.3270  211.2040  139.0210 O   0  0  0  0  0  0  0  0  0  0  0  0
  162.5850  212.0960  139.5130 C   0  0  0  0  0  0  0  0  0  0  0  0
  162.6770  213.4010  139.0450 O   0  0  0  0  0  1  0  0  0  0  0  0
  162.5080  211.6770  148.6100 C   0  0  0  0  0  2  0  0  0  0  0  0
  161.6320  210.7230  149.2690 N   0  0  0  0  0  2  0  0  0  0  0  0
  162.1000  209.4020  148.9030 C   0  0  0  0  0  2  0  0  0  0  0  0
  162.2830  208.5660  150.1580 C   0  0  0  0  0  2  0  0  0  0  0  0
  161.1640  208.7860  151.1940 C   0  0  2  0  0  3  0  0  0  0  0  0
  160.4210  210.7550  152.3950 C   0  0  0  0  0  2  0  0  0  0  0  0
  161.0250  209.9760  154.5960 C   0  0  1  0  0  3  0  0  0  0  0  0
  161.4790  209.7560  152.2540 N   0  0  0  0  0  0  0  0  0  0  0  0
  161.5940  209.0660  153.5360 C   0  0  0  0  0  2  0  0  0  0  0  0
  160.1760  210.9910  153.8680 C   0  0  0  0  0  2  0  0  0  0  0  0
  160.2350  209.2170  155.6650 C   0  0  0  0  0  2  0  0  0  0  0  0
  159.8610  206.9530  156.6480 C   0  0  0  0  0  1  0  0  0  0  0  0
  160.8990  207.9170  156.1060 C   0  0  0  0  0  2  0  0  0  0  0  0
  160.7270  207.5720  151.7420 O   0  0  0  0  0  0  0  0  0  0  0  0
  161.2600  206.5740  150.9160 C   0  0  1  0  0  3  0  0  0  0  0  0
  161.8790  205.4520  151.7460 C   0  0  0  0  0  2  0  0  0  0  0  0
  161.5800  202.9760  151.6550 C   0  0  0  0  0  1  0  0  0  0  0  0
  160.9150  204.2980  151.9910 C   0  0  0  0  0  2  0  0  0  0  0  0
  160.2510  206.0320  149.8960 C   0  0  0  0  0  2  0  0  0  0  0  0
  160.7520  205.9730  148.4840 C   0  0  0  0  0  3  0  0  0  0  0  0
  161.2550  204.8480  147.9790 C   0  0  0  0  0  3  0  0  0  0  0  0
  163.3410  204.5270  146.2950 O   0  0  0  0  0  1  0  0  0  0  0  0
  161.5600  206.2970  145.5580 O   0  0  0  0  0  0  0  0  0  0  0  0
  161.8540  204.8030  146.2950 P   0  0  2  0  0  0  0  0  0  0  0  0
  161.4030  202.3620  145.9570 O   0  0  0  0  0  1  0  0  0  0  0  0
  161.0290  203.5400  145.4040 N   0  0  0  0  0  2  0  0  0  0  0  0
  1  5  1  0  0  0  0
  2  3  1  0  0  0  0
  3  5  2  0  0  0  0
  4  1  2  0  0  0  0
  5 30  1  0  0  0  0
  6  2  2  0  0  0  0
  6  4  1  0  0  0  0
  7  2  1  0  0  0  0
  8  7  1  0  0  0  0
  9  8  1  0  0  0  0
 10  9  1  0  0  0  0
 11 12  1  0  0  0  0
 12 10  1  1  0  0  0
 13 11  1  6  0  0  0
 13 12  1  0  0  0  0
 14 20  1  1  0  0  0
 16 26  1  1  0  0  0
 16 13  1  0  0  0  0
 17 25  1  0  0  0  0
 18 19  1  0  0  0  0
 19 15  1  1  0  0  0
 19 16  1  0  0  0  0
 19 24  1  0  0  0  0
 21 17  2  0  0  0  0
 22 21  1  0  0  0  0
 23 14  1  0  0  0  0
 23 25  2  0  0  0  0
 24 22  1  6  0  0  0
 24 23  1  0  0  0  0
 26 14  1  0  0  0  0
 27 28  2  0  0  0  0
 28 12  1  0  0  0  0
 29 28  1  0  0  0  0
 30 31  1  0  0  0  0
 32 31  1  0  0  0  0
 32 33  1  0  0  0  0
 34 33  1  1  0  0  0
 34 43  1  0  0  0  0
 34 37  1  0  0  0  0
 35 39  1  0  0  0  0
 36 40  1  1  0  0  0
 37 35  1  0  0  0  0
 37 38  1  0  0  0  0
 38 36  1  0  0  0  0
 39 36  1  0  0  0  0
 40 42  1  0  0  0  0
 42 41  1  0  0  0  0
 44 48  1  1  0  0  0
 44 43  1  0  0  0  0
 44 45  1  0  0  0  0
 45 47  1  0  0  0  0
 46 47  1  0  0  0  0
 49 48  1  0  0  0  0
 50 49  2  0  0  0  0
 53 52  2  6  0  0  0
 53 51  1  0  0  0  0
 53 50  1  0  0  0  0
 55 54  1  0  0  0  0
 55 53  1  0  0  0  0
M  END
>  <MODEL>
1

>  <REMARK>
 VINA RESULT:      -7.0      0.000      0.000
  Name = 
  23 active torsions:
  status: ('A' for Active; 'I' for Inactive)
    1  A    between atoms: C_2  and  N_28
    2  A    between atoms: C_2  and  C_44
    3  A    between atoms: C_6  and  C_46
    4  A    between atoms: C_10  and  C_32
    5  A    between atoms: C_10  and  C_47
    6  A    between atoms: C_15  and  C_23
    7  A    between atoms: C_16  and  C_17
    8  A    between atoms: C_16  and  C_26
    9  A    between atoms: C_17  and  C_23
   10  A    between atoms: C_17  and  O_36
   11  A    between atoms: N_19  and  P_40
   12  A    between atoms: C_20  and  C_22
   13  A    between atoms: C_22  and  C_35
   14  A    between atoms: C_27  and  C_54
   15  A    between atoms: N_28  and  C_49
   16  A    between atoms: C_33  and  C_49
   17  A    between atoms: C_33  and  C_52
   18  A    between atoms: N_34  and  C_52
   19  A    between atoms: C_35  and  C_43
   20  A    between atoms: O_36  and  C_52
   21  A    between atoms: P_40  and  C_45
   22  A    between atoms: C_43  and  C_51
   23  A    between atoms: C_51  and  C_54
                            x       y       z     vdW  Elec       q    Type
                         _______ _______ _______ _____ _____    ______ ____

>  <TORSDO>
F 23

$$$$
=
 OpenBabel11062408483D

 55 59  0  0  1  0  0  0  0  0999 V2000
  160.3180  211.7000  147.6010 C   0  0  0  0  0  3  0  0  0  0  0  0
  161.5020  213.4990  145.8160 C   0  0  0  0  0  0  0  0  0  0  0  0
  161.7770  213.5880  147.1830 C   0  0  0  0  0  3  0  0  0  0  0  0
  160.0380  211.6140  146.2340 C   0  0  0  0  0  3  0  0  0  0  0  0
  161.1820  212.6930  148.0770 C   0  0  0  0  0  0  0  0  0  0  0  0
  160.6290  212.5130  145.3420 C   0  0  0  0  0  3  0  0  0  0  0  0
  162.1450  214.4530  144.8710 C   0  0  0  0  0  2  0  0  0  0  0  0
  163.1310  213.7290  143.9720 C   0  0  0  0  0  2  0  0  0  0  0  0
  162.5680  213.6470  142.5660 C   0  0  0  0  0  2  0  0  0  0  0  0
  162.4130  212.1910  142.1600 C   0  0  0  0  0  2  0  0  0  0  0  0
  161.2680  210.8880  140.4850 O   0  0  0  0  0  0  0  0  0  0  0  0
  161.9590  212.0920  140.7160 C   0  0  1  0  0  0  0  0  0  0  0  0
  160.4890  212.0660  140.4820 C   0  0  1  0  0  3  0  0  0  0  0  0
  158.5570  214.1430  139.6000 C   0  0  2  0  0  3  0  0  0  0  0  0
  159.4080  210.0420  138.5330 C   0  0  0  0  0  1  0  0  0  0  0  0
  160.0730  212.4160  139.0420 C   0  0  1  0  0  3  0  0  0  0  0  0
  155.0180  212.6940  139.5800 C   0  0  0  0  0  3  0  0  0  0  0  0
  158.8200  211.8310  137.1160 F   0  0  0  0  0  0  0  0  0  0  0  0
  158.9850  211.5020  138.4520 C   0  0  1  0  0  0  0  0  0  0  0  0
  158.8300  214.3770  140.9480 O   0  0  0  0  0  1  0  0  0  0  0  0
  155.1700  211.4690  139.0700 C   0  0  0  0  0  3  0  0  0  0  0  0
  156.4850  211.0390  138.4850 C   0  0  0  0  0  2  0  0  0  0  0  0
  157.4080  213.1860  139.4350 C   0  0  0  0  0  0  0  0  0  0  0  0
  157.6670  211.7130  139.2060 C   0  0  2  0  0  3  0  0  0  0  0  0
  156.1630  213.6180  139.6660 C   0  0  0  0  0  3  0  0  0  0  0  0
  159.7370  213.7870  138.8900 O   0  0  0  0  0  0  0  0  0  0  0  0
  163.7120  211.4810  139.1960 O   0  0  0  0  0  1  0  0  0  0  0  0
  162.9380  212.3830  139.6140 C   0  0  0  0  0  0  0  0  0  0  0  0
  163.0260  213.6650  139.0860 O   0  0  0  0  0  0  0  0  0  0  0  0
  161.5140  212.7630  149.5240 C   0  0  0  0  0  2  0  0  0  0  0  0
  161.1920  211.4960  150.1600 N   0  0  0  0  0  2  0  0  0  0  0  0
  162.4420  210.7870  150.3390 C   0  0  0  0  0  2  0  0  0  0  0  0
  162.3140  209.8250  151.5060 C   0  0  0  0  0  2  0  0  0  0  0  0
  160.8530  209.4410  151.8110 C   0  0  2  0  0  3  0  0  0  0  0  0
  161.4470  210.4170  153.9480 C   0  0  0  0  0  2  0  0  0  0  0  0
  159.4650  211.7690  154.1900 C   0  0  1  0  0  3  0  0  0  0  0  0
  160.3790  209.8130  153.1520 N   0  0  0  0  0  0  0  0  0  0  0  0
  159.3110  210.8020  153.0420 C   0  0  0  0  0  2  0  0  0  0  0  0
  160.8770  211.6020  154.6950 C   0  0  0  0  0  2  0  0  0  0  0  0
  159.1570  213.2140  153.7920 C   0  0  0  0  0  2  0  0  0  0  0  0
  157.2440  214.3250  152.6340 C   0  0  0  0  0  1  0  0  0  0  0  0
  157.6760  213.5680  153.8750 C   0  0  0  0  0  2  0  0  0  0  0  0
  160.6150  208.0840  151.5550 O   0  0  0  0  0  0  0  0  0  0  0  0
  161.4530  207.7520  150.4830 C   0  0  1  0  0  3  0  0  0  0  0  0
  162.4890  206.7120  150.9040 C   0  0  0  0  0  2  0  0  0  0  0  0
  161.4470  204.5310  151.5240 C   0  0  0  0  0  1  0  0  0  0  0  0
  162.0130  205.8360  152.0550 C   0  0  0  0  0  2  0  0  0  0  0  0
  160.6850  207.3100  149.2300 C   0  0  0  0  0  2  0  0  0  0  0  0
  161.3080  206.1710  148.4790 C   0  0  0  0  0  3  0  0  0  0  0  0
  161.0400  205.9690  147.1910 C   0  0  0  0  0  3  0  0  0  0  0  0
  163.2910  204.6620  146.4720 O   0  0  0  0  0  1  0  0  0  0  0  0
  161.3870  204.6980  144.6770 O   0  0  0  0  0  0  0  0  0  0  0  0
  161.7880  204.5990  146.3180 P   0  0  2  0  0  0  0  0  0  0  0  0
  161.2660  202.1730  145.9730 O   0  0  0  0  0  1  0  0  0  0  0  0
  161.1980  203.0850  146.9720 N   0  0  0  0  0  2  0  0  0  0  0  0
  1  5  1  0  0  0  0
  2  3  1  0  0  0  0
  3  5  2  0  0  0  0
  4  1  2  0  0  0  0
  5 30  1  0  0  0  0
  6  2  2  0  0  0  0
  6  4  1  0  0  0  0
  7  2  1  0  0  0  0
  8  7  1  0  0  0  0
  9  8  1  0  0  0  0
 10  9  1  0  0  0  0
 11 12  1  0  0  0  0
 12 10  1  1  0  0  0
 13 11  1  6  0  0  0
 13 12  1  0  0  0  0
 14 20  1  1  0  0  0
 16 26  1  1  0  0  0
 16 13  1  0  0  0  0
 17 25  1  0  0  0  0
 18 19  1  0  0  0  0
 19 15  1  1  0  0  0
 19 16  1  0  0  0  0
 19 24  1  0  0  0  0
 21 17  2  0  0  0  0
 22 21  1  0  0  0  0
 23 14  1  0  0  0  0
 23 25  2  0  0  0  0
 24 22  1  6  0  0  0
 24 23  1  0  0  0  0
 26 14  1  0  0  0  0
 27 28  1  0  0  0  0
 28 12  1  0  0  0  0
 29 28  2  0  0  0  0
 30 31  1  0  0  0  0
 31 32  1  0  0  0  0
 32 33  1  0  0  0  0
 34 33  1  1  0  0  0
 34 37  1  0  0  0  0
 35 39  1  0  0  0  0
 36 40  1  6  0  0  0
 36 39  1  0  0  0  0
 37 35  1  0  0  0  0
 38 37  1  0  0  0  0
 38 36  1  0  0  0  0
 40 42  1  0  0  0  0
 41 42  1  0  0  0  0
 43 34  1  0  0  0  0
 44 48  1  6  0  0  0
 44 45  1  0  0  0  0
 44 43  1  0  0  0  0
 45 47  1  0  0  0  0
 46 47  1  0  0  0  0
 49 48  1  0  0  0  0
 50 49  2  0  0  0  0
 53 52  2  6  0  0  0
 53 51  1  0  0  0  0
 53 55  1  0  0  0  0
 53 50  1  0  0  0  0
 54 55  1  0  0  0  0
M  END
>  <MODEL>
2

>  <REMARK>
 VINA RESULT:      -5.1      1.325      2.062
  Name = 
  23 active torsions:
  status: ('A' for Active; 'I' for Inactive)
    1  A    between atoms: C_2  and  N_28
    2  A    between atoms: C_2  and  C_44
    3  A    between atoms: C_6  and  C_46
    4  A    between atoms: C_10  and  C_32
    5  A    between atoms: C_10  and  C_47
    6  A    between atoms: C_15  and  C_23
    7  A    between atoms: C_16  and  C_17
    8  A    between atoms: C_16  and  C_26
    9  A    between atoms: C_17  and  C_23
   10  A    between atoms: C_17  and  O_36
   11  A    between atoms: N_19  and  P_40
   12  A    between atoms: C_20  and  C_22
   13  A    between atoms: C_22  and  C_35
   14  A    between atoms: C_27  and  C_54
   15  A    between atoms: N_28  and  C_49
   16  A    between atoms: C_33  and  C_49
   17  A    between atoms: C_33  and  C_52
   18  A    between atoms: N_34  and  C_52
   19  A    between atoms: C_35  and  C_43
   20  A    between atoms: O_36  and  C_52
   21  A    between atoms: P_40  and  C_45
   22  A    between atoms: C_43  and  C_51
   23  A    between atoms: C_51  and  C_54
                            x       y       z     vdW  Elec       q    Type
                         _______ _______ _______ _____ _____    ______ ____

>  <TORSDO>
F 23

$$$$
=
 OpenBabel11062408483D

 55 59  0  0  1  0  0  0  0  0999 V2000
  162.1180  204.3710  147.5140 C   0  0  0  0  0  3  0  0  0  0  0  0
  161.2750  204.9840  144.9180 C   0  0  0  0  0  0  0  0  0  0  0  0
  161.5860  206.0120  145.8140 C   0  0  0  0  0  3  0  0  0  0  0  0
  161.8020  203.3430  146.6210 C   0  0  0  0  0  3  0  0  0  0  0  0
  162.0030  205.7060  147.1120 C   0  0  0  0  0  0  0  0  0  0  0  0
  161.3800  203.6490  145.3240 C   0  0  0  0  0  3  0  0  0  0  0  0
  160.8380  205.3200  143.5350 C   0  0  0  0  0  2  0  0  0  0  0  0
  161.9300  206.0780  142.8010 C   0  0  0  0  0  2  0  0  0  0  0  0
  161.6240  206.0930  141.3150 C   0  0  0  0  0  2  0  0  0  0  0  0
  162.6560  206.9390  140.5890 C   0  0  0  0  0  2  0  0  0  0  0  0
  160.7140  208.1070  139.7660 O   0  0  0  0  0  0  0  0  0  0  0  0
  162.0110  207.6780  139.4310 C   0  0  1  0  0  0  0  0  0  0  0  0
  161.6950  209.1160  139.6550 C   0  0  1  0  0  3  0  0  0  0  0  0
  162.6860  211.8440  139.0220 C   0  0  2  0  0  3  0  0  0  0  0  0
  158.9730  209.6920  138.5060 C   0  0  0  0  0  1  0  0  0  0  0  0
  161.4750  209.9220  138.3630 C   0  0  1  0  0  3  0  0  0  0  0  0
  160.2010  214.4530  140.3040 C   0  0  0  0  0  3  0  0  0  0  0  0
  160.0010  211.2130  137.0280 F   0  0  0  0  0  0  0  0  0  0  0  0
  160.1270  210.6610  138.2930 C   0  0  1  0  0  0  0  0  0  0  0  0
  163.3600  211.4140  140.1650 O   0  0  0  0  0  1  0  0  0  0  0  0
  159.0050  213.9410  140.0000 C   0  0  0  0  0  3  0  0  0  0  0  0
  158.8910  212.7140  139.1420 C   0  0  0  0  0  2  0  0  0  0  0  0
  161.3960  212.5330  139.3770 C   0  0  0  0  0  0  0  0  0  0  0  0
  160.0900  211.7700  139.3500 C   0  0  2  0  0  3  0  0  0  0  0  0
  161.4370  213.7710  139.8820 C   0  0  0  0  0  3  0  0  0  0  0  0
  162.5590  210.7920  138.0730 O   0  0  0  0  0  0  0  0  0  0  0  0
  162.9040  206.1890  137.7760 O   0  0  0  0  0  1  0  0  0  0  0  0
  162.0520  207.0740  138.0570 C   0  0  0  0  0  0  0  0  0  0  0  0
  161.1810  207.5270  137.0750 O   0  0  0  0  0  0  0  0  0  0  0  0
  162.3770  206.8020  148.0450 C   0  0  0  0  0  2  0  0  0  0  0  0
  161.1770  207.4800  148.5060 N   0  0  0  0  0  2  0  0  0  0  0  0
  160.6260  206.6740  149.5760 C   0  0  0  0  0  2  0  0  0  0  0  0
  160.7020  207.4470  150.8810 C   0  0  0  0  0  2  0  0  0  0  0  0
  162.0190  207.2080  151.6440 C   0  0  2  0  0  3  0  0  0  0  0  0
  161.0180  205.4720  153.0070 C   0  0  0  0  0  2  0  0  0  0  0  0
  161.5780  203.6290  151.5560 C   0  0  1  0  0  3  0  0  0  0  0  0
  162.1780  205.8570  152.2030 N   0  0  0  0  0  0  0  0  0  0  0  0
  162.2930  204.8840  151.1200 C   0  0  0  0  0  2  0  0  0  0  0  0
  160.6720  204.0340  152.6940 C   0  0  0  0  0  2  0  0  0  0  0  0
  160.8130  202.9570  150.4140 C   0  0  0  0  0  2  0  0  0  0  0  0
  161.0300  200.9780  148.9070 C   0  0  0  0  0  1  0  0  0  0  0  0
  161.0160  201.4470  150.3490 C   0  0  0  0  0  2  0  0  0  0  0  0
  162.2270  208.1830  152.6280 O   0  0  0  0  0  0  0  0  0  0  0  0
  160.9670  208.7470  152.8680 C   0  0  1  0  0  3  0  0  0  0  0  0
  160.6990  208.8660  154.3670 C   0  0  0  0  0  2  0  0  0  0  0  0
  161.2930  207.7810  156.5350 C   0  0  0  0  0  1  0  0  0  0  0  0
  160.8550  207.5400  155.1010 C   0  0  0  0  0  2  0  0  0  0  0  0
  160.7580  210.0860  152.1490 C   0  0  0  0  0  2  0  0  0  0  0  0
  159.9440  211.0900  152.9100 C   0  0  0  0  0  3  0  0  0  0  0  0
  158.9040  211.7020  152.3460 C   0  0  0  0  0  3  0  0  0  0  0  0
  157.2070  213.8010  152.3110 O   0  0  0  0  0  0  0  0  0  0  0  0
  159.0000  213.8340  154.2170 O   0  0  0  0  0  1  0  0  0  0  0  0
  157.9530  212.9010  153.2700 P   0  0  2  0  0  0  0  0  0  0  0  0
  155.8450  212.9790  154.6220 O   0  0  0  0  0  1  0  0  0  0  0  0
  156.8060  212.0770  154.3070 N   0  0  0  0  0  2  0  0  0  0  0  0
  2  6  2  0  0  0  0
  2  3  1  0  0  0  0
  3  5  2  0  0  0  0
  4  1  2  0  0  0  0
  5  1  1  0  0  0  0
  5 30  1  0  0  0  0
  6  4  1  0  0  0  0
  7  2  1  0  0  0  0
  8  7  1  0  0  0  0
  9  8  1  0  0  0  0
 10  9  1  0  0  0  0
 12 13  1  0  0  0  0
 12 11  1  0  0  0  0
 12 10  1  1  0  0  0
 13 11  1  1  0  0  0
 14 23  1  0  0  0  0
 14 20  1  1  0  0  0
 16 26  1  1  0  0  0
 16 13  1  0  0  0  0
 18 19  1  0  0  0  0
 19 16  1  0  0  0  0
 19 15  1  1  0  0  0
 19 24  1  0  0  0  0
 21 17  2  0  0  0  0
 22 21  1  0  0  0  0
 23 25  2  0  0  0  0
 24 22  1  6  0  0  0
 24 23  1  0  0  0  0
 25 17  1  0  0  0  0
 26 14  1  0  0  0  0
 27 28  1  0  0  0  0
 28 12  1  0  0  0  0
 29 28  2  0  0  0  0
 30 31  1  0  0  0  0
 31 32  1  0  0  0  0
 32 33  1  0  0  0  0
 34 33  1  1  0  0  0
 34 37  1  0  0  0  0
 34 43  1  0  0  0  0
 36 40  1  6  0  0  0
 36 39  1  0  0  0  0
 37 35  1  0  0  0  0
 38 36  1  0  0  0  0
 38 37  1  0  0  0  0
 39 35  1  0  0  0  0
 41 42  1  0  0  0  0
 42 40  1  0  0  0  0
 43 44  1  0  0  0  0
 44 48  1  1  0  0  0
 44 45  1  0  0  0  0
 45 47  1  0  0  0  0
 47 46  1  0  0  0  0
 48 49  1  0  0  0  0
 50 49  2  0  0  0  0
 50 53  1  0  0  0  0
 53 51  2  6  0  0  0
 53 52  1  0  0  0  0
 53 55  1  0  0  0  0
 55 54  1  0  0  0  0
M  END
>  <MODEL>
3

>  <REMARK>
 VINA RESULT:      -5.1      3.746      6.797
  Name = 
  23 active torsions:
  status: ('A' for Active; 'I' for Inactive)
    1  A    between atoms: C_2  and  N_28
    2  A    between atoms: C_2  and  C_44
    3  A    between atoms: C_6  and  C_46
    4  A    between atoms: C_10  and  C_32
    5  A    between atoms: C_10  and  C_47
    6  A    between atoms: C_15  and  C_23
    7  A    between atoms: C_16  and  C_17
    8  A    between atoms: C_16  and  C_26
    9  A    between atoms: C_17  and  C_23
   10  A    between atoms: C_17  and  O_36
   11  A    between atoms: N_19  and  P_40
   12  A    between atoms: C_20  and  C_22
   13  A    between atoms: C_22  and  C_35
   14  A    between atoms: C_27  and  C_54
   15  A    between atoms: N_28  and  C_49
   16  A    between atoms: C_33  and  C_49
   17  A    between atoms: C_33  and  C_52
   18  A    between atoms: N_34  and  C_52
   19  A    between atoms: C_35  and  C_43
   20  A    between atoms: O_36  and  C_52
   21  A    between atoms: P_40  and  C_45
   22  A    between atoms: C_43  and  C_51
   23  A    between atoms: C_51  and  C_54
                            x       y       z     vdW  Elec       q    Type
                         _______ _______ _______ _____ _____    ______ ____

>  <TORSDO>
F 23

$$$$
=
 OpenBabel11062408483D

 55 59  0  0  1  0  0  0  0  0999 V2000
  161.6670  203.6320  147.1240 C   0  0  0  0  0  3  0  0  0  0  0  0
  161.0980  204.6330  144.5750 C   0  0  0  0  0  0  0  0  0  0  0  0
  161.5580  205.4920  145.5770 C   0  0  0  0  0  3  0  0  0  0  0  0
  161.2010  202.7730  146.1240 C   0  0  0  0  0  3  0  0  0  0  0  0
  161.8380  204.9940  146.8530 C   0  0  0  0  0  0  0  0  0  0  0  0
  160.9160  203.2740  144.8510 C   0  0  0  0  0  3  0  0  0  0  0  0
  160.8070  205.1730  143.2180 C   0  0  0  0  0  2  0  0  0  0  0  0
  162.0290  205.8750  142.6520 C   0  0  0  0  0  2  0  0  0  0  0  0
  161.5950  206.8740  141.5960 C   0  0  0  0  0  2  0  0  0  0  0  0
  162.4260  206.6830  140.3390 C   0  0  0  0  0  2  0  0  0  0  0  0
  160.5700  207.8670  139.3550 O   0  0  0  0  0  0  0  0  0  0  0  0
  161.9520  207.6230  139.2460 C   0  0  1  0  0  0  0  0  0  0  0  0
  161.4220  208.9420  139.6900 C   0  0  1  0  0  3  0  0  0  0  0  0
  162.1640  211.8110  139.9000 C   0  0  2  0  0  3  0  0  0  0  0  0
  158.9560  209.5600  138.0770 C   0  0  0  0  0  1  0  0  0  0  0  0
  161.3800  210.0100  138.5830 C   0  0  1  0  0  3  0  0  0  0  0  0
  159.1470  213.8450  141.0770 C   0  0  0  0  0  3  0  0  0  0  0  0
  160.0710  211.4600  137.2400 F   0  0  0  0  0  0  0  0  0  0  0  0
  159.9940  210.6380  138.3530 C   0  0  1  0  0  0  0  0  0  0  0  0
  162.6290  211.1780  141.0530 O   0  0  0  0  0  1  0  0  0  0  0  0
  158.1200  213.3280  140.3980 C   0  0  0  0  0  3  0  0  0  0  0  0
  158.3510  212.3320  139.2980 C   0  0  0  0  0  2  0  0  0  0  0  0
  160.7500  212.2960  140.0770 C   0  0  0  0  0  0  0  0  0  0  0  0
  159.5900  211.4610  139.5800 C   0  0  2  0  0  3  0  0  0  0  0  0
  160.5230  213.3800  140.8260 C   0  0  0  0  0  3  0  0  0  0  0  0
  162.3800  211.0050  138.7480 O   0  0  0  0  0  0  0  0  0  0  0  0
  162.6440  208.3210  137.0580 O   0  0  0  0  0  0  0  0  0  0  0  0
  162.3540  207.3620  137.8230 C   0  0  0  0  0  0  0  0  0  0  0  0
  162.3620  206.0630  137.3330 O   0  0  0  0  0  1  0  0  0  0  0  0
  162.3710  205.9030  147.9010 C   0  0  0  0  0  2  0  0  0  0  0  0
  161.3970  206.9440  148.1840 N   0  0  0  0  0  2  0  0  0  0  0  0
  160.7950  206.6190  149.4600 C   0  0  0  0  0  2  0  0  0  0  0  0
  160.9010  207.8170  150.3880 C   0  0  0  0  0  2  0  0  0  0  0  0
  162.2310  207.8570  151.1670 C   0  0  2  0  0  3  0  0  0  0  0  0
  161.4080  206.8560  153.2150 C   0  0  0  0  0  2  0  0  0  0  0  0
  161.5470  204.5650  152.4730 C   0  0  1  0  0  3  0  0  0  0  0  0
  162.4080  206.7780  152.1500 N   0  0  0  0  0  0  0  0  0  0  0  0
  162.2410  205.4820  151.4970 C   0  0  0  0  0  2  0  0  0  0  0  0
  160.9120  205.4580  153.5120 C   0  0  0  0  0  2  0  0  0  0  0  0
  160.5280  203.6450  151.7970 C   0  0  0  0  0  2  0  0  0  0  0  0
  160.9530  201.6300  150.3860 C   0  0  0  0  0  1  0  0  0  0  0  0
  160.9700  203.1460  150.4260 C   0  0  0  0  0  2  0  0  0  0  0  0
  162.4420  209.1100  151.7570 O   0  0  0  0  0  0  0  0  0  0  0  0
  161.6310  210.0020  151.0440 C   0  0  1  0  0  3  0  0  0  0  0  0
  160.9860  211.0200  151.9810 C   0  0  0  0  0  2  0  0  0  0  0  0
  159.4630  211.0350  153.9600 C   0  0  0  0  0  1  0  0  0  0  0  0
  160.7460  210.4660  153.3800 C   0  0  0  0  0  2  0  0  0  0  0  0
  162.3620  210.6870  149.8820 C   0  0  0  0  0  2  0  0  0  0  0  0
  161.6170  211.8270  149.2540 C   0  0  0  0  0  3  0  0  0  0  0  0
  161.4100  211.8720  147.9390 C   0  0  0  0  0  3  0  0  0  0  0  0
  161.4350  214.4530  147.1470 O   0  0  0  0  0  0  0  0  0  0  0  0
  159.1770  213.6080  148.1630 O   0  0  0  0  0  1  0  0  0  0  0  0
  160.5270  213.2450  147.2110 P   0  0  2  0  0  0  0  0  0  0  0  0
  161.1240  212.6100  144.8620 O   0  0  0  0  0  1  0  0  0  0  0  0
  160.0040  212.8240  145.5930 N   0  0  0  0  0  2  0  0  0  0  0  0
  2  6  2  0  0  0  0
  2  3  1  0  0  0  0
  3  5  2  0  0  0  0
  4  1  2  0  0  0  0
  5  1  1  0  0  0  0
  5 30  1  0  0  0  0
  6  4  1  0  0  0  0
  7  2  1  0  0  0  0
  8  7  1  0  0  0  0
  9  8  1  0  0  0  0
 10  9  1  0  0  0  0
 12 11  1  0  0  0  0
 12 13  1  0  0  0  0
 12 10  1  1  0  0  0
 13 11  1  6  0  0  0
 14 23  1  0  0  0  0
 14 20  1  1  0  0  0
 16 26  1  1  0  0  0
 16 13  1  0  0  0  0
 18 19  1  0  0  0  0
 19 15  1  6  0  0  0
 19 16  1  0  0  0  0
 19 24  1  0  0  0  0
 21 17  2  0  0  0  0
 22 21  1  0  0  0  0
 23 25  2  0  0  0  0
 24 22  1  6  0  0  0
 24 23  1  0  0  0  0
 25 17  1  0  0  0  0
 26 14  1  0  0  0  0
 27 28  2  0  0  0  0
 28 12  1  0  0  0  0
 29 28  1  0  0  0  0
 30 31  1  0  0  0  0
 31 32  1  0  0  0  0
 32 33  1  0  0  0  0
 34 33  1  1  0  0  0
 34 43  1  0  0  0  0
 34 37  1  0  0  0  0
 35 39  1  0  0  0  0
 36 40  1  6  0  0  0
 36 39  1  0  0  0  0
 37 35  1  0  0  0  0
 38 37  1  0  0  0  0
 38 36  1  0  0  0  0
 41 42  1  0  0  0  0
 42 40  1  0  0  0  0
 44 48  1  6  0  0  0
 44 43  1  0  0  0  0
 44 45  1  0  0  0  0
 45 47  1  0  0  0  0
 47 46  1  0  0  0  0
 49 48  1  0  0  0  0
 50 49  2  0  0  0  0
 53 51  2  6  0  0  0
 53 50  1  0  0  0  0
 53 52  1  0  0  0  0
 54 55  1  0  0  0  0
 55 53  1  0  0  0  0
M  END
>  <MODEL>
4

>  <REMARK>
 VINA RESULT:      -4.4      3.095      6.141
  Name = 
  23 active torsions:
  status: ('A' for Active; 'I' for Inactive)
    1  A    between atoms: C_2  and  N_28
    2  A    between atoms: C_2  and  C_44
    3  A    between atoms: C_6  and  C_46
    4  A    between atoms: C_10  and  C_32
    5  A    between atoms: C_10  and  C_47
    6  A    between atoms: C_15  and  C_23
    7  A    between atoms: C_16  and  C_17
    8  A    between atoms: C_16  and  C_26
    9  A    between atoms: C_17  and  C_23
   10  A    between atoms: C_17  and  O_36
   11  A    between atoms: N_19  and  P_40
   12  A    between atoms: C_20  and  C_22
   13  A    between atoms: C_22  and  C_35
   14  A    between atoms: C_27  and  C_54
   15  A    between atoms: N_28  and  C_49
   16  A    between atoms: C_33  and  C_49
   17  A    between atoms: C_33  and  C_52
   18  A    between atoms: N_34  and  C_52
   19  A    between atoms: C_35  and  C_43
   20  A    between atoms: O_36  and  C_52
   21  A    between atoms: P_40  and  C_45
   22  A    between atoms: C_43  and  C_51
   23  A    between atoms: C_51  and  C_54
                            x       y       z     vdW  Elec       q    Type
                         _______ _______ _______ _____ _____    ______ ____

>  <TORSDO>
F 23

$$$$
