=
 OpenBabel11062408213D

 32 37  0  0  1  0  0  0  0  0999 V2000
  161.9150  209.7490  149.8590 C   0  0  2  0  0  3  0  0  0  0  0  0
  161.4080  210.5040  152.1800 C   0  0  1  0  0  3  0  0  0  0  0  0
  162.2250  210.0650  148.4200 C   0  0  0  0  0  2  0  0  0  0  0  0
  161.7830  210.7610  150.7470 C   0  0  2  0  0  3  0  0  0  0  0  0
  159.9330  210.8890  152.3640 C   0  0  1  0  0  3  0  0  0  0  0  0
  160.9720  207.3090  155.8990 C   0  0  0  0  0  3  0  0  0  0  0  0
  161.6620  209.0420  152.5910 C   0  0  2  0  0  3  0  0  0  0  0  0
  159.4730  209.2010  155.7150 C   0  0  0  0  0  3  0  0  0  0  0  0
  160.0120  209.5110  154.4630 C   0  0  0  0  0  0  0  0  0  0  0  0
  161.5940  212.1930  150.2960 C   0  0  2  0  0  3  0  0  0  0  0  0
  159.5330  210.6540  153.7480 N   0  0  0  0  0  2  0  0  0  0  0  0
  160.1330  212.6030  150.5100 C   0  0  0  0  0  2  0  0  0  0  0  0
  162.0270  212.4400  148.9130 N   0  0  0  0  0  2  0  0  0  0  0  0
  161.1410  208.1370  151.5720 N   0  0  0  0  0  2  0  0  0  0  0  0
  161.9270  208.3080  150.3450 C   0  0  1  0  0  3  0  0  0  0  0  0
  161.0540  208.7230  153.9310 C   0  0  0  0  0  0  0  0  0  0  0  0
  159.6990  212.3550  151.9640 C   0  0  1  0  0  3  0  0  0  0  0  0
  161.5620  211.3760  148.0240 C   0  0  0  0  0  2  0  0  0  0  0  0
  159.9500  208.1000  156.4310 C   0  0  0  0  0  3  0  0  0  0  0  0
  161.5230  207.6190  154.6530 C   0  0  0  0  0  3  0  0  0  0  0  0
  161.5000  204.7430  148.8990 C   0  0  1  0  0  3  0  0  0  0  0  0
  160.3350  205.7490  145.1770 Cl  0  0  0  0  0  0  0  0  0  0  0  0
  161.2030  203.3880  149.5210 C   0  0  0  0  0  1  0  0  0  0  0  0
  162.2370  206.7210  146.9560 C   0  0  0  0  0  3  0  0  0  0  0  0
  161.4740  207.3090  149.2730 C   0  0  1  0  0  3  0  0  0  0  0  0
  160.8010  204.8830  147.6250 N   0  0  0  0  0  0  0  0  0  0  0  0
  162.4310  207.3650  148.1100 C   0  0  0  0  0  3  0  0  0  0  0  0
  161.1860  205.9040  149.8560 C   0  0  1  0  0  3  0  0  0  0  0  0
  159.7470  205.8420  150.3500 C   0  0  0  0  0  1  0  0  0  0  0  0
  161.1330  205.7670  146.7330 C   0  0  0  0  0  0  0  0  0  0  0  0
  158.2910  212.6900  152.1080 N   0  0  0  0  0  2  0  0  0  0  0  0
  157.8990  213.4130  150.9110 C   0  0  0  0  0  1  0  0  0  0  0  0
  1  3  1  1  0  0  0
  1 15  1  0  0  0  0
  1  4  1  0  0  0  0
  2  5  1  0  0  0  0
  2  7  1  0  0  0  0
  4  2  1  0  0  0  0
  5 11  1  0  0  0  0
  6 19  1  0  0  0  0
  7 16  1  0  0  0  0
  8 19  2  0  0  0  0
  9  8  1  0  0  0  0
 10 12  1  0  0  0  0
 10  4  1  0  0  0  0
 11  9  1  0  0  0  0
 12 17  1  0  0  0  0
 13 10  1  0  0  0  0
 14  7  1  0  0  0  0
 15 14  1  0  0  0  0
 16  9  2  0  0  0  0
 16 20  1  0  0  0  0
 17 31  1  0  0  0  0
 17  5  1  0  0  0  0
 18  3  1  0  0  0  0
 18 13  1  0  0  0  0
 20  6  2  0  0  0  0
 21 23  1  0  0  0  0
 21 28  1  0  0  0  0
 22 30  1  0  0  0  0
 24 27  2  0  0  0  0
 25 28  1  0  0  0  0
 25 15  1  0  0  0  0
 26 21  1  0  0  0  0
 27 25  1  0  0  0  0
 28 29  1  0  0  0  0
 30 24  1  0  0  0  0
 30 26  2  0  0  0  0
 32 31  1  0  0  0  0
M  END
>  <MODEL>
1

>  <REMARK>
 VINA RESULT:      -6.3      0.000      0.000
  Name = 
  2 active torsions:
  status: ('A' for Active; 'I' for Inactive)
    1  A    between atoms: N_13  and  C_29
    2  A    between atoms: C_16  and  C_27
                            x       y       z     vdW  Elec       q    Type
                         _______ _______ _______ _____ _____    ______ ____

>  <TORSDO>
F 2

$$$$
=
 OpenBabel11062408213D

 32 37  0  0  1  0  0  0  0  0999 V2000
  160.5140  210.4380  154.9990 C   0  0  2  0  0  3  0  0  0  0  0  0
  161.7690  209.0420  153.3580 C   0  0  1  0  0  3  0  0  0  0  0  0
  160.0590  210.7060  156.4090 C   0  0  0  0  0  2  0  0  0  0  0  0
  161.3400  209.3940  154.7550 C   0  0  2  0  0  3  0  0  0  0  0  0
  160.9780  207.8030  152.9130 C   0  0  1  0  0  3  0  0  0  0  0  0
  162.2150  210.3740  148.6410 C   0  0  0  0  0  3  0  0  0  0  0  0
  161.5730  210.2150  152.3800 C   0  0  2  0  0  3  0  0  0  0  0  0
  161.8280  208.0600  149.2390 C   0  0  0  0  0  3  0  0  0  0  0  0
  161.6390  208.4320  150.5730 C   0  0  0  0  0  0  0  0  0  0  0  0
  161.5480  208.2920  155.7720 C   0  0  2  0  0  3  0  0  0  0  0  0
  161.3720  207.4300  151.5580 N   0  0  0  0  0  2  0  0  0  0  0  0
  160.7940  207.0370  155.3210 C   0  0  0  0  0  2  0  0  0  0  0  0
  161.1830  208.6770  157.1440 N   0  0  0  0  0  2  0  0  0  0  0  0
  160.2510  210.8050  152.5650 N   0  0  0  0  0  2  0  0  0  0  0  0
  160.1960  211.4290  153.8910 C   0  0  1  0  0  3  0  0  0  0  0  0
  161.7580  209.7870  150.9490 C   0  0  0  0  0  0  0  0  0  0  0  0
  161.1960  206.6370  153.8920 C   0  0  1  0  0  3  0  0  0  0  0  0
  159.9080  209.3930  157.1630 C   0  0  0  0  0  2  0  0  0  0  0  0
  162.1120  209.0290  148.2740 C   0  0  0  0  0  3  0  0  0  0  0  0
  162.0390  210.7520  149.9740 C   0  0  0  0  0  3  0  0  0  0  0  0
  157.5090  213.2010  156.0430 C   0  0  1  0  0  3  0  0  0  0  0  0
  154.5630  213.3580  153.2990 Cl  0  0  0  0  0  0  0  0  0  0  0  0
  157.5730  214.1330  157.2420 C   0  0  0  0  0  1  0  0  0  0  0  0
  156.4440  211.4480  154.0370 C   0  0  0  0  0  3  0  0  0  0  0  0
  158.8530  212.1440  154.0930 C   0  0  1  0  0  3  0  0  0  0  0  0
  156.4420  213.6120  155.1350 N   0  0  0  0  0  0  0  0  0  0  0  0
  157.7410  211.1290  154.0380 C   0  0  0  0  0  3  0  0  0  0  0  0
  158.8610  213.0860  155.3220 C   0  0  1  0  0  3  0  0  0  0  0  0
  159.3910  214.4530  154.9130 C   0  0  0  0  0  1  0  0  0  0  0  0
  155.9440  212.8230  154.2300 C   0  0  0  0  0  0  0  0  0  0  0  0
  160.4100  205.4870  153.4760 N   0  0  0  0  0  2  0  0  0  0  0  0
  161.2930  204.6170  152.7180 C   0  0  0  0  0  1  0  0  0  0  0  0
  1  3  1  1  0  0  0
  2  4  1  0  0  0  0
  3 18  1  0  0  0  0
  4  1  1  0  0  0  0
  4 10  1  0  0  0  0
  5  2  1  0  0  0  0
  5 17  1  0  0  0  0
  6 20  1  0  0  0  0
  7 14  1  0  0  0  0
  7  2  1  0  0  0  0
  8  9  2  0  0  0  0
  9 16  1  0  0  0  0
  9 11  1  0  0  0  0
 10 13  1  0  0  0  0
 11  5  1  0  0  0  0
 12 10  1  0  0  0  0
 13 18  1  0  0  0  0
 14 15  1  0  0  0  0
 15 25  1  0  0  0  0
 15  1  1  0  0  0  0
 16  7  1  0  0  0  0
 17 12  1  0  0  0  0
 19  6  2  0  0  0  0
 19  8  1  0  0  0  0
 20 16  2  0  0  0  0
 21 23  1  0  0  0  0
 22 30  1  0  0  0  0
 24 27  2  0  0  0  0
 24 30  1  0  0  0  0
 25 28  1  0  0  0  0
 26 21  1  0  0  0  0
 27 25  1  0  0  0  0
 28 21  1  0  0  0  0
 29 28  1  0  0  0  0
 30 26  2  0  0  0  0
 31 17  1  0  0  0  0
 32 31  1  0  0  0  0
M  END
>  <MODEL>
2

>  <REMARK>
 VINA RESULT:      -5.9      3.315      8.050
  Name = 
  2 active torsions:
  status: ('A' for Active; 'I' for Inactive)
    1  A    between atoms: N_13  and  C_29
    2  A    between atoms: C_16  and  C_27
                            x       y       z     vdW  Elec       q    Type
                         _______ _______ _______ _____ _____    ______ ____

>  <TORSDO>
F 2

$$$$
=
 OpenBabel11062408213D

 32 37  0  0  1  0  0  0  0  0999 V2000
  161.2420  211.4480  150.4860 C   0  0  2  0  0  3  0  0  0  0  0  0
  159.9330  212.8980  152.0350 C   0  0  1  0  0  3  0  0  0  0  0  0
  161.9650  211.2470  149.1810 C   0  0  0  0  0  2  0  0  0  0  0  0
  160.7220  212.6630  150.7770 C   0  0  2  0  0  3  0  0  0  0  0  0
  158.4460  212.9680  151.6610 C   0  0  1  0  0  3  0  0  0  0  0  0
  158.6630  211.3810  156.5420 C   0  0  0  0  0  3  0  0  0  0  0  0
  160.1960  211.8120  153.0950 C   0  0  2  0  0  3  0  0  0  0  0  0
  157.1100  212.6480  155.1820 C   0  0  0  0  0  3  0  0  0  0  0  0
  157.9890  212.5670  154.0970 C   0  0  0  0  0  0  0  0  0  0  0  0
  160.5380  213.7220  149.7120 C   0  0  2  0  0  3  0  0  0  0  0  0
  157.6480  213.1990  152.8600 N   0  0  0  0  0  2  0  0  0  0  0  0
  159.0510  213.8290  149.3560 C   0  0  0  0  0  2  0  0  0  0  0  0
  161.3660  213.5100  148.5160 N   0  0  0  0  0  2  0  0  0  0  0  0
  160.1320  210.4900  152.4810 N   0  0  0  0  0  2  0  0  0  0  0  0
  161.2500  210.3530  151.5410 C   0  0  1  0  0  3  0  0  0  0  0  0
  159.2250  211.9020  154.2410 C   0  0  0  0  0  0  0  0  0  0  0  0
  158.1990  214.0670  150.6140 C   0  0  1  0  0  3  0  0  0  0  0  0
  161.3290  212.1090  148.1000 C   0  0  0  0  0  2  0  0  0  0  0  0
  157.4450  212.0530  156.4010 C   0  0  0  0  0  3  0  0  0  0  0  0
  159.5500  211.3060  155.4650 C   0  0  0  0  0  3  0  0  0  0  0  0
  162.5430  206.7100  151.3240 C   0  0  1  0  0  3  0  0  0  0  0  0
  160.7780  205.6610  147.8580 Cl  0  0  0  0  0  0  0  0  0  0  0  0
  162.9980  205.6960  152.3610 C   0  0  0  0  0  1  0  0  0  0  0  0
  162.0690  207.9450  148.7780 C   0  0  0  0  0  3  0  0  0  0  0  0
  161.2770  208.9410  150.9400 C   0  0  1  0  0  3  0  0  0  0  0  0
  161.7800  206.0510  150.2680 N   0  0  0  0  0  0  0  0  0  0  0  0
  161.9980  208.9810  149.6180 C   0  0  0  0  0  3  0  0  0  0  0  0
  161.7620  207.8750  151.9530 C   0  0  1  0  0  3  0  0  0  0  0  0
  160.5800  207.3740  152.7720 C   0  0  0  0  0  1  0  0  0  0  0  0
  161.5680  206.5960  149.1080 C   0  0  0  0  0  0  0  0  0  0  0  0
  156.7930  214.0920  150.2430 N   0  0  0  0  0  2  0  0  0  0  0  0
  156.6520  213.2810  149.0460 C   0  0  0  0  0  1  0  0  0  0  0  0
  1  3  1  1  0  0  0
  1  4  1  0  0  0  0
  1 15  1  0  0  0  0
  2  7  1  0  0  0  0
  4  2  1  0  0  0  0
  5  2  1  0  0  0  0
  5 11  1  0  0  0  0
  7 16  1  0  0  0  0
  8 19  2  0  0  0  0
  9 16  2  0  0  0  0
  9  8  1  0  0  0  0
 10  4  1  0  0  0  0
 11  9  1  0  0  0  0
 12 10  1  0  0  0  0
 12 17  1  0  0  0  0
 13 10  1  0  0  0  0
 14  7  1  0  0  0  0
 15 14  1  0  0  0  0
 16 20  1  0  0  0  0
 17  5  1  0  0  0  0
 18 13  1  0  0  0  0
 18  3  1  0  0  0  0
 19  6  1  0  0  0  0
 20  6  2  0  0  0  0
 21 28  1  0  0  0  0
 21 23  1  0  0  0  0
 22 30  1  0  0  0  0
 24 30  1  0  0  0  0
 24 27  2  0  0  0  0
 25 15  1  0  0  0  0
 25 28  1  0  0  0  0
 26 21  1  0  0  0  0
 27 25  1  0  0  0  0
 28 29  1  0  0  0  0
 30 26  2  0  0  0  0
 31 17  1  0  0  0  0
 32 31  1  0  0  0  0
M  END
>  <MODEL>
3

>  <REMARK>
 VINA RESULT:      -5.6      1.933      2.961
  Name = 
  2 active torsions:
  status: ('A' for Active; 'I' for Inactive)
    1  A    between atoms: N_13  and  C_29
    2  A    between atoms: C_16  and  C_27
                            x       y       z     vdW  Elec       q    Type
                         _______ _______ _______ _____ _____    ______ ____

>  <TORSDO>
F 2

$$$$
=
 OpenBabel11062408213D

 32 37  0  0  1  0  0  0  0  0999 V2000
  160.7630  210.3720  155.2030 C   0  0  2  0  0  3  0  0  0  0  0  0
  161.8800  209.0950  153.3760 C   0  0  1  0  0  3  0  0  0  0  0  0
  160.3670  210.5090  156.6490 C   0  0  0  0  0  2  0  0  0  0  0  0
  161.5150  209.3150  154.8180 C   0  0  2  0  0  3  0  0  0  0  0  0
  161.0010  207.9620  152.8280 C   0  0  1  0  0  3  0  0  0  0  0  0
  162.2690  210.9120  148.8180 C   0  0  0  0  0  3  0  0  0  0  0  0
  161.7290  210.3790  152.5390 C   0  0  2  0  0  3  0  0  0  0  0  0
  161.7570  208.5720  149.1750 C   0  0  0  0  0  3  0  0  0  0  0  0
  161.6310  208.8050  150.5480 C   0  0  0  0  0  0  0  0  0  0  0  0
  161.6840  208.0980  155.7010 C   0  0  2  0  0  3  0  0  0  0  0  0
  161.3310  207.7180  151.4270 N   0  0  0  0  0  2  0  0  0  0  0  0
  160.8410  206.9460  155.1440 C   0  0  0  0  0  2  0  0  0  0  0  0
  161.3850  208.3490  157.1180 N   0  0  0  0  0  2  0  0  0  0  0  0
  160.4520  211.0200  152.8340 N   0  0  0  0  0  2  0  0  0  0  0  0
  160.4740  211.4970  154.2210 C   0  0  1  0  0  3  0  0  0  0  0  0
  161.8440  210.1010  151.0640 C   0  0  0  0  0  0  0  0  0  0  0  0
  161.1760  206.6840  153.6660 C   0  0  1  0  0  3  0  0  0  0  0  0
  160.1580  209.1320  157.2610 C   0  0  0  0  0  2  0  0  0  0  0  0
  162.0720  209.6240  148.3110 C   0  0  0  0  0  3  0  0  0  0  0  0
  162.1560  211.1500  150.1900 C   0  0  0  0  0  3  0  0  0  0  0  0
  157.6100  213.9620  153.3840 C   0  0  1  0  0  3  0  0  0  0  0  0
  155.9850  214.2520  157.0590 Cl  0  0  0  0  0  0  0  0  0  0  0  0
  156.8420  214.2840  152.1130 C   0  0  0  0  0  1  0  0  0  0  0  0
  158.5840  214.1590  156.0760 C   0  0  0  0  0  3  0  0  0  0  0  0
  159.1850  212.2620  154.5470 C   0  0  1  0  0  3  0  0  0  0  0  0
  156.7150  213.9810  154.5380 N   0  0  0  0  0  0  0  0  0  0  0  0
  159.5080  213.3930  155.4900 C   0  0  0  0  0  3  0  0  0  0  0  0
  158.3810  212.6370  153.2780 C   0  0  1  0  0  3  0  0  0  0  0  0
  157.4590  211.4860  152.9000 C   0  0  0  0  0  1  0  0  0  0  0  0
  157.1440  214.0800  155.7600 C   0  0  0  0  0  0  0  0  0  0  0  0
  160.3080  205.6350  153.1560 N   0  0  0  0  0  2  0  0  0  0  0  0
  161.1660  204.5850  152.6350 C   0  0  0  0  0  1  0  0  0  0  0  0
  1  3  1  1  0  0  0
  2  4  1  0  0  0  0
  3 18  1  0  0  0  0
  4  1  1  0  0  0  0
  4 10  1  0  0  0  0
  5  2  1  0  0  0  0
  5 17  1  0  0  0  0
  6 20  1  0  0  0  0
  7 14  1  0  0  0  0
  7  2  1  0  0  0  0
  8  9  2  0  0  0  0
  9 16  1  0  0  0  0
  9 11  1  0  0  0  0
 10 13  1  0  0  0  0
 11  5  1  0  0  0  0
 12 10  1  0  0  0  0
 13 18  1  0  0  0  0
 14 15  1  0  0  0  0
 15 25  1  0  0  0  0
 15  1  1  0  0  0  0
 16  7  1  0  0  0  0
 17 12  1  0  0  0  0
 19  6  2  0  0  0  0
 19  8  1  0  0  0  0
 20 16  2  0  0  0  0
 21 26  1  0  0  0  0
 23 21  1  0  0  0  0
 25 27  1  0  0  0  0
 26 30  2  0  0  0  0
 27 24  2  0  0  0  0
 28 21  1  0  0  0  0
 28 25  1  0  0  0  0
 29 28  1  0  0  0  0
 30 24  1  0  0  0  0
 30 22  1  0  0  0  0
 31 17  1  0  0  0  0
 32 31  1  0  0  0  0
M  END
>  <MODEL>
4

>  <REMARK>
 VINA RESULT:      -5.6      3.499      8.153
  Name = 
  2 active torsions:
  status: ('A' for Active; 'I' for Inactive)
    1  A    between atoms: N_13  and  C_29
    2  A    between atoms: C_16  and  C_27
                            x       y       z     vdW  Elec       q    Type
                         _______ _______ _______ _____ _____    ______ ____

>  <TORSDO>
F 2

$$$$
=
 OpenBabel11062408213D

 32 37  0  0  1  0  0  0  0  0999 V2000
  162.1130  209.2780  150.5160 C   0  0  2  0  0  3  0  0  0  0  0  0
  161.4720  210.4530  152.6190 C   0  0  1  0  0  3  0  0  0  0  0  0
  162.4410  209.3120  149.0470 C   0  0  0  0  0  2  0  0  0  0  0  0
  161.8700  210.4370  151.1690 C   0  0  2  0  0  3  0  0  0  0  0  0
  159.9650  210.7380  152.6980 C   0  0  1  0  0  3  0  0  0  0  0  0
  161.1820  208.0780  156.9200 C   0  0  0  0  0  3  0  0  0  0  0  0
  161.8320  209.1360  153.3320 C   0  0  2  0  0  3  0  0  0  0  0  0
  159.5390  209.7530  156.3220 C   0  0  0  0  0  3  0  0  0  0  0  0
  160.0900  209.8410  155.0400 C   0  0  0  0  0  0  0  0  0  0  0  0
  161.5790  211.7220  150.4240 C   0  0  2  0  0  3  0  0  0  0  0  0
  159.5430  210.7640  154.0940 N   0  0  0  0  0  2  0  0  0  0  0  0
  160.0840  212.0390  150.5260 C   0  0  0  0  0  2  0  0  0  0  0  0
  162.0340  211.7110  149.0260 N   0  0  0  0  0  2  0  0  0  0  0  0
  161.4190  207.9980  152.5180 N   0  0  0  0  0  2  0  0  0  0  0  0
  162.2270  207.9760  151.2940 C   0  0  1  0  0  3  0  0  0  0  0  0
  161.2100  209.0530  154.7000 C   0  0  0  0  0  0  0  0  0  0  0  0
  159.6250  212.0630  151.9940 C   0  0  1  0  0  3  0  0  0  0  0  0
  161.6860  210.4490  148.3740 C   0  0  0  0  0  2  0  0  0  0  0  0
  160.0810  208.8710  157.2590 C   0  0  0  0  0  3  0  0  0  0  0  0
  161.7440  208.1680  155.6450 C   0  0  0  0  0  3  0  0  0  0  0  0
  160.6360  206.1970  148.2460 C   0  0  1  0  0  3  0  0  0  0  0  0
  161.0970  202.3890  149.4770 Cl  0  0  0  0  0  0  0  0  0  0  0  0
  160.4560  206.5780  146.7860 C   0  0  0  0  0  1  0  0  0  0  0  0
  160.3660  204.7670  150.7190 C   0  0  0  0  0  3  0  0  0  0  0  0
  161.8910  206.7400  150.4500 C   0  0  1  0  0  3  0  0  0  0  0  0
  160.9610  204.7790  148.3660 N   0  0  0  0  0  0  0  0  0  0  0  0
  160.7890  205.9660  151.1250 C   0  0  0  0  0  3  0  0  0  0  0  0
  161.6710  207.0840  148.9560 C   0  0  1  0  0  3  0  0  0  0  0  0
  163.0080  207.0690  148.2270 C   0  0  0  0  0  1  0  0  0  0  0  0
  160.8320  204.1180  149.4780 C   0  0  0  0  0  0  0  0  0  0  0  0
  158.1910  212.2980  152.0450 N   0  0  0  0  0  2  0  0  0  0  0  0
  157.9030  213.3880  151.1290 C   0  0  0  0  0  1  0  0  0  0  0  0
  1  3  1  1  0  0  0
  1  4  1  0  0  0  0
  1 15  1  0  0  0  0
  2  5  1  0  0  0  0
  2  7  1  0  0  0  0
  4  2  1  0  0  0  0
  5 11  1  0  0  0  0
  6 19  1  0  0  0  0
  7 16  1  0  0  0  0
  8 19  2  0  0  0  0
  9  8  1  0  0  0  0
 10 12  1  0  0  0  0
 10  4  1  0  0  0  0
 11  9  1  0  0  0  0
 12 17  1  0  0  0  0
 13 10  1  0  0  0  0
 14  7  1  0  0  0  0
 15 14  1  0  0  0  0
 16  9  2  0  0  0  0
 16 20  1  0  0  0  0
 17 31  1  0  0  0  0
 17  5  1  0  0  0  0
 18 13  1  0  0  0  0
 18  3  1  0  0  0  0
 20  6  2  0  0  0  0
 21 26  1  0  0  0  0
 21 28  1  0  0  0  0
 22 30  1  0  0  0  0
 23 21  1  0  0  0  0
 24 27  2  0  0  0  0
 25 27  1  0  0  0  0
 25 15  1  0  0  0  0
 26 30  2  0  0  0  0
 28 25  1  0  0  0  0
 29 28  1  0  0  0  0
 30 24  1  0  0  0  0
 32 31  1  0  0  0  0
M  END
>  <MODEL>
5

>  <REMARK>
 VINA RESULT:      -4.9      1.301      2.036
  Name = 
  2 active torsions:
  status: ('A' for Active; 'I' for Inactive)
    1  A    between atoms: N_13  and  C_29
    2  A    between atoms: C_16  and  C_27
                            x       y       z     vdW  Elec       q    Type
                         _______ _______ _______ _____ _____    ______ ____

>  <TORSDO>
F 2

$$$$
=
 OpenBabel11062408213D

 32 37  0  0  1  0  0  0  0  0999 V2000
  161.0820  209.6050  152.4510 C   0  0  2  0  0  3  0  0  0  0  0  0
  162.2410  210.0210  150.2840 C   0  0  1  0  0  3  0  0  0  0  0  0
  160.7790  208.7060  153.6210 C   0  0  0  0  0  2  0  0  0  0  0  0
  161.9560  209.1920  151.5050 C   0  0  2  0  0  3  0  0  0  0  0  0
  161.5070  209.3860  149.0930 C   0  0  1  0  0  3  0  0  0  0  0  0
  162.0020  214.3860  148.0220 C   0  0  0  0  0  3  0  0  0  0  0  0
  161.8310  211.4930  150.4760 C   0  0  2  0  0  3  0  0  0  0  0  0
  161.8830  212.3280  146.7500 C   0  0  0  0  0  3  0  0  0  0  0  0
  161.8270  211.5930  147.9380 C   0  0  0  0  0  0  0  0  0  0  0  0
  162.3760  207.7420  151.3920 C   0  0  2  0  0  3  0  0  0  0  0  0
  161.7640  210.1650  147.8860 N   0  0  0  0  0  2  0  0  0  0  0  0
  161.6800  207.1050  150.1840 C   0  0  0  0  0  2  0  0  0  0  0  0
  162.1490  206.9630  152.6180 N   0  0  0  0  0  2  0  0  0  0  0  0
  160.4970  211.5690  151.0610 N   0  0  0  0  0  2  0  0  0  0  0  0
  160.5500  211.0290  152.4250 C   0  0  1  0  0  3  0  0  0  0  0  0
  161.8760  212.2590  149.1810 C   0  0  0  0  0  0  0  0  0  0  0  0
  161.9390  207.9220  148.9060 C   0  0  1  0  0  3  0  0  0  0  0  0
  160.8300  207.2500  153.1810 C   0  0  0  0  0  2  0  0  0  0  0  0
  161.9670  213.7220  146.7910 C   0  0  0  0  0  3  0  0  0  0  0  0
  161.9570  213.6570  149.2130 C   0  0  0  0  0  3  0  0  0  0  0  0
  157.7080  213.0780  154.0700 C   0  0  1  0  0  3  0  0  0  0  0  0
  155.5490  210.0140  155.5480 Cl  0  0  0  0  0  0  0  0  0  0  0  0
  157.1180  214.4530  153.8050 C   0  0  0  0  0  1  0  0  0  0  0  0
  158.2650  210.5820  155.3700 C   0  0  0  0  0  3  0  0  0  0  0  0
  159.1870  211.1750  153.1130 C   0  0  1  0  0  3  0  0  0  0  0  0
  156.6540  212.1320  154.4260 N   0  0  0  0  0  0  0  0  0  0  0  0
  159.3050  210.7140  154.5440 C   0  0  0  0  0  3  0  0  0  0  0  0
  158.5580  212.5730  152.8940 C   0  0  1  0  0  3  0  0  0  0  0  0
  157.7660  212.5770  151.5940 C   0  0  0  0  0  1  0  0  0  0  0  0
  156.8930  211.0040  155.0240 C   0  0  0  0  0  0  0  0  0  0  0  0
  161.2070  207.3260  147.8000 N   0  0  0  0  0  2  0  0  0  0  0  0
  160.4580  206.2040  148.3380 C   0  0  0  0  0  1  0  0  0  0  0  0
  1  3  1  1  0  0  0
  2  7  1  0  0  0  0
  2  4  1  0  0  0  0
  4  1  1  0  0  0  0
  5  2  1  0  0  0  0
  6 20  1  0  0  0  0
  7 14  1  0  0  0  0
  8 19  1  0  0  0  0
  8  9  2  0  0  0  0
  9 16  1  0  0  0  0
 10  4  1  0  0  0  0
 10 13  1  0  0  0  0
 11  9  1  0  0  0  0
 11  5  1  0  0  0  0
 12 10  1  0  0  0  0
 13 18  1  0  0  0  0
 14 15  1  0  0  0  0
 15  1  1  0  0  0  0
 15 25  1  0  0  0  0
 16 20  2  0  0  0  0
 16  7  1  0  0  0  0
 17  5  1  0  0  0  0
 17 12  1  0  0  0  0
 18  3  1  0  0  0  0
 19  6  2  0  0  0  0
 21 26  1  0  0  0  0
 23 21  1  0  0  0  0
 25 27  1  0  0  0  0
 26 30  2  0  0  0  0
 27 24  2  0  0  0  0
 28 25  1  0  0  0  0
 28 21  1  0  0  0  0
 29 28  1  0  0  0  0
 30 24  1  0  0  0  0
 30 22  1  0  0  0  0
 31 32  1  0  0  0  0
 31 17  1  0  0  0  0
M  END
>  <MODEL>
6

>  <REMARK>
 VINA RESULT:      -4.7      2.833      7.669
  Name = 
  2 active torsions:
  status: ('A' for Active; 'I' for Inactive)
    1  A    between atoms: N_13  and  C_29
    2  A    between atoms: C_16  and  C_27
                            x       y       z     vdW  Elec       q    Type
                         _______ _______ _______ _____ _____    ______ ____

>  <TORSDO>
F 2

$$$$
=
 OpenBabel11062408213D

 32 37  0  0  1  0  0  0  0  0999 V2000
  161.0650  211.6990  150.7620 C   0  0  2  0  0  3  0  0  0  0  0  0
  159.3980  213.5370  151.0010 C   0  0  1  0  0  3  0  0  0  0  0  0
  162.1580  211.0180  149.9810 C   0  0  0  0  0  2  0  0  0  0  0  0
  160.5370  212.8540  150.2960 C   0  0  2  0  0  3  0  0  0  0  0  0
  158.1140  213.2740  150.2020 C   0  0  1  0  0  3  0  0  0  0  0  0
  156.6820  214.0470  155.0740 C   0  0  0  0  0  3  0  0  0  0  0  0
  159.2570  213.0670  152.4610 C   0  0  2  0  0  3  0  0  0  0  0  0
  155.7070  214.4070  152.8870 C   0  0  0  0  0  3  0  0  0  0  0  0
  156.8820  213.9480  152.2840 C   0  0  0  0  0  0  0  0  0  0  0  0
  160.7520  213.3050  148.8670 C   0  0  2  0  0  3  0  0  0  0  0  0
  156.9850  213.9260  150.8570 N   0  0  0  0  0  2  0  0  0  0  0  0
  159.4650  213.0830  148.0660 C   0  0  0  0  0  2  0  0  0  0  0  0
  161.9090  212.6740  148.2150 N   0  0  0  0  0  2  0  0  0  0  0  0
  159.3320  211.6120  152.5280 N   0  0  0  0  0  2  0  0  0  0  0  0
  160.6850  211.1920  152.1440 C   0  0  1  0  0  3  0  0  0  0  0  0
  157.9750  213.5520  153.0830 C   0  0  0  0  0  0  0  0  0  0  0  0
  158.2660  213.7620  148.7510 C   0  0  1  0  0  3  0  0  0  0  0  0
  161.9430  211.2390  148.4910 C   0  0  0  0  0  2  0  0  0  0  0  0
  155.6060  214.4530  154.2800 C   0  0  0  0  0  3  0  0  0  0  0  0
  157.8630  213.5980  154.4780 C   0  0  0  0  0  3  0  0  0  0  0  0
  161.6790  207.9840  154.0700 C   0  0  1  0  0  3  0  0  0  0  0  0
  161.3370  205.3470  151.0440 Cl  0  0  0  0  0  0  0  0  0  0  0  0
  161.6150  207.5780  155.5330 C   0  0  0  0  0  1  0  0  0  0  0  0
  162.3340  207.9320  151.2770 C   0  0  0  0  0  3  0  0  0  0  0  0
  160.8370  209.6730  152.2900 C   0  0  1  0  0  3  0  0  0  0  0  0
  161.3430  206.8530  153.2110 N   0  0  0  0  0  0  0  0  0  0  0  0
  162.0190  209.2150  151.4750 C   0  0  0  0  0  3  0  0  0  0  0  0
  160.8060  209.2120  153.7680 C   0  0  1  0  0  3  0  0  0  0  0  0
  159.3630  208.9880  154.2010 C   0  0  0  0  0  1  0  0  0  0  0  0
  161.6440  206.8130  151.9480 C   0  0  0  0  0  0  0  0  0  0  0  0
  157.0560  213.4700  148.0000 N   0  0  0  0  0  2  0  0  0  0  0  0
  157.4400  212.6260  146.8820 C   0  0  0  0  0  1  0  0  0  0  0  0
  1  3  1  1  0  0  0
  1 15  1  0  0  0  0
  2  7  1  0  0  0  0
  4  1  1  0  0  0  0
  4  2  1  0  0  0  0
  5 11  1  0  0  0  0
  5  2  1  0  0  0  0
  7 14  1  0  0  0  0
  7 16  1  0  0  0  0
  8 19  1  0  0  0  0
  9  8  2  0  0  0  0
  9 16  1  0  0  0  0
 10  4  1  0  0  0  0
 11  9  1  0  0  0  0
 12 17  1  0  0  0  0
 12 10  1  0  0  0  0
 13 18  1  0  0  0  0
 13 10  1  0  0  0  0
 15 25  1  0  0  0  0
 15 14  1  0  0  0  0
 16 20  2  0  0  0  0
 17  5  1  0  0  0  0
 18  3  1  0  0  0  0
 19  6  2  0  0  0  0
 20  6  1  0  0  0  0
 21 23  1  0  0  0  0
 22 30  1  0  0  0  0
 24 27  2  0  0  0  0
 24 30  1  0  0  0  0
 25 28  1  0  0  0  0
 26 21  1  0  0  0  0
 27 25  1  0  0  0  0
 28 21  1  0  0  0  0
 28 29  1  0  0  0  0
 30 26  2  0  0  0  0
 31 17  1  0  0  0  0
 32 31  1  0  0  0  0
M  END
>  <MODEL>
7

>  <REMARK>
 VINA RESULT:      -4.4      2.540      4.901
  Name = 
  2 active torsions:
  status: ('A' for Active; 'I' for Inactive)
    1  A    between atoms: N_13  and  C_29
    2  A    between atoms: C_16  and  C_27
                            x       y       z     vdW  Elec       q    Type
                         _______ _______ _______ _____ _____    ______ ____

>  <TORSDO>
F 2

$$$$
=
 OpenBabel11062408213D

 32 37  0  0  1  0  0  0  0  0999 V2000
  161.7460  208.9980  152.6870 C   0  0  2  0  0  3  0  0  0  0  0  0
  162.3310  209.1660  150.2690 C   0  0  1  0  0  3  0  0  0  0  0  0
  161.6160  208.1840  153.9470 C   0  0  0  0  0  2  0  0  0  0  0  0
  162.2440  208.4180  151.5700 C   0  0  2  0  0  3  0  0  0  0  0  0
  161.2020  208.6680  149.3540 C   0  0  1  0  0  3  0  0  0  0  0  0
  162.2690  213.4750  147.8900 C   0  0  0  0  0  3  0  0  0  0  0  0
  162.2570  210.6910  150.4720 C   0  0  2  0  0  3  0  0  0  0  0  0
  161.4480  211.4620  146.8210 C   0  0  0  0  0  3  0  0  0  0  0  0
  161.5850  210.7630  148.0240 C   0  0  0  0  0  0  0  0  0  0  0  0
  162.3530  206.9140  151.4380 C   0  0  2  0  0  3  0  0  0  0  0  0
  161.2580  209.3720  148.0770 N   0  0  0  0  0  2  0  0  0  0  0  0
  161.2550  206.4070  150.4980 C   0  0  0  0  0  2  0  0  0  0  0  0
  162.3310  206.2050  152.7260 N   0  0  0  0  0  2  0  0  0  0  0  0
  161.1650  211.0210  151.3830 N   0  0  0  0  0  2  0  0  0  0  0  0
  161.4880  210.4960  152.7150 C   0  0  1  0  0  3  0  0  0  0  0  0
  162.0860  211.4220  149.1680 C   0  0  0  0  0  0  0  0  0  0  0  0
  161.3010  207.1460  149.1500 C   0  0  1  0  0  3  0  0  0  0  0  0
  161.2870  206.7400  153.5980 C   0  0  0  0  0  2  0  0  0  0  0  0
  161.7860  212.8160  146.7550 C   0  0  0  0  0  3  0  0  0  0  0  0
  162.4180  212.7800  149.0920 C   0  0  0  0  0  3  0  0  0  0  0  0
  159.3570  209.9550  155.9010 C   0  0  1  0  0  3  0  0  0  0  0  0
  156.7100  212.9420  155.3560 Cl  0  0  0  0  0  0  0  0  0  0  0  0
  159.6430  209.3400  157.2610 C   0  0  0  0  0  1  0  0  0  0  0  0
  157.9070  211.0680  153.6890 C   0  0  0  0  0  3  0  0  0  0  0  0
  160.4110  210.9020  153.7280 C   0  0  1  0  0  3  0  0  0  0  0  0
  158.4990  211.1270  156.0410 N   0  0  0  0  0  0  0  0  0  0  0  0
  159.0510  210.6800  153.1180 C   0  0  0  0  0  3  0  0  0  0  0  0
  160.6440  210.2760  155.1250 C   0  0  1  0  0  3  0  0  0  0  0  0
  161.5720  211.1710  155.9350 C   0  0  0  0  0  1  0  0  0  0  0  0
  157.8300  211.6330  155.0490 C   0  0  0  0  0  0  0  0  0  0  0  0
  160.2030  206.6870  148.3140 N   0  0  0  0  0  2  0  0  0  0  0  0
  160.7910  206.0730  147.1360 C   0  0  0  0  0  1  0  0  0  0  0  0
  1 15  1  0  0  0  0
  1  3  1  1  0  0  0
  2  7  1  0  0  0  0
  2  4  1  0  0  0  0
  4  1  1  0  0  0  0
  5  2  1  0  0  0  0
  6 20  1  0  0  0  0
  7 14  1  0  0  0  0
  8  9  2  0  0  0  0
  9 11  1  0  0  0  0
  9 16  1  0  0  0  0
 10  4  1  0  0  0  0
 10 13  1  0  0  0  0
 11  5  1  0  0  0  0
 12 10  1  0  0  0  0
 13 18  1  0  0  0  0
 14 15  1  0  0  0  0
 15 25  1  0  0  0  0
 16  7  1  0  0  0  0
 17  5  1  0  0  0  0
 17 12  1  0  0  0  0
 18  3  1  0  0  0  0
 19  8  1  0  0  0  0
 19  6  2  0  0  0  0
 20 16  2  0  0  0  0
 21 26  1  0  0  0  0
 21 23  1  0  0  0  0
 24 30  1  0  0  0  0
 25 28  1  0  0  0  0
 27 24  2  0  0  0  0
 27 25  1  0  0  0  0
 28 21  1  0  0  0  0
 28 29  1  0  0  0  0
 30 22  1  0  0  0  0
 30 26  2  0  0  0  0
 31 17  1  0  0  0  0
 32 31  1  0  0  0  0
M  END
>  <MODEL>
8

>  <REMARK>
 VINA RESULT:      -3.6      2.920      7.449
  Name = 
  2 active torsions:
  status: ('A' for Active; 'I' for Inactive)
    1  A    between atoms: N_13  and  C_29
    2  A    between atoms: C_16  and  C_27
                            x       y       z     vdW  Elec       q    Type
                         _______ _______ _______ _____ _____    ______ ____

>  <TORSDO>
F 2

$$$$
