=
 OpenBabel11052422563D

 28 32  0  0  0  0  0  0  0  0999 V2000
  161.3170  205.2960  149.0710 N   0  0  0  0  0  0  0  0  0  0  0  0
  160.6580  206.8450  154.0400 C   0  0  0  0  0  3  0  0  0  0  0  0
  162.2850  210.1370  148.8040 C   0  0  0  0  0  1  0  0  0  0  0  0
  161.1460  209.2480  153.8040 C   0  0  0  0  0  0  0  0  0  0  0  0
  161.2980  207.8970  151.7840 C   0  0  0  0  0  0  0  0  0  0  0  0
  160.5160  208.2310  156.0270 C   0  0  0  0  0  0  0  0  0  0  0  0
  161.0350  208.0270  153.2350 C   0  0  0  0  0  0  0  0  0  0  0  0
  161.7550  210.2680  151.6450 C   0  0  0  0  0  3  0  0  0  0  0  0
  160.8970  209.4750  155.2750 C   0  0  0  0  0  2  0  0  0  0  0  0
  161.7870  207.6760  148.9650 C   0  0  0  0  0  0  0  0  0  0  0  0
  161.2090  206.7220  151.1570 C   0  0  0  0  0  3  0  0  0  0  0  0
  161.5020  210.3590  153.0210 O   0  0  0  0  0  0  0  0  0  0  0  0
  161.3780  206.3340  146.8720 C   0  0  0  0  0  2  0  0  0  0  0  0
  161.9150  208.9680  149.5980 N   0  0  0  0  0  0  0  0  0  0  0  0
  162.0860  207.5340  147.4900 C   0  0  0  0  0  2  0  0  0  0  0  0
  160.2810  208.3020  157.2600 O   0  0  0  0  0  0  0  0  0  0  0  0
  160.4140  206.9380  155.3440 C   0  0  0  0  0  3  0  0  0  0  0  0
  161.6650  209.0950  151.0100 C   0  0  0  0  0  0  0  0  0  0  0  0
  161.7250  205.0980  147.6830 C   0  0  0  0  0  2  0  0  0  0  0  0
  161.4640  206.5860  149.7030 C   0  0  0  0  0  0  0  0  0  0  0  0
  160.6460  204.1950  149.7520 C   0  0  0  0  0  2  0  0  0  0  0  0
  160.8530  202.9200  149.0070 C   0  0  0  0  0  0  0  0  0  0  0  0
  161.2940  200.5420  147.6010 C   0  0  0  0  0  0  0  0  0  0  0  0
  161.2530  201.7660  149.6900 C   0  0  0  0  0  3  0  0  0  0  0  0
  160.6830  202.8850  147.6190 C   0  0  0  0  0  3  0  0  0  0  0  0
  160.9010  201.6960  146.9160 C   0  0  0  0  0  3  0  0  0  0  0  0
  161.5070  199.3900  146.9200 F   0  0  0  0  0  0  0  0  0  0  0  0
  161.4710  200.5770  148.9870 C   0  0  0  0  0  3  0  0  0  0  0  0
  1 20  1  0  0  0  0
  1 21  1  0  0  0  0
  2 17  2  0  0  0  0
  3 14  1  0  0  0  0
  4  9  1  0  0  0  0
  5  7  1  0  0  0  0
  6 16  2  0  0  0  0
  7  4  2  0  0  0  0
  7  2  1  0  0  0  0
  8 12  1  0  0  0  0
  9  6  1  0  0  0  0
 10 14  1  0  0  0  0
 10 20  2  0  0  0  0
 11  5  2  0  0  0  0
 12  4  1  0  0  0  0
 13 15  1  0  0  0  0
 13 19  1  0  0  0  0
 14 18  1  0  0  0  0
 15 10  1  0  0  0  0
 17  6  1  0  0  0  0
 18  8  2  0  0  0  0
 18  5  1  0  0  0  0
 19  1  1  0  0  0  0
 20 11  1  0  0  0  0
 22 24  1  0  0  0  0
 22 21  1  0  0  0  0
 23 28  1  0  0  0  0
 25 22  2  0  0  0  0
 26 23  2  0  0  0  0
 26 25  1  0  0  0  0
 27 23  1  0  0  0  0
 28 24  2  0  0  0  0
M  END
>  <MODEL>
1

>  <REMARK>
 VINA RESULT:     -10.3      0.000      0.000
  Name = 
  2 active torsions:
  status: ('A' for Active; 'I' for Inactive)
    1  A    between atoms: N_1  and  C_2
    2  A    between atoms: C_2  and  C_3
                            x       y       z     vdW  Elec       q    Type
                         _______ _______ _______ _____ _____    ______ ____

>  <TORSDO>
F 2

$$$$
=
 OpenBabel11052422563D

 28 32  0  0  0  0  0  0  0  0999 V2000
  161.8640  209.0700  150.1630 N   0  0  0  0  0  0  0  0  0  0  0  0
  161.4150  204.1410  148.4230 C   0  0  0  0  0  3  0  0  0  0  0  0
  160.9160  206.5670  154.3200 C   0  0  0  0  0  1  0  0  0  0  0  0
  160.9360  202.9840  150.5450 C   0  0  0  0  0  0  0  0  0  0  0  0
  161.2800  205.3920  150.6650 C   0  0  0  0  0  0  0  0  0  0  0  0
  161.0630  201.7410  148.3520 C   0  0  0  0  0  0  0  0  0  0  0  0
  161.2040  204.1340  149.8870 C   0  0  0  0  0  0  0  0  0  0  0  0
  160.7990  204.1740  152.6990 C   0  0  0  0  0  3  0  0  0  0  0  0
  160.8400  201.6560  149.8350 C   0  0  0  0  0  2  0  0  0  0  0  0
  161.3970  207.8190  152.1910 C   0  0  0  0  0  0  0  0  0  0  0  0
  161.5420  206.5630  150.0810 C   0  0  0  0  0  3  0  0  0  0  0  0
  160.7360  202.9990  151.9350 O   0  0  0  0  0  0  0  0  0  0  0  0
  161.2110  210.3320  152.1380 C   0  0  0  0  0  2  0  0  0  0  0  0
  161.1270  206.5760  152.8750 N   0  0  0  0  0  0  0  0  0  0  0  0
  161.5060  209.1000  152.9860 C   0  0  0  0  0  2  0  0  0  0  0  0
  161.0030  200.6950  147.6560 O   0  0  0  0  0  0  0  0  0  0  0  0
  161.3490  203.0240  147.7040 C   0  0  0  0  0  3  0  0  0  0  0  0
  161.0580  205.3510  152.1200 C   0  0  0  0  0  0  0  0  0  0  0  0
  162.1070  210.3000  150.9130 C   0  0  0  0  0  2  0  0  0  0  0  0
  161.6130  207.8270  150.8530 C   0  0  0  0  0  0  0  0  0  0  0  0
  161.7570  209.1610  148.7110 C   0  0  0  0  0  2  0  0  0  0  0  0
  161.9810  210.5650  148.2610 C   0  0  0  0  0  0  0  0  0  0  0  0
  162.4120  213.1810  147.3640 C   0  0  0  0  0  0  0  0  0  0  0  0
  160.9100  211.3280  147.7830 C   0  0  0  0  0  3  0  0  0  0  0  0
  163.2700  211.1100  148.2820 C   0  0  0  0  0  3  0  0  0  0  0  0
  163.4850  212.4180  147.8360 C   0  0  0  0  0  3  0  0  0  0  0  0
  162.6200  214.4470  146.9320 F   0  0  0  0  0  0  0  0  0  0  0  0
  161.1250  212.6360  147.3370 C   0  0  0  0  0  3  0  0  0  0  0  0
  1 20  1  0  0  0  0
  1 19  1  0  0  0  0
  2  7  1  0  0  0  0
  4 12  1  0  0  0  0
  5 18  1  0  0  0  0
  6  9  1  0  0  0  0
  7  4  2  0  0  0  0
  7  5  1  0  0  0  0
  9  4  1  0  0  0  0
 10 14  1  0  0  0  0
 10 15  1  0  0  0  0
 11  5  2  0  0  0  0
 11 20  1  0  0  0  0
 12  8  1  0  0  0  0
 13 15  1  0  0  0  0
 14  3  1  0  0  0  0
 16  6  2  0  0  0  0
 17  6  1  0  0  0  0
 17  2  2  0  0  0  0
 18  8  2  0  0  0  0
 18 14  1  0  0  0  0
 19 13  1  0  0  0  0
 20 10  2  0  0  0  0
 21  1  1  0  0  0  0
 22 25  1  0  0  0  0
 22 21  1  0  0  0  0
 23 26  1  0  0  0  0
 24 22  2  0  0  0  0
 26 25  2  0  0  0  0
 27 23  1  0  0  0  0
 28 23  2  0  0  0  0
 28 24  1  0  0  0  0
M  END
>  <MODEL>
2

>  <REMARK>
 VINA RESULT:      -9.8      4.156      7.963
  Name = 
  2 active torsions:
  status: ('A' for Active; 'I' for Inactive)
    1  A    between atoms: N_1  and  C_2
    2  A    between atoms: C_2  and  C_3
                            x       y       z     vdW  Elec       q    Type
                         _______ _______ _______ _____ _____    ______ ____

>  <TORSDO>
F 2

$$$$
=
 OpenBabel11052422563D

 28 32  0  0  0  0  0  0  0  0999 V2000
  161.2780  207.5310  152.1490 N   0  0  0  0  0  0  0  0  0  0  0  0
  161.3660  206.4540  147.0160 C   0  0  0  0  0  3  0  0  0  0  0  0
  161.0330  202.5930  152.1030 C   0  0  0  0  0  1  0  0  0  0  0  0
  161.2290  203.9950  147.0950 C   0  0  0  0  0  0  0  0  0  0  0  0
  161.2480  205.1600  149.2330 C   0  0  0  0  0  0  0  0  0  0  0  0
  161.3410  205.2510  144.9080 C   0  0  0  0  0  0  0  0  0  0  0  0
  161.2810  205.1750  147.7530 C   0  0  0  0  0  0  0  0  0  0  0  0
  161.1100  202.7450  149.2160 C   0  0  0  0  0  3  0  0  0  0  0  0
  161.2570  203.9140  145.5890 C   0  0  0  0  0  2  0  0  0  0  0  0
  161.1580  205.1060  152.1010 C   0  0  0  0  0  0  0  0  0  0  0  0
  161.2970  206.2870  149.9480 C   0  0  0  0  0  3  0  0  0  0  0  0
  161.1450  202.7910  147.8140 O   0  0  0  0  0  0  0  0  0  0  0  0
  160.6260  206.3960  154.2000 C   0  0  0  0  0  2  0  0  0  0  0  0
  161.1200  203.8570  151.3770 N   0  0  0  0  0  0  0  0  0  0  0  0
  161.1570  205.0930  153.6130 C   0  0  0  0  0  2  0  0  0  0  0  0
  161.3670  205.3050  143.6520 O   0  0  0  0  0  0  0  0  0  0  0  0
  161.3930  206.4920  145.6860 C   0  0  0  0  0  3  0  0  0  0  0  0
  161.1570  203.8700  149.9380 C   0  0  0  0  0  0  0  0  0  0  0  0
  161.4120  207.5500  153.6030 C   0  0  0  0  0  2  0  0  0  0  0  0
  161.2590  206.2790  151.4300 C   0  0  0  0  0  0  0  0  0  0  0  0
  161.0390  208.7970  151.4660 C   0  0  0  0  0  2  0  0  0  0  0  0
  160.7490  209.8740  152.4550 C   0  0  0  0  0  0  0  0  0  0  0  0
  160.1810  211.8580  154.3460 C   0  0  0  0  0  0  0  0  0  0  0  0
  161.7030  210.2180  153.4200 C   0  0  0  0  0  3  0  0  0  0  0  0
  159.5060  210.5190  152.4440 C   0  0  0  0  0  3  0  0  0  0  0  0
  159.2240  211.5120  153.3870 C   0  0  0  0  0  3  0  0  0  0  0  0
  159.9070  212.8190  155.2600 F   0  0  0  0  0  0  0  0  0  0  0  0
  161.4200  211.2100  154.3630 C   0  0  0  0  0  3  0  0  0  0  0  0
  1 19  1  0  0  0  0
  2  7  1  0  0  0  0
  4  7  2  0  0  0  0
  4 12  1  0  0  0  0
  5 18  1  0  0  0  0
  5 11  2  0  0  0  0
  6  9  1  0  0  0  0
  6 17  1  0  0  0  0
  7  5  1  0  0  0  0
  8 18  2  0  0  0  0
  9  4  1  0  0  0  0
 10 15  1  0  0  0  0
 11 20  1  0  0  0  0
 12  8  1  0  0  0  0
 14 10  1  0  0  0  0
 14  3  1  0  0  0  0
 15 13  1  0  0  0  0
 16  6  2  0  0  0  0
 17  2  2  0  0  0  0
 18 14  1  0  0  0  0
 19 13  1  0  0  0  0
 20 10  2  0  0  0  0
 20  1  1  0  0  0  0
 21  1  1  0  0  0  0
 21 22  1  0  0  0  0
 22 24  1  0  0  0  0
 23 28  1  0  0  0  0
 23 27  1  0  0  0  0
 24 28  2  0  0  0  0
 25 22  2  0  0  0  0
 25 26  1  0  0  0  0
 26 23  2  0  0  0  0
M  END
>  <MODEL>
3

>  <REMARK>
 VINA RESULT:      -9.4      4.348      8.737
  Name = 
  2 active torsions:
  status: ('A' for Active; 'I' for Inactive)
    1  A    between atoms: N_1  and  C_2
    2  A    between atoms: C_2  and  C_3
                            x       y       z     vdW  Elec       q    Type
                         _______ _______ _______ _____ _____    ______ ____

>  <TORSDO>
F 2

$$$$
=
 OpenBabel11052422563D

 28 32  0  0  0  0  0  0  0  0999 V2000
  161.3160  207.3990  153.2870 N   0  0  0  0  0  0  0  0  0  0  0  0
  161.8950  210.9070  149.4290 C   0  0  0  0  0  3  0  0  0  0  0  0
  158.9700  211.3550  155.0990 C   0  0  0  0  0  1  0  0  0  0  0  0
  160.7140  212.8280  150.4220 C   0  0  0  0  0  0  0  0  0  0  0  0
  160.7990  210.7900  151.7510 C   0  0  0  0  0  0  0  0  0  0  0  0
  161.7880  212.9610  148.1410 C   0  0  0  0  0  0  0  0  0  0  0  0
  161.1280  211.5460  150.5210 C   0  0  0  0  0  0  0  0  0  0  0  0
  159.6650  212.7280  152.6500 C   0  0  0  0  0  3  0  0  0  0  0  0
  161.0040  213.6740  149.2070 C   0  0  0  0  0  2  0  0  0  0  0  0
  160.1700  209.3550  154.1560 C   0  0  0  0  0  0  0  0  0  0  0  0
  161.1740  209.5190  151.9170 C   0  0  0  0  0  3  0  0  0  0  0  0
  159.9900  213.4170  151.4720 O   0  0  0  0  0  0  0  0  0  0  0  0
  160.7820  207.4280  155.6600 C   0  0  0  0  0  2  0  0  0  0  0  0
  159.7250  210.7230  154.0210 N   0  0  0  0  0  0  0  0  0  0  0  0
  159.8080  208.5700  155.3960 C   0  0  0  0  0  2  0  0  0  0  0  0
  162.0900  213.5710  147.0830 O   0  0  0  0  0  0  0  0  0  0  0  0
  162.2040  211.5670  148.3160 C   0  0  0  0  0  3  0  0  0  0  0  0
  160.0400  211.4560  152.8230 C   0  0  0  0  0  0  0  0  0  0  0  0
  160.8740  206.5740  154.4080 C   0  0  0  0  0  2  0  0  0  0  0  0
  160.8530  208.7590  153.1480 C   0  0  0  0  0  0  0  0  0  0  0  0
  162.3300  206.8530  152.3910 C   0  0  0  0  0  2  0  0  0  0  0  0
  161.7460  205.7760  151.5410 C   0  0  0  0  0  0  0  0  0  0  0  0
  160.7020  203.7460  149.9220 C   0  0  0  0  0  0  0  0  0  0  0  0
  161.6910  204.4600  152.0140 C   0  0  0  0  0  3  0  0  0  0  0  0
  161.2860  206.0730  150.2530 C   0  0  0  0  0  3  0  0  0  0  0  0
  160.7620  205.0600  149.4450 C   0  0  0  0  0  3  0  0  0  0  0  0
  160.1950  202.7640  149.1390 F   0  0  0  0  0  0  0  0  0  0  0  0
  161.1670  203.4470  151.2060 C   0  0  0  0  0  3  0  0  0  0  0  0
  1 19  1  0  0  0  0
  2  7  1  0  0  0  0
  4  7  2  0  0  0  0
  4 12  1  0  0  0  0
  5 11  2  0  0  0  0
  5 18  1  0  0  0  0
  6 17  1  0  0  0  0
  6  9  1  0  0  0  0
  7  5  1  0  0  0  0
  8 18  2  0  0  0  0
  9  4  1  0  0  0  0
 10 15  1  0  0  0  0
 11 20  1  0  0  0  0
 12  8  1  0  0  0  0
 14 10  1  0  0  0  0
 14  3  1  0  0  0  0
 15 13  1  0  0  0  0
 16  6  2  0  0  0  0
 17  2  2  0  0  0  0
 18 14  1  0  0  0  0
 19 13  1  0  0  0  0
 20  1  1  0  0  0  0
 20 10  2  0  0  0  0
 21  1  1  0  0  0  0
 22 24  1  0  0  0  0
 22 21  1  0  0  0  0
 23 28  1  0  0  0  0
 25 22  2  0  0  0  0
 26 23  2  0  0  0  0
 26 25  1  0  0  0  0
 27 23  1  0  0  0  0
 28 24  2  0  0  0  0
M  END
>  <MODEL>
4

>  <REMARK>
 VINA RESULT:      -9.1      2.824      5.859
  Name = 
  2 active torsions:
  status: ('A' for Active; 'I' for Inactive)
    1  A    between atoms: N_1  and  C_2
    2  A    between atoms: C_2  and  C_3
                            x       y       z     vdW  Elec       q    Type
                         _______ _______ _______ _____ _____    ______ ____

>  <TORSDO>
F 2

$$$$
=
 OpenBabel11052422563D

 28 32  0  0  0  0  0  0  0  0999 V2000
  160.9540  203.7580  149.4600 N   0  0  0  0  0  0  0  0  0  0  0  0
  161.8010  208.8710  148.6450 C   0  0  0  0  0  3  0  0  0  0  0  0
  161.0410  205.5600  154.0630 C   0  0  0  0  0  1  0  0  0  0  0  0
  161.8390  209.6720  150.9740 C   0  0  0  0  0  0  0  0  0  0  0  0
  161.4560  207.2900  150.6420 C   0  0  0  0  0  0  0  0  0  0  0  0
  162.1830  211.2370  149.0240 C   0  0  0  0  0  0  0  0  0  0  0  0
  161.7030  208.6470  150.1040 C   0  0  0  0  0  0  0  0  0  0  0  0
  161.5140  208.1640  152.8960 C   0  0  0  0  0  3  0  0  0  0  0  0
  162.0930  211.0870  150.5160 C   0  0  0  0  0  2  0  0  0  0  0  0
  161.0020  204.6660  151.7110 C   0  0  0  0  0  0  0  0  0  0  0  0
  161.3100  206.2320  149.8400 C   0  0  0  0  0  3  0  0  0  0  0  0
  161.7460  209.4380  152.3560 O   0  0  0  0  0  0  0  0  0  0  0  0
  161.1710  202.1850  151.3040 C   0  0  0  0  0  2  0  0  0  0  0  0
  161.1340  205.7790  152.6230 N   0  0  0  0  0  0  0  0  0  0  0  0
  160.7170  203.2850  152.2560 C   0  0  0  0  0  2  0  0  0  0  0  0
  162.3960  212.3730  148.5290 O   0  0  0  0  0  0  0  0  0  0  0  0
  162.0260  210.0800  148.1380 C   0  0  0  0  0  3  0  0  0  0  0  0
  161.3700  207.1000  152.1000 C   0  0  0  0  0  0  0  0  0  0  0  0
  160.5500  202.4400  149.9420 C   0  0  0  0  0  2  0  0  0  0  0  0
  161.0680  204.8710  150.3730 C   0  0  0  0  0  0  0  0  0  0  0  0
  161.3600  203.8840  148.0650 C   0  0  0  0  0  2  0  0  0  0  0  0
  161.2420  202.5700  147.3690 C   0  0  0  0  0  0  0  0  0  0  0  0
  160.9710  200.0960  146.0880 C   0  0  0  0  0  0  0  0  0  0  0  0
  160.6690  202.4990  146.0950 C   0  0  0  0  0  3  0  0  0  0  0  0
  161.6710  201.3990  148.0060 C   0  0  0  0  0  3  0  0  0  0  0  0
  161.5380  200.1640  147.3650 C   0  0  0  0  0  3  0  0  0  0  0  0
  160.8420  198.8990  145.4680 F   0  0  0  0  0  0  0  0  0  0  0  0
  160.5360  201.2640  145.4540 C   0  0  0  0  0  3  0  0  0  0  0  0
  1 19  1  0  0  0  0
  1 20  1  0  0  0  0
  2  7  1  0  0  0  0
  4 12  1  0  0  0  0
  5 18  1  0  0  0  0
  6  9  1  0  0  0  0
  7  5  1  0  0  0  0
  7  4  2  0  0  0  0
  9  4  1  0  0  0  0
 10 15  1  0  0  0  0
 10 14  1  0  0  0  0
 11 20  1  0  0  0  0
 11  5  2  0  0  0  0
 12  8  1  0  0  0  0
 13 15  1  0  0  0  0
 14  3  1  0  0  0  0
 16  6  2  0  0  0  0
 17  2  2  0  0  0  0
 17  6  1  0  0  0  0
 18 14  1  0  0  0  0
 18  8  2  0  0  0  0
 19 13  1  0  0  0  0
 20 10  2  0  0  0  0
 21  1  1  0  0  0  0
 22 25  1  0  0  0  0
 22 21  1  0  0  0  0
 23 26  1  0  0  0  0
 24 22  2  0  0  0  0
 26 25  2  0  0  0  0
 27 23  1  0  0  0  0
 28 23  2  0  0  0  0
 28 24  1  0  0  0  0
M  END
>  <MODEL>
5

>  <REMARK>
 VINA RESULT:      -8.9      1.935      4.439
  Name = 
  2 active torsions:
  status: ('A' for Active; 'I' for Inactive)
    1  A    between atoms: N_1  and  C_2
    2  A    between atoms: C_2  and  C_3
                            x       y       z     vdW  Elec       q    Type
                         _______ _______ _______ _____ _____    ______ ____

>  <TORSDO>
F 2

$$$$
=
 OpenBabel11052422563D

 28 32  0  0  0  0  0  0  0  0999 V2000
  161.5550  209.0980  152.4320 N   0  0  0  0  0  0  0  0  0  0  0  0
  161.5810  206.8610  147.6870 C   0  0  0  0  0  3  0  0  0  0  0  0
  160.8330  204.3270  153.5110 C   0  0  0  0  0  1  0  0  0  0  0  0
  161.2060  204.5110  148.3230 C   0  0  0  0  0  0  0  0  0  0  0  0
  161.3200  206.1310  150.1370 C   0  0  0  0  0  0  0  0  0  0  0  0
  161.4570  205.2110  145.9110 C   0  0  0  0  0  0  0  0  0  0  0  0
  161.3660  205.8000  148.6950 C   0  0  0  0  0  0  0  0  0  0  0  0
  160.9490  203.8010  150.6690 C   0  0  0  0  0  3  0  0  0  0  0  0
  161.2390  204.0810  146.8770 C   0  0  0  0  0  2  0  0  0  0  0  0
  161.2010  206.7490  152.9370 C   0  0  0  0  0  0  0  0  0  0  0  0
  161.4720  207.3820  150.5760 C   0  0  0  0  0  3  0  0  0  0  0  0
  161.0000  203.5180  149.2960 O   0  0  0  0  0  0  0  0  0  0  0  0
  160.7790  208.5320  154.6670 C   0  0  0  0  0  2  0  0  0  0  0  0
  161.0480  205.3760  152.5170 N   0  0  0  0  0  0  0  0  0  0  0  0
  161.1860  207.0860  154.4110 C   0  0  0  0  0  2  0  0  0  0  0  0
  161.4990  204.9710  144.6770 O   0  0  0  0  0  0  0  0  0  0  0  0
  161.6240  206.5880  146.3860 C   0  0  0  0  0  3  0  0  0  0  0  0
  161.0980  205.0520  151.1150 C   0  0  0  0  0  0  0  0  0  0  0  0
  161.6780  209.4390  153.8470 C   0  0  0  0  0  2  0  0  0  0  0  0
  161.4200  207.7210  152.0180 C   0  0  0  0  0  0  0  0  0  0  0  0
  161.4460  210.1880  151.4700 C   0  0  0  0  0  2  0  0  0  0  0  0
  160.3900  211.1520  151.8950 C   0  0  0  0  0  0  0  0  0  0  0  0
  158.3770  212.9450  152.6460 C   0  0  0  0  0  0  0  0  0  0  0  0
  159.3700  210.7390  152.7600 C   0  0  0  0  0  3  0  0  0  0  0  0
  160.3950  212.4600  151.3990 C   0  0  0  0  0  3  0  0  0  0  0  0
  159.3910  213.3570  151.7760 C   0  0  0  0  0  3  0  0  0  0  0  0
  157.4030  213.8130  153.0110 F   0  0  0  0  0  0  0  0  0  0  0  0
  158.3660  211.6350  153.1370 C   0  0  0  0  0  3  0  0  0  0  0  0
  1 19  1  0  0  0  0
  2  7  1  0  0  0  0
  4  7  2  0  0  0  0
  4 12  1  0  0  0  0
  5 11  2  0  0  0  0
  5 18  1  0  0  0  0
  6 17  1  0  0  0  0
  6  9  1  0  0  0  0
  7  5  1  0  0  0  0
  8 18  2  0  0  0  0
  9  4  1  0  0  0  0
 10 15  1  0  0  0  0
 11 20  1  0  0  0  0
 12  8  1  0  0  0  0
 14 10  1  0  0  0  0
 14  3  1  0  0  0  0
 15 13  1  0  0  0  0
 16  6  2  0  0  0  0
 17  2  2  0  0  0  0
 18 14  1  0  0  0  0
 19 13  1  0  0  0  0
 20  1  1  0  0  0  0
 20 10  2  0  0  0  0
 21 22  1  0  0  0  0
 21  1  1  0  0  0  0
 22 24  1  0  0  0  0
 23 27  1  0  0  0  0
 23 28  1  0  0  0  0
 24 28  2  0  0  0  0
 25 26  1  0  0  0  0
 25 22  2  0  0  0  0
 26 23  2  0  0  0  0
M  END
>  <MODEL>
6

>  <REMARK>
 VINA RESULT:      -8.6      4.349      8.638
  Name = 
  2 active torsions:
  status: ('A' for Active; 'I' for Inactive)
    1  A    between atoms: N_1  and  C_2
    2  A    between atoms: C_2  and  C_3
                            x       y       z     vdW  Elec       q    Type
                         _______ _______ _______ _____ _____    ______ ____

>  <TORSDO>
F 2

$$$$
=
 OpenBabel11052422563D

 28 32  0  0  0  0  0  0  0  0999 V2000
  161.7430  208.1580  151.3600 N   0  0  0  0  0  0  0  0  0  0  0  0
  159.0390  210.7310  155.0460 C   0  0  0  0  0  3  0  0  0  0  0  0
  161.1780  212.6290  149.3260 C   0  0  0  0  0  1  0  0  0  0  0  0
  158.7990  212.9220  153.9460 C   0  0  0  0  0  0  0  0  0  0  0  0
  160.0200  211.2090  152.7200 C   0  0  0  0  0  0  0  0  0  0  0  0
  157.8260  212.4680  156.2300 C   0  0  0  0  0  0  0  0  0  0  0  0
  159.2690  211.6550  153.9150 C   0  0  0  0  0  0  0  0  0  0  0  0
  159.7320  213.3900  151.7130 C   0  0  0  0  0  3  0  0  0  0  0  0
  158.0240  213.4630  155.1220 C   0  0  0  0  0  2  0  0  0  0  0  0
  161.4520  210.3620  150.3810 C   0  0  0  0  0  0  0  0  0  0  0  0
  160.5150  209.9730  152.6220 C   0  0  0  0  0  3  0  0  0  0  0  0
  159.0260  213.7840  152.8600 O   0  0  0  0  0  0  0  0  0  0  0  0
  162.1940  208.4020  148.9810 C   0  0  0  0  0  2  0  0  0  0  0  0
  160.9540  211.7160  150.4430 N   0  0  0  0  0  0  0  0  0  0  0  0
  162.2470  209.9130  149.1760 C   0  0  0  0  0  2  0  0  0  0  0  0
  157.1890  212.8080  157.2610 O   0  0  0  0  0  0  0  0  0  0  0  0
  158.3640  211.1090  156.1290 C   0  0  0  0  0  3  0  0  0  0  0  0
  160.2270  212.1520  151.6070 C   0  0  0  0  0  0  0  0  0  0  0  0
  162.6230  207.7330  150.2750 C   0  0  0  0  0  2  0  0  0  0  0  0
  161.2620  209.5180  151.4250 C   0  0  0  0  0  0  0  0  0  0  0  0
  161.2650  207.1440  152.2930 C   0  0  0  0  0  2  0  0  0  0  0  0
  161.1720  205.8190  151.6170 C   0  0  0  0  0  0  0  0  0  0  0  0
  160.9440  203.3230  150.3700 C   0  0  0  0  0  0  0  0  0  0  0  0
  160.6560  205.7270  150.3190 C   0  0  0  0  0  3  0  0  0  0  0  0
  161.5650  204.6580  152.2930 C   0  0  0  0  0  3  0  0  0  0  0  0
  161.4540  203.4120  151.6690 C   0  0  0  0  0  3  0  0  0  0  0  0
  160.8360  202.1160  149.7660 F   0  0  0  0  0  0  0  0  0  0  0  0
  160.5450  204.4810  149.6950 C   0  0  0  0  0  3  0  0  0  0  0  0
  1 20  1  0  0  0  0
  1 21  1  0  0  0  0
  2 17  2  0  0  0  0
  3 14  1  0  0  0  0
  4  9  1  0  0  0  0
  5  7  1  0  0  0  0
  6 16  2  0  0  0  0
  7  4  2  0  0  0  0
  7  2  1  0  0  0  0
  8 12  1  0  0  0  0
  9  6  1  0  0  0  0
 10 14  1  0  0  0  0
 10 20  2  0  0  0  0
 11  5  2  0  0  0  0
 12  4  1  0  0  0  0
 13 15  1  0  0  0  0
 13 19  1  0  0  0  0
 14 18  1  0  0  0  0
 15 10  1  0  0  0  0
 17  6  1  0  0  0  0
 18  8  2  0  0  0  0
 18  5  1  0  0  0  0
 19  1  1  0  0  0  0
 20 11  1  0  0  0  0
 22 21  1  0  0  0  0
 22 25  1  0  0  0  0
 23 26  1  0  0  0  0
 24 22  2  0  0  0  0
 26 25  2  0  0  0  0
 27 23  1  0  0  0  0
 28 24  1  0  0  0  0
 28 23  2  0  0  0  0
M  END
>  <MODEL>
7

>  <REMARK>
 VINA RESULT:      -8.1      2.792      4.040
  Name = 
  2 active torsions:
  status: ('A' for Active; 'I' for Inactive)
    1  A    between atoms: N_1  and  C_2
    2  A    between atoms: C_2  and  C_3
                            x       y       z     vdW  Elec       q    Type
                         _______ _______ _______ _____ _____    ______ ____

>  <TORSDO>
F 2

$$$$
=
 OpenBabel11052422563D

 28 32  0  0  0  0  0  0  0  0999 V2000
  161.1360  206.5300  150.2200 N   0  0  0  0  0  0  0  0  0  0  0  0
  159.8710  211.3430  151.8820 C   0  0  0  0  0  3  0  0  0  0  0  0
  161.2050  206.0020  155.1360 C   0  0  0  0  0  1  0  0  0  0  0  0
  159.9430  210.9840  154.3180 C   0  0  0  0  0  0  0  0  0  0  0  0
  160.4390  209.0580  152.9130 C   0  0  0  0  0  0  0  0  0  0  0  0
  159.3870  213.2360  153.3220 C   0  0  0  0  0  0  0  0  0  0  0  0
  160.0770  210.4850  153.0690 C   0  0  0  0  0  0  0  0  0  0  0  0
  160.4910  208.7990  155.3170 C   0  0  0  0  0  3  0  0  0  0  0  0
  159.5770  212.4250  154.5720 C   0  0  0  0  0  2  0  0  0  0  0  0
  161.1640  206.2960  152.6370 C   0  0  0  0  0  0  0  0  0  0  0  0
  160.5870  208.4990  151.7100 C   0  0  0  0  0  3  0  0  0  0  0  0
  160.1460  210.1530  155.4320 O   0  0  0  0  0  0  0  0  0  0  0  0
  162.1930  204.5440  151.1460 C   0  0  0  0  0  2  0  0  0  0  0  0
  161.0000  206.8460  153.9620 N   0  0  0  0  0  0  0  0  0  0  0  0
  161.5020  204.8310  152.4730 C   0  0  0  0  0  2  0  0  0  0  0  0
  159.0830  214.4530  153.4130 O   0  0  0  0  0  0  0  0  0  0  0  0
  159.5490  212.6290  151.9970 C   0  0  0  0  0  3  0  0  0  0  0  0
  160.6430  208.2330  154.1150 C   0  0  0  0  0  0  0  0  0  0  0  0
  161.3310  205.0970  150.0240 C   0  0  0  0  0  2  0  0  0  0  0  0
  160.9550  207.0720  151.5460 C   0  0  0  0  0  0  0  0  0  0  0  0
  161.2580  207.4040  149.0590 C   0  0  0  0  0  2  0  0  0  0  0  0
  161.3930  206.5960  147.8130 C   0  0  0  0  0  0  0  0  0  0  0  0
  161.6680  205.1270  145.4470 C   0  0  0  0  0  0  0  0  0  0  0  0
  162.5730  205.8880  147.5610 C   0  0  0  0  0  3  0  0  0  0  0  0
  160.3540  206.5760  146.8750 C   0  0  0  0  0  3  0  0  0  0  0  0
  160.4900  205.8400  145.6950 C   0  0  0  0  0  3  0  0  0  0  0  0
  161.8000  204.4140  144.3030 F   0  0  0  0  0  0  0  0  0  0  0  0
  162.7090  205.1510  146.3800 C   0  0  0  0  0  3  0  0  0  0  0  0
  1 20  1  0  0  0  0
  2 17  2  0  0  0  0
  2  7  1  0  0  0  0
  4  9  1  0  0  0  0
  4 12  1  0  0  0  0
  5  7  1  0  0  0  0
  5 18  1  0  0  0  0
  6 16  2  0  0  0  0
  6  9  1  0  0  0  0
  7  4  2  0  0  0  0
  8 12  1  0  0  0  0
 10 14  1  0  0  0  0
 11  5  2  0  0  0  0
 13 15  1  0  0  0  0
 14 18  1  0  0  0  0
 14  3  1  0  0  0  0
 15 10  1  0  0  0  0
 17  6  1  0  0  0  0
 18  8  2  0  0  0  0
 19  1  1  0  0  0  0
 19 13  1  0  0  0  0
 20 11  1  0  0  0  0
 20 10  2  0  0  0  0
 21  1  1  0  0  0  0
 22 21  1  0  0  0  0
 23 26  2  0  0  0  0
 23 28  1  0  0  0  0
 24 22  1  0  0  0  0
 25 22  2  0  0  0  0
 26 25  1  0  0  0  0
 27 23  1  0  0  0  0
 28 24  2  0  0  0  0
M  END
>  <MODEL>
8

>  <REMARK>
 VINA RESULT:      -7.3      2.494      4.470
  Name = 
  2 active torsions:
  status: ('A' for Active; 'I' for Inactive)
    1  A    between atoms: N_1  and  C_2
    2  A    between atoms: C_2  and  C_3
                            x       y       z     vdW  Elec       q    Type
                         _______ _______ _______ _____ _____    ______ ____

>  <TORSDO>
F 2

$$$$
