=
 OpenBabel11052422163D

 25 29  0  0  1  0  0  0  0  0999 V2000
  161.4130  206.7160  149.4680 C   0  0  0  0  0  0  0  0  0  0  0  0
  161.6060  208.0460  149.8470 C   0  0  0  0  0  0  0  0  0  0  0  0
  161.4410  205.9730  151.7690 C   0  0  0  0  0  3  0  0  0  0  0  0
  161.1710  206.1190  148.1300 C   0  0  2  0  0  3  0  0  0  0  0  0
  162.0350  203.9400  146.4570 C   0  0  0  0  0  3  0  0  0  0  0  0
  161.6540  207.3010  152.1770 C   0  0  0  0  0  3  0  0  0  0  0  0
  161.0640  204.6680  148.5260 C   0  0  0  0  0  0  0  0  0  0  0  0
  161.2910  203.6220  147.5250 C   0  0  0  0  0  3  0  0  0  0  0  0
  161.9360  209.6810  151.5890 C   0  0  0  0  0  0  0  0  0  0  0  0
  162.0850  210.0870  153.0170 C   0  0  0  0  0  1  0  0  0  0  0  0
  161.6710  209.0400  148.9250 N   0  0  0  0  0  0  0  0  0  0  0  0
  162.6460  205.2890  146.3260 C   0  0  0  0  0  3  0  0  0  0  0  0
  161.3090  205.7170  150.4050 C   0  0  0  0  0  0  0  0  0  0  0  0
  161.1330  204.4450  149.8030 N   0  0  0  0  0  0  0  0  0  0  0  0
  161.9950  210.6360  150.6240 N   0  0  0  0  0  0  0  0  0  0  0  0
  162.2970  206.2960  147.1440 C   0  0  0  0  0  3  0  0  0  0  0  0
  161.8640  210.3320  149.3030 C   0  0  0  0  0  0  0  0  0  0  0  0
  161.7350  208.3420  151.2230 C   0  0  0  0  0  0  0  0  0  0  0  0
  160.8880  212.6990  146.5190 C   0  0  0  0  0  0  0  0  0  0  0  0
  161.9340  211.3990  148.2860 C   0  0  0  0  0  0  0  0  0  0  0  0
  160.8210  211.6900  147.4820 C   0  0  0  0  0  3  0  0  0  0  0  0
  159.8090  212.9720  145.7480 F   0  0  0  0  0  0  0  0  0  0  0  0
  163.1160  212.1350  148.1090 C   0  0  0  0  0  3  0  0  0  0  0  0
  162.0690  213.4270  146.3500 C   0  0  0  0  0  3  0  0  0  0  0  0
  163.1830  213.1460  147.1450 C   0  0  0  0  0  3  0  0  0  0  0  0
  1  2  2  0  0  0  0
  1 13  1  0  0  0  0
  2 18  1  0  0  0  0
  3  6  1  0  0  0  0
  4 16  1  6  0  0  0
  4  7  1  0  0  0  0
  4  1  1  0  0  0  0
  5  8  2  0  0  0  0
  7 14  2  0  0  0  0
  8  7  1  0  0  0  0
  9 10  1  0  0  0  0
 11 17  2  0  0  0  0
 11  2  1  0  0  0  0
 12  5  1  0  0  0  0
 12 16  2  0  0  0  0
 13  3  2  0  0  0  0
 14 13  1  0  0  0  0
 15  9  2  0  0  0  0
 17 15  1  0  0  0  0
 18  9  1  0  0  0  0
 18  6  2  0  0  0  0
 19 21  1  0  0  0  0
 20 17  1  0  0  0  0
 21 20  2  0  0  0  0
 22 19  1  0  0  0  0
 23 20  1  0  0  0  0
 24 19  2  0  0  0  0
 24 25  1  0  0  0  0
 25 23  2  0  0  0  0
M  END
>  <MODEL>
1

>  <REMARK>
 VINA RESULT:      -9.5      0.000      0.000
  Name = 
  1 active torsions:
  status: ('A' for Active; 'I' for Inactive)
    1  A    between atoms: C_6  and  C_23
                            x       y       z     vdW  Elec       q    Type
                         _______ _______ _______ _____ _____    ______ ____

>  <TORSDO>
F 1

$$$$
=
 OpenBabel11052422163D

 25 29  0  0  1  0  0  0  0  0999 V2000
  160.7510  208.7670  153.1370 C   0  0  0  0  0  0  0  0  0  0  0  0
  161.0710  208.1040  151.9520 C   0  0  0  0  0  0  0  0  0  0  0  0
  161.2770  210.9190  152.1690 C   0  0  0  0  0  3  0  0  0  0  0  0
  160.1890  208.2500  154.4110 C   0  0  2  0  0  3  0  0  0  0  0  0
  160.5730  208.4130  157.2610 C   0  0  0  0  0  3  0  0  0  0  0  0
  161.6240  210.2760  150.9690 C   0  0  0  0  0  3  0  0  0  0  0  0
  160.1250  209.5390  155.1910 C   0  0  0  0  0  0  0  0  0  0  0  0
  160.0810  209.5020  156.6550 C   0  0  0  0  0  3  0  0  0  0  0  0
  161.8460  208.1900  149.6690 C   0  0  0  0  0  0  0  0  0  0  0  0
  162.3310  208.9150  148.4590 C   0  0  0  0  0  1  0  0  0  0  0  0
  160.9590  206.7550  151.8450 N   0  0  0  0  0  0  0  0  0  0  0  0
  161.1850  207.3110  156.4720 C   0  0  0  0  0  3  0  0  0  0  0  0
  160.8290  210.1360  153.2310 C   0  0  0  0  0  0  0  0  0  0  0  0
  160.4750  210.5970  154.5250 N   0  0  0  0  0  0  0  0  0  0  0  0
  161.7180  206.8380  149.6170 N   0  0  0  0  0  0  0  0  0  0  0  0
  161.0660  207.2610  155.1340 C   0  0  0  0  0  3  0  0  0  0  0  0
  161.2780  206.1170  150.6860 C   0  0  0  0  0  0  0  0  0  0  0  0
  161.5210  208.8700  150.8520 C   0  0  0  0  0  0  0  0  0  0  0  0
  160.7340  202.6520  149.2710 C   0  0  0  0  0  0  0  0  0  0  0  0
  161.1510  204.6500  150.5900 C   0  0  0  0  0  0  0  0  0  0  0  0
  160.8540  204.0410  149.3610 C   0  0  0  0  0  3  0  0  0  0  0  0
  160.4470  202.0730  148.0810 F   0  0  0  0  0  0  0  0  0  0  0  0
  161.3260  203.8460  151.7270 C   0  0  0  0  0  3  0  0  0  0  0  0
  160.9100  201.8590  150.4080 C   0  0  0  0  0  3  0  0  0  0  0  0
  161.2050  202.4560  151.6370 C   0  0  0  0  0  3  0  0  0  0  0  0
  1 13  1  0  0  0  0
  1  4  1  0  0  0  0
  2  1  2  0  0  0  0
  3 13  2  0  0  0  0
  4 16  1  1  0  0  0
  4  7  1  0  0  0  0
  6  3  1  0  0  0  0
  7  8  1  0  0  0  0
  8  5  2  0  0  0  0
  9 18  1  0  0  0  0
 10  9  1  0  0  0  0
 11  2  1  0  0  0  0
 12  5  1  0  0  0  0
 13 14  1  0  0  0  0
 14  7  2  0  0  0  0
 15  9  2  0  0  0  0
 15 17  1  0  0  0  0
 16 12  2  0  0  0  0
 17 11  2  0  0  0  0
 18  6  2  0  0  0  0
 18  2  1  0  0  0  0
 19 21  2  0  0  0  0
 19 24  1  0  0  0  0
 20 17  1  0  0  0  0
 20 23  2  0  0  0  0
 21 20  1  0  0  0  0
 22 19  1  0  0  0  0
 24 25  2  0  0  0  0
 25 23  1  0  0  0  0
M  END
>  <MODEL>
2

>  <REMARK>
 VINA RESULT:      -9.2      3.457      7.730
  Name = 
  1 active torsions:
  status: ('A' for Active; 'I' for Inactive)
    1  A    between atoms: C_6  and  C_23
                            x       y       z     vdW  Elec       q    Type
                         _______ _______ _______ _____ _____    ______ ____

>  <TORSDO>
F 1

$$$$
=
 OpenBabel11052422163D

 25 29  0  0  1  0  0  0  0  0999 V2000
  161.5580  205.0770  148.9010 C   0  0  0  0  0  0  0  0  0  0  0  0
  161.5500  206.3260  149.5240 C   0  0  0  0  0  0  0  0  0  0  0  0
  161.9810  206.0690  146.7370 C   0  0  0  0  0  3  0  0  0  0  0  0
  161.4570  203.7110  149.4760 C   0  0  2  0  0  3  0  0  0  0  0  0
  160.0910  201.2070  149.0800 C   0  0  0  0  0  3  0  0  0  0  0  0
  161.9600  207.3400  147.3350 C   0  0  0  0  0  3  0  0  0  0  0  0
  161.5420  202.9040  148.2050 C   0  0  0  0  0  0  0  0  0  0  0  0
  161.0260  201.5330  148.1780 C   0  0  0  0  0  3  0  0  0  0  0  0
  161.7310  208.7250  149.3640 C   0  0  0  0  0  0  0  0  0  0  0  0
  161.9280  209.9940  148.6040 C   0  0  0  0  0  1  0  0  0  0  0  0
  161.3580  206.4460  150.8620 N   0  0  0  0  0  0  0  0  0  0  0  0
  159.5660  202.2180  150.0350 C   0  0  0  0  0  3  0  0  0  0  0  0
  161.7920  204.9550  147.5530 C   0  0  0  0  0  0  0  0  0  0  0  0
  161.7390  203.6020  147.1280 N   0  0  0  0  0  0  0  0  0  0  0  0
  161.5310  208.7890  150.7070 N   0  0  0  0  0  0  0  0  0  0  0  0
  160.1590  203.4150  150.1810 C   0  0  0  0  0  3  0  0  0  0  0  0
  161.3470  207.6680  151.4600 C   0  0  0  0  0  0  0  0  0  0  0  0
  161.7480  207.4770  148.7270 C   0  0  0  0  0  0  0  0  0  0  0  0
  160.9130  209.1400  154.9170 C   0  0  0  0  0  0  0  0  0  0  0  0
  161.1340  207.7790  152.9160 C   0  0  0  0  0  0  0  0  0  0  0  0
  161.1150  209.0360  153.5380 C   0  0  0  0  0  3  0  0  0  0  0  0
  160.8970  210.3580  155.5080 F   0  0  0  0  0  0  0  0  0  0  0  0
  160.9470  206.6270  153.6950 C   0  0  0  0  0  3  0  0  0  0  0  0
  160.7280  207.9880  155.6850 C   0  0  0  0  0  3  0  0  0  0  0  0
  160.7460  206.7310  155.0750 C   0  0  0  0  0  3  0  0  0  0  0  0
  1  4  1  0  0  0  0
  1  2  1  0  0  0  0
  2 11  1  0  0  0  0
  3  6  2  0  0  0  0
  3 13  1  0  0  0  0
  4 16  1  6  0  0  0
  5 12  1  0  0  0  0
  6 18  1  0  0  0  0
  7  4  1  0  0  0  0
  8  7  1  0  0  0  0
  8  5  2  0  0  0  0
  9 15  2  0  0  0  0
 10  9  1  0  0  0  0
 11 17  2  0  0  0  0
 12 16  2  0  0  0  0
 13  1  2  0  0  0  0
 14 13  1  0  0  0  0
 14  7  2  0  0  0  0
 15 17  1  0  0  0  0
 17 20  1  0  0  0  0
 18  9  1  0  0  0  0
 18  2  2  0  0  0  0
 19 22  1  0  0  0  0
 19 24  1  0  0  0  0
 20 21  1  0  0  0  0
 20 23  2  0  0  0  0
 21 19  2  0  0  0  0
 23 25  1  0  0  0  0
 25 24  2  0  0  0  0
M  END
>  <MODEL>
3

>  <REMARK>
 VINA RESULT:      -9.1      2.798      5.586
  Name = 
  1 active torsions:
  status: ('A' for Active; 'I' for Inactive)
    1  A    between atoms: C_6  and  C_23
                            x       y       z     vdW  Elec       q    Type
                         _______ _______ _______ _____ _____    ______ ____

>  <TORSDO>
F 1

$$$$
=
 OpenBabel11052422163D

 25 29  0  0  1  0  0  0  0  0999 V2000
  161.1780  205.0830  149.3450 C   0  0  0  0  0  0  0  0  0  0  0  0
  161.2460  206.1070  150.2910 C   0  0  0  0  0  0  0  0  0  0  0  0
  161.0950  203.3890  151.0680 C   0  0  0  0  0  3  0  0  0  0  0  0
  161.0760  205.1420  147.8640 C   0  0  2  0  0  3  0  0  0  0  0  0
  162.2130  203.9740  145.4900 C   0  0  0  0  0  3  0  0  0  0  0  0
  161.1820  204.3980  152.0410 C   0  0  0  0  0  3  0  0  0  0  0  0
  161.0470  203.6640  147.5630 C   0  0  0  0  0  0  0  0  0  0  0  0
  161.4200  203.1870  146.2290 C   0  0  0  0  0  3  0  0  0  0  0  0
  161.3310  206.7970  152.6000 C   0  0  0  0  0  0  0  0  0  0  0  0
  161.3480  206.5250  154.0670 C   0  0  0  0  0  1  0  0  0  0  0  0
  161.3040  207.4110  149.9170 N   0  0  0  0  0  0  0  0  0  0  0  0
  162.7320  205.2580  146.0310 C   0  0  0  0  0  3  0  0  0  0  0  0
  161.0800  203.7670  149.7270 C   0  0  0  0  0  0  0  0  0  0  0  0
  161.0400  202.8950  148.6080 N   0  0  0  0  0  0  0  0  0  0  0  0
  161.3890  208.0850  152.1710 N   0  0  0  0  0  0  0  0  0  0  0  0
  162.2530  205.7790  147.1730 C   0  0  0  0  0  3  0  0  0  0  0  0
  161.3750  208.4020  150.8460 C   0  0  0  0  0  0  0  0  0  0  0  0
  161.2550  205.7590  151.6610 C   0  0  0  0  0  0  0  0  0  0  0  0
  162.0840  211.4950  148.7880 C   0  0  0  0  0  0  0  0  0  0  0  0
  161.4400  209.8130  150.4190 C   0  0  0  0  0  0  0  0  0  0  0  0
  162.0230  210.1590  149.1900 C   0  0  0  0  0  3  0  0  0  0  0  0
  162.6480  211.8190  147.6000 F   0  0  0  0  0  0  0  0  0  0  0  0
  160.9190  210.8270  151.2390 C   0  0  0  0  0  3  0  0  0  0  0  0
  161.5640  212.4980  149.6100 C   0  0  0  0  0  3  0  0  0  0  0  0
  160.9820  212.1650  150.8350 C   0  0  0  0  0  3  0  0  0  0  0  0
  1 13  2  0  0  0  0
  1  2  1  0  0  0  0
  2 18  2  0  0  0  0
  3  6  2  0  0  0  0
  4 16  1  6  0  0  0
  4  1  1  0  0  0  0
  5 12  1  0  0  0  0
  5  8  2  0  0  0  0
  7  4  1  0  0  0  0
  7 14  2  0  0  0  0
  8  7  1  0  0  0  0
  9 10  1  0  0  0  0
 11  2  1  0  0  0  0
 11 17  2  0  0  0  0
 12 16  2  0  0  0  0
 13  3  1  0  0  0  0
 14 13  1  0  0  0  0
 15  9  2  0  0  0  0
 17 15  1  0  0  0  0
 18  6  1  0  0  0  0
 18  9  1  0  0  0  0
 19 21  2  0  0  0  0
 19 24  1  0  0  0  0
 20 17  1  0  0  0  0
 20 23  2  0  0  0  0
 21 20  1  0  0  0  0
 22 19  1  0  0  0  0
 24 25  2  0  0  0  0
 25 23  1  0  0  0  0
M  END
>  <MODEL>
4

>  <REMARK>
 VINA RESULT:      -8.9      1.706      2.608
  Name = 
  1 active torsions:
  status: ('A' for Active; 'I' for Inactive)
    1  A    between atoms: C_6  and  C_23
                            x       y       z     vdW  Elec       q    Type
                         _______ _______ _______ _____ _____    ______ ____

>  <TORSDO>
F 1

$$$$
=
 OpenBabel11052422163D

 25 29  0  0  1  0  0  0  0  0999 V2000
  160.9720  206.6770  151.1910 C   0  0  0  0  0  0  0  0  0  0  0  0
  160.8230  207.6260  152.2030 C   0  0  0  0  0  0  0  0  0  0  0  0
  161.4400  204.9260  152.7910 C   0  0  0  0  0  3  0  0  0  0  0  0
  160.7720  206.7910  149.7240 C   0  0  2  0  0  3  0  0  0  0  0  0
  162.0360  206.1080  147.2280 C   0  0  0  0  0  3  0  0  0  0  0  0
  161.3140  205.8640  153.8290 C   0  0  0  0  0  3  0  0  0  0  0  0
  161.1160  205.3800  149.3200 C   0  0  0  0  0  0  0  0  0  0  0  0
  161.5230  205.0970  147.9410 C   0  0  0  0  0  3  0  0  0  0  0  0
  160.8570  208.1800  154.5500 C   0  0  0  0  0  0  0  0  0  0  0  0
  161.0310  207.8380  155.9920 C   0  0  0  0  0  1  0  0  0  0  0  0
  160.5130  208.9170  151.9200 N   0  0  0  0  0  0  0  0  0  0  0  0
  162.2290  207.4510  147.8370 C   0  0  0  0  0  3  0  0  0  0  0  0
  161.2470  205.3630  151.4820 C   0  0  0  0  0  0  0  0  0  0  0  0
  161.3740  204.5780  150.3070 N   0  0  0  0  0  0  0  0  0  0  0  0
  160.5480  209.4590  154.2110 N   0  0  0  0  0  0  0  0  0  0  0  0
  161.6970  207.7580  149.0310 C   0  0  0  0  0  3  0  0  0  0  0  0
  160.3740  209.8360  152.9140 C   0  0  0  0  0  0  0  0  0  0  0  0
  161.0030  207.2150  153.5440 C   0  0  0  0  0  0  0  0  0  0  0  0
  160.1130  213.1170  151.0490 C   0  0  0  0  0  0  0  0  0  0  0  0
  160.0390  211.2350  152.5860 C   0  0  0  0  0  0  0  0  0  0  0  0
  160.4300  211.7910  151.3590 C   0  0  0  0  0  3  0  0  0  0  0  0
  160.4950  213.6440  149.8620 F   0  0  0  0  0  0  0  0  0  0  0  0
  159.3250  212.0270  153.5000 C   0  0  0  0  0  3  0  0  0  0  0  0
  159.4020  213.8980  151.9650 C   0  0  0  0  0  3  0  0  0  0  0  0
  159.0090  213.3540  153.1900 C   0  0  0  0  0  3  0  0  0  0  0  0
  1 13  2  0  0  0  0
  1  2  1  0  0  0  0
  2 18  2  0  0  0  0
  3  6  2  0  0  0  0
  4 16  1  6  0  0  0
  4  1  1  0  0  0  0
  5 12  1  0  0  0  0
  5  8  2  0  0  0  0
  7  4  1  0  0  0  0
  7 14  2  0  0  0  0
  8  7  1  0  0  0  0
  9 10  1  0  0  0  0
 11  2  1  0  0  0  0
 11 17  2  0  0  0  0
 12 16  2  0  0  0  0
 13  3  1  0  0  0  0
 14 13  1  0  0  0  0
 15  9  2  0  0  0  0
 17 15  1  0  0  0  0
 18  6  1  0  0  0  0
 18  9  1  0  0  0  0
 19 21  2  0  0  0  0
 19 24  1  0  0  0  0
 20 17  1  0  0  0  0
 20 23  2  0  0  0  0
 21 20  1  0  0  0  0
 22 19  1  0  0  0  0
 24 25  2  0  0  0  0
 25 23  1  0  0  0  0
M  END
>  <MODEL>
5

>  <REMARK>
 VINA RESULT:      -8.8      2.701      3.648
  Name = 
  1 active torsions:
  status: ('A' for Active; 'I' for Inactive)
    1  A    between atoms: C_6  and  C_23
                            x       y       z     vdW  Elec       q    Type
                         _______ _______ _______ _____ _____    ______ ____

>  <TORSDO>
F 1

$$$$
=
 OpenBabel11052422163D

 25 29  0  0  1  0  0  0  0  0999 V2000
  161.2110  205.3070  149.5860 C   0  0  0  0  0  0  0  0  0  0  0  0
  161.3010  206.4300  150.4090 C   0  0  0  0  0  0  0  0  0  0  0  0
  161.1120  203.8200  151.4900 C   0  0  0  0  0  3  0  0  0  0  0  0
  161.1010  205.1980  148.1080 C   0  0  2  0  0  3  0  0  0  0  0  0
  162.2070  203.7510  145.8780 C   0  0  0  0  0  3  0  0  0  0  0  0
  161.2200  204.9320  152.3420 C   0  0  0  0  0  3  0  0  0  0  0  0
  161.0480  203.6970  147.9770 C   0  0  0  0  0  0  0  0  0  0  0  0
  161.4060  203.0660  146.7040 C   0  0  0  0  0  3  0  0  0  0  0  0
  161.4090  207.3760  152.6250 C   0  0  0  0  0  0  0  0  0  0  0  0
  161.4310  207.2720  154.1130 C   0  0  0  0  0  1  0  0  0  0  0  0
  161.3770  207.6820  149.8890 N   0  0  0  0  0  0  0  0  0  0  0  0
  162.7490  205.0790  146.2670 C   0  0  0  0  0  3  0  0  0  0  0  0
  161.0950  204.0440  150.1150 C   0  0  0  0  0  0  0  0  0  0  0  0
  161.0350  203.0510  149.1030 N   0  0  0  0  0  0  0  0  0  0  0  0
  161.4860  208.6060  152.0510 N   0  0  0  0  0  0  0  0  0  0  0  0
  162.2850  205.7340  147.3450 C   0  0  0  0  0  3  0  0  0  0  0  0
  161.4690  208.7710  150.6990 C   0  0  0  0  0  0  0  0  0  0  0  0
  161.3120  206.2400  151.8090 C   0  0  0  0  0  0  0  0  0  0  0  0
  161.0230  212.4940  150.2010 C   0  0  0  0  0  0  0  0  0  0  0  0
  161.5530  210.1230  150.1150 C   0  0  0  0  0  0  0  0  0  0  0  0
  160.9430  211.2140  150.7550 C   0  0  0  0  0  3  0  0  0  0  0  0
  160.4320  213.5390  150.8260 F   0  0  0  0  0  0  0  0  0  0  0  0
  162.2440  210.3350  148.9120 C   0  0  0  0  0  3  0  0  0  0  0  0
  161.7130  212.6960  149.0030 C   0  0  0  0  0  3  0  0  0  0  0  0
  162.3230  211.6170  148.3580 C   0  0  0  0  0  3  0  0  0  0  0  0
  1 13  2  0  0  0  0
  1  2  1  0  0  0  0
  2 18  2  0  0  0  0
  3  6  2  0  0  0  0
  4 16  1  6  0  0  0
  4  1  1  0  0  0  0
  5 12  1  0  0  0  0
  5  8  2  0  0  0  0
  7  4  1  0  0  0  0
  7 14  2  0  0  0  0
  8  7  1  0  0  0  0
  9 10  1  0  0  0  0
 11  2  1  0  0  0  0
 11 17  2  0  0  0  0
 12 16  2  0  0  0  0
 13  3  1  0  0  0  0
 14 13  1  0  0  0  0
 15  9  2  0  0  0  0
 17 15  1  0  0  0  0
 18  6  1  0  0  0  0
 18  9  1  0  0  0  0
 19 21  1  0  0  0  0
 19 22  1  0  0  0  0
 20 17  1  0  0  0  0
 20 21  2  0  0  0  0
 23 20  1  0  0  0  0
 24 19  2  0  0  0  0
 25 23  2  0  0  0  0
 25 24  1  0  0  0  0
M  END
>  <MODEL>
6

>  <REMARK>
 VINA RESULT:      -8.7      1.750      2.307
  Name = 
  1 active torsions:
  status: ('A' for Active; 'I' for Inactive)
    1  A    between atoms: C_6  and  C_23
                            x       y       z     vdW  Elec       q    Type
                         _______ _______ _______ _____ _____    ______ ____

>  <TORSDO>
F 1

$$$$
=
 OpenBabel11052422163D

 25 29  0  0  1  0  0  0  0  0999 V2000
  161.5820  205.1740  148.9250 C   0  0  0  0  0  0  0  0  0  0  0  0
  161.5890  206.4610  149.4640 C   0  0  0  0  0  0  0  0  0  0  0  0
  161.9630  206.0200  146.6930 C   0  0  0  0  0  3  0  0  0  0  0  0
  161.4890  203.8490  149.5910 C   0  0  2  0  0  3  0  0  0  0  0  0
  160.1100  201.3290  149.3880 C   0  0  0  0  0  3  0  0  0  0  0  0
  161.9560  207.3270  147.2050 C   0  0  0  0  0  3  0  0  0  0  0  0
  161.5470  202.9600  148.3740 C   0  0  0  0  0  0  0  0  0  0  0  0
  161.0280  201.5920  148.4480 C   0  0  0  0  0  3  0  0  0  0  0  0
  161.7710  208.8440  149.1430 C   0  0  0  0  0  0  0  0  0  0  0  0
  161.9550  210.0590  148.2970 C   0  0  0  0  0  1  0  0  0  0  0  0
  161.4230  206.6700  150.7950 N   0  0  0  0  0  0  0  0  0  0  0  0
  159.6070  202.4020  150.2850 C   0  0  0  0  0  3  0  0  0  0  0  0
  161.7880  204.9620  147.5830 C   0  0  0  0  0  0  0  0  0  0  0  0
  161.7230  203.5850  147.2500 N   0  0  0  0  0  0  0  0  0  0  0  0
  161.5980  208.9970  150.4830 N   0  0  0  0  0  0  0  0  0  0  0  0
  160.2050  203.6040  150.3390 C   0  0  0  0  0  3  0  0  0  0  0  0
  161.4270  207.9290  151.3110 C   0  0  0  0  0  0  0  0  0  0  0  0
  161.7730  207.5560  148.5890 C   0  0  0  0  0  0  0  0  0  0  0  0
  160.7550  207.2520  154.9710 C   0  0  0  0  0  0  0  0  0  0  0  0
  161.2430  208.1360  152.7600 C   0  0  0  0  0  0  0  0  0  0  0  0
  160.9300  207.0550  153.5990 C   0  0  0  0  0  3  0  0  0  0  0  0
  160.4520  206.2030  155.7720 F   0  0  0  0  0  0  0  0  0  0  0  0
  161.3800  209.4170  153.3170 C   0  0  0  0  0  3  0  0  0  0  0  0
  160.8930  208.5310  155.5170 C   0  0  0  0  0  3  0  0  0  0  0  0
  161.2050  209.6130  154.6910 C   0  0  0  0  0  3  0  0  0  0  0  0
  1  2  1  0  0  0  0
  1  4  1  0  0  0  0
  2 11  1  0  0  0  0
  3  6  2  0  0  0  0
  3 13  1  0  0  0  0
  4 16  1  6  0  0  0
  5 12  1  0  0  0  0
  6 18  1  0  0  0  0
  7  8  1  0  0  0  0
  7  4  1  0  0  0  0
  8  5  2  0  0  0  0
  9 15  2  0  0  0  0
 10  9  1  0  0  0  0
 11 17  2  0  0  0  0
 12 16  2  0  0  0  0
 13  1  2  0  0  0  0
 14 13  1  0  0  0  0
 14  7  2  0  0  0  0
 15 17  1  0  0  0  0
 17 20  1  0  0  0  0
 18  9  1  0  0  0  0
 18  2  2  0  0  0  0
 19 24  1  0  0  0  0
 19 22  1  0  0  0  0
 20 23  2  0  0  0  0
 20 21  1  0  0  0  0
 21 19  2  0  0  0  0
 23 25  1  0  0  0  0
 25 24  2  0  0  0  0
M  END
>  <MODEL>
7

>  <REMARK>
 VINA RESULT:      -8.5      3.046      5.582
  Name = 
  1 active torsions:
  status: ('A' for Active; 'I' for Inactive)
    1  A    between atoms: C_6  and  C_23
                            x       y       z     vdW  Elec       q    Type
                         _______ _______ _______ _____ _____    ______ ____

>  <TORSDO>
F 1

$$$$
=
 OpenBabel11052422163D

 25 29  0  0  1  0  0  0  0  0999 V2000
  161.3500  207.9730  152.2690 C   0  0  0  0  0  0  0  0  0  0  0  0
  161.5680  208.2600  150.9210 C   0  0  0  0  0  0  0  0  0  0  0  0
  161.2220  205.5990  151.8260 C   0  0  0  0  0  3  0  0  0  0  0  0
  161.3420  208.8650  153.4570 C   0  0  2  0  0  3  0  0  0  0  0  0
  159.8030  209.4350  155.8230 C   0  0  0  0  0  3  0  0  0  0  0  0
  161.4220  205.8610  150.4610 C   0  0  0  0  0  3  0  0  0  0  0  0
  161.0440  207.8440  154.5270 C   0  0  0  0  0  0  0  0  0  0  0  0
  160.4760  208.2770  155.8060 C   0  0  0  0  0  3  0  0  0  0  0  0
  161.8120  207.4890  148.6480 C   0  0  0  0  0  0  0  0  0  0  0  0
  161.8580  206.4230  147.6060 C   0  0  0  0  0  1  0  0  0  0  0  0
  161.7480  209.5340  150.4910 N   0  0  0  0  0  0  0  0  0  0  0  0
  159.6020  210.2200  154.5770 C   0  0  0  0  0  3  0  0  0  0  0  0
  161.2070  206.6790  152.7080 C   0  0  0  0  0  0  0  0  0  0  0  0
  160.9770  206.6180  154.1070 N   0  0  0  0  0  0  0  0  0  0  0  0
  161.9840  208.7840  148.2710 N   0  0  0  0  0  0  0  0  0  0  0  0
  160.2680  209.9210  153.4490 C   0  0  0  0  0  3  0  0  0  0  0  0
  161.9560  209.8050  149.1730 C   0  0  0  0  0  0  0  0  0  0  0  0
  161.5990  207.1870  150.0010 C   0  0  0  0  0  0  0  0  0  0  0  0
  161.3900  213.5050  148.6320 C   0  0  0  0  0  0  0  0  0  0  0  0
  162.1470  211.1970  148.7240 C   0  0  0  0  0  0  0  0  0  0  0  0
  161.2100  212.1870  149.0580 C   0  0  0  0  0  3  0  0  0  0  0  0
  160.4810  214.4520  148.9590 F   0  0  0  0  0  0  0  0  0  0  0  0
  163.2690  211.5480  147.9580 C   0  0  0  0  0  3  0  0  0  0  0  0
  162.5110  213.8460  147.8690 C   0  0  0  0  0  3  0  0  0  0  0  0
  163.4500  212.8680  147.5310 C   0  0  0  0  0  3  0  0  0  0  0  0
  1 13  1  0  0  0  0
  1  4  1  0  0  0  0
  2  1  2  0  0  0  0
  3 13  2  0  0  0  0
  4 16  1  6  0  0  0
  4  7  1  0  0  0  0
  6  3  1  0  0  0  0
  7  8  1  0  0  0  0
  8  5  2  0  0  0  0
  9 18  1  0  0  0  0
 10  9  1  0  0  0  0
 11  2  1  0  0  0  0
 12  5  1  0  0  0  0
 13 14  1  0  0  0  0
 14  7  2  0  0  0  0
 15  9  2  0  0  0  0
 15 17  1  0  0  0  0
 16 12  2  0  0  0  0
 17 11  2  0  0  0  0
 18  6  2  0  0  0  0
 18  2  1  0  0  0  0
 19 22  1  0  0  0  0
 19 21  1  0  0  0  0
 20 21  2  0  0  0  0
 20 17  1  0  0  0  0
 23 20  1  0  0  0  0
 24 19  2  0  0  0  0
 25 24  1  0  0  0  0
 25 23  2  0  0  0  0
M  END
>  <MODEL>
8

>  <REMARK>
 VINA RESULT:      -8.1      1.993      4.882
  Name = 
  1 active torsions:
  status: ('A' for Active; 'I' for Inactive)
    1  A    between atoms: C_6  and  C_23
                            x       y       z     vdW  Elec       q    Type
                         _______ _______ _______ _____ _____    ______ ____

>  <TORSDO>
F 1

$$$$
=
 OpenBabel11052422163D

 25 29  0  0  1  0  0  0  0  0999 V2000
  161.0620  204.1410  147.9860 C   0  0  0  0  0  0  0  0  0  0  0  0
  161.1280  204.4570  149.3440 C   0  0  0  0  0  0  0  0  0  0  0  0
  160.8800  201.7780  148.4620 C   0  0  0  0  0  3  0  0  0  0  0  0
  161.0070  205.0230  146.7920 C   0  0  2  0  0  3  0  0  0  0  0  0
  162.1870  205.3400  144.1840 C   0  0  0  0  0  3  0  0  0  0  0  0
  160.9630  202.0650  149.8350 C   0  0  0  0  0  3  0  0  0  0  0  0
  160.9480  203.9700  145.7140 C   0  0  0  0  0  0  0  0  0  0  0  0
  161.3500  204.3070  144.3460 C   0  0  0  0  0  3  0  0  0  0  0  0
  161.1590  203.7320  151.6440 C   0  0  0  0  0  0  0  0  0  0  0  0
  161.1230  202.6850  152.7060 C   0  0  0  0  0  1  0  0  0  0  0  0
  161.2320  205.7430  149.7660 N   0  0  0  0  0  0  0  0  0  0  0  0
  162.7230  206.0790  145.3570 C   0  0  0  0  0  3  0  0  0  0  0  0
  160.9170  202.8420  147.5640 C   0  0  0  0  0  0  0  0  0  0  0  0
  160.8890  202.7480  146.1480 N   0  0  0  0  0  0  0  0  0  0  0  0
  161.2650  205.0360  152.0110 N   0  0  0  0  0  0  0  0  0  0  0  0
  162.2220  205.8900  146.5900 C   0  0  0  0  0  3  0  0  0  0  0  0
  161.3010  206.0410  151.0920 C   0  0  0  0  0  0  0  0  0  0  0  0
  161.0840  203.4010  150.2840 C   0  0  0  0  0  0  0  0  0  0  0  0
  161.1190  209.1530  153.2340 C   0  0  0  0  0  0  0  0  0  0  0  0
  161.4160  207.4450  151.5300 C   0  0  0  0  0  0  0  0  0  0  0  0
  161.0100  207.8230  152.8190 C   0  0  0  0  0  3  0  0  0  0  0  0
  160.7240  209.5080  154.4790 F   0  0  0  0  0  0  0  0  0  0  0  0
  161.9350  208.4190  150.6630 C   0  0  0  0  0  3  0  0  0  0  0  0
  161.6360  210.1160  152.3640 C   0  0  0  0  0  3  0  0  0  0  0  0
  162.0440  209.7500  151.0790 C   0  0  0  0  0  3  0  0  0  0  0  0
  1  2  1  0  0  0  0
  2 11  1  0  0  0  0
  2 18  2  0  0  0  0
  3  6  2  0  0  0  0
  4 16  1  6  0  0  0
  4  1  1  0  0  0  0
  5  8  2  0  0  0  0
  5 12  1  0  0  0  0
  6 18  1  0  0  0  0
  7 14  2  0  0  0  0
  7  4  1  0  0  0  0
  8  7  1  0  0  0  0
  9 15  2  0  0  0  0
  9 10  1  0  0  0  0
 11 17  2  0  0  0  0
 12 16  2  0  0  0  0
 13  1  2  0  0  0  0
 13  3  1  0  0  0  0
 14 13  1  0  0  0  0
 17 20  1  0  0  0  0
 17 15  1  0  0  0  0
 18  9  1  0  0  0  0
 19 22  1  0  0  0  0
 20 21  2  0  0  0  0
 21 19  1  0  0  0  0
 23 25  2  0  0  0  0
 23 20  1  0  0  0  0
 24 19  2  0  0  0  0
 25 24  1  0  0  0  0
M  END
>  <MODEL>
9

>  <REMARK>
 VINA RESULT:      -8.1      3.373      5.090
  Name = 
  1 active torsions:
  status: ('A' for Active; 'I' for Inactive)
    1  A    between atoms: C_6  and  C_23
                            x       y       z     vdW  Elec       q    Type
                         _______ _______ _______ _____ _____    ______ ____

>  <TORSDO>
F 1

$$$$
