=
 OpenBabel11062407413D

 27 30  0  0  1  0  0  0  0  0999 V2000
  160.4860  209.6860  153.6040 C   0  0  2  0  0  3  0  0  0  0  0  0
  160.6150  211.2030  153.3270 C   0  0  1  0  0  3  0  0  0  0  0  0
  157.4180  213.8160  152.2030 C   0  0  0  0  0  2  0  0  0  0  0  0
  156.2760  214.4340  154.2040 O   0  0  0  0  0  0  0  0  0  0  0  0
  160.4540  211.5320  151.9060 N   0  0  0  0  0  2  0  0  0  0  0  0
  157.0410  212.2030  154.2920 C   0  0  0  0  0  3  0  0  0  0  0  0
  158.1540  211.4530  154.3170 C   0  0  0  0  0  3  0  0  0  0  0  0
  156.9290  213.5320  153.6180 C   0  0  0  0  0  0  0  0  0  0  0  0
  158.9040  213.5420  151.9170 C   0  0  0  0  0  2  0  0  0  0  0  0
  159.3880  212.0120  153.7080 C   0  0  2  0  0  3  0  0  0  0  0  0
  159.1500  212.0920  152.2370 C   0  0  2  0  0  3  0  0  0  0  0  0
  161.9000  210.1750  155.7560 C   0  0  1  0  0  3  0  0  0  0  0  0
  160.5600  208.2300  157.1370 O   0  0  0  0  0  0  0  0  0  0  0  0
  162.8610  210.8420  154.9970 O   0  0  0  0  0  1  0  0  0  0  0  0
  158.7600  208.7530  155.7010 C   0  0  0  0  0  1  0  0  0  0  0  0
  161.1370  209.1490  154.8990 C   0  0  1  0  0  3  0  0  0  0  0  0
  161.9600  208.1400  157.2610 C   0  0  0  0  0  2  0  0  0  0  0  0
  160.2260  206.9530  155.2560 O   0  0  0  0  0  1  0  0  0  0  0  0
  160.1970  208.2540  155.7640 C   0  0  1  0  0  0  0  0  0  0  0  0
  162.5930  209.4940  156.9390 C   0  0  0  0  0  2  0  0  0  0  0  0
  160.6450  208.8070  152.4390 N   0  0  0  0  0  2  0  0  0  0  0  0
  162.3410  208.0260  150.7980 C   0  0  2  0  0  3  0  0  0  0  0  0
  161.1920  208.0680  149.9970 O   0  0  0  0  0  1  0  0  0  0  0  0
  162.2510  206.9690  151.9020 C   0  0  1  0  0  3  0  0  0  0  0  0
  162.0520  208.4510  152.2420 C   0  0  2  0  0  3  0  0  0  0  0  0
  160.9630  206.1430  151.8760 C   0  0  0  0  0  2  0  0  0  0  0  0
  161.2430  204.7490  152.3970 C   0  0  0  0  0  1  0  0  0  0  0  0
  1 21  1  6  0  0  0
  2  1  1  6  0  0  0
  2 10  1  0  0  0  0
  3  8  1  0  0  0  0
  5 11  1  0  0  0  0
  5  2  1  0  0  0  0
  6  7  2  0  0  0  0
  8  4  2  0  0  0  0
  8  6  1  0  0  0  0
  9  3  1  0  0  0  0
 10  7  1  1  0  0  0
 11  9  1  6  0  0  0
 11 10  1  0  0  0  0
 12 14  1  6  0  0  0
 12 20  1  0  0  0  0
 13 17  1  0  0  0  0
 16  1  1  6  0  0  0
 16 12  1  0  0  0  0
 16 19  1  0  0  0  0
 18 19  1  0  0  0  0
 19 15  1  6  0  0  0
 19 13  1  0  0  0  0
 20 17  1  0  0  0  0
 22 23  1  6  0  0  0
 22 24  1  0  0  0  0
 22 25  1  0  0  0  0
 24 26  1  6  0  0  0
 24 25  1  0  0  0  0
 25 21  1  6  0  0  0
 26 27  1  0  0  0  0
M  END
>  <MODEL>
1

>  <REMARK>
 VINA RESULT:      -5.3      0.000      0.000
  Name = 
  5 active torsions:
  status: ('A' for Active; 'I' for Inactive)
    1  A    between atoms: C_1  and  C_2
    2  A    between atoms: C_1  and  N_15
    3  A    between atoms: C_1  and  C_18
    4  A    between atoms: C_7  and  C_25
    5  A    between atoms: N_15  and  C_27
                            x       y       z     vdW  Elec       q    Type
                         _______ _______ _______ _____ _____    ______ ____

>  <TORSDO>
F 5

$$$$
=
 OpenBabel11062407413D

 27 30  0  0  1  0  0  0  0  0999 V2000
  161.3250  204.5730  148.4410 C   0  0  2  0  0  3  0  0  0  0  0  0
  160.4580  205.3730  149.4420 C   0  0  1  0  0  3  0  0  0  0  0  0
  161.9010  208.2950  152.2150 C   0  0  0  0  0  2  0  0  0  0  0  0
  162.1370  210.3450  151.0200 O   0  0  0  0  0  0  0  0  0  0  0  0
  160.6790  204.9610  150.8330 N   0  0  0  0  0  2  0  0  0  0  0  0
  162.6860  208.4850  149.6740 C   0  0  0  0  0  3  0  0  0  0  0  0
  162.1660  207.3890  149.1000 C   0  0  0  0  0  3  0  0  0  0  0  0
  162.1920  209.0910  150.9480 C   0  0  0  0  0  0  0  0  0  0  0  0
  160.8770  207.1540  152.0950 C   0  0  0  0  0  2  0  0  0  0  0  0
  160.9640  206.7770  149.7220 C   0  0  2  0  0  3  0  0  0  0  0  0
  161.3910  206.2150  151.0370 C   0  0  2  0  0  3  0  0  0  0  0  0
  160.5500  206.2350  146.5680 C   0  0  1  0  0  3  0  0  0  0  0  0
  162.3210  205.1380  144.7940 O   0  0  0  0  0  0  0  0  0  0  0  0
  159.3820  206.5180  147.2750 O   0  0  0  0  0  1  0  0  0  0  0  0
  163.6160  204.6660  146.7110 C   0  0  0  0  0  1  0  0  0  0  0  0
  161.0920  204.8430  146.9360 C   0  0  1  0  0  3  0  0  0  0  0  0
  161.0190  205.2710  144.2750 C   0  0  0  0  0  2  0  0  0  0  0  0
  162.1780  203.0540  145.7510 O   0  0  0  0  0  1  0  0  0  0  0  0
  162.2820  204.4220  146.0200 C   0  0  1  0  0  0  0  0  0  0  0  0
  160.2530  206.3290  145.0690 C   0  0  0  0  0  2  0  0  0  0  0  0
  161.5490  203.1610  148.7730 N   0  0  0  0  0  2  0  0  0  0  0  0
  160.3740  201.4060  150.0830 C   0  0  2  0  0  3  0  0  0  0  0  0
  161.6600  201.3380  150.6360 O   0  0  0  0  0  1  0  0  0  0  0  0
  160.3430  200.9790  148.6130 C   0  0  1  0  0  3  0  0  0  0  0  0
  160.2760  202.4660  148.9810 C   0  0  2  0  0  3  0  0  0  0  0  0
  161.6940  200.5170  148.0640 C   0  0  0  0  0  2  0  0  0  0  0  0
  161.4870  199.7800  146.7570 C   0  0  0  0  0  1  0  0  0  0  0  0
  1 21  1  6  0  0  0
  2  1  1  6  0  0  0
  2 10  1  0  0  0  0
  2  5  1  0  0  0  0
  5 11  1  0  0  0  0
  6  8  1  0  0  0  0
  7  6  2  0  0  0  0
  8  4  2  0  0  0  0
  8  3  1  0  0  0  0
  9  3  1  0  0  0  0
 10  7  1  6  0  0  0
 10 11  1  0  0  0  0
 11  9  1  1  0  0  0
 12 16  1  0  0  0  0
 12 14  1  1  0  0  0
 13 19  1  0  0  0  0
 16  1  1  1  0  0  0
 17 13  1  0  0  0  0
 17 20  1  0  0  0  0
 18 19  1  0  0  0  0
 19 15  1  1  0  0  0
 19 16  1  0  0  0  0
 20 12  1  0  0  0  0
 22 23  1  6  0  0  0
 24 26  1  6  0  0  0
 24 25  1  0  0  0  0
 24 22  1  0  0  0  0
 25 21  1  6  0  0  0
 25 22  1  0  0  0  0
 27 26  1  0  0  0  0
M  END
>  <MODEL>
2

>  <REMARK>
 VINA RESULT:      -5.1      4.754      8.677
  Name = 
  5 active torsions:
  status: ('A' for Active; 'I' for Inactive)
    1  A    between atoms: C_1  and  C_2
    2  A    between atoms: C_1  and  N_15
    3  A    between atoms: C_1  and  C_18
    4  A    between atoms: C_7  and  C_25
    5  A    between atoms: N_15  and  C_27
                            x       y       z     vdW  Elec       q    Type
                         _______ _______ _______ _____ _____    ______ ____

>  <TORSDO>
F 5

$$$$
=
 OpenBabel11062407413D

 27 30  0  0  1  0  0  0  0  0999 V2000
  160.2390  210.6900  153.9810 C   0  0  2  0  0  3  0  0  0  0  0  0
  160.3020  210.0740  152.5630 C   0  0  1  0  0  3  0  0  0  0  0  0
  162.6320  206.6710  151.4220 C   0  0  0  0  0  2  0  0  0  0  0  0
  161.3940  204.7290  152.0430 O   0  0  0  0  0  0  0  0  0  0  0  0
  161.5920  210.3050  151.9050 N   0  0  0  0  0  2  0  0  0  0  0  0
  161.1170  206.4750  153.6070 C   0  0  0  0  0  3  0  0  0  0  0  0
  160.6130  207.7100  153.7530 C   0  0  0  0  0  3  0  0  0  0  0  0
  161.6570  205.9260  152.3260 C   0  0  0  0  0  0  0  0  0  0  0  0
  162.1810  208.0480  150.9050 C   0  0  0  0  0  2  0  0  0  0  0  0
  160.5030  208.5690  152.5460 C   0  0  2  0  0  3  0  0  0  0  0  0
  161.8940  208.8950  152.1160 C   0  0  2  0  0  3  0  0  0  0  0  0
  158.9390  212.6790  152.8760 C   0  0  1  0  0  3  0  0  0  0  0  0
  157.0910  212.6570  154.8930 O   0  0  0  0  0  0  0  0  0  0  0  0
  160.0510  212.9990  152.0970 O   0  0  0  0  0  1  0  0  0  0  0  0
  157.5860  210.3520  155.0280 C   0  0  0  0  0  1  0  0  0  0  0  0
  159.3610  211.9490  154.1630 C   0  0  1  0  0  3  0  0  0  0  0  0
  157.5980  213.9400  154.6150 C   0  0  0  0  0  2  0  0  0  0  0  0
  158.6180  211.9340  156.4500 O   0  0  0  0  0  1  0  0  0  0  0  0
  158.1610  211.7570  155.1410 C   0  0  1  0  0  0  0  0  0  0  0  0
  158.1790  213.9680  153.2010 C   0  0  0  0  0  2  0  0  0  0  0  0
  161.5060  210.7260  154.7210 N   0  0  0  0  0  2  0  0  0  0  0  0
  162.6210  211.3340  156.8570 C   0  0  2  0  0  3  0  0  0  0  0  0
  163.7120  210.8750  156.1070 O   0  0  0  0  0  1  0  0  0  0  0  0
  161.6110  210.2260  157.1660 C   0  0  1  0  0  3  0  0  0  0  0  0
  161.3070  211.2560  156.0720 C   0  0  2  0  0  3  0  0  0  0  0  0
  162.0160  208.8450  156.6480 C   0  0  0  0  0  2  0  0  0  0  0  0
  161.1180  207.7890  157.2600 C   0  0  0  0  0  1  0  0  0  0  0  0
  1 21  1  6  0  0  0
  2  1  1  1  0  0  0
  3  8  1  0  0  0  0
  4  8  2  0  0  0  0
  5 11  1  0  0  0  0
  5  2  1  0  0  0  0
  6  7  2  0  0  0  0
  8  6  1  0  0  0  0
  9  3  1  0  0  0  0
 10  2  1  0  0  0  0
 10  7  1  1  0  0  0
 11  9  1  6  0  0  0
 11 10  1  0  0  0  0
 12 14  1  1  0  0  0
 12 20  1  0  0  0  0
 12 16  1  0  0  0  0
 13 19  1  0  0  0  0
 16  1  1  6  0  0  0
 16 19  1  0  0  0  0
 17 13  1  0  0  0  0
 19 15  1  6  0  0  0
 19 18  1  0  0  0  0
 20 17  1  0  0  0  0
 22 23  1  6  0  0  0
 22 24  1  0  0  0  0
 24 26  1  6  0  0  0
 25 21  1  6  0  0  0
 25 22  1  0  0  0  0
 25 24  1  0  0  0  0
 26 27  1  0  0  0  0
M  END
>  <MODEL>
3

>  <REMARK>
 VINA RESULT:      -5.0      1.917      5.858
  Name = 
  5 active torsions:
  status: ('A' for Active; 'I' for Inactive)
    1  A    between atoms: C_1  and  C_2
    2  A    between atoms: C_1  and  N_15
    3  A    between atoms: C_1  and  C_18
    4  A    between atoms: C_7  and  C_25
    5  A    between atoms: N_15  and  C_27
                            x       y       z     vdW  Elec       q    Type
                         _______ _______ _______ _____ _____    ______ ____

>  <TORSDO>
F 5

$$$$
=
 OpenBabel11062407413D

 27 30  0  0  1  0  0  0  0  0999 V2000
  160.7860  209.8170  153.2370 C   0  0  2  0  0  3  0  0  0  0  0  0
  160.7460  211.3350  152.9390 C   0  0  1  0  0  3  0  0  0  0  0  0
  157.2190  213.6340  152.1740 C   0  0  0  0  0  2  0  0  0  0  0  0
  156.2610  214.1810  154.2890 O   0  0  0  0  0  0  0  0  0  0  0  0
  160.3950  211.6250  151.5440 N   0  0  0  0  0  2  0  0  0  0  0  0
  157.2300  212.0280  154.3020 C   0  0  0  0  0  3  0  0  0  0  0  0
  158.4010  211.3810  154.2040 C   0  0  0  0  0  3  0  0  0  0  0  0
  156.9210  213.3310  153.6380 C   0  0  0  0  0  0  0  0  0  0  0  0
  158.6820  213.4890  151.7210 C   0  0  0  0  0  2  0  0  0  0  0  0
  159.5020  212.0370  153.4530 C   0  0  2  0  0  3  0  0  0  0  0  0
  159.0920  212.0720  152.0190 C   0  0  2  0  0  3  0  0  0  0  0  0
  161.1610  207.8860  154.9690 C   0  0  1  0  0  3  0  0  0  0  0  0
  162.6680  209.5330  156.5520 O   0  0  0  0  0  0  0  0  0  0  0  0
  160.0870  207.1740  154.4380 O   0  0  0  0  0  1  0  0  0  0  0  0
  163.2270  210.6090  154.5260 C   0  0  0  0  0  1  0  0  0  0  0  0
  161.0040  209.3940  154.7080 C   0  0  1  0  0  3  0  0  0  0  0  0
  161.6720  208.8350  157.2610 C   0  0  0  0  0  2  0  0  0  0  0  0
  161.4980  211.4080  155.9260 O   0  0  0  0  0  1  0  0  0  0  0  0
  162.0860  210.2300  155.4600 C   0  0  1  0  0  0  0  0  0  0  0  0
  161.2500  207.5970  156.4710 C   0  0  0  0  0  2  0  0  0  0  0  0
  161.5050  208.9910  152.2590 N   0  0  0  0  0  2  0  0  0  0  0  0
  161.3320  206.6710  151.3860 C   0  0  2  0  0  3  0  0  0  0  0  0
  162.6810  206.7150  151.7630 O   0  0  0  0  0  1  0  0  0  0  0  0
  161.0120  207.6200  150.2290 C   0  0  1  0  0  3  0  0  0  0  0  0
  160.6120  207.9950  151.6610 C   0  0  2  0  0  3  0  0  0  0  0  0
  162.2240  208.3790  149.6860 C   0  0  0  0  0  2  0  0  0  0  0  0
  162.6050  207.8240  148.3290 C   0  0  0  0  0  1  0  0  0  0  0  0
  1 21  1  6  0  0  0
  2  1  1  6  0  0  0
  2 10  1  0  0  0  0
  3  8  1  0  0  0  0
  5 11  1  0  0  0  0
  5  2  1  0  0  0  0
  7  6  2  0  0  0  0
  8  4  2  0  0  0  0
  8  6  1  0  0  0  0
  9  3  1  0  0  0  0
 10  7  1  1  0  0  0
 11  9  1  6  0  0  0
 11 10  1  0  0  0  0
 12 14  1  1  0  0  0
 12 20  1  0  0  0  0
 13 17  1  0  0  0  0
 16  1  1  6  0  0  0
 16 12  1  0  0  0  0
 16 19  1  0  0  0  0
 19 15  1  6  0  0  0
 19 18  1  0  0  0  0
 19 13  1  0  0  0  0
 20 17  1  0  0  0  0
 22 25  1  0  0  0  0
 22 23  1  1  0  0  0
 24 26  1  1  0  0  0
 24 22  1  0  0  0  0
 24 25  1  0  0  0  0
 25 21  1  1  0  0  0
 27 26  1  0  0  0  0
M  END
>  <MODEL>
4

>  <REMARK>
 VINA RESULT:      -3.9      1.221      2.387
  Name = 
  5 active torsions:
  status: ('A' for Active; 'I' for Inactive)
    1  A    between atoms: C_1  and  C_2
    2  A    between atoms: C_1  and  N_15
    3  A    between atoms: C_1  and  C_18
    4  A    between atoms: C_7  and  C_25
    5  A    between atoms: N_15  and  C_27
                            x       y       z     vdW  Elec       q    Type
                         _______ _______ _______ _____ _____    ______ ____

>  <TORSDO>
F 5

$$$$
=
 OpenBabel11062407413D

 27 30  0  0  1  0  0  0  0  0999 V2000
  160.7670  210.4190  153.6650 C   0  0  2  0  0  3  0  0  0  0  0  0
  159.2440  210.2630  153.8940 C   0  0  1  0  0  3  0  0  0  0  0  0
  156.4780  213.4600  154.5570 C   0  0  0  0  0  2  0  0  0  0  0  0
  155.9100  214.3550  152.4200 O   0  0  0  0  0  0  0  0  0  0  0  0
  158.8480  210.5630  155.2730 N   0  0  0  0  0  2  0  0  0  0  0  0
  158.1680  213.6710  152.5050 C   0  0  0  0  0  3  0  0  0  0  0  0
  158.9550  212.5920  152.6320 C   0  0  0  0  0  3  0  0  0  0  0  0
  156.8070  213.8050  153.1090 C   0  0  0  0  0  0  0  0  0  0  0  0
  156.7890  212.0240  155.0130 C   0  0  0  0  0  2  0  0  0  0  0  0
  158.4120  211.4100  153.3490 C   0  0  2  0  0  3  0  0  0  0  0  0
  158.2590  211.8010  154.7810 C   0  0  2  0  0  3  0  0  0  0  0  0
  160.7330  207.9520  152.7840 C   0  0  1  0  0  3  0  0  0  0  0  0
  162.2040  208.6630  150.5900 O   0  0  0  0  0  0  0  0  0  0  0  0
  160.3750  207.4840  154.0480 O   0  0  0  0  0  1  0  0  0  0  0  0
  161.1610  210.7660  150.8420 C   0  0  0  0  0  1  0  0  0  0  0  0
  161.4810  209.2920  152.8850 C   0  0  1  0  0  3  0  0  0  0  0  0
  162.7050  207.5270  151.2540 C   0  0  0  0  0  2  0  0  0  0  0  0
  163.3120  210.3290  151.7200 O   0  0  0  0  0  1  0  0  0  0  0  0
  162.0640  209.7370  151.5080 C   0  0  1  0  0  0  0  0  0  0  0  0
  161.5970  206.8920  152.0940 C   0  0  0  0  0  2  0  0  0  0  0  0
  161.5330  210.9480  154.8000 N   0  0  0  0  0  2  0  0  0  0  0  0
  161.6890  210.4390  157.2280 C   0  0  2  0  0  3  0  0  0  0  0  0
  161.3980  211.8100  157.2590 O   0  0  0  0  0  1  0  0  0  0  0  0
  163.0570  210.1410  156.6090 C   0  0  1  0  0  3  0  0  0  0  0  0
  161.7790  209.9020  155.7960 C   0  0  2  0  0  3  0  0  0  0  0  0
  163.8470  211.3870  156.2030 C   0  0  0  0  0  2  0  0  0  0  0  0
  164.8870  211.6950  157.2600 C   0  0  0  0  0  1  0  0  0  0  0  0
  1 21  1  1  0  0  0
  2  1  1  1  0  0  0
  2  5  1  0  0  0  0
  3  9  1  0  0  0  0
  4  8  2  0  0  0  0
  6  7  2  0  0  0  0
  6  8  1  0  0  0  0
  8  3  1  0  0  0  0
 10  7  1  6  0  0  0
 10  2  1  0  0  0  0
 10 11  1  0  0  0  0
 11  9  1  1  0  0  0
 11  5  1  0  0  0  0
 12 16  1  0  0  0  0
 12 14  1  1  0  0  0
 13 17  1  0  0  0  0
 13 19  1  0  0  0  0
 16  1  1  6  0  0  0
 17 20  1  0  0  0  0
 19 15  1  6  0  0  0
 19 18  1  0  0  0  0
 19 16  1  0  0  0  0
 20 12  1  0  0  0  0
 22 23  1  6  0  0  0
 24 26  1  6  0  0  0
 24 22  1  0  0  0  0
 25 21  1  6  0  0  0
 25 24  1  0  0  0  0
 25 22  1  0  0  0  0
 26 27  1  0  0  0  0
M  END
>  <MODEL>
5

>  <REMARK>
 VINA RESULT:      -3.5      1.821      4.793
  Name = 
  5 active torsions:
  status: ('A' for Active; 'I' for Inactive)
    1  A    between atoms: C_1  and  C_2
    2  A    between atoms: C_1  and  N_15
    3  A    between atoms: C_1  and  C_18
    4  A    between atoms: C_7  and  C_25
    5  A    between atoms: N_15  and  C_27
                            x       y       z     vdW  Elec       q    Type
                         _______ _______ _______ _____ _____    ______ ____

>  <TORSDO>
F 5

$$$$
=
 OpenBabel11062407413D

 27 30  0  0  1  0  0  0  0  0999 V2000
  161.1630  207.4720  152.2170 C   0  0  2  0  0  3  0  0  0  0  0  0
  162.0420  206.1980  152.2370 C   0  0  1  0  0  3  0  0  0  0  0  0
  160.8350  202.3110  150.9140 C   0  0  0  0  0  2  0  0  0  0  0  0
  161.0900  202.2630  148.5430 O   0  0  0  0  0  0  0  0  0  0  0  0
  161.6030  205.2270  153.2450 N   0  0  0  0  0  2  0  0  0  0  0  0
  160.3760  204.3830  149.2990 C   0  0  0  0  0  3  0  0  0  0  0  0
  160.7570  205.4420  150.0280 C   0  0  0  0  0  3  0  0  0  0  0  0
  160.8260  202.9780  149.5430 C   0  0  0  0  0  0  0  0  0  0  0  0
  161.6530  203.0070  152.0160 C   0  0  0  0  0  2  0  0  0  0  0  0
  161.7600  205.2280  151.1030 C   0  0  2  0  0  3  0  0  0  0  0  0
  161.1010  204.4000  152.1550 C   0  0  2  0  0  3  0  0  0  0  0  0
  161.5530  208.6160  149.8920 C   0  0  1  0  0  3  0  0  0  0  0  0
  161.2580  211.0960  151.0090 O   0  0  0  0  0  0  0  0  0  0  0  0
  162.1190  207.4460  149.3880 O   0  0  0  0  0  1  0  0  0  0  0  0
  159.8380  209.9980  152.5430 C   0  0  0  0  0  1  0  0  0  0  0  0
  161.7000  208.6840  151.4220 C   0  0  1  0  0  3  0  0  0  0  0  0
  162.4020  210.9820  150.1970 C   0  0  0  0  0  2  0  0  0  0  0  0
  162.1120  210.4220  153.0320 O   0  0  0  0  0  1  0  0  0  0  0  0
  161.2540  210.0670  151.9880 C   0  0  1  0  0  0  0  0  0  0  0  0
  162.2280  209.8170  149.2230 C   0  0  0  0  0  2  0  0  0  0  0  0
  160.5140  207.8210  153.4860 N   0  0  0  0  0  2  0  0  0  0  0  0
  160.6040  207.0540  155.8480 C   0  0  2  0  0  3  0  0  0  0  0  0
  159.2240  207.0230  155.6090 O   0  0  0  0  0  1  0  0  0  0  0  0
  161.1770  208.4730  155.8050 C   0  0  1  0  0  3  0  0  0  0  0  0
  161.3910  207.5240  154.6200 C   0  0  2  0  0  3  0  0  0  0  0  0
  160.1320  209.5650  155.5660 C   0  0  0  0  0  2  0  0  0  0  0  0
  160.6090  210.8670  156.1770 C   0  0  0  0  0  1  0  0  0  0  0  0
  1 21  1  1  0  0  0
  2  1  1  6  0  0  0
  2  5  1  0  0  0  0
  3  9  1  0  0  0  0
  4  8  2  0  0  0  0
  6  8  1  0  0  0  0
  6  7  2  0  0  0  0
  8  3  1  0  0  0  0
 10  7  1  6  0  0  0
 10 11  1  0  0  0  0
 10  2  1  0  0  0  0
 11  9  1  1  0  0  0
 11  5  1  0  0  0  0
 12 14  1  6  0  0  0
 12 16  1  0  0  0  0
 13 19  1  0  0  0  0
 16 19  1  0  0  0  0
 16  1  1  1  0  0  0
 17 13  1  0  0  0  0
 19 15  1  1  0  0  0
 19 18  1  0  0  0  0
 20 12  1  0  0  0  0
 20 17  1  0  0  0  0
 22 23  1  6  0  0  0
 24 26  1  6  0  0  0
 24 22  1  0  0  0  0
 25 21  1  6  0  0  0
 25 24  1  0  0  0  0
 25 22  1  0  0  0  0
 26 27  1  0  0  0  0
M  END
>  <MODEL>
6

>  <REMARK>
 VINA RESULT:      -3.4      2.662      7.328
  Name = 
  5 active torsions:
  status: ('A' for Active; 'I' for Inactive)
    1  A    between atoms: C_1  and  C_2
    2  A    between atoms: C_1  and  N_15
    3  A    between atoms: C_1  and  C_18
    4  A    between atoms: C_7  and  C_25
    5  A    between atoms: N_15  and  C_27
                            x       y       z     vdW  Elec       q    Type
                         _______ _______ _______ _____ _____    ______ ____

>  <TORSDO>
F 5

$$$$
=
 OpenBabel11062407413D

 27 30  0  0  1  0  0  0  0  0999 V2000
  160.6470  211.1350  153.3600 C   0  0  2  0  0  3  0  0  0  0  0  0
  160.5010  210.1720  152.1570 C   0  0  1  0  0  3  0  0  0  0  0  0
  162.4950  206.4120  151.7150 C   0  0  0  0  0  2  0  0  0  0  0  0
  161.2490  204.8020  152.9570 O   0  0  0  0  0  0  0  0  0  0  0  0
  161.7090  210.1210  151.3270 N   0  0  0  0  0  2  0  0  0  0  0  0
  161.2570  206.9090  154.0230 C   0  0  0  0  0  3  0  0  0  0  0  0
  160.8390  208.1760  153.8910 C   0  0  0  0  0  3  0  0  0  0  0  0
  161.6050  206.0060  152.8830 C   0  0  0  0  0  0  0  0  0  0  0  0
  162.0540  207.6420  150.9030 C   0  0  0  0  0  2  0  0  0  0  0  0
  160.6220  208.7020  152.5180 C   0  0  2  0  0  3  0  0  0  0  0  0
  161.9630  208.7920  151.8700 C   0  0  2  0  0  3  0  0  0  0  0  0
  162.3070  210.8180  155.3630 C   0  0  1  0  0  3  0  0  0  0  0  0
  160.2210  210.5930  157.1190 O   0  0  0  0  0  0  0  0  0  0  0  0
  163.3410  210.5030  154.4820 O   0  0  0  0  0  1  0  0  0  0  0  0
  159.0770  211.9980  155.6050 C   0  0  0  0  0  1  0  0  0  0  0  0
  160.9370  210.5000  154.7390 C   0  0  1  0  0  3  0  0  0  0  0  0
  161.1820  209.5750  157.2600 C   0  0  0  0  0  2  0  0  0  0  0  0
  158.8390  209.6470  155.5470 O   0  0  0  0  0  1  0  0  0  0  0  0
  159.7780  210.6560  155.7710 C   0  0  1  0  0  0  0  0  0  0  0  0
  162.5120  210.0360  156.6630 C   0  0  0  0  0  2  0  0  0  0  0  0
  159.7020  212.2580  153.3980 N   0  0  0  0  0  2  0  0  0  0  0  0
  158.8930  213.2830  151.2840 C   0  0  2  0  0  3  0  0  0  0  0  0
  159.9340  214.1570  151.6240 O   0  0  0  0  0  1  0  0  0  0  0  0
  157.7360  213.3270  152.2870 C   0  0  1  0  0  3  0  0  0  0  0  0
  158.7270  212.1570  152.3100 C   0  0  2  0  0  3  0  0  0  0  0  0
  157.9220  214.3430  153.4160 C   0  0  0  0  0  2  0  0  0  0  0  0
  156.6410  214.4520  154.2160 C   0  0  0  0  0  1  0  0  0  0  0  0
  1 21  1  1  0  0  0
  2 10  1  0  0  0  0
  2  1  1  1  0  0  0
  3  8  1  0  0  0  0
  5 11  1  0  0  0  0
  5  2  1  0  0  0  0
  7  6  2  0  0  0  0
  8  4  2  0  0  0  0
  8  6  1  0  0  0  0
  9  3  1  0  0  0  0
 10  7  1  1  0  0  0
 11  9  1  6  0  0  0
 11 10  1  0  0  0  0
 12 14  1  6  0  0  0
 12 20  1  0  0  0  0
 13 17  1  0  0  0  0
 16  1  1  6  0  0  0
 16 12  1  0  0  0  0
 16 19  1  0  0  0  0
 18 19  1  0  0  0  0
 19 15  1  6  0  0  0
 19 13  1  0  0  0  0
 20 17  1  0  0  0  0
 22 23  1  1  0  0  0
 22 24  1  0  0  0  0
 22 25  1  0  0  0  0
 24 25  1  0  0  0  0
 24 26  1  1  0  0  0
 25 21  1  1  0  0  0
 26 27  1  0  0  0  0
M  END
>  <MODEL>
7

>  <REMARK>
 VINA RESULT:      -3.4      1.886      5.597
  Name = 
  5 active torsions:
  status: ('A' for Active; 'I' for Inactive)
    1  A    between atoms: C_1  and  C_2
    2  A    between atoms: C_1  and  N_15
    3  A    between atoms: C_1  and  C_18
    4  A    between atoms: C_7  and  C_25
    5  A    between atoms: N_15  and  C_27
                            x       y       z     vdW  Elec       q    Type
                         _______ _______ _______ _____ _____    ______ ____

>  <TORSDO>
F 5

$$$$
=
 OpenBabel11062407413D

 27 30  0  0  1  0  0  0  0  0999 V2000
  161.1240  206.7490  151.2530 C   0  0  2  0  0  3  0  0  0  0  0  0
  161.7750  207.5340  150.0890 C   0  0  1  0  0  3  0  0  0  0  0  0
  162.2990  206.0950  146.0930 C   0  0  0  0  0  2  0  0  0  0  0  0
  160.2300  206.4190  144.9510 O   0  0  0  0  0  0  0  0  0  0  0  0
  163.0870  206.9970  149.7110 N   0  0  0  0  0  2  0  0  0  0  0  0
  159.8940  205.8340  147.2130 C   0  0  0  0  0  3  0  0  0  0  0  0
  160.0810  206.2670  148.4690 C   0  0  0  0  0  3  0  0  0  0  0  0
  160.7770  206.1750  146.0570 C   0  0  0  0  0  0  0  0  0  0  0  0
  163.0100  206.9260  147.1750 C   0  0  0  0  0  2  0  0  0  0  0  0
  161.1930  207.2190  148.7230 C   0  0  2  0  0  3  0  0  0  0  0  0
  162.4660  206.4710  148.5020 C   0  0  2  0  0  3  0  0  0  0  0  0
  161.5810  206.8800  153.8300 C   0  0  1  0  0  3  0  0  0  0  0  0
  161.5490  209.6150  153.7460 O   0  0  0  0  0  0  0  0  0  0  0  0
  161.1870  205.5520  153.9880 O   0  0  0  0  0  1  0  0  0  0  0  0
  162.3310  209.3400  151.5350 C   0  0  0  0  0  1  0  0  0  0  0  0
  160.9250  207.5050  152.5870 C   0  0  1  0  0  3  0  0  0  0  0  0
  160.7450  209.0780  154.7700 C   0  0  0  0  0  2  0  0  0  0  0  0
  160.0390  209.6670  152.0150 O   0  0  0  0  0  1  0  0  0  0  0  0
  161.1900  209.0390  152.4980 C   0  0  1  0  0  0  0  0  0  0  0  0
  161.2080  207.6580  155.0960 C   0  0  0  0  0  2  0  0  0  0  0  0
  161.5590  205.3560  151.4080 N   0  0  0  0  0  2  0  0  0  0  0  0
  160.8240  203.0290  151.8760 C   0  0  2  0  0  3  0  0  0  0  0  0
  162.2130  202.9030  152.0110 O   0  0  0  0  0  1  0  0  0  0  0  0
  160.3990  203.3640  150.4440 C   0  0  1  0  0  3  0  0  0  0  0  0
  160.4070  204.4590  151.5170 C   0  0  2  0  0  3  0  0  0  0  0  0
  161.5580  203.4400  149.4470 C   0  0  0  0  0  2  0  0  0  0  0  0
  161.2060  202.6560  148.1990 C   0  0  0  0  0  1  0  0  0  0  0  0
  1 21  1  1  0  0  0
  2  1  1  1  0  0  0
  3  9  1  0  0  0  0
  4  8  2  0  0  0  0
  5  2  1  0  0  0  0
  6  7  2  0  0  0  0
  8  3  1  0  0  0  0
  8  6  1  0  0  0  0
 10  7  1  1  0  0  0
 10  2  1  0  0  0  0
 11  9  1  6  0  0  0
 11 10  1  0  0  0  0
 11  5  1  0  0  0  0
 12 14  1  1  0  0  0
 12 20  1  0  0  0  0
 13 17  1  0  0  0  0
 16  1  1  6  0  0  0
 16 12  1  0  0  0  0
 17 20  1  0  0  0  0
 18 19  1  0  0  0  0
 19 15  1  6  0  0  0
 19 16  1  0  0  0  0
 19 13  1  0  0  0  0
 22 23  1  6  0  0  0
 24 26  1  6  0  0  0
 24 25  1  0  0  0  0
 24 22  1  0  0  0  0
 25 21  1  6  0  0  0
 25 22  1  0  0  0  0
 27 26  1  0  0  0  0
M  END
>  <MODEL>
8

>  <REMARK>
 VINA RESULT:      -2.8      3.429      6.478
  Name = 
  5 active torsions:
  status: ('A' for Active; 'I' for Inactive)
    1  A    between atoms: C_1  and  C_2
    2  A    between atoms: C_1  and  N_15
    3  A    between atoms: C_1  and  C_18
    4  A    between atoms: C_7  and  C_25
    5  A    between atoms: N_15  and  C_27
                            x       y       z     vdW  Elec       q    Type
                         _______ _______ _______ _____ _____    ______ ____

>  <TORSDO>
F 5

$$$$
=
 OpenBabel11062407413D

 27 30  0  0  1  0  0  0  0  0999 V2000
  160.6290  208.7020  152.7170 C   0  0  2  0  0  3  0  0  0  0  0  0
  161.7640  207.6790  152.4680 C   0  0  1  0  0  3  0  0  0  0  0  0
  161.2990  203.8210  150.6760 C   0  0  0  0  0  2  0  0  0  0  0  0
  161.2770  204.1400  148.3130 O   0  0  0  0  0  0  0  0  0  0  0  0
  161.6720  206.5110  153.3500 N   0  0  0  0  0  2  0  0  0  0  0  0
  160.2060  205.9160  149.4410 C   0  0  0  0  0  3  0  0  0  0  0  0
  160.4260  206.9330  150.2880 C   0  0  0  0  0  3  0  0  0  0  0  0
  160.9810  204.6380  149.4300 C   0  0  0  0  0  0  0  0  0  0  0  0
  162.0670  204.5420  151.7980 C   0  0  0  0  0  2  0  0  0  0  0  0
  161.5710  206.8250  151.2280 C   0  0  2  0  0  3  0  0  0  0  0  0
  161.2410  205.7360  152.1940 C   0  0  2  0  0  3  0  0  0  0  0  0
  159.9030  211.1960  152.3680 C   0  0  1  0  0  3  0  0  0  0  0  0
  162.0550  211.6450  150.7390 O   0  0  0  0  0  0  0  0  0  0  0  0
  158.6160  210.9050  152.8170 O   0  0  0  0  0  1  0  0  0  0  0  0
  163.1100  209.9770  152.0360 C   0  0  0  0  0  1  0  0  0  0  0  0
  160.5820  209.9400  151.7930 C   0  0  1  0  0  3  0  0  0  0  0  0
  160.8380  212.0970  150.1950 C   0  0  0  0  0  2  0  0  0  0  0  0
  162.0780  209.4810  149.9670 O   0  0  0  0  0  1  0  0  0  0  0  0
  161.9420  210.2780  151.1070 C   0  0  1  0  0  0  0  0  0  0  0  0
  159.8190  212.3040  151.3150 C   0  0  0  0  0  2  0  0  0  0  0  0
  160.3200  208.9860  154.1240 N   0  0  0  0  0  2  0  0  0  0  0  0
  161.4230  208.7850  156.3420 C   0  0  2  0  0  3  0  0  0  0  0  0
  160.1670  208.2300  156.6170 O   0  0  0  0  0  1  0  0  0  0  0  0
  161.3470  210.2760  156.0010 C   0  0  1  0  0  3  0  0  0  0  0  0
  161.5450  209.2440  154.8850 C   0  0  2  0  0  3  0  0  0  0  0  0
  159.9380  210.8660  156.0810 C   0  0  0  0  0  2  0  0  0  0  0  0
  160.0090  212.3720  155.9250 C   0  0  0  0  0  1  0  0  0  0  0  0
  1 21  1  1  0  0  0
  2  1  1  1  0  0  0
  2  5  1  0  0  0  0
  3  9  1  0  0  0  0
  4  8  2  0  0  0  0
  6  7  2  0  0  0  0
  8  6  1  0  0  0  0
  8  3  1  0  0  0  0
 10  7  1  6  0  0  0
 10 11  1  0  0  0  0
 10  2  1  0  0  0  0
 11  9  1  6  0  0  0
 11  5  1  0  0  0  0
 12 14  1  6  0  0  0
 13 19  1  0  0  0  0
 16 12  1  0  0  0  0
 16  1  1  1  0  0  0
 17 13  1  0  0  0  0
 17 20  1  0  0  0  0
 18 19  1  0  0  0  0
 19 16  1  0  0  0  0
 19 15  1  1  0  0  0
 20 12  1  0  0  0  0
 22 23  1  6  0  0  0
 24 26  1  6  0  0  0
 24 22  1  0  0  0  0
 25 21  1  6  0  0  0
 25 24  1  0  0  0  0
 25 22  1  0  0  0  0
 27 26  1  0  0  0  0
M  END
>  <MODEL>
9

>  <REMARK>
 VINA RESULT:      -2.7      2.173      6.881
  Name = 
  5 active torsions:
  status: ('A' for Active; 'I' for Inactive)
    1  A    between atoms: C_1  and  C_2
    2  A    between atoms: C_1  and  N_15
    3  A    between atoms: C_1  and  C_18
    4  A    between atoms: C_7  and  C_25
    5  A    between atoms: N_15  and  C_27
                            x       y       z     vdW  Elec       q    Type
                         _______ _______ _______ _____ _____    ______ ____

>  <TORSDO>
F 5

$$$$
