=
 OpenBabel11062410493D

 32 37  0  0  1  0  0  0  0  0999 V2000
  160.8740  202.2160  147.6640 C   0  0  0  0  0  0  0  0  0  0  0  0
  160.8200  205.8810  151.1320 C   0  0  0  0  0  0  0  0  0  0  0  0
  162.1630  210.0700  148.8830 C   0  0  0  0  0  3  0  0  0  0  0  0
  162.2420  210.6830  150.1350 C   0  0  0  0  0  3  0  0  0  0  0  0
  160.7430  203.7830  149.9850 C   0  0  0  0  0  0  0  0  0  0  0  0
  161.6550  205.7720  148.7620 C   0  0  0  0  0  2  0  0  0  0  0  0
  161.2550  203.5660  147.6220 C   0  0  0  0  0  3  0  0  0  0  0  0
  161.7430  208.7420  148.7810 C   0  0  0  0  0  3  0  0  0  0  0  0
  160.8850  206.6020  149.7990 C   0  0  2  0  0  3  0  0  0  0  0  0
  161.4170  208.0070  149.9310 C   0  0  0  0  0  0  0  0  0  0  0  0
  161.0970  207.8910  152.4150 C   0  0  0  0  0  0  0  0  0  0  0  0
  160.4400  201.6550  148.8710 C   0  0  0  0  0  3  0  0  0  0  0  0
  161.1790  204.3500  148.7750 C   0  0  0  0  0  0  0  0  0  0  0  0
  160.3780  202.4350  150.0310 C   0  0  0  0  0  3  0  0  0  0  0  0
  161.8960  209.9700  151.2840 C   0  0  0  0  0  3  0  0  0  0  0  0
  161.4750  208.6350  151.1930 C   0  0  0  0  0  0  0  0  0  0  0  0
  161.0770  208.5680  153.6770 N   0  0  0  0  0  2  0  0  0  0  0  0
  160.6900  204.5870  151.1710 N   0  0  0  0  0  0  0  0  0  0  0  0
  160.8150  206.6230  152.3550 N   0  0  0  0  0  0  0  0  0  0  0  0
  161.1480  200.0990  146.5500 N   0  0  0  0  0  0  0  0  0  0  0  0
  160.9330  201.3710  146.4670 C   0  0  0  0  0  3  0  0  0  0  0  0
  161.2000  199.2910  145.3460 C   0  0  2  0  0  3  0  0  0  0  0  0
  160.7790  197.9840  145.6520 O   0  0  0  0  0  0  0  0  0  0  0  0
  162.1640  198.1870  145.5290 C   0  0  0  0  0  2  0  0  0  0  0  0
  160.6940  207.9180  154.9250 C   0  0  1  0  0  3  0  0  0  0  0  0
  161.9290  207.6580  155.7880 C   0  0  0  0  0  2  0  0  0  0  0  0
  161.8840  208.4220  157.1030 C   0  0  0  0  0  2  0  0  0  0  0  0
  162.7350  209.5230  157.0290 O   0  0  0  0  0  1  0  0  0  0  0  0
  159.6550  208.7570  155.6630 C   0  0  0  0  0  2  0  0  0  0  0  0
  159.5850  211.1650  156.1880 C   0  0  0  0  0  2  0  0  0  0  0  0
  158.2830  210.8040  155.5090 C   0  0  0  0  0  2  0  0  0  0  0  0
  159.5750  210.1480  155.0660 C   0  0  0  0  0  3  0  0  0  0  0  0
  1 12  1  0  0  0  0
  2 18  2  0  0  0  0
  2 19  1  0  0  0  0
  3  4  1  0  0  0  0
  4 15  2  0  0  0  0
  5 14  1  0  0  0  0
  5 18  1  0  0  0  0
  6 13  1  0  0  0  0
  7  1  2  0  0  0  0
  7 13  1  0  0  0  0
  8  3  2  0  0  0  0
  8 10  1  0  0  0  0
  9  6  1  6  0  0  0
  9 10  1  0  0  0  0
  9  2  1  0  0  0  0
 10 16  2  0  0  0  0
 11 17  1  0  0  0  0
 12 14  2  0  0  0  0
 13  5  2  0  0  0  0
 16 15  1  0  0  0  0
 16 11  1  0  0  0  0
 17 25  1  0  0  0  0
 19 11  2  0  0  0  0
 21 20  2  0  0  0  0
 21  1  1  0  0  0  0
 22 24  1  0  0  0  0
 22 23  1  0  0  0  0
 22 20  1  1  0  0  0
 24 23  1  0  0  0  0
 25 29  1  1  0  0  0
 25 26  1  0  0  0  0
 26 27  1  0  0  0  0
 28 27  1  0  0  0  0
 31 30  1  0  0  0  0
 32 31  1  0  0  0  0
 32 29  1  0  0  0  0
 32 30  1  0  0  0  0
M  END
>  <MODEL>
1

>  <REMARK>
 VINA RESULT:      -7.2      0.000      0.000
  Name = 
  7 active torsions:
  status: ('A' for Active; 'I' for Inactive)
    1  A    between atoms: C_1  and  N_10
    2  A    between atoms: C_2  and  C_24
    3  A    between atoms: C_6  and  C_7
    4  A    between atoms: C_7  and  C_32
    5  A    between atoms: C_22  and  C_30
    6  A    between atoms: C_22  and  C_32
    7  A    between atoms: N_27  and  C_32
                            x       y       z     vdW  Elec       q    Type
                         _______ _______ _______ _____ _____    ______ ____

>  <TORSDO>
F 7

$$$$
=
 OpenBabel11062410493D

 32 37  0  0  1  0  0  0  0  0999 V2000
  160.9150  202.6050  149.0970 C   0  0  0  0  0  0  0  0  0  0  0  0
  161.2290  206.9230  151.6890 C   0  0  0  0  0  0  0  0  0  0  0  0
  162.0240  210.5520  148.4320 C   0  0  0  0  0  3  0  0  0  0  0  0
  162.2670  211.4190  149.5000 C   0  0  0  0  0  3  0  0  0  0  0  0
  161.0710  204.6280  151.0310 C   0  0  0  0  0  0  0  0  0  0  0  0
  161.6960  206.3220  149.2920 C   0  0  0  0  0  2  0  0  0  0  0  0
  161.2240  203.9200  148.7140 C   0  0  0  0  0  3  0  0  0  0  0  0
  161.6530  209.2290  148.6770 C   0  0  0  0  0  3  0  0  0  0  0  0
  161.0580  207.3450  150.2410 C   0  0  2  0  0  3  0  0  0  0  0  0
  161.5400  208.7510  149.9910 C   0  0  0  0  0  0  0  0  0  0  0  0
  161.6100  209.1630  152.4640 C   0  0  0  0  0  0  0  0  0  0  0  0
  160.6960  202.3090  150.4470 C   0  0  0  0  0  3  0  0  0  0  0  0
  161.2910  204.9300  149.6760 C   0  0  0  0  0  0  0  0  0  0  0  0
  160.7780  203.3170  151.4140 C   0  0  0  0  0  3  0  0  0  0  0  0
  162.1330  210.9630  150.8120 C   0  0  0  0  0  3  0  0  0  0  0  0
  161.7630  209.6340  151.0690 C   0  0  0  0  0  0  0  0  0  0  0  0
  161.7530  210.0930  153.5440 N   0  0  0  0  0  2  0  0  0  0  0  0
  161.1650  205.6660  152.0170 N   0  0  0  0  0  0  0  0  0  0  0  0
  161.3780  207.9080  152.7150 N   0  0  0  0  0  0  0  0  0  0  0  0
  160.7730  201.7750  146.8410 N   0  0  0  0  0  0  0  0  0  0  0  0
  160.8280  201.5260  148.1080 C   0  0  0  0  0  3  0  0  0  0  0  0
  160.6880  200.6840  145.8880 C   0  0  2  0  0  3  0  0  0  0  0  0
  160.3910  201.2070  144.6160 O   0  0  0  0  0  0  0  0  0  0  0  0
  159.3250  200.6230  145.3210 C   0  0  0  0  0  2  0  0  0  0  0  0
  161.5950  209.7190  154.9440 C   0  0  1  0  0  3  0  0  0  0  0  0
  162.1360  210.8240  155.8530 C   0  0  0  0  0  2  0  0  0  0  0  0
  163.1110  210.2900  156.8910 C   0  0  0  0  0  2  0  0  0  0  0  0
  164.0730  211.2590  157.1670 O   0  0  0  0  0  1  0  0  0  0  0  0
  160.1340  209.4030  155.2480 C   0  0  0  0  0  2  0  0  0  0  0  0
  160.9010  207.3150  156.3140 C   0  0  0  0  0  2  0  0  0  0  0  0
  159.4060  207.2070  156.1120 C   0  0  0  0  0  2  0  0  0  0  0  0
  160.0250  208.5380  156.4890 C   0  0  0  0  0  3  0  0  0  0  0  0
  1 12  1  0  0  0  0
  2 18  2  0  0  0  0
  2 19  1  0  0  0  0
  3  8  2  0  0  0  0
  3  4  1  0  0  0  0
  4 15  2  0  0  0  0
  5 14  1  0  0  0  0
  5 18  1  0  0  0  0
  6 13  1  0  0  0  0
  7  1  2  0  0  0  0
  7 13  1  0  0  0  0
  8 10  1  0  0  0  0
  9  6  1  6  0  0  0
  9  2  1  0  0  0  0
 10  9  1  0  0  0  0
 10 16  2  0  0  0  0
 11 19  2  0  0  0  0
 11 17  1  0  0  0  0
 12 14  2  0  0  0  0
 13  5  2  0  0  0  0
 15 16  1  0  0  0  0
 16 11  1  0  0  0  0
 17 25  1  0  0  0  0
 20 21  2  0  0  0  0
 21  1  1  0  0  0  0
 22 20  1  1  0  0  0
 23 24  1  0  0  0  0
 23 22  1  0  0  0  0
 24 22  1  0  0  0  0
 25 29  1  1  0  0  0
 25 26  1  0  0  0  0
 26 27  1  0  0  0  0
 27 28  1  0  0  0  0
 29 32  1  0  0  0  0
 30 32  1  0  0  0  0
 31 30  1  0  0  0  0
 31 32  1  0  0  0  0
M  END
>  <MODEL>
2

>  <REMARK>
 VINA RESULT:      -6.9      1.445      1.965
  Name = 
  7 active torsions:
  status: ('A' for Active; 'I' for Inactive)
    1  A    between atoms: C_1  and  N_10
    2  A    between atoms: C_2  and  C_24
    3  A    between atoms: C_6  and  C_7
    4  A    between atoms: C_7  and  C_32
    5  A    between atoms: C_22  and  C_30
    6  A    between atoms: C_22  and  C_32
    7  A    between atoms: N_27  and  C_32
                            x       y       z     vdW  Elec       q    Type
                         _______ _______ _______ _____ _____    ______ ____

>  <TORSDO>
F 7

$$$$
=
 OpenBabel11062410493D

 32 37  0  0  1  0  0  0  0  0999 V2000
  161.5490  209.9810  153.4050 C   0  0  0  0  0  0  0  0  0  0  0  0
  161.0770  206.5900  149.6980 C   0  0  0  0  0  0  0  0  0  0  0  0
  161.0550  202.1110  151.7820 C   0  0  0  0  0  3  0  0  0  0  0  0
  161.1510  201.5480  150.5080 C   0  0  0  0  0  3  0  0  0  0  0  0
  161.3560  208.5930  150.9770 C   0  0  0  0  0  0  0  0  0  0  0  0
  161.5880  206.3910  152.1530 C   0  0  0  0  0  2  0  0  0  0  0  0
  161.5830  208.5780  153.3940 C   0  0  0  0  0  3  0  0  0  0  0  0
  160.9590  203.4960  151.9290 C   0  0  0  0  0  3  0  0  0  0  0  0
  160.7870  205.8220  150.9740 C   0  0  2  0  0  3  0  0  0  0  0  0
  160.9760  204.3350  150.8050 C   0  0  0  0  0  0  0  0  0  0  0  0
  161.0300  204.6280  148.3160 C   0  0  0  0  0  0  0  0  0  0  0  0
  161.4290  210.6810  152.1990 C   0  0  0  0  0  3  0  0  0  0  0  0
  161.4760  207.8860  152.1860 C   0  0  0  0  0  0  0  0  0  0  0  0
  161.3360  209.9900  150.9860 C   0  0  0  0  0  3  0  0  0  0  0  0
  161.1440  202.3720  149.3800 C   0  0  0  0  0  3  0  0  0  0  0  0
  161.0500  203.7640  149.5170 C   0  0  0  0  0  0  0  0  0  0  0  0
  161.0160  204.0300  147.0140 N   0  0  0  0  0  2  0  0  0  0  0  0
  161.2690  207.8760  149.7380 N   0  0  0  0  0  0  0  0  0  0  0  0
  161.0560  205.9240  148.4330 N   0  0  0  0  0  0  0  0  0  0  0  0
  160.6030  211.2310  155.2330 N   0  0  0  0  0  0  0  0  0  0  0  0
  161.6490  210.7350  154.6580 C   0  0  0  0  0  3  0  0  0  0  0  0
  160.7360  211.9720  156.4730 C   0  0  2  0  0  3  0  0  0  0  0  0
  159.4740  212.0740  157.0850 O   0  0  0  0  0  0  0  0  0  0  0  0
  159.9360  213.2120  156.4010 C   0  0  0  0  0  2  0  0  0  0  0  0
  160.9720  204.8050  145.7800 C   0  0  1  0  0  3  0  0  0  0  0  0
  162.3560  205.3690  145.4580 C   0  0  0  0  0  2  0  0  0  0  0  0
  163.4380  204.3000  145.5000 C   0  0  0  0  0  2  0  0  0  0  0  0
  164.2580  204.5130  146.6060 O   0  0  0  0  0  1  0  0  0  0  0  0
  160.4280  203.9530  144.6370 C   0  0  0  0  0  2  0  0  0  0  0  0
  160.5260  201.7100  145.6610 C   0  0  0  0  0  2  0  0  0  0  0  0
  159.8300  201.5770  144.3240 C   0  0  0  0  0  2  0  0  0  0  0  0
  159.5970  202.8060  145.1790 C   0  0  0  0  0  3  0  0  0  0  0  0
  1 21  1  0  0  0  0
  2 18  2  0  0  0  0
  2  9  1  0  0  0  0
  3  8  1  0  0  0  0
  4  3  2  0  0  0  0
  5 14  2  0  0  0  0
  5 13  1  0  0  0  0
  6 13  1  0  0  0  0
  7  1  1  0  0  0  0
  9  6  1  1  0  0  0
 10  9  1  0  0  0  0
 10  8  2  0  0  0  0
 11 19  2  0  0  0  0
 11 16  1  0  0  0  0
 12  1  2  0  0  0  0
 13  7  2  0  0  0  0
 14 12  1  0  0  0  0
 15 16  2  0  0  0  0
 15  4  1  0  0  0  0
 16 10  1  0  0  0  0
 17 11  1  0  0  0  0
 18  5  1  0  0  0  0
 19  2  1  0  0  0  0
 21 20  2  0  0  0  0
 22 20  1  6  0  0  0
 22 23  1  0  0  0  0
 24 22  1  0  0  0  0
 24 23  1  0  0  0  0
 25 29  1  6  0  0  0
 25 17  1  0  0  0  0
 26 27  1  0  0  0  0
 26 25  1  0  0  0  0
 27 28  1  0  0  0  0
 29 32  1  0  0  0  0
 31 32  1  0  0  0  0
 31 30  1  0  0  0  0
 32 30  1  0  0  0  0
M  END
>  <MODEL>
3

>  <REMARK>
 VINA RESULT:      -6.7      2.551     10.180
  Name = 
  7 active torsions:
  status: ('A' for Active; 'I' for Inactive)
    1  A    between atoms: C_1  and  N_10
    2  A    between atoms: C_2  and  C_24
    3  A    between atoms: C_6  and  C_7
    4  A    between atoms: C_7  and  C_32
    5  A    between atoms: C_22  and  C_30
    6  A    between atoms: C_22  and  C_32
    7  A    between atoms: N_27  and  C_32
                            x       y       z     vdW  Elec       q    Type
                         _______ _______ _______ _____ _____    ______ ____

>  <TORSDO>
F 7

$$$$
=
 OpenBabel11062410493D

 32 37  0  0  1  0  0  0  0  0999 V2000
  161.1660  202.4090  148.3000 C   0  0  0  0  0  0  0  0  0  0  0  0
  161.1800  207.1080  150.1390 C   0  0  0  0  0  0  0  0  0  0  0  0
  161.0460  206.7710  155.0660 C   0  0  0  0  0  3  0  0  0  0  0  0
  160.8320  208.1500  155.1260 C   0  0  0  0  0  3  0  0  0  0  0  0
  161.1130  205.1790  148.7240 C   0  0  0  0  0  0  0  0  0  0  0  0
  160.8150  204.8530  151.1920 C   0  0  0  0  0  2  0  0  0  0  0  0
  161.0410  202.9170  149.6020 C   0  0  0  0  0  3  0  0  0  0  0  0
  161.2410  206.1480  153.8320 C   0  0  0  0  0  3  0  0  0  0  0  0
  161.5010  206.2190  151.3270 C   0  0  2  0  0  3  0  0  0  0  0  0
  161.2050  206.8920  152.6440 C   0  0  0  0  0  0  0  0  0  0  0  0
  161.0110  209.0990  151.4690 C   0  0  0  0  0  0  0  0  0  0  0  0
  161.2530  203.2910  147.2170 C   0  0  0  0  0  3  0  0  0  0  0  0
  161.0250  204.2970  149.8150 C   0  0  0  0  0  0  0  0  0  0  0  0
  161.2230  204.6740  147.4270 C   0  0  0  0  0  3  0  0  0  0  0  0
  160.8200  208.9050  153.9520 C   0  0  0  0  0  3  0  0  0  0  0  0
  161.0130  208.2880  152.7070 C   0  0  0  0  0  0  0  0  0  0  0  0
  160.9030  210.5240  151.5570 N   0  0  0  0  0  2  0  0  0  0  0  0
  161.0730  206.5950  148.9480 N   0  0  0  0  0  0  0  0  0  0  0  0
  161.0760  208.5240  150.3040 N   0  0  0  0  0  0  0  0  0  0  0  0
  161.2740  200.4930  146.8460 N   0  0  0  0  0  0  0  0  0  0  0  0
  161.1950  200.9650  148.0470 C   0  0  0  0  0  3  0  0  0  0  0  0
  161.3010  199.0580  146.6290 C   0  0  2  0  0  3  0  0  0  0  0  0
  162.1980  198.7690  145.5840 O   0  0  0  0  0  0  0  0  0  0  0  0
  160.8290  198.7530  145.2620 C   0  0  0  0  0  2  0  0  0  0  0  0
  160.9180  211.3990  150.3910 C   0  0  1  0  0  3  0  0  0  0  0  0
  160.3410  212.7690  150.7490 C   0  0  0  0  0  2  0  0  0  0  0  0
  159.6940  212.7810  152.1250 C   0  0  0  0  0  2  0  0  0  0  0  0
  158.3810  213.2350  152.0170 O   0  0  0  0  0  1  0  0  0  0  0  0
  162.3310  211.5100  149.8290 C   0  0  0  0  0  2  0  0  0  0  0  0
  163.6910  212.1330  147.8670 C   0  0  0  0  0  2  0  0  0  0  0  0
  162.7110  213.2550  148.1230 C   0  0  0  0  0  2  0  0  0  0  0  0
  162.2890  211.8170  148.3440 C   0  0  0  0  0  3  0  0  0  0  0  0
  1  7  1  0  0  0  0
  2 19  1  0  0  0  0
  2  9  1  0  0  0  0
  3  4  1  0  0  0  0
  5 18  1  0  0  0  0
  5 13  1  0  0  0  0
  7 13  2  0  0  0  0
  8  3  2  0  0  0  0
  9  6  1  6  0  0  0
  9 10  1  0  0  0  0
 10 16  2  0  0  0  0
 10  8  1  0  0  0  0
 11 17  1  0  0  0  0
 11 16  1  0  0  0  0
 12 14  1  0  0  0  0
 12  1  2  0  0  0  0
 13  6  1  0  0  0  0
 14  5  2  0  0  0  0
 15  4  2  0  0  0  0
 16 15  1  0  0  0  0
 18  2  2  0  0  0  0
 19 11  2  0  0  0  0
 20 21  2  0  0  0  0
 21  1  1  0  0  0  0
 22 20  1  6  0  0  0
 23 22  1  0  0  0  0
 24 23  1  0  0  0  0
 24 22  1  0  0  0  0
 25 29  1  1  0  0  0
 25 26  1  0  0  0  0
 25 17  1  0  0  0  0
 26 27  1  0  0  0  0
 28 27  1  0  0  0  0
 30 31  1  0  0  0  0
 30 32  1  0  0  0  0
 31 32  1  0  0  0  0
 32 29  1  0  0  0  0
M  END
>  <MODEL>
4

>  <REMARK>
 VINA RESULT:      -6.2      2.185      4.609
  Name = 
  7 active torsions:
  status: ('A' for Active; 'I' for Inactive)
    1  A    between atoms: C_1  and  N_10
    2  A    between atoms: C_2  and  C_24
    3  A    between atoms: C_6  and  C_7
    4  A    between atoms: C_7  and  C_32
    5  A    between atoms: C_22  and  C_30
    6  A    between atoms: C_22  and  C_32
    7  A    between atoms: N_27  and  C_32
                            x       y       z     vdW  Elec       q    Type
                         _______ _______ _______ _____ _____    ______ ____

>  <TORSDO>
F 7

$$$$
=
 OpenBabel11062410493D

 32 37  0  0  1  0  0  0  0  0999 V2000
  161.6730  205.1790  148.6150 C   0  0  0  0  0  0  0  0  0  0  0  0
  160.8510  208.8210  152.0100 C   0  0  0  0  0  0  0  0  0  0  0  0
  160.6180  206.6780  156.4550 C   0  0  0  0  0  3  0  0  0  0  0  0
  160.1780  207.8920  156.9860 C   0  0  0  0  0  3  0  0  0  0  0  0
  161.1490  207.5610  149.9980 C   0  0  0  0  0  0  0  0  0  0  0  0
  160.8310  206.3100  152.1470 C   0  0  0  0  0  2  0  0  0  0  0  0
  161.4240  205.1490  149.9960 C   0  0  0  0  0  3  0  0  0  0  0  0
  160.9520  206.5880  155.1030 C   0  0  0  0  0  3  0  0  0  0  0  0
  161.2760  207.6130  152.8240 C   0  0  2  0  0  3  0  0  0  0  0  0
  160.8320  207.7040  154.2620 C   0  0  0  0  0  0  0  0  0  0  0  0
  160.3130  210.1360  153.9450 C   0  0  0  0  0  0  0  0  0  0  0  0
  161.6480  206.4010  147.9330 C   0  0  0  0  0  3  0  0  0  0  0  0
  161.1740  206.3360  150.6870 C   0  0  0  0  0  0  0  0  0  0  0  0
  161.3830  207.5900  148.6210 C   0  0  0  0  0  3  0  0  0  0  0  0
  160.0780  209.0170  156.1650 C   0  0  0  0  0  3  0  0  0  0  0  0
  160.4090  208.9360  154.8050 C   0  0  0  0  0  0  0  0  0  0  0  0
  159.9680  211.3980  154.5280 N   0  0  0  0  0  2  0  0  0  0  0  0
  160.8690  208.7740  150.7090 N   0  0  0  0  0  0  0  0  0  0  0  0
  160.5090  210.0470  152.6620 N   0  0  0  0  0  0  0  0  0  0  0  0
  161.2110  203.5910  146.8660 N   0  0  0  0  0  0  0  0  0  0  0  0
  161.9480  203.9510  147.8640 C   0  0  0  0  0  3  0  0  0  0  0  0
  161.5100  202.3690  146.1430 C   0  0  2  0  0  3  0  0  0  0  0  0
  160.4840  202.1210  145.2140 O   0  0  0  0  0  0  0  0  0  0  0  0
  160.4550  201.3670  146.4000 C   0  0  0  0  0  2  0  0  0  0  0  0
  159.8750  212.6330  153.7600 C   0  0  1  0  0  3  0  0  0  0  0  0
  159.4930  212.3300  152.3100 C   0  0  0  0  0  2  0  0  0  0  0  0
  159.2230  213.5940  151.5090 C   0  0  0  0  0  2  0  0  0  0  0  0
  157.9570  213.5170  150.9330 O   0  0  0  0  0  1  0  0  0  0  0  0
  158.8860  213.5930  154.4150 C   0  0  0  0  0  2  0  0  0  0  0  0
  156.4300  213.5450  154.1950 C   0  0  0  0  0  2  0  0  0  0  0  0
  156.7580  213.7830  155.6520 C   0  0  0  0  0  2  0  0  0  0  0  0
  157.6240  212.8580  154.8230 C   0  0  0  0  0  3  0  0  0  0  0  0
  1  7  1  0  0  0  0
  2 19  1  0  0  0  0
  2  9  1  0  0  0  0
  3  4  1  0  0  0  0
  5 13  1  0  0  0  0
  5 18  1  0  0  0  0
  7 13  2  0  0  0  0
  8  3  2  0  0  0  0
  9  6  1  6  0  0  0
  9 10  1  0  0  0  0
 10 16  2  0  0  0  0
 10  8  1  0  0  0  0
 11 17  1  0  0  0  0
 11 16  1  0  0  0  0
 12  1  2  0  0  0  0
 12 14  1  0  0  0  0
 13  6  1  0  0  0  0
 14  5  2  0  0  0  0
 15  4  2  0  0  0  0
 16 15  1  0  0  0  0
 18  2  2  0  0  0  0
 19 11  2  0  0  0  0
 20 21  2  0  0  0  0
 21  1  1  0  0  0  0
 22 24  1  0  0  0  0
 22 20  1  1  0  0  0
 23 22  1  0  0  0  0
 23 24  1  0  0  0  0
 25 26  1  6  0  0  0
 25 29  1  0  0  0  0
 25 17  1  0  0  0  0
 27 26  1  0  0  0  0
 28 27  1  0  0  0  0
 29 32  1  0  0  0  0
 30 32  1  0  0  0  0
 30 31  1  0  0  0  0
 32 31  1  0  0  0  0
M  END
>  <MODEL>
5

>  <REMARK>
 VINA RESULT:      -5.7      2.663      4.834
  Name = 
  7 active torsions:
  status: ('A' for Active; 'I' for Inactive)
    1  A    between atoms: C_1  and  N_10
    2  A    between atoms: C_2  and  C_24
    3  A    between atoms: C_6  and  C_7
    4  A    between atoms: C_7  and  C_32
    5  A    between atoms: C_22  and  C_30
    6  A    between atoms: C_22  and  C_32
    7  A    between atoms: N_27  and  C_32
                            x       y       z     vdW  Elec       q    Type
                         _______ _______ _______ _____ _____    ______ ____

>  <TORSDO>
F 7

$$$$
=
 OpenBabel11062410493D

 32 37  0  0  1  0  0  0  0  0999 V2000
  160.8870  209.0360  155.4240 C   0  0  0  0  0  0  0  0  0  0  0  0
  161.1180  205.5070  151.8250 C   0  0  0  0  0  0  0  0  0  0  0  0
  161.8550  207.8220  147.5240 C   0  0  0  0  0  3  0  0  0  0  0  0
  161.6260  206.6130  146.8650 C   0  0  0  0  0  3  0  0  0  0  0  0
  160.8480  206.6930  153.8850 C   0  0  0  0  0  0  0  0  0  0  0  0
  160.9930  208.0180  151.7620 C   0  0  0  0  0  2  0  0  0  0  0  0
  160.9800  209.1130  154.0260 C   0  0  0  0  0  3  0  0  0  0  0  0
  161.8450  207.8710  148.9190 C   0  0  0  0  0  3  0  0  0  0  0  0
  161.6610  206.7660  151.1760 C   0  0  2  0  0  3  0  0  0  0  0  0
  161.5860  206.7160  149.6710 C   0  0  0  0  0  0  0  0  0  0  0  0
  161.1410  204.2510  149.7790 C   0  0  0  0  0  0  0  0  0  0  0  0
  160.7640  207.7870  156.0430 C   0  0  0  0  0  3  0  0  0  0  0  0
  160.9720  207.9460  153.2590 C   0  0  0  0  0  0  0  0  0  0  0  0
  160.7400  206.6170  155.2760 C   0  0  0  0  0  3  0  0  0  0  0  0
  161.3910  205.4510  147.6030 C   0  0  0  0  0  3  0  0  0  0  0  0
  161.3770  205.4890  149.0050 C   0  0  0  0  0  0  0  0  0  0  0  0
  161.0180  203.0000  149.0920 N   0  0  0  0  0  2  0  0  0  0  0  0
  160.8160  205.4990  153.0910 N   0  0  0  0  0  0  0  0  0  0  0  0
  161.0140  204.2940  151.0730 N   0  0  0  0  0  0  0  0  0  0  0  0
  160.5710  211.3970  155.7750 N   0  0  0  0  0  0  0  0  0  0  0  0
  160.9030  210.2430  156.2550 C   0  0  0  0  0  3  0  0  0  0  0  0
  160.5960  212.5730  156.6250 C   0  0  2  0  0  3  0  0  0  0  0  0
  159.3230  212.7570  157.1940 O   0  0  0  0  0  0  0  0  0  0  0  0
  159.6520  213.5830  156.1050 C   0  0  0  0  0  2  0  0  0  0  0  0
  160.8100  201.7300  149.7770 C   0  0  1  0  0  3  0  0  0  0  0  0
  159.3640  201.6200  150.2620 C   0  0  0  0  0  2  0  0  0  0  0  0
  158.5270  200.7100  149.3760 C   0  0  0  0  0  2  0  0  0  0  0  0
  157.3780  201.3850  148.9710 O   0  0  0  0  0  1  0  0  0  0  0  0
  161.1910  200.5670  148.8670 C   0  0  0  0  0  2  0  0  0  0  0  0
  160.5330  201.1570  146.5640 C   0  0  0  0  0  2  0  0  0  0  0  0
  161.5080  200.0030  146.4840 C   0  0  0  0  0  2  0  0  0  0  0  0
  161.6950  201.0800  147.5320 C   0  0  0  0  0  3  0  0  0  0  0  0
  1 12  1  0  0  0  0
  1 21  1  0  0  0  0
  2 18  2  0  0  0  0
  3  8  1  0  0  0  0
  4  3  2  0  0  0  0
  4 15  1  0  0  0  0
  5 14  1  0  0  0  0
  6 13  1  0  0  0  0
  7  1  2  0  0  0  0
  8 10  2  0  0  0  0
  9  6  1  1  0  0  0
  9  2  1  0  0  0  0
 10  9  1  0  0  0  0
 11 19  2  0  0  0  0
 13  5  2  0  0  0  0
 13  7  1  0  0  0  0
 14 12  2  0  0  0  0
 15 16  2  0  0  0  0
 16 10  1  0  0  0  0
 16 11  1  0  0  0  0
 17 25  1  0  0  0  0
 17 11  1  0  0  0  0
 18  5  1  0  0  0  0
 19  2  1  0  0  0  0
 20 21  2  0  0  0  0
 22 20  1  6  0  0  0
 22 23  1  0  0  0  0
 24 22  1  0  0  0  0
 24 23  1  0  0  0  0
 25 29  1  6  0  0  0
 25 26  1  0  0  0  0
 27 26  1  0  0  0  0
 28 27  1  0  0  0  0
 30 32  1  0  0  0  0
 31 30  1  0  0  0  0
 31 32  1  0  0  0  0
 32 29  1  0  0  0  0
M  END
>  <MODEL>
6

>  <REMARK>
 VINA RESULT:      -5.6      2.115      9.759
  Name = 
  7 active torsions:
  status: ('A' for Active; 'I' for Inactive)
    1  A    between atoms: C_1  and  N_10
    2  A    between atoms: C_2  and  C_24
    3  A    between atoms: C_6  and  C_7
    4  A    between atoms: C_7  and  C_32
    5  A    between atoms: C_22  and  C_30
    6  A    between atoms: C_22  and  C_32
    7  A    between atoms: N_27  and  C_32
                            x       y       z     vdW  Elec       q    Type
                         _______ _______ _______ _____ _____    ______ ____

>  <TORSDO>
F 7

$$$$
=
 OpenBabel11062410493D

 32 37  0  0  1  0  0  0  0  0999 V2000
  161.3250  208.5340  152.1800 C   0  0  0  0  0  0  0  0  0  0  0  0
  161.3000  204.5810  149.0450 C   0  0  0  0  0  0  0  0  0  0  0  0
  161.1930  206.3490  144.4320 C   0  0  0  0  0  3  0  0  0  0  0  0
  160.9660  205.0510  143.9700 C   0  0  0  0  0  3  0  0  0  0  0  0
  161.2460  206.0100  150.9620 C   0  0  0  0  0  0  0  0  0  0  0  0
  160.9630  207.0490  148.6980 C   0  0  0  0  0  2  0  0  0  0  0  0
  161.2010  208.4310  150.7860 C   0  0  0  0  0  3  0  0  0  0  0  0
  161.3890  206.5800  145.7950 C   0  0  0  0  0  3  0  0  0  0  0  0
  161.6360  205.7750  148.1700 C   0  0  2  0  0  3  0  0  0  0  0  0
  161.3400  205.5210  146.7130 C   0  0  0  0  0  0  0  0  0  0  0  0
  161.1170  203.0690  147.1890 C   0  0  0  0  0  0  0  0  0  0  0  0
  161.3990  207.3720  152.9570 C   0  0  0  0  0  3  0  0  0  0  0  0
  161.1730  207.1750  150.1780 C   0  0  0  0  0  0  0  0  0  0  0  0
  161.3550  206.1120  152.3510 C   0  0  0  0  0  3  0  0  0  0  0  0
  160.9400  203.9840  144.8710 C   0  0  0  0  0  3  0  0  0  0  0  0
  161.1330  204.2070  146.2420 C   0  0  0  0  0  0  0  0  0  0  0  0
  160.9950  201.7330  146.6860 N   0  0  0  0  0  2  0  0  0  0  0  0
  161.1930  204.7220  150.3340 N   0  0  0  0  0  0  0  0  0  0  0  0
  161.1820  203.2760  148.4710 N   0  0  0  0  0  0  0  0  0  0  0  0
  160.2940  210.5300  153.0450 N   0  0  0  0  0  0  0  0  0  0  0  0
  161.3680  209.8390  152.8460 C   0  0  0  0  0  3  0  0  0  0  0  0
  160.3700  211.8190  153.7080 C   0  0  2  0  0  3  0  0  0  0  0  0
  159.7790  211.7170  154.9800 O   0  0  0  0  0  0  0  0  0  0  0  0
  159.0070  212.3230  153.9740 C   0  0  0  0  0  2  0  0  0  0  0  0
  160.9950  200.5550  147.5440 C   0  0  1  0  0  3  0  0  0  0  0  0
  161.6470  199.3740  146.8250 C   0  0  0  0  0  2  0  0  0  0  0  0
  160.9460  199.0390  145.5170 C   0  0  0  0  0  2  0  0  0  0  0  0
  161.5800  197.9530  144.9160 O   0  0  0  0  0  1  0  0  0  0  0  0
  161.6880  200.8620  148.8680 C   0  0  0  0  0  2  0  0  0  0  0  0
  159.6480  201.3340  150.1720 C   0  0  0  0  0  2  0  0  0  0  0  0
  160.8320  201.4770  151.1020 C   0  0  0  0  0  2  0  0  0  0  0  0
  160.8340  200.4020  150.0340 C   0  0  0  0  0  3  0  0  0  0  0  0
  1 21  1  0  0  0  0
  1 12  1  0  0  0  0
  2 18  2  0  0  0  0
  3  8  1  0  0  0  0
  4  3  2  0  0  0  0
  4 15  1  0  0  0  0
  5 14  1  0  0  0  0
  6 13  1  0  0  0  0
  7  1  2  0  0  0  0
  8 10  2  0  0  0  0
  9  6  1  1  0  0  0
  9  2  1  0  0  0  0
 10  9  1  0  0  0  0
 11 19  2  0  0  0  0
 13  7  1  0  0  0  0
 13  5  2  0  0  0  0
 14 12  2  0  0  0  0
 15 16  2  0  0  0  0
 16 10  1  0  0  0  0
 16 11  1  0  0  0  0
 17 11  1  0  0  0  0
 17 25  1  0  0  0  0
 18  5  1  0  0  0  0
 19  2  1  0  0  0  0
 21 20  2  0  0  0  0
 22 20  1  6  0  0  0
 22 24  1  0  0  0  0
 22 23  1  0  0  0  0
 24 23  1  0  0  0  0
 25 26  1  6  0  0  0
 25 29  1  0  0  0  0
 27 26  1  0  0  0  0
 28 27  1  0  0  0  0
 29 32  1  0  0  0  0
 30 31  1  0  0  0  0
 32 30  1  0  0  0  0
 32 31  1  0  0  0  0
M  END
>  <MODEL>
7

>  <REMARK>
 VINA RESULT:      -5.3      2.018      9.548
  Name = 
  7 active torsions:
  status: ('A' for Active; 'I' for Inactive)
    1  A    between atoms: C_1  and  N_10
    2  A    between atoms: C_2  and  C_24
    3  A    between atoms: C_6  and  C_7
    4  A    between atoms: C_7  and  C_32
    5  A    between atoms: C_22  and  C_30
    6  A    between atoms: C_22  and  C_32
    7  A    between atoms: N_27  and  C_32
                            x       y       z     vdW  Elec       q    Type
                         _______ _______ _______ _____ _____    ______ ____

>  <TORSDO>
F 7

$$$$
=
 OpenBabel11062410493D

 32 37  0  0  1  0  0  0  0  0999 V2000
  161.1630  208.9260  152.6210 C   0  0  0  0  0  0  0  0  0  0  0  0
  161.4070  204.8760  149.6220 C   0  0  0  0  0  0  0  0  0  0  0  0
  160.9850  206.4570  144.9600 C   0  0  0  0  0  3  0  0  0  0  0  0
  160.8650  205.1270  144.5490 C   0  0  0  0  0  3  0  0  0  0  0  0
  161.2820  206.3630  151.4910 C   0  0  0  0  0  0  0  0  0  0  0  0
  160.8290  207.2880  149.2060 C   0  0  0  0  0  2  0  0  0  0  0  0
  161.0040  208.7610  151.2360 C   0  0  0  0  0  3  0  0  0  0  0  0
  161.2020  206.7550  146.3060 C   0  0  0  0  0  3  0  0  0  0  0  0
  161.6000  206.0630  148.6960 C   0  0  2  0  0  3  0  0  0  0  0  0
  161.2820  205.7300  147.2600 C   0  0  0  0  0  0  0  0  0  0  0  0
  161.3070  203.2870  147.8240 C   0  0  0  0  0  0  0  0  0  0  0  0
  161.3700  207.8050  153.4330 C   0  0  0  0  0  3  0  0  0  0  0  0
  161.0740  207.4860  150.6710 C   0  0  0  0  0  0  0  0  0  0  0  0
  161.4260  206.5250  152.8710 C   0  0  0  0  0  3  0  0  0  0  0  0
  160.9690  204.0970  145.4860 C   0  0  0  0  0  3  0  0  0  0  0  0
  161.1850  204.3860  146.8410 C   0  0  0  0  0  0  0  0  0  0  0  0
  161.2950  201.9280  147.3720 N   0  0  0  0  0  2  0  0  0  0  0  0
  161.3290  205.0540  150.9080 N   0  0  0  0  0  0  0  0  0  0  0  0
  161.3940  203.5450  149.0970 N   0  0  0  0  0  0  0  0  0  0  0  0
  159.9840  210.7640  153.6350 N   0  0  0  0  0  0  0  0  0  0  0  0
  161.1040  210.2530  153.2410 C   0  0  0  0  0  3  0  0  0  0  0  0
  159.9600  212.0800  154.2460 C   0  0  2  0  0  3  0  0  0  0  0  0
  160.1460  211.9460  155.6340 O   0  0  0  0  0  0  0  0  0  0  0  0
  158.8300  212.1690  155.1940 C   0  0  0  0  0  2  0  0  0  0  0  0
  161.4330  200.7870  148.2680 C   0  0  1  0  0  3  0  0  0  0  0  0
  160.4740  200.9220  149.4510 C   0  0  0  0  0  2  0  0  0  0  0  0
  161.2060  200.9540  150.7850 C   0  0  0  0  0  2  0  0  0  0  0  0
  160.7440  202.0290  151.5410 O   0  0  0  0  0  1  0  0  0  0  0  0
  161.2120  199.4840  147.5060 C   0  0  0  0  0  2  0  0  0  0  0  0
  160.3490  199.4210  145.1960 C   0  0  0  0  0  2  0  0  0  0  0  0
  161.3900  198.3320  145.3290 C   0  0  0  0  0  2  0  0  0  0  0  0
  161.5820  199.6530  146.0460 C   0  0  0  0  0  3  0  0  0  0  0  0
  1 21  1  0  0  0  0
  1 12  1  0  0  0  0
  2 18  2  0  0  0  0
  3  8  1  0  0  0  0
  4  3  2  0  0  0  0
  4 15  1  0  0  0  0
  5 14  1  0  0  0  0
  6 13  1  0  0  0  0
  7  1  2  0  0  0  0
  8 10  2  0  0  0  0
  9  6  1  1  0  0  0
  9  2  1  0  0  0  0
 10  9  1  0  0  0  0
 11 19  2  0  0  0  0
 13  7  1  0  0  0  0
 13  5  2  0  0  0  0
 14 12  2  0  0  0  0
 15 16  2  0  0  0  0
 16 10  1  0  0  0  0
 16 11  1  0  0  0  0
 17 11  1  0  0  0  0
 17 25  1  0  0  0  0
 18  5  1  0  0  0  0
 19  2  1  0  0  0  0
 21 20  2  0  0  0  0
 22 20  1  6  0  0  0
 22 24  1  0  0  0  0
 22 23  1  0  0  0  0
 24 23  1  0  0  0  0
 25 29  1  6  0  0  0
 25 26  1  0  0  0  0
 26 27  1  0  0  0  0
 27 28  1  0  0  0  0
 30 31  1  0  0  0  0
 30 32  1  0  0  0  0
 31 32  1  0  0  0  0
 32 29  1  0  0  0  0
M  END
>  <MODEL>
8

>  <REMARK>
 VINA RESULT:      -5.2      2.229      9.641
  Name = 
  7 active torsions:
  status: ('A' for Active; 'I' for Inactive)
    1  A    between atoms: C_1  and  N_10
    2  A    between atoms: C_2  and  C_24
    3  A    between atoms: C_6  and  C_7
    4  A    between atoms: C_7  and  C_32
    5  A    between atoms: C_22  and  C_30
    6  A    between atoms: C_22  and  C_32
    7  A    between atoms: N_27  and  C_32
                            x       y       z     vdW  Elec       q    Type
                         _______ _______ _______ _____ _____    ______ ____

>  <TORSDO>
F 7

$$$$
=
 OpenBabel11062410493D

 32 37  0  0  1  0  0  0  0  0999 V2000
  161.4600  213.5210  147.2960 C   0  0  0  0  0  0  0  0  0  0  0  0
  160.5940  211.4300  151.8060 C   0  0  0  0  0  0  0  0  0  0  0  0
  156.7680  213.8100  153.8320 C   0  0  0  0  0  3  0  0  0  0  0  0
  157.0220  213.1400  155.0310 C   0  0  0  0  0  3  0  0  0  0  0  0
  161.5040  212.0490  149.6820 C   0  0  0  0  0  0  0  0  0  0  0  0
  159.7090  213.4930  150.6710 C   0  0  0  0  0  2  0  0  0  0  0  0
  160.5780  213.8470  148.3370 C   0  0  0  0  0  3  0  0  0  0  0  0
  157.5400  213.5360  152.7020 C   0  0  0  0  0  3  0  0  0  0  0  0
  159.3570  212.2580  151.5120 C   0  0  2  0  0  3  0  0  0  0  0  0
  158.5870  212.6040  152.7610 C   0  0  0  0  0  0  0  0  0  0  0  0
  159.9000  210.8940  154.0410 C   0  0  0  0  0  0  0  0  0  0  0  0
  162.3660  212.4670  147.4590 C   0  0  0  0  0  3  0  0  0  0  0  0
  160.5920  213.1070  149.5220 C   0  0  0  0  0  0  0  0  0  0  0  0
  162.3920  211.7340  148.6500 C   0  0  0  0  0  3  0  0  0  0  0  0
  158.0450  212.1910  155.0960 C   0  0  0  0  0  3  0  0  0  0  0  0
  158.8270  211.9110  153.9660 C   0  0  0  0  0  0  0  0  0  0  0  0
  160.0750  210.1360  155.2440 N   0  0  0  0  0  2  0  0  0  0  0  0
  161.5290  211.3090  150.9090 N   0  0  0  0  0  0  0  0  0  0  0  0
  160.7040  210.7070  153.0350 N   0  0  0  0  0  0  0  0  0  0  0  0
  161.6090  213.6800  144.8980 N   0  0  0  0  0  0  0  0  0  0  0  0
  161.4620  214.2730  146.0370 C   0  0  0  0  0  3  0  0  0  0  0  0
  161.6060  214.4530  143.6700 C   0  0  2  0  0  3  0  0  0  0  0  0
  160.7380  213.8440  142.7460 O   0  0  0  0  0  0  0  0  0  0  0  0
  162.1130  213.6230  142.5580 C   0  0  0  0  0  2  0  0  0  0  0  0
  161.0890  209.1010  155.3940 C   0  0  1  0  0  3  0  0  0  0  0  0
  161.5160  208.9850  156.8580 C   0  0  0  0  0  2  0  0  0  0  0  0
  162.8010  209.7470  157.1450 C   0  0  0  0  0  2  0  0  0  0  0  0
  163.1260  210.5400  156.0470 O   0  0  0  0  0  1  0  0  0  0  0  0
  160.5760  207.7720  154.8490 C   0  0  0  0  0  2  0  0  0  0  0  0
  161.0780  207.0680  152.5390 C   0  0  0  0  0  2  0  0  0  0  0  0
  161.0650  205.8280  153.4050 C   0  0  0  0  0  2  0  0  0  0  0  0
  161.6170  207.1290  153.9530 C   0  0  0  0  0  3  0  0  0  0  0  0
  1 12  2  0  0  0  0
  1  7  1  0  0  0  0
  2 19  1  0  0  0  0
  3  4  1  0  0  0  0
  4 15  2  0  0  0  0
  5 18  1  0  0  0  0
  7 13  2  0  0  0  0
  8 10  1  0  0  0  0
  8  3  2  0  0  0  0
  9  6  1  1  0  0  0
  9  2  1  0  0  0  0
  9 10  1  0  0  0  0
 10 16  2  0  0  0  0
 11 17  1  0  0  0  0
 12 14  1  0  0  0  0
 13  5  1  0  0  0  0
 13  6  1  0  0  0  0
 14  5  2  0  0  0  0
 16 11  1  0  0  0  0
 16 15  1  0  0  0  0
 17 25  1  0  0  0  0
 18  2  2  0  0  0  0
 19 11  2  0  0  0  0
 20 21  2  0  0  0  0
 21  1  1  0  0  0  0
 22 20  1  1  0  0  0
 23 22  1  0  0  0  0
 24 23  1  0  0  0  0
 24 22  1  0  0  0  0
 25 29  1  1  0  0  0
 25 26  1  0  0  0  0
 26 27  1  0  0  0  0
 28 27  1  0  0  0  0
 30 31  1  0  0  0  0
 30 32  1  0  0  0  0
 31 32  1  0  0  0  0
 32 29  1  0  0  0  0
M  END
>  <MODEL>
9

>  <REMARK>
 VINA RESULT:      -5.1      5.653      8.445
  Name = 
  7 active torsions:
  status: ('A' for Active; 'I' for Inactive)
    1  A    between atoms: C_1  and  N_10
    2  A    between atoms: C_2  and  C_24
    3  A    between atoms: C_6  and  C_7
    4  A    between atoms: C_7  and  C_32
    5  A    between atoms: C_22  and  C_30
    6  A    between atoms: C_22  and  C_32
    7  A    between atoms: N_27  and  C_32
                            x       y       z     vdW  Elec       q    Type
                         _______ _______ _______ _____ _____    ______ ____

>  <TORSDO>
F 7

$$$$
