=
 OpenBabel11052421543D

 30 33  0  0  1  0  0  0  0  0999 V2000
  161.2280  205.5230  147.9270 N   0  0  0  0  0  0  0  0  0  0  0  0
  161.0950  204.4880  145.7670 C   0  0  0  0  0  0  0  0  0  0  0  0
  160.8330  201.8470  149.8750 C   0  0  0  0  0  3  0  0  0  0  0  0
  161.2310  205.5000  149.2860 C   0  0  0  0  0  0  0  0  0  0  0  0
  160.8280  201.7940  151.2700 C   0  0  0  0  0  3  0  0  0  0  0  0
  160.9610  203.3300  144.9980 C   0  0  0  0  0  3  0  0  0  0  0  0
  161.2280  205.8020  145.0740 C   0  0  0  0  0  1  0  0  0  0  0  0
  160.9660  203.0750  149.2040 C   0  0  0  0  0  0  0  0  0  0  0  0
  160.8310  202.0840  145.6140 C   0  0  0  0  0  3  0  0  0  0  0  0
  161.1000  204.4010  147.1720 C   0  0  0  0  0  0  0  0  0  0  0  0
  161.0990  204.2670  149.9610 C   0  0  0  0  0  0  0  0  0  0  0  0
  160.9570  202.9680  152.0130 C   0  0  0  0  0  3  0  0  0  0  0  0
  161.0910  204.1950  151.3630 C   0  0  0  0  0  3  0  0  0  0  0  0
  160.8330  201.9900  147.0070 C   0  0  0  0  0  3  0  0  0  0  0  0
  160.9660  203.1410  147.7990 C   0  0  0  0  0  0  0  0  0  0  0  0
  161.3540  206.8230  150.0000 C   0  0  1  0  0  3  0  0  0  0  0  0
  163.0640  206.9150  151.6970 O   0  0  0  0  0  1  0  0  0  0  0  0
  161.7040  206.6690  151.4930 C   0  0  1  0  0  3  0  0  0  0  0  0
  161.4050  208.9350  152.4250 N   0  0  0  0  0  2  0  0  0  0  0  0
  160.8320  206.9630  154.1360 S   0  0  0  0  0  0  0  0  0  0  0  0
  160.8910  207.5750  152.4280 C   0  0  2  0  0  3  0  0  0  0  0  0
  160.9290  209.5530  153.5910 N   0  0  0  0  0  2  0  0  0  0  0  0
  161.2040  208.6430  154.6890 C   0  0  0  0  0  2  0  0  0  0  0  0
  162.3310  207.7530  149.2840 C   0  0  0  0  0  2  0  0  0  0  0  0
  161.5810  208.8700  148.5750 C   0  0  0  0  0  2  0  0  0  0  0  0
  161.8760  211.1790  148.1570 N   0  0  0  0  0  0  0  0  0  0  0  0
  162.3310  210.1100  148.6710 N   0  0  0  0  0  0  0  0  0  0  0  0
  161.9470  213.6090  148.6330 N   0  0  0  0  0  1  0  0  0  0  0  0
  162.6000  212.4050  148.2410 C   0  0  0  0  0  0  0  0  0  0  0  0
  163.8270  212.4230  147.9680 O   0  0  0  0  0  0  0  0  0  0  0  0
  1  4  1  0  0  0  0
  2 10  1  0  0  0  0
  3  5  2  0  0  0  0
  4 11  2  0  0  0  0
  4 16  1  0  0  0  0
  5 12  1  0  0  0  0
  6  9  1  0  0  0  0
  6  2  2  0  0  0  0
  7  2  1  0  0  0  0
  8  3  1  0  0  0  0
  8 11  1  0  0  0  0
  9 14  2  0  0  0  0
 10 15  1  0  0  0  0
 10  1  2  0  0  0  0
 11 13  1  0  0  0  0
 13 12  2  0  0  0  0
 14 15  1  0  0  0  0
 15  8  2  0  0  0  0
 16 24  1  6  0  0  0
 16 18  1  0  0  0  0
 18 17  1  6  0  0  0
 19 21  1  0  0  0  0
 19 22  1  0  0  0  0
 20 23  1  0  0  0  0
 21 18  1  6  0  0  0
 21 20  1  0  0  0  0
 22 23  1  0  0  0  0
 25 27  1  0  0  0  0
 25 24  1  0  0  0  0
 26 29  1  0  0  0  0
 26 27  2  0  0  0  0
 29 28  1  0  0  0  0
 30 29  2  0  0  0  0
M  END
>  <MODEL>
1

>  <REMARK>
 VINA RESULT:      -8.8      0.000      0.000
  Name = 
  7 active torsions:
  status: ('A' for Active; 'I' for Inactive)
    1  A    between atoms: C_4  and  C_13
    2  A    between atoms: N_7  and  C_15
    3  A    between atoms: C_8  and  C_12
    4  A    between atoms: C_8  and  C_13
    5  A    between atoms: C_13  and  C_27
    6  A    between atoms: N_16  and  C_30
    7  A    between atoms: C_27  and  C_30
                            x       y       z     vdW  Elec       q    Type
                         _______ _______ _______ _____ _____    ______ ____

>  <TORSDO>
F 7

$$$$
=
 OpenBabel11052421543D

 30 33  0  0  1  0  0  0  0  0999 V2000
  161.1250  204.6780  149.9290 N   0  0  0  0  0  0  0  0  0  0  0  0
  160.9960  202.3690  150.5650 C   0  0  0  0  0  0  0  0  0  0  0  0
  161.4580  203.6950  145.8800 C   0  0  0  0  0  3  0  0  0  0  0  0
  161.2430  205.6820  149.0200 C   0  0  0  0  0  0  0  0  0  0  0  0
  161.5840  204.7060  144.9260 C   0  0  0  0  0  3  0  0  0  0  0  0
  160.9860  201.0220  150.1970 C   0  0  0  0  0  3  0  0  0  0  0  0
  160.8860  202.7210  152.0100 C   0  0  0  0  0  1  0  0  0  0  0  0
  161.3430  204.0090  147.2460 C   0  0  0  0  0  0  0  0  0  0  0  0
  161.0910  200.6560  148.8540 C   0  0  0  0  0  3  0  0  0  0  0  0
  161.1130  203.3660  149.5780 C   0  0  0  0  0  0  0  0  0  0  0  0
  161.3560  205.3680  147.6480 C   0  0  0  0  0  0  0  0  0  0  0  0
  161.5990  206.0430  145.3230 C   0  0  0  0  0  3  0  0  0  0  0  0
  161.4860  206.3720  146.6740 C   0  0  0  0  0  3  0  0  0  0  0  0
  161.2080  201.6380  147.8690 C   0  0  0  0  0  3  0  0  0  0  0  0
  161.2210  202.9980  148.2170 C   0  0  0  0  0  0  0  0  0  0  0  0
  161.2710  207.0950  149.5490 C   0  0  1  0  0  3  0  0  0  0  0  0
  162.9920  207.8120  151.0770 O   0  0  0  0  0  1  0  0  0  0  0  0
  161.7480  207.1790  151.0120 C   0  0  1  0  0  3  0  0  0  0  0  0
  160.9490  209.3440  151.8870 N   0  0  0  0  0  2  0  0  0  0  0  0
  160.9210  207.3610  153.6790 S   0  0  0  0  0  0  0  0  0  0  0  0
  160.7750  207.9020  151.9520 C   0  0  2  0  0  3  0  0  0  0  0  0
  160.3780  209.8760  153.0530 N   0  0  0  0  0  2  0  0  0  0  0  0
  160.8990  209.1010  154.1660 C   0  0  0  0  0  2  0  0  0  0  0  0
  162.0790  208.0140  148.6370 C   0  0  0  0  0  2  0  0  0  0  0  0
  161.3550  209.3360  148.4360 C   0  0  0  0  0  2  0  0  0  0  0  0
  161.9610  211.5900  148.0530 N   0  0  0  0  0  0  0  0  0  0  0  0
  162.3110  210.4300  148.4370 N   0  0  0  0  0  0  0  0  0  0  0  0
  162.4300  214.0220  148.1440 N   0  0  0  0  0  1  0  0  0  0  0  0
  162.8880  212.6760  148.0470 C   0  0  0  0  0  0  0  0  0  0  0  0
  164.1200  212.4420  147.9560 O   0  0  0  0  0  0  0  0  0  0  0  0
  2  7  1  0  0  0  0
  3  8  1  0  0  0  0
  4 16  1  0  0  0  0
  4  1  2  0  0  0  0
  5 12  1  0  0  0  0
  5  3  2  0  0  0  0
  6  2  1  0  0  0  0
  8 11  2  0  0  0  0
  8 15  1  0  0  0  0
  9  6  2  0  0  0  0
 10  1  1  0  0  0  0
 10  2  2  0  0  0  0
 11  4  1  0  0  0  0
 12 13  2  0  0  0  0
 13 11  1  0  0  0  0
 14 15  2  0  0  0  0
 14  9  1  0  0  0  0
 15 10  1  0  0  0  0
 16 24  1  6  0  0  0
 16 18  1  0  0  0  0
 18 17  1  6  0  0  0
 19 21  1  0  0  0  0
 19 22  1  0  0  0  0
 20 23  1  0  0  0  0
 21 18  1  6  0  0  0
 21 20  1  0  0  0  0
 22 23  1  0  0  0  0
 25 27  1  0  0  0  0
 25 24  1  0  0  0  0
 26 27  2  0  0  0  0
 29 26  1  0  0  0  0
 29 28  1  0  0  0  0
 30 29  2  0  0  0  0
M  END
>  <MODEL>
2

>  <REMARK>
 VINA RESULT:      -8.8      0.892      3.225
  Name = 
  7 active torsions:
  status: ('A' for Active; 'I' for Inactive)
    1  A    between atoms: C_4  and  C_13
    2  A    between atoms: N_7  and  C_15
    3  A    between atoms: C_8  and  C_12
    4  A    between atoms: C_8  and  C_13
    5  A    between atoms: C_13  and  C_27
    6  A    between atoms: N_16  and  C_30
    7  A    between atoms: C_27  and  C_30
                            x       y       z     vdW  Elec       q    Type
                         _______ _______ _______ _____ _____    ______ ____

>  <TORSDO>
F 7

$$$$
=
 OpenBabel11052421543D

 30 33  0  0  1  0  0  0  0  0999 V2000
  161.3530  208.1820  151.2220 N   0  0  0  0  0  0  0  0  0  0  0  0
  160.9980  209.3250  153.3010 C   0  0  0  0  0  0  0  0  0  0  0  0
  160.9580  204.4410  153.0430 C   0  0  0  0  0  3  0  0  0  0  0  0
  161.4770  207.0660  150.4570 C   0  0  0  0  0  0  0  0  0  0  0  0
  161.0850  203.2780  152.2820 C   0  0  0  0  0  3  0  0  0  0  0  0
  160.7470  209.2680  154.6740 C   0  0  0  0  0  3  0  0  0  0  0  0
  161.1470  210.6590  152.6510 C   0  0  0  0  0  1  0  0  0  0  0  0
  161.0870  205.7070  152.4460 C   0  0  0  0  0  0  0  0  0  0  0  0
  160.6060  208.0370  155.3160 C   0  0  0  0  0  3  0  0  0  0  0  0
  161.1080  208.1350  152.5580 C   0  0  0  0  0  0  0  0  0  0  0  0
  161.3460  205.7940  151.0550 C   0  0  0  0  0  0  0  0  0  0  0  0
  161.3420  203.3640  150.9130 C   0  0  0  0  0  3  0  0  0  0  0  0
  161.4720  204.6130  150.3050 C   0  0  0  0  0  3  0  0  0  0  0  0
  160.7150  206.8520  154.5860 C   0  0  0  0  0  3  0  0  0  0  0  0
  160.9670  206.8860  153.2050 C   0  0  0  0  0  0  0  0  0  0  0  0
  161.7750  207.2620  148.9900 C   0  0  1  0  0  3  0  0  0  0  0  0
  159.7600  206.2830  148.1010 O   0  0  0  0  0  1  0  0  0  0  0  0
  161.1520  206.1700  148.0990 C   0  0  1  0  0  3  0  0  0  0  0  0
  160.5380  206.2120  145.7090 N   0  0  0  0  0  2  0  0  0  0  0  0
  162.7260  204.7750  146.2530 S   0  0  0  0  0  0  0  0  0  0  0  0
  161.6480  206.1820  146.6470 C   0  0  2  0  0  3  0  0  0  0  0  0
  161.0380  205.7740  144.4730 N   0  0  0  0  0  2  0  0  0  0  0  0
  161.7770  204.5510  144.7310 C   0  0  0  0  0  2  0  0  0  0  0  0
  161.3820  208.6630  148.5260 C   0  0  0  0  0  2  0  0  0  0  0  0
  162.5350  209.6330  148.7270 C   0  0  0  0  0  2  0  0  0  0  0  0
  162.6220  211.9520  148.2700 N   0  0  0  0  0  0  0  0  0  0  0  0
  162.0270  210.9890  148.8470 N   0  0  0  0  0  0  0  0  0  0  0  0
  162.8210  214.3640  147.7370 N   0  0  0  0  0  1  0  0  0  0  0  0
  162.1370  213.2900  148.3770 C   0  0  0  0  0  0  0  0  0  0  0  0
  161.0960  213.5230  149.0420 O   0  0  0  0  0  0  0  0  0  0  0  0
  1 10  1  0  0  0  0
  2  6  1  0  0  0  0
  4 11  1  0  0  0  0
  4  1  2  0  0  0  0
  5  3  2  0  0  0  0
  6  9  2  0  0  0  0
  7  2  1  0  0  0  0
  8  3  1  0  0  0  0
  8 15  1  0  0  0  0
 10 15  1  0  0  0  0
 10  2  2  0  0  0  0
 11  8  2  0  0  0  0
 12  5  1  0  0  0  0
 13 12  2  0  0  0  0
 13 11  1  0  0  0  0
 14  9  1  0  0  0  0
 15 14  2  0  0  0  0
 16 24  1  6  0  0  0
 16  4  1  0  0  0  0
 18 17  1  6  0  0  0
 18 16  1  0  0  0  0
 19 21  1  0  0  0  0
 20 21  1  0  0  0  0
 21 18  1  1  0  0  0
 22 23  1  0  0  0  0
 22 19  1  0  0  0  0
 23 20  1  0  0  0  0
 24 25  1  0  0  0  0
 25 27  1  0  0  0  0
 26 29  1  0  0  0  0
 26 27  2  0  0  0  0
 28 29  1  0  0  0  0
 29 30  2  0  0  0  0
M  END
>  <MODEL>
3

>  <REMARK>
 VINA RESULT:      -8.3      2.445      6.008
  Name = 
  7 active torsions:
  status: ('A' for Active; 'I' for Inactive)
    1  A    between atoms: C_4  and  C_13
    2  A    between atoms: N_7  and  C_15
    3  A    between atoms: C_8  and  C_12
    4  A    between atoms: C_8  and  C_13
    5  A    between atoms: C_13  and  C_27
    6  A    between atoms: N_16  and  C_30
    7  A    between atoms: C_27  and  C_30
                            x       y       z     vdW  Elec       q    Type
                         _______ _______ _______ _____ _____    ______ ____

>  <TORSDO>
F 7

$$$$
=
 OpenBabel11052421543D

 30 33  0  0  1  0  0  0  0  0999 V2000
  161.3380  206.3070  148.1880 N   0  0  0  0  0  0  0  0  0  0  0  0
  161.3970  204.8630  146.2740 C   0  0  0  0  0  0  0  0  0  0  0  0
  161.0810  203.0630  150.8110 C   0  0  0  0  0  3  0  0  0  0  0  0
  161.2660  206.5500  149.5230 C   0  0  0  0  0  0  0  0  0  0  0  0
  161.0010  203.2840  152.1870 C   0  0  0  0  0  3  0  0  0  0  0  0
  161.3850  203.5700  145.7460 C   0  0  0  0  0  3  0  0  0  0  0  0
  161.4800  206.0220  145.3390 C   0  0  0  0  0  1  0  0  0  0  0  0
  161.1690  204.1430  149.9150 C   0  0  0  0  0  0  0  0  0  0  0  0
  161.3030  202.4620  146.5910 C   0  0  0  0  0  3  0  0  0  0  0  0
  161.3280  205.0530  147.6670 C   0  0  0  0  0  0  0  0  0  0  0  0
  161.1790  205.4660  150.4240 C   0  0  0  0  0  0  0  0  0  0  0  0
  161.0080  204.5860  152.6870 C   0  0  0  0  0  3  0  0  0  0  0  0
  161.0960  205.6690  151.8110 C   0  0  0  0  0  3  0  0  0  0  0  0
  161.2330  202.6420  147.9740 C   0  0  0  0  0  3  0  0  0  0  0  0
  161.2440  203.9330  148.5260 C   0  0  0  0  0  0  0  0  0  0  0  0
  161.2590  207.9930  149.9650 C   0  0  1  0  0  3  0  0  0  0  0  0
  162.8260  209.0460  151.4650 O   0  0  0  0  0  1  0  0  0  0  0  0
  161.7320  208.1780  151.4200 C   0  0  1  0  0  3  0  0  0  0  0  0
  160.4470  210.1280  152.2170 N   0  0  0  0  0  2  0  0  0  0  0  0
  161.0020  208.3330  154.1170 S   0  0  0  0  0  0  0  0  0  0  0  0
  160.6490  208.6970  152.3740 C   0  0  2  0  0  3  0  0  0  0  0  0
  159.8100  210.5800  153.3820 N   0  0  0  0  0  2  0  0  0  0  0  0
  160.5590  210.0410  154.5040 C   0  0  0  0  0  2  0  0  0  0  0  0
  162.0480  208.8730  148.9980 C   0  0  0  0  0  2  0  0  0  0  0  0
  161.8410  210.3430  149.3270 C   0  0  0  0  0  2  0  0  0  0  0  0
  161.2540  211.9560  147.7000 N   0  0  0  0  0  0  0  0  0  0  0  0
  162.1300  211.1580  148.1600 N   0  0  0  0  0  0  0  0  0  0  0  0
  160.4520  213.2910  145.7720 N   0  0  0  0  0  1  0  0  0  0  0  0
  161.5200  212.7630  146.5530 C   0  0  0  0  0  0  0  0  0  0  0  0
  162.7100  213.0120  146.2300 O   0  0  0  0  0  0  0  0  0  0  0  0
  1  4  1  0  0  0  0
  2 10  1  0  0  0  0
  3  5  2  0  0  0  0
  4 16  1  0  0  0  0
  4 11  2  0  0  0  0
  5 12  1  0  0  0  0
  6  2  2  0  0  0  0
  6  9  1  0  0  0  0
  7  2  1  0  0  0  0
  8 11  1  0  0  0  0
  8  3  1  0  0  0  0
  9 14  2  0  0  0  0
 10  1  2  0  0  0  0
 10 15  1  0  0  0  0
 11 13  1  0  0  0  0
 13 12  2  0  0  0  0
 14 15  1  0  0  0  0
 15  8  2  0  0  0  0
 16 24  1  6  0  0  0
 16 18  1  0  0  0  0
 18 17  1  6  0  0  0
 19 21  1  0  0  0  0
 19 22  1  0  0  0  0
 20 23  1  0  0  0  0
 21 18  1  6  0  0  0
 21 20  1  0  0  0  0
 22 23  1  0  0  0  0
 24 25  1  0  0  0  0
 26 27  2  0  0  0  0
 27 25  1  0  0  0  0
 28 29  1  0  0  0  0
 29 26  1  0  0  0  0
 30 29  2  0  0  0  0
M  END
>  <MODEL>
4

>  <REMARK>
 VINA RESULT:      -8.2      1.341      1.497
  Name = 
  7 active torsions:
  status: ('A' for Active; 'I' for Inactive)
    1  A    between atoms: C_4  and  C_13
    2  A    between atoms: N_7  and  C_15
    3  A    between atoms: C_8  and  C_12
    4  A    between atoms: C_8  and  C_13
    5  A    between atoms: C_13  and  C_27
    6  A    between atoms: N_16  and  C_30
    7  A    between atoms: C_27  and  C_30
                            x       y       z     vdW  Elec       q    Type
                         _______ _______ _______ _____ _____    ______ ____

>  <TORSDO>
F 7

$$$$
=
 OpenBabel11052421543D

 30 33  0  0  1  0  0  0  0  0999 V2000
  161.4830  205.4220  148.4960 N   0  0  0  0  0  0  0  0  0  0  0  0
  161.2970  205.0760  146.1290 C   0  0  0  0  0  0  0  0  0  0  0  0
  160.9210  201.3550  149.2810 C   0  0  0  0  0  3  0  0  0  0  0  0
  161.4880  204.9980  149.7870 C   0  0  0  0  0  0  0  0  0  0  0  0
  160.9170  200.8940  150.5980 C   0  0  0  0  0  3  0  0  0  0  0  0
  161.1080  204.2040  145.0550 C   0  0  0  0  0  3  0  0  0  0  0  0
  161.4890  206.5290  145.8510 C   0  0  0  0  0  1  0  0  0  0  0  0
  161.1100  202.7190  148.9990 C   0  0  0  0  0  0  0  0  0  0  0  0
  160.9210  202.8390  145.2790 C   0  0  0  0  0  3  0  0  0  0  0  0
  161.3010  204.5790  147.4460 C   0  0  0  0  0  0  0  0  0  0  0  0
  161.3000  203.6280  150.0710 C   0  0  0  0  0  0  0  0  0  0  0  0
  161.1020  201.7890  151.6520 C   0  0  0  0  0  3  0  0  0  0  0  0
  161.2920  203.1460  151.3900 C   0  0  0  0  0  3  0  0  0  0  0  0
  160.9220  202.3380  146.5820 C   0  0  0  0  0  3  0  0  0  0  0  0
  161.1100  203.1970  147.6760 C   0  0  0  0  0  0  0  0  0  0  0  0
  161.6740  206.0450  150.8580 C   0  0  1  0  0  3  0  0  0  0  0  0
  160.2200  207.8640  151.4820 O   0  0  0  0  0  1  0  0  0  0  0  0
  161.0730  207.4110  150.4730 C   0  0  1  0  0  3  0  0  0  0  0  0
  162.0210  209.5920  151.1350 N   0  0  0  0  0  2  0  0  0  0  0  0
  161.9950  209.1640  148.4960 S   0  0  0  0  0  0  0  0  0  0  0  0
  162.1160  208.4990  150.1810 C   0  0  2  0  0  3  0  0  0  0  0  0
  162.6590  210.6970  150.5510 N   0  0  0  0  0  2  0  0  0  0  0  0
  162.1310  210.8220  149.2040 C   0  0  0  0  0  2  0  0  0  0  0  0
  161.1520  205.5590  152.2070 C   0  0  0  0  0  2  0  0  0  0  0  0
  161.9320  206.2000  153.3440 C   0  0  0  0  0  2  0  0  0  0  0  0
  161.1190  207.6660  155.0120 N   0  0  0  0  0  0  0  0  0  0  0  0
  161.0350  206.5370  154.4340 N   0  0  0  0  0  0  0  0  0  0  0  0
  160.0540  207.1220  157.1820 N   0  0  0  0  0  1  0  0  0  0  0  0
  160.2460  208.0120  156.0860 C   0  0  0  0  0  0  0  0  0  0  0  0
  159.6400  209.1140  156.0660 O   0  0  0  0  0  0  0  0  0  0  0  0
  1  4  1  0  0  0  0
  2 10  1  0  0  0  0
  3  5  2  0  0  0  0
  4 11  2  0  0  0  0
  4 16  1  0  0  0  0
  5 12  1  0  0  0  0
  6  9  1  0  0  0  0
  6  2  2  0  0  0  0
  7  2  1  0  0  0  0
  8  3  1  0  0  0  0
  8 11  1  0  0  0  0
  9 14  2  0  0  0  0
 10 15  1  0  0  0  0
 10  1  2  0  0  0  0
 11 13  1  0  0  0  0
 13 12  2  0  0  0  0
 14 15  1  0  0  0  0
 15  8  2  0  0  0  0
 16 24  1  1  0  0  0
 18 16  1  0  0  0  0
 18 17  1  1  0  0  0
 20 23  1  0  0  0  0
 20 21  1  0  0  0  0
 21 18  1  1  0  0  0
 21 19  1  0  0  0  0
 22 19  1  0  0  0  0
 23 22  1  0  0  0  0
 24 25  1  0  0  0  0
 25 27  1  0  0  0  0
 26 29  1  0  0  0  0
 27 26  2  0  0  0  0
 29 28  1  0  0  0  0
 30 29  2  0  0  0  0
M  END
>  <MODEL>
5

>  <REMARK>
 VINA RESULT:      -7.3      2.224      4.363
  Name = 
  7 active torsions:
  status: ('A' for Active; 'I' for Inactive)
    1  A    between atoms: C_4  and  C_13
    2  A    between atoms: N_7  and  C_15
    3  A    between atoms: C_8  and  C_12
    4  A    between atoms: C_8  and  C_13
    5  A    between atoms: C_13  and  C_27
    6  A    between atoms: N_16  and  C_30
    7  A    between atoms: C_27  and  C_30
                            x       y       z     vdW  Elec       q    Type
                         _______ _______ _______ _____ _____    ______ ____

>  <TORSDO>
F 7

$$$$
=
 OpenBabel11052421543D

 30 33  0  0  1  0  0  0  0  0999 V2000
  161.2820  208.7980  150.9200 N   0  0  0  0  0  0  0  0  0  0  0  0
  160.7140  210.1910  152.7890 C   0  0  0  0  0  0  0  0  0  0  0  0
  161.1710  205.3460  153.2730 C   0  0  0  0  0  3  0  0  0  0  0  0
  161.5530  207.6010  150.3370 C   0  0  0  0  0  0  0  0  0  0  0  0
  161.4500  204.1030  152.7010 C   0  0  0  0  0  3  0  0  0  0  0  0
  160.4030  210.3110  154.1460 C   0  0  0  0  0  3  0  0  0  0  0  0
  160.7620  211.4230  151.9500 C   0  0  0  0  0  1  0  0  0  0  0  0
  161.2030  206.5160  152.4950 C   0  0  0  0  0  0  0  0  0  0  0  0
  160.3530  209.1800  154.9610 C   0  0  0  0  0  3  0  0  0  0  0  0
  160.9780  208.9230  152.2390 C   0  0  0  0  0  0  0  0  0  0  0  0
  161.5200  206.4240  151.1170 C   0  0  0  0  0  0  0  0  0  0  0  0
  161.7650  204.0140  151.3450 C   0  0  0  0  0  3  0  0  0  0  0  0
  161.7990  205.1660  150.5590 C   0  0  0  0  0  3  0  0  0  0  0  0
  160.6150  207.9180  154.4230 C   0  0  0  0  0  3  0  0  0  0  0  0
  160.9290  207.7750  153.0630 C   0  0  0  0  0  0  0  0  0  0  0  0
  161.9030  207.6100  148.8690 C   0  0  1  0  0  3  0  0  0  0  0  0
  159.8550  206.5570  148.1560 O   0  0  0  0  0  1  0  0  0  0  0  0
  161.2470  206.4540  148.0890 C   0  0  1  0  0  3  0  0  0  0  0  0
  160.5100  206.3040  145.7380 N   0  0  0  0  0  2  0  0  0  0  0  0
  162.7600  204.9620  146.2680 S   0  0  0  0  0  0  0  0  0  0  0  0
  161.6670  206.3700  146.6160 C   0  0  2  0  0  3  0  0  0  0  0  0
  160.9570  205.7870  144.5130 N   0  0  0  0  0  2  0  0  0  0  0  0
  161.7410  204.6040  144.8190 C   0  0  0  0  0  2  0  0  0  0  0  0
  161.5990  208.9650  148.2340 C   0  0  0  0  0  2  0  0  0  0  0  0
  162.4600  210.0510  148.8590 C   0  0  0  0  0  2  0  0  0  0  0  0
  161.0170  211.4640  147.6290 N   0  0  0  0  0  0  0  0  0  0  0  0
  161.9930  211.3590  148.4370 N   0  0  0  0  0  0  0  0  0  0  0  0
  161.4560  213.8160  146.9830 N   0  0  0  0  0  1  0  0  0  0  0  0
  160.5460  212.7420  147.2030 C   0  0  0  0  0  0  0  0  0  0  0  0
  159.3150  212.9220  147.0200 O   0  0  0  0  0  0  0  0  0  0  0  0
  1 10  1  0  0  0  0
  2  6  1  0  0  0  0
  4  1  2  0  0  0  0
  4 11  1  0  0  0  0
  5  3  1  0  0  0  0
  6  9  2  0  0  0  0
  7  2  1  0  0  0  0
  8 15  1  0  0  0  0
  8  3  2  0  0  0  0
 10  2  2  0  0  0  0
 10 15  1  0  0  0  0
 11  8  1  0  0  0  0
 12  5  2  0  0  0  0
 13 11  2  0  0  0  0
 13 12  1  0  0  0  0
 14  9  1  0  0  0  0
 15 14  2  0  0  0  0
 16 24  1  6  0  0  0
 16  4  1  0  0  0  0
 18 17  1  6  0  0  0
 18 16  1  0  0  0  0
 19 21  1  0  0  0  0
 20 21  1  0  0  0  0
 21 18  1  1  0  0  0
 22 23  1  0  0  0  0
 22 19  1  0  0  0  0
 23 20  1  0  0  0  0
 24 25  1  0  0  0  0
 26 27  2  0  0  0  0
 27 25  1  0  0  0  0
 28 29  1  0  0  0  0
 29 26  1  0  0  0  0
 30 29  2  0  0  0  0
M  END
>  <MODEL>
6

>  <REMARK>
 VINA RESULT:      -7.3      2.648      6.194
  Name = 
  7 active torsions:
  status: ('A' for Active; 'I' for Inactive)
    1  A    between atoms: C_4  and  C_13
    2  A    between atoms: N_7  and  C_15
    3  A    between atoms: C_8  and  C_12
    4  A    between atoms: C_8  and  C_13
    5  A    between atoms: C_13  and  C_27
    6  A    between atoms: N_16  and  C_30
    7  A    between atoms: C_27  and  C_30
                            x       y       z     vdW  Elec       q    Type
                         _______ _______ _______ _____ _____    ______ ____

>  <TORSDO>
F 7

$$$$
=
 OpenBabel11052421543D

 30 33  0  0  1  0  0  0  0  0999 V2000
  161.0090  209.2340  152.7160 N   0  0  0  0  0  0  0  0  0  0  0  0
  160.6710  209.7040  155.0440 C   0  0  0  0  0  0  0  0  0  0  0  0
  161.0130  205.1110  153.4000 C   0  0  0  0  0  3  0  0  0  0  0  0
  161.1830  208.3960  151.6600 C   0  0  0  0  0  0  0  0  0  0  0  0
  161.1940  204.2270  152.3340 C   0  0  0  0  0  3  0  0  0  0  0  0
  160.4970  209.2380  156.3490 C   0  0  0  0  0  3  0  0  0  0  0  0
  160.6780  211.1750  154.7990 C   0  0  0  0  0  1  0  0  0  0  0  0
  161.0080  206.5000  153.1870 C   0  0  0  0  0  0  0  0  0  0  0  0
  160.4900  207.8680  156.6150 C   0  0  0  0  0  3  0  0  0  0  0  0
  160.8380  208.7880  153.9880 C   0  0  0  0  0  0  0  0  0  0  0  0
  161.1870  207.0000  151.8720 C   0  0  0  0  0  0  0  0  0  0  0  0
  161.3730  204.7210  151.0410 C   0  0  0  0  0  3  0  0  0  0  0  0
  161.3690  206.0970  150.8120 C   0  0  0  0  0  3  0  0  0  0  0  0
  160.6560  206.9530  155.5740 C   0  0  0  0  0  3  0  0  0  0  0  0
  160.8320  207.3990  154.2540 C   0  0  0  0  0  0  0  0  0  0  0  0
  161.3890  209.0260  150.3040 C   0  0  1  0  0  3  0  0  0  0  0  0
  163.1660  210.5950  150.7410 O   0  0  0  0  0  1  0  0  0  0  0  0
  161.8180  210.5040  150.3870 C   0  0  1  0  0  3  0  0  0  0  0  0
  162.8340  211.4970  148.3690 N   0  0  0  0  0  2  0  0  0  0  0  0
  160.8050  212.9110  149.3820 S   0  0  0  0  0  0  0  0  0  0  0  0
  161.5900  211.3000  149.0950 C   0  0  2  0  0  3  0  0  0  0  0  0
  162.6270  212.5720  147.4910 N   0  0  0  0  0  2  0  0  0  0  0  0
  162.0290  213.6410  148.2720 C   0  0  0  0  0  2  0  0  0  0  0  0
  162.3520  208.2040  149.4510 C   0  0  0  0  0  2  0  0  0  0  0  0
  161.7430  207.9150  148.0880 C   0  0  0  0  0  2  0  0  0  0  0  0
  161.6860  206.0140  146.6820 N   0  0  0  0  0  0  0  0  0  0  0  0
  162.3300  206.7110  147.5280 N   0  0  0  0  0  0  0  0  0  0  0  0
  161.4070  203.7820  145.6430 N   0  0  0  0  0  1  0  0  0  0  0  0
  162.2480  204.8280  146.1220 C   0  0  0  0  0  0  0  0  0  0  0  0
  163.4970  204.7050  146.0500 O   0  0  0  0  0  0  0  0  0  0  0  0
  1 10  1  0  0  0  0
  2  6  1  0  0  0  0
  4 11  1  0  0  0  0
  4  1  2  0  0  0  0
  5  3  2  0  0  0  0
  6  9  2  0  0  0  0
  7  2  1  0  0  0  0
  8  3  1  0  0  0  0
  8 15  1  0  0  0  0
 10 15  1  0  0  0  0
 10  2  2  0  0  0  0
 11  8  2  0  0  0  0
 12  5  1  0  0  0  0
 13 12  2  0  0  0  0
 13 11  1  0  0  0  0
 14  9  1  0  0  0  0
 15 14  2  0  0  0  0
 16 24  1  1  0  0  0
 16 18  1  0  0  0  0
 16  4  1  0  0  0  0
 18 17  1  6  0  0  0
 19 21  1  0  0  0  0
 21 20  1  0  0  0  0
 21 18  1  1  0  0  0
 22 23  1  0  0  0  0
 22 19  1  0  0  0  0
 23 20  1  0  0  0  0
 25 24  1  0  0  0  0
 26 27  2  0  0  0  0
 27 25  1  0  0  0  0
 28 29  1  0  0  0  0
 29 26  1  0  0  0  0
 30 29  2  0  0  0  0
M  END
>  <MODEL>
7

>  <REMARK>
 VINA RESULT:      -7.2      2.413      6.932
  Name = 
  7 active torsions:
  status: ('A' for Active; 'I' for Inactive)
    1  A    between atoms: C_4  and  C_13
    2  A    between atoms: N_7  and  C_15
    3  A    between atoms: C_8  and  C_12
    4  A    between atoms: C_8  and  C_13
    5  A    between atoms: C_13  and  C_27
    6  A    between atoms: N_16  and  C_30
    7  A    between atoms: C_27  and  C_30
                            x       y       z     vdW  Elec       q    Type
                         _______ _______ _______ _____ _____    ______ ____

>  <TORSDO>
F 7

$$$$
=
 OpenBabel11052421543D

 30 33  0  0  1  0  0  0  0  0999 V2000
  160.8700  209.5470  151.4130 N   0  0  0  0  0  0  0  0  0  0  0  0
  160.2660  211.8070  151.9460 C   0  0  0  0  0  0  0  0  0  0  0  0
  160.4640  208.3450  155.3950 C   0  0  0  0  0  3  0  0  0  0  0  0
  161.1160  208.2490  151.7320 C   0  0  0  0  0  0  0  0  0  0  0  0
  160.7150  207.0190  155.7520 C   0  0  0  0  0  3  0  0  0  0  0  0
  159.8870  212.7540  152.8990 C   0  0  0  0  0  3  0  0  0  0  0  0
  160.4190  212.2360  150.5260 C   0  0  0  0  0  1  0  0  0  0  0  0
  160.5950  208.7650  154.0600 C   0  0  0  0  0  0  0  0  0  0  0  0
  159.7380  212.3890  154.2380 C   0  0  0  0  0  3  0  0  0  0  0  0
  160.4990  210.4740  152.3340 C   0  0  0  0  0  0  0  0  0  0  0  0
  160.9830  207.8250  153.0730 C   0  0  0  0  0  0  0  0  0  0  0  0
  161.0990  206.0950  154.7800 C   0  0  0  0  0  3  0  0  0  0  0  0
  161.2330  206.4960  153.4500 C   0  0  0  0  0  3  0  0  0  0  0  0
  159.9680  211.0690  154.6320 C   0  0  0  0  0  3  0  0  0  0  0  0
  160.3510  210.1010  153.6900 C   0  0  0  0  0  0  0  0  0  0  0  0
  161.5460  207.3310  150.6150 C   0  0  1  0  0  3  0  0  0  0  0  0
  159.7460  206.3400  149.3550 O   0  0  0  0  0  1  0  0  0  0  0  0
  160.6060  206.1240  150.4340 C   0  0  1  0  0  3  0  0  0  0  0  0
  160.8600  204.1080  149.0320 N   0  0  0  0  0  2  0  0  0  0  0  0
  161.1710  203.6670  151.6500 S   0  0  0  0  0  0  0  0  0  0  0  0
  161.3300  204.7860  150.2290 C   0  0  2  0  0  3  0  0  0  0  0  0
  161.2150  202.7570  149.1630 N   0  0  0  0  0  2  0  0  0  0  0  0
  160.7870  202.3390  150.4860 C   0  0  0  0  0  2  0  0  0  0  0  0
  161.7380  208.0980  149.3080 C   0  0  0  0  0  2  0  0  0  0  0  0
  162.7970  207.4280  148.4480 C   0  0  0  0  0  2  0  0  0  0  0  0
  162.5450  205.7040  146.8480 N   0  0  0  0  0  0  0  0  0  0  0  0
  162.1820  206.8480  147.2670 N   0  0  0  0  0  0  0  0  0  0  0  0
  161.7490  203.7120  145.6080 N   0  0  0  0  0  1  0  0  0  0  0  0
  161.9520  205.1200  145.6890 C   0  0  0  0  0  0  0  0  0  0  0  0
  161.6030  205.8560  144.7300 O   0  0  0  0  0  0  0  0  0  0  0  0
  1  4  2  0  0  0  0
  1 10  1  0  0  0  0
  2 10  2  0  0  0  0
  2  6  1  0  0  0  0
  3  5  1  0  0  0  0
  4 11  1  0  0  0  0
  6  9  2  0  0  0  0
  7  2  1  0  0  0  0
  8  3  2  0  0  0  0
  9 14  1  0  0  0  0
 10 15  1  0  0  0  0
 11 13  2  0  0  0  0
 11  8  1  0  0  0  0
 12  5  2  0  0  0  0
 13 12  1  0  0  0  0
 15  8  1  0  0  0  0
 15 14  2  0  0  0  0
 16 24  1  6  0  0  0
 16  4  1  0  0  0  0
 18 17  1  6  0  0  0
 18 16  1  0  0  0  0
 19 22  1  0  0  0  0
 19 21  1  0  0  0  0
 21 18  1  1  0  0  0
 21 20  1  0  0  0  0
 22 23  1  0  0  0  0
 23 20  1  0  0  0  0
 25 24  1  0  0  0  0
 26 27  2  0  0  0  0
 27 25  1  0  0  0  0
 28 29  1  0  0  0  0
 29 26  1  0  0  0  0
 30 29  2  0  0  0  0
M  END
>  <MODEL>
8

>  <REMARK>
 VINA RESULT:      -7.1      2.728      7.160
  Name = 
  7 active torsions:
  status: ('A' for Active; 'I' for Inactive)
    1  A    between atoms: C_4  and  C_13
    2  A    between atoms: N_7  and  C_15
    3  A    between atoms: C_8  and  C_12
    4  A    between atoms: C_8  and  C_13
    5  A    between atoms: C_13  and  C_27
    6  A    between atoms: N_16  and  C_30
    7  A    between atoms: C_27  and  C_30
                            x       y       z     vdW  Elec       q    Type
                         _______ _______ _______ _____ _____    ______ ____

>  <TORSDO>
F 7

$$$$
=
 OpenBabel11052421543D

 30 33  0  0  1  0  0  0  0  0999 V2000
  161.9070  206.6020  148.6140 N   0  0  0  0  0  0  0  0  0  0  0  0
  161.5860  204.8030  147.0600 C   0  0  0  0  0  0  0  0  0  0  0  0
  160.8800  204.1770  151.8590 C   0  0  0  0  0  3  0  0  0  0  0  0
  161.9110  207.1430  149.8600 C   0  0  0  0  0  0  0  0  0  0  0  0
  160.8720  204.7070  153.1500 C   0  0  0  0  0  3  0  0  0  0  0  0
  161.2480  203.4690  146.8220 C   0  0  0  0  0  3  0  0  0  0  0  0
  161.9450  205.6720  145.9020 C   0  0  0  0  0  1  0  0  0  0  0  0
  161.2250  204.9790  150.7570 C   0  0  0  0  0  0  0  0  0  0  0  0
  160.9030  202.6280  147.8820 C   0  0  0  0  0  3  0  0  0  0  0  0
  161.5810  205.3050  148.3740 C   0  0  0  0  0  0  0  0  0  0  0  0
  161.5680  206.3380  150.9690 C   0  0  0  0  0  0  0  0  0  0  0  0
  161.2070  206.0460  153.3570 C   0  0  0  0  0  3  0  0  0  0  0  0
  161.5520  206.8550  152.2740 C   0  0  0  0  0  3  0  0  0  0  0  0
  160.8940  203.1190  149.1890 C   0  0  0  0  0  3  0  0  0  0  0  0
  161.2310  204.4560  149.4500 C   0  0  0  0  0  0  0  0  0  0  0  0
  162.2680  208.6040  149.9800 C   0  0  1  0  0  3  0  0  0  0  0  0
  161.2060  208.8100  147.8260 O   0  0  0  0  0  1  0  0  0  0  0  0
  162.2120  209.3480  148.6320 C   0  0  1  0  0  3  0  0  0  0  0  0
  160.8400  211.2930  147.9800 N   0  0  0  0  0  2  0  0  0  0  0  0
  163.4420  211.8340  148.2610 S   0  0  0  0  0  0  0  0  0  0  0  0
  161.9910  210.8620  148.7550 C   0  0  2  0  0  3  0  0  0  0  0  0
  160.9770  212.6760  147.7820 N   0  0  0  0  0  2  0  0  0  0  0  0
  162.3330  212.8980  147.3100 C   0  0  0  0  0  2  0  0  0  0  0  0
  161.4190  209.2970  151.0430 C   0  0  0  0  0  2  0  0  0  0  0  0
  162.3060  209.9550  152.0880 C   0  0  0  0  0  2  0  0  0  0  0  0
  160.2380  210.2870  153.1850 N   0  0  0  0  0  0  0  0  0  0  0  0
  161.4930  210.4880  153.1660 N   0  0  0  0  0  0  0  0  0  0  0  0
  158.1970  211.4680  153.9470 N   0  0  0  0  0  1  0  0  0  0  0  0
  159.4240  210.8040  154.2370 C   0  0  0  0  0  0  0  0  0  0  0  0
  159.7920  210.6710  155.4320 O   0  0  0  0  0  0  0  0  0  0  0  0
  1  4  1  0  0  0  0
  2 10  1  0  0  0  0
  3  5  2  0  0  0  0
  4 16  1  0  0  0  0
  4 11  2  0  0  0  0
  5 12  1  0  0  0  0
  6  2  2  0  0  0  0
  6  9  1  0  0  0  0
  7  2  1  0  0  0  0
  8 11  1  0  0  0  0
  8  3  1  0  0  0  0
  9 14  2  0  0  0  0
 10  1  2  0  0  0  0
 10 15  1  0  0  0  0
 11 13  1  0  0  0  0
 13 12  2  0  0  0  0
 14 15  1  0  0  0  0
 15  8  2  0  0  0  0
 16 24  1  1  0  0  0
 18 17  1  6  0  0  0
 18 16  1  0  0  0  0
 19 21  1  0  0  0  0
 20 21  1  0  0  0  0
 21 18  1  6  0  0  0
 22 19  1  0  0  0  0
 23 22  1  0  0  0  0
 23 20  1  0  0  0  0
 24 25  1  0  0  0  0
 25 27  1  0  0  0  0
 26 29  1  0  0  0  0
 27 26  2  0  0  0  0
 28 29  1  0  0  0  0
 29 30  2  0  0  0  0
M  END
>  <MODEL>
9

>  <REMARK>
 VINA RESULT:      -7.0      2.478      4.469
  Name = 
  7 active torsions:
  status: ('A' for Active; 'I' for Inactive)
    1  A    between atoms: C_4  and  C_13
    2  A    between atoms: N_7  and  C_15
    3  A    between atoms: C_8  and  C_12
    4  A    between atoms: C_8  and  C_13
    5  A    between atoms: C_13  and  C_27
    6  A    between atoms: N_16  and  C_30
    7  A    between atoms: C_27  and  C_30
                            x       y       z     vdW  Elec       q    Type
                         _______ _______ _______ _____ _____    ______ ____

>  <TORSDO>
F 7

$$$$
