=
 OpenBabel11052423073D

 27 31  0  0  1  0  0  0  0  0999 V2000
  157.3860  214.2950  154.3460 C   0  0  0  0  0  2  0  0  0  0  0  0
  159.4030  212.7710  154.3960 C   0  0  2  0  0  3  0  0  0  0  0  0
  157.5120  211.1490  154.6180 C   0  0  0  0  0  2  0  0  0  0  0  0
  159.7340  213.3700  155.7770 C   0  0  0  0  0  2  0  0  0  0  0  0
  155.0230  212.3500  157.2610 C   0  0  0  0  0  2  0  0  0  0  0  0
  154.6230  213.6430  156.6100 C   0  0  0  0  0  0  0  0  0  0  0  0
  159.6990  210.4910  155.3830 C   0  0  1  0  0  3  0  0  0  0  0  0
  158.4690  213.6110  153.6340 N   0  0  0  0  0  0  0  0  0  0  0  0
  160.8170  211.1990  156.0120 N   0  0  0  0  0  2  0  0  0  0  0  0
  156.2880  213.3220  154.7670 C   0  0  2  0  0  3  0  0  0  0  0  0
  158.9600  211.3550  154.4360 N   0  0  2  0  0  0  0  0  0  0  0  0
  155.7080  211.4070  156.2800 C   0  0  0  0  0  2  0  0  0  0  0  0
  160.2610  212.3230  156.7470 C   0  0  0  0  0  2  0  0  0  0  0  0
  153.6390  214.4210  157.2060 O   0  0  0  0  0  1  0  0  0  0  0  0
  155.2300  214.0960  155.5080 C   0  0  0  0  0  3  0  0  0  0  0  0
  156.8450  212.1340  155.5750 C   0  0  1  0  0  3  0  0  0  0  0  0
  158.6310  213.6990  149.3850 C   0  0  0  0  0  3  0  0  0  0  0  0
  158.5250  213.6410  152.1940 C   0  0  0  0  0  0  0  0  0  0  0  0
  159.7350  213.4110  151.5190 C   0  0  0  0  0  3  0  0  0  0  0  0
  159.7880  213.4400  150.1220 C   0  0  0  0  0  3  0  0  0  0  0  0
  157.4200  213.9290  150.0430 C   0  0  0  0  0  3  0  0  0  0  0  0
  157.3670  213.9000  151.4390 C   0  0  0  0  0  3  0  0  0  0  0  0
  160.2090  209.2300  154.6700 C   0  0  2  0  0  3  0  0  0  0  0  0
  160.7480  208.2380  155.6940 C   0  0  0  0  0  1  0  0  0  0  0  0
  160.6250  209.8030  152.4170 C   0  0  0  0  0  2  0  0  0  0  0  0
  161.2770  208.5300  152.6740 C   0  0  0  0  0  2  0  0  0  0  0  0
  161.2680  209.5660  153.7220 N   0  0  0  0  0  0  0  0  0  0  0  0
  2 11  1  0  0  0  0
  2  4  1  1  0  0  0
  4 13  1  0  0  0  0
  6 14  1  0  0  0  0
  6  5  1  0  0  0  0
  7 23  1  6  0  0  0
  7  9  1  0  0  0  0
  8  1  1  0  0  0  0
  8  2  1  0  0  0  0
  9 13  1  0  0  0  0
 10  1  1  1  0  0  0
 10 15  1  0  0  0  0
 10 16  1  0  0  0  0
 11  3  1  1  0  0  0
 11  7  1  0  0  0  0
 12  5  1  0  0  0  0
 15  6  2  0  0  0  0
 16  3  1  6  0  0  0
 16 12  1  0  0  0  0
 17 21  2  0  0  0  0
 17 20  1  0  0  0  0
 18  8  1  0  0  0  0
 19 18  1  0  0  0  0
 20 19  2  0  0  0  0
 21 22  1  0  0  0  0
 22 18  2  0  0  0  0
 23 24  1  1  0  0  0
 25 26  1  0  0  0  0
 25 27  1  0  0  0  0
 26 27  1  0  0  0  0
 27 23  1  0  0  0  0
M  END
>  <MODEL>
1

>  <REMARK>
 VINA RESULT:      -4.6      0.000      0.000
  Name = 
  3 active torsions:
  status: ('A' for Active; 'I' for Inactive)
    1  A    between atoms: C_8  and  C_14
    2  A    between atoms: C_8  and  N_16
    3  A    between atoms: C_9  and  N_15
                            x       y       z     vdW  Elec       q    Type
                         _______ _______ _______ _____ _____    ______ ____

>  <TORSDO>
F 3

$$$$
=
 OpenBabel11052423073D

 27 31  0  0  1  0  0  0  0  0999 V2000
  158.7120  214.2580  140.4090 C   0  0  0  0  0  2  0  0  0  0  0  0
  159.3240  212.9120  138.3580 C   0  0  2  0  0  3  0  0  0  0  0  0
  159.4320  211.1900  140.1680 C   0  0  0  0  0  2  0  0  0  0  0  0
  160.6450  213.7040  138.3190 C   0  0  0  0  0  2  0  0  0  0  0  0
  161.4070  212.5190  143.1610 C   0  0  0  0  0  2  0  0  0  0  0  0
  160.5240  213.6850  143.5030 C   0  0  0  0  0  0  0  0  0  0  0  0
  160.6510  210.8050  138.1280 C   0  0  1  0  0  3  0  0  0  0  0  0
  158.3020  213.5750  139.1790 N   0  0  0  0  0  0  0  0  0  0  0  0
  161.3630  211.6700  137.1840 N   0  0  0  0  0  2  0  0  0  0  0  0
  159.0630  213.2640  141.5120 C   0  0  2  0  0  3  0  0  0  0  0  0
  159.4800  211.4830  138.7250 N   0  0  2  0  0  0  0  0  0  0  0  0
  160.7000  211.5150  142.2580 C   0  0  0  0  0  2  0  0  0  0  0  0
  161.8270  212.8310  137.9240 C   0  0  0  0  0  2  0  0  0  0  0  0
  160.8260  214.4530  144.6200 O   0  0  0  0  0  1  0  0  0  0  0  0
  159.4950  214.0410  142.7280 C   0  0  0  0  0  3  0  0  0  0  0  0
  160.1130  212.2330  141.0510 C   0  0  1  0  0  3  0  0  0  0  0  0
  154.1760  213.1460  138.2400 C   0  0  0  0  0  3  0  0  0  0  0  0
  156.9040  213.4290  138.8610 C   0  0  0  0  0  0  0  0  0  0  0  0
  156.0880  212.5550  139.5990 C   0  0  0  0  0  3  0  0  0  0  0  0
  154.7320  212.4140  139.2910 C   0  0  0  0  0  3  0  0  0  0  0  0
  154.9740  214.0190  137.4980 C   0  0  0  0  0  3  0  0  0  0  0  0
  156.3300  214.1600  137.8070 C   0  0  0  0  0  3  0  0  0  0  0  0
  160.2190  209.5070  137.4290 C   0  0  2  0  0  3  0  0  0  0  0  0
  158.7570  209.6030  137.0120 C   0  0  0  0  0  1  0  0  0  0  0  0
  161.6860  208.5320  139.0020 C   0  0  0  0  0  2  0  0  0  0  0  0
  161.5890  207.6240  137.8710 C   0  0  0  0  0  2  0  0  0  0  0  0
  160.3930  208.3610  138.3170 N   0  0  0  0  0  0  0  0  0  0  0  0
  2  4  1  1  0  0  0
  2 11  1  0  0  0  0
  2  8  1  0  0  0  0
  5  6  1  0  0  0  0
  6 14  1  0  0  0  0
  7 23  1  6  0  0  0
  7 11  1  0  0  0  0
  8  1  1  0  0  0  0
  9 13  1  0  0  0  0
  9  7  1  0  0  0  0
 10  1  1  6  0  0  0
 10 15  1  0  0  0  0
 11  3  1  1  0  0  0
 12  5  1  0  0  0  0
 13  4  1  0  0  0  0
 15  6  2  0  0  0  0
 16  3  1  6  0  0  0
 16 10  1  0  0  0  0
 16 12  1  0  0  0  0
 17 20  1  0  0  0  0
 18  8  1  0  0  0  0
 18 19  1  0  0  0  0
 20 19  2  0  0  0  0
 21 22  1  0  0  0  0
 21 17  2  0  0  0  0
 22 18  2  0  0  0  0
 23 24  1  1  0  0  0
 23 27  1  0  0  0  0
 26 27  1  0  0  0  0
 26 25  1  0  0  0  0
 27 25  1  0  0  0  0
M  END
>  <MODEL>
2

>  <REMARK>
 VINA RESULT:      -4.1     12.208     15.120
  Name = 
  3 active torsions:
  status: ('A' for Active; 'I' for Inactive)
    1  A    between atoms: C_8  and  C_14
    2  A    between atoms: C_8  and  N_16
    3  A    between atoms: C_9  and  N_15
                            x       y       z     vdW  Elec       q    Type
                         _______ _______ _______ _____ _____    ______ ____

>  <TORSDO>
F 3

$$$$
=
 OpenBabel11052423073D

 27 31  0  0  1  0  0  0  0  0999 V2000
  158.0940  213.9860  153.8360 C   0  0  0  0  0  2  0  0  0  0  0  0
  159.9800  212.3050  153.7380 C   0  0  2  0  0  3  0  0  0  0  0  0
  157.9620  210.8280  153.8020 C   0  0  0  0  0  2  0  0  0  0  0  0
  160.3470  212.7390  155.1700 C   0  0  0  0  0  2  0  0  0  0  0  0
  155.5570  211.9690  156.5480 C   0  0  0  0  0  2  0  0  0  0  0  0
  155.2690  213.3470  156.0250 C   0  0  0  0  0  0  0  0  0  0  0  0
  160.0810  209.9240  154.5010 C   0  0  1  0  0  3  0  0  0  0  0  0
  159.1230  213.2870  153.0610 N   0  0  0  0  0  0  0  0  0  0  0  0
  161.2480  210.4740  155.1950 N   0  0  0  0  0  2  0  0  0  0  0  0
  156.9170  213.0700  154.1600 C   0  0  2  0  0  3  0  0  0  0  0  0
  159.4230  210.9320  153.6410 N   0  0  2  0  0  0  0  0  0  0  0  0
  156.1710  211.0720  155.4810 C   0  0  0  0  0  2  0  0  0  0  0  0
  160.7790  211.5640  156.0350 C   0  0  0  0  0  2  0  0  0  0  0  0
  154.3470  214.1420  156.6940 O   0  0  0  0  0  1  0  0  0  0  0  0
  155.9200  213.8530  154.9730 C   0  0  0  0  0  3  0  0  0  0  0  0
  157.3690  211.7680  154.8500 C   0  0  1  0  0  3  0  0  0  0  0  0
  159.3260  213.7710  148.8400 C   0  0  0  0  0  3  0  0  0  0  0  0
  159.1930  213.4520  151.6310 C   0  0  0  0  0  0  0  0  0  0  0  0
  160.3470  213.0790  150.9220 C   0  0  0  0  0  3  0  0  0  0  0  0
  160.4130  213.2380  149.5350 C   0  0  0  0  0  3  0  0  0  0  0  0
  158.1710  214.1450  149.5320 C   0  0  0  0  0  3  0  0  0  0  0  0
  158.1050  213.9860  150.9190 C   0  0  0  0  0  3  0  0  0  0  0  0
  160.4930  208.7000  153.6690 C   0  0  2  0  0  3  0  0  0  0  0  0
  160.6340  207.4810  154.5740 C   0  0  0  0  0  1  0  0  0  0  0  0
  161.4450  209.4570  151.6440 C   0  0  0  0  0  2  0  0  0  0  0  0
  161.8140  208.0610  151.8080 C   0  0  0  0  0  2  0  0  0  0  0  0
  161.7620  208.9430  152.9880 N   0  0  0  0  0  0  0  0  0  0  0  0
  2  4  1  1  0  0  0
  4 13  1  0  0  0  0
  6  5  1  0  0  0  0
  6 14  1  0  0  0  0
  7 23  1  6  0  0  0
  7  9  1  0  0  0  0
  8  2  1  0  0  0  0
  8  1  1  0  0  0  0
  9 13  1  0  0  0  0
 10  1  1  1  0  0  0
 10 16  1  0  0  0  0
 10 15  1  0  0  0  0
 11  2  1  0  0  0  0
 11  3  1  1  0  0  0
 11  7  1  0  0  0  0
 12  5  1  0  0  0  0
 15  6  2  0  0  0  0
 16  3  1  6  0  0  0
 16 12  1  0  0  0  0
 17 21  2  0  0  0  0
 17 20  1  0  0  0  0
 18  8  1  0  0  0  0
 19 18  1  0  0  0  0
 20 19  2  0  0  0  0
 21 22  1  0  0  0  0
 22 18  2  0  0  0  0
 23 24  1  1  0  0  0
 25 26  1  0  0  0  0
 25 27  1  0  0  0  0
 26 27  1  0  0  0  0
 27 23  1  0  0  0  0
M  END
>  <MODEL>
3

>  <REMARK>
 VINA RESULT:      -4.1      0.960      1.017
  Name = 
  3 active torsions:
  status: ('A' for Active; 'I' for Inactive)
    1  A    between atoms: C_8  and  C_14
    2  A    between atoms: C_8  and  N_16
    3  A    between atoms: C_9  and  N_15
                            x       y       z     vdW  Elec       q    Type
                         _______ _______ _______ _____ _____    ______ ____

>  <TORSDO>
F 3

$$$$
=
 OpenBabel11052423073D

 27 31  0  0  1  0  0  0  0  0999 V2000
  160.8310  211.4850  153.4660 C   0  0  0  0  0  2  0  0  0  0  0  0
  159.4800  211.7200  155.5900 C   0  0  2  0  0  3  0  0  0  0  0  0
  157.7090  211.8220  153.8270 C   0  0  0  0  0  2  0  0  0  0  0  0
  160.1210  213.1110  155.7590 C   0  0  0  0  0  2  0  0  0  0  0  0
  158.7300  214.2390  151.0450 C   0  0  0  0  0  2  0  0  0  0  0  0
  159.9780  213.5350  150.5930 C   0  0  0  0  0  0  0  0  0  0  0  0
  157.2440  212.7690  155.9920 C   0  0  1  0  0  3  0  0  0  0  0  0
  160.2300  210.8720  154.6540 N   0  0  0  0  0  0  0  0  0  0  0  0
  158.0490  213.4710  156.9940 N   0  0  0  0  0  2  0  0  0  0  0  0
  159.7750  211.8350  152.4210 C   0  0  2  0  0  3  0  0  0  0  0  0
  158.0320  211.7510  155.2620 N   0  0  2  0  0  0  0  0  0  0  0  0
  157.8360  213.3320  151.8810 C   0  0  0  0  0  2  0  0  0  0  0  0
  159.1320  214.1390  156.2910 C   0  0  0  0  0  2  0  0  0  0  0  0
  160.6780  214.0380  149.5050 O   0  0  0  0  0  1  0  0  0  0  0  0
  160.4660  212.4770  151.2470 C   0  0  0  0  0  3  0  0  0  0  0  0
  158.6460  212.7060  153.0070 C   0  0  1  0  0  3  0  0  0  0  0  0
  160.2830  206.6480  155.1460 C   0  0  0  0  0  3  0  0  0  0  0  0
  160.2480  209.4410  154.8220 C   0  0  0  0  0  0  0  0  0  0  0  0
  159.6990  208.8470  155.9700 C   0  0  0  0  0  3  0  0  0  0  0  0
  159.7170  207.4580  156.1320 C   0  0  0  0  0  3  0  0  0  0  0  0
  160.8320  207.2240  153.9990 C   0  0  0  0  0  3  0  0  0  0  0  0
  160.8150  208.6130  153.8370 C   0  0  0  0  0  3  0  0  0  0  0  0
  156.0210  212.1210  156.6590 C   0  0  2  0  0  3  0  0  0  0  0  0
  155.9410  210.6480  156.2770 C   0  0  0  0  0  1  0  0  0  0  0  0
  155.1250  214.2120  156.0230 C   0  0  0  0  0  2  0  0  0  0  0  0
  154.4760  213.8150  157.2610 C   0  0  0  0  0  2  0  0  0  0  0  0
  154.7930  212.7940  156.2460 N   0  0  0  0  0  0  0  0  0  0  0  0
  1  8  1  0  0  0  0
  2  4  1  6  0  0  0
  4 13  1  0  0  0  0
  5 12  1  0  0  0  0
  6  5  1  0  0  0  0
  6 15  2  0  0  0  0
  7 23  1  1  0  0  0
  7  9  1  0  0  0  0
  8 18  1  0  0  0  0
  8  2  1  0  0  0  0
 10 15  1  6  0  0  0
 10 16  1  0  0  0  0
 10  1  1  0  0  0  0
 11  3  1  6  0  0  0
 11  2  1  0  0  0  0
 11  7  1  0  0  0  0
 13  9  1  0  0  0  0
 14  6  1  0  0  0  0
 16 12  1  6  0  0  0
 16  3  1  0  0  0  0
 17 20  1  0  0  0  0
 18 19  1  0  0  0  0
 19 20  2  0  0  0  0
 21 17  2  0  0  0  0
 22 21  1  0  0  0  0
 22 18  2  0  0  0  0
 23 24  1  6  0  0  0
 25 27  1  0  0  0  0
 25 26  1  0  0  0  0
 27 23  1  0  0  0  0
 27 26  1  0  0  0  0
M  END
>  <MODEL>
4

>  <REMARK>
 VINA RESULT:      -4.1      2.558      6.155
  Name = 
  3 active torsions:
  status: ('A' for Active; 'I' for Inactive)
    1  A    between atoms: C_8  and  C_14
    2  A    between atoms: C_8  and  N_16
    3  A    between atoms: C_9  and  N_15
                            x       y       z     vdW  Elec       q    Type
                         _______ _______ _______ _____ _____    ______ ____

>  <TORSDO>
F 3

$$$$
=
 OpenBabel11052423073D

 27 31  0  0  1  0  0  0  0  0999 V2000
  162.1080  210.1510  150.6160 C   0  0  0  0  0  2  0  0  0  0  0  0
  161.9580  209.2750  152.9830 C   0  0  2  0  0  3  0  0  0  0  0  0
  159.7360  210.3850  152.6910 C   0  0  0  0  0  2  0  0  0  0  0  0
  163.0160  210.3290  153.3650 C   0  0  0  0  0  2  0  0  0  0  0  0
  160.1710  213.8660  151.1670 C   0  0  0  0  0  2  0  0  0  0  0  0
  160.8050  213.4570  149.8690 C   0  0  0  0  0  0  0  0  0  0  0  0
  160.5780  210.0470  154.9210 C   0  0  1  0  0  3  0  0  0  0  0  0
  161.9180  209.0260  151.5360 N   0  0  0  0  0  0  0  0  0  0  0  0
  161.9130  210.0660  155.5230 N   0  0  0  0  0  2  0  0  0  0  0  0
  160.8790  211.0540  150.5710 C   0  0  2  0  0  3  0  0  0  0  0  0
  160.6040  209.5420  153.5310 N   0  0  2  0  0  0  0  0  0  0  0  0
  159.4860  212.6950  151.8610 C   0  0  0  0  0  2  0  0  0  0  0  0
  162.7370  210.9560  154.7230 C   0  0  0  0  0  2  0  0  0  0  0  0
  161.0880  214.4310  148.9210 O   0  0  0  0  0  1  0  0  0  0  0  0
  161.1620  212.1920  149.6260 C   0  0  0  0  0  3  0  0  0  0  0  0
  160.4560  211.5270  151.9760 C   0  0  1  0  0  3  0  0  0  0  0  0
  160.8310  205.1940  150.0440 C   0  0  0  0  0  3  0  0  0  0  0  0
  161.5490  207.7280  151.0300 C   0  0  0  0  0  0  0  0  0  0  0  0
  161.2050  207.5560  149.6780 C   0  0  0  0  0  3  0  0  0  0  0  0
  160.8480  206.2970  149.1880 C   0  0  0  0  0  3  0  0  0  0  0  0
  161.1720  205.3490  151.3900 C   0  0  0  0  0  3  0  0  0  0  0  0
  161.5290  206.6080  151.8800 C   0  0  0  0  0  3  0  0  0  0  0  0
  159.6260  209.2000  155.7800 C   0  0  2  0  0  3  0  0  0  0  0  0
  158.9660  210.0740  156.8390 C   0  0  0  0  0  1  0  0  0  0  0  0
  160.4540  207.0100  155.4640 C   0  0  0  0  0  2  0  0  0  0  0  0
  159.4480  206.9530  156.5100 C   0  0  0  0  0  2  0  0  0  0  0  0
  160.3510  208.1150  156.4350 N   0  0  0  0  0  0  0  0  0  0  0  0
  1  8  1  0  0  0  0
  2  4  1  6  0  0  0
  2 11  1  0  0  0  0
  4 13  1  0  0  0  0
  5 12  1  0  0  0  0
  6  5  1  0  0  0  0
  7  9  1  0  0  0  0
  7 23  1  1  0  0  0
  8  2  1  0  0  0  0
 10 15  1  6  0  0  0
 10  1  1  0  0  0  0
 10 16  1  0  0  0  0
 11  3  1  6  0  0  0
 11  7  1  0  0  0  0
 13  9  1  0  0  0  0
 14  6  1  0  0  0  0
 15  6  2  0  0  0  0
 16 12  1  6  0  0  0
 16  3  1  0  0  0  0
 17 21  1  0  0  0  0
 18  8  1  0  0  0  0
 18 22  1  0  0  0  0
 19 18  2  0  0  0  0
 20 19  1  0  0  0  0
 20 17  2  0  0  0  0
 21 22  2  0  0  0  0
 23 27  1  0  0  0  0
 23 24  1  1  0  0  0
 25 27  1  0  0  0  0
 25 26  1  0  0  0  0
 27 26  1  0  0  0  0
M  END
>  <MODEL>
5

>  <REMARK>
 VINA RESULT:      -3.9      3.643      6.253
  Name = 
  3 active torsions:
  status: ('A' for Active; 'I' for Inactive)
    1  A    between atoms: C_8  and  C_14
    2  A    between atoms: C_8  and  N_16
    3  A    between atoms: C_9  and  N_15
                            x       y       z     vdW  Elec       q    Type
                         _______ _______ _______ _____ _____    ______ ____

>  <TORSDO>
F 3

$$$$
=
 OpenBabel11052423073D

 27 31  0  0  1  0  0  0  0  0999 V2000
  159.3030  212.9500  153.2150 C   0  0  0  0  0  2  0  0  0  0  0  0
  160.7420  211.2170  154.3620 C   0  0  2  0  0  3  0  0  0  0  0  0
  158.5500  210.0300  154.1620 C   0  0  0  0  0  2  0  0  0  0  0  0
  160.7250  212.1280  155.6050 C   0  0  0  0  0  2  0  0  0  0  0  0
  155.6930  212.2970  155.3140 C   0  0  0  0  0  2  0  0  0  0  0  0
  155.8680  213.3960  154.3050 C   0  0  0  0  0  0  0  0  0  0  0  0
  160.1160  209.2960  155.8370 C   0  0  1  0  0  3  0  0  0  0  0  0
  160.3580  211.9360  153.1400 N   0  0  0  0  0  0  0  0  0  0  0  0
  161.0940  209.9750  156.6900 N   0  0  0  0  0  2  0  0  0  0  0  0
  157.9230  212.3150  153.3670 C   0  0  2  0  0  3  0  0  0  0  0  0
  159.9770  209.9550  154.5200 N   0  0  2  0  0  0  0  0  0  0  0  0
  156.4140  211.0210  154.8960 C   0  0  0  0  0  2  0  0  0  0  0  0
  160.6180  211.3330  156.8990 C   0  0  0  0  0  2  0  0  0  0  0  0
  154.9650  214.4500  154.2950 O   0  0  0  0  0  1  0  0  0  0  0  0
  156.9030  213.4180  153.4590 C   0  0  0  0  0  3  0  0  0  0  0  0
  157.8630  211.3360  154.5560 C   0  0  1  0  0  3  0  0  0  0  0  0
  161.9650  210.7840  149.3750 C   0  0  0  0  0  3  0  0  0  0  0  0
  160.9020  211.5460  151.8630 C   0  0  0  0  0  0  0  0  0  0  0  0
  160.8100  212.4020  150.7540 C   0  0  0  0  0  3  0  0  0  0  0  0
  161.3390  212.0230  149.5160 C   0  0  0  0  0  3  0  0  0  0  0  0
  162.0640  209.9220  150.4700 C   0  0  0  0  0  3  0  0  0  0  0  0
  161.5360  210.3010  151.7070 C   0  0  0  0  0  3  0  0  0  0  0  0
  160.5090  207.8210  155.6580 C   0  0  2  0  0  3  0  0  0  0  0  0
  161.0520  207.2670  156.9700 C   0  0  0  0  0  1  0  0  0  0  0  0
  160.8300  207.2910  153.3790 C   0  0  0  0  0  2  0  0  0  0  0  0
  161.5130  206.2790  154.1660 C   0  0  0  0  0  2  0  0  0  0  0  0
  161.5250  207.6810  154.6190 N   0  0  0  0  0  0  0  0  0  0  0  0
  2 11  1  0  0  0  0
  2  4  1  1  0  0  0
  4 13  1  0  0  0  0
  6  5  1  0  0  0  0
  7 23  1  6  0  0  0
  7  9  1  0  0  0  0
  8  1  1  0  0  0  0
  8  2  1  0  0  0  0
  9 13  1  0  0  0  0
 10  1  1  1  0  0  0
 10 15  1  0  0  0  0
 10 16  1  0  0  0  0
 11  3  1  1  0  0  0
 11  7  1  0  0  0  0
 12  5  1  0  0  0  0
 14  6  1  0  0  0  0
 15  6  2  0  0  0  0
 16  3  1  6  0  0  0
 16 12  1  0  0  0  0
 17 20  2  0  0  0  0
 17 21  1  0  0  0  0
 18  8  1  0  0  0  0
 19 18  2  0  0  0  0
 20 19  1  0  0  0  0
 21 22  2  0  0  0  0
 22 18  1  0  0  0  0
 23 24  1  1  0  0  0
 25 26  1  0  0  0  0
 25 27  1  0  0  0  0
 26 27  1  0  0  0  0
 27 23  1  0  0  0  0
M  END
>  <MODEL>
6

>  <REMARK>
 VINA RESULT:      -3.0      1.783      2.726
  Name = 
  3 active torsions:
  status: ('A' for Active; 'I' for Inactive)
    1  A    between atoms: C_8  and  C_14
    2  A    between atoms: C_8  and  N_16
    3  A    between atoms: C_9  and  N_15
                            x       y       z     vdW  Elec       q    Type
                         _______ _______ _______ _____ _____    ______ ____

>  <TORSDO>
F 3

$$$$
=
 OpenBabel11052423073D

 27 31  0  0  1  0  0  0  0  0999 V2000
  159.8040  211.0230  141.0910 C   0  0  0  0  0  2  0  0  0  0  0  0
  160.7000  212.0440  138.9580 C   0  0  2  0  0  3  0  0  0  0  0  0
  162.4640  212.6630  140.6190 C   0  0  0  0  0  2  0  0  0  0  0  0
  159.5390  213.0540  139.0370 C   0  0  0  0  0  2  0  0  0  0  0  0
  160.8740  214.0960  143.7880 C   0  0  0  0  0  2  0  0  0  0  0  0
  160.0740  212.8910  144.1930 C   0  0  0  0  0  0  0  0  0  0  0  0
  162.2640  213.9630  138.6020 C   0  0  1  0  0  3  0  0  0  0  0  0
  160.4630  210.8580  139.7930 N   0  0  0  0  0  0  0  0  0  0  0  0
  161.1390  214.3810  137.7630 N   0  0  0  0  0  2  0  0  0  0  0  0
  160.7390  211.6540  142.1190 C   0  0  2  0  0  3  0  0  0  0  0  0
  162.0390  212.6330  139.2090 N   0  0  2  0  0  0  0  0  0  0  0  0
  161.9580  213.7460  142.7770 C   0  0  0  0  0  2  0  0  0  0  0  0
  159.9650  214.4530  138.6160 C   0  0  0  0  0  2  0  0  0  0  0  0
  159.3560  212.9280  145.3810 O   0  0  0  0  0  1  0  0  0  0  0  0
  159.9830  211.8100  143.4120 C   0  0  0  0  0  3  0  0  0  0  0  0
  161.3490  212.9770  141.6130 C   0  0  1  0  0  3  0  0  0  0  0  0
  162.0560  207.0800  138.6610 C   0  0  0  0  0  3  0  0  0  0  0  0
  161.0040  209.5780  139.4100 C   0  0  0  0  0  0  0  0  0  0  0  0
  161.7590  208.8180  140.3180 C   0  0  0  0  0  3  0  0  0  0  0  0
  162.2830  207.5770  139.9460 C   0  0  0  0  0  3  0  0  0  0  0  0
  161.3070  207.8240  137.7470 C   0  0  0  0  0  3  0  0  0  0  0  0
  160.7830  209.0660  138.1190 C   0  0  0  0  0  3  0  0  0  0  0  0
  163.5620  213.9630  137.7790 C   0  0  2  0  0  3  0  0  0  0  0  0
  163.8550  212.5560  137.2720 C   0  0  0  0  0  1  0  0  0  0  0  0
  165.8810  214.4110  137.7270 C   0  0  0  0  0  2  0  0  0  0  0  0
  165.6640  213.3280  138.6710 C   0  0  0  0  0  2  0  0  0  0  0  0
  164.6850  214.4270  138.5890 N   0  0  0  0  0  0  0  0  0  0  0  0
  2  4  1  1  0  0  0
  2 11  1  0  0  0  0
  2  8  1  0  0  0  0
  5  6  1  0  0  0  0
  6 14  1  0  0  0  0
  7 23  1  6  0  0  0
  7 11  1  0  0  0  0
  8  1  1  0  0  0  0
  9  7  1  0  0  0  0
  9 13  1  0  0  0  0
 10  1  1  6  0  0  0
 10 15  1  0  0  0  0
 11  3  1  1  0  0  0
 12  5  1  0  0  0  0
 13  4  1  0  0  0  0
 15  6  2  0  0  0  0
 16  3  1  6  0  0  0
 16 10  1  0  0  0  0
 16 12  1  0  0  0  0
 17 20  1  0  0  0  0
 18  8  1  0  0  0  0
 18 19  1  0  0  0  0
 20 19  2  0  0  0  0
 21 22  1  0  0  0  0
 21 17  2  0  0  0  0
 22 18  2  0  0  0  0
 23 24  1  1  0  0  0
 23 27  1  0  0  0  0
 25 27  1  0  0  0  0
 25 26  1  0  0  0  0
 27 26  1  0  0  0  0
M  END
>  <MODEL>
7

>  <REMARK>
 VINA RESULT:      -2.7     11.572     15.224
  Name = 
  3 active torsions:
  status: ('A' for Active; 'I' for Inactive)
    1  A    between atoms: C_8  and  C_14
    2  A    between atoms: C_8  and  N_16
    3  A    between atoms: C_9  and  N_15
                            x       y       z     vdW  Elec       q    Type
                         _______ _______ _______ _____ _____    ______ ____

>  <TORSDO>
F 3

$$$$
=
 OpenBabel11052423073D

 27 31  0  0  1  0  0  0  0  0999 V2000
  158.9290  213.6740  153.1950 C   0  0  0  0  0  2  0  0  0  0  0  0
  160.7250  211.8980  153.2900 C   0  0  2  0  0  3  0  0  0  0  0  0
  158.6420  210.5280  153.0940 C   0  0  0  0  0  2  0  0  0  0  0  0
  160.9440  212.2980  154.7620 C   0  0  0  0  0  2  0  0  0  0  0  0
  155.9930  211.7640  155.5600 C   0  0  0  0  0  2  0  0  0  0  0  0
  155.8370  213.1600  155.0290 C   0  0  0  0  0  0  0  0  0  0  0  0
  160.6170  209.5070  154.0200 C   0  0  1  0  0  3  0  0  0  0  0  0
  160.0050  212.9310  152.5340 N   0  0  0  0  0  0  0  0  0  0  0  0
  161.7210  209.9880  154.8540 N   0  0  0  0  0  2  0  0  0  0  0  0
  157.6770  212.8170  153.3650 C   0  0  2  0  0  3  0  0  0  0  0  0
  160.1150  210.5570  153.1060 N   0  0  2  0  0  0  0  0  0  0  0  0
  156.6820  210.8470  154.5570 C   0  0  0  0  0  2  0  0  0  0  0  0
  161.2120  211.0920  155.6520 C   0  0  0  0  0  2  0  0  0  0  0  0
  154.8850  213.9940  155.5990 O   0  0  0  0  0  1  0  0  0  0  0  0
  156.6320  213.6420  154.0690 C   0  0  0  0  0  3  0  0  0  0  0  0
  157.9790  211.4860  154.0810 C   0  0  1  0  0  3  0  0  0  0  0  0
  160.7310  213.4470  148.3750 C   0  0  0  0  0  3  0  0  0  0  0  0
  160.2500  213.1060  151.1240 C   0  0  0  0  0  0  0  0  0  0  0  0
  159.7060  214.2010  150.4330 C   0  0  0  0  0  3  0  0  0  0  0  0
  159.9450  214.3710  149.0660 C   0  0  0  0  0  3  0  0  0  0  0  0
  161.2790  212.3530  149.0490 C   0  0  0  0  0  3  0  0  0  0  0  0
  161.0400  212.1840  150.4160 C   0  0  0  0  0  3  0  0  0  0  0  0
  161.0610  208.2720  153.2220 C   0  0  2  0  0  3  0  0  0  0  0  0
  160.8750  208.5220  151.7310 C   0  0  0  0  0  1  0  0  0  0  0  0
  160.8260  206.6280  154.9030 C   0  0  0  0  0  2  0  0  0  0  0  0
  161.2070  205.9500  153.6750 C   0  0  0  0  0  2  0  0  0  0  0  0
  160.2850  207.0990  153.6150 N   0  0  0  0  0  0  0  0  0  0  0  0
  2  4  1  1  0  0  0
  4 13  1  0  0  0  0
  6  5  1  0  0  0  0
  6 14  1  0  0  0  0
  7 23  1  6  0  0  0
  7  9  1  0  0  0  0
  8  1  1  0  0  0  0
  8  2  1  0  0  0  0
  9 13  1  0  0  0  0
 10  1  1  1  0  0  0
 10 15  1  0  0  0  0
 10 16  1  0  0  0  0
 11  3  1  1  0  0  0
 11  2  1  0  0  0  0
 11  7  1  0  0  0  0
 12  5  1  0  0  0  0
 15  6  2  0  0  0  0
 16  3  1  6  0  0  0
 16 12  1  0  0  0  0
 17 21  2  0  0  0  0
 17 20  1  0  0  0  0
 18  8  1  0  0  0  0
 19 18  1  0  0  0  0
 20 19  2  0  0  0  0
 21 22  1  0  0  0  0
 22 18  2  0  0  0  0
 23 24  1  6  0  0  0
 23 27  1  0  0  0  0
 26 25  1  0  0  0  0
 27 26  1  0  0  0  0
 27 25  1  0  0  0  0
M  END
>  <MODEL>
8

>  <REMARK>
 VINA RESULT:      -2.5      1.587      2.461
  Name = 
  3 active torsions:
  status: ('A' for Active; 'I' for Inactive)
    1  A    between atoms: C_8  and  C_14
    2  A    between atoms: C_8  and  N_16
    3  A    between atoms: C_9  and  N_15
                            x       y       z     vdW  Elec       q    Type
                         _______ _______ _______ _____ _____    ______ ____

>  <TORSDO>
F 3

$$$$
=
 OpenBabel11052423073D

 27 31  0  0  1  0  0  0  0  0999 V2000
  160.0940  213.1890  150.5710 C   0  0  0  0  0  2  0  0  0  0  0  0
  160.6890  214.0040  148.2530 C   0  0  2  0  0  3  0  0  0  0  0  0
  160.6870  211.5220  147.9510 C   0  0  0  0  0  2  0  0  0  0  0  0
  162.0440  214.4530  148.8350 C   0  0  0  0  0  2  0  0  0  0  0  0
  162.6550  209.8320  150.7610 C   0  0  0  0  0  2  0  0  0  0  0  0
  161.8170  210.2900  151.9200 C   0  0  0  0  0  0  0  0  0  0  0  0
  161.9300  212.8770  146.3960 C   0  0  1  0  0  3  0  0  0  0  0  0
  159.6800  213.7850  149.2970 N   0  0  0  0  0  0  0  0  0  0  0  0
  162.6970  214.1190  146.5100 N   0  0  0  0  0  2  0  0  0  0  0  0
  160.3800  211.6970  150.4250 C   0  0  2  0  0  3  0  0  0  0  0  0
  160.7760  212.8510  147.3220 N   0  0  2  0  0  0  0  0  0  0  0  0
  161.9250  209.9870  149.4330 C   0  0  0  0  0  2  0  0  0  0  0  0
  163.1950  214.1990  147.8730 C   0  0  0  0  0  2  0  0  0  0  0  0
  162.1290  209.8410  153.1960 O   0  0  0  0  0  1  0  0  0  0  0  0
  160.8200  211.1670  151.7650 C   0  0  0  0  0  3  0  0  0  0  0  0
  161.3930  211.4070  149.3000 C   0  0  1  0  0  3  0  0  0  0  0  0
  155.5600  214.4530  148.4790 C   0  0  0  0  0  3  0  0  0  0  0  0
  158.2840  214.0110  149.0210 C   0  0  0  0  0  0  0  0  0  0  0  0
  157.3720  214.2300  150.0670 C   0  0  0  0  0  3  0  0  0  0  0  0
  156.0180  214.4500  149.7980 C   0  0  0  0  0  3  0  0  0  0  0  0
  156.4550  214.2380  147.4280 C   0  0  0  0  0  3  0  0  0  0  0  0
  157.8090  214.0180  147.6980 C   0  0  0  0  0  3  0  0  0  0  0  0
  161.4570  212.6810  144.9480 C   0  0  2  0  0  3  0  0  0  0  0  0
  162.5740  213.0570  143.9820 C   0  0  0  0  0  1  0  0  0  0  0  0
  159.1200  212.6050  144.6130 C   0  0  0  0  0  2  0  0  0  0  0  0
  159.7260  213.0760  143.3780 C   0  0  0  0  0  2  0  0  0  0  0  0
  160.2840  213.5070  144.6730 N   0  0  0  0  0  0  0  0  0  0  0  0
  2  4  1  1  0  0  0
  2  8  1  0  0  0  0
  5  6  1  0  0  0  0
  6 14  1  0  0  0  0
  7 23  1  6  0  0  0
  7  9  1  0  0  0  0
  7 11  1  0  0  0  0
  8  1  1  0  0  0  0
  9 13  1  0  0  0  0
 10  1  1  1  0  0  0
 10 15  1  0  0  0  0
 11  3  1  1  0  0  0
 11  2  1  0  0  0  0
 12  5  1  0  0  0  0
 13  4  1  0  0  0  0
 15  6  2  0  0  0  0
 16  3  1  6  0  0  0
 16 12  1  0  0  0  0
 16 10  1  0  0  0  0
 17 20  1  0  0  0  0
 18  8  1  0  0  0  0
 18 19  1  0  0  0  0
 20 19  2  0  0  0  0
 21 22  1  0  0  0  0
 21 17  2  0  0  0  0
 22 18  2  0  0  0  0
 23 24  1  6  0  0  0
 25 27  1  0  0  0  0
 26 25  1  0  0  0  0
 26 27  1  0  0  0  0
 27 23  1  0  0  0  0
M  END
>  <MODEL>
9

>  <REMARK>
 VINA RESULT:      -2.1      4.938      7.918
  Name = 
  3 active torsions:
  status: ('A' for Active; 'I' for Inactive)
    1  A    between atoms: C_8  and  C_14
    2  A    between atoms: C_8  and  N_16
    3  A    between atoms: C_9  and  N_15
                            x       y       z     vdW  Elec       q    Type
                         _______ _______ _______ _____ _____    ______ ____

>  <TORSDO>
F 3

$$$$
