=
 OpenBabel11052423063D

 27 30  0  0  1  0  0  0  0  0999 V2000
  161.5290  208.8620  150.3480 N   0  0  0  0  0  0  0  0  0  0  0  0
  161.3400  206.7660  151.5550 C   0  0  0  0  0  0  0  0  0  0  0  0
  160.2740  206.4630  149.2710 C   0  0  0  0  0  2  0  0  0  0  0  0
  161.7630  202.7040  151.8030 N   0  0  0  0  0  0  0  0  0  0  0  0
  161.0880  201.0060  150.0980 C   0  0  0  0  0  1  0  0  0  0  0  0
  161.8960  206.2360  152.6930 N   0  0  0  0  0  0  0  0  0  0  0  0
  160.8210  203.4960  149.8970 N   0  0  0  0  0  0  0  0  0  0  0  0
  160.1910  203.5110  148.5840 C   0  0  0  0  0  1  0  0  0  0  0  0
  161.1200  204.5350  150.6960 C   0  0  0  0  0  0  0  0  0  0  0  0
  161.1770  208.2390  151.4390 C   0  0  0  0  0  0  0  0  0  0  0  0
  161.2230  202.4060  150.5940 C   0  0  0  0  0  0  0  0  0  0  0  0
  161.6840  204.0470  151.8370 C   0  0  0  0  0  0  0  0  0  0  0  0
  162.1780  208.2300  149.1980 C   0  0  1  0  0  3  0  0  0  0  0  0
  160.9280  205.9090  150.5030 C   0  0  0  0  0  0  0  0  0  0  0  0
  162.0810  204.8940  152.8620 C   0  0  0  0  0  3  0  0  0  0  0  0
  161.2240  207.3070  148.4110 C   0  0  1  0  0  3  0  0  0  0  0  0
  159.5410  210.4900  154.6630 N   0  0  0  0  0  0  0  0  0  0  0  0
  160.5980  209.0230  152.5560 C   0  0  0  0  0  0  0  0  0  0  0  0
  159.9880  210.2650  152.3280 C   0  0  0  0  0  3  0  0  0  0  0  0
  159.4600  210.9870  153.4000 C   0  0  0  0  0  3  0  0  0  0  0  0
  160.1310  209.2910  154.9170 C   0  0  0  0  0  3  0  0  0  0  0  0
  160.6690  208.5390  153.8710 C   0  0  0  0  0  3  0  0  0  0  0  0
  162.7750  209.3020  148.2930 C   0  0  0  0  0  2  0  0  0  0  0  0
  162.2000  210.5470  148.5570 O   0  0  0  0  0  1  0  0  0  0  0  0
  161.9610  206.4510  147.3780 C   0  0  0  0  0  2  0  0  0  0  0  0
  161.1060  206.1480  146.1570 C   0  0  0  0  0  2  0  0  0  0  0  0
  161.8630  205.4420  145.2240 O   0  0  0  0  0  1  0  0  0  0  0  0
  1 10  2  0  0  0  0
  2  6  1  0  0  0  0
  3 14  1  0  0  0  0
  4 12  1  0  0  0  0
  5 11  1  0  0  0  0
  6 15  2  0  0  0  0
  7 11  1  0  0  0  0
  7  9  1  0  0  0  0
  8  7  1  0  0  0  0
  9 12  2  0  0  0  0
 10  2  1  0  0  0  0
 10 18  1  0  0  0  0
 11  4  2  0  0  0  0
 12 15  1  0  0  0  0
 13 23  1  6  0  0  0
 13  1  1  0  0  0  0
 14  9  1  0  0  0  0
 14  2  2  0  0  0  0
 16 25  1  1  0  0  0
 16 13  1  0  0  0  0
 16  3  1  0  0  0  0
 17 21  1  0  0  0  0
 18 22  1  0  0  0  0
 19 18  2  0  0  0  0
 19 20  1  0  0  0  0
 20 17  2  0  0  0  0
 22 21  2  0  0  0  0
 23 24  1  0  0  0  0
 26 25  1  0  0  0  0
 27 26  1  0  0  0  0
M  END
>  <MODEL>
1

>  <REMARK>
 VINA RESULT:      -6.2      0.000      0.000
  Name = 
  4 active torsions:
  status: ('A' for Active; 'I' for Inactive)
    1  A    between atoms: C_9  and  C_15
    2  A    between atoms: C_10  and  C_20
    3  A    between atoms: CA_18  and  C_22
    4  A    between atoms: C_20  and  C_26
                            x       y       z     vdW  Elec       q    Type
                         _______ _______ _______ _____ _____    ______ ____

>  <TORSDO>
F 4

$$$$
=
 OpenBabel11052423063D

 27 30  0  0  1  0  0  0  0  0999 V2000
  161.0200  207.4660  152.3120 N   0  0  0  0  0  0  0  0  0  0  0  0
  160.5290  209.8410  152.3900 C   0  0  0  0  0  0  0  0  0  0  0  0
  162.4000  209.4750  150.7140 C   0  0  0  0  0  2  0  0  0  0  0  0
  159.7060  213.4090  150.5640 N   0  0  0  0  0  0  0  0  0  0  0  0
  160.8710  214.4010  148.5880 C   0  0  0  0  0  1  0  0  0  0  0  0
  159.5170  210.6170  152.8990 N   0  0  0  0  0  0  0  0  0  0  0  0
  161.4030  212.1970  149.6700 N   0  0  0  0  0  0  0  0  0  0  0  0
  162.5100  211.8240  148.8010 C   0  0  0  0  0  1  0  0  0  0  0  0
  160.8920  211.5220  150.7140 C   0  0  0  0  0  0  0  0  0  0  0  0
  160.8460  208.5390  153.0340 C   0  0  0  0  0  0  0  0  0  0  0  0
  160.6630  213.3300  149.6050 C   0  0  0  0  0  0  0  0  0  0  0  0
  159.8760  212.2590  151.2430 C   0  0  0  0  0  0  0  0  0  0  0  0
  160.8440  207.3990  150.8600 C   0  0  1  0  0  3  0  0  0  0  0  0
  161.2590  210.2840  151.2580 C   0  0  0  0  0  0  0  0  0  0  0  0
  159.1680  211.8180  152.3530 C   0  0  0  0  0  3  0  0  0  0  0  0
  161.9550  208.1450  150.0920 C   0  0  1  0  0  3  0  0  0  0  0  0
  161.2560  208.2280  157.2610 N   0  0  0  0  0  0  0  0  0  0  0  0
  160.9850  208.4420  154.5070 C   0  0  0  0  0  0  0  0  0  0  0  0
  161.7890  209.3450  155.2180 C   0  0  0  0  0  3  0  0  0  0  0  0
  161.9110  209.2220  156.6040 C   0  0  0  0  0  3  0  0  0  0  0  0
  160.4730  207.3350  156.5990 C   0  0  0  0  0  3  0  0  0  0  0  0
  160.3260  207.4250  155.2130 C   0  0  0  0  0  3  0  0  0  0  0  0
  160.7560  205.9420  150.4210 C   0  0  0  0  0  2  0  0  0  0  0  0
  161.3950  205.1100  151.3420 O   0  0  0  0  0  1  0  0  0  0  0  0
  161.6330  208.2990  148.6030 C   0  0  0  0  0  2  0  0  0  0  0  0
  162.3150  207.2430  147.7480 C   0  0  0  0  0  2  0  0  0  0  0  0
  161.3590  206.5790  146.9810 O   0  0  0  0  0  1  0  0  0  0  0  0
  1 10  2  0  0  0  0
  2  6  1  0  0  0  0
  2 10  1  0  0  0  0
  3 14  1  0  0  0  0
  4 12  1  0  0  0  0
  5 11  1  0  0  0  0
  7  9  1  0  0  0  0
  8  7  1  0  0  0  0
  9 12  2  0  0  0  0
  9 14  1  0  0  0  0
 10 18  1  0  0  0  0
 11  7  1  0  0  0  0
 11  4  2  0  0  0  0
 12 15  1  0  0  0  0
 13 23  1  6  0  0  0
 13  1  1  0  0  0  0
 14  2  2  0  0  0  0
 15  6  2  0  0  0  0
 16 25  1  6  0  0  0
 16  3  1  0  0  0  0
 16 13  1  0  0  0  0
 18 22  2  0  0  0  0
 18 19  1  0  0  0  0
 19 20  2  0  0  0  0
 20 17  1  0  0  0  0
 21 17  2  0  0  0  0
 22 21  1  0  0  0  0
 23 24  1  0  0  0  0
 26 25  1  0  0  0  0
 27 26  1  0  0  0  0
M  END
>  <MODEL>
2

>  <REMARK>
 VINA RESULT:      -6.1      2.683      6.003
  Name = 
  4 active torsions:
  status: ('A' for Active; 'I' for Inactive)
    1  A    between atoms: C_9  and  C_15
    2  A    between atoms: C_10  and  C_20
    3  A    between atoms: CA_18  and  C_22
    4  A    between atoms: C_20  and  C_26
                            x       y       z     vdW  Elec       q    Type
                         _______ _______ _______ _____ _____    ______ ____

>  <TORSDO>
F 4

$$$$
=
 OpenBabel11052423063D

 27 30  0  0  1  0  0  0  0  0999 V2000
  161.2570  207.8980  154.1090 N   0  0  0  0  0  0  0  0  0  0  0  0
  161.3020  208.9960  151.9450 C   0  0  0  0  0  0  0  0  0  0  0  0
  159.5270  210.1240  153.3680 C   0  0  0  0  0  2  0  0  0  0  0  0
  161.4510  212.3560  149.6160 N   0  0  0  0  0  0  0  0  0  0  0  0
  160.1200  214.4520  149.8980 C   0  0  0  0  0  1  0  0  0  0  0  0
  162.1540  209.0070  150.8690 N   0  0  0  0  0  0  0  0  0  0  0  0
  160.0050  212.4150  151.3640 N   0  0  0  0  0  0  0  0  0  0  0  0
  158.9850  212.9010  152.2810 C   0  0  0  0  0  1  0  0  0  0  0  0
  160.6320  211.2260  151.3610 C   0  0  0  0  0  0  0  0  0  0  0  0
  161.2310  207.7880  152.8090 C   0  0  0  0  0  0  0  0  0  0  0  0
  160.5230  213.0740  150.2990 C   0  0  0  0  0  0  0  0  0  0  0  0
  161.4970  211.2020  150.3070 C   0  0  0  0  0  0  0  0  0  0  0  0
  161.4400  209.1550  154.8360 C   0  0  1  0  0  3  0  0  0  0  0  0
  160.5010  210.1320  152.2250 C   0  0  0  0  0  0  0  0  0  0  0  0
  162.2740  210.0840  150.0400 C   0  0  0  0  0  3  0  0  0  0  0  0
  160.2100  210.0810  154.7410 C   0  0  1  0  0  3  0  0  0  0  0  0
  160.8700  203.9040  151.1010 N   0  0  0  0  0  0  0  0  0  0  0  0
  161.1140  206.4380  152.2070 C   0  0  0  0  0  0  0  0  0  0  0  0
  160.9140  206.2760  150.8280 C   0  0  0  0  0  3  0  0  0  0  0  0
  160.7960  204.9920  150.2900 C   0  0  0  0  0  3  0  0  0  0  0  0
  161.0590  204.0280  152.4420 C   0  0  0  0  0  3  0  0  0  0  0  0
  161.1820  205.2940  153.0170 C   0  0  0  0  0  3  0  0  0  0  0  0
  161.7940  208.8590  156.2890 C   0  0  0  0  0  2  0  0  0  0  0  0
  160.6830  208.3700  156.9780 O   0  0  0  0  0  1  0  0  0  0  0  0
  160.4960  211.4880  155.2730 C   0  0  0  0  0  2  0  0  0  0  0  0
  159.3060  212.0870  156.0060 C   0  0  0  0  0  2  0  0  0  0  0  0
  158.6740  211.0940  156.7530 O   0  0  0  0  0  1  0  0  0  0  0  0
  1 13  1  0  0  0  0
  2 14  1  0  0  0  0
  2 10  1  0  0  0  0
  3 16  1  0  0  0  0
  4 11  2  0  0  0  0
  4 12  1  0  0  0  0
  5 11  1  0  0  0  0
  6  2  2  0  0  0  0
  7  8  1  0  0  0  0
  9  7  1  0  0  0  0
  9 14  2  0  0  0  0
 10  1  2  0  0  0  0
 11  7  1  0  0  0  0
 12  9  1  0  0  0  0
 13 23  1  1  0  0  0
 14  3  1  0  0  0  0
 15 12  2  0  0  0  0
 15  6  1  0  0  0  0
 16 13  1  0  0  0  0
 16 25  1  6  0  0  0
 17 21  1  0  0  0  0
 18 10  1  0  0  0  0
 18 22  1  0  0  0  0
 19 18  2  0  0  0  0
 20 19  1  0  0  0  0
 20 17  2  0  0  0  0
 21 22  2  0  0  0  0
 23 24  1  0  0  0  0
 25 26  1  0  0  0  0
 26 27  1  0  0  0  0
M  END
>  <MODEL>
3

>  <REMARK>
 VINA RESULT:      -5.9      3.492      7.703
  Name = 
  4 active torsions:
  status: ('A' for Active; 'I' for Inactive)
    1  A    between atoms: C_9  and  C_15
    2  A    between atoms: C_10  and  C_20
    3  A    between atoms: CA_18  and  C_22
    4  A    between atoms: C_20  and  C_26
                            x       y       z     vdW  Elec       q    Type
                         _______ _______ _______ _____ _____    ______ ____

>  <TORSDO>
F 4

$$$$
=
 OpenBabel11052423063D

 27 30  0  0  1  0  0  0  0  0999 V2000
  161.5950  209.4980  154.4070 N   0  0  0  0  0  0  0  0  0  0  0  0
  160.0430  210.8000  153.0700 C   0  0  0  0  0  0  0  0  0  0  0  0
  158.8790  210.1580  155.2330 C   0  0  0  0  0  2  0  0  0  0  0  0
  157.3560  213.8530  152.6280 N   0  0  0  0  0  0  0  0  0  0  0  0
  155.4820  214.4530  154.1680 C   0  0  0  0  0  1  0  0  0  0  0  0
  160.1390  211.5970  151.9570 N   0  0  0  0  0  0  0  0  0  0  0  0
  157.1190  212.5750  154.4870 N   0  0  0  0  0  0  0  0  0  0  0  0
  156.5780  212.0650  155.7390 C   0  0  0  0  0  1  0  0  0  0  0  0
  158.1650  212.1170  153.7780 C   0  0  0  0  0  0  0  0  0  0  0  0
  161.0100  209.6850  153.2560 C   0  0  0  0  0  0  0  0  0  0  0  0
  156.6540  213.6230  153.7670 C   0  0  0  0  0  0  0  0  0  0  0  0
  158.2970  212.8920  152.6650 C   0  0  0  0  0  0  0  0  0  0  0  0
  161.4460  210.3730  155.5710 C   0  0  1  0  0  3  0  0  0  0  0  0
  159.0310  211.0450  154.0320 C   0  0  0  0  0  0  0  0  0  0  0  0
  159.2900  212.6410  151.7280 C   0  0  0  0  0  3  0  0  0  0  0  0
  160.0490  210.2690  156.2180 C   0  0  1  0  0  3  0  0  0  0  0  0
  161.8490  207.0160  150.0460 N   0  0  0  0  0  0  0  0  0  0  0  0
  161.3130  208.7580  152.1390 C   0  0  0  0  0  0  0  0  0  0  0  0
  162.0570  209.1830  151.0290 C   0  0  0  0  0  3  0  0  0  0  0  0
  162.3180  208.2910  149.9860 C   0  0  0  0  0  3  0  0  0  0  0  0
  161.1210  206.5760  151.1070 C   0  0  0  0  0  3  0  0  0  0  0  0
  160.8400  207.4380  152.1690 C   0  0  0  0  0  3  0  0  0  0  0  0
  162.5450  210.0710  156.5840 C   0  0  0  0  0  2  0  0  0  0  0  0
  163.4840  211.1030  156.6160 O   0  0  0  0  0  1  0  0  0  0  0  0
  159.8060  211.3640  157.2610 C   0  0  0  0  0  2  0  0  0  0  0  0
  160.3130  212.7240  156.8060 C   0  0  0  0  0  2  0  0  0  0  0  0
  159.3180  213.6790  157.0050 O   0  0  0  0  0  1  0  0  0  0  0  0
  1 13  1  0  0  0  0
  2 10  1  0  0  0  0
  2 14  1  0  0  0  0
  3 16  1  0  0  0  0
  4 12  1  0  0  0  0
  4 11  2  0  0  0  0
  6  2  2  0  0  0  0
  7  8  1  0  0  0  0
  9 14  2  0  0  0  0
  9  7  1  0  0  0  0
 10  1  2  0  0  0  0
 11  5  1  0  0  0  0
 11  7  1  0  0  0  0
 12  9  1  0  0  0  0
 13 16  1  0  0  0  0
 13 23  1  1  0  0  0
 14  3  1  0  0  0  0
 15  6  1  0  0  0  0
 15 12  2  0  0  0  0
 16 25  1  6  0  0  0
 17 21  1  0  0  0  0
 18 22  1  0  0  0  0
 18 10  1  0  0  0  0
 19 18  2  0  0  0  0
 20 17  2  0  0  0  0
 20 19  1  0  0  0  0
 21 22  2  0  0  0  0
 23 24  1  0  0  0  0
 26 27  1  0  0  0  0
 26 25  1  0  0  0  0
M  END
>  <MODEL>
4

>  <REMARK>
 VINA RESULT:      -5.8      3.946      8.690
  Name = 
  4 active torsions:
  status: ('A' for Active; 'I' for Inactive)
    1  A    between atoms: C_9  and  C_15
    2  A    between atoms: C_10  and  C_20
    3  A    between atoms: CA_18  and  C_22
    4  A    between atoms: C_20  and  C_26
                            x       y       z     vdW  Elec       q    Type
                         _______ _______ _______ _____ _____    ______ ____

>  <TORSDO>
F 4

$$$$
=
 OpenBabel11052423063D

 27 30  0  0  1  0  0  0  0  0999 V2000
  160.6740  203.3030  150.4100 N   0  0  0  0  0  0  0  0  0  0  0  0
  160.7780  205.1500  148.8400 C   0  0  0  0  0  0  0  0  0  0  0  0
  162.2230  203.2660  147.9420 C   0  0  0  0  0  2  0  0  0  0  0  0
  160.5490  206.6690  145.0490 N   0  0  0  0  0  0  0  0  0  0  0  0
  161.5920  205.7340  142.9790 C   0  0  0  0  0  1  0  0  0  0  0  0
  160.0720  206.3100  148.6440 N   0  0  0  0  0  0  0  0  0  0  0  0
  161.7490  204.7580  145.2880 N   0  0  0  0  0  0  0  0  0  0  0  0
  162.5850  203.6150  144.9530 C   0  0  0  0  0  1  0  0  0  0  0  0
  161.2630  205.1180  146.4890 C   0  0  0  0  0  0  0  0  0  0  0  0
  160.8750  204.5760  150.2080 C   0  0  0  0  0  0  0  0  0  0  0  0
  161.2980  205.7140  144.4410 C   0  0  0  0  0  0  0  0  0  0  0  0
  160.5460  206.2660  146.3330 C   0  0  0  0  0  0  0  0  0  0  0  0
  160.2620  202.3490  149.3790 C   0  0  1  0  0  3  0  0  0  0  0  0
  161.4060  204.5090  147.7430 C   0  0  0  0  0  0  0  0  0  0  0  0
  159.9370  206.8870  147.4150 C   0  0  0  0  0  3  0  0  0  0  0  0
  161.3830  202.0530  148.3620 C   0  0  1  0  0  3  0  0  0  0  0  0
  161.8340  207.0760  153.5200 N   0  0  0  0  0  0  0  0  0  0  0  0
  161.2160  205.4390  151.3650 C   0  0  0  0  0  0  0  0  0  0  0  0
  161.1170  204.9590  152.6790 C   0  0  0  0  0  3  0  0  0  0  0  0
  161.4340  205.7970  153.7500 C   0  0  0  0  0  3  0  0  0  0  0  0
  161.9360  207.5720  152.2580 C   0  0  0  0  0  3  0  0  0  0  0  0
  161.6280  206.7640  151.1610 C   0  0  0  0  0  3  0  0  0  0  0  0
  159.7630  201.0670  150.0360 C   0  0  0  0  0  2  0  0  0  0  0  0
  158.4460  200.7990  149.6580 O   0  0  0  0  0  1  0  0  0  0  0  0
  160.8770  201.2700  147.1470 C   0  0  0  0  0  2  0  0  0  0  0  0
  161.5180  199.8950  147.0320 C   0  0  0  0  0  2  0  0  0  0  0  0
  161.1640  199.3190  145.8130 O   0  0  0  0  0  1  0  0  0  0  0  0
  2 10  1  0  0  0  0
  3 16  1  0  0  0  0
  4 12  1  0  0  0  0
  5 11  1  0  0  0  0
  6  2  1  0  0  0  0
  7  9  1  0  0  0  0
  8  7  1  0  0  0  0
  9 14  1  0  0  0  0
 10  1  2  0  0  0  0
 10 18  1  0  0  0  0
 11  4  2  0  0  0  0
 11  7  1  0  0  0  0
 12  9  2  0  0  0  0
 12 15  1  0  0  0  0
 13 23  1  1  0  0  0
 13  1  1  0  0  0  0
 14  3  1  0  0  0  0
 14  2  2  0  0  0  0
 15  6  2  0  0  0  0
 16 25  1  6  0  0  0
 16 13  1  0  0  0  0
 17 20  1  0  0  0  0
 18 19  1  0  0  0  0
 19 20  2  0  0  0  0
 21 17  2  0  0  0  0
 22 18  2  0  0  0  0
 22 21  1  0  0  0  0
 24 23  1  0  0  0  0
 26 25  1  0  0  0  0
 27 26  1  0  0  0  0
M  END
>  <MODEL>
5

>  <REMARK>
 VINA RESULT:      -5.0      3.208      5.784
  Name = 
  4 active torsions:
  status: ('A' for Active; 'I' for Inactive)
    1  A    between atoms: C_9  and  C_15
    2  A    between atoms: C_10  and  C_20
    3  A    between atoms: CA_18  and  C_22
    4  A    between atoms: C_20  and  C_26
                            x       y       z     vdW  Elec       q    Type
                         _______ _______ _______ _____ _____    ______ ____

>  <TORSDO>
F 4

$$$$
=
 OpenBabel11052423063D

 27 30  0  0  1  0  0  0  0  0999 V2000
  161.4190  204.0130  149.2200 N   0  0  0  0  0  0  0  0  0  0  0  0
  161.7410  206.4100  149.0270 C   0  0  0  0  0  0  0  0  0  0  0  0
  160.0560  205.9840  150.8770 C   0  0  0  0  0  2  0  0  0  0  0  0
  162.4830  210.0860  150.6630 N   0  0  0  0  0  0  0  0  0  0  0  0
  161.4360  211.0710  152.7070 C   0  0  0  0  0  1  0  0  0  0  0  0
  162.6490  207.2300  148.4050 N   0  0  0  0  0  0  0  0  0  0  0  0
  160.9580  208.8000  151.7450 N   0  0  0  0  0  0  0  0  0  0  0  0
  159.9610  208.3880  152.7230 C   0  0  0  0  0  1  0  0  0  0  0  0
  161.4170  208.1220  150.6790 C   0  0  0  0  0  0  0  0  0  0  0  0
  161.4550  205.0680  148.4540 C   0  0  0  0  0  0  0  0  0  0  0  0
  161.6230  209.9800  151.7080 C   0  0  0  0  0  0  0  0  0  0  0  0
  162.3310  208.9040  150.0370 C   0  0  0  0  0  0  0  0  0  0  0  0
  161.7280  204.0080  150.6510 C   0  0  1  0  0  3  0  0  0  0  0  0
  161.0870  206.8450  150.2070 C   0  0  0  0  0  0  0  0  0  0  0  0
  162.9640  208.4700  148.8800 C   0  0  0  0  0  3  0  0  0  0  0  0
  160.6430  204.7090  151.4950 C   0  0  1  0  0  3  0  0  0  0  0  0
  160.7160  204.6380  144.2820 N   0  0  0  0  0  0  0  0  0  0  0  0
  161.1910  204.9100  147.0030 C   0  0  0  0  0  0  0  0  0  0  0  0
  161.4520  203.6970  146.3490 C   0  0  0  0  0  3  0  0  0  0  0  0
  161.2050  203.5790  144.9800 C   0  0  0  0  0  3  0  0  0  0  0  0
  160.4570  205.8290  144.8860 C   0  0  0  0  0  3  0  0  0  0  0  0
  160.6910  205.9850  146.2540 C   0  0  0  0  0  3  0  0  0  0  0  0
  161.9530  202.5770  151.1230 C   0  0  0  0  0  2  0  0  0  0  0  0
  161.0460  201.7080  150.5120 O   0  0  0  0  0  1  0  0  0  0  0  0
  161.0870  204.9360  152.9430 C   0  0  0  0  0  2  0  0  0  0  0  0
  162.3320  205.8040  153.0410 C   0  0  0  0  0  2  0  0  0  0  0  0
  162.2090  206.6690  154.1270 O   0  0  0  0  0  1  0  0  0  0  0  0
  1 13  1  0  0  0  0
  2 14  1  0  0  0  0
  3 16  1  0  0  0  0
  4 11  2  0  0  0  0
  6 15  1  0  0  0  0
  6  2  2  0  0  0  0
  7  8  1  0  0  0  0
  9  7  1  0  0  0  0
 10  2  1  0  0  0  0
 10  1  2  0  0  0  0
 11  7  1  0  0  0  0
 11  5  1  0  0  0  0
 12  4  1  0  0  0  0
 12  9  1  0  0  0  0
 13 23  1  1  0  0  0
 13 16  1  0  0  0  0
 14  9  2  0  0  0  0
 14  3  1  0  0  0  0
 15 12  2  0  0  0  0
 16 25  1  1  0  0  0
 17 21  2  0  0  0  0
 17 20  1  0  0  0  0
 18 10  1  0  0  0  0
 19 18  1  0  0  0  0
 20 19  2  0  0  0  0
 21 22  1  0  0  0  0
 22 18  2  0  0  0  0
 24 23  1  0  0  0  0
 25 26  1  0  0  0  0
 26 27  1  0  0  0  0
M  END
>  <MODEL>
6

>  <REMARK>
 VINA RESULT:      -4.3      2.537      7.087
  Name = 
  4 active torsions:
  status: ('A' for Active; 'I' for Inactive)
    1  A    between atoms: C_9  and  C_15
    2  A    between atoms: C_10  and  C_20
    3  A    between atoms: CA_18  and  C_22
    4  A    between atoms: C_20  and  C_26
                            x       y       z     vdW  Elec       q    Type
                         _______ _______ _______ _____ _____    ______ ____

>  <TORSDO>
F 4

$$$$
=
 OpenBabel11052423063D

 27 30  0  0  1  0  0  0  0  0999 V2000
  160.7360  204.0600  146.3260 N   0  0  0  0  0  0  0  0  0  0  0  0
  160.7730  203.4380  148.6710 C   0  0  0  0  0  0  0  0  0  0  0  0
  162.4590  205.3030  148.3210 C   0  0  0  0  0  2  0  0  0  0  0  0
  160.6740  204.3880  152.6490 N   0  0  0  0  0  0  0  0  0  0  0  0
  161.9540  206.1970  153.8040 C   0  0  0  0  0  1  0  0  0  0  0  0
  159.9710  202.6930  149.5000 N   0  0  0  0  0  0  0  0  0  0  0  0
  162.0360  205.6580  151.3520 N   0  0  0  0  0  0  0  0  0  0  0  0
  163.0040  206.6750  150.9690 C   0  0  0  0  0  1  0  0  0  0  0  0
  161.4300  204.7420  150.5770 C   0  0  0  0  0  0  0  0  0  0  0  0
  160.8250  203.1150  147.2210 C   0  0  0  0  0  0  0  0  0  0  0  0
  161.5570  205.4180  152.5970 C   0  0  0  0  0  0  0  0  0  0  0  0
  160.6160  203.9860  151.3660 C   0  0  0  0  0  0  0  0  0  0  0  0
  160.4980  205.4730  146.6250 C   0  0  1  0  0  3  0  0  0  0  0  0
  161.5400  204.5060  149.2000 C   0  0  0  0  0  0  0  0  0  0  0  0
  159.8710  202.9400  150.8380 C   0  0  0  0  0  3  0  0  0  0  0  0
  161.7150  206.1540  147.2840 C   0  0  1  0  0  3  0  0  0  0  0  0
  161.2940  199.0790  145.9450 N   0  0  0  0  0  0  0  0  0  0  0  0
  160.9930  201.7130  146.7670 C   0  0  0  0  0  0  0  0  0  0  0  0
  160.4570  201.2790  145.5460 C   0  0  0  0  0  3  0  0  0  0  0  0
  160.6200  199.9500  145.1490 C   0  0  0  0  0  3  0  0  0  0  0  0
  161.8220  199.4680  147.1370 C   0  0  0  0  0  3  0  0  0  0  0  0
  161.6790  200.7880  147.5680 C   0  0  0  0  0  3  0  0  0  0  0  0
  160.0810  206.2030  145.3530 C   0  0  0  0  0  2  0  0  0  0  0  0
  160.8950  205.8300  144.2810 O   0  0  0  0  0  1  0  0  0  0  0  0
  161.3800  207.5440  147.8320 C   0  0  0  0  0  2  0  0  0  0  0  0
  162.6190  208.3150  148.2610 C   0  0  0  0  0  2  0  0  0  0  0  0
  162.2440  209.5770  148.7210 O   0  0  0  0  0  1  0  0  0  0  0  0
  1 13  1  0  0  0  0
  1 10  2  0  0  0  0
  2 14  2  0  0  0  0
  2  6  1  0  0  0  0
  3 14  1  0  0  0  0
  6 15  2  0  0  0  0
  7 11  1  0  0  0  0
  8  7  1  0  0  0  0
  9  7  1  0  0  0  0
  9 12  2  0  0  0  0
 10  2  1  0  0  0  0
 11  4  2  0  0  0  0
 11  5  1  0  0  0  0
 12  4  1  0  0  0  0
 13 23  1  6  0  0  0
 13 16  1  0  0  0  0
 14  9  1  0  0  0  0
 15 12  1  0  0  0  0
 16 25  1  1  0  0  0
 16  3  1  0  0  0  0
 17 21  1  0  0  0  0
 18 10  1  0  0  0  0
 18 22  1  0  0  0  0
 19 18  2  0  0  0  0
 20 19  1  0  0  0  0
 20 17  2  0  0  0  0
 21 22  2  0  0  0  0
 24 23  1  0  0  0  0
 25 26  1  0  0  0  0
 26 27  1  0  0  0  0
M  END
>  <MODEL>
7

>  <REMARK>
 VINA RESULT:      -4.2      2.562      6.811
  Name = 
  4 active torsions:
  status: ('A' for Active; 'I' for Inactive)
    1  A    between atoms: C_9  and  C_15
    2  A    between atoms: C_10  and  C_20
    3  A    between atoms: CA_18  and  C_22
    4  A    between atoms: C_20  and  C_26
                            x       y       z     vdW  Elec       q    Type
                         _______ _______ _______ _____ _____    ______ ____

>  <TORSDO>
F 4

$$$$
=
 OpenBabel11052423063D

 27 30  0  0  1  0  0  0  0  0999 V2000
  161.1810  208.5640  152.6200 N   0  0  0  0  0  0  0  0  0  0  0  0
  160.5050  210.8410  152.1210 C   0  0  0  0  0  0  0  0  0  0  0  0
  162.5310  210.2870  150.6960 C   0  0  0  0  0  2  0  0  0  0  0  0
  159.5660  213.8210  149.4810 N   0  0  0  0  0  0  0  0  0  0  0  0
  160.8120  214.4530  147.4080 C   0  0  0  0  0  1  0  0  0  0  0  0
  159.3990  211.6130  152.3750 N   0  0  0  0  0  0  0  0  0  0  0  0
  161.4190  212.6040  148.9960 N   0  0  0  0  0  0  0  0  0  0  0  0
  162.6190  212.1510  148.3070 C   0  0  0  0  0  1  0  0  0  0  0  0
  160.8770  212.1330  150.1330 C   0  0  0  0  0  0  0  0  0  0  0  0
  160.8670  209.7500  153.0650 C   0  0  0  0  0  0  0  0  0  0  0  0
  160.6030  213.6210  148.6270 C   0  0  0  0  0  0  0  0  0  0  0  0
  159.7670  212.8720  150.4140 C   0  0  0  0  0  0  0  0  0  0  0  0
  161.1310  208.1600  151.2140 C   0  0  1  0  0  3  0  0  0  0  0  0
  161.2910  211.0870  150.9670 C   0  0  0  0  0  0  0  0  0  0  0  0
  159.0060  212.6250  151.5480 C   0  0  0  0  0  3  0  0  0  0  0  0
  162.2410  208.8170  150.3670 C   0  0  1  0  0  3  0  0  0  0  0  0
  160.9650  210.4700  157.2610 N   0  0  0  0  0  0  0  0  0  0  0  0
  160.8910  209.9950  154.5270 C   0  0  0  0  0  0  0  0  0  0  0  0
  159.8340  210.6590  155.1660 C   0  0  0  0  0  3  0  0  0  0  0  0
  159.8890  210.8870  156.5430 C   0  0  0  0  0  3  0  0  0  0  0  0
  162.0080  209.8280  156.6690 C   0  0  0  0  0  3  0  0  0  0  0  0
  161.9890  209.5810  155.2950 C   0  0  0  0  0  3  0  0  0  0  0  0
  161.1910  206.6400  151.1150 C   0  0  0  0  0  2  0  0  0  0  0  0
  160.6660  206.0500  152.2660 O   0  0  0  0  0  1  0  0  0  0  0  0
  162.0320  208.6050  148.8650 C   0  0  0  0  0  2  0  0  0  0  0  0
  161.1570  207.3980  148.5640 C   0  0  0  0  0  2  0  0  0  0  0  0
  161.5690  206.8140  147.3670 O   0  0  0  0  0  1  0  0  0  0  0  0
  1 10  2  0  0  0  0
  2  6  1  0  0  0  0
  2 10  1  0  0  0  0
  3 14  1  0  0  0  0
  4 12  1  0  0  0  0
  5 11  1  0  0  0  0
  7  9  1  0  0  0  0
  8  7  1  0  0  0  0
  9 12  2  0  0  0  0
  9 14  1  0  0  0  0
 10 18  1  0  0  0  0
 11  7  1  0  0  0  0
 11  4  2  0  0  0  0
 12 15  1  0  0  0  0
 13 23  1  1  0  0  0
 13  1  1  0  0  0  0
 14  2  2  0  0  0  0
 15  6  2  0  0  0  0
 16 25  1  6  0  0  0
 16  3  1  0  0  0  0
 16 13  1  0  0  0  0
 18 19  2  0  0  0  0
 18 22  1  0  0  0  0
 19 20  1  0  0  0  0
 20 17  2  0  0  0  0
 21 17  1  0  0  0  0
 22 21  2  0  0  0  0
 23 24  1  0  0  0  0
 26 25  1  0  0  0  0
 27 26  1  0  0  0  0
M  END
>  <MODEL>
8

>  <REMARK>
 VINA RESULT:      -4.1      2.925      6.302
  Name = 
  4 active torsions:
  status: ('A' for Active; 'I' for Inactive)
    1  A    between atoms: C_9  and  C_15
    2  A    between atoms: C_10  and  C_20
    3  A    between atoms: CA_18  and  C_22
    4  A    between atoms: C_20  and  C_26
                            x       y       z     vdW  Elec       q    Type
                         _______ _______ _______ _____ _____    ______ ____

>  <TORSDO>
F 4

$$$$
=
 OpenBabel11052423063D

 27 30  0  0  1  0  0  0  0  0999 V2000
  161.1650  201.8860  149.3490 N   0  0  0  0  0  0  0  0  0  0  0  0
  161.6310  203.9100  148.0940 C   0  0  0  0  0  0  0  0  0  0  0  0
  160.0800  204.5080  150.0130 C   0  0  0  0  0  2  0  0  0  0  0  0
  162.7530  207.8390  147.8860 N   0  0  0  0  0  0  0  0  0  0  0  0
  161.9470  209.7200  149.3210 C   0  0  0  0  0  1  0  0  0  0  0  0
  162.5380  204.2790  147.1320 N   0  0  0  0  0  0  0  0  0  0  0  0
  161.2390  207.3150  149.4940 N   0  0  0  0  0  0  0  0  0  0  0  0
  160.3010  207.4750  150.5950 C   0  0  0  0  0  1  0  0  0  0  0  0
  161.5620  206.1970  148.8220 C   0  0  0  0  0  0  0  0  0  0  0  0
  161.2090  202.4880  148.1920 C   0  0  0  0  0  0  0  0  0  0  0  0
  161.9770  208.2880  148.9050 C   0  0  0  0  0  0  0  0  0  0  0  0
  162.4700  206.5230  147.8590 C   0  0  0  0  0  0  0  0  0  0  0  0
  161.5910  202.4820  150.6170 C   0  0  1  0  0  3  0  0  0  0  0  0
  161.1080  204.8810  148.9840 C   0  0  0  0  0  0  0  0  0  0  0  0
  162.9740  205.5650  146.9910 C   0  0  0  0  0  3  0  0  0  0  0  0
  160.6290  203.5840  151.1070 C   0  0  1  0  0  3  0  0  0  0  0  0
  160.0930  200.3440  144.6860 N   0  0  0  0  0  0  0  0  0  0  0  0
  160.8160  201.7330  146.9770 C   0  0  0  0  0  0  0  0  0  0  0  0
  161.2030  200.3970  146.8000 C   0  0  0  0  0  3  0  0  0  0  0  0
  160.8280  199.7140  145.6400 C   0  0  0  0  0  3  0  0  0  0  0  0
  159.7060  201.6400  144.8270 C   0  0  0  0  0  3  0  0  0  0  0  0
  160.0610  202.3550  145.9720 C   0  0  0  0  0  3  0  0  0  0  0  0
  161.7560  201.3900  151.6670 C   0  0  0  0  0  2  0  0  0  0  0  0
  163.0790  201.3290  152.1110 O   0  0  0  0  0  1  0  0  0  0  0  0
  161.2060  204.3810  152.2810 C   0  0  0  0  0  2  0  0  0  0  0  0
  162.6160  204.8810  152.0080 C   0  0  0  0  0  2  0  0  0  0  0  0
  162.7140  206.2190  152.3860 O   0  0  0  0  0  1  0  0  0  0  0  0
  1 13  1  0  0  0  0
  2 10  1  0  0  0  0
  2 14  1  0  0  0  0
  3 16  1  0  0  0  0
  4 11  2  0  0  0  0
  6  2  2  0  0  0  0
  7  8  1  0  0  0  0
  9 14  2  0  0  0  0
  9  7  1  0  0  0  0
 10  1  2  0  0  0  0
 11  5  1  0  0  0  0
 11  7  1  0  0  0  0
 12  4  1  0  0  0  0
 12  9  1  0  0  0  0
 13 16  1  0  0  0  0
 13 23  1  1  0  0  0
 14  3  1  0  0  0  0
 15  6  1  0  0  0  0
 15 12  2  0  0  0  0
 16 25  1  1  0  0  0
 17 21  2  0  0  0  0
 17 20  1  0  0  0  0
 18 10  1  0  0  0  0
 19 18  1  0  0  0  0
 20 19  2  0  0  0  0
 21 22  1  0  0  0  0
 22 18  2  0  0  0  0
 23 24  1  0  0  0  0
 26 25  1  0  0  0  0
 26 27  1  0  0  0  0
M  END
>  <MODEL>
9

>  <REMARK>
 VINA RESULT:      -3.9      3.048      7.773
  Name = 
  4 active torsions:
  status: ('A' for Active; 'I' for Inactive)
    1  A    between atoms: C_9  and  C_15
    2  A    between atoms: C_10  and  C_20
    3  A    between atoms: CA_18  and  C_22
    4  A    between atoms: C_20  and  C_26
                            x       y       z     vdW  Elec       q    Type
                         _______ _______ _______ _____ _____    ______ ____

>  <TORSDO>
F 4

$$$$
