=
 OpenBabel11052423093D

 27 32  0  0  1  0  0  0  0  0999 V2000
  158.1210  213.5740  154.7150 C   0  0  2  0  0  0  0  0  0  0  0  0
  160.5870  212.5360  152.0060 S   0  0  0  0  0  0  0  0  0  0  0  0
  156.9970  213.7390  152.4520 N   0  0  0  0  0  2  0  0  0  0  0  0
  159.1200  214.4530  147.6330 C   0  0  0  0  0  2  0  0  0  0  0  0
  157.6080  214.2370  145.7520 O   0  0  0  0  0  0  0  0  0  0  0  0
  159.2290  213.6180  151.4420 C   0  0  2  0  0  3  0  0  0  0  0  0
  160.7210  209.1830  153.2100 C   0  0  0  0  0  3  0  0  0  0  0  0
  157.0840  212.7250  150.1930 C   0  0  0  0  0  2  0  0  0  0  0  0
  159.9940  211.9390  153.6730 C   0  0  2  0  0  0  0  0  0  0  0  0
  155.5810  211.2350  154.6340 C   0  0  0  0  0  1  0  0  0  0  0  0
  158.9230  210.8360  153.4970 C   0  0  0  0  0  2  0  0  0  0  0  0
  156.8390  213.6460  147.8930 N   0  0  0  0  0  2  0  0  0  0  0  0
  155.3060  213.5850  155.4610 C   0  0  0  0  0  2  0  0  0  0  0  0
  157.8190  212.9810  151.5240 C   0  0  2  0  0  3  0  0  0  0  0  0
  159.5590  213.0210  154.7210 C   0  0  1  0  0  3  0  0  0  0  0  0
  157.8240  214.1200  146.9860 C   0  0  0  0  0  0  0  0  0  0  0  0
  158.9180  213.7750  148.9760 C   0  0  2  0  0  3  0  0  0  0  0  0
  159.2580  214.3960  154.1440 C   0  0  0  0  0  2  0  0  0  0  0  0
  157.4270  213.8160  149.2050 C   0  0  2  0  0  3  0  0  0  0  0  0
  155.6880  212.7050  154.2720 C   0  0  1  0  0  3  0  0  0  0  0  0
  159.5900  214.4100  150.1710 C   0  0  0  0  0  2  0  0  0  0  0  0
  156.3800  213.5290  156.5380 C   0  0  0  0  0  2  0  0  0  0  0  0
  159.4830  209.5710  152.9020 C   0  0  0  0  0  3  0  0  0  0  0  0
  157.6450  214.1960  156.0250 C   0  0  0  0  0  2  0  0  0  0  0  0
  161.5660  210.0370  154.0610 C   0  0  0  0  0  3  0  0  0  0  0  0
  157.0800  213.0100  153.7090 C   0  0  2  0  0  3  0  0  0  0  0  0
  161.2110  211.3030  154.3100 C   0  0  0  0  0  3  0  0  0  0  0  0
  1 18  1  6  0  0  0
  1 15  1  0  0  0  0
  1 24  1  0  0  0  0
  2  9  1  0  0  0  0
  5 16  2  0  0  0  0
  6 21  1  6  0  0  0
  6 14  1  0  0  0  0
  6  2  1  0  0  0  0
  7 25  1  0  0  0  0
  9 11  1  6  0  0  0
  9 27  1  0  0  0  0
  9 15  1  0  0  0  0
 12 19  1  0  0  0  0
 13 22  1  0  0  0  0
 14  8  1  6  0  0  0
 14  3  1  0  0  0  0
 15 18  1  6  0  0  0
 16  4  1  0  0  0  0
 16 12  1  0  0  0  0
 17  4  1  6  0  0  0
 17 19  1  0  0  0  0
 17 21  1  0  0  0  0
 19  8  1  1  0  0  0
 20 10  1  1  0  0  0
 20 13  1  0  0  0  0
 23  7  2  0  0  0  0
 23 11  1  0  0  0  0
 24 22  1  0  0  0  0
 25 27  2  0  0  0  0
 26  3  1  6  0  0  0
 26 20  1  0  0  0  0
 26  1  1  0  0  0  0
M  END
>  <MODEL>
1

>  <REMARK>
 VINA RESULT:      -1.7      0.000      0.000
  Name = 
  0 active torsions:
  status: ('A' for Active; 'I' for Inactive)
                            x       y       z     vdW  Elec       q    Type
                         _______ _______ _______ _____ _____    ______ ____

>  <TORSDO>
F 0

$$$$
=
 OpenBabel11052423093D

 27 32  0  0  1  0  0  0  0  0999 V2000
  161.5080  209.6730  155.5020 C   0  0  2  0  0  0  0  0  0  0  0  0
  160.7220  211.8950  152.5120 S   0  0  0  0  0  0  0  0  0  0  0  0
  159.0480  210.2680  155.5260 N   0  0  0  0  0  2  0  0  0  0  0  0
  156.5290  214.4500  153.4290 C   0  0  0  0  0  2  0  0  0  0  0  0
  154.1070  214.3820  153.4830 O   0  0  0  0  0  0  0  0  0  0  0  0
  159.5600  212.0430  153.9130 C   0  0  2  0  0  3  0  0  0  0  0  0
  161.4630  209.2890  150.1960 C   0  0  0  0  0  3  0  0  0  0  0  0
  157.2050  210.8550  153.9780 C   0  0  0  0  0  2  0  0  0  0  0  0
  161.6450  210.3170  152.8880 C   0  0  2  0  0  0  0  0  0  0  0  0
  159.7220  206.7580  155.0150 C   0  0  0  0  0  1  0  0  0  0  0  0
  160.7690  209.0890  152.5470 C   0  0  0  0  0  2  0  0  0  0  0  0
  155.3060  212.4590  154.1080 N   0  0  0  0  0  2  0  0  0  0  0  0
  160.4290  207.6180  157.2610 C   0  0  0  0  0  2  0  0  0  0  0  0
  158.7280  210.7670  154.1990 C   0  0  2  0  0  3  0  0  0  0  0  0
  162.3210  210.1860  154.2980 C   0  0  1  0  0  3  0  0  0  0  0  0
  155.2100  213.8040  153.6630 C   0  0  0  0  0  0  0  0  0  0  0  0
  157.4190  213.2220  153.4290 C   0  0  2  0  0  3  0  0  0  0  0  0
  161.8030  211.1510  155.3540 C   0  0  0  0  0  2  0  0  0  0  0  0
  156.7180  212.2410  154.3360 C   0  0  2  0  0  3  0  0  0  0  0  0
  159.6280  207.9140  155.9940 C   0  0  1  0  0  3  0  0  0  0  0  0
  158.8300  213.4000  153.9380 C   0  0  0  0  0  2  0  0  0  0  0  0
  161.9230  207.6700  156.9770 C   0  0  0  0  0  2  0  0  0  0  0  0
  160.5140  208.9480  151.0690 C   0  0  0  0  0  3  0  0  0  0  0  0
  162.3270  209.1000  156.6570 C   0  0  0  0  0  2  0  0  0  0  0  0
  162.7210  209.8820  150.6760 C   0  0  0  0  0  3  0  0  0  0  0  0
  160.0350  209.2220  155.3060 C   0  0  2  0  0  3  0  0  0  0  0  0
  162.8210  210.3230  151.9350 C   0  0  0  0  0  3  0  0  0  0  0  0
  1 18  1  1  0  0  0
  1 24  1  0  0  0  0
  2  9  1  0  0  0  0
  2  6  1  0  0  0  0
  4 16  1  0  0  0  0
  5 16  2  0  0  0  0
  6 21  1  6  0  0  0
  6 14  1  0  0  0  0
  7 25  1  0  0  0  0
  7 23  2  0  0  0  0
  9 27  1  6  0  0  0
  9 15  1  0  0  0  0
 11  9  1  0  0  0  0
 12 19  1  0  0  0  0
 14  8  1  1  0  0  0
 14  3  1  0  0  0  0
 15 18  1  1  0  0  0
 15  1  1  0  0  0  0
 16 12  1  0  0  0  0
 17  4  1  1  0  0  0
 17 21  1  0  0  0  0
 17 19  1  0  0  0  0
 19  8  1  6  0  0  0
 20 10  1  6  0  0  0
 20 13  1  0  0  0  0
 22 13  1  0  0  0  0
 23 11  1  0  0  0  0
 24 22  1  0  0  0  0
 25 27  2  0  0  0  0
 26  1  1  0  0  0  0
 26  3  1  1  0  0  0
 26 20  1  0  0  0  0
M  END
>  <MODEL>
2

>  <REMARK>
 VINA RESULT:      -1.3      3.386      5.214
  Name = 
  0 active torsions:
  status: ('A' for Active; 'I' for Inactive)
                            x       y       z     vdW  Elec       q    Type
                         _______ _______ _______ _____ _____    ______ ____

>  <TORSDO>
F 0

$$$$
