=
 OpenBabel11052422123D

 25 28  0  0  1  0  0  0  0  0999 V2000
  161.1030  204.9850  148.9690 C   0  0  0  0  0  0  0  0  0  0  0  0
  160.9410  205.9700  149.8530 C   0  0  0  0  0  0  0  0  0  0  0  0
  161.9600  206.5550  147.1850 C   0  0  0  0  0  3  0  0  0  0  0  0
  161.0000  203.5430  149.0640 C   0  0  0  0  0  0  0  0  0  0  0  0
  161.6920  206.3490  152.1850 C   0  0  2  0  0  0  0  0  0  0  0  0
  161.2310  200.7610  148.7610 C   0  0  0  0  0  3  0  0  0  0  0  0
  161.7740  207.5780  148.0340 C   0  0  0  0  0  3  0  0  0  0  0  0
  161.3520  203.0750  147.8710 C   0  0  0  0  0  0  0  0  0  0  0  0
  161.2440  201.6220  147.5150 C   0  0  0  0  0  2  0  0  0  0  0  0
  161.7660  208.2440  150.4660 C   0  0  0  0  0  0  0  0  0  0  0  0
  162.1120  209.4290  150.2110 O   0  0  0  0  0  0  0  0  0  0  0  0
  160.6260  205.7020  151.2900 C   0  0  0  0  0  2  0  0  0  0  0  0
  160.8620  201.2460  149.9640 C   0  0  0  0  0  3  0  0  0  0  0  0
  161.5710  205.2160  147.6250 C   0  0  0  0  0  0  0  0  0  0  0  0
  161.7340  204.1160  146.9620 N   0  0  0  0  0  0  0  0  0  0  0  0
  161.9000  207.7490  151.8060 N   0  0  0  0  0  2  0  0  0  0  0  0
  160.4330  202.6840  150.1550 C   0  0  0  0  0  2  0  0  0  0  0  0
  163.0150  205.6040  152.0440 C   0  0  0  0  0  1  0  0  0  0  0  0
  161.1090  207.4100  149.3990 C   0  0  2  0  0  3  0  0  0  0  0  0
  161.2370  206.3130  153.6440 C   0  0  0  0  0  2  0  0  0  0  0  0
  160.8010  207.6760  154.1670 C   0  0  0  0  0  2  0  0  0  0  0  0
  161.8180  209.1940  155.8980 C   0  0  0  0  0  0  0  0  0  0  0  0
  162.4080  209.3670  157.2520 C   0  0  0  0  0  1  0  0  0  0  0  0
  161.7070  210.1890  155.1350 O   0  0  0  0  0  0  0  0  0  0  0  0
  161.3840  207.9010  155.4790 N   0  0  0  0  0  2  0  0  0  0  0  0
  1  4  1  0  0  0  0
  1  2  2  0  0  0  0
  2 12  1  0  0  0  0
  3 14  1  0  0  0  0
  3  7  2  0  0  0  0
  4 17  1  0  0  0  0
  5 18  1  6  0  0  0
  5 20  1  0  0  0  0
  6 13  2  0  0  0  0
  8  4  2  0  0  0  0
  9  8  1  0  0  0  0
  9  6  1  0  0  0  0
 10 16  1  0  0  0  0
 11 10  2  0  0  0  0
 12  5  1  0  0  0  0
 13 17  1  0  0  0  0
 14  1  1  0  0  0  0
 15 14  2  0  0  0  0
 15  8  1  0  0  0  0
 16  5  1  0  0  0  0
 19  7  1  6  0  0  0
 19  2  1  0  0  0  0
 19 10  1  0  0  0  0
 20 21  1  0  0  0  0
 21 25  1  0  0  0  0
 22 23  1  0  0  0  0
 24 22  2  0  0  0  0
 25 22  1  0  0  0  0
M  END
>  <MODEL>
1

>  <REMARK>
 VINA RESULT:     -10.2      0.000      0.000
  Name = 
  3 active torsions:
  status: ('A' for Active; 'I' for Inactive)
    1  A    between atoms: C_6  and  C_15
    2  A    between atoms: C_15  and  C_25
    3  A    between atoms: N_21  and  C_25
                            x       y       z     vdW  Elec       q    Type
                         _______ _______ _______ _____ _____    ______ ____

>  <TORSDO>
F 3

$$$$
=
 OpenBabel11052422123D

 25 28  0  0  1  0  0  0  0  0999 V2000
  161.1090  204.9100  148.6460 C   0  0  0  0  0  0  0  0  0  0  0  0
  160.9480  206.0850  149.2570 C   0  0  0  0  0  0  0  0  0  0  0  0
  162.0830  205.9780  146.5740 C   0  0  0  0  0  3  0  0  0  0  0  0
  160.9540  203.5380  149.0830 C   0  0  2  0  0  3  0  0  0  0  0  0
  161.6240  207.0030  151.4580 C   0  0  2  0  0  0  0  0  0  0  0  0
  161.1040  200.7620  149.4740 C   0  0  0  0  0  3  0  0  0  0  0  0
  161.9000  207.1800  147.1400 C   0  0  0  0  0  3  0  0  0  0  0  0
  161.3350  202.7850  148.0560 C   0  0  0  0  0  0  0  0  0  0  0  0
  161.1920  201.2920  148.0590 C   0  0  0  0  0  2  0  0  0  0  0  0
  161.8250  208.4200  149.3350 C   0  0  0  0  0  0  0  0  0  0  0  0
  162.2190  209.4980  148.8160 O   0  0  0  0  0  0  0  0  0  0  0  0
  160.5710  206.1820  150.7000 C   0  0  0  0  0  2  0  0  0  0  0  0
  160.7070  201.5330  150.5060 C   0  0  0  0  0  3  0  0  0  0  0  0
  161.6340  204.7960  147.3080 C   0  0  0  0  0  0  0  0  0  0  0  0
  161.7850  203.5640  146.9390 N   0  0  0  0  0  0  0  0  0  0  0  0
  161.8920  208.2620  150.7600 N   0  0  0  0  0  2  0  0  0  0  0  0
  160.3190  202.9840  150.3230 C   0  0  0  0  0  2  0  0  0  0  0  0
  162.9250  206.2150  151.5600 C   0  0  0  0  0  1  0  0  0  0  0  0
  161.1800  207.3670  148.4750 C   0  0  0  0  0  0  0  0  0  0  0  0
  161.1140  207.3340  152.8600 C   0  0  0  0  0  2  0  0  0  0  0  0
  161.4450  208.7560  153.2950 C   0  0  0  0  0  2  0  0  0  0  0  0
  159.9210  210.6970  152.7970 C   0  0  0  0  0  0  0  0  0  0  0  0
  158.6450  211.4140  153.0570 C   0  0  0  0  0  1  0  0  0  0  0  0
  160.7320  211.1560  151.9500 O   0  0  0  0  0  0  0  0  0  0  0  0
  160.2130  209.4960  153.5110 N   0  0  0  0  0  2  0  0  0  0  0  0
  1  4  1  0  0  0  0
  1  2  1  0  0  0  0
  2 12  1  0  0  0  0
  3  7  2  0  0  0  0
  3 14  1  0  0  0  0
  4 17  1  6  0  0  0
  5 18  1  1  0  0  0
  5 20  1  0  0  0  0
  6 13  2  0  0  0  0
  7 19  1  0  0  0  0
  8  9  1  0  0  0  0
  8  4  1  0  0  0  0
  9  6  1  0  0  0  0
 10 16  1  0  0  0  0
 11 10  2  0  0  0  0
 12  5  1  0  0  0  0
 14  1  2  0  0  0  0
 15 14  1  0  0  0  0
 15  8  2  0  0  0  0
 16  5  1  0  0  0  0
 17 13  1  0  0  0  0
 19  2  2  0  0  0  0
 19 10  1  0  0  0  0
 20 21  1  0  0  0  0
 21 25  1  0  0  0  0
 22 23  1  0  0  0  0
 22 25  1  0  0  0  0
 24 22  2  0  0  0  0
M  END
>  <MODEL>
2

>  <REMARK>
 VINA RESULT:      -9.7      1.581      1.868
  Name = 
  3 active torsions:
  status: ('A' for Active; 'I' for Inactive)
    1  A    between atoms: C_6  and  C_15
    2  A    between atoms: C_15  and  C_25
    3  A    between atoms: N_21  and  C_25
                            x       y       z     vdW  Elec       q    Type
                         _______ _______ _______ _____ _____    ______ ____

>  <TORSDO>
F 3

$$$$
=
 OpenBabel11052422123D

 25 28  0  0  1  0  0  0  0  0999 V2000
  161.3980  203.4200  149.2020 C   0  0  0  0  0  0  0  0  0  0  0  0
  161.7670  204.4100  150.0160 C   0  0  0  0  0  0  0  0  0  0  0  0
  160.6080  201.9710  151.1140 C   0  0  0  0  0  3  0  0  0  0  0  0
  161.3140  203.3040  147.7600 C   0  0  0  0  0  0  0  0  0  0  0  0
  161.2800  206.8380  150.1280 C   0  0  2  0  0  0  0  0  0  0  0  0
  160.6850  202.6460  145.1040 C   0  0  0  0  0  3  0  0  0  0  0  0
  161.0030  202.9280  151.9680 C   0  0  0  0  0  3  0  0  0  0  0  0
  160.7990  202.1010  147.5230 C   0  0  0  0  0  0  0  0  0  0  0  0
  160.6800  201.5390  146.1380 C   0  0  0  0  0  2  0  0  0  0  0  0
  161.3120  205.4140  152.2550 C   0  0  0  0  0  0  0  0  0  0  0  0
  161.1070  205.3640  153.4970 O   0  0  0  0  0  0  0  0  0  0  0  0
  162.1670  205.7540  149.4990 C   0  0  0  0  0  2  0  0  0  0  0  0
  161.2200  203.8580  145.3540 C   0  0  0  0  0  3  0  0  0  0  0  0
  160.8500  202.1790  149.6870 C   0  0  0  0  0  0  0  0  0  0  0  0
  160.4830  201.3900  148.7280 N   0  0  0  0  0  0  0  0  0  0  0  0
  161.2300  206.6800  151.5830 N   0  0  0  0  0  2  0  0  0  0  0  0
  161.8540  204.1990  146.6850 C   0  0  0  0  0  2  0  0  0  0  0  0
  159.8620  206.7360  149.5760 C   0  0  0  0  0  1  0  0  0  0  0  0
  161.7560  204.1800  151.5180 C   0  0  2  0  0  3  0  0  0  0  0  0
  161.8520  208.2210  149.8180 C   0  0  0  0  0  2  0  0  0  0  0  0
  162.3400  208.9570  151.0590 C   0  0  0  0  0  2  0  0  0  0  0  0
  160.7970  210.5000  152.3150 C   0  0  0  0  0  0  0  0  0  0  0  0
  160.0900  211.8050  152.3950 C   0  0  0  0  0  1  0  0  0  0  0  0
  160.6580  209.6570  153.2400 O   0  0  0  0  0  0  0  0  0  0  0  0
  161.6260  210.2170  151.1880 N   0  0  0  0  0  2  0  0  0  0  0  0
  1 14  1  0  0  0  0
  1  2  2  0  0  0  0
  2 19  1  0  0  0  0
  3  7  2  0  0  0  0
  4  1  1  0  0  0  0
  5 18  1  6  0  0  0
  5 16  1  0  0  0  0
  6 13  2  0  0  0  0
  6  9  1  0  0  0  0
  8  4  2  0  0  0  0
  8 15  1  0  0  0  0
  9  8  1  0  0  0  0
 10 11  2  0  0  0  0
 12  2  1  0  0  0  0
 12  5  1  0  0  0  0
 13 17  1  0  0  0  0
 14  3  1  0  0  0  0
 15 14  2  0  0  0  0
 16 10  1  0  0  0  0
 17  4  1  0  0  0  0
 19  7  1  6  0  0  0
 19 10  1  0  0  0  0
 20  5  1  0  0  0  0
 20 21  1  0  0  0  0
 21 25  1  0  0  0  0
 22 23  1  0  0  0  0
 22 24  2  0  0  0  0
 25 22  1  0  0  0  0
M  END
>  <MODEL>
3

>  <REMARK>
 VINA RESULT:      -7.9      2.269      3.852
  Name = 
  3 active torsions:
  status: ('A' for Active; 'I' for Inactive)
    1  A    between atoms: C_6  and  C_15
    2  A    between atoms: C_15  and  C_25
    3  A    between atoms: N_21  and  C_25
                            x       y       z     vdW  Elec       q    Type
                         _______ _______ _______ _____ _____    ______ ____

>  <TORSDO>
F 3

$$$$
=
 OpenBabel11052422123D

 25 28  0  0  1  0  0  0  0  0999 V2000
  161.3940  203.6680  149.5670 C   0  0  0  0  0  0  0  0  0  0  0  0
  161.7480  204.8830  149.9880 C   0  0  0  0  0  0  0  0  0  0  0  0
  160.6330  202.9530  151.8670 C   0  0  0  0  0  3  0  0  0  0  0  0
  161.3100  203.0610  148.2540 C   0  0  0  0  0  0  0  0  0  0  0  0
  161.2200  207.1930  149.2610 C   0  0  2  0  0  0  0  0  0  0  0  0
  160.6870  201.5200  145.9910 C   0  0  0  0  0  3  0  0  0  0  0  0
  161.0130  204.1510  152.3360 C   0  0  0  0  0  3  0  0  0  0  0  0
  160.8150  201.8430  148.4490 C   0  0  0  0  0  0  0  0  0  0  0  0
  160.7030  200.8360  147.3420 C   0  0  0  0  0  2  0  0  0  0  0  0
  161.2800  206.5890  151.7480 C   0  0  0  0  0  0  0  0  0  0  0  0
  161.0790  206.9660  152.9330 O   0  0  0  0  0  0  0  0  0  0  0  0
  162.1240  205.9730  149.0370 C   0  0  0  0  0  2  0  0  0  0  0  0
  161.2010  202.7520  145.8040 C   0  0  0  0  0  3  0  0  0  0  0  0
  160.8690  202.6610  150.4540 C   0  0  0  0  0  0  0  0  0  0  0  0
  160.5140  201.5850  149.8270 N   0  0  0  0  0  0  0  0  0  0  0  0
  161.1750  207.5440  150.6820 N   0  0  0  0  0  2  0  0  0  0  0  0
  161.8320  203.5400  146.9320 C   0  0  0  0  0  2  0  0  0  0  0  0
  159.8030  206.8860  148.7890 C   0  0  0  0  0  1  0  0  0  0  0  0
  161.7440  205.1830  151.4770 C   0  0  2  0  0  3  0  0  0  0  0  0
  161.7670  208.3940  148.4900 C   0  0  0  0  0  2  0  0  0  0  0  0
  161.9130  209.6410  149.3520 C   0  0  0  0  0  2  0  0  0  0  0  0
  162.0140  212.0660  148.6840 C   0  0  0  0  0  0  0  0  0  0  0  0
  162.6190  213.1310  147.8420 C   0  0  0  0  0  1  0  0  0  0  0  0
  161.1050  212.3610  149.5050 O   0  0  0  0  0  0  0  0  0  0  0  0
  162.4700  210.7200  148.5540 N   0  0  0  0  0  2  0  0  0  0  0  0
  1  2  2  0  0  0  0
  1 14  1  0  0  0  0
  2 19  1  0  0  0  0
  3  7  2  0  0  0  0
  4  8  2  0  0  0  0
  4  1  1  0  0  0  0
  5 18  1  6  0  0  0
  5 16  1  0  0  0  0
  6  9  1  0  0  0  0
  8 15  1  0  0  0  0
  9  8  1  0  0  0  0
 10 11  2  0  0  0  0
 12  5  1  0  0  0  0
 12  2  1  0  0  0  0
 13  6  2  0  0  0  0
 13 17  1  0  0  0  0
 14  3  1  0  0  0  0
 15 14  2  0  0  0  0
 16 10  1  0  0  0  0
 17  4  1  0  0  0  0
 19 10  1  0  0  0  0
 19  7  1  1  0  0  0
 20  5  1  0  0  0  0
 20 21  1  0  0  0  0
 22 24  2  0  0  0  0
 23 22  1  0  0  0  0
 25 22  1  0  0  0  0
 25 21  1  0  0  0  0
M  END
>  <MODEL>
4

>  <REMARK>
 VINA RESULT:      -7.6      2.566      4.624
  Name = 
  3 active torsions:
  status: ('A' for Active; 'I' for Inactive)
    1  A    between atoms: C_6  and  C_15
    2  A    between atoms: C_15  and  C_25
    3  A    between atoms: N_21  and  C_25
                            x       y       z     vdW  Elec       q    Type
                         _______ _______ _______ _____ _____    ______ ____

>  <TORSDO>
F 3

$$$$
=
 OpenBabel11052422123D

 25 28  0  0  1  0  0  0  0  0999 V2000
  160.8960  206.2140  151.5830 C   0  0  0  0  0  0  0  0  0  0  0  0
  160.6620  205.6550  150.3940 C   0  0  0  0  0  0  0  0  0  0  0  0
  161.2060  203.9780  152.7160 C   0  0  0  0  0  3  0  0  0  0  0  0
  161.0820  207.5850  152.0120 C   0  0  0  0  0  0  0  0  0  0  0  0
  161.6140  205.9420  148.1230 C   0  0  2  0  0  0  0  0  0  0  0  0
  161.7990  209.9670  153.3130 C   0  0  0  0  0  3  0  0  0  0  0  0
  160.9370  203.3780  151.5460 C   0  0  0  0  0  3  0  0  0  0  0  0
  161.3640  207.5230  153.3090 C   0  0  0  0  0  0  0  0  0  0  0  0
  161.4910  208.7510  154.1610 C   0  0  0  0  0  2  0  0  0  0  0  0
  161.1090  203.6060  149.0410 C   0  0  0  0  0  0  0  0  0  0  0  0
  161.1880  202.3610  148.8660 O   0  0  0  0  0  0  0  0  0  0  0  0
  160.5870  206.4630  149.1390 C   0  0  0  0  0  2  0  0  0  0  0  0
  161.4990  210.0210  152.0000 C   0  0  0  0  0  3  0  0  0  0  0  0
  161.1380  205.4370  152.7720 C   0  0  1  0  0  3  0  0  0  0  0  0
  161.4230  206.1760  153.7970 N   0  0  0  0  0  0  0  0  0  0  0  0
  161.5020  204.4890  147.9800 N   0  0  0  0  0  2  0  0  0  0  0  0
  160.8310  208.8690  151.2800 C   0  0  0  0  0  2  0  0  0  0  0  0
  163.0260  206.2790  148.5900 C   0  0  0  0  0  1  0  0  0  0  0  0
  160.4930  204.1470  150.3030 C   0  0  0  0  0  0  0  0  0  0  0  0
  161.3610  206.5780  146.7570 C   0  0  0  0  0  2  0  0  0  0  0  0
  161.8710  205.7280  145.6000 C   0  0  0  0  0  2  0  0  0  0  0  0
  160.5010  203.7430  144.8800 C   0  0  0  0  0  0  0  0  0  0  0  0
  159.3310  203.2050  144.1360 C   0  0  0  0  0  1  0  0  0  0  0  0
  161.2650  202.9540  145.4960 O   0  0  0  0  0  0  0  0  0  0  0  0
  160.7440  205.1490  144.8890 N   0  0  0  0  0  2  0  0  0  0  0  0
  1  4  2  0  0  0  0
  1 14  1  0  0  0  0
  2  1  1  0  0  0  0
  4  8  1  0  0  0  0
  5 18  1  1  0  0  0
  5 12  1  0  0  0  0
  6  9  1  0  0  0  0
  7  3  2  0  0  0  0
  8 15  2  0  0  0  0
  8  9  1  0  0  0  0
 10 19  1  0  0  0  0
 11 10  2  0  0  0  0
 12  2  1  0  0  0  0
 13  6  2  0  0  0  0
 14  3  1  6  0  0  0
 14 15  1  0  0  0  0
 16  5  1  0  0  0  0
 16 10  1  0  0  0  0
 17 13  1  0  0  0  0
 17  4  1  0  0  0  0
 19  2  2  0  0  0  0
 19  7  1  0  0  0  0
 20  5  1  0  0  0  0
 21 20  1  0  0  0  0
 22 25  1  0  0  0  0
 22 24  2  0  0  0  0
 23 22  1  0  0  0  0
 25 21  1  0  0  0  0
M  END
>  <MODEL>
5

>  <REMARK>
 VINA RESULT:      -7.5      2.992      7.651
  Name = 
  3 active torsions:
  status: ('A' for Active; 'I' for Inactive)
    1  A    between atoms: C_6  and  C_15
    2  A    between atoms: C_15  and  C_25
    3  A    between atoms: N_21  and  C_25
                            x       y       z     vdW  Elec       q    Type
                         _______ _______ _______ _____ _____    ______ ____

>  <TORSDO>
F 3

$$$$
=
 OpenBabel11052422123D

 25 28  0  0  1  0  0  0  0  0999 V2000
  161.6750  207.8820  151.7810 C   0  0  0  0  0  0  0  0  0  0  0  0
  162.0700  206.9500  150.9130 C   0  0  0  0  0  0  0  0  0  0  0  0
  161.7070  209.7060  150.0340 C   0  0  0  0  0  3  0  0  0  0  0  0
  161.2230  207.8250  153.1570 C   0  0  2  0  0  3  0  0  0  0  0  0
  161.2080  204.7240  150.2440 C   0  0  2  0  0  0  0  0  0  0  0  0
  160.0200  208.2530  155.6570 C   0  0  0  0  0  3  0  0  0  0  0  0
  162.1430  208.8050  149.1400 C   0  0  0  0  0  3  0  0  0  0  0  0
  160.8850  209.0700  153.4790 C   0  0  0  0  0  0  0  0  0  0  0  0
  160.4940  209.4590  154.8740 C   0  0  0  0  0  2  0  0  0  0  0  0
  162.0720  206.3710  148.4850 C   0  0  0  0  0  0  0  0  0  0  0  0
  162.2260  206.6270  147.2610 O   0  0  0  0  0  0  0  0  0  0  0  0
  162.0680  205.4960  151.2560 C   0  0  0  0  0  2  0  0  0  0  0  0
  160.3780  206.9960  155.3260 C   0  0  0  0  0  3  0  0  0  0  0  0
  161.5100  209.2660  151.4140 C   0  0  0  0  0  0  0  0  0  0  0  0
  161.0410  209.9830  152.3850 N   0  0  0  0  0  0  0  0  0  0  0  0
  161.5860  205.0780  148.8740 N   0  0  0  0  0  2  0  0  0  0  0  0
  161.2800  206.7010  154.1470 C   0  0  0  0  0  2  0  0  0  0  0  0
  159.7350  205.0620  150.4470 C   0  0  0  0  0  1  0  0  0  0  0  0
  162.5100  207.3710  149.5210 C   0  0  0  0  0  0  0  0  0  0  0  0
  161.4180  203.2210  150.4230 C   0  0  0  0  0  2  0  0  0  0  0  0
  160.2580  202.3880  149.8920 C   0  0  0  0  0  2  0  0  0  0  0  0
  161.0700  201.2110  147.8210 C   0  0  0  0  0  0  0  0  0  0  0  0
  161.5980  199.9770  147.1820 C   0  0  0  0  0  1  0  0  0  0  0  0
  160.8890  202.2450  147.1250 O   0  0  0  0  0  0  0  0  0  0  0  0
  160.7750  201.2100  149.2170 N   0  0  0  0  0  2  0  0  0  0  0  0
  1  4  1  0  0  0  0
  2 12  1  0  0  0  0
  2  1  1  0  0  0  0
  3 14  1  0  0  0  0
  4  8  1  0  0  0  0
  4 17  1  1  0  0  0
  5 20  1  0  0  0  0
  5 18  1  1  0  0  0
  5 12  1  0  0  0  0
  7 19  1  0  0  0  0
  7  3  2  0  0  0  0
  8  9  1  0  0  0  0
  9  6  1  0  0  0  0
 10 16  1  0  0  0  0
 10 19  1  0  0  0  0
 11 10  2  0  0  0  0
 13  6  2  0  0  0  0
 14  1  2  0  0  0  0
 14 15  1  0  0  0  0
 15  8  2  0  0  0  0
 16  5  1  0  0  0  0
 17 13  1  0  0  0  0
 19  2  2  0  0  0  0
 21 20  1  0  0  0  0
 22 25  1  0  0  0  0
 23 22  1  0  0  0  0
 24 22  2  0  0  0  0
 25 21  1  0  0  0  0
M  END
>  <MODEL>
6

>  <REMARK>
 VINA RESULT:      -7.4      2.508      6.979
  Name = 
  3 active torsions:
  status: ('A' for Active; 'I' for Inactive)
    1  A    between atoms: C_6  and  C_15
    2  A    between atoms: C_15  and  C_25
    3  A    between atoms: N_21  and  C_25
                            x       y       z     vdW  Elec       q    Type
                         _______ _______ _______ _____ _____    ______ ____

>  <TORSDO>
F 3

$$$$
