=
 OpenBabel11062409373D

 34 39  0  0  1  0  0  0  0  0999 V2000
  161.4710  207.7790  150.2920 C   0  0  0  0  0  0  0  0  0  0  0  0
  161.1340  204.1020  149.2190 C   0  0  0  0  0  3  0  0  0  0  0  0
  161.1020  205.2160  151.3260 N   0  0  0  0  0  0  0  0  0  0  0  0
  161.7040  210.1620  150.8540 C   0  0  0  0  0  0  0  0  0  0  0  0
  161.6560  209.1250  149.8930 C   0  0  0  0  0  3  0  0  0  0  0  0
  161.3860  208.5410  152.5900 C   0  0  0  0  0  0  0  0  0  0  0  0
  161.1940  207.8290  154.0990 S   0  0  0  0  0  0  0  0  0  0  0  0
  161.5680  209.8720  152.2280 C   0  0  0  0  0  3  0  0  0  0  0  0
  161.1590  206.2770  152.1630 C   0  0  0  0  0  0  0  0  0  0  0  0
  161.3410  207.5430  151.6530 C   0  0  0  0  0  0  0  0  0  0  0  0
  161.0500  206.2190  153.5530 C   0  0  0  0  0  3  0  0  0  0  0  0
  161.2060  203.8490  147.9190 C   0  0  0  0  0  3  0  0  0  0  0  0
  161.3970  204.7650  146.7900 C   0  0  0  0  0  0  0  0  0  0  0  0
  161.5380  206.0830  146.9070 C   0  0  0  0  0  3  0  0  0  0  0  0
  161.2210  205.3630  149.9680 C   0  0  0  0  0  0  0  0  0  0  0  0
  161.5440  206.9370  148.0980 C   0  0  0  0  0  3  0  0  0  0  0  0
  161.4130  206.6700  149.4040 C   0  0  0  0  0  0  0  0  0  0  0  0
  161.4340  204.1960  145.4720 N   0  0  0  0  0  0  0  0  0  0  0  0
  161.2400  202.8670  145.2950 O   0  0  0  0  0  0  0  0  0  0  0  0
  161.6630  204.9740  144.3870 O   0  0  0  0  0  0  0  0  0  0  0  0
  161.9190  211.5760  150.4130 C   0  0  0  0  0  2  0  0  0  0  0  0
  163.1400  212.6160  146.9650 C   0  0  0  0  0  3  0  0  0  0  0  0
  160.7270  212.7850  148.5320 C   0  0  0  0  0  2  0  0  0  0  0  0
  160.6830  213.4170  144.2800 C   0  0  2  0  0  3  0  0  0  0  0  0
  162.0950  213.3450  144.8760 C   0  0  0  0  0  2  0  0  0  0  0  0
  162.0390  213.0410  146.3430 C   0  0  0  0  0  0  0  0  0  0  0  0
  159.7180  212.1170  146.2860 C   0  0  0  0  0  2  0  0  0  0  0  0
  160.6880  213.0430  147.0220 C   0  0  1  0  0  3  0  0  0  0  0  0
  159.8120  212.2390  144.7500 C   0  0  0  0  0  2  0  0  0  0  0  0
  161.7920  211.7560  148.8990 C   0  0  1  0  0  3  0  0  0  0  0  0
  163.0750  212.1200  148.3040 N   0  0  0  0  0  2  0  0  0  0  0  0
  160.7510  213.4490  142.8280 N   0  0  0  0  0  0  0  0  0  0  0  0
  160.0780  214.2880  142.1970 O   0  0  0  0  0  0  0  0  0  0  0  0
  161.6030  212.6080  142.1500 O   0  0  0  0  0  0  0  0  0  0  0  0
  1 10  1  0  0  0  0
  2 15  1  0  0  0  0
  3  9  1  0  0  0  0
  4  8  2  0  0  0  0
  5  1  2  0  0  0  0
  5  4  1  0  0  0  0
  6  7  1  0  0  0  0
  8  6  1  0  0  0  0
  9 11  2  0  0  0  0
 10  9  1  0  0  0  0
 10  6  2  0  0  0  0
 11  7  1  0  0  0  0
 12  2  2  0  0  0  0
 13 14  2  0  0  0  0
 13 12  1  0  0  0  0
 14 16  1  0  0  0  0
 15  3  2  0  0  0  0
 16 17  2  0  0  0  0
 17 15  1  0  0  0  0
 17  1  1  0  0  0  0
 18 13  1  0  0  0  0
 19 18  2  0  0  0  0
 20 18  2  0  0  0  0
 21  4  1  0  0  0  0
 22 31  1  0  0  0  0
 23 30  1  0  0  0  0
 24 32  1  6  0  0  0
 24 29  1  0  0  0  0
 24 25  1  0  0  0  0
 25 26  1  0  0  0  0
 26 22  2  0  0  0  0
 26 28  1  0  0  0  0
 28 27  1  6  0  0  0
 28 23  1  0  0  0  0
 29 27  1  0  0  0  0
 30 21  1  1  0  0  0
 31 30  1  0  0  0  0
 33 32  2  0  0  0  0
 34 32  2  0  0  0  0
M  END
>  <MODEL>
1

>  <REMARK>
 VINA RESULT:      -9.2      0.000      0.000
  Name = 
  4 active torsions:
  status: ('A' for Active; 'I' for Inactive)
    1  A    between atoms: N_3  and  C_25
    2  A    between atoms: C_7  and  N_11
    3  A    between atoms: C_8  and  C_18
    4  A    between atoms: C_18  and  C_30
                            x       y       z     vdW  Elec       q    Type
                         _______ _______ _______ _____ _____    ______ ____

>  <TORSDO>
F 4

$$$$
=
 OpenBabel11062409373D

 34 39  0  0  1  0  0  0  0  0999 V2000
  160.4900  210.4320  152.8920 C   0  0  0  0  0  0  0  0  0  0  0  0
  160.0510  213.6070  150.7680 C   0  0  0  0  0  3  0  0  0  0  0  0
  159.3350  212.9690  152.9500 N   0  0  0  0  0  0  0  0  0  0  0  0
  160.8350  208.3480  154.1530 C   0  0  0  0  0  0  0  0  0  0  0  0
  161.0270  209.1260  152.9850 C   0  0  0  0  0  3  0  0  0  0  0  0
  159.5910  210.1520  155.1250 C   0  0  0  0  0  0  0  0  0  0  0  0
  158.6860  211.0770  156.1950 S   0  0  0  0  0  0  0  0  0  0  0  0
  160.1050  208.8640  155.2440 C   0  0  0  0  0  3  0  0  0  0  0  0
  159.2110  212.1490  154.0180 C   0  0  0  0  0  0  0  0  0  0  0  0
  159.7810  210.8960  153.9910 C   0  0  0  0  0  0  0  0  0  0  0  0
  158.5310  212.4540  155.1990 C   0  0  0  0  0  3  0  0  0  0  0  0
  160.6030  213.6010  149.5620 C   0  0  0  0  0  3  0  0  0  0  0  0
  161.3760  212.5550  148.8850 C   0  0  0  0  0  0  0  0  0  0  0  0
  161.6610  211.3680  149.4150 C   0  0  0  0  0  3  0  0  0  0  0  0
  160.0200  212.5880  151.8250 C   0  0  0  0  0  0  0  0  0  0  0  0
  161.3160  210.8030  150.7230 C   0  0  0  0  0  3  0  0  0  0  0  0
  160.6260  211.2860  151.7640 C   0  0  0  0  0  0  0  0  0  0  0  0
  161.8550  212.8360  147.5600 N   0  0  0  0  0  0  0  0  0  0  0  0
  161.0040  213.2820  146.6050 O   0  0  0  0  0  0  0  0  0  0  0  0
  163.1610  212.6610  147.2440 O   0  0  0  0  0  0  0  0  0  0  0  0
  161.3940  206.9620  154.2230 C   0  0  0  0  0  2  0  0  0  0  0  0
  160.9040  203.7430  152.2600 C   0  0  0  0  0  3  0  0  0  0  0  0
  162.2500  206.2720  151.9410 C   0  0  0  0  0  2  0  0  0  0  0  0
  161.5100  203.6910  148.5830 C   0  0  2  0  0  3  0  0  0  0  0  0
  161.2180  203.0350  149.9390 C   0  0  0  0  0  2  0  0  0  0  0  0
  161.4160  204.0130  151.0580 C   0  0  0  0  0  0  0  0  0  0  0  0
  161.2420  206.0410  149.6080 C   0  0  0  0  0  2  0  0  0  0  0  0
  162.0250  205.3570  150.7320 C   0  0  1  0  0  3  0  0  0  0  0  0
  160.8470  205.0750  148.4720 C   0  0  0  0  0  2  0  0  0  0  0  0
  161.1220  206.1420  152.9610 C   0  0  1  0  0  3  0  0  0  0  0  0
  160.8910  204.7380  153.2860 N   0  0  0  0  0  2  0  0  0  0  0  0
  161.0670  202.8280  147.5000 N   0  0  0  0  0  0  0  0  0  0  0  0
  160.4900  201.7540  147.7650 O   0  0  0  0  0  0  0  0  0  0  0  0
  161.2170  203.2180  146.1890 O   0  0  0  0  0  0  0  0  0  0  0  0
  1  5  2  0  0  0  0
  1 10  1  0  0  0  0
  2 15  1  0  0  0  0
  3  9  1  0  0  0  0
  4 21  1  0  0  0  0
  4  8  2  0  0  0  0
  5  4  1  0  0  0  0
  6  8  1  0  0  0  0
  6  7  1  0  0  0  0
  9 11  2  0  0  0  0
 10  9  1  0  0  0  0
 10  6  2  0  0  0  0
 11  7  1  0  0  0  0
 12  2  2  0  0  0  0
 13 14  2  0  0  0  0
 13 12  1  0  0  0  0
 14 16  1  0  0  0  0
 15  3  2  0  0  0  0
 16 17  2  0  0  0  0
 17 15  1  0  0  0  0
 17  1  1  0  0  0  0
 18 13  1  0  0  0  0
 19 18  2  0  0  0  0
 20 18  2  0  0  0  0
 22 31  1  0  0  0  0
 23 30  1  0  0  0  0
 24 32  1  6  0  0  0
 24 25  1  0  0  0  0
 25 26  1  0  0  0  0
 26 22  2  0  0  0  0
 28 27  1  6  0  0  0
 28 26  1  0  0  0  0
 28 23  1  0  0  0  0
 29 24  1  0  0  0  0
 29 27  1  0  0  0  0
 30 31  1  0  0  0  0
 30 21  1  1  0  0  0
 32 33  2  0  0  0  0
 34 32  2  0  0  0  0
M  END
>  <MODEL>
2

>  <REMARK>
 VINA RESULT:      -8.7      2.643      8.086
  Name = 
  4 active torsions:
  status: ('A' for Active; 'I' for Inactive)
    1  A    between atoms: N_3  and  C_25
    2  A    between atoms: C_7  and  N_11
    3  A    between atoms: C_8  and  C_18
    4  A    between atoms: C_18  and  C_30
                            x       y       z     vdW  Elec       q    Type
                         _______ _______ _______ _____ _____    ______ ____

>  <TORSDO>
F 4

$$$$
=
 OpenBabel11062409373D

 34 39  0  0  1  0  0  0  0  0999 V2000
  161.4680  207.7290  151.2620 C   0  0  0  0  0  0  0  0  0  0  0  0
  160.7930  203.9440  151.2330 C   0  0  0  0  0  3  0  0  0  0  0  0
  160.8350  205.6000  152.9470 N   0  0  0  0  0  0  0  0  0  0  0  0
  161.9230  210.1440  151.1540 C   0  0  0  0  0  0  0  0  0  0  0  0
  161.7900  208.8880  150.5150 C   0  0  0  0  0  3  0  0  0  0  0  0
  161.4200  209.1060  153.2550 C   0  0  0  0  0  0  0  0  0  0  0  0
  161.1340  208.8640  154.8920 S   0  0  0  0  0  0  0  0  0  0  0  0
  161.7370  210.2620  152.5470 C   0  0  0  0  0  3  0  0  0  0  0  0
  160.9810  206.8430  153.4590 C   0  0  0  0  0  0  0  0  0  0  0  0
  161.2940  207.8950  152.6280 C   0  0  0  0  0  0  0  0  0  0  0  0
  160.8440  207.1850  154.8060 C   0  0  0  0  0  3  0  0  0  0  0  0
  160.8610  203.3330  150.0570 C   0  0  0  0  0  3  0  0  0  0  0  0
  161.1590  203.8770  148.7280 C   0  0  0  0  0  0  0  0  0  0  0  0
  161.4260  205.1580  148.4830 C   0  0  0  0  0  3  0  0  0  0  0  0
  160.9900  205.3510  151.6070 C   0  0  0  0  0  0  0  0  0  0  0  0
  161.4950  206.3060  149.3910 C   0  0  0  0  0  3  0  0  0  0  0  0
  161.3180  206.4270  150.7130 C   0  0  0  0  0  0  0  0  0  0  0  0
  161.1630  202.9620  147.6220 N   0  0  0  0  0  0  0  0  0  0  0  0
  161.5620  203.3730  146.3940 O   0  0  0  0  0  0  0  0  0  0  0  0
  160.7690  201.6760  147.7860 O   0  0  0  0  0  0  0  0  0  0  0  0
  162.2820  211.3540  150.3490 C   0  0  0  0  0  2  0  0  0  0  0  0
  160.9780  212.2920  146.9020 C   0  0  0  0  0  3  0  0  0  0  0  0
  160.6120  213.1220  149.6380 C   0  0  0  0  0  2  0  0  0  0  0  0
  157.8110  214.2270  146.5710 C   0  0  2  0  0  3  0  0  0  0  0  0
  159.0950  213.5870  146.0280 C   0  0  0  0  0  2  0  0  0  0  0  0
  159.9880  213.1510  147.1500 C   0  0  0  0  0  0  0  0  0  0  0  0
  158.1780  213.1290  148.8730 C   0  0  0  0  0  2  0  0  0  0  0  0
  159.6140  213.5540  148.5590 C   0  0  1  0  0  3  0  0  0  0  0  0
  157.2010  213.3900  147.7080 C   0  0  0  0  0  2  0  0  0  0  0  0
  161.2000  211.7450  149.3410 C   0  0  1  0  0  3  0  0  0  0  0  0
  161.7120  211.6960  147.9750 N   0  0  0  0  0  2  0  0  0  0  0  0
  156.8460  214.4050  145.4980 N   0  0  0  0  0  0  0  0  0  0  0  0
  157.2400  214.4530  144.3150 O   0  0  0  0  0  0  0  0  0  0  0  0
  155.4980  214.4500  145.7700 O   0  0  0  0  0  0  0  0  0  0  0  0
  1 10  1  0  0  0  0
  2 15  1  0  0  0  0
  3  9  1  0  0  0  0
  4  8  2  0  0  0  0
  5  4  1  0  0  0  0
  5  1  2  0  0  0  0
  6  7  1  0  0  0  0
  8  6  1  0  0  0  0
  9 11  2  0  0  0  0
 10  6  2  0  0  0  0
 10  9  1  0  0  0  0
 11  7  1  0  0  0  0
 12  2  2  0  0  0  0
 13 12  1  0  0  0  0
 14 13  2  0  0  0  0
 14 16  1  0  0  0  0
 15  3  2  0  0  0  0
 16 17  2  0  0  0  0
 17  1  1  0  0  0  0
 17 15  1  0  0  0  0
 18 20  2  0  0  0  0
 18 13  1  0  0  0  0
 19 18  2  0  0  0  0
 21  4  1  0  0  0  0
 22 26  2  0  0  0  0
 22 31  1  0  0  0  0
 24 32  1  6  0  0  0
 24 29  1  0  0  0  0
 25 24  1  0  0  0  0
 25 26  1  0  0  0  0
 26 28  1  0  0  0  0
 28 27  1  1  0  0  0
 28 23  1  0  0  0  0
 29 27  1  0  0  0  0
 30 23  1  0  0  0  0
 30 21  1  1  0  0  0
 31 30  1  0  0  0  0
 32 34  2  0  0  0  0
 33 32  2  0  0  0  0
M  END
>  <MODEL>
3

>  <REMARK>
 VINA RESULT:      -8.5      2.029      2.580
  Name = 
  4 active torsions:
  status: ('A' for Active; 'I' for Inactive)
    1  A    between atoms: N_3  and  C_25
    2  A    between atoms: C_7  and  N_11
    3  A    between atoms: C_8  and  C_18
    4  A    between atoms: C_18  and  C_30
                            x       y       z     vdW  Elec       q    Type
                         _______ _______ _______ _____ _____    ______ ____

>  <TORSDO>
F 4

$$$$
=
 OpenBabel11062409373D

 34 39  0  0  1  0  0  0  0  0999 V2000
  160.7420  210.0970  152.5920 C   0  0  0  0  0  0  0  0  0  0  0  0
  160.0300  213.5920  151.1560 C   0  0  0  0  0  3  0  0  0  0  0  0
  159.5520  212.5340  153.2370 N   0  0  0  0  0  0  0  0  0  0  0  0
  161.2520  207.8290  153.3980 C   0  0  0  0  0  0  0  0  0  0  0  0
  161.3090  208.8160  152.3840 C   0  0  0  0  0  3  0  0  0  0  0  0
  160.0810  209.3740  154.8080 C   0  0  0  0  0  0  0  0  0  0  0  0
  159.2730  210.0510  156.1150 S   0  0  0  0  0  0  0  0  0  0  0  0
  160.6280  208.1060  154.6320 C   0  0  0  0  0  3  0  0  0  0  0  0
  159.5530  211.5260  154.1390 C   0  0  0  0  0  0  0  0  0  0  0  0
  160.1400  210.3220  153.8210 C   0  0  0  0  0  0  0  0  0  0  0  0
  158.9930  211.5820  155.4170 C   0  0  0  0  0  3  0  0  0  0  0  0
  160.4560  213.8300  149.9220 C   0  0  0  0  0  3  0  0  0  0  0  0
  161.1750  212.9570  148.9880 C   0  0  0  0  0  0  0  0  0  0  0  0
  161.5340  211.7030  149.2560 C   0  0  0  0  0  3  0  0  0  0  0  0
  160.1260  212.3940  152.0000 C   0  0  0  0  0  0  0  0  0  0  0  0
  161.3340  210.8940  150.4610 C   0  0  0  0  0  3  0  0  0  0  0  0
  160.7460  211.1490  151.6360 C   0  0  0  0  0  0  0  0  0  0  0  0
  161.5100  213.4960  147.7000 N   0  0  0  0  0  0  0  0  0  0  0  0
  162.7350  214.0320  147.4810 O   0  0  0  0  0  0  0  0  0  0  0  0
  160.6120  213.4780  146.6860 O   0  0  0  0  0  0  0  0  0  0  0  0
  161.8400  206.4750  153.1510 C   0  0  0  0  0  2  0  0  0  0  0  0
  162.4910  207.3320  149.5050 C   0  0  0  0  0  3  0  0  0  0  0  0
  160.6900  205.6840  151.0370 C   0  0  0  0  0  2  0  0  0  0  0  0
  161.2000  205.1080  146.8080 C   0  0  2  0  0  3  0  0  0  0  0  0
  161.8600  206.3880  147.3370 C   0  0  0  0  0  2  0  0  0  0  0  0
  161.7160  206.4840  148.8260 C   0  0  0  0  0  0  0  0  0  0  0  0
  161.2500  204.0520  149.1580 C   0  0  0  0  0  2  0  0  0  0  0  0
  160.8310  205.4770  149.5250 C   0  0  1  0  0  3  0  0  0  0  0  0
  161.5790  203.8840  147.6600 C   0  0  0  0  0  2  0  0  0  0  0  0
  162.0000  206.1540  151.6650 C   0  0  1  0  0  3  0  0  0  0  0  0
  162.5300  207.3010  150.9330 N   0  0  0  0  0  2  0  0  0  0  0  0
  161.5670  204.8910  145.4180 N   0  0  0  0  0  0  0  0  0  0  0  0
  162.3350  203.9530  145.1220 O   0  0  0  0  0  0  0  0  0  0  0  0
  161.0220  205.6670  144.4210 O   0  0  0  0  0  0  0  0  0  0  0  0
  1 10  1  0  0  0  0
  2 15  1  0  0  0  0
  3  9  1  0  0  0  0
  4  8  2  0  0  0  0
  5  1  2  0  0  0  0
  5  4  1  0  0  0  0
  6  7  1  0  0  0  0
  8  6  1  0  0  0  0
  9 11  2  0  0  0  0
 10  9  1  0  0  0  0
 10  6  2  0  0  0  0
 11  7  1  0  0  0  0
 12  2  2  0  0  0  0
 13 14  2  0  0  0  0
 13 12  1  0  0  0  0
 14 16  1  0  0  0  0
 15  3  2  0  0  0  0
 16 17  2  0  0  0  0
 17 15  1  0  0  0  0
 17  1  1  0  0  0  0
 18 13  1  0  0  0  0
 19 18  2  0  0  0  0
 20 18  2  0  0  0  0
 21  4  1  0  0  0  0
 22 31  1  0  0  0  0
 23 30  1  0  0  0  0
 24 32  1  6  0  0  0
 24 25  1  0  0  0  0
 24 29  1  0  0  0  0
 25 26  1  0  0  0  0
 26 22  2  0  0  0  0
 26 28  1  0  0  0  0
 28 27  1  1  0  0  0
 28 23  1  0  0  0  0
 29 27  1  0  0  0  0
 30 21  1  1  0  0  0
 31 30  1  0  0  0  0
 33 32  2  0  0  0  0
 34 32  2  0  0  0  0
M  END
>  <MODEL>
4

>  <REMARK>
 VINA RESULT:      -8.4      2.434      7.204
  Name = 
  4 active torsions:
  status: ('A' for Active; 'I' for Inactive)
    1  A    between atoms: N_3  and  C_25
    2  A    between atoms: C_7  and  N_11
    3  A    between atoms: C_8  and  C_18
    4  A    between atoms: C_18  and  C_30
                            x       y       z     vdW  Elec       q    Type
                         _______ _______ _______ _____ _____    ______ ____

>  <TORSDO>
F 4

$$$$
=
 OpenBabel11062409373D

 34 39  0  0  1  0  0  0  0  0999 V2000
  159.6590  210.4400  154.0430 C   0  0  0  0  0  0  0  0  0  0  0  0
  156.9280  211.9750  156.2720 C   0  0  0  0  0  3  0  0  0  0  0  0
  158.7760  210.5280  156.6860 N   0  0  0  0  0  0  0  0  0  0  0  0
  161.3510  209.5140  152.5160 C   0  0  0  0  0  0  0  0  0  0  0  0
  160.2040  210.3130  152.7430 C   0  0  0  0  0  3  0  0  0  0  0  0
  161.4130  208.9760  154.8510 C   0  0  0  0  0  0  0  0  0  0  0  0
  161.8660  208.3260  156.3310 S   0  0  0  0  0  0  0  0  0  0  0  0
  161.9700  208.8310  153.5830 C   0  0  0  0  0  3  0  0  0  0  0  0
  159.8660  209.7940  156.3650 C   0  0  0  0  0  0  0  0  0  0  0  0
  160.3030  209.7500  155.0600 C   0  0  0  0  0  0  0  0  0  0  0  0
  160.6280  209.0410  157.2610 C   0  0  0  0  0  3  0  0  0  0  0  0
  156.0360  212.7550  155.6740 C   0  0  0  0  0  3  0  0  0  0  0  0
  155.9160  213.1400  154.2640 C   0  0  0  0  0  0  0  0  0  0  0  0
  156.7420  212.7360  153.3010 C   0  0  0  0  0  3  0  0  0  0  0  0
  158.0820  211.2380  155.7400 C   0  0  0  0  0  0  0  0  0  0  0  0
  157.9160  211.8620  153.3610 C   0  0  0  0  0  3  0  0  0  0  0  0
  158.5120  211.2120  154.3690 C   0  0  0  0  0  0  0  0  0  0  0  0
  154.8320  214.0100  153.9040 N   0  0  0  0  0  0  0  0  0  0  0  0
  154.6660  214.4020  152.6180 O   0  0  0  0  0  0  0  0  0  0  0  0
  153.9590  214.4530  154.8410 O   0  0  0  0  0  0  0  0  0  0  0  0
  161.9000  209.3780  151.1300 C   0  0  0  0  0  2  0  0  0  0  0  0
  161.8840  206.6550  148.4770 C   0  0  0  0  0  3  0  0  0  0  0  0
  160.6670  207.1660  151.0390 C   0  0  0  0  0  2  0  0  0  0  0  0
  160.7280  203.2180  149.3390 C   0  0  2  0  0  3  0  0  0  0  0  0
  161.1800  204.3140  148.3640 C   0  0  0  0  0  2  0  0  0  0  0  0
  161.2150  205.6500  149.0440 C   0  0  0  0  0  0  0  0  0  0  0  0
  161.2960  204.7140  151.3600 C   0  0  0  0  0  2  0  0  0  0  0  0
  160.6500  205.7550  150.4420 C   0  0  1  0  0  3  0  0  0  0  0  0
  161.4540  203.3320  150.6910 C   0  0  0  0  0  2  0  0  0  0  0  0
  161.9260  207.9300  150.6370 C   0  0  1  0  0  3  0  0  0  0  0  0
  162.1140  207.8720  149.1900 N   0  0  0  0  0  2  0  0  0  0  0  0
  160.9480  201.9050  148.7550 N   0  0  0  0  0  0  0  0  0  0  0  0
  161.3010  200.9570  149.4850 O   0  0  0  0  0  0  0  0  0  0  0  0
  160.7030  201.6840  147.4190 O   0  0  0  0  0  0  0  0  0  0  0  0
  1 17  1  0  0  0  0
  1 10  1  0  0  0  0
  4  5  1  0  0  0  0
  4  8  2  0  0  0  0
  5  1  2  0  0  0  0
  6 10  2  0  0  0  0
  6  7  1  0  0  0  0
  7 11  1  0  0  0  0
  8  6  1  0  0  0  0
  9  3  1  0  0  0  0
  9 11  2  0  0  0  0
 10  9  1  0  0  0  0
 12  2  2  0  0  0  0
 13 12  1  0  0  0  0
 14 16  1  0  0  0  0
 14 13  2  0  0  0  0
 15  2  1  0  0  0  0
 15  3  2  0  0  0  0
 16 17  2  0  0  0  0
 17 15  1  0  0  0  0
 18 13  1  0  0  0  0
 18 20  2  0  0  0  0
 19 18  2  0  0  0  0
 21  4  1  0  0  0  0
 22 26  2  0  0  0  0
 22 31  1  0  0  0  0
 24 32  1  6  0  0  0
 24 29  1  0  0  0  0
 25 26  1  0  0  0  0
 25 24  1  0  0  0  0
 26 28  1  0  0  0  0
 28 23  1  1  0  0  0
 28 27  1  0  0  0  0
 29 27  1  0  0  0  0
 30 23  1  0  0  0  0
 30 21  1  6  0  0  0
 31 30  1  0  0  0  0
 32 33  2  0  0  0  0
 34 32  2  0  0  0  0
M  END
>  <MODEL>
5

>  <REMARK>
 VINA RESULT:      -8.3      5.063      9.177
  Name = 
  4 active torsions:
  status: ('A' for Active; 'I' for Inactive)
    1  A    between atoms: N_3  and  C_25
    2  A    between atoms: C_7  and  N_11
    3  A    between atoms: C_8  and  C_18
    4  A    between atoms: C_18  and  C_30
                            x       y       z     vdW  Elec       q    Type
                         _______ _______ _______ _____ _____    ______ ____

>  <TORSDO>
F 4

$$$$
=
 OpenBabel11062409373D

 34 39  0  0  1  0  0  0  0  0999 V2000
  161.2820  207.0500  150.4280 C   0  0  0  0  0  0  0  0  0  0  0  0
  161.1950  203.7700  148.4230 C   0  0  0  0  0  3  0  0  0  0  0  0
  161.1960  204.2820  150.7510 N   0  0  0  0  0  0  0  0  0  0  0  0
  161.3450  209.2130  151.5990 C   0  0  0  0  0  0  0  0  0  0  0  0
  161.3270  208.4650  150.3980 C   0  0  0  0  0  3  0  0  0  0  0  0
  161.2720  207.1680  152.8480 C   0  0  0  0  0  0  0  0  0  0  0  0
  161.2330  206.0690  154.1180 S   0  0  0  0  0  0  0  0  0  0  0  0
  161.3180  208.5590  152.8490 C   0  0  0  0  0  3  0  0  0  0  0  0
  161.2130  205.0860  151.8390 C   0  0  0  0  0  0  0  0  0  0  0  0
  161.2560  206.4540  151.6800 C   0  0  0  0  0  0  0  0  0  0  0  0
  161.1940  204.6540  153.1660 C   0  0  0  0  0  3  0  0  0  0  0  0
  161.2090  203.8770  147.1010 C   0  0  0  0  0  3  0  0  0  0  0  0
  161.2530  205.0730  146.2520 C   0  0  0  0  0  0  0  0  0  0  0  0
  161.2880  206.3210  146.7130 C   0  0  0  0  0  3  0  0  0  0  0  0
  161.2200  204.7920  149.4790 C   0  0  0  0  0  0  0  0  0  0  0  0
  161.2930  206.8270  148.0880 C   0  0  0  0  0  3  0  0  0  0  0  0
  161.2650  206.2150  149.2790 C   0  0  0  0  0  0  0  0  0  0  0  0
  161.2580  204.8760  144.8300 N   0  0  0  0  0  0  0  0  0  0  0  0
  160.3720  204.0300  144.2520 O   0  0  0  0  0  0  0  0  0  0  0  0
  162.1450  205.5320  144.0430 O   0  0  0  0  0  0  0  0  0  0  0  0
  161.4120  210.7070  151.5450 C   0  0  0  0  0  2  0  0  0  0  0  0
  160.1810  211.3270  155.0880 C   0  0  0  0  0  3  0  0  0  0  0  0
  159.0670  211.0320  152.4460 C   0  0  0  0  0  2  0  0  0  0  0  0
  156.7820  212.7460  155.6590 C   0  0  2  0  0  3  0  0  0  0  0  0
  158.1020  212.1100  156.1150 C   0  0  0  0  0  2  0  0  0  0  0  0
  158.8850  211.6080  154.9390 C   0  0  0  0  0  0  0  0  0  0  0  0
  157.6850  213.0170  153.2600 C   0  0  0  0  0  2  0  0  0  0  0  0
  158.2210  211.6200  153.5810 C   0  0  1  0  0  3  0  0  0  0  0  0
  156.9960  213.6920  154.4640 C   0  0  0  0  0  2  0  0  0  0  0  0
  160.5430  211.3840  152.6060 C   0  0  1  0  0  3  0  0  0  0  0  0
  161.0010  211.0500  153.9520 N   0  0  0  0  0  2  0  0  0  0  0  0
  156.1600  213.4580  156.7640 N   0  0  0  0  0  0  0  0  0  0  0  0
  156.7330  214.4480  157.2610 O   0  0  0  0  0  0  0  0  0  0  0  0
  154.9140  213.0910  157.2180 O   0  0  0  0  0  0  0  0  0  0  0  0
  1 10  1  0  0  0  0
  2 15  1  0  0  0  0
  3  9  1  0  0  0  0
  4  8  2  0  0  0  0
  5  1  2  0  0  0  0
  5  4  1  0  0  0  0
  6  8  1  0  0  0  0
  6  7  1  0  0  0  0
  9 11  2  0  0  0  0
 10  9  1  0  0  0  0
 10  6  2  0  0  0  0
 11  7  1  0  0  0  0
 12  2  2  0  0  0  0
 13 14  2  0  0  0  0
 13 12  1  0  0  0  0
 14 16  1  0  0  0  0
 15  3  2  0  0  0  0
 16 17  2  0  0  0  0
 17 15  1  0  0  0  0
 17  1  1  0  0  0  0
 18 13  1  0  0  0  0
 19 18  2  0  0  0  0
 20 18  2  0  0  0  0
 21  4  1  0  0  0  0
 23 30  1  0  0  0  0
 24 25  1  0  0  0  0
 24 32  1  1  0  0  0
 26 22  2  0  0  0  0
 26 25  1  0  0  0  0
 27 28  1  0  0  0  0
 27 29  1  0  0  0  0
 28 23  1  6  0  0  0
 28 26  1  0  0  0  0
 29 24  1  0  0  0  0
 30 21  1  6  0  0  0
 30 31  1  0  0  0  0
 31 22  1  0  0  0  0
 32 34  2  0  0  0  0
 32 33  2  0  0  0  0
M  END
>  <MODEL>
6

>  <REMARK>
 VINA RESULT:      -8.2      5.054      6.612
  Name = 
  4 active torsions:
  status: ('A' for Active; 'I' for Inactive)
    1  A    between atoms: N_3  and  C_25
    2  A    between atoms: C_7  and  N_11
    3  A    between atoms: C_8  and  C_18
    4  A    between atoms: C_18  and  C_30
                            x       y       z     vdW  Elec       q    Type
                         _______ _______ _______ _____ _____    ______ ____

>  <TORSDO>
F 4

$$$$
=
 OpenBabel11062409373D

 34 39  0  0  1  0  0  0  0  0999 V2000
  160.6880  209.2800  152.9410 C   0  0  0  0  0  0  0  0  0  0  0  0
  161.5660  205.5860  152.3320 C   0  0  0  0  0  3  0  0  0  0  0  0
  161.3230  206.9240  154.2890 N   0  0  0  0  0  0  0  0  0  0  0  0
  160.1210  211.6590  153.2020 C   0  0  0  0  0  0  0  0  0  0  0  0
  160.3580  210.5360  152.3750 C   0  0  0  0  0  3  0  0  0  0  0  0
  160.5340  210.3000  155.1330 C   0  0  0  0  0  0  0  0  0  0  0  0
  160.7270  209.7960  156.7230 S   0  0  0  0  0  0  0  0  0  0  0  0
  160.2090  211.5470  154.6060 C   0  0  0  0  0  3  0  0  0  0  0  0
  161.0760  208.0550  154.9900 C   0  0  0  0  0  0  0  0  0  0  0  0
  160.7620  209.2190  154.3250 C   0  0  0  0  0  0  0  0  0  0  0  0
  161.1090  208.1690  156.3810 C   0  0  0  0  0  3  0  0  0  0  0  0
  161.6130  205.1840  151.0680 C   0  0  0  0  0  3  0  0  0  0  0  0
  161.3790  205.9340  149.8300 C   0  0  0  0  0  0  0  0  0  0  0  0
  161.0610  207.2250  149.7830 C   0  0  0  0  0  3  0  0  0  0  0  0
  161.2700  206.9000  152.9190 C   0  0  0  0  0  0  0  0  0  0  0  0
  160.8670  208.1970  150.8620 C   0  0  0  0  0  3  0  0  0  0  0  0
  160.9470  208.0980  152.1950 C   0  0  0  0  0  0  0  0  0  0  0  0
  161.5030  205.2210  148.5900 N   0  0  0  0  0  0  0  0  0  0  0  0
  161.2400  203.8930  148.5330 O   0  0  0  0  0  0  0  0  0  0  0  0
  161.8830  205.8620  147.4580 O   0  0  0  0  0  0  0  0  0  0  0  0
  159.7930  212.9820  152.5840 C   0  0  0  0  0  2  0  0  0  0  0  0
  160.8570  213.4130  148.9590 C   0  0  0  0  0  3  0  0  0  0  0  0
  158.5160  213.8610  150.5800 C   0  0  0  0  0  2  0  0  0  0  0  0
  158.2810  213.7600  146.2880 C   0  0  2  0  0  3  0  0  0  0  0  0
  159.7190  213.7810  146.8250 C   0  0  0  0  0  2  0  0  0  0  0  0
  159.7280  213.7320  148.3230 C   0  0  0  0  0  0  0  0  0  0  0  0
  157.4080  212.8260  148.5270 C   0  0  0  0  0  2  0  0  0  0  0  0
  158.4100  213.8580  149.0510 C   0  0  1  0  0  3  0  0  0  0  0  0
  157.4340  212.6840  146.9910 C   0  0  0  0  0  2  0  0  0  0  0  0
  159.5990  212.9020  151.0690 C   0  0  1  0  0  3  0  0  0  0  0  0
  160.8530  213.1520  150.3640 N   0  0  0  0  0  2  0  0  0  0  0  0
  158.2840  213.5430  144.8510 N   0  0  0  0  0  0  0  0  0  0  0  0
  158.7860  212.5000  144.3850 O   0  0  0  0  0  0  0  0  0  0  0  0
  157.6780  214.4440  144.0060 O   0  0  0  0  0  0  0  0  0  0  0  0
  1 10  1  0  0  0  0
  2 15  1  0  0  0  0
  3  9  1  0  0  0  0
  4  8  2  0  0  0  0
  5  1  2  0  0  0  0
  5  4  1  0  0  0  0
  6  7  1  0  0  0  0
  8  6  1  0  0  0  0
  9 11  2  0  0  0  0
 10  9  1  0  0  0  0
 10  6  2  0  0  0  0
 11  7  1  0  0  0  0
 12  2  2  0  0  0  0
 13 12  1  0  0  0  0
 14 13  2  0  0  0  0
 14 16  1  0  0  0  0
 15  3  2  0  0  0  0
 16 17  2  0  0  0  0
 17 15  1  0  0  0  0
 17  1  1  0  0  0  0
 18 13  1  0  0  0  0
 19 18  2  0  0  0  0
 20 18  2  0  0  0  0
 21  4  1  0  0  0  0
 22 31  1  0  0  0  0
 23 30  1  0  0  0  0
 24 32  1  6  0  0  0
 24 25  1  0  0  0  0
 24 29  1  0  0  0  0
 25 26  1  0  0  0  0
 26 22  2  0  0  0  0
 26 28  1  0  0  0  0
 28 27  1  1  0  0  0
 28 23  1  0  0  0  0
 29 27  1  0  0  0  0
 30 21  1  1  0  0  0
 31 30  1  0  0  0  0
 33 32  2  0  0  0  0
 34 32  2  0  0  0  0
M  END
>  <MODEL>
7

>  <REMARK>
 VINA RESULT:      -8.1      2.477      3.297
  Name = 
  4 active torsions:
  status: ('A' for Active; 'I' for Inactive)
    1  A    between atoms: N_3  and  C_25
    2  A    between atoms: C_7  and  N_11
    3  A    between atoms: C_8  and  C_18
    4  A    between atoms: C_18  and  C_30
                            x       y       z     vdW  Elec       q    Type
                         _______ _______ _______ _____ _____    ______ ____

>  <TORSDO>
F 4

$$$$
=
 OpenBabel11062409373D

 34 39  0  0  1  0  0  0  0  0999 V2000
  160.8880  209.5580  152.3400 C   0  0  0  0  0  0  0  0  0  0  0  0
  160.3930  213.2460  151.3690 C   0  0  0  0  0  3  0  0  0  0  0  0
  160.0470  212.0060  153.3750 N   0  0  0  0  0  0  0  0  0  0  0  0
  161.2430  207.1760  152.8400 C   0  0  0  0  0  0  0  0  0  0  0  0
  161.2880  208.2620  151.9340 C   0  0  0  0  0  3  0  0  0  0  0  0
  160.4120  208.6520  154.5360 C   0  0  0  0  0  0  0  0  0  0  0  0
  159.8360  209.2480  155.9970 S   0  0  0  0  0  0  0  0  0  0  0  0
  160.7970  207.3670  154.1650 C   0  0  0  0  0  3  0  0  0  0  0  0
  160.0430  210.9060  154.1620 C   0  0  0  0  0  0  0  0  0  0  0  0
  160.4590  209.6970  153.6520 C   0  0  0  0  0  0  0  0  0  0  0  0
  159.6420  210.8680  155.4990 C   0  0  0  0  0  3  0  0  0  0  0  0
  160.6980  213.5820  150.1220 C   0  0  0  0  0  3  0  0  0  0  0  0
  161.2080  212.7580  149.0220 C   0  0  0  0  0  0  0  0  0  0  0  0
  161.4590  211.4540  149.1130 C   0  0  0  0  0  3  0  0  0  0  0  0
  160.4560  211.9550  152.0680 C   0  0  0  0  0  0  0  0  0  0  0  0
  161.3140  210.5350  150.2440 C   0  0  0  0  0  3  0  0  0  0  0  0
  160.8950  210.7080  151.5040 C   0  0  0  0  0  0  0  0  0  0  0  0
  161.4490  213.4070  147.7640 N   0  0  0  0  0  0  0  0  0  0  0  0
  160.4120  213.7800  146.9760 O   0  0  0  0  0  0  0  0  0  0  0  0
  162.7130  213.6570  147.3440 O   0  0  0  0  0  0  0  0  0  0  0  0
  161.6520  205.8100  152.3850 C   0  0  0  0  0  2  0  0  0  0  0  0
  161.2070  203.6140  149.3130 C   0  0  0  0  0  3  0  0  0  0  0  0
  162.2880  206.2050  149.9650 C   0  0  0  0  0  2  0  0  0  0  0  0
  161.3780  205.1160  145.9070 C   0  0  2  0  0  3  0  0  0  0  0  0
  161.3040  203.9400  146.8900 C   0  0  0  0  0  2  0  0  0  0  0  0
  161.5490  204.4050  148.2940 C   0  0  0  0  0  0  0  0  0  0  0  0
  161.0350  206.8040  147.8240 C   0  0  0  0  0  2  0  0  0  0  0  0
  162.0000  205.8320  148.5070 C   0  0  1  0  0  3  0  0  0  0  0  0
  160.5910  206.3330  146.4230 C   0  0  0  0  0  2  0  0  0  0  0  0
  161.3030  205.5380  150.9210 C   0  0  1  0  0  3  0  0  0  0  0  0
  161.2310  204.1040  150.6560 N   0  0  0  0  0  2  0  0  0  0  0  0
  160.8850  204.7110  144.6010 N   0  0  0  0  0  0  0  0  0  0  0  0
  160.0990  203.7460  144.5100 O   0  0  0  0  0  0  0  0  0  0  0  0
  161.2220  205.4250  143.4740 O   0  0  0  0  0  0  0  0  0  0  0  0
  1 10  1  0  0  0  0
  2 15  1  0  0  0  0
  3  9  1  0  0  0  0
  4  8  2  0  0  0  0
  5  1  2  0  0  0  0
  5  4  1  0  0  0  0
  6  7  1  0  0  0  0
  8  6  1  0  0  0  0
  9 11  2  0  0  0  0
 10  9  1  0  0  0  0
 10  6  2  0  0  0  0
 11  7  1  0  0  0  0
 12  2  2  0  0  0  0
 13 14  2  0  0  0  0
 13 12  1  0  0  0  0
 14 16  1  0  0  0  0
 15  3  2  0  0  0  0
 16 17  2  0  0  0  0
 17 15  1  0  0  0  0
 17  1  1  0  0  0  0
 18 13  1  0  0  0  0
 19 18  2  0  0  0  0
 20 18  2  0  0  0  0
 21  4  1  0  0  0  0
 22 31  1  0  0  0  0
 23 30  1  0  0  0  0
 24 32  1  6  0  0  0
 24 29  1  0  0  0  0
 24 25  1  0  0  0  0
 25 26  1  0  0  0  0
 26 28  1  0  0  0  0
 26 22  2  0  0  0  0
 28 27  1  1  0  0  0
 28 23  1  0  0  0  0
 29 27  1  0  0  0  0
 30 21  1  1  0  0  0
 31 30  1  0  0  0  0
 33 32  2  0  0  0  0
 34 32  2  0  0  0  0
M  END
>  <MODEL>
8

>  <REMARK>
 VINA RESULT:      -8.0      2.441      7.176
  Name = 
  4 active torsions:
  status: ('A' for Active; 'I' for Inactive)
    1  A    between atoms: N_3  and  C_25
    2  A    between atoms: C_7  and  N_11
    3  A    between atoms: C_8  and  C_18
    4  A    between atoms: C_18  and  C_30
                            x       y       z     vdW  Elec       q    Type
                         _______ _______ _______ _____ _____    ______ ____

>  <TORSDO>
F 4

$$$$
=
 OpenBabel11062409373D

 34 39  0  0  1  0  0  0  0  0999 V2000
  160.5810  212.2930  150.3940 C   0  0  0  0  0  0  0  0  0  0  0  0
  159.6220  214.4530  147.3610 C   0  0  0  0  0  3  0  0  0  0  0  0
  158.7350  214.2080  149.5590 N   0  0  0  0  0  0  0  0  0  0  0  0
  161.2890  210.8590  152.2630 C   0  0  0  0  0  0  0  0  0  0  0  0
  161.4550  211.3190  150.9350 C   0  0  0  0  0  3  0  0  0  0  0  0
  159.4070  212.3220  152.5130 C   0  0  0  0  0  0  0  0  0  0  0  0
  158.0850  213.1330  153.1580 S   0  0  0  0  0  0  0  0  0  0  0  0
  160.2480  211.3640  153.0710 C   0  0  0  0  0  3  0  0  0  0  0  0
  158.6630  213.7060  150.8130 C   0  0  0  0  0  0  0  0  0  0  0  0
  159.5750  212.7600  151.2270 C   0  0  0  0  0  0  0  0  0  0  0  0
  157.7160  214.0620  151.7760 C   0  0  0  0  0  3  0  0  0  0  0  0
  160.3660  214.3170  146.2710 C   0  0  0  0  0  3  0  0  0  0  0  0
  161.5270  213.4560  146.0230 C   0  0  0  0  0  0  0  0  0  0  0  0
  162.0480  212.6200  146.9190 C   0  0  0  0  0  3  0  0  0  0  0  0
  159.6990  213.8000  148.6740 C   0  0  0  0  0  0  0  0  0  0  0  0
  161.6480  212.3370  148.3000 C   0  0  0  0  0  3  0  0  0  0  0  0
  160.6650  212.8130  149.0740 C   0  0  0  0  0  0  0  0  0  0  0  0
  162.1390  213.5240  144.7260 N   0  0  0  0  0  0  0  0  0  0  0  0
  163.4360  213.1700  144.5610 O   0  0  0  0  0  0  0  0  0  0  0  0
  161.4320  213.9410  143.6480 O   0  0  0  0  0  0  0  0  0  0  0  0
  162.2110  209.8150  152.8100 C   0  0  0  0  0  2  0  0  0  0  0  0
  161.8700  207.6790  149.6820 C   0  0  0  0  0  3  0  0  0  0  0  0
  160.9000  207.6870  152.3960 C   0  0  0  0  0  2  0  0  0  0  0  0
  160.6760  204.1590  149.9490 C   0  0  2  0  0  3  0  0  0  0  0  0
  161.0780  205.4210  149.1730 C   0  0  0  0  0  2  0  0  0  0  0  0
  161.2180  206.5920  150.0980 C   0  0  0  0  0  0  0  0  0  0  0  0
  161.4690  205.2100  152.1650 C   0  0  0  0  0  2  0  0  0  0  0  0
  160.7820  206.4240  151.5360 C   0  0  1  0  0  3  0  0  0  0  0  0
  161.5200  203.9880  151.2240 C   0  0  0  0  0  2  0  0  0  0  0  0
  162.1440  208.4950  152.0390 C   0  0  1  0  0  3  0  0  0  0  0  0
  162.2030  208.7250  150.5980 N   0  0  0  0  0  2  0  0  0  0  0  0
  160.7980  202.9860  149.0990 N   0  0  0  0  0  0  0  0  0  0  0  0
  161.3740  203.0810  147.9970 O   0  0  0  0  0  0  0  0  0  0  0  0
  160.3460  201.7600  149.5300 O   0  0  0  0  0  0  0  0  0  0  0  0
  1  5  2  0  0  0  0
  1 10  1  0  0  0  0
  2 15  1  0  0  0  0
  3  9  1  0  0  0  0
  4 21  1  0  0  0  0
  4  8  2  0  0  0  0
  5  4  1  0  0  0  0
  6  8  1  0  0  0  0
  6  7  1  0  0  0  0
  9 10  1  0  0  0  0
  9 11  2  0  0  0  0
 10  6  2  0  0  0  0
 11  7  1  0  0  0  0
 12  2  2  0  0  0  0
 13 12  1  0  0  0  0
 13 14  2  0  0  0  0
 14 16  1  0  0  0  0
 15 17  1  0  0  0  0
 15  3  2  0  0  0  0
 16 17  2  0  0  0  0
 17  1  1  0  0  0  0
 18 13  1  0  0  0  0
 19 18  2  0  0  0  0
 20 18  2  0  0  0  0
 22 26  2  0  0  0  0
 22 31  1  0  0  0  0
 24 32  1  6  0  0  0
 24 29  1  0  0  0  0
 25 24  1  0  0  0  0
 25 26  1  0  0  0  0
 26 28  1  0  0  0  0
 28 27  1  1  0  0  0
 28 23  1  0  0  0  0
 29 27  1  0  0  0  0
 30 23  1  0  0  0  0
 30 21  1  1  0  0  0
 31 30  1  0  0  0  0
 32 34  2  0  0  0  0
 33 32  2  0  0  0  0
M  END
>  <MODEL>
9

>  <REMARK>
 VINA RESULT:      -7.6      2.499      8.122
  Name = 
  4 active torsions:
  status: ('A' for Active; 'I' for Inactive)
    1  A    between atoms: N_3  and  C_25
    2  A    between atoms: C_7  and  N_11
    3  A    between atoms: C_8  and  C_18
    4  A    between atoms: C_18  and  C_30
                            x       y       z     vdW  Elec       q    Type
                         _______ _______ _______ _____ _____    ______ ____

>  <TORSDO>
F 4

$$$$
