=
 OpenBabel11052421493D

 30 33  0  0  1  0  0  0  0  0999 V2000
  158.5430  212.8360  151.7160 C   0  0  0  0  0  2  0  0  0  0  0  0
  159.3840  212.9170  154.7280 C   0  0  0  0  0  0  0  0  0  0  0  0
  160.9300  207.3670  151.5840 C   0  0  0  0  0  3  0  0  0  0  0  0
  157.9070  212.2510  150.4670 C   0  0  0  0  0  2  0  0  0  0  0  0
  158.9940  211.7380  152.5510 N   0  0  0  0  0  2  0  0  0  0  0  0
  158.1180  212.9340  147.1480 O   0  0  0  0  0  0  0  0  0  0  0  0
  162.6810  209.9190  148.3520 O   0  0  0  0  0  0  0  0  0  0  0  0
  157.8780  213.2290  149.2920 C   0  0  1  0  0  0  0  0  0  0  0  0
  159.3610  213.2770  147.6820 C   0  0  2  0  0  0  0  0  0  0  0  0
  161.2960  208.3870  150.7870 C   0  0  0  0  0  3  0  0  0  0  0  0
  161.3360  207.2450  153.0270 C   0  0  0  0  0  2  0  0  0  0  0  0
  159.1770  213.6520  149.0100 O   0  0  0  0  0  0  0  0  0  0  0  0
  157.3780  212.5500  148.1730 O   0  0  0  0  0  0  0  0  0  0  0  0
  160.0120  212.9340  155.9340 N   0  0  0  0  0  0  0  0  0  0  0  0
  162.1900  210.8790  149.0040 C   0  0  0  0  0  0  0  0  0  0  0  0
  161.8530  210.7290  150.3840 N   0  0  0  0  0  2  0  0  0  0  0  0
  159.9150  214.4520  146.8930 C   0  0  0  0  0  1  0  0  0  0  0  0
  158.4290  214.0160  154.4170 C   0  0  0  0  0  1  0  0  0  0  0  0
  160.4960  210.8330  154.2470 C   0  0  0  0  0  0  0  0  0  0  0  0
  160.8680  211.9450  156.3000 C   0  0  0  0  0  3  0  0  0  0  0  0
  160.3070  212.0740  147.6000 C   0  0  0  0  0  2  0  0  0  0  0  0
  159.6210  211.8490  153.8380 C   0  0  0  0  0  0  0  0  0  0  0  0
  162.2000  209.9390  152.6550 C   0  0  0  0  0  2  0  0  0  0  0  0
  160.6990  208.3330  153.9050 C   0  0  0  0  0  2  0  0  0  0  0  0
  162.1940  209.5530  151.1710 C   0  0  1  0  0  3  0  0  0  0  0  0
  161.9760  212.4710  148.2200 S   0  0  0  0  0  0  0  0  0  0  0  0
  161.1100  210.9080  155.4590 N   0  0  0  0  0  0  0  0  0  0  0  0
  160.8360  209.7290  153.2970 C   0  0  1  0  0  3  0  0  0  0  0  0
  157.0030  214.4490  149.6010 C   0  0  0  0  0  2  0  0  0  0  0  0
  155.5400  214.0780  149.7840 C   0  0  0  0  0  1  0  0  0  0  0  0
  1  5  1  0  0  0  0
  2 14  1  0  0  0  0
  3 11  1  0  0  0  0
  4  1  1  0  0  0  0
  5 22  1  0  0  0  0
  6  9  1  0  0  0  0
  6 13  1  0  0  0  0
  7 15  2  0  0  0  0
  8 29  1  1  0  0  0
  8  4  1  0  0  0  0
  9 17  1  6  0  0  0
  9 12  1  0  0  0  0
 10  3  2  0  0  0  0
 11 24  1  0  0  0  0
 12  8  1  0  0  0  0
 13  8  1  0  0  0  0
 14 20  2  0  0  0  0
 15 16  1  0  0  0  0
 16 25  1  0  0  0  0
 18  2  1  0  0  0  0
 19 27  2  0  0  0  0
 21  9  1  0  0  0  0
 21 26  1  0  0  0  0
 22 19  1  0  0  0  0
 22  2  2  0  0  0  0
 25 10  1  1  0  0  0
 25 23  1  0  0  0  0
 26 15  1  0  0  0  0
 27 20  1  0  0  0  0
 28 23  1  1  0  0  0
 28 24  1  0  0  0  0
 28 19  1  0  0  0  0
 29 30  1  0  0  0  0
M  END
>  <MODEL>
1

>  <REMARK>
 VINA RESULT:      -5.6      0.000      0.000
  Name = 
  1 active torsions:
  status: ('A' for Active; 'I' for Inactive)
    1  A    between atoms: C_8  and  C_27
                            x       y       z     vdW  Elec       q    Type
                         _______ _______ _______ _____ _____    ______ ____

>  <TORSDO>
F 1

$$$$
=
 OpenBabel11052421493D

 30 33  0  0  1  0  0  0  0  0999 V2000
  161.7050  210.1070  149.9590 C   0  0  0  0  0  2  0  0  0  0  0  0
  161.6790  207.1110  150.8580 C   0  0  0  0  0  0  0  0  0  0  0  0
  161.3050  211.4620  155.7580 C   0  0  0  0  0  3  0  0  0  0  0  0
  162.1590  211.5560  149.9700 C   0  0  0  0  0  2  0  0  0  0  0  0
  161.8700  209.5710  151.2980 N   0  0  0  0  0  2  0  0  0  0  0  0
  160.8980  214.4530  148.7250 O   0  0  0  0  0  0  0  0  0  0  0  0
  158.0500  213.4850  153.4480 O   0  0  0  0  0  0  0  0  0  0  0  0
  161.5640  212.3820  148.8290 C   0  0  1  0  0  0  0  0  0  0  0  0
  159.7910  213.6530  149.0120 C   0  0  2  0  0  0  0  0  0  0  0  0
  160.4330  211.8570  154.8130 C   0  0  0  0  0  3  0  0  0  0  0  0
  161.3430  210.0730  156.3350 C   0  0  0  0  0  2  0  0  0  0  0  0
  160.1720  212.3200  148.8900 O   0  0  0  0  0  0  0  0  0  0  0  0
  161.9580  213.7150  149.0050 O   0  0  0  0  0  0  0  0  0  0  0  0
  161.4090  205.8710  151.3450 N   0  0  0  0  0  0  0  0  0  0  0  0
  158.3450  212.6660  152.5380 C   0  0  0  0  0  0  0  0  0  0  0  0
  159.0520  211.4620  152.8390 N   0  0  0  0  0  2  0  0  0  0  0  0
  158.6990  213.9650  148.0010 C   0  0  0  0  0  1  0  0  0  0  0  0
  162.1070  207.2320  149.4370 C   0  0  0  0  0  1  0  0  0  0  0  0
  161.2330  208.0010  153.0540 C   0  0  0  0  0  0  0  0  0  0  0  0
  161.0500  205.6810  152.6400 C   0  0  0  0  0  3  0  0  0  0  0  0
  159.3060  213.9350  150.4380 C   0  0  0  0  0  2  0  0  0  0  0  0
  161.5900  208.2260  151.7170 C   0  0  0  0  0  0  0  0  0  0  0  0
  159.5740  209.4970  154.1710 C   0  0  0  0  0  2  0  0  0  0  0  0
  161.7860  209.0260  155.3020 C   0  0  0  0  0  2  0  0  0  0  0  0
  159.3300  211.0110  154.1960 C   0  0  1  0  0  3  0  0  0  0  0  0
  157.8150  212.9720  150.8580 S   0  0  0  0  0  0  0  0  0  0  0  0
  160.9580  206.7400  153.4830 N   0  0  0  0  0  0  0  0  0  0  0  0
  161.0460  209.1680  153.9710 C   0  0  1  0  0  3  0  0  0  0  0  0
  162.0360  211.8700  147.4640 C   0  0  0  0  0  2  0  0  0  0  0  0
  162.7070  212.9580  146.6400 C   0  0  0  0  0  1  0  0  0  0  0  0
  1  4  1  0  0  0  0
  1  5  1  0  0  0  0
  2 14  2  0  0  0  0
  2 22  1  0  0  0  0
  3 11  1  0  0  0  0
  5 22  1  0  0  0  0
  6 13  1  0  0  0  0
  6  9  1  0  0  0  0
  8 29  1  6  0  0  0
  8 12  1  0  0  0  0
  8 13  1  0  0  0  0
  8  4  1  0  0  0  0
  9 17  1  6  0  0  0
  9 21  1  0  0  0  0
 10  3  2  0  0  0  0
 12  9  1  0  0  0  0
 14 20  1  0  0  0  0
 15 16  1  0  0  0  0
 15  7  2  0  0  0  0
 16 25  1  0  0  0  0
 18  2  1  0  0  0  0
 19 27  1  0  0  0  0
 19 28  1  0  0  0  0
 20 27  2  0  0  0  0
 21 26  1  0  0  0  0
 22 19  2  0  0  0  0
 24 11  1  0  0  0  0
 25 23  1  6  0  0  0
 25 10  1  0  0  0  0
 26 15  1  0  0  0  0
 28 23  1  1  0  0  0
 28 24  1  0  0  0  0
 30 29  1  0  0  0  0
M  END
>  <MODEL>
2

>  <REMARK>
 VINA RESULT:      -4.8      2.269      5.116
  Name = 
  1 active torsions:
  status: ('A' for Active; 'I' for Inactive)
    1  A    between atoms: C_8  and  C_27
                            x       y       z     vdW  Elec       q    Type
                         _______ _______ _______ _____ _____    ______ ____

>  <TORSDO>
F 1

$$$$
=
 OpenBabel11052421493D

 30 33  0  0  1  0  0  0  0  0999 V2000
  159.5030  212.1470  152.8610 C   0  0  0  0  0  2  0  0  0  0  0  0
  160.7750  211.4070  155.6220 C   0  0  0  0  0  0  0  0  0  0  0  0
  160.4880  206.4690  151.3080 C   0  0  0  0  0  3  0  0  0  0  0  0
  158.5700  211.9850  151.6740 C   0  0  0  0  0  2  0  0  0  0  0  0
  159.8000  210.8260  153.3860 N   0  0  0  0  0  2  0  0  0  0  0  0
  158.4440  213.3100  148.5500 O   0  0  0  0  0  0  0  0  0  0  0  0
  162.2940  209.2510  148.3040 O   0  0  0  0  0  0  0  0  0  0  0  0
  158.5990  213.1780  150.7180 C   0  0  1  0  0  0  0  0  0  0  0  0
  159.7970  213.2720  148.8880 C   0  0  2  0  0  0  0  0  0  0  0  0
  160.9620  207.5410  150.6480 C   0  0  0  0  0  3  0  0  0  0  0  0
  161.0620  205.9600  152.6010 C   0  0  0  0  0  2  0  0  0  0  0  0
  159.9060  213.3810  150.2720 O   0  0  0  0  0  0  0  0  0  0  0  0
  157.7940  212.8710  149.6140 O   0  0  0  0  0  0  0  0  0  0  0  0
  161.5590  211.0360  156.6680 N   0  0  0  0  0  0  0  0  0  0  0  0
  162.1460  210.1270  149.1970 C   0  0  0  0  0  0  0  0  0  0  0  0
  161.9900  209.7540  150.5670 N   0  0  0  0  0  2  0  0  0  0  0  0
  160.4910  214.4530  148.2290 C   0  0  0  0  0  1  0  0  0  0  0  0
  160.0700  212.7160  155.6990 C   0  0  0  0  0  1  0  0  0  0  0  0
  161.2810  209.2940  154.5760 C   0  0  0  0  0  0  0  0  0  0  0  0
  162.2030  209.8410  156.6820 C   0  0  0  0  0  3  0  0  0  0  0  0
  160.4110  211.9500  148.4140 C   0  0  0  0  0  2  0  0  0  0  0  0
  160.6190  210.5300  154.5280 C   0  0  0  0  0  0  0  0  0  0  0  0
  162.4720  208.4400  152.5530 C   0  0  0  0  0  2  0  0  0  0  0  0
  160.8360  206.9380  153.7630 C   0  0  0  0  0  2  0  0  0  0  0  0
  162.1560  208.3910  151.0530 C   0  0  1  0  0  3  0  0  0  0  0  0
  162.1990  211.8600  148.7630 S   0  0  0  0  0  0  0  0  0  0  0  0
  162.0670  208.9820  155.6410 N   0  0  0  0  0  0  0  0  0  0  0  0
  161.2070  208.3760  153.3970 C   0  0  1  0  0  3  0  0  0  0  0  0
  158.0920  214.4530  151.4000 C   0  0  0  0  0  2  0  0  0  0  0  0
  156.5990  214.4010  151.6840 C   0  0  0  0  0  1  0  0  0  0  0  0
  1  5  1  0  0  0  0
  2 18  1  0  0  0  0
  2 14  1  0  0  0  0
  3 11  1  0  0  0  0
  4  1  1  0  0  0  0
  5 22  1  0  0  0  0
  6  9  1  0  0  0  0
  6 13  1  0  0  0  0
  7 15  2  0  0  0  0
  8 29  1  1  0  0  0
  8  4  1  0  0  0  0
  9 17  1  6  0  0  0
  9 12  1  0  0  0  0
 10  3  2  0  0  0  0
 11 24  1  0  0  0  0
 12  8  1  0  0  0  0
 13  8  1  0  0  0  0
 14 20  2  0  0  0  0
 15 16  1  0  0  0  0
 16 25  1  0  0  0  0
 19 27  2  0  0  0  0
 21 26  1  0  0  0  0
 21  9  1  0  0  0  0
 22 19  1  0  0  0  0
 22  2  2  0  0  0  0
 25 10  1  1  0  0  0
 25 23  1  0  0  0  0
 26 15  1  0  0  0  0
 27 20  1  0  0  0  0
 28 23  1  1  0  0  0
 28 24  1  0  0  0  0
 28 19  1  0  0  0  0
 29 30  1  0  0  0  0
M  END
>  <MODEL>
3

>  <REMARK>
 VINA RESULT:      -4.7      1.353      1.625
  Name = 
  1 active torsions:
  status: ('A' for Active; 'I' for Inactive)
    1  A    between atoms: C_8  and  C_27
                            x       y       z     vdW  Elec       q    Type
                         _______ _______ _______ _____ _____    ______ ____

>  <TORSDO>
F 1

$$$$
=
 OpenBabel11052421493D

 30 33  0  0  1  0  0  0  0  0999 V2000
  159.2520  212.1010  152.0400 C   0  0  0  0  0  2  0  0  0  0  0  0
  157.2840  213.7290  150.2340 C   0  0  0  0  0  0  0  0  0  0  0  0
  163.3590  213.1110  147.8290 C   0  0  0  0  0  3  0  0  0  0  0  0
  160.5420  211.8300  152.7950 C   0  0  0  0  0  2  0  0  0  0  0  0
  159.5670  212.9290  150.8900 N   0  0  0  0  0  2  0  0  0  0  0  0
  161.9540  209.0650  154.1720 O   0  0  0  0  0  0  0  0  0  0  0  0
  163.0410  208.7310  148.6880 O   0  0  0  0  0  0  0  0  0  0  0  0
  160.4720  210.5820  153.6760 C   0  0  1  0  0  0  0  0  0  0  0  0
  161.2050  208.6050  153.0880 C   0  0  2  0  0  0  0  0  0  0  0  0
  162.9800  211.8940  148.2590 C   0  0  0  0  0  3  0  0  0  0  0  0
  162.5430  213.9610  146.8930 C   0  0  0  0  0  2  0  0  0  0  0  0
  160.1390  209.4790  152.8910 O   0  0  0  0  0  0  0  0  0  0  0  0
  161.7410  210.3690  154.2290 O   0  0  0  0  0  0  0  0  0  0  0  0
  156.4710  214.2270  149.2640 N   0  0  0  0  0  0  0  0  0  0  0  0
  161.9540  209.0380  149.2470 C   0  0  0  0  0  0  0  0  0  0  0  0
  161.2930  210.2650  148.9370 N   0  0  0  0  0  2  0  0  0  0  0  0
  160.6730  207.2210  153.4250 C   0  0  0  0  0  1  0  0  0  0  0  0
  156.7210  213.5510  151.6010 C   0  0  0  0  0  1  0  0  0  0  0  0
  159.0800  213.6980  148.6260 C   0  0  0  0  0  0  0  0  0  0  0  0
  156.9270  214.4500  148.0050 C   0  0  0  0  0  3  0  0  0  0  0  0
  162.0860  208.5560  151.8350 C   0  0  0  0  0  2  0  0  0  0  0  0
  158.6310  213.4420  149.9290 C   0  0  0  0  0  0  0  0  0  0  0  0
  160.5200  212.0280  147.4530 C   0  0  0  0  0  2  0  0  0  0  0  0
  161.2390  214.4510  147.5400 C   0  0  0  0  0  2  0  0  0  0  0  0
  161.7120  211.1540  147.8620 C   0  0  1  0  0  3  0  0  0  0  0  0
  161.1880  207.8970  150.3910 S   0  0  0  0  0  0  0  0  0  0  0  0
  158.2190  214.1820  147.6910 N   0  0  0  0  0  0  0  0  0  0  0  0
  160.4780  213.3270  148.2450 C   0  0  1  0  0  3  0  0  0  0  0  0
  159.4330  210.7440  154.7910 C   0  0  0  0  0  2  0  0  0  0  0  0
  159.9370  211.6200  155.9280 C   0  0  0  0  0  1  0  0  0  0  0  0
  1  4  1  0  0  0  0
  2 18  1  0  0  0  0
  3 10  2  0  0  0  0
  4  8  1  0  0  0  0
  5  1  1  0  0  0  0
  6 13  1  0  0  0  0
  7 15  2  0  0  0  0
  8 13  1  0  0  0  0
  8 29  1  1  0  0  0
  9 17  1  1  0  0  0
  9  6  1  0  0  0  0
 11 24  1  0  0  0  0
 11  3  1  0  0  0  0
 12  9  1  0  0  0  0
 12  8  1  0  0  0  0
 14  2  2  0  0  0  0
 15 26  1  0  0  0  0
 16 15  1  0  0  0  0
 19 22  2  0  0  0  0
 20 14  1  0  0  0  0
 21  9  1  0  0  0  0
 22  2  1  0  0  0  0
 22  5  1  0  0  0  0
 24 28  1  0  0  0  0
 25 23  1  1  0  0  0
 25 10  1  0  0  0  0
 25 16  1  0  0  0  0
 26 21  1  0  0  0  0
 27 20  2  0  0  0  0
 27 19  1  0  0  0  0
 28 23  1  6  0  0  0
 28 19  1  0  0  0  0
 29 30  1  0  0  0  0
M  END
>  <MODEL>
4

>  <REMARK>
 VINA RESULT:      -4.4      2.868      6.326
  Name = 
  1 active torsions:
  status: ('A' for Active; 'I' for Inactive)
    1  A    between atoms: C_8  and  C_27
                            x       y       z     vdW  Elec       q    Type
                         _______ _______ _______ _____ _____    ______ ____

>  <TORSDO>
F 1

$$$$
=
 OpenBabel11052421493D

 30 33  0  0  1  0  0  0  0  0999 V2000
  161.3580  211.0440  150.0550 C   0  0  0  0  0  2  0  0  0  0  0  0
  161.5740  208.5740  151.9630 C   0  0  0  0  0  0  0  0  0  0  0  0
  159.3170  214.0510  154.7890 C   0  0  0  0  0  3  0  0  0  0  0  0
  161.5650  212.4840  149.6190 C   0  0  0  0  0  2  0  0  0  0  0  0
  161.2650  211.0190  151.5030 N   0  0  0  0  0  2  0  0  0  0  0  0
  160.2210  214.4520  147.1990 O   0  0  0  0  0  0  0  0  0  0  0  0
  156.4690  214.4120  151.3560 O   0  0  0  0  0  0  0  0  0  0  0  0
  161.1530  212.7390  148.1680 C   0  0  1  0  0  0  0  0  0  0  0  0
  159.2160  213.5520  147.5540 C   0  0  2  0  0  0  0  0  0  0  0  0
  158.6580  213.9080  153.6240 C   0  0  0  0  0  3  0  0  0  0  0  0
  159.4250  212.9690  155.8280 C   0  0  0  0  0  2  0  0  0  0  0  0
  159.8170  212.3770  147.9960 O   0  0  0  0  0  0  0  0  0  0  0  0
  161.2790  214.1110  147.9150 O   0  0  0  0  0  0  0  0  0  0  0  0
  161.3870  207.5280  152.8100 N   0  0  0  0  0  0  0  0  0  0  0  0
  157.1060  213.4370  150.8760 C   0  0  0  0  0  0  0  0  0  0  0  0
  157.8930  212.5920  151.7160 N   0  0  0  0  0  2  0  0  0  0  0  0
  158.3760  213.2600  146.3200 C   0  0  0  0  0  1  0  0  0  0  0  0
  162.3190  208.3300  150.6970 C   0  0  0  0  0  1  0  0  0  0  0  0
  160.4610  209.9910  153.5650 C   0  0  0  0  0  0  0  0  0  0  0  0
  160.7490  207.6860  153.9990 C   0  0  0  0  0  3  0  0  0  0  0  0
  158.3520  214.1540  148.6670 C   0  0  0  0  0  2  0  0  0  0  0  0
  161.1010  209.8530  152.3250 C   0  0  0  0  0  0  0  0  0  0  0  0
  158.3640  211.3360  153.7420 C   0  0  0  0  0  2  0  0  0  0  0  0
  160.2690  211.7810  155.3460 C   0  0  0  0  0  2  0  0  0  0  0  0
  157.8900  212.6780  153.1700 C   0  0  1  0  0  3  0  0  0  0  0  0
  156.9720  213.0570  149.1340 S   0  0  0  0  0  0  0  0  0  0  0  0
  160.2870  208.9070  154.3670 N   0  0  0  0  0  0  0  0  0  0  0  0
  159.8720  211.3120  153.9440 C   0  0  1  0  0  3  0  0  0  0  0  0
  162.0250  211.9410  147.1920 C   0  0  0  0  0  2  0  0  0  0  0  0
  163.5100  212.1270  147.4600 C   0  0  0  0  0  1  0  0  0  0  0  0
  1  5  1  0  0  0  0
  2 22  2  0  0  0  0
  2 14  1  0  0  0  0
  3 11  1  0  0  0  0
  4  1  1  0  0  0  0
  5 22  1  0  0  0  0
  6  9  1  0  0  0  0
  6 13  1  0  0  0  0
  8 29  1  6  0  0  0
  8  4  1  0  0  0  0
  9 17  1  6  0  0  0
  9 12  1  0  0  0  0
  9 21  1  0  0  0  0
 10  3  2  0  0  0  0
 12  8  1  0  0  0  0
 13  8  1  0  0  0  0
 14 20  2  0  0  0  0
 15  7  2  0  0  0  0
 15 16  1  0  0  0  0
 16 25  1  0  0  0  0
 18  2  1  0  0  0  0
 19 28  1  0  0  0  0
 19 27  2  0  0  0  0
 20 27  1  0  0  0  0
 21 26  1  0  0  0  0
 22 19  1  0  0  0  0
 24 11  1  0  0  0  0
 25 10  1  6  0  0  0
 25 23  1  0  0  0  0
 26 15  1  0  0  0  0
 28 23  1  1  0  0  0
 28 24  1  0  0  0  0
 29 30  1  0  0  0  0
M  END
>  <MODEL>
5

>  <REMARK>
 VINA RESULT:      -4.1      1.961      4.956
  Name = 
  1 active torsions:
  status: ('A' for Active; 'I' for Inactive)
    1  A    between atoms: C_8  and  C_27
                            x       y       z     vdW  Elec       q    Type
                         _______ _______ _______ _____ _____    ______ ____

>  <TORSDO>
F 1

$$$$
=
 OpenBabel11052421493D

 30 33  0  0  1  0  0  0  0  0999 V2000
  159.7420  211.2120  152.5080 C   0  0  0  0  0  2  0  0  0  0  0  0
  157.7690  213.2850  151.2420 C   0  0  0  0  0  0  0  0  0  0  0  0
  163.5590  212.7750  148.1940 C   0  0  0  0  0  3  0  0  0  0  0  0
  161.0630  210.7170  153.0690 C   0  0  0  0  0  2  0  0  0  0  0  0
  160.0270  212.2300  151.5120 N   0  0  0  0  0  2  0  0  0  0  0  0
  162.3570  207.6520  153.7510 O   0  0  0  0  0  0  0  0  0  0  0  0
  162.9620  208.3400  148.2270 O   0  0  0  0  0  0  0  0  0  0  0  0
  160.9660  209.3270  153.6990 C   0  0  1  0  0  0  0  0  0  0  0  0
  161.4870  207.4630  152.6760 C   0  0  2  0  0  0  0  0  0  0  0  0
  163.1200  211.5230  148.4170 C   0  0  0  0  0  3  0  0  0  0  0  0
  162.7400  213.8420  147.5200 C   0  0  0  0  0  2  0  0  0  0  0  0
  160.4820  208.4230  152.7530 O   0  0  0  0  0  0  0  0  0  0  0  0
  162.2550  208.9290  154.0770 O   0  0  0  0  0  0  0  0  0  0  0  0
  156.9230  214.0140  150.4680 N   0  0  0  0  0  0  0  0  0  0  0  0
  161.9530  208.5980  148.9350 C   0  0  0  0  0  0  0  0  0  0  0  0
  161.3690  209.9010  148.9300 N   0  0  0  0  0  2  0  0  0  0  0  0
  160.8760  206.0760  152.7920 C   0  0  0  0  0  1  0  0  0  0  0  0
  157.3070  212.8760  152.5980 C   0  0  0  0  0  1  0  0  0  0  0  0
  159.4200  213.4600  149.4940 C   0  0  0  0  0  0  0  0  0  0  0  0
  157.2910  214.4530  149.2370 C   0  0  0  0  0  3  0  0  0  0  0  0
  162.2560  207.6070  151.3590 C   0  0  0  0  0  2  0  0  0  0  0  0
  159.0600  212.9800  150.7610 C   0  0  0  0  0  0  0  0  0  0  0  0
  160.6210  211.9670  147.8910 C   0  0  0  0  0  2  0  0  0  0  0  0
  161.5370  214.2760  148.3700 C   0  0  0  0  0  2  0  0  0  0  0  0
  161.7690  210.9570  148.0090 C   0  0  1  0  0  3  0  0  0  0  0  0
  161.1940  207.3040  149.9080 S   0  0  0  0  0  0  0  0  0  0  0  0
  158.5270  214.1720  148.7550 N   0  0  0  0  0  0  0  0  0  0  0  0
  160.7480  213.0850  148.9170 C   0  0  1  0  0  3  0  0  0  0  0  0
  160.0370  209.3300  154.9190 C   0  0  0  0  0  2  0  0  0  0  0  0
  160.7970  209.5180  156.2220 C   0  0  0  0  0  1  0  0  0  0  0  0
  1  4  1  0  0  0  0
  2 18  1  0  0  0  0
  3 10  2  0  0  0  0
  4  8  1  0  0  0  0
  5  1  1  0  0  0  0
  6 13  1  0  0  0  0
  7 15  2  0  0  0  0
  8 13  1  0  0  0  0
  8 29  1  1  0  0  0
  9 12  1  0  0  0  0
  9 17  1  1  0  0  0
  9  6  1  0  0  0  0
 11  3  1  0  0  0  0
 11 24  1  0  0  0  0
 12  8  1  0  0  0  0
 14  2  2  0  0  0  0
 15 26  1  0  0  0  0
 16 15  1  0  0  0  0
 19 22  2  0  0  0  0
 20 14  1  0  0  0  0
 21  9  1  0  0  0  0
 22  2  1  0  0  0  0
 22  5  1  0  0  0  0
 24 28  1  0  0  0  0
 25 23  1  1  0  0  0
 25 10  1  0  0  0  0
 25 16  1  0  0  0  0
 26 21  1  0  0  0  0
 27 20  2  0  0  0  0
 27 19  1  0  0  0  0
 28 23  1  6  0  0  0
 28 19  1  0  0  0  0
 29 30  1  0  0  0  0
M  END
>  <MODEL>
6

>  <REMARK>
 VINA RESULT:      -3.7      2.975      6.302
  Name = 
  1 active torsions:
  status: ('A' for Active; 'I' for Inactive)
    1  A    between atoms: C_8  and  C_27
                            x       y       z     vdW  Elec       q    Type
                         _______ _______ _______ _____ _____    ______ ____

>  <TORSDO>
F 1

$$$$
=
 OpenBabel11052421493D

 30 33  0  0  1  0  0  0  0  0999 V2000
  158.7060  212.8700  151.5090 C   0  0  0  0  0  2  0  0  0  0  0  0
  156.8490  213.8870  149.2050 C   0  0  0  0  0  0  0  0  0  0  0  0
  163.1930  213.3680  147.6050 C   0  0  0  0  0  3  0  0  0  0  0  0
  159.9150  212.8880  152.4280 C   0  0  0  0  0  2  0  0  0  0  0  0
  159.0920  213.4660  150.2420 N   0  0  0  0  0  2  0  0  0  0  0  0
  161.3530  210.6210  154.5080 O   0  0  0  0  0  0  0  0  0  0  0  0
  163.0960  209.2550  149.3650 O   0  0  0  0  0  0  0  0  0  0  0  0
  159.8330  211.8520  153.5490 C   0  0  1  0  0  0  0  0  0  0  0  0
  160.7720  209.8750  153.4820 C   0  0  2  0  0  0  0  0  0  0  0  0
  162.8560  212.2360  148.2510 C   0  0  0  0  0  3  0  0  0  0  0  0
  162.4330  213.9200  146.4300 C   0  0  0  0  0  2  0  0  0  0  0  0
  159.6750  210.5810  152.9950 O   0  0  0  0  0  0  0  0  0  0  0  0
  161.0410  211.8810  154.2580 O   0  0  0  0  0  0  0  0  0  0  0  0
  156.1210  214.0910  148.0750 N   0  0  0  0  0  0  0  0  0  0  0  0
  161.9320  209.5650  149.7330 C   0  0  0  0  0  0  0  0  0  0  0  0
  161.2240  210.6310  149.0980 N   0  0  0  0  0  2  0  0  0  0  0  0
  160.3060  208.5480  154.0590 C   0  0  0  0  0  1  0  0  0  0  0  0
  156.1440  213.9450  150.5160 C   0  0  0  0  0  1  0  0  0  0  0  0
  158.8190  213.6940  147.8290 C   0  0  0  0  0  0  0  0  0  0  0  0
  156.7040  214.0890  146.8490 C   0  0  0  0  0  3  0  0  0  0  0  0
  161.7940  209.6500  152.3640 C   0  0  0  0  0  2  0  0  0  0  0  0
  158.2400  213.6740  149.1050 C   0  0  0  0  0  0  0  0  0  0  0  0
  160.5040  211.9610  147.1970 C   0  0  0  0  0  2  0  0  0  0  0  0
  161.0300  214.4070  146.8230 C   0  0  0  0  0  2  0  0  0  0  0  0
  161.7000  211.3110  147.9020 C   0  0  1  0  0  3  0  0  0  0  0  0
  161.1220  208.6200  151.0170 S   0  0  0  0  0  0  0  0  0  0  0  0
  158.0400  213.8860  146.7300 N   0  0  0  0  0  0  0  0  0  0  0  0
  160.2750  213.3880  147.6770 C   0  0  1  0  0  3  0  0  0  0  0  0
  158.6610  212.1420  154.4940 C   0  0  0  0  0  2  0  0  0  0  0  0
  157.5230  211.1490  154.3230 C   0  0  0  0  0  1  0  0  0  0  0  0
  1  4  1  0  0  0  0
  2 18  1  0  0  0  0
  3 10  2  0  0  0  0
  4  8  1  0  0  0  0
  5  1  1  0  0  0  0
  7 15  2  0  0  0  0
  8 13  1  0  0  0  0
  8 29  1  1  0  0  0
  9 17  1  1  0  0  0
  9  6  1  0  0  0  0
 11 24  1  0  0  0  0
 11  3  1  0  0  0  0
 12  9  1  0  0  0  0
 12  8  1  0  0  0  0
 13  6  1  0  0  0  0
 14  2  2  0  0  0  0
 15 26  1  0  0  0  0
 16 15  1  0  0  0  0
 19 22  2  0  0  0  0
 20 14  1  0  0  0  0
 21  9  1  0  0  0  0
 22  2  1  0  0  0  0
 22  5  1  0  0  0  0
 23 28  1  0  0  0  0
 25 23  1  1  0  0  0
 25 10  1  0  0  0  0
 25 16  1  0  0  0  0
 26 21  1  0  0  0  0
 27 20  2  0  0  0  0
 27 19  1  0  0  0  0
 28 24  1  6  0  0  0
 28 19  1  0  0  0  0
 30 29  1  0  0  0  0
M  END
>  <MODEL>
7

>  <REMARK>
 VINA RESULT:      -3.3      2.895      6.380
  Name = 
  1 active torsions:
  status: ('A' for Active; 'I' for Inactive)
    1  A    between atoms: C_8  and  C_27
                            x       y       z     vdW  Elec       q    Type
                         _______ _______ _______ _____ _____    ______ ____

>  <TORSDO>
F 1

$$$$
=
 OpenBabel11052421493D

 30 33  0  0  1  0  0  0  0  0999 V2000
  160.7050  210.1970  152.3390 C   0  0  0  0  0  2  0  0  0  0  0  0
  161.1180  212.1790  149.9530 C   0  0  0  0  0  0  0  0  0  0  0  0
  155.8990  213.4550  153.7220 C   0  0  0  0  0  3  0  0  0  0  0  0
  159.9330  209.2440  153.2340 C   0  0  0  0  0  2  0  0  0  0  0  0
  159.7760  211.1860  151.8220 N   0  0  0  0  0  2  0  0  0  0  0  0
  160.4820  207.8940  156.3010 O   0  0  0  0  0  0  0  0  0  0  0  0
  158.6130  213.0840  157.2610 O   0  0  0  0  0  0  0  0  0  0  0  0
  160.8210  208.5120  154.2410 C   0  0  1  0  0  0  0  0  0  0  0  0
  161.1160  209.1360  156.3180 C   0  0  2  0  0  0  0  0  0  0  0  0
  156.9340  213.2190  154.5490 C   0  0  0  0  0  3  0  0  0  0  0  0
  155.9410  214.4420  152.5880 C   0  0  0  0  0  2  0  0  0  0  0  0
  161.5070  209.4460  155.0180 O   0  0  0  0  0  0  0  0  0  0  0  0
  159.9940  207.7550  155.0800 O   0  0  0  0  0  0  0  0  0  0  0  0
  161.3320  213.2320  149.1200 N   0  0  0  0  0  0  0  0  0  0  0  0
  159.4710  212.7120  156.4180 C   0  0  0  0  0  0  0  0  0  0  0  0
  159.3190  213.0240  155.0330 N   0  0  0  0  0  2  0  0  0  0  0  0
  162.3450  209.0360  157.2080 C   0  0  0  0  0  1  0  0  0  0  0  0
  161.9620  210.9630  149.7820 C   0  0  0  0  0  1  0  0  0  0  0  0
  159.3100  213.4180  150.9550 C   0  0  0  0  0  0  0  0  0  0  0  0
  160.5760  214.3570  149.1940 C   0  0  0  0  0  3  0  0  0  0  0  0
  160.1500  210.2020  156.8470 C   0  0  0  0  0  2  0  0  0  0  0  0
  160.0860  212.2520  150.9110 C   0  0  0  0  0  0  0  0  0  0  0  0
  158.7380  214.4530  153.1550 C   0  0  0  0  0  2  0  0  0  0  0  0
  156.9020  214.0070  151.4730 C   0  0  0  0  0  2  0  0  0  0  0  0
  158.2870  213.9130  154.5180 C   0  0  1  0  0  3  0  0  0  0  0  0
  160.9360  211.8440  156.9620 S   0  0  0  0  0  0  0  0  0  0  0  0
  159.5790  214.4490  150.1080 N   0  0  0  0  0  0  0  0  0  0  0  0
  158.2640  213.5650  152.0130 C   0  0  1  0  0  3  0  0  0  0  0  0
  161.8320  207.6010  153.5350 C   0  0  0  0  0  2  0  0  0  0  0  0
  161.3120  206.1810  153.3730 C   0  0  0  0  0  1  0  0  0  0  0  0
  1  4  1  0  0  0  0
  2 22  1  0  0  0  0
  3 10  2  0  0  0  0
  4  8  1  0  0  0  0
  5  1  1  0  0  0  0
  6  9  1  0  0  0  0
  8 29  1  6  0  0  0
  8 12  1  0  0  0  0
  8 13  1  0  0  0  0
  9 21  1  0  0  0  0
  9 17  1  1  0  0  0
 11  3  1  0  0  0  0
 12  9  1  0  0  0  0
 13  6  1  0  0  0  0
 14 20  1  0  0  0  0
 14  2  2  0  0  0  0
 15 26  1  0  0  0  0
 15  7  2  0  0  0  0
 16 15  1  0  0  0  0
 18  2  1  0  0  0  0
 19 28  1  0  0  0  0
 20 27  2  0  0  0  0
 21 26  1  0  0  0  0
 22 19  2  0  0  0  0
 22  5  1  0  0  0  0
 24 11  1  0  0  0  0
 25 23  1  6  0  0  0
 25 10  1  0  0  0  0
 25 16  1  0  0  0  0
 27 19  1  0  0  0  0
 28 24  1  6  0  0  0
 28 23  1  0  0  0  0
 30 29  1  0  0  0  0
M  END
>  <MODEL>
8

>  <REMARK>
 VINA RESULT:      -2.9      3.779      7.633
  Name = 
  1 active torsions:
  status: ('A' for Active; 'I' for Inactive)
    1  A    between atoms: C_8  and  C_27
                            x       y       z     vdW  Elec       q    Type
                         _______ _______ _______ _____ _____    ______ ____

>  <TORSDO>
F 1

$$$$
