=
 OpenBabel11052422583D

 28 29  0  0  1  0  0  0  0  0999 V2000
  161.1240  205.5300  151.3980 C   0  0  2  0  0  3  0  0  0  0  0  0
  162.6900  207.4640  150.8900 C   0  0  0  0  0  1  0  0  0  0  0  0
  162.0170  206.6380  151.9760 C   0  0  1  0  0  3  0  0  0  0  0  0
  160.1660  211.6240  152.4730 O   0  0  0  0  0  0  0  0  0  0  0  0
  160.1730  209.1070  154.9380 C   0  0  0  0  0  0  0  0  0  0  0  0
  161.0260  208.8220  152.7000 C   0  0  0  0  0  3  0  0  0  0  0  0
  159.4650  211.5010  154.6570 N   0  0  0  0  0  0  0  0  0  0  0  0
  160.4280  209.6230  153.6740 C   0  0  0  0  0  0  0  0  0  0  0  0
  161.0890  206.9910  154.3180 C   0  0  0  0  0  3  0  0  0  0  0  0
  159.4610  210.3230  155.8340 S   0  0  0  0  0  0  0  0  0  0  0  0
  160.4890  207.8010  155.2950 C   0  0  0  0  0  3  0  0  0  0  0  0
  158.9550  212.8520  154.8130 C   0  0  0  0  0  1  0  0  0  0  0  0
  160.0250  210.9650  153.5400 C   0  0  0  0  0  0  0  0  0  0  0  0
  161.3580  207.4940  153.0220 C   0  0  0  0  0  0  0  0  0  0  0  0
  160.4760  204.6470  152.4610 C   0  0  0  0  0  2  0  0  0  0  0  0
  160.9150  203.2050  152.2970 C   0  0  0  0  0  1  0  0  0  0  0  0
  161.9170  204.6680  150.4220 C   0  0  0  0  0  2  0  0  0  0  0  0
  161.4180  204.7680  148.9770 C   0  0  1  0  0  3  0  0  0  0  0  0
  161.1370  203.4450  148.3170 C   0  0  0  0  0  0  0  0  0  0  0  0
  161.4390  203.2050  146.9340 N   0  0  0  0  0  2  0  0  0  0  0  0
  160.6580  202.5020  149.0010 O   0  0  0  0  0  0  0  0  0  0  0  0
  163.1770  204.6240  146.0400 C   0  0  0  0  0  2  0  0  0  0  0  0
  161.9470  204.1210  145.9470 C   0  0  0  0  0  0  0  0  0  0  0  0
  161.0710  204.5340  144.8280 C   0  0  0  0  0  0  0  0  0  0  0  0
  159.8750  203.7310  144.4370 C   0  0  0  0  0  1  0  0  0  0  0  0
  161.3290  205.6430  144.1460 C   0  0  0  0  0  2  0  0  0  0  0  0
  160.8400  206.9890  147.8710 C   0  0  0  0  0  1  0  0  0  0  0  0
  160.3530  205.8430  148.7410 C   0  0  0  0  0  2  0  0  0  0  0  0
  1 17  1  6  0  0  0
  1  3  1  0  0  0  0
  1 15  1  0  0  0  0
  3  2  1  6  0  0  0
  3 14  1  0  0  0  0
  4 13  2  0  0  0  0
  5 11  1  0  0  0  0
  5 10  1  0  0  0  0
  6 14  2  0  0  0  0
  6  8  1  0  0  0  0
  7 12  1  0  0  0  0
  7 10  1  0  0  0  0
  8  5  2  0  0  0  0
  9 11  2  0  0  0  0
 13  8  1  0  0  0  0
 13  7  1  0  0  0  0
 14  9  1  0  0  0  0
 16 15  1  0  0  0  0
 18 28  1  1  0  0  0
 18 17  1  0  0  0  0
 19 18  1  0  0  0  0
 19 21  2  0  0  0  0
 20 19  1  0  0  0  0
 23 22  2  0  0  0  0
 23 20  1  0  0  0  0
 24 23  1  0  0  0  0
 25 24  1  0  0  0  0
 26 24  2  0  0  0  0
 27 28  1  0  0  0  0
M  END
>  <MODEL>
1

>  <REMARK>
 VINA RESULT:      -7.5      0.000      0.000
  Name = 
  9 active torsions:
  status: ('A' for Active; 'I' for Inactive)
    1  A    between atoms: C_1  and  C_2
    2  A    between atoms: C_1  and  C_17
    3  A    between atoms: C_1  and  C_26
    4  A    between atoms: N_3  and  C_11
    5  A    between atoms: C_6  and  C_11
    6  A    between atoms: C_16  and  C_27
    7  A    between atoms: C_17  and  C_27
    8  A    between atoms: C_20  and  C_25
    9  A    between atoms: C_20  and  C_27
                            x       y       z     vdW  Elec       q    Type
                         _______ _______ _______ _____ _____    ______ ____

>  <TORSDO>
F 9

$$$$
=
 OpenBabel11052422583D

 28 29  0  0  1  0  0  0  0  0999 V2000
  161.1170  204.5520  149.8170 C   0  0  2  0  0  3  0  0  0  0  0  0
  160.1340  206.2410  148.1940 C   0  0  0  0  0  1  0  0  0  0  0  0
  161.2420  205.9520  149.1960 C   0  0  1  0  0  3  0  0  0  0  0  0
  160.4280  206.8320  154.4010 O   0  0  0  0  0  0  0  0  0  0  0  0
  161.7110  209.1090  152.0390 C   0  0  0  0  0  0  0  0  0  0  0  0
  161.0540  206.8450  151.5290 C   0  0  0  0  0  3  0  0  0  0  0  0
  161.1500  209.0100  154.4860 N   0  0  0  0  0  0  0  0  0  0  0  0
  161.2060  207.8820  152.4500 C   0  0  0  0  0  0  0  0  0  0  0  0
  161.9330  208.3260  149.7940 C   0  0  0  0  0  3  0  0  0  0  0  0
  161.7580  210.0990  153.3820 S   0  0  0  0  0  0  0  0  0  0  0  0
  162.0830  209.3660  150.7250 C   0  0  0  0  0  3  0  0  0  0  0  0
  160.9370  209.2700  155.8990 C   0  0  0  0  0  1  0  0  0  0  0  0
  160.8970  207.8500  153.8230 C   0  0  0  0  0  0  0  0  0  0  0  0
  161.4220  207.0660  150.1900 C   0  0  0  0  0  0  0  0  0  0  0  0
  161.7810  204.4270  151.1860 C   0  0  0  0  0  2  0  0  0  0  0  0
  160.8640  203.7130  152.1590 C   0  0  0  0  0  1  0  0  0  0  0  0
  161.6850  203.5020  148.8680 C   0  0  0  0  0  2  0  0  0  0  0  0
  160.6120  202.6160  148.2290 C   0  0  1  0  0  3  0  0  0  0  0  0
  161.0760  201.8320  147.0310 C   0  0  0  0  0  0  0  0  0  0  0  0
  161.3910  202.4650  145.7820 N   0  0  0  0  0  2  0  0  0  0  0  0
  161.2330  200.5860  147.1300 O   0  0  0  0  0  0  0  0  0  0  0  0
  160.1560  204.3060  144.8240 C   0  0  0  0  0  2  0  0  0  0  0  0
  161.2590  203.8500  145.4120 C   0  0  0  0  0  0  0  0  0  0  0  0
  162.3890  204.7730  145.6630 C   0  0  0  0  0  0  0  0  0  0  0  0
  163.7380  204.2660  146.0510 C   0  0  0  0  0  1  0  0  0  0  0  0
  162.2260  206.0840  145.5390 C   0  0  0  0  0  2  0  0  0  0  0  0
  160.5870  200.9690  150.1740 C   0  0  0  0  0  1  0  0  0  0  0  0
  159.7610  201.8220  149.2250 C   0  0  0  0  0  2  0  0  0  0  0  0
  1 17  1  6  0  0  0
  1 15  1  0  0  0  0
  3  2  1  1  0  0  0
  3  1  1  0  0  0  0
  3 14  1  0  0  0  0
  5  8  1  0  0  0  0
  5 10  1  0  0  0  0
  6  8  2  0  0  0  0
  7 12  1  0  0  0  0
  8 13  1  0  0  0  0
  9 14  2  0  0  0  0
  9 11  1  0  0  0  0
 10  7  1  0  0  0  0
 11  5  2  0  0  0  0
 13  4  2  0  0  0  0
 13  7  1  0  0  0  0
 14  6  1  0  0  0  0
 15 16  1  0  0  0  0
 18 17  1  1  0  0  0
 18 28  1  0  0  0  0
 19 21  2  0  0  0  0
 19 18  1  0  0  0  0
 20 19  1  0  0  0  0
 22 23  2  0  0  0  0
 23 24  1  0  0  0  0
 23 20  1  0  0  0  0
 24 25  1  0  0  0  0
 26 24  2  0  0  0  0
 28 27  1  0  0  0  0
M  END
>  <MODEL>
2

>  <REMARK>
 VINA RESULT:      -7.4      1.969      3.282
  Name = 
  9 active torsions:
  status: ('A' for Active; 'I' for Inactive)
    1  A    between atoms: C_1  and  C_2
    2  A    between atoms: C_1  and  C_17
    3  A    between atoms: C_1  and  C_26
    4  A    between atoms: N_3  and  C_11
    5  A    between atoms: C_6  and  C_11
    6  A    between atoms: C_16  and  C_27
    7  A    between atoms: C_17  and  C_27
    8  A    between atoms: C_20  and  C_25
    9  A    between atoms: C_20  and  C_27
                            x       y       z     vdW  Elec       q    Type
                         _______ _______ _______ _____ _____    ______ ____

>  <TORSDO>
F 9

$$$$
=
 OpenBabel11052422583D

 28 29  0  0  1  0  0  0  0  0999 V2000
  161.0280  209.6060  154.0700 C   0  0  2  0  0  3  0  0  0  0  0  0
  160.3620  207.3940  155.1270 C   0  0  0  0  0  1  0  0  0  0  0  0
  161.2390  208.0840  154.0930 C   0  0  1  0  0  3  0  0  0  0  0  0
  160.9000  203.1460  152.0860 O   0  0  0  0  0  0  0  0  0  0  0  0
  161.0670  206.1640  150.2780 C   0  0  0  0  0  0  0  0  0  0  0  0
  161.0830  206.0170  152.6860 C   0  0  0  0  0  3  0  0  0  0  0  0
  160.9080  203.6930  149.8560 N   0  0  0  0  0  0  0  0  0  0  0  0
  161.0320  205.3980  151.4360 C   0  0  0  0  0  0  0  0  0  0  0  0
  161.2030  208.1790  151.5510 C   0  0  0  0  0  3  0  0  0  0  0  0
  160.9870  205.1100  148.9860 S   0  0  0  0  0  0  0  0  0  0  0  0
  161.1530  207.5510  150.2970 C   0  0  0  0  0  3  0  0  0  0  0  0
  160.8150  202.3580  149.2900 C   0  0  0  0  0  1  0  0  0  0  0  0
  160.9450  204.0170  151.1760 C   0  0  0  0  0  0  0  0  0  0  0  0
  161.1670  207.4200  152.7450 C   0  0  0  0  0  0  0  0  0  0  0  0
  162.2740  210.4030  154.4490 C   0  0  0  0  0  2  0  0  0  0  0  0
  162.4430  210.4450  155.9550 C   0  0  0  0  0  1  0  0  0  0  0  0
  159.8680  209.9920  154.9820 C   0  0  0  0  0  2  0  0  0  0  0  0
  158.9370  211.0420  154.3700 C   0  0  1  0  0  3  0  0  0  0  0  0
  158.8920  212.3500  155.1130 C   0  0  0  0  0  0  0  0  0  0  0  0
  157.6530  212.9970  155.4420 N   0  0  0  0  0  2  0  0  0  0  0  0
  159.9670  212.8820  155.4960 O   0  0  0  0  0  0  0  0  0  0  0  0
  155.6390  213.2530  154.1340 C   0  0  0  0  0  2  0  0  0  0  0  0
  156.3110  212.6130  155.0880 C   0  0  0  0  0  0  0  0  0  0  0  0
  155.6600  211.5080  155.8260 C   0  0  0  0  0  0  0  0  0  0  0  0
  155.2670  211.6510  157.2590 C   0  0  0  0  0  1  0  0  0  0  0  0
  155.4030  210.3550  155.2200 C   0  0  0  0  0  2  0  0  0  0  0  0
  159.3600  212.5830  152.3850 C   0  0  0  0  0  1  0  0  0  0  0  0
  159.0320  211.1720  152.8470 C   0  0  0  0  0  2  0  0  0  0  0  0
  1  3  1  0  0  0  0
  1 15  1  1  0  0  0
  1 17  1  0  0  0  0
  3  2  1  1  0  0  0
  5 11  2  0  0  0  0
  5  8  1  0  0  0  0
  6 14  1  0  0  0  0
  7 13  1  0  0  0  0
  8  6  2  0  0  0  0
  9 14  2  0  0  0  0
 10  7  1  0  0  0  0
 10  5  1  0  0  0  0
 11  9  1  0  0  0  0
 12  7  1  0  0  0  0
 13  8  1  0  0  0  0
 13  4  2  0  0  0  0
 14  3  1  0  0  0  0
 15 16  1  0  0  0  0
 18 28  1  6  0  0  0
 18 17  1  0  0  0  0
 18 19  1  0  0  0  0
 19 20  1  0  0  0  0
 19 21  2  0  0  0  0
 22 23  2  0  0  0  0
 23 20  1  0  0  0  0
 23 24  1  0  0  0  0
 24 25  1  0  0  0  0
 26 24  2  0  0  0  0
 27 28  1  0  0  0  0
M  END
>  <MODEL>
3

>  <REMARK>
 VINA RESULT:      -7.3      3.105      9.253
  Name = 
  9 active torsions:
  status: ('A' for Active; 'I' for Inactive)
    1  A    between atoms: C_1  and  C_2
    2  A    between atoms: C_1  and  C_17
    3  A    between atoms: C_1  and  C_26
    4  A    between atoms: N_3  and  C_11
    5  A    between atoms: C_6  and  C_11
    6  A    between atoms: C_16  and  C_27
    7  A    between atoms: C_17  and  C_27
    8  A    between atoms: C_20  and  C_25
    9  A    between atoms: C_20  and  C_27
                            x       y       z     vdW  Elec       q    Type
                         _______ _______ _______ _____ _____    ______ ____

>  <TORSDO>
F 9

$$$$
=
 OpenBabel11052422583D

 28 29  0  0  1  0  0  0  0  0999 V2000
  161.8320  208.3900  151.9220 C   0  0  2  0  0  3  0  0  0  0  0  0
  161.9630  209.8820  149.8710 C   0  0  0  0  0  1  0  0  0  0  0  0
  161.3460  208.6350  150.4860 C   0  0  1  0  0  3  0  0  0  0  0  0
  160.4280  203.3770  150.6920 O   0  0  0  0  0  0  0  0  0  0  0  0
  161.6420  205.2130  147.9420 C   0  0  0  0  0  0  0  0  0  0  0  0
  161.0780  206.1780  150.0800 C   0  0  0  0  0  3  0  0  0  0  0  0
  161.0600  202.8460  148.5490 N   0  0  0  0  0  0  0  0  0  0  0  0
  161.1810  205.0650  149.2440 C   0  0  0  0  0  0  0  0  0  0  0  0
  161.9110  207.5660  148.2480 C   0  0  0  0  0  3  0  0  0  0  0  0
  161.6350  203.6990  147.2390 S   0  0  0  0  0  0  0  0  0  0  0  0
  162.0150  206.4430  147.4120 C   0  0  0  0  0  3  0  0  0  0  0  0
  160.8160  201.4140  148.5840 C   0  0  0  0  0  1  0  0  0  0  0  0
  160.8630  203.7310  149.5630 C   0  0  0  0  0  0  0  0  0  0  0  0
  161.4430  207.4400  149.5780 C   0  0  0  0  0  0  0  0  0  0  0  0
  160.7670  207.7870  152.8360 C   0  0  0  0  0  2  0  0  0  0  0  0
  161.3340  206.6160  153.6150 C   0  0  0  0  0  1  0  0  0  0  0  0
  162.3610  209.6860  152.5280 C   0  0  0  0  0  2  0  0  0  0  0  0
  161.4070  210.3140  153.5490 C   0  0  1  0  0  3  0  0  0  0  0  0
  161.9830  210.4740  154.9300 C   0  0  0  0  0  0  0  0  0  0  0  0
  161.2020  210.2450  156.1120 N   0  0  0  0  0  2  0  0  0  0  0  0
  163.1970  210.7820  155.0620 O   0  0  0  0  0  0  0  0  0  0  0  0
  159.3780  208.6640  156.1960 C   0  0  0  0  0  2  0  0  0  0  0  0
  159.8030  209.9250  156.2230 C   0  0  0  0  0  0  0  0  0  0  0  0
  158.8200  211.0250  156.3370 C   0  0  0  0  0  0  0  0  0  0  0  0
  157.4460  210.9060  155.7640 C   0  0  0  0  0  1  0  0  0  0  0  0
  159.1390  212.1510  156.9640 C   0  0  0  0  0  2  0  0  0  0  0  0
  159.2060  211.1900  152.6120 C   0  0  0  0  0  1  0  0  0  0  0  0
  160.6270  211.5270  153.0340 C   0  0  0  0  0  2  0  0  0  0  0  0
  1 17  1  1  0  0  0
  1 15  1  0  0  0  0
  3  2  1  6  0  0  0
  3  1  1  0  0  0  0
  5  8  1  0  0  0  0
  7 12  1  0  0  0  0
  7 13  1  0  0  0  0
  8 13  1  0  0  0  0
  8  6  2  0  0  0  0
  9 14  2  0  0  0  0
 10  5  1  0  0  0  0
 10  7  1  0  0  0  0
 11  5  2  0  0  0  0
 11  9  1  0  0  0  0
 13  4  2  0  0  0  0
 14  6  1  0  0  0  0
 14  3  1  0  0  0  0
 15 16  1  0  0  0  0
 18 17  1  6  0  0  0
 18 19  1  0  0  0  0
 19 21  2  0  0  0  0
 19 20  1  0  0  0  0
 20 23  1  0  0  0  0
 22 23  2  0  0  0  0
 23 24  1  0  0  0  0
 24 26  2  0  0  0  0
 25 24  1  0  0  0  0
 27 28  1  0  0  0  0
 28 18  1  0  0  0  0
M  END
>  <MODEL>
4

>  <REMARK>
 VINA RESULT:      -7.2      2.974      8.871
  Name = 
  9 active torsions:
  status: ('A' for Active; 'I' for Inactive)
    1  A    between atoms: C_1  and  C_2
    2  A    between atoms: C_1  and  C_17
    3  A    between atoms: C_1  and  C_26
    4  A    between atoms: N_3  and  C_11
    5  A    between atoms: C_6  and  C_11
    6  A    between atoms: C_16  and  C_27
    7  A    between atoms: C_17  and  C_27
    8  A    between atoms: C_20  and  C_25
    9  A    between atoms: C_20  and  C_27
                            x       y       z     vdW  Elec       q    Type
                         _______ _______ _______ _____ _____    ______ ____

>  <TORSDO>
F 9

$$$$
=
 OpenBabel11052422583D

 28 29  0  0  1  0  0  0  0  0999 V2000
  160.8860  209.4480  154.2090 C   0  0  2  0  0  3  0  0  0  0  0  0
  160.2000  207.4580  155.6310 C   0  0  0  0  0  1  0  0  0  0  0  0
  161.1250  207.9660  154.5360 C   0  0  1  0  0  3  0  0  0  0  0  0
  161.3620  208.3680  149.2150 O   0  0  0  0  0  0  0  0  0  0  0  0
  161.1720  205.4070  151.1130 C   0  0  0  0  0  0  0  0  0  0  0  0
  161.2220  207.6260  152.0560 C   0  0  0  0  0  3  0  0  0  0  0  0
  161.2960  206.1280  148.7100 N   0  0  0  0  0  0  0  0  0  0  0  0
  161.2330  206.7840  150.9430 C   0  0  0  0  0  0  0  0  0  0  0  0
  161.0900  205.6490  153.4870 C   0  0  0  0  0  3  0  0  0  0  0  0
  161.2060  204.7190  149.5920 S   0  0  0  0  0  0  0  0  0  0  0  0
  161.0990  204.8060  152.3640 C   0  0  0  0  0  3  0  0  0  0  0  0
  161.3610  206.2160  147.2620 C   0  0  0  0  0  1  0  0  0  0  0  0
  161.3000  207.1660  149.5900 C   0  0  0  0  0  0  0  0  0  0  0  0
  161.1530  207.0550  153.3390 C   0  0  0  0  0  0  0  0  0  0  0  0
  162.1060  210.3340  154.4460 C   0  0  0  0  0  2  0  0  0  0  0  0
  162.4060  210.4420  155.9280 C   0  0  0  0  0  1  0  0  0  0  0  0
  159.6970  209.9780  155.0040 C   0  0  0  0  0  2  0  0  0  0  0  0
  158.9200  211.0780  154.2750 C   0  0  1  0  0  3  0  0  0  0  0  0
  158.8890  212.4030  154.9880 C   0  0  0  0  0  0  0  0  0  0  0  0
  157.6570  213.0420  155.3540 N   0  0  0  0  0  2  0  0  0  0  0  0
  159.9730  212.9570  155.3110 O   0  0  0  0  0  0  0  0  0  0  0  0
  155.5820  213.2490  154.1370 C   0  0  0  0  0  2  0  0  0  0  0  0
  156.3070  212.6340  155.0680 C   0  0  0  0  0  0  0  0  0  0  0  0
  155.7070  211.5310  155.8510 C   0  0  0  0  0  0  0  0  0  0  0  0
  155.3400  210.2320  155.2130 C   0  0  0  0  0  1  0  0  0  0  0  0
  155.4870  211.6710  157.1520 C   0  0  0  0  0  2  0  0  0  0  0  0
  158.6210  212.4190  152.1290 C   0  0  0  0  0  1  0  0  0  0  0  0
  159.1920  211.1650  152.7700 C   0  0  0  0  0  2  0  0  0  0  0  0
  1 15  1  1  0  0  0
  1  3  1  0  0  0  0
  1 17  1  0  0  0  0
  3  2  1  1  0  0  0
  4 13  2  0  0  0  0
  5 11  1  0  0  0  0
  6 14  2  0  0  0  0
  7 13  1  0  0  0  0
  7 10  1  0  0  0  0
  8  5  2  0  0  0  0
  8  6  1  0  0  0  0
 10  5  1  0  0  0  0
 11  9  2  0  0  0  0
 12  7  1  0  0  0  0
 13  8  1  0  0  0  0
 14  9  1  0  0  0  0
 14  3  1  0  0  0  0
 15 16  1  0  0  0  0
 18 28  1  6  0  0  0
 18 19  1  0  0  0  0
 18 17  1  0  0  0  0
 19 21  2  0  0  0  0
 19 20  1  0  0  0  0
 22 23  2  0  0  0  0
 23 20  1  0  0  0  0
 23 24  1  0  0  0  0
 24 26  2  0  0  0  0
 25 24  1  0  0  0  0
 27 28  1  0  0  0  0
M  END
>  <MODEL>
5

>  <REMARK>
 VINA RESULT:      -7.2      2.863      8.922
  Name = 
  9 active torsions:
  status: ('A' for Active; 'I' for Inactive)
    1  A    between atoms: C_1  and  C_2
    2  A    between atoms: C_1  and  C_17
    3  A    between atoms: C_1  and  C_26
    4  A    between atoms: N_3  and  C_11
    5  A    between atoms: C_6  and  C_11
    6  A    between atoms: C_16  and  C_27
    7  A    between atoms: C_17  and  C_27
    8  A    between atoms: C_20  and  C_25
    9  A    between atoms: C_20  and  C_27
                            x       y       z     vdW  Elec       q    Type
                         _______ _______ _______ _____ _____    ______ ____

>  <TORSDO>
F 9

$$$$
=
 OpenBabel11052422583D

 28 29  0  0  1  0  0  0  0  0999 V2000
  161.7350  207.3090  151.5230 C   0  0  2  0  0  3  0  0  0  0  0  0
  161.3850  207.4810  149.0130 C   0  0  0  0  0  1  0  0  0  0  0  0
  160.9590  206.7930  150.3020 C   0  0  1  0  0  3  0  0  0  0  0  0
  161.4180  203.1140  146.4570 O   0  0  0  0  0  0  0  0  0  0  0  0
  160.8260  202.5420  149.8830 C   0  0  0  0  0  0  0  0  0  0  0  0
  161.0990  204.7260  148.8950 C   0  0  0  0  0  3  0  0  0  0  0  0
  161.1130  201.2410  147.7520 N   0  0  0  0  0  0  0  0  0  0  0  0
  161.0500  203.3370  148.7660 C   0  0  0  0  0  0  0  0  0  0  0  0
  160.6930  204.4650  151.2910 C   0  0  0  0  0  3  0  0  0  0  0  0
  160.8320  200.9540  149.3680 S   0  0  0  0  0  0  0  0  0  0  0  0
  160.6440  203.0690  151.1560 C   0  0  0  0  0  3  0  0  0  0  0  0
  161.2360  200.2250  146.7220 C   0  0  0  0  0  1  0  0  0  0  0  0
  161.2060  202.5880  147.5840 C   0  0  0  0  0  0  0  0  0  0  0  0
  160.9220  205.2960  150.1680 C   0  0  0  0  0  0  0  0  0  0  0  0
  162.3780  206.2020  152.3540 C   0  0  0  0  0  2  0  0  0  0  0  0
  161.8230  206.2030  153.7650 C   0  0  0  0  0  1  0  0  0  0  0  0
  160.8260  208.1580  152.4060 C   0  0  0  0  0  2  0  0  0  0  0  0
  160.8050  209.6380  152.0120 C   0  0  1  0  0  3  0  0  0  0  0  0
  159.9560  210.5120  152.8960 C   0  0  0  0  0  0  0  0  0  0  0  0
  160.2770  210.7370  154.2770 N   0  0  0  0  0  2  0  0  0  0  0  0
  158.9540  211.0970  152.4080 O   0  0  0  0  0  0  0  0  0  0  0  0
  162.5760  210.6380  155.0120 C   0  0  0  0  0  2  0  0  0  0  0  0
  161.3340  210.1600  155.0650 C   0  0  0  0  0  0  0  0  0  0  0  0
  161.0360  208.9940  155.9260 C   0  0  0  0  0  0  0  0  0  0  0  0
  159.7080  208.3120  155.8830 C   0  0  0  0  0  1  0  0  0  0  0  0
  161.9550  208.5180  156.7570 C   0  0  0  0  0  2  0  0  0  0  0  0
  162.2610  210.7110  150.2160 C   0  0  0  0  0  1  0  0  0  0  0  0
  162.1740  210.2250  151.6540 C   0  0  0  0  0  2  0  0  0  0  0  0
  1 15  1  1  0  0  0
  1 17  1  0  0  0  0
  3  2  1  6  0  0  0
  3  1  1  0  0  0  0
  4 13  2  0  0  0  0
  5 11  1  0  0  0  0
  6 14  2  0  0  0  0
  7 10  1  0  0  0  0
  8  6  1  0  0  0  0
  8  5  2  0  0  0  0
 10  5  1  0  0  0  0
 11  9  2  0  0  0  0
 12  7  1  0  0  0  0
 13  7  1  0  0  0  0
 13  8  1  0  0  0  0
 14  3  1  0  0  0  0
 14  9  1  0  0  0  0
 15 16  1  0  0  0  0
 18 28  1  1  0  0  0
 18 17  1  0  0  0  0
 18 19  1  0  0  0  0
 19 20  1  0  0  0  0
 20 23  1  0  0  0  0
 21 19  2  0  0  0  0
 22 23  2  0  0  0  0
 23 24  1  0  0  0  0
 24 26  2  0  0  0  0
 25 24  1  0  0  0  0
 27 28  1  0  0  0  0
M  END
>  <MODEL>
6

>  <REMARK>
 VINA RESULT:      -7.1      2.916      8.605
  Name = 
  9 active torsions:
  status: ('A' for Active; 'I' for Inactive)
    1  A    between atoms: C_1  and  C_2
    2  A    between atoms: C_1  and  C_17
    3  A    between atoms: C_1  and  C_26
    4  A    between atoms: N_3  and  C_11
    5  A    between atoms: C_6  and  C_11
    6  A    between atoms: C_16  and  C_27
    7  A    between atoms: C_17  and  C_27
    8  A    between atoms: C_20  and  C_25
    9  A    between atoms: C_20  and  C_27
                            x       y       z     vdW  Elec       q    Type
                         _______ _______ _______ _____ _____    ______ ____

>  <TORSDO>
F 9

$$$$
=
 OpenBabel11052422583D

 28 29  0  0  1  0  0  0  0  0999 V2000
  161.0510  208.1040  152.0440 C   0  0  2  0  0  3  0  0  0  0  0  0
  160.6200  206.6150  154.0570 C   0  0  0  0  0  1  0  0  0  0  0  0
  161.3630  206.7690  152.7390 C   0  0  1  0  0  3  0  0  0  0  0  0
  161.5640  205.5680  147.5390 O   0  0  0  0  0  0  0  0  0  0  0  0
  160.9570  203.3500  150.2070 C   0  0  0  0  0  0  0  0  0  0  0  0
  161.3630  205.7140  150.4680 C   0  0  0  0  0  3  0  0  0  0  0  0
  161.1470  203.3150  147.7020 N   0  0  0  0  0  0  0  0  0  0  0  0
  161.2250  204.5930  149.6470 C   0  0  0  0  0  0  0  0  0  0  0  0
  160.9550  204.2810  152.4060 C   0  0  0  0  0  3  0  0  0  0  0  0
  160.8580  202.2530  148.9520 S   0  0  0  0  0  0  0  0  0  0  0  0
  160.8160  203.1570  151.5760 C   0  0  0  0  0  3  0  0  0  0  0  0
  161.1980  202.9670  146.2930 C   0  0  0  0  0  1  0  0  0  0  0  0
  161.3250  204.5500  148.2440 C   0  0  0  0  0  0  0  0  0  0  0  0
  161.2300  205.5570  151.8590 C   0  0  0  0  0  0  0  0  0  0  0  0
  162.2560  208.7300  151.3480 C   0  0  0  0  0  2  0  0  0  0  0  0
  161.9540  208.9820  149.8840 C   0  0  0  0  0  1  0  0  0  0  0  0
  160.4570  209.0920  153.0430 C   0  0  0  0  0  2  0  0  0  0  0  0
  161.2050  210.4280  153.0940 C   0  0  1  0  0  3  0  0  0  0  0  0
  160.4330  211.6000  152.5490 C   0  0  0  0  0  0  0  0  0  0  0  0
  159.5920  212.4110  153.3830 N   0  0  0  0  0  2  0  0  0  0  0  0
  160.5520  211.9080  151.3340 O   0  0  0  0  0  0  0  0  0  0  0  0
  159.9300  212.8980  155.7240 C   0  0  0  0  0  2  0  0  0  0  0  0
  159.2660  212.2430  154.7750 C   0  0  0  0  0  0  0  0  0  0  0  0
  158.1930  211.2970  155.1540 C   0  0  0  0  0  0  0  0  0  0  0  0
  156.7930  211.4690  154.6640 C   0  0  0  0  0  1  0  0  0  0  0  0
  158.4560  210.2610  155.9390 C   0  0  0  0  0  2  0  0  0  0  0  0
  161.8830  209.5350  155.3810 C   0  0  0  0  0  1  0  0  0  0  0  0
  161.9420  210.7000  154.4080 C   0  0  0  0  0  2  0  0  0  0  0  0
  1 15  1  1  0  0  0
  1  3  1  0  0  0  0
  1 17  1  0  0  0  0
  3  2  1  1  0  0  0
  4 13  2  0  0  0  0
  5 11  1  0  0  0  0
  6 14  2  0  0  0  0
  7 13  1  0  0  0  0
  7 10  1  0  0  0  0
  8  5  2  0  0  0  0
  8  6  1  0  0  0  0
 10  5  1  0  0  0  0
 11  9  2  0  0  0  0
 12  7  1  0  0  0  0
 13  8  1  0  0  0  0
 14  9  1  0  0  0  0
 14  3  1  0  0  0  0
 16 15  1  0  0  0  0
 18 17  1  1  0  0  0
 18 28  1  0  0  0  0
 19 18  1  0  0  0  0
 19 20  1  0  0  0  0
 20 23  1  0  0  0  0
 21 19  2  0  0  0  0
 23 24  1  0  0  0  0
 23 22  2  0  0  0  0
 24 26  2  0  0  0  0
 25 24  1  0  0  0  0
 28 27  1  0  0  0  0
M  END
>  <MODEL>
7

>  <REMARK>
 VINA RESULT:      -7.1      2.599      8.715
  Name = 
  9 active torsions:
  status: ('A' for Active; 'I' for Inactive)
    1  A    between atoms: C_1  and  C_2
    2  A    between atoms: C_1  and  C_17
    3  A    between atoms: C_1  and  C_26
    4  A    between atoms: N_3  and  C_11
    5  A    between atoms: C_6  and  C_11
    6  A    between atoms: C_16  and  C_27
    7  A    between atoms: C_17  and  C_27
    8  A    between atoms: C_20  and  C_25
    9  A    between atoms: C_20  and  C_27
                            x       y       z     vdW  Elec       q    Type
                         _______ _______ _______ _____ _____    ______ ____

>  <TORSDO>
F 9

$$$$
=
 OpenBabel11052422583D

 28 29  0  0  1  0  0  0  0  0999 V2000
  161.2530  209.1470  155.3760 C   0  0  2  0  0  3  0  0  0  0  0  0
  159.9960  207.0010  155.8900 C   0  0  0  0  0  1  0  0  0  0  0  0
  161.1350  207.6390  155.1090 C   0  0  1  0  0  3  0  0  0  0  0  0
  160.9050  203.2010  152.1460 O   0  0  0  0  0  0  0  0  0  0  0  0
  161.1200  206.5200  150.9840 C   0  0  0  0  0  0  0  0  0  0  0  0
  161.0460  205.8950  153.3130 C   0  0  0  0  0  3  0  0  0  0  0  0
  160.9930  204.1830  150.0710 N   0  0  0  0  0  0  0  0  0  0  0  0
  161.0460  205.5380  151.9640 C   0  0  0  0  0  0  0  0  0  0  0  0
  161.1950  208.2400  152.6390 C   0  0  0  0  0  3  0  0  0  0  0  0
  161.0960  205.7460  149.5050 S   0  0  0  0  0  0  0  0  0  0  0  0
  161.1950  207.8750  151.2830 C   0  0  0  0  0  3  0  0  0  0  0  0
  160.9310  202.9890  149.2470 C   0  0  0  0  0  1  0  0  0  0  0  0
  160.9780  204.2370  151.4300 C   0  0  0  0  0  0  0  0  0  0  0  0
  161.1180  207.2570  153.6550 C   0  0  0  0  0  0  0  0  0  0  0  0
  162.2190  209.4970  156.5050 C   0  0  0  0  0  2  0  0  0  0  0  0
  163.0550  210.7070  156.1350 C   0  0  0  0  0  1  0  0  0  0  0  0
  159.8790  209.7400  155.6670 C   0  0  0  0  0  2  0  0  0  0  0  0
  159.5880  211.0200  154.8770 C   0  0  1  0  0  3  0  0  0  0  0  0
  159.2120  212.2080  155.7210 C   0  0  0  0  0  0  0  0  0  0  0  0
  157.9080  212.8050  155.6560 N   0  0  0  0  0  2  0  0  0  0  0  0
  160.0480  212.6740  156.5390 O   0  0  0  0  0  0  0  0  0  0  0  0
  156.1890  211.3060  154.8640 C   0  0  0  0  0  2  0  0  0  0  0  0
  156.8080  212.4820  154.7870 C   0  0  0  0  0  0  0  0  0  0  0  0
  156.3810  213.4670  153.7690 C   0  0  0  0  0  0  0  0  0  0  0  0
  157.3730  214.1810  152.9110 C   0  0  0  0  0  1  0  0  0  0  0  0
  155.0940  213.7340  153.5890 C   0  0  0  0  0  2  0  0  0  0  0  0
  159.9190  211.6650  152.4340 C   0  0  0  0  0  1  0  0  0  0  0  0
  160.5870  211.3200  153.7550 C   0  0  0  0  0  2  0  0  0  0  0  0
  1 17  1  1  0  0  0
  1 15  1  0  0  0  0
  3  1  1  0  0  0  0
  3  2  1  6  0  0  0
  5 11  2  0  0  0  0
  5  8  1  0  0  0  0
  6 14  1  0  0  0  0
  7 13  1  0  0  0  0
  8  6  2  0  0  0  0
  9 14  2  0  0  0  0
 10  7  1  0  0  0  0
 10  5  1  0  0  0  0
 11  9  1  0  0  0  0
 12  7  1  0  0  0  0
 13  8  1  0  0  0  0
 13  4  2  0  0  0  0
 14  3  1  0  0  0  0
 16 15  1  0  0  0  0
 18 28  1  1  0  0  0
 18 17  1  0  0  0  0
 18 19  1  0  0  0  0
 19 21  2  0  0  0  0
 20 19  1  0  0  0  0
 23 22  2  0  0  0  0
 23 20  1  0  0  0  0
 24 23  1  0  0  0  0
 25 24  1  0  0  0  0
 26 24  2  0  0  0  0
 27 28  1  0  0  0  0
M  END
>  <MODEL>
8

>  <REMARK>
 VINA RESULT:      -7.1      3.031      9.021
  Name = 
  9 active torsions:
  status: ('A' for Active; 'I' for Inactive)
    1  A    between atoms: C_1  and  C_2
    2  A    between atoms: C_1  and  C_17
    3  A    between atoms: C_1  and  C_26
    4  A    between atoms: N_3  and  C_11
    5  A    between atoms: C_6  and  C_11
    6  A    between atoms: C_16  and  C_27
    7  A    between atoms: C_17  and  C_27
    8  A    between atoms: C_20  and  C_25
    9  A    between atoms: C_20  and  C_27
                            x       y       z     vdW  Elec       q    Type
                         _______ _______ _______ _____ _____    ______ ____

>  <TORSDO>
F 9

$$$$
=
 OpenBabel11052422583D

 28 29  0  0  1  0  0  0  0  0999 V2000
  160.3150  209.9970  153.1540 C   0  0  2  0  0  3  0  0  0  0  0  0
  162.5030  209.9520  151.8650 C   0  0  0  0  0  1  0  0  0  0  0  0
  161.1100  209.3580  152.0050 C   0  0  1  0  0  3  0  0  0  0  0  0
  160.8080  205.3420  148.4960 O   0  0  0  0  0  0  0  0  0  0  0  0
  161.1180  205.0840  151.9960 C   0  0  0  0  0  0  0  0  0  0  0  0
  161.0130  207.1700  150.7890 C   0  0  0  0  0  3  0  0  0  0  0  0
  160.9400  203.5940  149.9810 N   0  0  0  0  0  0  0  0  0  0  0  0
  161.0120  205.7740  150.7950 C   0  0  0  0  0  0  0  0  0  0  0  0
  161.2300  207.1280  153.2240 C   0  0  0  0  0  3  0  0  0  0  0  0
  161.0850  203.4540  151.6340 S   0  0  0  0  0  0  0  0  0  0  0  0
  161.2270  205.7250  153.2240 C   0  0  0  0  0  3  0  0  0  0  0  0
  160.8600  202.4880  149.0430 C   0  0  0  0  0  1  0  0  0  0  0  0
  160.9120  204.9210  149.6800 C   0  0  0  0  0  0  0  0  0  0  0  0
  161.1260  207.8540  152.0130 C   0  0  0  0  0  0  0  0  0  0  0  0
  159.1820  210.9060  152.6850 C   0  0  0  0  0  2  0  0  0  0  0  0
  159.6700  212.3330  152.5350 C   0  0  0  0  0  1  0  0  0  0  0  0
  161.2510  210.7700  154.0780 C   0  0  0  0  0  2  0  0  0  0  0  0
  161.0980  210.3900  155.5540 C   0  0  1  0  0  3  0  0  0  0  0  0
  159.7880  209.7370  155.9020 C   0  0  0  0  0  0  0  0  0  0  0  0
  158.5970  210.5010  156.1480 N   0  0  0  0  0  2  0  0  0  0  0  0
  159.7150  208.4800  155.9420 O   0  0  0  0  0  0  0  0  0  0  0  0
  159.2120  212.6880  156.9670 C   0  0  0  0  0  2  0  0  0  0  0  0
  158.4350  211.9300  156.1980 C   0  0  0  0  0  0  0  0  0  0  0  0
  157.3590  212.5600  155.4000 C   0  0  0  0  0  0  0  0  0  0  0  0
  157.4230  213.9970  155.0010 C   0  0  0  0  0  1  0  0  0  0  0  0
  156.3060  211.8510  155.0120 C   0  0  0  0  0  2  0  0  0  0  0  0
  163.2290  210.7060  156.9140 C   0  0  0  0  0  1  0  0  0  0  0  0
  162.3310  209.7280  156.1760 C   0  0  0  0  0  2  0  0  0  0  0  0
  1 15  1  6  0  0  0
  1 17  1  0  0  0  0
  3  2  1  1  0  0  0
  3 14  1  0  0  0  0
  3  1  1  0  0  0  0
  4 13  2  0  0  0  0
  5 11  1  0  0  0  0
  6  8  1  0  0  0  0
  6 14  2  0  0  0  0
  7 10  1  0  0  0  0
  8  5  2  0  0  0  0
 10  5  1  0  0  0  0
 11  9  2  0  0  0  0
 12  7  1  0  0  0  0
 13  7  1  0  0  0  0
 13  8  1  0  0  0  0
 14  9  1  0  0  0  0
 16 15  1  0  0  0  0
 18 17  1  6  0  0  0
 18 19  1  0  0  0  0
 18 28  1  0  0  0  0
 19 21  2  0  0  0  0
 19 20  1  0  0  0  0
 20 23  1  0  0  0  0
 23 22  2  0  0  0  0
 24 23  1  0  0  0  0
 25 24  1  0  0  0  0
 26 24  2  0  0  0  0
 28 27  1  0  0  0  0
M  END
>  <MODEL>
9

>  <REMARK>
 VINA RESULT:      -7.1      3.030      8.951
  Name = 
  9 active torsions:
  status: ('A' for Active; 'I' for Inactive)
    1  A    between atoms: C_1  and  C_2
    2  A    between atoms: C_1  and  C_17
    3  A    between atoms: C_1  and  C_26
    4  A    between atoms: N_3  and  C_11
    5  A    between atoms: C_6  and  C_11
    6  A    between atoms: C_16  and  C_27
    7  A    between atoms: C_17  and  C_27
    8  A    between atoms: C_20  and  C_25
    9  A    between atoms: C_20  and  C_27
                            x       y       z     vdW  Elec       q    Type
                         _______ _______ _______ _____ _____    ______ ____

>  <TORSDO>
F 9

$$$$
