=
 OpenBabel11062410143D

 43 49  0  0  1  0  0  0  0  0999 V2000
  161.1280  200.9940  147.1120 C   0  0  0  0  0  0  0  0  0  0  0  0
  161.0990  204.5940  150.7120 C   0  0  0  0  0  0  0  0  0  0  0  0
  161.2160  207.0650  149.3470 C   0  0  0  0  0  0  0  0  0  0  0  0
  161.0820  202.1900  149.2490 C   0  0  0  0  0  0  0  0  0  0  0  0
  161.1750  202.1230  146.4030 C   0  0  0  0  0  3  0  0  0  0  0  0
  161.1250  199.7700  146.4580 O   0  0  0  0  0  1  0  0  0  0  0  0
  161.1350  203.4260  148.5650 C   0  0  0  0  0  0  0  0  0  0  0  0
  161.0770  201.0340  148.5820 C   0  0  0  0  0  3  0  0  0  0  0  0
  161.1810  203.4800  147.0540 C   0  0  0  0  0  2  0  0  0  0  0  0
  161.2020  205.8570  148.6350 O   0  0  0  0  0  0  0  0  0  0  0  0
  161.1450  204.6220  149.3000 C   0  0  0  0  0  0  0  0  0  0  0  0
  161.0430  203.3580  151.3710 C   0  0  0  0  0  3  0  0  0  0  0  0
  161.1130  205.7590  151.4000 C   0  0  0  0  0  0  0  0  0  0  0  0
  161.1750  207.0470  150.6790 C   0  0  0  0  0  3  0  0  0  0  0  0
  161.0350  202.1670  150.6440 C   0  0  0  0  0  3  0  0  0  0  0  0
  161.0430  205.7970  152.8980 C   0  0  0  0  0  2  0  0  0  0  0  0
  160.7670  207.2100  153.3980 C   0  0  0  0  0  2  0  0  0  0  0  0
  161.5400  208.8350  155.1100 C   0  0  0  0  0  2  0  0  0  0  0  0
  161.2500  209.0280  156.5810 C   0  0  2  0  0  3  0  0  0  0  0  0
  160.1060  207.0200  155.8050 C   0  0  0  0  0  2  0  0  0  0  0  0
  161.2190  207.3850  154.8390 C   0  0  1  0  0  3  0  0  0  0  0  0
  160.1360  208.0540  156.9170 C   0  0  0  0  0  2  0  0  0  0  0  0
  162.0110  211.0690  156.9640 C   0  0  0  0  0  1  0  0  0  0  0  0
  160.8310  210.3370  156.8180 O   0  0  0  0  0  0  0  0  0  0  0  0
  161.2720  208.2850  148.6770 O   0  0  0  0  0  0  0  0  0  0  0  0
  162.4480  209.0790  148.6880 C   0  0  0  0  0  2  0  0  0  0  0  0
  162.1060  210.5140  149.0800 C   0  0  2  0  0  3  0  0  0  0  0  0
  162.5400  209.9720  151.4790 C   0  0  0  0  0  1  0  0  0  0  0  0
  161.5760  210.6270  150.5080 C   0  0  0  0  0  2  0  0  0  0  0  0
  161.3070  211.1870  148.1190 O   0  0  0  0  0  0  0  0  0  0  0  0
  161.5890  212.5750  148.1010 C   0  0  2  0  0  0  0  0  0  0  0  0
  160.4130  214.4530  147.0300 C   0  0  0  0  0  2  0  0  0  0  0  0
  160.9750  213.4670  149.1710 C   0  0  0  0  0  2  0  0  0  0  0  0
  161.2060  213.1910  146.7680 C   0  0  1  0  0  0  0  0  0  0  0  0
  162.6650  213.1090  147.1530 C   0  0  0  0  0  2  0  0  0  0  0  0
  159.9720  214.3670  148.4750 C   0  0  0  0  0  2  0  0  0  0  0  0
  160.7290  212.2540  145.8070 O   0  0  0  0  0  0  0  0  0  0  0  0
  160.6170  212.5540  144.4470 C   0  0  0  0  0  0  0  0  0  0  0  0
  161.7050  212.1070  142.2300 C   0  0  0  0  0  2  0  0  0  0  0  0
  159.2830  212.9610  142.4400 C   0  0  0  0  0  2  0  0  0  0  0  0
  160.2900  212.1490  141.6180 C   0  0  0  0  0  2  0  0  0  0  0  0
  159.4080  212.6200  143.8930 C   0  0  0  0  0  3  0  0  0  0  0  0
  161.8280  212.8110  143.5900 C   0  0  0  0  0  2  0  0  0  0  0  0
  1  8  1  0  0  0  0
  2 12  1  0  0  0  0
  2 13  2  0  0  0  0
  3 14  2  0  0  0  0
  4 15  1  0  0  0  0
  5  9  1  0  0  0  0
  5  1  2  0  0  0  0
  6  1  1  0  0  0  0
  7  4  1  0  0  0  0
  7 11  2  0  0  0  0
  8  4  2  0  0  0  0
  9  7  1  0  0  0  0
 10 11  1  0  0  0  0
 10  3  1  0  0  0  0
 11  2  1  0  0  0  0
 13 16  1  0  0  0  0
 14 13  1  0  0  0  0
 15 12  2  0  0  0  0
 16 17  1  0  0  0  0
 18 19  1  0  0  0  0
 19 24  1  6  0  0  0
 19 22  1  0  0  0  0
 20 22  1  0  0  0  0
 21 17  1  6  0  0  0
 21 18  1  0  0  0  0
 21 20  1  0  0  0  0
 24 23  1  0  0  0  0
 25 26  1  0  0  0  0
 25  3  1  0  0  0  0
 27 26  1  6  0  0  0
 27 29  1  0  0  0  0
 29 28  1  0  0  0  0
 30 27  1  0  0  0  0
 31 30  1  1  0  0  0
 31 33  1  0  0  0  0
 32 36  1  0  0  0  0
 34 37  1  6  0  0  0
 34 32  1  0  0  0  0
 34 35  1  0  0  0  0
 34 31  1  0  0  0  0
 35 31  1  0  0  0  0
 36 33  1  0  0  0  0
 38 37  1  0  0  0  0
 39 43  1  0  0  0  0
 40 42  1  0  0  0  0
 41 39  1  0  0  0  0
 41 40  1  0  0  0  0
 42 38  2  0  0  0  0
 43 38  1  0  0  0  0
M  END
>  <MODEL>
1

>  <REMARK>
 VINA RESULT:      -9.5      0.000      0.000
  Name = 
  12 active torsions:
  status: ('A' for Active; 'I' for Inactive)
    1  A    between atoms: C_1  and  C_34
    2  A    between atoms: C_1  and  C_35
    3  A    between atoms: C_2  and  O_6
    4  A    between atoms: C_2  and  C_12
    5  A    between atoms: O_3  and  C_4
    6  A    between atoms: O_3  and  C_12
    7  A    between atoms: O_6  and  C_13
    8  A    between atoms: C_11  and  O_14
    9  A    between atoms: C_12  and  C_17
   10  A    between atoms: O_14  and  C_22
   11  A    between atoms: C_19  and  O_37
   12  A    between atoms: C_32  and  C_35
                            x       y       z     vdW  Elec       q    Type
                         _______ _______ _______ _____ _____    ______ ____

>  <TORSDO>
F 12

$$$$
=
 OpenBabel11062410143D

 43 49  0  0  1  0  0  0  0  0999 V2000
  161.0520  202.1230  147.2040 C   0  0  0  0  0  0  0  0  0  0  0  0
  161.6600  206.9140  148.8170 C   0  0  0  0  0  0  0  0  0  0  0  0
  160.9990  206.9030  151.5640 C   0  0  0  0  0  0  0  0  0  0  0  0
  161.5210  204.5240  147.3370 C   0  0  0  0  0  0  0  0  0  0  0  0
  160.7360  202.0430  148.4960 C   0  0  0  0  0  3  0  0  0  0  0  0
  160.9980  200.9860  146.4100 O   0  0  0  0  0  1  0  0  0  0  0  0
  161.1960  204.5160  148.7130 C   0  0  0  0  0  0  0  0  0  0  0  0
  161.4600  203.4060  146.6100 C   0  0  0  0  0  3  0  0  0  0  0  0
  160.7740  203.2410  149.4080 C   0  0  0  0  0  3  0  0  0  0  0  0
  160.9410  205.7200  150.8110 O   0  0  0  0  0  0  0  0  0  0  0  0
  161.2650  205.7120  149.4460 C   0  0  0  0  0  0  0  0  0  0  0  0
  161.9830  206.8980  147.4520 C   0  0  0  0  0  2  0  0  0  0  0  0
  161.7170  208.0540  149.5410 C   0  0  0  0  0  0  0  0  0  0  0  0
  161.3690  208.0410  150.9770 C   0  0  0  0  0  3  0  0  0  0  0  0
  161.9130  205.7130  146.7200 C   0  0  0  0  0  3  0  0  0  0  0  0
  162.1500  209.3580  148.9380 C   0  0  0  0  0  2  0  0  0  0  0  0
  161.9540  210.5080  149.9180 C   0  0  0  0  0  2  0  0  0  0  0  0
  161.4660  211.6360  147.7590 C   0  0  0  0  0  2  0  0  0  0  0  0
  160.7380  212.9050  147.3780 C   0  0  2  0  0  3  0  0  0  0  0  0
  160.8190  212.7360  149.8090 C   0  0  0  0  0  2  0  0  0  0  0  0
  161.8820  211.8440  149.1950 C   0  0  1  0  0  3  0  0  0  0  0  0
  160.1030  213.4190  148.6570 C   0  0  0  0  0  2  0  0  0  0  0  0
  158.5860  213.1850  146.9550 C   0  0  0  0  0  1  0  0  0  0  0  0
  159.7530  212.6250  146.4320 O   0  0  0  0  0  0  0  0  0  0  0  0
  160.6760  206.9000  152.9180 O   0  0  0  0  0  0  0  0  0  0  0  0
  161.6760  207.0420  153.9150 C   0  0  0  0  0  2  0  0  0  0  0  0
  161.2980  208.1610  154.8810 C   0  0  2  0  0  3  0  0  0  0  0  0
  159.3490  207.2500  156.1500 C   0  0  0  0  0  1  0  0  0  0  0  0
  160.8140  207.6370  156.2330 C   0  0  0  0  0  2  0  0  0  0  0  0
  160.4420  209.1360  154.3080 O   0  0  0  0  0  0  0  0  0  0  0  0
  160.9650  210.4410  154.4830 C   0  0  2  0  0  0  0  0  0  0  0  0
  160.3740  212.2240  156.0740 C   0  0  0  0  0  2  0  0  0  0  0  0
  162.1130  210.6520  155.4590 C   0  0  0  0  0  2  0  0  0  0  0  0
  159.8750  211.4140  154.8970 C   0  0  1  0  0  0  0  0  0  0  0  0
  160.5200  211.5600  153.5380 C   0  0  0  0  0  2  0  0  0  0  0  0
  161.5670  211.4670  156.6160 C   0  0  0  0  0  2  0  0  0  0  0  0
  158.5710  210.8430  154.9450 O   0  0  0  0  0  0  0  0  0  0  0  0
  157.4060  211.6140  154.9330 C   0  0  0  0  0  0  0  0  0  0  0  0
  155.7620  212.7300  156.4660 C   0  0  0  0  0  2  0  0  0  0  0  0
  156.0080  213.3800  153.9840 C   0  0  0  0  0  2  0  0  0  0  0  0
  155.6450  213.8400  155.4000 C   0  0  0  0  0  2  0  0  0  0  0  0
  157.2640  212.5650  154.0130 C   0  0  0  0  0  3  0  0  0  0  0  0
  156.3010  211.3940  155.9330 C   0  0  0  0  0  2  0  0  0  0  0  0
  1  5  1  0  0  0  0
  2 11  1  0  0  0  0
  2 13  2  0  0  0  0
  3 25  1  0  0  0  0
  4  7  1  0  0  0  0
  5  9  2  0  0  0  0
  6  1  1  0  0  0  0
  7  9  1  0  0  0  0
  7 11  2  0  0  0  0
  8  1  2  0  0  0  0
  8  4  1  0  0  0  0
 10  3  1  0  0  0  0
 11 10  1  0  0  0  0
 12  2  1  0  0  0  0
 13 14  1  0  0  0  0
 14  3  2  0  0  0  0
 15  4  2  0  0  0  0
 15 12  1  0  0  0  0
 16 13  1  0  0  0  0
 16 17  1  0  0  0  0
 18 21  1  0  0  0  0
 19 24  1  6  0  0  0
 19 18  1  0  0  0  0
 19 22  1  0  0  0  0
 21 20  1  0  0  0  0
 21 17  1  1  0  0  0
 22 20  1  0  0  0  0
 24 23  1  0  0  0  0
 25 26  1  0  0  0  0
 27 26  1  6  0  0  0
 27 29  1  0  0  0  0
 28 29  1  0  0  0  0
 30 27  1  0  0  0  0
 31 30  1  6  0  0  0
 31 34  1  0  0  0  0
 31 33  1  0  0  0  0
 32 36  1  0  0  0  0
 33 36  1  0  0  0  0
 34 37  1  1  0  0  0
 34 32  1  0  0  0  0
 35 31  1  0  0  0  0
 35 34  1  0  0  0  0
 38 37  1  0  0  0  0
 38 43  1  0  0  0  0
 40 42  1  0  0  0  0
 40 41  1  0  0  0  0
 41 39  1  0  0  0  0
 42 38  2  0  0  0  0
 43 39  1  0  0  0  0
M  END
>  <MODEL>
2

>  <REMARK>
 VINA RESULT:      -9.4      2.778      7.595
  Name = 
  12 active torsions:
  status: ('A' for Active; 'I' for Inactive)
    1  A    between atoms: C_1  and  C_34
    2  A    between atoms: C_1  and  C_35
    3  A    between atoms: C_2  and  O_6
    4  A    between atoms: C_2  and  C_12
    5  A    between atoms: O_3  and  C_4
    6  A    between atoms: O_3  and  C_12
    7  A    between atoms: O_6  and  C_13
    8  A    between atoms: C_11  and  O_14
    9  A    between atoms: C_12  and  C_17
   10  A    between atoms: O_14  and  C_22
   11  A    between atoms: C_19  and  O_37
   12  A    between atoms: C_32  and  C_35
                            x       y       z     vdW  Elec       q    Type
                         _______ _______ _______ _____ _____    ______ ____

>  <TORSDO>
F 12

$$$$
=
 OpenBabel11062410143D

 43 49  0  0  1  0  0  0  0  0999 V2000
  161.2030  203.0680  147.5610 C   0  0  0  0  0  0  0  0  0  0  0  0
  161.2580  207.0260  150.7630 C   0  0  0  0  0  0  0  0  0  0  0  0
  161.8330  209.2990  149.1860 C   0  0  0  0  0  0  0  0  0  0  0  0
  161.0870  204.4920  149.5510 C   0  0  0  0  0  0  0  0  0  0  0  0
  161.4680  204.0970  146.7560 C   0  0  0  0  0  3  0  0  0  0  0  0
  161.1120  201.7870  147.0350 O   0  0  0  0  0  1  0  0  0  0  0  0
  161.3690  205.6290  148.7600 C   0  0  0  0  0  0  0  0  0  0  0  0
  161.0040  203.2770  149.0040 C   0  0  0  0  0  3  0  0  0  0  0  0
  161.5800  205.5090  147.2680 C   0  0  0  0  0  2  0  0  0  0  0  0
  161.7390  208.0280  148.5990 O   0  0  0  0  0  0  0  0  0  0  0  0
  161.4550  206.8910  149.3700 C   0  0  0  0  0  0  0  0  0  0  0  0
  160.9750  205.8860  151.5290 C   0  0  0  0  0  3  0  0  0  0  0  0
  161.3490  208.2500  151.3310 C   0  0  0  0  0  0  0  0  0  0  0  0
  161.6510  209.4340  150.4990 C   0  0  0  0  0  3  0  0  0  0  0  0
  160.8910  204.6300  150.9260 C   0  0  0  0  0  3  0  0  0  0  0  0
  161.1280  208.4640  152.7990 C   0  0  0  0  0  2  0  0  0  0  0  0
  160.8270  209.9270  153.1010 C   0  0  0  0  0  2  0  0  0  0  0  0
  160.3730  208.9020  155.3180 C   0  0  0  0  0  2  0  0  0  0  0  0
  161.0110  209.0260  156.6830 C   0  0  2  0  0  3  0  0  0  0  0  0
  162.0970  210.5850  155.1560 C   0  0  0  0  0  2  0  0  0  0  0  0
  160.7450  210.1770  154.5990 C   0  0  1  0  0  3  0  0  0  0  0  0
  162.2580  209.8660  156.4840 C   0  0  0  0  0  2  0  0  0  0  0  0
  160.2170  206.9810  156.9610 C   0  0  0  0  0  1  0  0  0  0  0  0
  161.3540  207.7640  157.1660 O   0  0  0  0  0  0  0  0  0  0  0  0
  162.1150  210.4210  148.4110 O   0  0  0  0  0  0  0  0  0  0  0  0
  162.3110  211.6960  149.0040 C   0  0  0  0  0  2  0  0  0  0  0  0
  161.4790  212.7460  148.2730 C   0  0  2  0  0  3  0  0  0  0  0  0
  160.3960  212.9300  150.5160 C   0  0  0  0  0  1  0  0  0  0  0  0
  160.7140  213.6630  149.2260 C   0  0  0  0  0  2  0  0  0  0  0  0
  160.6780  212.2080  147.2330 O   0  0  0  0  0  0  0  0  0  0  0  0
  159.6710  213.1220  146.8370 C   0  0  2  0  0  0  0  0  0  0  0  0
  157.9500  212.9790  145.0830 C   0  0  0  0  0  2  0  0  0  0  0  0
  158.2950  213.0290  147.4810 C   0  0  0  0  0  2  0  0  0  0  0  0
  159.4390  213.0630  145.3380 C   0  0  1  0  0  0  0  0  0  0  0  0
  160.0440  214.3080  145.9450 C   0  0  0  0  0  2  0  0  0  0  0  0
  157.3310  212.5730  146.4030 C   0  0  0  0  0  2  0  0  0  0  0  0
  160.3170  212.1800  144.6460 O   0  0  0  0  0  0  0  0  0  0  0  0
  160.7970  212.4420  143.3610 C   0  0  0  0  0  0  0  0  0  0  0  0
  160.1300  213.4910  141.1800 C   0  0  0  0  0  2  0  0  0  0  0  0
  162.5900  213.0730  141.8240 C   0  0  0  0  0  2  0  0  0  0  0  0
  161.6000  213.9400  141.0390 C   0  0  0  0  0  2  0  0  0  0  0  0
  162.0670  212.8100  143.2030 C   0  0  0  0  0  3  0  0  0  0  0  0
  159.9170  212.3150  142.1450 C   0  0  0  0  0  2  0  0  0  0  0  0
  1  8  1  0  0  0  0
  2 13  2  0  0  0  0
  2 12  1  0  0  0  0
  3 14  2  0  0  0  0
  4 15  1  0  0  0  0
  5  9  1  0  0  0  0
  5  1  2  0  0  0  0
  6  1  1  0  0  0  0
  7 11  2  0  0  0  0
  7  4  1  0  0  0  0
  8  4  2  0  0  0  0
  9  7  1  0  0  0  0
 10  3  1  0  0  0  0
 10 11  1  0  0  0  0
 11  2  1  0  0  0  0
 13 16  1  0  0  0  0
 14 13  1  0  0  0  0
 15 12  2  0  0  0  0
 16 17  1  0  0  0  0
 18 19  1  0  0  0  0
 19 24  1  6  0  0  0
 20 22  1  0  0  0  0
 21 17  1  6  0  0  0
 21 20  1  0  0  0  0
 21 18  1  0  0  0  0
 22 19  1  0  0  0  0
 23 24  1  0  0  0  0
 25 26  1  0  0  0  0
 25  3  1  0  0  0  0
 27 26  1  1  0  0  0
 27 29  1  0  0  0  0
 29 28  1  0  0  0  0
 30 27  1  0  0  0  0
 31 30  1  1  0  0  0
 31 33  1  0  0  0  0
 32 34  1  0  0  0  0
 32 36  1  0  0  0  0
 34 37  1  6  0  0  0
 34 35  1  0  0  0  0
 34 31  1  0  0  0  0
 35 31  1  0  0  0  0
 36 33  1  0  0  0  0
 38 37  1  0  0  0  0
 39 43  1  0  0  0  0
 40 42  1  0  0  0  0
 41 39  1  0  0  0  0
 41 40  1  0  0  0  0
 42 38  2  0  0  0  0
 43 38  1  0  0  0  0
M  END
>  <MODEL>
3

>  <REMARK>
 VINA RESULT:      -9.1      1.417      2.631
  Name = 
  12 active torsions:
  status: ('A' for Active; 'I' for Inactive)
    1  A    between atoms: C_1  and  C_34
    2  A    between atoms: C_1  and  C_35
    3  A    between atoms: C_2  and  O_6
    4  A    between atoms: C_2  and  C_12
    5  A    between atoms: O_3  and  C_4
    6  A    between atoms: O_3  and  C_12
    7  A    between atoms: O_6  and  C_13
    8  A    between atoms: C_11  and  O_14
    9  A    between atoms: C_12  and  C_17
   10  A    between atoms: O_14  and  C_22
   11  A    between atoms: C_19  and  O_37
   12  A    between atoms: C_32  and  C_35
                            x       y       z     vdW  Elec       q    Type
                         _______ _______ _______ _____ _____    ______ ____

>  <TORSDO>
F 12

$$$$
=
 OpenBabel11062410143D

 43 49  0  0  1  0  0  0  0  0999 V2000
  161.2590  203.2590  147.6270 C   0  0  0  0  0  0  0  0  0  0  0  0
  161.3130  207.2780  150.7520 C   0  0  0  0  0  0  0  0  0  0  0  0
  161.9670  209.5080  149.1460 C   0  0  0  0  0  0  0  0  0  0  0  0
  161.1230  204.7240  149.5860 C   0  0  0  0  0  0  0  0  0  0  0  0
  161.5620  204.2670  146.8090 C   0  0  0  0  0  3  0  0  0  0  0  0
  161.1570  201.9700  147.1230 O   0  0  0  0  0  1  0  0  0  0  0  0
  161.4450  205.8400  148.7800 C   0  0  0  0  0  0  0  0  0  0  0  0
  161.0310  203.5000  149.0600 C   0  0  0  0  0  3  0  0  0  0  0  0
  161.6880  205.6860  147.2950 C   0  0  0  0  0  2  0  0  0  0  0  0
  161.8630  208.2280  148.5820 O   0  0  0  0  0  0  0  0  0  0  0  0
  161.5400  207.1120  149.3680 C   0  0  0  0  0  0  0  0  0  0  0  0
  160.9910  206.1580  151.5330 C   0  0  0  0  0  3  0  0  0  0  0  0
  161.4130  208.5110  151.2980 C   0  0  0  0  0  0  0  0  0  0  0  0
  161.7570  209.6730  150.4520 C   0  0  0  0  0  3  0  0  0  0  0  0
  160.8980  204.8930  150.9530 C   0  0  0  0  0  3  0  0  0  0  0  0
  161.1620  208.7580  152.7560 C   0  0  0  0  0  2  0  0  0  0  0  0
  161.9430  209.9700  153.2510 C   0  0  0  0  0  2  0  0  0  0  0  0
  160.3480  211.8580  153.4970 C   0  0  0  0  0  2  0  0  0  0  0  0
  159.1100  212.0840  154.3340 C   0  0  2  0  0  3  0  0  0  0  0  0
  160.0850  209.9300  154.9280 C   0  0  0  0  0  2  0  0  0  0  0  0
  161.1230  210.7920  154.2330 C   0  0  1  0  0  3  0  0  0  0  0  0
  158.8120  210.7560  155.0040 C   0  0  0  0  0  2  0  0  0  0  0  0
  158.5260  212.3260  152.2150 C   0  0  0  0  0  1  0  0  0  0  0  0
  158.0420  212.4590  153.5180 O   0  0  0  0  0  0  0  0  0  0  0  0
  162.2870  210.6100  148.3570 O   0  0  0  0  0  0  0  0  0  0  0  0
  161.9360  211.9270  148.7510 C   0  0  0  0  0  2  0  0  0  0  0  0
  161.7530  212.8110  147.5210 C   0  0  2  0  0  3  0  0  0  0  0  0
  161.4300  214.4490  149.3770 C   0  0  0  0  0  1  0  0  0  0  0  0
  161.5540  214.2840  147.8750 C   0  0  0  0  0  2  0  0  0  0  0  0
  160.7940  212.3100  146.6040 O   0  0  0  0  0  0  0  0  0  0  0  0
  159.6500  213.1430  146.5520 C   0  0  2  0  0  0  0  0  0  0  0  0
  157.4140  212.7710  145.5940 C   0  0  0  0  0  2  0  0  0  0  0  0
  158.6240  213.0590  147.6730 C   0  0  0  0  0  2  0  0  0  0  0  0
  158.8810  212.9350  145.2600 C   0  0  1  0  0  0  0  0  0  0  0  0
  159.5780  214.2540  145.5020 C   0  0  0  0  0  2  0  0  0  0  0  0
  157.3620  212.4670  147.0750 C   0  0  0  0  0  2  0  0  0  0  0  0
  159.4970  212.0250  144.3540 O   0  0  0  0  0  0  0  0  0  0  0  0
  160.0940  212.4340  143.1600 C   0  0  0  0  0  0  0  0  0  0  0  0
  161.9620  211.8560  141.5860 C   0  0  0  0  0  2  0  0  0  0  0  0
  159.9630  213.3240  140.8860 C   0  0  0  0  0  2  0  0  0  0  0  0
  161.0370  212.3240  140.4430 C   0  0  0  0  0  2  0  0  0  0  0  0
  159.3250  212.8650  142.1620 C   0  0  0  0  0  3  0  0  0  0  0  0
  161.5880  212.4070  142.9700 C   0  0  0  0  0  2  0  0  0  0  0  0
  1  8  1  0  0  0  0
  2 13  2  0  0  0  0
  2 12  1  0  0  0  0
  3 14  2  0  0  0  0
  4 15  1  0  0  0  0
  5  9  1  0  0  0  0
  5  1  2  0  0  0  0
  6  1  1  0  0  0  0
  7 11  2  0  0  0  0
  7  4  1  0  0  0  0
  8  4  2  0  0  0  0
  9  7  1  0  0  0  0
 10  3  1  0  0  0  0
 10 11  1  0  0  0  0
 11  2  1  0  0  0  0
 13 16  1  0  0  0  0
 14 13  1  0  0  0  0
 15 12  2  0  0  0  0
 16 17  1  0  0  0  0
 18 21  1  0  0  0  0
 18 19  1  0  0  0  0
 19 24  1  6  0  0  0
 19 22  1  0  0  0  0
 20 22  1  0  0  0  0
 21 17  1  6  0  0  0
 21 20  1  0  0  0  0
 23 24  1  0  0  0  0
 25 26  1  0  0  0  0
 25  3  1  0  0  0  0
 27 29  1  1  0  0  0
 27 26  1  0  0  0  0
 29 28  1  0  0  0  0
 30 27  1  0  0  0  0
 31 30  1  1  0  0  0
 31 33  1  0  0  0  0
 32 36  1  0  0  0  0
 34 37  1  6  0  0  0
 34 35  1  0  0  0  0
 34 32  1  0  0  0  0
 34 31  1  0  0  0  0
 35 31  1  0  0  0  0
 36 33  1  0  0  0  0
 38 37  1  0  0  0  0
 39 43  1  0  0  0  0
 40 42  1  0  0  0  0
 41 40  1  0  0  0  0
 41 39  1  0  0  0  0
 42 38  2  0  0  0  0
 43 38  1  0  0  0  0
M  END
>  <MODEL>
4

>  <REMARK>
 VINA RESULT:      -8.9      1.923      3.008
  Name = 
  12 active torsions:
  status: ('A' for Active; 'I' for Inactive)
    1  A    between atoms: C_1  and  C_34
    2  A    between atoms: C_1  and  C_35
    3  A    between atoms: C_2  and  O_6
    4  A    between atoms: C_2  and  C_12
    5  A    between atoms: O_3  and  C_4
    6  A    between atoms: O_3  and  C_12
    7  A    between atoms: O_6  and  C_13
    8  A    between atoms: C_11  and  O_14
    9  A    between atoms: C_12  and  C_17
   10  A    between atoms: O_14  and  C_22
   11  A    between atoms: C_19  and  O_37
   12  A    between atoms: C_32  and  C_35
                            x       y       z     vdW  Elec       q    Type
                         _______ _______ _______ _____ _____    ______ ____

>  <TORSDO>
F 12

$$$$
=
 OpenBabel11062410143D

 43 49  0  0  1  0  0  0  0  0999 V2000
  160.8780  203.3080  150.5940 C   0  0  0  0  0  0  0  0  0  0  0  0
  161.6530  208.2430  149.6080 C   0  0  0  0  0  0  0  0  0  0  0  0
  161.8200  209.5250  152.1200 C   0  0  0  0  0  0  0  0  0  0  0  0
  161.2270  205.4640  149.4830 C   0  0  0  0  0  0  0  0  0  0  0  0
  160.9560  203.8460  151.8110 C   0  0  0  0  0  3  0  0  0  0  0  0
  160.6610  201.9450  150.4550 O   0  0  0  0  0  1  0  0  0  0  0  0
  161.3170  206.1030  150.7400 C   0  0  0  0  0  0  0  0  0  0  0  0
  161.0210  204.1480  149.3940 C   0  0  0  0  0  3  0  0  0  0  0  0
  161.1890  205.3170  152.0260 C   0  0  0  0  0  3  0  0  0  0  0  0
  161.6140  208.1400  152.0380 O   0  0  0  0  0  0  0  0  0  0  0  0
  161.5270  207.4900  150.7970 C   0  0  0  0  0  0  0  0  0  0  0  0
  161.5650  207.5890  148.3700 C   0  0  0  0  0  2  0  0  0  0  0  0
  161.8520  209.5780  149.6850 C   0  0  0  0  0  0  0  0  0  0  0  0
  161.9380  210.2420  151.0030 C   0  0  0  0  0  3  0  0  0  0  0  0
  161.3540  206.2110  148.3110 C   0  0  0  0  0  3  0  0  0  0  0  0
  162.0160  210.4300  148.4610 C   0  0  0  0  0  2  0  0  0  0  0  0
  162.2880  211.8820  148.8350 C   0  0  0  0  0  2  0  0  0  0  0  0
  162.7310  213.1430  146.7410 C   0  0  0  0  0  2  0  0  0  0  0  0
  161.9250  213.4230  145.4930 C   0  0  2  0  0  3  0  0  0  0  0  0
  160.5330  212.2010  147.0790 C   0  0  0  0  0  2  0  0  0  0  0  0
  161.7050  212.8370  147.8050 C   0  0  1  0  0  3  0  0  0  0  0  0
  160.6660  212.5850  145.6150 C   0  0  0  0  0  2  0  0  0  0  0  0
  161.6790  212.6330  143.4420 C   0  0  0  0  0  1  0  0  0  0  0  0
  162.6460  213.0420  144.3620 O   0  0  0  0  0  0  0  0  0  0  0  0
  161.9060  210.1590  153.3570 O   0  0  0  0  0  0  0  0  0  0  0  0
  161.9220  209.4170  154.5660 C   0  0  0  0  0  2  0  0  0  0  0  0
  160.5350  209.4260  155.2040 C   0  0  2  0  0  3  0  0  0  0  0  0
  160.1020  207.6310  156.8850 C   0  0  0  0  0  1  0  0  0  0  0  0
  159.9760  208.0210  155.4250 C   0  0  0  0  0  2  0  0  0  0  0  0
  159.6260  210.3090  154.5660 O   0  0  0  0  0  0  0  0  0  0  0  0
  159.2510  211.3680  155.4280 C   0  0  2  0  0  0  0  0  0  0  0  0
  157.8310  213.3430  155.0480 C   0  0  0  0  0  2  0  0  0  0  0  0
  157.9710  211.2400  156.2430 C   0  0  0  0  0  2  0  0  0  0  0  0
  159.1360  212.6760  154.6670 C   0  0  1  0  0  0  0  0  0  0  0  0
  160.2370  212.5090  155.6880 C   0  0  0  0  0  2  0  0  0  0  0  0
  156.9940  212.2630  155.6970 C   0  0  0  0  0  2  0  0  0  0  0  0
  159.4980  212.5850  153.2920 O   0  0  0  0  0  0  0  0  0  0  0  0
  158.8870  213.3490  152.2950 C   0  0  0  0  0  0  0  0  0  0  0  0
  159.2210  214.1580  149.9430 C   0  0  0  0  0  2  0  0  0  0  0  0
  156.9060  214.0980  151.0740 C   0  0  0  0  0  2  0  0  0  0  0  0
  157.6950  214.0160  149.7630 C   0  0  0  0  0  2  0  0  0  0  0  0
  157.5680  213.2650  152.1290 C   0  0  0  0  0  3  0  0  0  0  0  0
  159.6780  214.2710  151.4050 C   0  0  0  0  0  2  0  0  0  0  0  0
  1  5  1  0  0  0  0
  2 13  2  0  0  0  0
  2 11  1  0  0  0  0
  3 25  1  0  0  0  0
  4  7  1  0  0  0  0
  5  9  2  0  0  0  0
  6  1  1  0  0  0  0
  7 11  2  0  0  0  0
  7  9  1  0  0  0  0
  8  4  1  0  0  0  0
  8  1  2  0  0  0  0
 10  3  1  0  0  0  0
 11 10  1  0  0  0  0
 12  2  1  0  0  0  0
 13 14  1  0  0  0  0
 14  3  2  0  0  0  0
 15 12  1  0  0  0  0
 15  4  2  0  0  0  0
 16 17  1  0  0  0  0
 16 13  1  0  0  0  0
 18 21  1  0  0  0  0
 19 24  1  6  0  0  0
 19 22  1  0  0  0  0
 19 18  1  0  0  0  0
 20 21  1  0  0  0  0
 21 17  1  1  0  0  0
 22 20  1  0  0  0  0
 23 24  1  0  0  0  0
 25 26  1  0  0  0  0
 27 26  1  6  0  0  0
 27 29  1  0  0  0  0
 29 28  1  0  0  0  0
 30 27  1  0  0  0  0
 31 30  1  6  0  0  0
 31 35  1  0  0  0  0
 31 33  1  0  0  0  0
 32 36  1  0  0  0  0
 34 37  1  6  0  0  0
 34 32  1  0  0  0  0
 34 31  1  0  0  0  0
 34 35  1  0  0  0  0
 36 33  1  0  0  0  0
 38 37  1  0  0  0  0
 39 43  1  0  0  0  0
 40 42  1  0  0  0  0
 41 39  1  0  0  0  0
 41 40  1  0  0  0  0
 42 38  2  0  0  0  0
 43 38  1  0  0  0  0
M  END
>  <MODEL>
5

>  <REMARK>
 VINA RESULT:      -8.6      2.499      7.453
  Name = 
  12 active torsions:
  status: ('A' for Active; 'I' for Inactive)
    1  A    between atoms: C_1  and  C_34
    2  A    between atoms: C_1  and  C_35
    3  A    between atoms: C_2  and  O_6
    4  A    between atoms: C_2  and  C_12
    5  A    between atoms: O_3  and  C_4
    6  A    between atoms: O_3  and  C_12
    7  A    between atoms: O_6  and  C_13
    8  A    between atoms: C_11  and  O_14
    9  A    between atoms: C_12  and  C_17
   10  A    between atoms: O_14  and  C_22
   11  A    between atoms: C_19  and  O_37
   12  A    between atoms: C_32  and  C_35
                            x       y       z     vdW  Elec       q    Type
                         _______ _______ _______ _____ _____    ______ ____

>  <TORSDO>
F 12

$$$$
=
 OpenBabel11062410143D

 43 49  0  0  1  0  0  0  0  0999 V2000
  160.8810  207.4770  155.5330 C   0  0  0  0  0  0  0  0  0  0  0  0
  161.3160  207.1840  150.4690 C   0  0  0  0  0  0  0  0  0  0  0  0
  161.9320  209.7950  149.5850 C   0  0  0  0  0  0  0  0  0  0  0  0
  160.9500  206.6880  153.2150 C   0  0  0  0  0  0  0  0  0  0  0  0
  161.1780  208.7300  155.1880 C   0  0  0  0  0  3  0  0  0  0  0  0
  160.6780  207.1610  156.8690 O   0  0  0  0  0  1  0  0  0  0  0  0
  161.2640  207.9940  152.7750 C   0  0  0  0  0  0  0  0  0  0  0  0
  160.7660  206.4250  154.5110 C   0  0  0  0  0  3  0  0  0  0  0  0
  161.4090  209.1350  153.7570 C   0  0  0  0  0  3  0  0  0  0  0  0
  161.7520  209.5280  150.9500 O   0  0  0  0  0  0  0  0  0  0  0  0
  161.4440  208.2360  151.4030 C   0  0  0  0  0  0  0  0  0  0  0  0
  161.0080  205.8940  150.9280 C   0  0  0  0  0  2  0  0  0  0  0  0
  161.4900  207.4390  149.1530 C   0  0  0  0  0  0  0  0  0  0  0  0
  161.8120  208.8080  148.6980 C   0  0  0  0  0  3  0  0  0  0  0  0
  160.8270  205.6510  152.2900 C   0  0  0  0  0  3  0  0  0  0  0  0
  161.3910  206.3620  148.1140 C   0  0  0  0  0  2  0  0  0  0  0  0
  162.1880  206.7260  146.8670 C   0  0  0  0  0  2  0  0  0  0  0  0
  161.9640  204.2620  146.6550 C   0  0  0  0  0  2  0  0  0  0  0  0
  161.4250  203.3450  145.5810 C   0  0  2  0  0  3  0  0  0  0  0  0
  161.3510  205.6430  144.7720 C   0  0  0  0  0  2  0  0  0  0  0  0
  162.3250  205.5360  145.9310 C   0  0  1  0  0  3  0  0  0  0  0  0
  160.7910  204.2500  144.5410 C   0  0  0  0  0  2  0  0  0  0  0  0
  160.4820  201.3650  145.2940 C   0  0  0  0  0  1  0  0  0  0  0  0
  160.4640  202.4900  146.1210 O   0  0  0  0  0  0  0  0  0  0  0  0
  162.2380  211.0810  149.1460 O   0  0  0  0  0  0  0  0  0  0  0  0
  161.2250  212.0560  148.9590 C   0  0  0  0  0  2  0  0  0  0  0  0
  161.3430  212.6730  147.5670 C   0  0  2  0  0  3  0  0  0  0  0  0
  162.9920  214.4150  148.2630 C   0  0  0  0  0  1  0  0  0  0  0  0
  162.7220  213.2730  147.3010 C   0  0  0  0  0  2  0  0  0  0  0  0
  160.2700  213.5420  147.2430 O   0  0  0  0  0  0  0  0  0  0  0  0
  159.4140  212.9600  146.2750 C   0  0  2  0  0  0  0  0  0  0  0  0
  157.5460  213.9080  144.9830 C   0  0  0  0  0  2  0  0  0  0  0  0
  159.8010  213.0390  144.8050 C   0  0  0  0  0  2  0  0  0  0  0  0
  158.0110  213.5320  146.3730 C   0  0  1  0  0  0  0  0  0  0  0  0
  158.2480  212.0840  146.7360 C   0  0  0  0  0  2  0  0  0  0  0  0
  158.7950  213.9530  144.1320 C   0  0  0  0  0  2  0  0  0  0  0  0
  157.8300  214.4530  147.4440 O   0  0  0  0  0  0  0  0  0  0  0  0
  157.1840  214.1130  148.6350 C   0  0  0  0  0  0  0  0  0  0  0  0
  157.5000  214.1210  151.1250 C   0  0  0  0  0  2  0  0  0  0  0  0
  155.1770  213.9540  150.0210 C   0  0  0  0  0  2  0  0  0  0  0  0
  155.9900  214.4190  151.2340 C   0  0  0  0  0  2  0  0  0  0  0  0
  155.8770  214.3360  148.7530 C   0  0  0  0  0  3  0  0  0  0  0  0
  157.9260  213.4930  149.7900 C   0  0  0  0  0  2  0  0  0  0  0  0
  1  6  1  0  0  0  0
  2 12  1  0  0  0  0
  2 11  1  0  0  0  0
  3 10  1  0  0  0  0
  4  8  1  0  0  0  0
  5  1  1  0  0  0  0
  7  4  1  0  0  0  0
  7  9  1  0  0  0  0
  8  1  2  0  0  0  0
  9  5  2  0  0  0  0
 10 11  1  0  0  0  0
 11  7  2  0  0  0  0
 12 15  1  0  0  0  0
 13  2  2  0  0  0  0
 14 13  1  0  0  0  0
 14  3  2  0  0  0  0
 15  4  2  0  0  0  0
 16 13  1  0  0  0  0
 17 16  1  0  0  0  0
 19 24  1  1  0  0  0
 19 18  1  0  0  0  0
 20 21  1  0  0  0  0
 21 18  1  0  0  0  0
 21 17  1  1  0  0  0
 22 20  1  0  0  0  0
 22 19  1  0  0  0  0
 23 24  1  0  0  0  0
 25  3  1  0  0  0  0
 26 25  1  0  0  0  0
 27 29  1  1  0  0  0
 27 26  1  0  0  0  0
 29 28  1  0  0  0  0
 30 27  1  0  0  0  0
 31 34  1  0  0  0  0
 31 35  1  0  0  0  0
 31 30  1  1  0  0  0
 32 34  1  0  0  0  0
 33 31  1  0  0  0  0
 34 35  1  0  0  0  0
 34 37  1  1  0  0  0
 36 33  1  0  0  0  0
 36 32  1  0  0  0  0
 37 38  1  0  0  0  0
 38 42  2  0  0  0  0
 38 43  1  0  0  0  0
 39 41  1  0  0  0  0
 40 41  1  0  0  0  0
 42 40  1  0  0  0  0
 43 39  1  0  0  0  0
M  END
>  <MODEL>
6

>  <REMARK>
 VINA RESULT:      -8.3      2.280      7.488
  Name = 
  12 active torsions:
  status: ('A' for Active; 'I' for Inactive)
    1  A    between atoms: C_1  and  C_34
    2  A    between atoms: C_1  and  C_35
    3  A    between atoms: C_2  and  O_6
    4  A    between atoms: C_2  and  C_12
    5  A    between atoms: O_3  and  C_4
    6  A    between atoms: O_3  and  C_12
    7  A    between atoms: O_6  and  C_13
    8  A    between atoms: C_11  and  O_14
    9  A    between atoms: C_12  and  C_17
   10  A    between atoms: O_14  and  C_22
   11  A    between atoms: C_19  and  O_37
   12  A    between atoms: C_32  and  C_35
                            x       y       z     vdW  Elec       q    Type
                         _______ _______ _______ _____ _____    ______ ____

>  <TORSDO>
F 12

$$$$
=
 OpenBabel11062410143D

 43 49  0  0  1  0  0  0  0  0999 V2000
  160.8040  207.7460  155.8810 C   0  0  0  0  0  0  0  0  0  0  0  0
  161.4870  207.1490  150.8700 C   0  0  0  0  0  0  0  0  0  0  0  0
  162.0720  209.7180  149.8500 C   0  0  0  0  0  0  0  0  0  0  0  0
  161.0040  206.8150  153.6230 C   0  0  0  0  0  0  0  0  0  0  0  0
  161.0830  208.9830  155.4700 C   0  0  0  0  0  3  0  0  0  0  0  0
  160.5470  207.5070  157.2230 O   0  0  0  0  0  1  0  0  0  0  0  0
  161.3030  208.1000  153.1150 C   0  0  0  0  0  0  0  0  0  0  0  0
  160.7670  206.6290  154.9240 C   0  0  0  0  0  3  0  0  0  0  0  0
  161.3700  209.3050  154.0270 C   0  0  0  0  0  3  0  0  0  0  0  0
  161.8340  209.5310  151.2200 O   0  0  0  0  0  0  0  0  0  0  0  0
  161.5410  208.2610  151.7400 C   0  0  0  0  0  0  0  0  0  0  0  0
  161.1930  205.8820  151.3960 C   0  0  0  0  0  2  0  0  0  0  0  0
  161.7160  207.3270  149.5500 C   0  0  0  0  0  0  0  0  0  0  0  0
  162.0210  208.6740  149.0230 C   0  0  0  0  0  3  0  0  0  0  0  0
  160.9540  205.7190  152.7610 C   0  0  0  0  0  3  0  0  0  0  0  0
  161.6960  206.1840  148.5780 C   0  0  0  0  0  2  0  0  0  0  0  0
  162.0470  206.6530  147.1720 C   0  0  0  0  0  2  0  0  0  0  0  0
  162.0460  204.1770  146.9730 C   0  0  0  0  0  2  0  0  0  0  0  0
  161.5660  203.2090  145.9160 C   0  0  2  0  0  3  0  0  0  0  0  0
  161.2610  205.4860  145.1020 C   0  0  0  0  0  2  0  0  0  0  0  0
  162.2690  205.4750  146.2360 C   0  0  1  0  0  3  0  0  0  0  0  0
  160.8260  204.0460  144.8900 C   0  0  0  0  0  2  0  0  0  0  0  0
  160.1140  201.6240  145.3950 C   0  0  0  0  0  1  0  0  0  0  0  0
  160.7030  202.2710  146.4830 O   0  0  0  0  0  0  0  0  0  0  0  0
  162.3630  210.9820  149.3450 O   0  0  0  0  0  0  0  0  0  0  0  0
  161.3920  211.7330  148.6340 C   0  0  0  0  0  2  0  0  0  0  0  0
  162.0770  212.6660  147.6390 C   0  0  2  0  0  3  0  0  0  0  0  0
  161.1620  214.3010  149.2910 C   0  0  0  0  0  1  0  0  0  0  0  0
  162.0920  214.1210  148.1050 C   0  0  0  0  0  2  0  0  0  0  0  0
  161.6230  212.4990  146.3050 O   0  0  0  0  0  0  0  0  0  0  0  0
  160.4830  213.2990  146.0480 C   0  0  2  0  0  0  0  0  0  0  0  0
  158.4590  212.8590  144.7170 C   0  0  0  0  0  2  0  0  0  0  0  0
  159.2790  213.1880  146.9730 C   0  0  0  0  0  2  0  0  0  0  0  0
  159.9570  213.0640  144.6430 C   0  0  1  0  0  0  0  0  0  0  0  0
  160.5640  214.4040  144.9930 C   0  0  0  0  0  2  0  0  0  0  0  0
  158.1590  212.5580  146.1690 C   0  0  0  0  0  2  0  0  0  0  0  0
  160.7480  212.1700  143.8660 O   0  0  0  0  0  0  0  0  0  0  0  0
  160.8300  212.2460  142.4740 C   0  0  0  0  0  0  0  0  0  0  0  0
  159.9000  213.4970  140.5070 C   0  0  0  0  0  2  0  0  0  0  0  0
  162.1030  212.1670  140.3890 C   0  0  0  0  0  2  0  0  0  0  0  0
  161.2930  213.3550  139.8600 C   0  0  0  0  0  2  0  0  0  0  0  0
  162.0140  212.1050  141.8830 C   0  0  0  0  0  3  0  0  0  0  0  0
  159.6110  212.4790  141.6200 C   0  0  0  0  0  2  0  0  0  0  0  0
  1  6  1  0  0  0  0
  2 12  1  0  0  0  0
  2 11  1  0  0  0  0
  3 10  1  0  0  0  0
  4  8  1  0  0  0  0
  5  1  1  0  0  0  0
  7  4  1  0  0  0  0
  7  9  1  0  0  0  0
  8  1  2  0  0  0  0
  9  5  2  0  0  0  0
 10 11  1  0  0  0  0
 11  7  2  0  0  0  0
 12 15  1  0  0  0  0
 13  2  2  0  0  0  0
 14 13  1  0  0  0  0
 14  3  2  0  0  0  0
 15  4  2  0  0  0  0
 16 13  1  0  0  0  0
 17 16  1  0  0  0  0
 19 24  1  1  0  0  0
 19 18  1  0  0  0  0
 20 21  1  0  0  0  0
 21 18  1  0  0  0  0
 21 17  1  1  0  0  0
 22 20  1  0  0  0  0
 22 19  1  0  0  0  0
 23 24  1  0  0  0  0
 25  3  1  0  0  0  0
 26 25  1  0  0  0  0
 27 29  1  1  0  0  0
 27 26  1  0  0  0  0
 29 28  1  0  0  0  0
 30 27  1  0  0  0  0
 31 30  1  1  0  0  0
 31 33  1  0  0  0  0
 32 36  1  0  0  0  0
 34 37  1  6  0  0  0
 34 32  1  0  0  0  0
 34 35  1  0  0  0  0
 34 31  1  0  0  0  0
 35 31  1  0  0  0  0
 36 33  1  0  0  0  0
 38 37  1  0  0  0  0
 39 43  1  0  0  0  0
 40 42  1  0  0  0  0
 41 40  1  0  0  0  0
 41 39  1  0  0  0  0
 42 38  2  0  0  0  0
 43 38  1  0  0  0  0
M  END
>  <MODEL>
7

>  <REMARK>
 VINA RESULT:      -8.3      1.781      6.802
  Name = 
  12 active torsions:
  status: ('A' for Active; 'I' for Inactive)
    1  A    between atoms: C_1  and  C_34
    2  A    between atoms: C_1  and  C_35
    3  A    between atoms: C_2  and  O_6
    4  A    between atoms: C_2  and  C_12
    5  A    between atoms: O_3  and  C_4
    6  A    between atoms: O_3  and  C_12
    7  A    between atoms: O_6  and  C_13
    8  A    between atoms: C_11  and  O_14
    9  A    between atoms: C_12  and  C_17
   10  A    between atoms: O_14  and  C_22
   11  A    between atoms: C_19  and  O_37
   12  A    between atoms: C_32  and  C_35
                            x       y       z     vdW  Elec       q    Type
                         _______ _______ _______ _____ _____    ______ ____

>  <TORSDO>
F 12

$$$$
=
 OpenBabel11062410143D

 43 49  0  0  1  0  0  0  0  0999 V2000
  161.7320  213.8170  146.3890 C   0  0  0  0  0  0  0  0  0  0  0  0
  160.2090  212.6780  151.1120 C   0  0  0  0  0  0  0  0  0  0  0  0
  161.5030  210.2590  151.7880 C   0  0  0  0  0  0  0  0  0  0  0  0
  160.6540  213.8420  148.5880 C   0  0  0  0  0  0  0  0  0  0  0  0
  162.3820  212.6810  146.6440 C   0  0  0  0  0  3  0  0  0  0  0  0
  161.8960  214.4430  145.1610 O   0  0  0  0  0  1  0  0  0  0  0  0
  161.3060  212.6350  148.9280 C   0  0  0  0  0  0  0  0  0  0  0  0
  160.8430  214.4150  147.3970 C   0  0  0  0  0  3  0  0  0  0  0  0
  162.2440  211.9550  147.9560 C   0  0  0  0  0  2  0  0  0  0  0  0
  161.7160  210.8570  150.5370 O   0  0  0  0  0  0  0  0  0  0  0  0
  161.0790  212.0570  150.1870 C   0  0  0  0  0  0  0  0  0  0  0  0
  159.5760  213.8780  150.7570 C   0  0  0  0  0  3  0  0  0  0  0  0
  160.0030  212.1030  152.3180 C   0  0  0  0  0  0  0  0  0  0  0  0
  160.6820  210.8380  152.6640 C   0  0  0  0  0  3  0  0  0  0  0  0
  159.7970  214.4530  149.5050 C   0  0  0  0  0  3  0  0  0  0  0  0
  159.1090  212.7230  153.3520 C   0  0  0  0  0  2  0  0  0  0  0  0
  159.3660  212.1240  154.7290 C   0  0  0  0  0  2  0  0  0  0  0  0
  157.5320  213.6630  155.3950 C   0  0  0  0  0  2  0  0  0  0  0  0
  156.0720  213.4710  155.7350 C   0  0  2  0  0  3  0  0  0  0  0  0
  157.0910  211.2880  155.3570 C   0  0  0  0  0  2  0  0  0  0  0  0
  158.1690  212.3170  155.6470 C   0  0  1  0  0  3  0  0  0  0  0  0
  155.7610  212.0180  155.4260 C   0  0  0  0  0  2  0  0  0  0  0  0
  155.2510  213.6920  153.6930 C   0  0  0  0  0  1  0  0  0  0  0  0
  155.2830  214.3080  154.9450 O   0  0  0  0  0  0  0  0  0  0  0  0
  162.1410  209.0680  152.1250 O   0  0  0  0  0  0  0  0  0  0  0  0
  162.2210  207.9890  151.2070 C   0  0  0  0  0  2  0  0  0  0  0  0
  161.7840  206.6930  151.8830 C   0  0  2  0  0  3  0  0  0  0  0  0
  160.8510  206.3310  154.1700 C   0  0  0  0  0  1  0  0  0  0  0  0
  162.0990  206.6690  153.3770 C   0  0  0  0  0  2  0  0  0  0  0  0
  162.2050  205.5270  151.1920 O   0  0  0  0  0  0  0  0  0  0  0  0
  161.1110  204.6690  150.9210 C   0  0  2  0  0  0  0  0  0  0  0  0
  160.8200  202.8920  149.2430 C   0  0  0  0  0  2  0  0  0  0  0  0
  161.0430  203.3170  151.6180 C   0  0  0  0  0  2  0  0  0  0  0  0
  160.9970  204.3830  149.4350 C   0  0  1  0  0  0  0  0  0  0  0  0
  159.9230  205.2000  150.1160 C   0  0  0  0  0  2  0  0  0  0  0  0
  161.2410  202.2590  150.5510 C   0  0  0  0  0  2  0  0  0  0  0  0
  161.9410  205.0840  148.6320 O   0  0  0  0  0  0  0  0  0  0  0  0
  161.7890  205.2480  147.2530 C   0  0  0  0  0  0  0  0  0  0  0  0
  162.0980  204.0410  145.0740 C   0  0  0  0  0  2  0  0  0  0  0  0
  160.5730  206.1050  145.3120 C   0  0  0  0  0  2  0  0  0  0  0  0
  160.8450  204.7900  144.5740 C   0  0  0  0  0  2  0  0  0  0  0  0
  160.7300  205.9090  146.7900 C   0  0  0  0  0  3  0  0  0  0  0  0
  162.7940  204.7020  146.2740 C   0  0  0  0  0  2  0  0  0  0  0  0
  1  5  2  0  0  0  0
  1  8  1  0  0  0  0
  2 13  2  0  0  0  0
  3 25  1  0  0  0  0
  3 14  2  0  0  0  0
  4  7  1  0  0  0  0
  4 15  1  0  0  0  0
  5  9  1  0  0  0  0
  6  1  1  0  0  0  0
  7 11  2  0  0  0  0
  8  4  2  0  0  0  0
  9  7  1  0  0  0  0
 10  3  1  0  0  0  0
 11 10  1  0  0  0  0
 11  2  1  0  0  0  0
 12  2  1  0  0  0  0
 13 14  1  0  0  0  0
 13 16  1  0  0  0  0
 15 12  2  0  0  0  0
 16 17  1  0  0  0  0
 18 21  1  0  0  0  0
 18 19  1  0  0  0  0
 19 24  1  6  0  0  0
 20 22  1  0  0  0  0
 20 21  1  0  0  0  0
 21 17  1  6  0  0  0
 22 19  1  0  0  0  0
 23 24  1  0  0  0  0
 26 25  1  0  0  0  0
 27 26  1  6  0  0  0
 27 29  1  0  0  0  0
 29 28  1  0  0  0  0
 30 27  1  0  0  0  0
 31 30  1  1  0  0  0
 31 33  1  0  0  0  0
 32 34  1  0  0  0  0
 32 36  1  0  0  0  0
 34 37  1  6  0  0  0
 34 35  1  0  0  0  0
 34 31  1  0  0  0  0
 35 31  1  0  0  0  0
 36 33  1  0  0  0  0
 38 37  1  0  0  0  0
 39 43  1  0  0  0  0
 40 42  1  0  0  0  0
 41 39  1  0  0  0  0
 41 40  1  0  0  0  0
 42 38  2  0  0  0  0
 43 38  1  0  0  0  0
M  END
>  <MODEL>
8

>  <REMARK>
 VINA RESULT:      -7.8      3.031      8.435
  Name = 
  12 active torsions:
  status: ('A' for Active; 'I' for Inactive)
    1  A    between atoms: C_1  and  C_34
    2  A    between atoms: C_1  and  C_35
    3  A    between atoms: C_2  and  O_6
    4  A    between atoms: C_2  and  C_12
    5  A    between atoms: O_3  and  C_4
    6  A    between atoms: O_3  and  C_12
    7  A    between atoms: O_6  and  C_13
    8  A    between atoms: C_11  and  O_14
    9  A    between atoms: C_12  and  C_17
   10  A    between atoms: O_14  and  C_22
   11  A    between atoms: C_19  and  O_37
   12  A    between atoms: C_32  and  C_35
                            x       y       z     vdW  Elec       q    Type
                         _______ _______ _______ _____ _____    ______ ____

>  <TORSDO>
F 12

$$$$
=
 OpenBabel11062410143D

 43 49  0  0  1  0  0  0  0  0999 V2000
  161.7400  213.7320  146.7760 C   0  0  0  0  0  0  0  0  0  0  0  0
  160.3650  212.2170  151.4380 C   0  0  0  0  0  0  0  0  0  0  0  0
  161.7030  209.7700  151.8910 C   0  0  0  0  0  0  0  0  0  0  0  0
  160.7250  213.5760  148.9990 C   0  0  0  0  0  0  0  0  0  0  0  0
  162.4090  212.5880  146.9250 C   0  0  0  0  0  3  0  0  0  0  0  0
  161.8620  214.4520  145.5960 O   0  0  0  0  0  1  0  0  0  0  0  0
  161.3990  212.3540  149.2270 C   0  0  0  0  0  0  0  0  0  0  0  0
  160.8730  214.2390  147.8510 C   0  0  0  0  0  3  0  0  0  0  0  0
  162.3170  211.7620  148.1810 C   0  0  0  0  0  2  0  0  0  0  0  0
  161.8740  210.4640  150.6840 O   0  0  0  0  0  0  0  0  0  0  0  0
  161.2150  211.6790  150.4450 C   0  0  0  0  0  0  0  0  0  0  0  0
  159.7090  213.4320  151.1930 C   0  0  0  0  0  3  0  0  0  0  0  0
  160.1990  211.5490  152.6020 C   0  0  0  0  0  0  0  0  0  0  0  0
  160.9020  210.2690  152.8310 C   0  0  0  0  0  3  0  0  0  0  0  0
  159.8880  214.1040  149.9840 C   0  0  0  0  0  3  0  0  0  0  0  0
  159.3290  212.0770  153.7040 C   0  0  0  0  0  2  0  0  0  0  0  0
  158.6060  210.9440  154.4230 C   0  0  0  0  0  2  0  0  0  0  0  0
  160.1680  209.7120  155.9100 C   0  0  0  0  0  2  0  0  0  0  0  0
  161.0640  210.1160  157.0570 C   0  0  2  0  0  3  0  0  0  0  0  0
  159.7790  212.0570  156.3330 C   0  0  0  0  0  2  0  0  0  0  0  0
  159.1080  210.7850  155.8490 C   0  0  1  0  0  3  0  0  0  0  0  0
  161.0120  211.6320  157.1120 C   0  0  0  0  0  2  0  0  0  0  0  0
  162.9440  210.7090  156.0540 C   0  0  0  0  0  1  0  0  0  0  0  0
  162.3710  209.6900  156.8170 O   0  0  0  0  0  0  0  0  0  0  0  0
  162.3630  208.5650  152.1180 O   0  0  0  0  0  0  0  0  0  0  0  0
  162.3270  207.5140  151.1650 C   0  0  0  0  0  2  0  0  0  0  0  0
  161.7770  206.2430  151.8090 C   0  0  2  0  0  3  0  0  0  0  0  0
  160.6730  205.8430  154.0120 C   0  0  0  0  0  1  0  0  0  0  0  0
  161.9720  206.2150  153.3240 C   0  0  0  0  0  2  0  0  0  0  0  0
  162.1960  205.0540  151.1570 O   0  0  0  0  0  0  0  0  0  0  0  0
  161.1000  204.1910  150.9140 C   0  0  2  0  0  0  0  0  0  0  0  0
  160.7980  202.3770  149.2770 C   0  0  0  0  0  2  0  0  0  0  0  0
  161.0370  202.8550  151.6410 C   0  0  0  0  0  2  0  0  0  0  0  0
  160.9750  203.8710  149.4350 C   0  0  1  0  0  0  0  0  0  0  0  0
  159.9060  204.7030  150.1060 C   0  0  0  0  0  2  0  0  0  0  0  0
  161.2280  201.7730  150.5960 C   0  0  0  0  0  2  0  0  0  0  0  0
  161.9140  204.5540  148.6090 O   0  0  0  0  0  0  0  0  0  0  0  0
  161.6570  204.8700  147.2730 C   0  0  0  0  0  0  0  0  0  0  0  0
  161.2910  203.8100  145.0280 C   0  0  0  0  0  2  0  0  0  0  0  0
  160.5610  206.2240  145.5570 C   0  0  0  0  0  2  0  0  0  0  0  0
  160.2990  204.9550  144.7380 C   0  0  0  0  0  2  0  0  0  0  0  0
  160.8230  205.8690  146.9890 C   0  0  0  0  0  3  0  0  0  0  0  0
  162.3040  204.1150  146.1420 C   0  0  0  0  0  2  0  0  0  0  0  0
  1  5  2  0  0  0  0
  1  8  1  0  0  0  0
  2 13  2  0  0  0  0
  3 25  1  0  0  0  0
  3 14  2  0  0  0  0
  4  7  1  0  0  0  0
  4 15  1  0  0  0  0
  5  9  1  0  0  0  0
  6  1  1  0  0  0  0
  7 11  2  0  0  0  0
  8  4  2  0  0  0  0
  9  7  1  0  0  0  0
 10  3  1  0  0  0  0
 11 10  1  0  0  0  0
 11  2  1  0  0  0  0
 12  2  1  0  0  0  0
 13 14  1  0  0  0  0
 13 16  1  0  0  0  0
 15 12  2  0  0  0  0
 16 17  1  0  0  0  0
 18 19  1  0  0  0  0
 19 24  1  6  0  0  0
 19 22  1  0  0  0  0
 20 22  1  0  0  0  0
 21 17  1  6  0  0  0
 21 18  1  0  0  0  0
 21 20  1  0  0  0  0
 23 24  1  0  0  0  0
 26 25  1  0  0  0  0
 27 26  1  6  0  0  0
 27 29  1  0  0  0  0
 29 28  1  0  0  0  0
 30 27  1  0  0  0  0
 31 30  1  1  0  0  0
 31 33  1  0  0  0  0
 32 34  1  0  0  0  0
 32 36  1  0  0  0  0
 34 37  1  6  0  0  0
 34 35  1  0  0  0  0
 34 31  1  0  0  0  0
 35 31  1  0  0  0  0
 36 33  1  0  0  0  0
 38 37  1  0  0  0  0
 39 43  1  0  0  0  0
 40 42  1  0  0  0  0
 41 39  1  0  0  0  0
 41 40  1  0  0  0  0
 42 38  2  0  0  0  0
 43 38  1  0  0  0  0
M  END
>  <MODEL>
9

>  <REMARK>
 VINA RESULT:      -7.8      2.329      8.125
  Name = 
  12 active torsions:
  status: ('A' for Active; 'I' for Inactive)
    1  A    between atoms: C_1  and  C_34
    2  A    between atoms: C_1  and  C_35
    3  A    between atoms: C_2  and  O_6
    4  A    between atoms: C_2  and  C_12
    5  A    between atoms: O_3  and  C_4
    6  A    between atoms: O_3  and  C_12
    7  A    between atoms: O_6  and  C_13
    8  A    between atoms: C_11  and  O_14
    9  A    between atoms: C_12  and  C_17
   10  A    between atoms: O_14  and  C_22
   11  A    between atoms: C_19  and  O_37
   12  A    between atoms: C_32  and  C_35
                            x       y       z     vdW  Elec       q    Type
                         _______ _______ _______ _____ _____    ______ ____

>  <TORSDO>
F 12

$$$$
