=
 OpenBabel11052423143D

 27 31  0  0  1  0  0  0  0  0999 V2000
  162.8610  207.3540  151.4050 C   0  0  0  0  0  2  0  0  0  0  0  0
  161.3990  205.3850  151.6560 C   0  0  0  0  0  0  0  0  0  0  0  0
  161.2880  206.0630  149.2220 N   0  0  0  0  0  2  0  0  0  0  0  0
  160.4380  201.4890  150.3850 C   0  0  0  0  0  2  0  0  0  0  0  0
  159.0310  201.5140  148.4620 F   0  0  0  0  0  0  0  0  0  0  0  0
  161.2300  204.3890  152.5780 N   0  0  0  0  0  0  0  0  0  0  0  0
  160.7230  203.1900  148.5940 C   0  0  2  0  0  3  0  0  0  0  0  0
  161.4100  209.6040  148.0950 C   0  0  0  0  0  3  0  0  0  0  0  0
  162.0030  203.2190  147.7780 C   0  0  0  0  0  1  0  0  0  0  0  0
  162.1240  210.1980  149.1340 C   0  0  0  0  0  0  0  0  0  0  0  0
  160.9620  203.7590  149.9450 C   0  0  0  0  0  0  0  0  0  0  0  0
  161.7730  206.6930  152.1050 N   0  0  0  0  0  0  0  0  0  0  0  0
  160.3330  201.7280  148.8710 C   0  0  1  0  0  3  0  0  0  0  0  0
  160.8010  202.8170  150.9160 C   0  0  0  0  0  0  0  0  0  0  0  0
  162.3150  208.1080  150.2530 C   0  0  0  0  0  0  0  0  0  0  0  0
  161.2560  205.0850  150.2770 C   0  0  0  0  0  0  0  0  0  0  0  0
  161.1450  208.2350  148.1490 C   0  0  0  0  0  3  0  0  0  0  0  0
  160.9310  203.1360  152.2240 N   0  0  0  0  0  0  0  0  0  0  0  0
  162.4040  211.5910  149.0970 N   0  0  0  0  0  1  0  0  0  0  0  0
  162.5620  209.4440  150.1760 N   0  0  0  0  0  0  0  0  0  0  0  0
  161.5800  207.4700  149.2350 C   0  0  0  0  0  0  0  0  0  0  0  0
  159.9310  208.5670  155.4530 C   0  0  0  0  0  3  0  0  0  0  0  0
  161.1360  207.3290  153.2340 C   0  0  0  0  0  0  0  0  0  0  0  0
  160.8890  208.7130  153.2360 C   0  0  0  0  0  3  0  0  0  0  0  0
  160.2870  209.3280  154.3380 C   0  0  0  0  0  3  0  0  0  0  0  0
  160.1760  207.1920  155.4680 C   0  0  0  0  0  3  0  0  0  0  0  0
  160.7760  206.5780  154.3670 C   0  0  0  0  0  3  0  0  0  0  0  0
  1 12  1  0  0  0  0
  2 12  1  0  0  0  0
  2  6  1  0  0  0  0
  3 21  1  0  0  0  0
  3 16  1  0  0  0  0
  4 14  1  0  0  0  0
  7  9  1  6  0  0  0
  7 13  1  0  0  0  0
  7 11  1  0  0  0  0
  8 17  2  0  0  0  0
  8 10  1  0  0  0  0
 10 20  2  0  0  0  0
 11 16  1  0  0  0  0
 11 14  2  0  0  0  0
 12 23  1  0  0  0  0
 13  5  1  1  0  0  0
 13  4  1  0  0  0  0
 14 18  1  0  0  0  0
 15  1  1  0  0  0  0
 16  2  2  0  0  0  0
 17 21  1  0  0  0  0
 18  6  2  0  0  0  0
 19 10  1  0  0  0  0
 20 15  1  0  0  0  0
 21 15  2  0  0  0  0
 22 26  1  0  0  0  0
 23 24  2  0  0  0  0
 23 27  1  0  0  0  0
 24 25  1  0  0  0  0
 25 22  2  0  0  0  0
 27 26  2  0  0  0  0
M  END
>  <MODEL>
1

>  <REMARK>
 VINA RESULT:      -7.9      0.000      0.000
  Name = 
  1 active torsions:
  status: ('A' for Active; 'I' for Inactive)
    1  A    between atoms: C_9  and  N_15
                            x       y       z     vdW  Elec       q    Type
                         _______ _______ _______ _____ _____    ______ ____

>  <TORSDO>
F 1

$$$$
=
 OpenBabel11052423143D

 27 31  0  0  1  0  0  0  0  0999 V2000
  162.9200  208.7340  149.8200 C   0  0  0  0  0  2  0  0  0  0  0  0
  161.6900  209.5120  151.8090 C   0  0  0  0  0  0  0  0  0  0  0  0
  160.9480  207.1320  151.3840 N   0  0  0  0  0  2  0  0  0  0  0  0
  160.6960  208.8650  155.8480 C   0  0  0  0  0  2  0  0  0  0  0  0
  158.8650  207.3570  156.0720 F   0  0  0  0  0  0  0  0  0  0  0  0
  161.8140  210.5300  152.7130 N   0  0  0  0  0  0  0  0  0  0  0  0
  160.4290  206.9180  154.3260 C   0  0  2  0  0  3  0  0  0  0  0  0
  160.5700  205.7040  147.9720 C   0  0  0  0  0  3  0  0  0  0  0  0
  161.4680  205.8100  154.3280 C   0  0  0  0  0  1  0  0  0  0  0  0
  161.4750  206.4770  147.2490 C   0  0  0  0  0  0  0  0  0  0  0  0
  160.9530  208.1120  153.6150 C   0  0  0  0  0  0  0  0  0  0  0  0
  162.0790  209.7380  150.4490 N   0  0  0  0  0  0  0  0  0  0  0  0
  160.2120  207.4100  155.7670 C   0  0  1  0  0  3  0  0  0  0  0  0
  161.0930  209.1710  154.4610 C   0  0  0  0  0  0  0  0  0  0  0  0
  162.0640  207.6920  149.2070 C   0  0  0  0  0  0  0  0  0  0  0  0
  161.2350  208.2440  152.2520 C   0  0  0  0  0  0  0  0  0  0  0  0
  160.4120  205.9420  149.3380 C   0  0  0  0  0  3  0  0  0  0  0  0
  161.5170  210.3730  154.0070 N   0  0  0  0  0  0  0  0  0  0  0  0
  161.6500  206.2510  145.8570 N   0  0  0  0  0  1  0  0  0  0  0  0
  162.2010  207.4400  147.8770 N   0  0  0  0  0  0  0  0  0  0  0  0
  161.1450  206.9490  149.9720 C   0  0  0  0  0  0  0  0  0  0  0  0
  160.9800  213.2720  148.3470 C   0  0  0  0  0  3  0  0  0  0  0  0
  161.6970  210.9290  149.7290 C   0  0  0  0  0  0  0  0  0  0  0  0
  162.1530  211.1560  148.4190 C   0  0  0  0  0  3  0  0  0  0  0  0
  161.7950  212.3190  147.7310 C   0  0  0  0  0  3  0  0  0  0  0  0
  160.5240  213.0630  149.6500 C   0  0  0  0  0  3  0  0  0  0  0  0
  160.8820  211.9000  150.3370 C   0  0  0  0  0  3  0  0  0  0  0  0
  1 12  1  0  0  0  0
  2 16  2  0  0  0  0
  2  6  1  0  0  0  0
  3 16  1  0  0  0  0
  6 18  2  0  0  0  0
  7  9  1  1  0  0  0
  7 13  1  0  0  0  0
  8 17  1  0  0  0  0
 10 20  1  0  0  0  0
 10  8  2  0  0  0  0
 11  7  1  0  0  0  0
 11 14  2  0  0  0  0
 12  2  1  0  0  0  0
 13  4  1  0  0  0  0
 13  5  1  6  0  0  0
 14  4  1  0  0  0  0
 15  1  1  0  0  0  0
 15 21  1  0  0  0  0
 16 11  1  0  0  0  0
 17 21  2  0  0  0  0
 18 14  1  0  0  0  0
 19 10  1  0  0  0  0
 20 15  2  0  0  0  0
 21  3  1  0  0  0  0
 22 26  1  0  0  0  0
 23 27  1  0  0  0  0
 23 12  1  0  0  0  0
 24 23  2  0  0  0  0
 25 22  2  0  0  0  0
 25 24  1  0  0  0  0
 26 27  2  0  0  0  0
M  END
>  <MODEL>
2

>  <REMARK>
 VINA RESULT:      -6.9      2.871      6.013
  Name = 
  1 active torsions:
  status: ('A' for Active; 'I' for Inactive)
    1  A    between atoms: C_9  and  N_15
                            x       y       z     vdW  Elec       q    Type
                         _______ _______ _______ _____ _____    ______ ____

>  <TORSDO>
F 1

$$$$
=
 OpenBabel11052423143D

 27 31  0  0  1  0  0  0  0  0999 V2000
  162.1540  210.0980  153.3420 C   0  0  0  0  0  2  0  0  0  0  0  0
  161.7130  210.0920  150.9170 C   0  0  0  0  0  0  0  0  0  0  0  0
  160.3050  211.9470  151.9040 N   0  0  0  0  0  2  0  0  0  0  0  0
  161.6520  212.2670  147.3130 C   0  0  0  0  0  2  0  0  0  0  0  0
  159.6170  213.4780  147.0510 F   0  0  0  0  0  0  0  0  0  0  0  0
  162.3190  209.5820  149.8020 N   0  0  0  0  0  0  0  0  0  0  0  0
  160.5180  213.3270  149.2550 C   0  0  2  0  0  3  0  0  0  0  0  0
  158.7170  211.7220  155.2580 C   0  0  0  0  0  3  0  0  0  0  0  0
  161.2040  214.4530  150.0070 C   0  0  0  0  0  1  0  0  0  0  0  0
  159.5750  210.8370  155.9090 C   0  0  0  0  0  0  0  0  0  0  0  0
  161.1290  212.0220  149.6120 C   0  0  0  0  0  0  0  0  0  0  0  0
  161.7860  209.3600  152.1460 N   0  0  0  0  0  0  0  0  0  0  0  0
  160.8080  213.4730  147.7510 C   0  0  1  0  0  3  0  0  0  0  0  0
  161.7460  211.4520  148.5390 C   0  0  0  0  0  0  0  0  0  0  0  0
  160.9330  210.6600  153.9650 C   0  0  0  0  0  0  0  0  0  0  0  0
  161.0780  211.3590  150.8420 C   0  0  0  0  0  0  0  0  0  0  0  0
  158.9800  212.0710  153.9330 C   0  0  0  0  0  3  0  0  0  0  0  0
  162.3320  210.2370  148.6370 N   0  0  0  0  0  0  0  0  0  0  0  0
  159.3240  210.4680  157.2590 N   0  0  0  0  0  1  0  0  0  0  0  0
  160.6570  210.3360  155.2570 N   0  0  0  0  0  0  0  0  0  0  0  0
  160.0820  211.5340  153.2620 C   0  0  0  0  0  0  0  0  0  0  0  0
  161.1280  205.1580  152.3160 C   0  0  0  0  0  3  0  0  0  0  0  0
  161.5490  207.9370  152.2070 C   0  0  0  0  0  0  0  0  0  0  0  0
  161.4750  207.2720  153.4430 C   0  0  0  0  0  3  0  0  0  0  0  0
  161.2630  205.8910  153.4970 C   0  0  0  0  0  3  0  0  0  0  0  0
  161.2060  205.8040  151.0810 C   0  0  0  0  0  3  0  0  0  0  0  0
  161.4180  207.1840  151.0260 C   0  0  0  0  0  3  0  0  0  0  0  0
  1 15  1  0  0  0  0
  2 12  1  0  0  0  0
  3 21  1  0  0  0  0
  4 13  1  0  0  0  0
  4 14  1  0  0  0  0
  6  2  2  0  0  0  0
  7 11  1  0  0  0  0
  7  9  1  1  0  0  0
  8 10  1  0  0  0  0
 10 19  1  0  0  0  0
 11 16  2  0  0  0  0
 12 23  1  0  0  0  0
 12  1  1  0  0  0  0
 13  5  1  6  0  0  0
 13  7  1  0  0  0  0
 14 18  2  0  0  0  0
 14 11  1  0  0  0  0
 15 20  1  0  0  0  0
 16  2  1  0  0  0  0
 16  3  1  0  0  0  0
 17  8  2  0  0  0  0
 18  6  1  0  0  0  0
 20 10  2  0  0  0  0
 21 17  1  0  0  0  0
 21 15  2  0  0  0  0
 22 25  1  0  0  0  0
 23 24  1  0  0  0  0
 24 25  2  0  0  0  0
 26 22  2  0  0  0  0
 27 26  1  0  0  0  0
 27 23  2  0  0  0  0
M  END
>  <MODEL>
3

>  <REMARK>
 VINA RESULT:      -6.4      3.651      7.277
  Name = 
  1 active torsions:
  status: ('A' for Active; 'I' for Inactive)
    1  A    between atoms: C_9  and  N_15
                            x       y       z     vdW  Elec       q    Type
                         _______ _______ _______ _____ _____    ______ ____

>  <TORSDO>
F 1

$$$$
=
 OpenBabel11052423143D

 27 31  0  0  1  0  0  0  0  0999 V2000
  162.6060  209.9530  151.1290 C   0  0  0  0  0  2  0  0  0  0  0  0
  161.4240  207.7980  151.3150 C   0  0  0  0  0  0  0  0  0  0  0  0
  161.5250  208.3570  148.8510 N   0  0  0  0  0  2  0  0  0  0  0  0
  161.2060  203.7560  150.1620 C   0  0  0  0  0  2  0  0  0  0  0  0
  160.0650  203.4940  148.0870 F   0  0  0  0  0  0  0  0  0  0  0  0
  161.2860  206.8240  152.2650 N   0  0  0  0  0  0  0  0  0  0  0  0
  161.4660  205.4090  148.3250 C   0  0  2  0  0  3  0  0  0  0  0  0
  161.2750  211.8300  147.5460 C   0  0  0  0  0  3  0  0  0  0  0  0
  162.8210  205.5990  147.6660 C   0  0  0  0  0  1  0  0  0  0  0  0
  161.7580  212.5640  148.6280 C   0  0  0  0  0  0  0  0  0  0  0  0
  161.4470  206.0600  149.6600 C   0  0  0  0  0  0  0  0  0  0  0  0
  161.5450  209.1640  151.7310 N   0  0  0  0  0  0  0  0  0  0  0  0
  161.2600  203.9170  148.6360 C   0  0  1  0  0  3  0  0  0  0  0  0
  161.3030  205.1420  150.6570 C   0  0  0  0  0  0  0  0  0  0  0  0
  162.1060  210.5710  149.8780 C   0  0  0  0  0  0  0  0  0  0  0  0
  161.5020  207.4260  149.9490 C   0  0  0  0  0  0  0  0  0  0  0  0
  161.2060  210.4400  147.6470 C   0  0  0  0  0  3  0  0  0  0  0  0
  161.2180  205.5270  151.9500 N   0  0  0  0  0  0  0  0  0  0  0  0
  161.8360  213.9810  148.5460 N   0  0  0  0  0  1  0  0  0  0  0  0
  162.1650  211.9260  149.7560 N   0  0  0  0  0  0  0  0  0  0  0  0
  161.6060  209.7910  148.8180 C   0  0  0  0  0  0  0  0  0  0  0  0
  159.0400  210.8870  154.7090 C   0  0  0  0  0  3  0  0  0  0  0  0
  160.6850  209.7400  152.7370 C   0  0  0  0  0  0  0  0  0  0  0  0
  159.7060  210.6870  152.3910 C   0  0  0  0  0  3  0  0  0  0  0  0
  158.8870  211.2560  153.3710 C   0  0  0  0  0  3  0  0  0  0  0  0
  160.0120  209.9510  155.0690 C   0  0  0  0  0  3  0  0  0  0  0  0
  160.8300  209.3830  154.0890 C   0  0  0  0  0  3  0  0  0  0  0  0
  1 12  1  0  0  0  0
  2 12  1  0  0  0  0
  2  6  1  0  0  0  0
  3 16  1  0  0  0  0
  4 14  1  0  0  0  0
  7  9  1  1  0  0  0
  7 13  1  0  0  0  0
  7 11  1  0  0  0  0
  8 17  2  0  0  0  0
  8 10  1  0  0  0  0
 10 20  2  0  0  0  0
 11 16  1  0  0  0  0
 11 14  2  0  0  0  0
 12 23  1  0  0  0  0
 13  5  1  6  0  0  0
 13  4  1  0  0  0  0
 14 18  1  0  0  0  0
 15  1  1  0  0  0  0
 16  2  2  0  0  0  0
 17 21  1  0  0  0  0
 18  6  2  0  0  0  0
 19 10  1  0  0  0  0
 20 15  1  0  0  0  0
 21  3  1  0  0  0  0
 21 15  2  0  0  0  0
 22 26  1  0  0  0  0
 23 27  1  0  0  0  0
 24 23  2  0  0  0  0
 24 25  1  0  0  0  0
 25 22  2  0  0  0  0
 27 26  2  0  0  0  0
M  END
>  <MODEL>
4

>  <REMARK>
 VINA RESULT:      -6.3      1.655      2.468
  Name = 
  1 active torsions:
  status: ('A' for Active; 'I' for Inactive)
    1  A    between atoms: C_9  and  N_15
                            x       y       z     vdW  Elec       q    Type
                         _______ _______ _______ _____ _____    ______ ____

>  <TORSDO>
F 1

$$$$
=
 OpenBabel11052423143D

 27 31  0  0  1  0  0  0  0  0999 V2000
  160.1830  211.3150  138.2830 C   0  0  0  0  0  2  0  0  0  0  0  0
  159.1410  212.1990  140.3350 C   0  0  0  0  0  0  0  0  0  0  0  0
  161.1190  210.8050  141.0710 N   0  0  0  0  0  2  0  0  0  0  0  0
  159.6210  214.3660  143.9120 C   0  0  0  0  0  2  0  0  0  0  0  0
  160.4500  212.9880  145.6700 F   0  0  0  0  0  0  0  0  0  0  0  0
  158.2670  213.2030  140.6470 N   0  0  0  0  0  0  0  0  0  0  0  0
  161.2940  212.5790  143.4770 C   0  0  2  0  0  3  0  0  0  0  0  0
  162.1730  207.6980  139.3230 C   0  0  0  0  0  3  0  0  0  0  0  0
  162.6810  212.9480  142.9820 C   0  0  0  0  0  1  0  0  0  0  0  0
  161.7070  207.9380  138.0320 C   0  0  0  0  0  0  0  0  0  0  0  0
  160.3060  212.6970  142.3740 C   0  0  0  0  0  0  0  0  0  0  0  0
  158.9900  211.5060  139.0910 N   0  0  0  0  0  0  0  0  0  0  0  0
  160.8290  213.6260  144.5050 C   0  0  1  0  0  3  0  0  0  0  0  0
  159.3950  213.6780  142.6270 C   0  0  0  0  0  0  0  0  0  0  0  0
  160.8520  210.0580  138.6900 C   0  0  0  0  0  0  0  0  0  0  0  0
  160.2090  211.9100  141.2230 C   0  0  0  0  0  0  0  0  0  0  0  0
  161.9630  208.6610  140.3100 C   0  0  0  0  0  3  0  0  0  0  0  0
  158.3810  213.9240  141.7670 N   0  0  0  0  0  0  0  0  0  0  0  0
  161.9100  206.9690  137.0120 N   0  0  0  0  0  1  0  0  0  0  0  0
  161.0700  209.1040  137.7440 N   0  0  0  0  0  0  0  0  0  0  0  0
  161.2880  209.8480  140.0130 C   0  0  0  0  0  0  0  0  0  0  0  0
  155.2220  210.1290  137.6680 C   0  0  0  0  0  3  0  0  0  0  0  0
  157.7050  211.0450  138.6190 C   0  0  0  0  0  0  0  0  0  0  0  0
  157.0710  209.9440  139.2190 C   0  0  0  0  0  3  0  0  0  0  0  0
  155.8360  209.4900  138.7480 C   0  0  0  0  0  3  0  0  0  0  0  0
  155.8430  211.2210  137.0590 C   0  0  0  0  0  3  0  0  0  0  0  0
  157.0780  211.6750  137.5300 C   0  0  0  0  0  3  0  0  0  0  0  0
  1 15  1  0  0  0  0
  1 12  1  0  0  0  0
  2  6  2  0  0  0  0
  2 16  1  0  0  0  0
  3 16  1  0  0  0  0
  4 13  1  0  0  0  0
  6 18  1  0  0  0  0
  7  9  1  6  0  0  0
  7 13  1  0  0  0  0
  8 17  1  0  0  0  0
 10  8  2  0  0  0  0
 11 14  1  0  0  0  0
 11  7  1  0  0  0  0
 12  2  1  0  0  0  0
 13  5  1  1  0  0  0
 14  4  1  0  0  0  0
 15 21  1  0  0  0  0
 16 11  2  0  0  0  0
 18 14  2  0  0  0  0
 19 10  1  0  0  0  0
 20 10  1  0  0  0  0
 20 15  2  0  0  0  0
 21 17  2  0  0  0  0
 21  3  1  0  0  0  0
 22 25  1  0  0  0  0
 23 12  1  0  0  0  0
 23 24  1  0  0  0  0
 25 24  2  0  0  0  0
 26 27  1  0  0  0  0
 26 22  2  0  0  0  0
 27 23  2  0  0  0  0
M  END
>  <MODEL>
5

>  <REMARK>
 VINA RESULT:      -5.7     10.435     13.477
  Name = 
  1 active torsions:
  status: ('A' for Active; 'I' for Inactive)
    1  A    between atoms: C_9  and  N_15
                            x       y       z     vdW  Elec       q    Type
                         _______ _______ _______ _____ _____    ______ ____

>  <TORSDO>
F 1

$$$$
=
 OpenBabel11052423143D

 27 31  0  0  1  0  0  0  0  0999 V2000
  159.7660  205.7330  149.7600 C   0  0  0  0  0  2  0  0  0  0  0  0
  160.7980  206.2160  151.9460 C   0  0  0  0  0  0  0  0  0  0  0  0
  161.6200  207.9960  150.3480 N   0  0  0  0  0  2  0  0  0  0  0  0
  161.4380  209.0070  155.0320 C   0  0  0  0  0  2  0  0  0  0  0  0
  163.2700  210.4510  154.5460 F   0  0  0  0  0  0  0  0  0  0  0  0
  160.5740  205.8580  153.2470 N   0  0  0  0  0  0  0  0  0  0  0  0
  161.8770  209.8060  152.7200 C   0  0  2  0  0  3  0  0  0  0  0  0
  162.3300  207.3290  146.7600 C   0  0  0  0  0  3  0  0  0  0  0  0
  160.8640  210.6980  152.0240 C   0  0  0  0  0  1  0  0  0  0  0  0
  161.4780  206.2560  146.5070 C   0  0  0  0  0  0  0  0  0  0  0  0
  161.3960  208.4010  152.7410 C   0  0  0  0  0  0  0  0  0  0  0  0
  160.5280  205.2680  150.9070 N   0  0  0  0  0  0  0  0  0  0  0  0
  161.9550  210.1940  154.2060 C   0  0  1  0  0  3  0  0  0  0  0  0
  161.1610  207.9760  154.0140 C   0  0  0  0  0  0  0  0  0  0  0  0
  160.6930  206.2960  148.7520 C   0  0  0  0  0  0  0  0  0  0  0  0
  161.2350  207.5340  151.6560 C   0  0  0  0  0  0  0  0  0  0  0  0
  162.3600  207.8840  148.0390 C   0  0  0  0  0  3  0  0  0  0  0  0
  160.7570  206.7090  154.2610 N   0  0  0  0  0  0  0  0  0  0  0  0
  161.4330  205.6750  145.2100 N   0  0  0  0  0  1  0  0  0  0  0  0
  160.6810  205.7720  147.4960 N   0  0  0  0  0  0  0  0  0  0  0  0
  161.5540  207.3670  149.0570 C   0  0  0  0  0  0  0  0  0  0  0  0
  161.7980  201.2120  151.1330 C   0  0  0  0  0  3  0  0  0  0  0  0
  160.9510  203.8900  150.9950 C   0  0  0  0  0  0  0  0  0  0  0  0
  161.9110  203.4910  151.9400 C   0  0  0  0  0  3  0  0  0  0  0  0
  162.3300  202.1590  152.0110 C   0  0  0  0  0  3  0  0  0  0  0  0
  160.8480  201.5960  150.1850 C   0  0  0  0  0  3  0  0  0  0  0  0
  160.4280  202.9260  150.1150 C   0  0  0  0  0  3  0  0  0  0  0  0
  1 12  1  0  0  0  0
  2  6  1  0  0  0  0
  3 16  1  0  0  0  0
  6 18  2  0  0  0  0
  7  9  1  6  0  0  0
  7 11  1  0  0  0  0
  7 13  1  0  0  0  0
  8 17  1  0  0  0  0
 10  8  2  0  0  0  0
 10 20  1  0  0  0  0
 11 14  2  0  0  0  0
 12 23  1  0  0  0  0
 12  2  1  0  0  0  0
 13  5  1  1  0  0  0
 13  4  1  0  0  0  0
 14 18  1  0  0  0  0
 14  4  1  0  0  0  0
 15 21  1  0  0  0  0
 15  1  1  0  0  0  0
 16  2  2  0  0  0  0
 16 11  1  0  0  0  0
 17 21  2  0  0  0  0
 19 10  1  0  0  0  0
 20 15  2  0  0  0  0
 21  3  1  0  0  0  0
 22 25  1  0  0  0  0
 23 24  1  0  0  0  0
 24 25  2  0  0  0  0
 26 22  2  0  0  0  0
 27 26  1  0  0  0  0
 27 23  2  0  0  0  0
M  END
>  <MODEL>
6

>  <REMARK>
 VINA RESULT:      -5.1      2.842      5.979
  Name = 
  1 active torsions:
  status: ('A' for Active; 'I' for Inactive)
    1  A    between atoms: C_9  and  N_15
                            x       y       z     vdW  Elec       q    Type
                         _______ _______ _______ _____ _____    ______ ____

>  <TORSDO>
F 1

$$$$
=
 OpenBabel11052423143D

 27 31  0  0  1  0  0  0  0  0999 V2000
  160.1580  214.1820  140.2470 C   0  0  0  0  0  2  0  0  0  0  0  0
  159.1300  213.7590  142.4470 C   0  0  0  0  0  0  0  0  0  0  0  0
  161.3350  212.5210  142.4300 N   0  0  0  0  0  2  0  0  0  0  0  0
  159.5100  213.9240  146.6360 C   0  0  0  0  0  2  0  0  0  0  0  0
  160.6430  212.0110  147.4920 F   0  0  0  0  0  0  0  0  0  0  0  0
  158.1370  214.3230  143.2000 N   0  0  0  0  0  0  0  0  0  0  0  0
  161.3970  212.8790  145.4030 C   0  0  2  0  0  3  0  0  0  0  0  0
  162.7240  210.8950  139.3880 C   0  0  0  0  0  3  0  0  0  0  0  0
  162.6800  213.6600  145.1830 C   0  0  0  0  0  1  0  0  0  0  0  0
  162.1470  211.6630  138.3790 C   0  0  0  0  0  0  0  0  0  0  0  0
  160.3350  213.3650  144.4860 C   0  0  0  0  0  0  0  0  0  0  0  0
  159.0040  213.7560  141.0200 N   0  0  0  0  0  0  0  0  0  0  0  0
  160.8490  213.1920  146.8050 C   0  0  1  0  0  3  0  0  0  0  0  0
  159.3070  213.9340  145.1750 C   0  0  0  0  0  0  0  0  0  0  0  0
  161.0310  213.0130  139.9880 C   0  0  0  0  0  0  0  0  0  0  0  0
  160.2820  213.2440  143.0940 C   0  0  0  0  0  0  0  0  0  0  0  0
  162.4370  211.1980  140.7200 C   0  0  0  0  0  3  0  0  0  0  0  0
  158.2140  214.4050  144.5320 N   0  0  0  0  0  0  0  0  0  0  0  0
  162.4260  211.3700  137.0160 N   0  0  0  0  0  1  0  0  0  0  0  0
  161.3270  212.6990  138.6970 N   0  0  0  0  0  0  0  0  0  0  0  0
  161.5750  212.2510  141.0390 C   0  0  0  0  0  0  0  0  0  0  0  0
  155.3680  212.6520  139.1030 C   0  0  0  0  0  3  0  0  0  0  0  0
  157.7740  213.3890  140.3580 C   0  0  0  0  0  0  0  0  0  0  0  0
  156.7090  214.3000  140.2610 C   0  0  0  0  0  3  0  0  0  0  0  0
  155.5130  213.9350  139.6350 C   0  0  0  0  0  3  0  0  0  0  0  0
  156.4160  211.7340  139.1970 C   0  0  0  0  0  3  0  0  0  0  0  0
  157.6110  212.0990  139.8220 C   0  0  0  0  0  3  0  0  0  0  0  0
  1 12  1  0  0  0  0
  2 16  2  0  0  0  0
  2  6  1  0  0  0  0
  3 16  1  0  0  0  0
  4 13  1  0  0  0  0
  6 18  2  0  0  0  0
  7  9  1  6  0  0  0
  7 13  1  0  0  0  0
  8 17  1  0  0  0  0
 10 20  1  0  0  0  0
 10  8  2  0  0  0  0
 11 14  2  0  0  0  0
 11  7  1  0  0  0  0
 12  2  1  0  0  0  0
 13  5  1  1  0  0  0
 14  4  1  0  0  0  0
 15  1  1  0  0  0  0
 15 21  1  0  0  0  0
 16 11  1  0  0  0  0
 17 21  2  0  0  0  0
 18 14  1  0  0  0  0
 19 10  1  0  0  0  0
 20 15  2  0  0  0  0
 21  3  1  0  0  0  0
 22 26  2  0  0  0  0
 22 25  1  0  0  0  0
 23 12  1  0  0  0  0
 24 23  1  0  0  0  0
 25 24  2  0  0  0  0
 26 27  1  0  0  0  0
 27 23  2  0  0  0  0
M  END
>  <MODEL>
7

>  <REMARK>
 VINA RESULT:      -5.1      9.406     12.704
  Name = 
  1 active torsions:
  status: ('A' for Active; 'I' for Inactive)
    1  A    between atoms: C_9  and  N_15
                            x       y       z     vdW  Elec       q    Type
                         _______ _______ _______ _____ _____    ______ ____

>  <TORSDO>
F 1

$$$$
=
 OpenBabel11052423143D

 27 31  0  0  1  0  0  0  0  0999 V2000
  160.1050  212.9710  152.0830 C   0  0  0  0  0  2  0  0  0  0  0  0
  157.8300  213.2550  152.9870 C   0  0  0  0  0  0  0  0  0  0  0  0
  158.7410  211.1160  153.9810 N   0  0  0  0  0  2  0  0  0  0  0  0
  155.3690  213.5270  156.3920 C   0  0  0  0  0  2  0  0  0  0  0  0
  154.7530  211.3740  157.2050 F   0  0  0  0  0  0  0  0  0  0  0  0
  156.9300  214.2790  153.0990 N   0  0  0  0  0  0  0  0  0  0  0  0
  156.9600  211.6180  156.3370 C   0  0  2  0  0  3  0  0  0  0  0  0
  160.9760  208.8040  152.1160 C   0  0  0  0  0  3  0  0  0  0  0  0
  158.2330  211.6730  157.1630 C   0  0  0  0  0  1  0  0  0  0  0  0
  161.5860  209.6770  151.2180 C   0  0  0  0  0  0  0  0  0  0  0  0
  157.0890  212.4840  155.1370 C   0  0  0  0  0  0  0  0  0  0  0  0
  158.6910  213.2070  151.8440 N   0  0  0  0  0  0  0  0  0  0  0  0
  155.8120  212.2590  157.1350 C   0  0  1  0  0  3  0  0  0  0  0  0
  156.2100  213.5250  155.1800 C   0  0  0  0  0  0  0  0  0  0  0  0
  160.3590  211.5110  152.1050 C   0  0  0  0  0  0  0  0  0  0  0  0
  157.9260  212.3010  154.0320 C   0  0  0  0  0  0  0  0  0  0  0  0
  160.0370  209.3040  153.0180 C   0  0  0  0  0  3  0  0  0  0  0  0
  156.1320  214.4120  154.1620 N   0  0  0  0  0  0  0  0  0  0  0  0
  162.5460  209.1870  150.2910 N   0  0  0  0  0  1  0  0  0  0  0  0
  161.2730  210.9990  151.2360 N   0  0  0  0  0  0  0  0  0  0  0  0
  159.7040  210.6610  153.0160 C   0  0  0  0  0  0  0  0  0  0  0  0
  157.2610  213.8110  147.8810 C   0  0  0  0  0  3  0  0  0  0  0  0
  158.2020  213.4250  150.5030 C   0  0  0  0  0  0  0  0  0  0  0  0
  156.8280  213.3450  150.2160 C   0  0  0  0  0  3  0  0  0  0  0  0
  156.3600  213.5390  148.9140 C   0  0  0  0  0  3  0  0  0  0  0  0
  158.6290  213.8870  148.1500 C   0  0  0  0  0  3  0  0  0  0  0  0
  159.0960  213.6940  149.4520 C   0  0  0  0  0  3  0  0  0  0  0  0
  1 15  1  0  0  0  0
  2  6  2  0  0  0  0
  2 16  1  0  0  0  0
  3 16  1  0  0  0  0
  4 13  1  0  0  0  0
  6 18  1  0  0  0  0
  7 13  1  0  0  0  0
  7  9  1  1  0  0  0
  8 17  1  0  0  0  0
 10 20  1  0  0  0  0
 10  8  2  0  0  0  0
 11 14  1  0  0  0  0
 11  7  1  0  0  0  0
 12  1  1  0  0  0  0
 12  2  1  0  0  0  0
 13  5  1  6  0  0  0
 14  4  1  0  0  0  0
 15 21  1  0  0  0  0
 16 11  2  0  0  0  0
 18 14  2  0  0  0  0
 19 10  1  0  0  0  0
 20 15  2  0  0  0  0
 21 17  2  0  0  0  0
 21  3  1  0  0  0  0
 22 26  2  0  0  0  0
 22 25  1  0  0  0  0
 23 12  1  0  0  0  0
 24 23  1  0  0  0  0
 25 24  2  0  0  0  0
 26 27  1  0  0  0  0
 27 23  2  0  0  0  0
M  END
>  <MODEL>
8

>  <REMARK>
 VINA RESULT:      -5.1      5.496      9.230
  Name = 
  1 active torsions:
  status: ('A' for Active; 'I' for Inactive)
    1  A    between atoms: C_9  and  N_15
                            x       y       z     vdW  Elec       q    Type
                         _______ _______ _______ _____ _____    ______ ____

>  <TORSDO>
F 1

$$$$
=
 OpenBabel11052423143D

 27 31  0  0  1  0  0  0  0  0999 V2000
  162.7480  204.6360  148.4980 C   0  0  0  0  0  2  0  0  0  0  0  0
  161.8580  206.9090  148.8360 C   0  0  0  0  0  0  0  0  0  0  0  0
  160.9350  205.4850  150.7110 N   0  0  0  0  0  2  0  0  0  0  0  0
  161.4180  210.2030  151.4200 C   0  0  0  0  0  2  0  0  0  0  0  0
  159.5580  209.9290  152.8840 F   0  0  0  0  0  0  0  0  0  0  0  0
  162.1650  208.1670  148.3960 N   0  0  0  0  0  0  0  0  0  0  0  0
  160.8310  207.9800  152.3640 C   0  0  2  0  0  3  0  0  0  0  0  0
  159.9960  201.9150  150.2720 C   0  0  0  0  0  3  0  0  0  0  0  0
  161.7970  207.2800  153.3030 C   0  0  0  0  0  1  0  0  0  0  0  0
  160.8300  201.5390  149.2210 C   0  0  0  0  0  0  0  0  0  0  0  0
  161.3120  207.8790  150.9630 C   0  0  0  0  0  0  0  0  0  0  0  0
  162.0610  205.7960  147.9570 N   0  0  0  0  0  0  0  0  0  0  0  0
  160.8480  209.4900  152.6550 C   0  0  1  0  0  3  0  0  0  0  0  0
  161.6280  209.1050  150.4580 C   0  0  0  0  0  0  0  0  0  0  0  0
  161.7570  203.7270  149.1200 C   0  0  0  0  0  0  0  0  0  0  0  0
  161.4030  206.7330  150.1670 C   0  0  0  0  0  0  0  0  0  0  0  0
  160.0490  203.2260  150.7440 C   0  0  0  0  0  3  0  0  0  0  0  0
  162.0480  209.2440  149.1800 N   0  0  0  0  0  0  0  0  0  0  0  0
  160.7920  200.2070  148.7240 N   0  0  0  0  0  1  0  0  0  0  0  0
  161.6890  202.4420  148.6780 N   0  0  0  0  0  0  0  0  0  0  0  0
  160.9180  204.1550  150.1660 C   0  0  0  0  0  0  0  0  0  0  0  0
  160.8310  205.8330  143.8830 C   0  0  0  0  0  3  0  0  0  0  0  0
  161.6450  205.8230  146.5750 C   0  0  0  0  0  0  0  0  0  0  0  0
  160.3370  206.1960  146.2240 C   0  0  0  0  0  3  0  0  0  0  0  0
  159.9320  206.2030  144.8860 C   0  0  0  0  0  3  0  0  0  0  0  0
  162.1330  205.4540  144.2170 C   0  0  0  0  0  3  0  0  0  0  0  0
  162.5360  205.4470  145.5550 C   0  0  0  0  0  3  0  0  0  0  0  0
  1 15  1  0  0  0  0
  2 16  1  0  0  0  0
  4 13  1  0  0  0  0
  6  2  2  0  0  0  0
  6 18  1  0  0  0  0
  7 13  1  0  0  0  0
  7  9  1  1  0  0  0
  8 17  1  0  0  0  0
 10  8  2  0  0  0  0
 11  7  1  0  0  0  0
 12  1  1  0  0  0  0
 12  2  1  0  0  0  0
 13  5  1  6  0  0  0
 14 11  1  0  0  0  0
 14  4  1  0  0  0  0
 15 21  1  0  0  0  0
 16  3  1  0  0  0  0
 16 11  2  0  0  0  0
 18 14  2  0  0  0  0
 19 10  1  0  0  0  0
 20 15  2  0  0  0  0
 20 10  1  0  0  0  0
 21  3  1  0  0  0  0
 21 17  2  0  0  0  0
 22 26  2  0  0  0  0
 22 25  1  0  0  0  0
 23 12  1  0  0  0  0
 24 23  1  0  0  0  0
 25 24  2  0  0  0  0
 26 27  1  0  0  0  0
 27 23  2  0  0  0  0
M  END
>  <MODEL>
9

>  <REMARK>
 VINA RESULT:      -5.1      2.983      7.376
  Name = 
  1 active torsions:
  status: ('A' for Active; 'I' for Inactive)
    1  A    between atoms: C_9  and  N_15
                            x       y       z     vdW  Elec       q    Type
                         _______ _______ _______ _____ _____    ______ ____

>  <TORSDO>
F 1

$$$$
