=
 OpenBabel11062407553D

 34 39  0  0  1  0  0  0  0  0999 V2000
  161.9460  210.0420  149.5760 C   0  0  0  0  0  0  0  0  0  0  0  0
  160.8340  211.5090  151.1750 C   0  0  0  0  0  0  0  0  0  0  0  0
  161.3200  209.0250  151.7880 C   0  0  0  0  0  0  0  0  0  0  0  0
  160.9190  207.8900  153.9420 C   0  0  0  0  0  0  0  0  0  0  0  0
  161.5320  212.3540  149.0070 C   0  0  0  0  0  3  0  0  0  0  0  0
  160.9240  212.5460  150.2410 C   0  0  0  0  0  3  0  0  0  0  0  0
  161.2300  210.3560  153.8230 N   0  0  0  0  0  0  0  0  0  0  0  0
  161.3830  210.2240  150.8720 C   0  0  0  0  0  0  0  0  0  0  0  0
  160.2240  211.3330  153.5810 C   0  0  0  0  0  0  0  0  0  0  0  0
  160.4120  208.0050  155.2310 O   0  0  0  0  0  1  0  0  0  0  0  0
  162.0250  211.1020  148.6720 C   0  0  0  0  0  3  0  0  0  0  0  0
  161.4660  207.6550  151.1310 C   0  0  2  0  0  3  0  0  0  0  0  0
  162.3310  208.6940  149.0440 C   0  0  0  0  0  2  0  0  0  0  0  0
  160.0690  211.8630  152.3790 C   0  0  0  0  0  3  0  0  0  0  0  0
  161.1340  206.6780  153.4480 C   0  0  0  0  0  3  0  0  0  0  0  0
  161.7560  206.5010  152.1030 C   0  0  1  0  0  3  0  0  0  0  0  0
  162.0120  210.4540  154.9830 N   0  0  0  0  0  1  0  0  0  0  0  0
  161.1680  209.1070  153.1340 C   0  0  0  0  0  0  0  0  0  0  0  0
  162.6270  207.7040  150.1500 C   0  0  0  0  0  2  0  0  0  0  0  0
  160.8990  203.7570  149.6060 C   0  0  0  0  0  0  0  0  0  0  0  0
  160.7080  202.6680  150.4620 C   0  0  0  0  0  3  0  0  0  0  0  0
  161.3910  205.1710  151.5170 C   0  0  0  0  0  0  0  0  0  0  0  0
  160.8580  202.8280  151.8430 C   0  0  0  0  0  3  0  0  0  0  0  0
  161.2390  205.0070  150.1320 C   0  0  0  0  0  3  0  0  0  0  0  0
  161.1990  204.0780  152.3700 C   0  0  0  0  0  3  0  0  0  0  0  0
  160.7530  203.6020  148.2690 F   0  0  0  0  0  0  0  0  0  0  0  0
  159.4050  211.8690  154.7120 C   0  0  0  0  0  2  0  0  0  0  0  0
  158.2340  214.4530  153.8020 C   0  0  0  0  0  1  0  0  0  0  0  0
  158.0070  212.0320  154.3050 N   0  0  0  0  0  0  0  0  0  0  0  0
  157.5220  213.3890  154.6190 C   0  0  1  0  0  3  0  0  0  0  0  0
  157.2890  212.4920  156.9910 C   0  0  0  0  0  2  0  0  0  0  0  0
  156.4590  211.4650  156.2350 C   0  0  0  0  0  2  0  0  0  0  0  0
  157.2030  210.9910  154.9760 C   0  0  0  0  0  2  0  0  0  0  0  0
  157.5680  213.7190  156.1210 C   0  0  0  0  0  2  0  0  0  0  0  0
  1  8  1  0  0  0  0
  2 14  1  0  0  0  0
  3 18  2  0  0  0  0
  4 10  1  0  0  0  0
  5  6  2  0  0  0  0
  6  2  1  0  0  0  0
  7 17  1  0  0  0  0
  8  2  2  0  0  0  0
  8  3  1  0  0  0  0
  9  7  1  0  0  0  0
  9 27  1  0  0  0  0
 11  5  1  0  0  0  0
 11  1  2  0  0  0  0
 12 19  1  6  0  0  0
 12  3  1  0  0  0  0
 12 16  1  0  0  0  0
 13  1  1  0  0  0  0
 13 19  1  0  0  0  0
 14  9  2  0  0  0  0
 15  4  2  0  0  0  0
 16 22  1  6  0  0  0
 16 15  1  0  0  0  0
 18  7  1  0  0  0  0
 18  4  1  0  0  0  0
 20 24  2  0  0  0  0
 20 21  1  0  0  0  0
 21 23  2  0  0  0  0
 22 25  2  0  0  0  0
 23 25  1  0  0  0  0
 24 22  1  0  0  0  0
 26 20  1  0  0  0  0
 29 30  1  0  0  0  0
 29 27  1  0  0  0  0
 29 33  1  0  0  0  0
 30 28  1  6  0  0  0
 30 34  1  0  0  0  0
 32 31  1  0  0  0  0
 33 32  1  0  0  0  0
 34 31  1  0  0  0  0
M  END
>  <MODEL>
1

>  <REMARK>
 VINA RESULT:      -9.4      0.000      0.000
  Name = 
  3 active torsions:
  status: ('A' for Active; 'I' for Inactive)
    1  A    between atoms: C_3  and  N_13
    2  A    between atoms: C_3  and  C_17
    3  A    between atoms: C_12  and  C_28
                            x       y       z     vdW  Elec       q    Type
                         _______ _______ _______ _____ _____    ______ ____

>  <TORSDO>
F 3

$$$$
=
 OpenBabel11062407553D

 34 39  0  0  1  0  0  0  0  0999 V2000
  161.8780  210.4500  149.3370 C   0  0  0  0  0  0  0  0  0  0  0  0
  160.7910  211.8830  150.9850 C   0  0  0  0  0  0  0  0  0  0  0  0
  161.2970  209.3890  151.5400 C   0  0  0  0  0  0  0  0  0  0  0  0
  160.9390  208.2100  153.6780 C   0  0  0  0  0  0  0  0  0  0  0  0
  161.4460  212.7720  148.8210 C   0  0  0  0  0  3  0  0  0  0  0  0
  160.8610  212.9370  150.0690 C   0  0  0  0  0  3  0  0  0  0  0  0
  161.2410  210.6800  153.6020 N   0  0  0  0  0  0  0  0  0  0  0  0
  161.3390  210.6060  150.6470 C   0  0  0  0  0  0  0  0  0  0  0  0
  160.2270  211.6580  153.3970 C   0  0  0  0  0  0  0  0  0  0  0  0
  160.4560  208.2990  154.9790 O   0  0  0  0  0  1  0  0  0  0  0  0
  161.9360  211.5280  148.4520 C   0  0  0  0  0  3  0  0  0  0  0  0
  161.4340  208.0320  150.8540 C   0  0  2  0  0  3  0  0  0  0  0  0
  162.2570  209.1150  148.7720 C   0  0  0  0  0  2  0  0  0  0  0  0
  160.0480  212.2100  152.2090 C   0  0  0  0  0  3  0  0  0  0  0  0
  161.1490  207.0100  153.1570 C   0  0  0  0  0  3  0  0  0  0  0  0
  161.7460  206.8610  151.7980 C   0  0  1  0  0  3  0  0  0  0  0  0
  162.0430  210.7580  154.7480 N   0  0  0  0  0  1  0  0  0  0  0  0
  161.1690  209.4440  152.8900 C   0  0  0  0  0  0  0  0  0  0  0  0
  162.5760  208.1040  149.8520 C   0  0  0  0  0  2  0  0  0  0  0  0
  161.0010  203.1500  151.3840 C   0  0  0  0  0  0  0  0  0  0  0  0
  160.6740  203.0930  150.0250 C   0  0  0  0  0  3  0  0  0  0  0  0
  161.3740  205.5410  151.1930 C   0  0  0  0  0  0  0  0  0  0  0  0
  160.6960  204.2570  149.2510 C   0  0  0  0  0  3  0  0  0  0  0  0
  161.3520  204.3710  151.9670 C   0  0  0  0  0  3  0  0  0  0  0  0
  161.0460  205.4790  149.8340 C   0  0  0  0  0  3  0  0  0  0  0  0
  160.9800  202.0220  152.1330 F   0  0  0  0  0  0  0  0  0  0  0  0
  159.4280  212.1690  154.5540 C   0  0  0  0  0  2  0  0  0  0  0  0
  157.8500  214.4500  153.4640 C   0  0  0  0  0  1  0  0  0  0  0  0
  157.9940  212.1020  154.2600 N   0  0  0  0  0  0  0  0  0  0  0  0
  157.3530  213.4150  154.4600 C   0  0  1  0  0  3  0  0  0  0  0  0
  157.4250  212.8010  156.9300 C   0  0  0  0  0  2  0  0  0  0  0  0
  156.6870  211.5910  156.3750 C   0  0  0  0  0  2  0  0  0  0  0  0
  157.3920  211.0600  155.1160 C   0  0  0  0  0  2  0  0  0  0  0  0
  157.4670  213.9340  155.9030 C   0  0  0  0  0  2  0  0  0  0  0  0
  1  8  1  0  0  0  0
  2 14  1  0  0  0  0
  3 18  2  0  0  0  0
  4 10  1  0  0  0  0
  5  6  2  0  0  0  0
  6  2  1  0  0  0  0
  7 17  1  0  0  0  0
  8  2  2  0  0  0  0
  8  3  1  0  0  0  0
  9  7  1  0  0  0  0
  9 27  1  0  0  0  0
 11  5  1  0  0  0  0
 11  1  2  0  0  0  0
 12 19  1  6  0  0  0
 12  3  1  0  0  0  0
 12 16  1  0  0  0  0
 13  1  1  0  0  0  0
 13 19  1  0  0  0  0
 14  9  2  0  0  0  0
 15  4  2  0  0  0  0
 16 22  1  6  0  0  0
 16 15  1  0  0  0  0
 18  7  1  0  0  0  0
 18  4  1  0  0  0  0
 20 24  1  0  0  0  0
 20 26  1  0  0  0  0
 21 20  2  0  0  0  0
 22 24  2  0  0  0  0
 23 25  2  0  0  0  0
 23 21  1  0  0  0  0
 25 22  1  0  0  0  0
 29 30  1  0  0  0  0
 29 27  1  0  0  0  0
 29 33  1  0  0  0  0
 30 28  1  6  0  0  0
 30 34  1  0  0  0  0
 32 31  1  0  0  0  0
 33 32  1  0  0  0  0
 34 31  1  0  0  0  0
M  END
>  <MODEL>
2

>  <REMARK>
 VINA RESULT:      -9.0      0.839      1.177
  Name = 
  3 active torsions:
  status: ('A' for Active; 'I' for Inactive)
    1  A    between atoms: C_3  and  N_13
    2  A    between atoms: C_3  and  C_17
    3  A    between atoms: C_12  and  C_28
                            x       y       z     vdW  Elec       q    Type
                         _______ _______ _______ _____ _____    ______ ____

>  <TORSDO>
F 3

$$$$
=
 OpenBabel11062407553D

 34 39  0  0  1  0  0  0  0  0999 V2000
  161.1250  205.0380  152.4680 C   0  0  0  0  0  0  0  0  0  0  0  0
  160.9290  204.6600  150.0660 C   0  0  0  0  0  0  0  0  0  0  0  0
  161.3300  207.0620  150.9910 C   0  0  0  0  0  0  0  0  0  0  0  0
  161.7010  209.1370  149.7080 C   0  0  0  0  0  0  0  0  0  0  0  0
  160.7870  202.7990  151.6220 C   0  0  0  0  0  3  0  0  0  0  0  0
  160.7550  203.2970  150.3260 C   0  0  0  0  0  3  0  0  0  0  0  0
  162.2220  206.9060  148.7320 N   0  0  0  0  0  0  0  0  0  0  0  0
  161.1570  205.5700  151.1460 C   0  0  0  0  0  0  0  0  0  0  0  0
  161.3240  206.0470  148.0390 C   0  0  0  0  0  0  0  0  0  0  0  0
  161.7730  209.7160  148.4460 O   0  0  0  0  0  1  0  0  0  0  0  0
  160.9550  203.6710  152.6880 C   0  0  0  0  0  3  0  0  0  0  0  0
  161.0390  207.9150  152.2230 C   0  0  2  0  0  3  0  0  0  0  0  0
  161.1050  205.9080  153.6890 C   0  0  0  0  0  2  0  0  0  0  0  0
  160.7600  205.0190  148.6520 C   0  0  0  0  0  3  0  0  0  0  0  0
  161.5570  209.9240  150.7640 C   0  0  0  0  0  3  0  0  0  0  0  0
  161.5600  209.3590  152.1450 C   0  0  1  0  0  3  0  0  0  0  0  0
  163.4100  207.3040  148.1030 N   0  0  0  0  0  1  0  0  0  0  0  0
  161.7430  207.6610  149.8460 C   0  0  0  0  0  0  0  0  0  0  0  0
  161.7040  207.2740  153.4310 C   0  0  0  0  0  2  0  0  0  0  0  0
  160.7380  211.5110  155.1760 C   0  0  0  0  0  0  0  0  0  0  0  0
  159.4570  211.9630  154.8440 C   0  0  0  0  0  3  0  0  0  0  0  0
  160.8390  210.2660  153.0950 C   0  0  0  0  0  0  0  0  0  0  0  0
  158.8670  211.5680  153.6390 C   0  0  0  0  0  3  0  0  0  0  0  0
  161.4280  210.6630  154.3040 C   0  0  0  0  0  3  0  0  0  0  0  0
  159.5570  210.7200  152.7660 C   0  0  0  0  0  3  0  0  0  0  0  0
  161.3090  211.8930  156.3430 F   0  0  0  0  0  0  0  0  0  0  0  0
  161.0980  206.2180  146.5710 C   0  0  0  0  0  2  0  0  0  0  0  0
  161.2810  206.2780  143.5970 C   0  0  0  0  0  1  0  0  0  0  0  0
  162.1530  205.5490  145.8050 N   0  0  0  0  0  0  0  0  0  0  0  0
  161.6490  205.1060  144.4910 C   0  0  1  0  0  3  0  0  0  0  0  0
  160.6310  203.1770  145.8030 C   0  0  0  0  0  2  0  0  0  0  0  0
  162.0880  203.0460  146.2240 C   0  0  0  0  0  2  0  0  0  0  0  0
  162.6640  204.4190  146.6070 C   0  0  0  0  0  2  0  0  0  0  0  0
  160.4920  204.0990  144.5910 C   0  0  0  0  0  2  0  0  0  0  0  0
  1 11  1  0  0  0  0
  1 13  1  0  0  0  0
  2  6  2  0  0  0  0
  2  8  1  0  0  0  0
  3  8  1  0  0  0  0
  3 12  1  0  0  0  0
  4 18  1  0  0  0  0
  4 15  2  0  0  0  0
  5 11  2  0  0  0  0
  6  5  1  0  0  0  0
  7 18  1  0  0  0  0
  8  1  2  0  0  0  0
  9 14  2  0  0  0  0
  9  7  1  0  0  0  0
 10  4  1  0  0  0  0
 12 19  1  1  0  0  0
 14  2  1  0  0  0  0
 15 16  1  0  0  0  0
 16 12  1  0  0  0  0
 16 22  1  1  0  0  0
 17  7  1  0  0  0  0
 18  3  2  0  0  0  0
 19 13  1  0  0  0  0
 20 26  1  0  0  0  0
 21 20  1  0  0  0  0
 22 24  1  0  0  0  0
 23 21  2  0  0  0  0
 24 20  2  0  0  0  0
 25 22  2  0  0  0  0
 25 23  1  0  0  0  0
 27  9  1  0  0  0  0
 29 27  1  0  0  0  0
 29 33  1  0  0  0  0
 30 28  1  6  0  0  0
 30 34  1  0  0  0  0
 30 29  1  0  0  0  0
 31 32  1  0  0  0  0
 32 33  1  0  0  0  0
 34 31  1  0  0  0  0
M  END
>  <MODEL>
3

>  <REMARK>
 VINA RESULT:      -8.9      3.943      8.885
  Name = 
  3 active torsions:
  status: ('A' for Active; 'I' for Inactive)
    1  A    between atoms: C_3  and  N_13
    2  A    between atoms: C_3  and  C_17
    3  A    between atoms: C_12  and  C_28
                            x       y       z     vdW  Elec       q    Type
                         _______ _______ _______ _____ _____    ______ ____

>  <TORSDO>
F 3

$$$$
=
 OpenBabel11062407553D

 34 39  0  0  1  0  0  0  0  0999 V2000
  161.0070  205.6440  152.9460 C   0  0  0  0  0  0  0  0  0  0  0  0
  160.9740  204.9950  150.5950 C   0  0  0  0  0  0  0  0  0  0  0  0
  161.2290  207.4990  151.2650 C   0  0  0  0  0  0  0  0  0  0  0  0
  161.6020  209.4340  149.7800 C   0  0  0  0  0  0  0  0  0  0  0  0
  160.8060  203.3120  152.3400 C   0  0  0  0  0  3  0  0  0  0  0  0
  160.8350  203.6630  150.9960 C   0  0  0  0  0  3  0  0  0  0  0  0
  162.2640  207.1350  149.0930 N   0  0  0  0  0  0  0  0  0  0  0  0
  161.1020  206.0270  151.5770 C   0  0  0  0  0  0  0  0  0  0  0  0
  161.4430  206.1660  148.4510 C   0  0  0  0  0  0  0  0  0  0  0  0
  161.7310  209.8740  148.4670 O   0  0  0  0  0  1  0  0  0  0  0  0
  160.8750  204.3030  153.3090 C   0  0  0  0  0  3  0  0  0  0  0  0
  160.8310  208.4700  152.3740 C   0  0  2  0  0  3  0  0  0  0  0  0
  160.8800  206.6410  154.0580 C   0  0  0  0  0  2  0  0  0  0  0  0
  160.8800  205.1890  149.1420 C   0  0  0  0  0  3  0  0  0  0  0  0
  161.3650  210.3260  150.7310 C   0  0  0  0  0  3  0  0  0  0  0  0
  161.3020  209.9170  152.1640 C   0  0  1  0  0  3  0  0  0  0  0  0
  163.4730  207.5120  148.4920 N   0  0  0  0  0  1  0  0  0  0  0  0
  161.6890  207.9860  150.0850 C   0  0  0  0  0  0  0  0  0  0  0  0
  161.4430  207.9950  153.6820 C   0  0  0  0  0  2  0  0  0  0  0  0
  160.0810  212.1400  155.0040 C   0  0  0  0  0  0  0  0  0  0  0  0
  158.9470  212.7170  154.4230 C   0  0  0  0  0  3  0  0  0  0  0  0
  160.4910  210.8910  152.9630 C   0  0  0  0  0  0  0  0  0  0  0  0
  158.5850  212.3820  153.1140 C   0  0  0  0  0  3  0  0  0  0  0  0
  160.8520  211.2280  154.2760 C   0  0  0  0  0  3  0  0  0  0  0  0
  159.3550  211.4700  152.3860 C   0  0  0  0  0  3  0  0  0  0  0  0
  160.4320  212.4640  156.2710 F   0  0  0  0  0  0  0  0  0  0  0  0
  161.3020  206.1650  146.9620 C   0  0  0  0  0  2  0  0  0  0  0  0
  163.8180  204.6430  146.4780 C   0  0  0  0  0  1  0  0  0  0  0  0
  161.3390  204.7950  146.4410 N   0  0  0  0  0  0  0  0  0  0  0  0
  162.5550  204.5710  145.6360 C   0  0  1  0  0  3  0  0  0  0  0  0
  161.2790  205.8050  143.8110 C   0  0  0  0  0  2  0  0  0  0  0  0
  160.2800  204.7030  144.1360 C   0  0  0  0  0  2  0  0  0  0  0  0
  160.1090  204.5620  145.6580 C   0  0  0  0  0  2  0  0  0  0  0  0
  162.6510  205.4940  144.4100 C   0  0  0  0  0  2  0  0  0  0  0  0
  1 11  1  0  0  0  0
  1 13  1  0  0  0  0
  2  6  2  0  0  0  0
  2  8  1  0  0  0  0
  3  8  1  0  0  0  0
  3 12  1  0  0  0  0
  4 18  1  0  0  0  0
  4 15  2  0  0  0  0
  5 11  2  0  0  0  0
  6  5  1  0  0  0  0
  7 18  1  0  0  0  0
  8  1  2  0  0  0  0
  9  7  1  0  0  0  0
  9 14  2  0  0  0  0
 10  4  1  0  0  0  0
 12 19  1  1  0  0  0
 14  2  1  0  0  0  0
 15 16  1  0  0  0  0
 16 12  1  0  0  0  0
 16 22  1  1  0  0  0
 17  7  1  0  0  0  0
 18  3  2  0  0  0  0
 19 13  1  0  0  0  0
 20 26  1  0  0  0  0
 21 20  1  0  0  0  0
 22 24  1  0  0  0  0
 23 21  2  0  0  0  0
 24 20  2  0  0  0  0
 25 22  2  0  0  0  0
 25 23  1  0  0  0  0
 27  9  1  0  0  0  0
 29 27  1  0  0  0  0
 30 29  1  0  0  0  0
 30 28  1  1  0  0  0
 31 32  1  0  0  0  0
 31 34  1  0  0  0  0
 32 33  1  0  0  0  0
 33 29  1  0  0  0  0
 34 30  1  0  0  0  0
M  END
>  <MODEL>
4

>  <REMARK>
 VINA RESULT:      -7.8      3.995      8.914
  Name = 
  3 active torsions:
  status: ('A' for Active; 'I' for Inactive)
    1  A    between atoms: C_3  and  N_13
    2  A    between atoms: C_3  and  C_17
    3  A    between atoms: C_12  and  C_28
                            x       y       z     vdW  Elec       q    Type
                         _______ _______ _______ _____ _____    ______ ____

>  <TORSDO>
F 3

$$$$
=
 OpenBabel11062407553D

 34 39  0  0  1  0  0  0  0  0999 V2000
  162.1430  208.6390  148.7310 C   0  0  0  0  0  0  0  0  0  0  0  0
  161.3470  209.0310  151.0030 C   0  0  0  0  0  0  0  0  0  0  0  0
  161.6410  206.6000  150.1140 C   0  0  0  0  0  0  0  0  0  0  0  0
  161.3430  204.4870  151.3530 C   0  0  0  0  0  0  0  0  0  0  0  0
  161.9080  210.8990  149.5540 C   0  0  0  0  0  3  0  0  0  0  0  0
  161.4480  210.4060  150.7680 C   0  0  0  0  0  3  0  0  0  0  0  0
  161.8860  206.6100  152.5340 N   0  0  0  0  0  0  0  0  0  0  0  0
  161.7320  208.1020  149.9860 C   0  0  0  0  0  0  0  0  0  0  0  0
  160.9640  207.5910  152.9950 C   0  0  0  0  0  0  0  0  0  0  0  0
  160.9800  203.8980  152.5580 O   0  0  0  0  0  1  0  0  0  0  0  0
  162.2370  210.0170  148.5360 C   0  0  0  0  0  3  0  0  0  0  0  0
  161.5830  205.8060  148.8110 C   0  0  2  0  0  3  0  0  0  0  0  0
  162.3370  207.7870  147.5120 C   0  0  0  0  0  2  0  0  0  0  0  0
  160.7440  208.6940  152.2990 C   0  0  0  0  0  3  0  0  0  0  0  0
  161.3860  203.7350  150.2620 C   0  0  0  0  0  3  0  0  0  0  0  0
  161.8510  204.3000  148.9620 C   0  0  1  0  0  3  0  0  0  0  0  0
  162.7840  206.0360  153.4450 N   0  0  0  0  0  1  0  0  0  0  0  0
  161.6310  205.9400  151.2990 C   0  0  0  0  0  0  0  0  0  0  0  0
  162.6400  206.3460  147.8610 C   0  0  0  0  0  2  0  0  0  0  0  0
  160.6550  203.3410  145.4770 C   0  0  0  0  0  0  0  0  0  0  0  0
  160.2620  202.0150  145.6850 C   0  0  0  0  0  3  0  0  0  0  0  0
  161.2990  203.5160  147.8110 C   0  0  0  0  0  0  0  0  0  0  0  0
  160.3860  201.4400  146.9530 C   0  0  0  0  0  3  0  0  0  0  0  0
  161.1720  204.0910  146.5370 C   0  0  0  0  0  3  0  0  0  0  0  0
  160.9030  202.1890  148.0150 C   0  0  0  0  0  3  0  0  0  0  0  0
  160.5340  203.8980  144.2490 F   0  0  0  0  0  0  0  0  0  0  0  0
  160.3190  207.4480  154.3370 C   0  0  0  0  0  2  0  0  0  0  0  0
  159.9990  206.8750  157.2430 C   0  0  0  0  0  1  0  0  0  0  0  0
  161.1660  208.0310  155.3810 N   0  0  0  0  0  0  0  0  0  0  0  0
  160.4100  208.2050  156.6360 C   0  0  1  0  0  3  0  0  0  0  0  0
  159.4650  210.2750  155.4940 C   0  0  0  0  0  2  0  0  0  0  0  0
  160.9550  210.5610  155.3720 C   0  0  0  0  0  2  0  0  0  0  0  0
  161.7060  209.3110  154.8810 C   0  0  0  0  0  2  0  0  0  0  0  0
  159.2030  209.1480  156.4930 C   0  0  0  0  0  2  0  0  0  0  0  0
  1  8  1  0  0  0  0
  2 14  1  0  0  0  0
  3 18  2  0  0  0  0
  4 10  1  0  0  0  0
  5  6  2  0  0  0  0
  6  2  1  0  0  0  0
  7  9  1  0  0  0  0
  7 17  1  0  0  0  0
  8  3  1  0  0  0  0
  8  2  2  0  0  0  0
  9 27  1  0  0  0  0
 11  1  2  0  0  0  0
 11  5  1  0  0  0  0
 12 19  1  6  0  0  0
 12 16  1  0  0  0  0
 12  3  1  0  0  0  0
 13 19  1  0  0  0  0
 13  1  1  0  0  0  0
 14  9  2  0  0  0  0
 15  4  2  0  0  0  0
 16 22  1  6  0  0  0
 16 15  1  0  0  0  0
 18  4  1  0  0  0  0
 18  7  1  0  0  0  0
 20 21  2  0  0  0  0
 20 24  1  0  0  0  0
 21 23  1  0  0  0  0
 22 25  1  0  0  0  0
 23 25  2  0  0  0  0
 24 22  2  0  0  0  0
 26 20  1  0  0  0  0
 27 29  1  0  0  0  0
 29 30  1  0  0  0  0
 30 28  1  6  0  0  0
 31 34  1  0  0  0  0
 32 31  1  0  0  0  0
 33 32  1  0  0  0  0
 33 29  1  0  0  0  0
 34 30  1  0  0  0  0
M  END
>  <MODEL>
5

>  <REMARK>
 VINA RESULT:      -7.6      2.526      4.134
  Name = 
  3 active torsions:
  status: ('A' for Active; 'I' for Inactive)
    1  A    between atoms: C_3  and  N_13
    2  A    between atoms: C_3  and  C_17
    3  A    between atoms: C_12  and  C_28
                            x       y       z     vdW  Elec       q    Type
                         _______ _______ _______ _____ _____    ______ ____

>  <TORSDO>
F 3

$$$$
=
 OpenBabel11062407553D

 34 39  0  0  1  0  0  0  0  0999 V2000
  162.1600  209.7410  149.7680 C   0  0  0  0  0  0  0  0  0  0  0  0
  160.8250  210.9190  151.4340 C   0  0  0  0  0  0  0  0  0  0  0  0
  161.3450  208.3840  151.7200 C   0  0  0  0  0  0  0  0  0  0  0  0
  160.7640  206.9230  153.6220 C   0  0  0  0  0  0  0  0  0  0  0  0
  161.7140  212.1030  149.5080 C   0  0  0  0  0  3  0  0  0  0  0  0
  160.9720  212.0890  150.6810 C   0  0  0  0  0  3  0  0  0  0  0  0
  160.9850  209.3860  153.9080 N   0  0  0  0  0  0  0  0  0  0  0  0
  161.4560  209.7100  151.0060 C   0  0  0  0  0  0  0  0  0  0  0  0
  159.9710  210.3630  153.7030 C   0  0  0  0  0  0  0  0  0  0  0  0
  160.1180  206.8280  154.8490 O   0  0  0  0  0  1  0  0  0  0  0  0
  162.2910  210.9290  149.0470 C   0  0  0  0  0  3  0  0  0  0  0  0
  161.6160  207.1340  150.8860 C   0  0  2  0  0  3  0  0  0  0  0  0
  162.6550  208.5010  149.0870 C   0  0  0  0  0  2  0  0  0  0  0  0
  159.9220  211.0660  152.5840 C   0  0  0  0  0  3  0  0  0  0  0  0
  161.0800  205.8070  152.9800 C   0  0  0  0  0  3  0  0  0  0  0  0
  161.8480  205.8520  151.7010 C   0  0  1  0  0  3  0  0  0  0  0  0
  161.6330  209.3240  155.1490 N   0  0  0  0  0  1  0  0  0  0  0  0
  161.0470  208.2550  153.0370 C   0  0  0  0  0  0  0  0  0  0  0  0
  162.8720  207.3610  150.0590 C   0  0  0  0  0  2  0  0  0  0  0  0
  161.2060  203.5290  148.7540 C   0  0  0  0  0  0  0  0  0  0  0  0
  161.1460  202.2890  149.3990 C   0  0  0  0  0  3  0  0  0  0  0  0
  161.6030  204.6190  150.8870 C   0  0  0  0  0  0  0  0  0  0  0  0
  161.3140  202.2140  150.7860 C   0  0  0  0  0  3  0  0  0  0  0  0
  161.4330  204.6920  149.4960 C   0  0  0  0  0  3  0  0  0  0  0  0
  161.5410  203.3770  151.5280 C   0  0  0  0  0  3  0  0  0  0  0  0
  161.0430  203.6020  147.4120 F   0  0  0  0  0  0  0  0  0  0  0  0
  159.0150  210.6990  154.8040 C   0  0  0  0  0  2  0  0  0  0  0  0
  160.5320  213.1040  155.6940 C   0  0  0  0  0  1  0  0  0  0  0  0
  158.5240  212.0730  154.6590 N   0  0  0  0  0  0  0  0  0  0  0  0
  159.0240  212.9280  155.7520 C   0  0  1  0  0  3  0  0  0  0  0  0
  157.1750  211.8390  157.1220 C   0  0  0  0  0  2  0  0  0  0  0  0
  156.3610  212.3730  155.9530 C   0  0  0  0  0  2  0  0  0  0  0  0
  157.0480  212.0380  154.6190 C   0  0  0  0  0  2  0  0  0  0  0  0
  158.5730  212.4610  157.1450 C   0  0  0  0  0  2  0  0  0  0  0  0
  1  8  1  0  0  0  0
  2 14  1  0  0  0  0
  3 18  2  0  0  0  0
  4 10  1  0  0  0  0
  5  6  2  0  0  0  0
  6  2  1  0  0  0  0
  7 17  1  0  0  0  0
  8  2  2  0  0  0  0
  8  3  1  0  0  0  0
  9  7  1  0  0  0  0
  9 27  1  0  0  0  0
 11  5  1  0  0  0  0
 11  1  2  0  0  0  0
 12 19  1  1  0  0  0
 12 16  1  0  0  0  0
 12  3  1  0  0  0  0
 13  1  1  0  0  0  0
 13 19  1  0  0  0  0
 14  9  2  0  0  0  0
 15  4  2  0  0  0  0
 16 22  1  6  0  0  0
 16 15  1  0  0  0  0
 18  4  1  0  0  0  0
 18  7  1  0  0  0  0
 20 21  2  0  0  0  0
 20 24  1  0  0  0  0
 21 23  1  0  0  0  0
 22 25  1  0  0  0  0
 23 25  2  0  0  0  0
 24 22  2  0  0  0  0
 26 20  1  0  0  0  0
 29 27  1  0  0  0  0
 29 30  1  0  0  0  0
 30 28  1  1  0  0  0
 30 34  1  0  0  0  0
 31 34  1  0  0  0  0
 32 31  1  0  0  0  0
 33 29  1  0  0  0  0
 33 32  1  0  0  0  0
M  END
>  <MODEL>
6

>  <REMARK>
 VINA RESULT:      -7.4      0.990      1.114
  Name = 
  3 active torsions:
  status: ('A' for Active; 'I' for Inactive)
    1  A    between atoms: C_3  and  N_13
    2  A    between atoms: C_3  and  C_17
    3  A    between atoms: C_12  and  C_28
                            x       y       z     vdW  Elec       q    Type
                         _______ _______ _______ _____ _____    ______ ____

>  <TORSDO>
F 3

$$$$
