=
 OpenBabel11052422383D

 31 35  0  0  1  0  0  0  0  0999 V2000
  160.8150  202.1470  150.2060 C   0  0  0  0  0  0  0  0  0  0  0  0
  161.9660  205.6050  149.2730 C   0  0  2  0  0  3  0  0  0  0  0  0
  161.8660  205.5370  147.7700 C   0  0  0  0  0  0  0  0  0  0  0  0
  161.3240  207.5750  154.1950 O   0  0  0  0  0  0  0  0  0  0  0  0
  161.4330  208.5320  153.3810 C   0  0  0  0  0  0  0  0  0  0  0  0
  162.8420  204.6250  145.6510 C   0  0  0  0  0  2  0  0  0  0  0  0
  161.3790  204.4500  150.0430 C   0  0  0  0  0  0  0  0  0  0  0  0
  160.5350  202.2880  151.5680 C   0  0  0  0  0  3  0  0  0  0  0  0
  162.6150  204.6280  147.1330 C   0  0  0  0  0  3  0  0  0  0  0  0
  161.4420  207.0110  151.3310 C   0  0  0  0  0  0  0  0  0  0  0  0
  160.6660  200.8210  149.5520 C   0  0  0  0  0  1  0  0  0  0  0  0
  160.8860  207.7400  147.6730 N   0  0  0  0  0  0  0  0  0  0  0  0
  161.5780  204.3260  144.8550 C   0  0  0  0  0  2  0  0  0  0  0  0
  161.2460  205.9240  152.0260 N   0  0  0  0  0  0  0  0  0  0  0  0
  161.5160  206.9190  149.8600 C   0  0  0  0  0  0  0  0  0  0  0  0
  161.5050  208.2940  151.9700 N   0  0  0  0  0  2  0  0  0  0  0  0
  161.2410  203.2170  149.4820 N   0  0  0  0  0  0  0  0  0  0  0  0
  160.4180  205.2800  145.1430 C   0  0  0  0  0  2  0  0  0  0  0  0
  161.1130  204.6270  151.4160 C   0  0  0  0  0  0  0  0  0  0  0  0
  160.6870  203.5360  152.1740 C   0  0  0  0  0  3  0  0  0  0  0  0
  161.0510  207.9070  149.0880 C   0  0  0  0  0  3  0  0  0  0  0  0
  161.1910  206.6440  147.0440 C   0  0  0  0  0  0  0  0  0  0  0  0
  160.8420  206.5250  145.6950 O   0  0  0  0  0  0  0  0  0  0  0  0
  159.0760  211.0950  155.1920 C   0  0  1  0  0  3  0  0  0  0  0  0
  161.2980  209.9990  155.3990 C   0  0  0  0  0  2  0  0  0  0  0  0
  160.7430  211.1210  151.9060 N   0  0  0  0  0  2  0  0  0  0  0  0
  157.5960  210.9730  155.4860 C   0  0  0  0  0  1  0  0  0  0  0  0
  159.8210  209.8990  155.7710 C   0  0  0  0  0  2  0  0  0  0  0  0
  160.5340  210.8350  153.1490 C   0  0  0  0  0  0  0  0  0  0  0  0
  161.5000  209.9430  153.8800 C   0  0  2  0  0  3  0  0  0  0  0  0
  159.2850  211.1870  153.7500 N   0  0  0  0  0  2  0  0  0  0  0  0
  1  8  1  0  0  0  0
  2  3  1  6  0  0  0
  2 15  1  0  0  0  0
  2  7  1  0  0  0  0
  5  4  2  0  0  0  0
  6  9  1  0  0  0  0
  7 19  2  0  0  0  0
  8 20  2  0  0  0  0
  9  3  2  0  0  0  0
 10 16  1  0  0  0  0
 10 14  2  0  0  0  0
 11  1  1  0  0  0  0
 12 21  1  0  0  0  0
 13 18  1  0  0  0  0
 13  6  1  0  0  0  0
 15 10  1  0  0  0  0
 16  5  1  0  0  0  0
 17  7  1  0  0  0  0
 17  1  2  0  0  0  0
 18 23  1  0  0  0  0
 19 14  1  0  0  0  0
 19 20  1  0  0  0  0
 21 15  2  0  0  0  0
 22 12  2  0  0  0  0
 22  3  1  0  0  0  0
 23 22  1  0  0  0  0
 24 27  1  6  0  0  0
 24 28  1  0  0  0  0
 25 28  1  0  0  0  0
 26 29  2  0  0  0  0
 29 31  1  0  0  0  0
 29 30  1  0  0  0  0
 30  5  1  6  0  0  0
 30 25  1  0  0  0  0
 31 24  1  0  0  0  0
M  END
>  <MODEL>
1

>  <REMARK>
 VINA RESULT:      -9.3      0.000      0.000
  Name = 
  1 active torsions:
  status: ('A' for Active; 'I' for Inactive)
    1  A    between atoms: C_9  and  C_22
                            x       y       z     vdW  Elec       q    Type
                         _______ _______ _______ _____ _____    ______ ____

>  <TORSDO>
F 1

$$$$
=
 OpenBabel11052422383D

 31 35  0  0  1  0  0  0  0  0999 V2000
  162.0160  206.3640  147.2280 C   0  0  0  0  0  0  0  0  0  0  0  0
  160.5700  205.1820  150.4930 C   0  0  2  0  0  3  0  0  0  0  0  0
  160.6240  203.6870  150.2980 C   0  0  0  0  0  0  0  0  0  0  0  0
  161.2190  209.8860  152.9360 O   0  0  0  0  0  0  0  0  0  0  0  0
  161.0090  208.9970  153.8060 C   0  0  0  0  0  0  0  0  0  0  0  0
  159.6530  201.6960  149.1320 C   0  0  0  0  0  2  0  0  0  0  0  0
  161.2690  206.0240  149.4580 C   0  0  0  0  0  0  0  0  0  0  0  0
  162.3290  207.6960  147.5100 C   0  0  0  0  0  3  0  0  0  0  0  0
  159.9280  203.1610  149.2840 C   0  0  0  0  0  3  0  0  0  0  0  0
  161.0500  207.0880  152.1120 C   0  0  0  0  0  0  0  0  0  0  0  0
  162.2460  205.8210  145.8640 C   0  0  0  0  0  1  0  0  0  0  0  0
  161.4270  203.3610  152.5510 N   0  0  0  0  0  0  0  0  0  0  0  0
  160.9090  200.8790  148.8570 C   0  0  0  0  0  2  0  0  0  0  0  0
  161.3530  207.8660  151.1090 N   0  0  0  0  0  0  0  0  0  0  0  0
  160.9350  205.6340  151.8840 C   0  0  0  0  0  0  0  0  0  0  0  0
  160.9090  207.6160  153.4390 N   0  0  0  0  0  2  0  0  0  0  0  0
  161.4840  205.5670  148.1940 N   0  0  0  0  0  0  0  0  0  0  0  0
  162.0000  201.0370  149.9170 C   0  0  0  0  0  2  0  0  0  0  0  0
  161.5660  207.3660  149.7770 C   0  0  0  0  0  0  0  0  0  0  0  0
  162.1000  208.1970  148.7920 C   0  0  0  0  0  3  0  0  0  0  0  0
  161.2960  204.7630  152.8310 C   0  0  0  0  0  3  0  0  0  0  0  0
  161.1880  202.8420  151.3840 C   0  0  0  0  0  0  0  0  0  0  0  0
  161.4990  201.4960  151.1710 O   0  0  0  0  0  0  0  0  0  0  0  0
  159.4020  211.9070  155.8910 C   0  0  1  0  0  3  0  0  0  0  0  0
  159.3690  209.4340  155.6390 C   0  0  0  0  0  2  0  0  0  0  0  0
  162.8620  210.6830  155.5600 N   0  0  0  0  0  2  0  0  0  0  0  0
  158.8240  213.2170  155.3970 C   0  0  0  0  0  1  0  0  0  0  0  0
  158.7220  210.7410  155.1870 C   0  0  0  0  0  2  0  0  0  0  0  0
  161.5700  210.6570  155.5650 C   0  0  0  0  0  0  0  0  0  0  0  0
  160.8490  209.3750  155.2470 C   0  0  2  0  0  3  0  0  0  0  0  0
  160.8420  211.8860  155.6560 N   0  0  0  0  0  2  0  0  0  0  0  0
  1  8  2  0  0  0  0
  1 17  1  0  0  0  0
  2  7  1  6  0  0  0
  2 15  1  0  0  0  0
  3  2  1  0  0  0  0
  3 22  1  0  0  0  0
  4  5  2  0  0  0  0
  6  9  1  0  0  0  0
  7 19  1  0  0  0  0
  8 20  1  0  0  0  0
  9  3  2  0  0  0  0
 10 16  1  0  0  0  0
 11  1  1  0  0  0  0
 12 21  1  0  0  0  0
 13  6  1  0  0  0  0
 13 18  1  0  0  0  0
 14 10  2  0  0  0  0
 15 10  1  0  0  0  0
 15 21  2  0  0  0  0
 16  5  1  0  0  0  0
 17  7  2  0  0  0  0
 18 23  1  0  0  0  0
 19 14  1  0  0  0  0
 20 19  2  0  0  0  0
 22 12  2  0  0  0  0
 23 22  1  0  0  0  0
 24 27  1  6  0  0  0
 26 29  2  0  0  0  0
 28 25  1  0  0  0  0
 28 24  1  0  0  0  0
 29 31  1  0  0  0  0
 30  5  1  6  0  0  0
 30 29  1  0  0  0  0
 30 25  1  0  0  0  0
 31 24  1  0  0  0  0
M  END
>  <MODEL>
2

>  <REMARK>
 VINA RESULT:      -8.9      2.062      4.141
  Name = 
  1 active torsions:
  status: ('A' for Active; 'I' for Inactive)
    1  A    between atoms: C_9  and  C_22
                            x       y       z     vdW  Elec       q    Type
                         _______ _______ _______ _____ _____    ______ ____

>  <TORSDO>
F 1

$$$$
=
 OpenBabel11052422383D

 31 35  0  0  1  0  0  0  0  0999 V2000
  162.2390  205.9750  147.1290 C   0  0  0  0  0  0  0  0  0  0  0  0
  160.6450  205.5690  150.5130 C   0  0  2  0  0  3  0  0  0  0  0  0
  160.6570  204.0680  150.6490 C   0  0  0  0  0  0  0  0  0  0  0  0
  161.3680  210.6750  151.9020 O   0  0  0  0  0  0  0  0  0  0  0  0
  161.1000  210.0030  152.9340 C   0  0  0  0  0  0  0  0  0  0  0  0
  159.6590  201.8950  149.9040 C   0  0  0  0  0  2  0  0  0  0  0  0
  161.4070  206.1490  149.3490 C   0  0  0  0  0  0  0  0  0  0  0  0
  162.5860  207.3280  147.1280 C   0  0  0  0  0  3  0  0  0  0  0  0
  159.9780  203.3510  149.7460 C   0  0  0  0  0  3  0  0  0  0  0  0
  161.1340  207.7700  151.6980 C   0  0  0  0  0  0  0  0  0  0  0  0
  162.4960  205.1420  145.9260 C   0  0  0  0  0  1  0  0  0  0  0  0
  161.3720  204.2210  152.9490 N   0  0  0  0  0  0  0  0  0  0  0  0
  160.8960  201.0070  149.8640 C   0  0  0  0  0  2  0  0  0  0  0  0
  161.4960  208.3030  150.5630 N   0  0  0  0  0  0  0  0  0  0  0  0
  160.9790  206.3050  151.7860 C   0  0  0  0  0  0  0  0  0  0  0  0
  160.9660  208.5780  152.8710 N   0  0  0  0  0  2  0  0  0  0  0  0
  161.6490  205.4210  148.2230 N   0  0  0  0  0  0  0  0  0  0  0  0
  161.9560  201.3650  150.9070 C   0  0  0  0  0  2  0  0  0  0  0  0
  161.7370  207.5190  149.3800 C   0  0  0  0  0  0  0  0  0  0  0  0
  162.3310  208.1030  148.2610 C   0  0  0  0  0  3  0  0  0  0  0  0
  161.2790  205.6520  152.9140 C   0  0  0  0  0  3  0  0  0  0  0  0
  161.1550  203.4660  151.9140 C   0  0  0  0  0  0  0  0  0  0  0  0
  161.4290  202.0980  152.0110 O   0  0  0  0  0  0  0  0  0  0  0  0
  160.4190  209.0030  156.6680 C   0  0  1  0  0  3  0  0  0  0  0  0
  161.9990  210.2930  155.2470 C   0  0  0  0  0  2  0  0  0  0  0  0
  158.5010  210.9770  154.2180 N   0  0  0  0  0  2  0  0  0  0  0  0
  160.0840  207.6400  157.2360 C   0  0  0  0  0  1  0  0  0  0  0  0
  161.7170  208.9310  155.8760 C   0  0  0  0  0  2  0  0  0  0  0  0
  159.5250  210.4470  154.8020 C   0  0  0  0  0  0  0  0  0  0  0  0
  160.9040  210.6900  154.2510 C   0  0  2  0  0  3  0  0  0  0  0  0
  159.3220  209.4680  155.8250 N   0  0  0  0  0  2  0  0  0  0  0  0
  1 17  1  0  0  0  0
  2  7  1  6  0  0  0
  2  3  1  0  0  0  0
  2 15  1  0  0  0  0
  3 22  1  0  0  0  0
  4  5  2  0  0  0  0
  7 19  1  0  0  0  0
  8  1  2  0  0  0  0
  8 20  1  0  0  0  0
  9  6  1  0  0  0  0
  9  3  2  0  0  0  0
 10 15  1  0  0  0  0
 10 16  1  0  0  0  0
 11  1  1  0  0  0  0
 13  6  1  0  0  0  0
 13 18  1  0  0  0  0
 14 10  2  0  0  0  0
 15 21  2  0  0  0  0
 16  5  1  0  0  0  0
 17  7  2  0  0  0  0
 18 23  1  0  0  0  0
 19 14  1  0  0  0  0
 20 19  2  0  0  0  0
 21 12  1  0  0  0  0
 22 23  1  0  0  0  0
 22 12  2  0  0  0  0
 24 27  1  6  0  0  0
 25 28  1  0  0  0  0
 26 29  2  0  0  0  0
 28 24  1  0  0  0  0
 29 31  1  0  0  0  0
 30  5  1  6  0  0  0
 30 29  1  0  0  0  0
 30 25  1  0  0  0  0
 31 24  1  0  0  0  0
M  END
>  <MODEL>
3

>  <REMARK>
 VINA RESULT:      -8.5      2.045      4.281
  Name = 
  1 active torsions:
  status: ('A' for Active; 'I' for Inactive)
    1  A    between atoms: C_9  and  C_22
                            x       y       z     vdW  Elec       q    Type
                         _______ _______ _______ _____ _____    ______ ____

>  <TORSDO>
F 1

$$$$
=
 OpenBabel11052422383D

 31 35  0  0  1  0  0  0  0  0999 V2000
  161.4770  207.0000  148.4910 C   0  0  0  0  0  0  0  0  0  0  0  0
  161.9400  210.0480  150.6460 C   0  0  2  0  0  3  0  0  0  0  0  0
  161.7770  211.1430  149.6220 C   0  0  0  0  0  0  0  0  0  0  0  0
  161.2080  207.4040  155.2280 O   0  0  0  0  0  0  0  0  0  0  0  0
  161.1020  208.6420  155.4470 C   0  0  0  0  0  0  0  0  0  0  0  0
  162.7910  212.3490  147.6750 C   0  0  0  0  0  2  0  0  0  0  0  0
  161.6100  208.6480  150.1990 C   0  0  0  0  0  0  0  0  0  0  0  0
  161.2460  206.0010  149.4400 C   0  0  0  0  0  3  0  0  0  0  0  0
  162.6430  211.1800  148.6020 C   0  0  0  0  0  3  0  0  0  0  0  0
  161.2790  209.2660  152.9780 C   0  0  0  0  0  0  0  0  0  0  0  0
  161.5340  206.6520  147.0470 C   0  0  0  0  0  1  0  0  0  0  0  0
  160.4140  212.4400  151.1330 N   0  0  0  0  0  0  0  0  0  0  0  0
  161.5620  212.5780  146.8050 C   0  0  0  0  0  2  0  0  0  0  0  0
  161.3160  208.0260  152.5750 N   0  0  0  0  0  0  0  0  0  0  0  0
  161.2920  210.3490  151.9750 C   0  0  0  0  0  0  0  0  0  0  0  0
  161.1430  209.5860  154.3710 N   0  0  0  0  0  2  0  0  0  0  0  0
  161.6660  208.2880  148.8860 N   0  0  0  0  0  0  0  0  0  0  0  0
  160.2660  212.7740  147.5930 C   0  0  0  0  0  2  0  0  0  0  0  0
  161.3870  207.6650  151.1840 C   0  0  0  0  0  0  0  0  0  0  0  0
  161.2030  206.3380  150.7940 C   0  0  0  0  0  3  0  0  0  0  0  0
  160.6190  211.4840  152.1840 C   0  0  0  0  0  3  0  0  0  0  0  0
  160.8780  212.2860  149.9290 C   0  0  0  0  0  0  0  0  0  0  0  0
  160.4880  213.1920  148.9380 O   0  0  0  0  0  0  0  0  0  0  0  0
  160.1170  211.9930  157.2370 C   0  0  1  0  0  3  0  0  0  0  0  0
  159.4970  209.5880  157.1110 C   0  0  0  0  0  2  0  0  0  0  0  0
  163.1860  209.9530  157.2600 N   0  0  0  0  0  2  0  0  0  0  0  0
  159.9130  213.3640  156.6290 C   0  0  0  0  0  1  0  0  0  0  0  0
  159.2220  210.9770  156.5390 C   0  0  0  0  0  2  0  0  0  0  0  0
  161.9300  210.2390  157.1580 C   0  0  0  0  0  0  0  0  0  0  0  0
  160.9410  209.1480  156.8480 C   0  0  2  0  0  3  0  0  0  0  0  0
  161.5210  211.6100  157.1250 N   0  0  0  0  0  2  0  0  0  0  0  0
  1 17  2  0  0  0  0
  1  8  1  0  0  0  0
  2  3  1  6  0  0  0
  2 15  1  0  0  0  0
  3 22  1  0  0  0  0
  4  5  2  0  0  0  0
  6  9  1  0  0  0  0
  7  2  1  0  0  0  0
  7 19  2  0  0  0  0
  8 20  2  0  0  0  0
  9  3  2  0  0  0  0
 10 16  1  0  0  0  0
 11  1  1  0  0  0  0
 12 21  1  0  0  0  0
 13 18  1  0  0  0  0
 13  6  1  0  0  0  0
 14 10  2  0  0  0  0
 15 21  2  0  0  0  0
 15 10  1  0  0  0  0
 16  5  1  0  0  0  0
 17  7  1  0  0  0  0
 18 23  1  0  0  0  0
 19 14  1  0  0  0  0
 20 19  1  0  0  0  0
 22 12  2  0  0  0  0
 23 22  1  0  0  0  0
 24 27  1  6  0  0  0
 28 25  1  0  0  0  0
 28 24  1  0  0  0  0
 29 26  2  0  0  0  0
 30  5  1  6  0  0  0
 30 25  1  0  0  0  0
 30 29  1  0  0  0  0
 31 29  1  0  0  0  0
 31 24  1  0  0  0  0
M  END
>  <MODEL>
4

>  <REMARK>
 VINA RESULT:      -7.9      2.969      4.923
  Name = 
  1 active torsions:
  status: ('A' for Active; 'I' for Inactive)
    1  A    between atoms: C_9  and  C_22
                            x       y       z     vdW  Elec       q    Type
                         _______ _______ _______ _____ _____    ______ ____

>  <TORSDO>
F 1

$$$$
=
 OpenBabel11052422383D

 31 35  0  0  1  0  0  0  0  0999 V2000
  160.9330  202.0930  150.2130 C   0  0  0  0  0  0  0  0  0  0  0  0
  161.8690  205.6160  149.2830 C   0  0  2  0  0  3  0  0  0  0  0  0
  161.8960  205.5110  147.7790 C   0  0  0  0  0  0  0  0  0  0  0  0
  160.6800  207.6200  154.0890 O   0  0  0  0  0  0  0  0  0  0  0  0
  160.7750  208.5670  153.2610 C   0  0  0  0  0  0  0  0  0  0  0  0
  163.1080  204.6440  145.7670 C   0  0  0  0  0  2  0  0  0  0  0  0
  161.3190  204.4320  150.0350 C   0  0  0  0  0  0  0  0  0  0  0  0
  160.5350  202.2370  151.5450 C   0  0  0  0  0  3  0  0  0  0  0  0
  162.7640  204.6570  147.2260 C   0  0  0  0  0  3  0  0  0  0  0  0
  161.0710  207.0130  151.2580 C   0  0  0  0  0  0  0  0  0  0  0  0
  160.9450  200.7470  149.5830 C   0  0  0  0  0  1  0  0  0  0  0  0
  160.7500  207.6230  147.5500 N   0  0  0  0  0  0  0  0  0  0  0  0
  161.9400  204.2250  144.8830 C   0  0  0  0  0  2  0  0  0  0  0  0
  160.9090  205.9270  151.9630 N   0  0  0  0  0  0  0  0  0  0  0  0
  161.2690  206.9000  149.7990 C   0  0  0  0  0  0  0  0  0  0  0  0
  160.9780  208.3090  151.8670 N   0  0  0  0  0  2  0  0  0  0  0  0
  161.3270  203.1800  149.4960 N   0  0  0  0  0  0  0  0  0  0  0  0
  160.6870  205.0850  145.0560 C   0  0  0  0  0  2  0  0  0  0  0  0
  160.9320  204.6120  151.3780 C   0  0  0  0  0  0  0  0  0  0  0  0
  160.5370  203.5040  152.1280 C   0  0  0  0  0  3  0  0  0  0  0  0
  160.7880  207.8310  148.9700 C   0  0  0  0  0  3  0  0  0  0  0  0
  161.1920  206.5440  146.9750 C   0  0  0  0  0  0  0  0  0  0  0  0
  160.9630  206.3710  145.6070 O   0  0  0  0  0  0  0  0  0  0  0  0
  162.3300  210.8040  156.0850 C   0  0  1  0  0  3  0  0  0  0  0  0
  162.0460  210.6880  153.6180 C   0  0  0  0  0  2  0  0  0  0  0  0
  158.8720  209.7920  155.3170 N   0  0  0  0  0  2  0  0  0  0  0  0
  163.1870  210.3840  157.2610 C   0  0  0  0  0  1  0  0  0  0  0  0
  162.9600  210.3230  154.7850 C   0  0  0  0  0  2  0  0  0  0  0  0
  160.1160  210.0780  155.1180 C   0  0  0  0  0  0  0  0  0  0  0  0
  160.6870  209.9870  153.7280 C   0  0  2  0  0  3  0  0  0  0  0  0
  160.9830  210.2640  156.2400 N   0  0  0  0  0  2  0  0  0  0  0  0
  1  8  1  0  0  0  0
  2  3  1  6  0  0  0
  2 15  1  0  0  0  0
  2  7  1  0  0  0  0
  5  4  2  0  0  0  0
  6  9  1  0  0  0  0
  7 19  2  0  0  0  0
  8 20  2  0  0  0  0
  9  3  2  0  0  0  0
 10 16  1  0  0  0  0
 10 14  2  0  0  0  0
 11  1  1  0  0  0  0
 12 21  1  0  0  0  0
 13 18  1  0  0  0  0
 13  6  1  0  0  0  0
 15 10  1  0  0  0  0
 16  5  1  0  0  0  0
 17  7  1  0  0  0  0
 17  1  2  0  0  0  0
 18 23  1  0  0  0  0
 19 14  1  0  0  0  0
 19 20  1  0  0  0  0
 21 15  2  0  0  0  0
 22 12  2  0  0  0  0
 22  3  1  0  0  0  0
 23 22  1  0  0  0  0
 24 31  1  0  0  0  0
 24 27  1  1  0  0  0
 25 30  1  0  0  0  0
 25 28  1  0  0  0  0
 28 24  1  0  0  0  0
 29 26  2  0  0  0  0
 29 31  1  0  0  0  0
 30  5  1  1  0  0  0
 30 29  1  0  0  0  0
M  END
>  <MODEL>
5

>  <REMARK>
 VINA RESULT:      -7.9      1.006      1.758
  Name = 
  1 active torsions:
  status: ('A' for Active; 'I' for Inactive)
    1  A    between atoms: C_9  and  C_22
                            x       y       z     vdW  Elec       q    Type
                         _______ _______ _______ _____ _____    ______ ____

>  <TORSDO>
F 1

$$$$
=
 OpenBabel11052422383D

 31 35  0  0  1  0  0  0  0  0999 V2000
  162.1150  207.9560  149.3630 C   0  0  0  0  0  0  0  0  0  0  0  0
  161.5150  211.4460  150.6330 C   0  0  2  0  0  3  0  0  0  0  0  0
  161.5670  212.2250  149.3440 C   0  0  0  0  0  0  0  0  0  0  0  0
  159.6550  209.8250  155.3700 O   0  0  0  0  0  0  0  0  0  0  0  0
  159.3460  211.0360  155.1990 C   0  0  0  0  0  0  0  0  0  0  0  0
  163.0090  213.1280  147.5060 C   0  0  0  0  0  2  0  0  0  0  0  0
  161.5060  209.9430  150.5150 C   0  0  0  0  0  0  0  0  0  0  0  0
  161.7060  207.1740  150.4470 C   0  0  0  0  0  3  0  0  0  0  0  0
  162.7040  212.1950  148.6390 C   0  0  0  0  0  3  0  0  0  0  0  0
  160.2330  211.1040  152.8070 C   0  0  0  0  0  0  0  0  0  0  0  0
  162.6720  207.3060  148.1480 C   0  0  0  0  0  1  0  0  0  0  0  0
  159.6540  213.5460  149.9930 N   0  0  0  0  0  0  0  0  0  0  0  0
  162.1070  212.9120  146.2970 C   0  0  0  0  0  2  0  0  0  0  0  0
  160.5380  209.8350  152.7900 N   0  0  0  0  0  0  0  0  0  0  0  0
  160.4460  211.9110  151.5900 C   0  0  0  0  0  0  0  0  0  0  0  0
  159.6230  211.7000  153.9620 N   0  0  0  0  0  2  0  0  0  0  0  0
  162.0210  209.3120  149.4240 N   0  0  0  0  0  0  0  0  0  0  0  0
  160.6130  213.0290  146.6040 C   0  0  0  0  0  2  0  0  0  0  0  0
  161.0920  209.1870  151.6310 C   0  0  0  0  0  0  0  0  0  0  0  0
  161.1940  207.7960  151.5860 C   0  0  0  0  0  3  0  0  0  0  0  0
  159.6170  212.9130  151.2800 C   0  0  0  0  0  3  0  0  0  0  0  0
  160.4940  213.2130  149.0580 C   0  0  0  0  0  0  0  0  0  0  0  0
  160.3430  213.7780  147.7880 O   0  0  0  0  0  0  0  0  0  0  0  0
  156.4760  213.6850  155.5890 C   0  0  1  0  0  3  0  0  0  0  0  0
  157.2000  211.4530  156.4110 C   0  0  0  0  0  2  0  0  0  0  0  0
  160.0860  213.7830  156.3210 N   0  0  0  0  0  2  0  0  0  0  0  0
  155.7220  214.4280  154.5070 C   0  0  0  0  0  1  0  0  0  0  0  0
  156.3730  212.1830  155.3570 C   0  0  0  0  0  2  0  0  0  0  0  0
  158.9050  213.2890  156.1470 C   0  0  0  0  0  0  0  0  0  0  0  0
  158.6870  211.8070  156.3020 C   0  0  2  0  0  3  0  0  0  0  0  0
  157.8710  214.1120  155.6000 N   0  0  0  0  0  2  0  0  0  0  0  0
  1 17  2  0  0  0  0
  1  8  1  0  0  0  0
  2  3  1  6  0  0  0
  2 15  1  0  0  0  0
  5  4  2  0  0  0  0
  6  9  1  0  0  0  0
  7  2  1  0  0  0  0
  7 19  2  0  0  0  0
  8 20  2  0  0  0  0
  9  3  2  0  0  0  0
 10 16  1  0  0  0  0
 11  1  1  0  0  0  0
 12 21  1  0  0  0  0
 13 18  1  0  0  0  0
 13  6  1  0  0  0  0
 14 10  2  0  0  0  0
 15 10  1  0  0  0  0
 16  5  1  0  0  0  0
 17  7  1  0  0  0  0
 18 23  1  0  0  0  0
 19 14  1  0  0  0  0
 20 19  1  0  0  0  0
 21 15  2  0  0  0  0
 22  3  1  0  0  0  0
 22 12  2  0  0  0  0
 23 22  1  0  0  0  0
 24 27  1  6  0  0  0
 24 31  1  0  0  0  0
 28 24  1  0  0  0  0
 28 25  1  0  0  0  0
 29 30  1  0  0  0  0
 29 26  2  0  0  0  0
 30  5  1  6  0  0  0
 30 25  1  0  0  0  0
 31 29  1  0  0  0  0
M  END
>  <MODEL>
6

>  <REMARK>
 VINA RESULT:      -6.7      3.374      5.692
  Name = 
  1 active torsions:
  status: ('A' for Active; 'I' for Inactive)
    1  A    between atoms: C_9  and  C_22
                            x       y       z     vdW  Elec       q    Type
                         _______ _______ _______ _____ _____    ______ ____

>  <TORSDO>
F 1

$$$$
=
 OpenBabel11052422383D

 31 35  0  0  1  0  0  0  0  0999 V2000
  157.2000  212.2460  155.9230 C   0  0  0  0  0  0  0  0  0  0  0  0
  160.2980  210.9690  154.2150 C   0  0  2  0  0  3  0  0  0  0  0  0
  160.5360  209.6940  154.9840 C   0  0  0  0  0  0  0  0  0  0  0  0
  159.7560  214.1670  149.9730 O   0  0  0  0  0  0  0  0  0  0  0  0
  160.5800  213.2530  149.6960 C   0  0  0  0  0  0  0  0  0  0  0  0
  161.2830  208.6640  157.1410 C   0  0  0  0  0  2  0  0  0  0  0  0
  158.9960  211.6820  154.4740 C   0  0  0  0  0  0  0  0  0  0  0  0
  156.7380  213.2050  155.0170 C   0  0  0  0  0  3  0  0  0  0  0  0
  160.7570  209.7870  156.3010 C   0  0  0  0  0  3  0  0  0  0  0  0
  160.2030  212.0120  151.8940 C   0  0  0  0  0  0  0  0  0  0  0  0
  156.4800  212.0320  157.2060 C   0  0  0  0  0  1  0  0  0  0  0  0
  161.0450  208.4920  152.9540 N   0  0  0  0  0  0  0  0  0  0  0  0
  160.3070  207.5010  157.2610 C   0  0  0  0  0  2  0  0  0  0  0  0
  159.2640  212.8240  152.2950 N   0  0  0  0  0  0  0  0  0  0  0  0
  160.5560  210.8510  152.7340 C   0  0  0  0  0  0  0  0  0  0  0  0
  160.8340  212.1870  150.6170 N   0  0  0  0  0  2  0  0  0  0  0  0
  158.3160  211.5220  155.6430 N   0  0  0  0  0  0  0  0  0  0  0  0
  159.8710  206.9110  155.9190 C   0  0  0  0  0  2  0  0  0  0  0  0
  158.5640  212.6460  153.5390 C   0  0  0  0  0  0  0  0  0  0  0  0
  157.4270  213.4040  153.8200 C   0  0  0  0  0  3  0  0  0  0  0  0
  160.9360  209.6950  152.1800 C   0  0  0  0  0  3  0  0  0  0  0  0
  160.8080  208.4410  154.2310 C   0  0  0  0  0  0  0  0  0  0  0  0
  160.7840  207.1930  154.8610 O   0  0  0  0  0  0  0  0  0  0  0  0
  159.7540  212.9390  145.8720 C   0  0  1  0  0  3  0  0  0  0  0  0
  160.8550  214.4440  147.5160 C   0  0  0  0  0  2  0  0  0  0  0  0
  161.8210  210.9200  148.1580 N   0  0  0  0  0  2  0  0  0  0  0  0
  158.4440  212.5580  145.2160 C   0  0  0  0  0  1  0  0  0  0  0  0
  159.5430  214.1230  146.8070 C   0  0  0  0  0  2  0  0  0  0  0  0
  161.2180  211.9560  147.6770 C   0  0  0  0  0  0  0  0  0  0  0  0
  161.3200  213.2760  148.3930 C   0  0  2  0  0  3  0  0  0  0  0  0
  160.2910  211.7940  146.6000 N   0  0  0  0  0  2  0  0  0  0  0  0
  1 11  1  0  0  0  0
  2 15  1  6  0  0  0
  2  7  1  0  0  0  0
  2  3  1  0  0  0  0
  3  9  2  0  0  0  0
  5  4  2  0  0  0  0
  5 16  1  0  0  0  0
  6 13  1  0  0  0  0
  7 17  2  0  0  0  0
  8  1  2  0  0  0  0
  9  6  1  0  0  0  0
 10 14  2  0  0  0  0
 10 15  1  0  0  0  0
 12 22  2  0  0  0  0
 14 19  1  0  0  0  0
 16 10  1  0  0  0  0
 17  1  1  0  0  0  0
 18 13  1  0  0  0  0
 19 20  2  0  0  0  0
 19  7  1  0  0  0  0
 20  8  1  0  0  0  0
 21 15  2  0  0  0  0
 21 12  1  0  0  0  0
 22 23  1  0  0  0  0
 22  3  1  0  0  0  0
 23 18  1  0  0  0  0
 24 27  1  1  0  0  0
 24 31  1  0  0  0  0
 24 28  1  0  0  0  0
 25 30  1  0  0  0  0
 28 25  1  0  0  0  0
 29 26  2  0  0  0  0
 29 30  1  0  0  0  0
 30  5  1  1  0  0  0
 31 29  1  0  0  0  0
M  END
>  <MODEL>
7

>  <REMARK>
 VINA RESULT:      -6.7      4.982      8.931
  Name = 
  1 active torsions:
  status: ('A' for Active; 'I' for Inactive)
    1  A    between atoms: C_9  and  C_22
                            x       y       z     vdW  Elec       q    Type
                         _______ _______ _______ _____ _____    ______ ____

>  <TORSDO>
F 1

$$$$
