=
 OpenBabel11062407563D

 34 38  0  0  1  0  0  0  0  0999 V2000
  160.6890  202.9040  150.1950 C   0  0  0  0  0  0  0  0  0  0  0  0
  161.0600  203.5810  147.8440 O   0  0  0  0  0  0  0  0  0  0  0  0
  161.2700  205.2130  149.6320 C   0  0  0  0  0  0  0  0  0  0  0  0
  162.3880  207.4890  149.1800 C   0  0  1  0  0  3  0  0  0  0  0  0
  161.5630  200.9270  148.9820 C   0  0  0  0  0  2  0  0  0  0  0  0
  161.2870  201.1740  147.4990 C   0  0  0  0  0  2  0  0  0  0  0  0
  161.4510  206.1330  147.4310 O   0  0  0  0  0  0  0  0  0  0  0  0
  160.9920  203.8870  149.2160 C   0  0  0  0  0  0  0  0  0  0  0  0
  160.4460  201.4630  149.8670 C   0  0  0  0  0  2  0  0  0  0  0  0
  161.2000  205.5560  151.0020 C   0  0  0  0  0  0  0  0  0  0  0  0
  160.6470  203.2560  151.5420 C   0  0  0  0  0  3  0  0  0  0  0  0
  160.4700  202.4370  147.2340 C   0  0  0  0  0  2  0  0  0  0  0  0
  161.9610  207.8460  150.5720 C   0  0  0  0  0  3  0  0  0  0  0  0
  161.4490  206.9640  151.4420 C   0  0  0  0  0  0  0  0  0  0  0  0
  161.6580  206.2720  148.6680 C   0  0  0  0  0  0  0  0  0  0  0  0
  160.8970  204.5640  151.9400 C   0  0  0  0  0  3  0  0  0  0  0  0
  160.5420  209.2720  154.3230 C   0  0  0  0  0  0  0  0  0  0  0  0
  160.4500  208.3670  155.3830 C   0  0  0  0  0  3  0  0  0  0  0  0
  161.0850  207.4520  152.8000 C   0  0  0  0  0  0  0  0  0  0  0  0
  160.6790  207.0070  155.1610 C   0  0  0  0  0  3  0  0  0  0  0  0
  160.8610  208.8170  153.0420 C   0  0  0  0  0  3  0  0  0  0  0  0
  160.9990  206.5530  153.8780 C   0  0  0  0  0  3  0  0  0  0  0  0
  160.3170  210.6240  154.5440 O   0  0  0  0  0  1  0  0  0  0  0  0
  162.2110  208.7050  148.2820 C   0  0  0  0  0  2  0  0  0  0  0  0
  161.7630  209.8420  149.0650 N   0  0  0  0  0  2  0  0  0  0  0  0
  162.4630  211.0050  148.5530 C   0  0  0  0  0  2  0  0  0  0  0  0
  161.5050  212.1820  148.4380 C   0  0  0  0  0  2  0  0  0  0  0  0
  159.1410  212.3580  147.0050 O   0  0  0  0  0  0  0  0  0  0  0  0
  161.4100  212.6380  147.0560 N   0  0  0  0  0  0  0  0  0  0  0  0
  160.2010  212.7030  146.4150 C   0  0  0  0  0  0  0  0  0  0  0  0
  161.3000  213.5330  144.4360 C   0  0  0  0  0  3  0  0  0  0  0  0
  162.5230  213.4610  145.1000 C   0  0  0  0  0  3  0  0  0  0  0  0
  162.5580  213.0080  146.4200 C   0  0  0  0  0  3  0  0  0  0  0  0
  160.1310  213.1530  145.0940 C   0  0  0  0  0  3  0  0  0  0  0  0
  1 11  1  0  0  0  0
  2  8  1  0  0  0  0
  3 10  2  0  0  0  0
  4 24  1  6  0  0  0
  4 13  1  0  0  0  0
  5  9  1  0  0  0  0
  6  5  1  0  0  0  0
  7 15  2  0  0  0  0
  8  3  1  0  0  0  0
  8  1  2  0  0  0  0
  9  1  1  0  0  0  0
 10 14  1  0  0  0  0
 10 16  1  0  0  0  0
 11 16  2  0  0  0  0
 12  6  1  0  0  0  0
 12  2  1  0  0  0  0
 13 14  2  0  0  0  0
 14 19  1  0  0  0  0
 15  4  1  0  0  0  0
 15  3  1  0  0  0  0
 17 23  1  0  0  0  0
 17 18  1  0  0  0  0
 19 21  1  0  0  0  0
 19 22  2  0  0  0  0
 20 18  2  0  0  0  0
 21 17  2  0  0  0  0
 22 20  1  0  0  0  0
 24 25  1  0  0  0  0
 26 25  1  0  0  0  0
 27 26  1  0  0  0  0
 29 27  1  0  0  0  0
 30 28  2  0  0  0  0
 30 29  1  0  0  0  0
 31 34  2  0  0  0  0
 31 32  1  0  0  0  0
 32 33  2  0  0  0  0
 33 29  1  0  0  0  0
 34 30  1  0  0  0  0
M  END
>  <MODEL>
1

>  <REMARK>
 VINA RESULT:     -10.4      0.000      0.000
  Name = 
  6 active torsions:
  status: ('A' for Active; 'I' for Inactive)
    1  A    between atoms: C_3  and  N_13
    2  A    between atoms: C_3  and  C_17
    3  A    between atoms: C_5  and  C_18
    4  A    between atoms: C_12  and  C_28
    5  A    between atoms: C_17  and  N_29
    6  A    between atoms: C_18  and  N_29
                            x       y       z     vdW  Elec       q    Type
                         _______ _______ _______ _____ _____    ______ ____

>  <TORSDO>
F 6

$$$$
=
 OpenBabel11062407563D

 34 38  0  0  1  0  0  0  0  0999 V2000
  160.7880  202.9910  150.5010 C   0  0  0  0  0  0  0  0  0  0  0  0
  161.0440  203.6650  148.1330 O   0  0  0  0  0  0  0  0  0  0  0  0
  161.2430  205.3200  149.9020 C   0  0  0  0  0  0  0  0  0  0  0  0
  162.2390  207.6400  149.3950 C   0  0  1  0  0  3  0  0  0  0  0  0
  161.7080  201.0460  149.2710 C   0  0  0  0  0  2  0  0  0  0  0  0
  161.3690  201.2680  147.7970 C   0  0  0  0  0  2  0  0  0  0  0  0
  161.3030  206.2280  147.6900 O   0  0  0  0  0  0  0  0  0  0  0  0
  161.0110  203.9790  149.5040 C   0  0  0  0  0  0  0  0  0  0  0  0
  160.6000  201.5380  150.1910 C   0  0  0  0  0  2  0  0  0  0  0  0
  161.2060  205.6700  151.2710 C   0  0  0  0  0  0  0  0  0  0  0  0
  160.7780  203.3520  151.8460 C   0  0  0  0  0  3  0  0  0  0  0  0
  160.4860  202.4900  147.5530 C   0  0  0  0  0  2  0  0  0  0  0  0
  161.8460  207.9890  150.7990 C   0  0  0  0  0  3  0  0  0  0  0  0
  161.4050  207.0920  151.6930 C   0  0  0  0  0  0  0  0  0  0  0  0
  161.5480  206.3870  148.9170 C   0  0  0  0  0  0  0  0  0  0  0  0
  160.9820  204.6730  152.2260 C   0  0  0  0  0  3  0  0  0  0  0  0
  160.6630  209.3940  154.6250 C   0  0  0  0  0  0  0  0  0  0  0  0
  160.4810  208.4740  155.6590 C   0  0  0  0  0  3  0  0  0  0  0  0
  161.0670  207.5740  153.0590 C   0  0  0  0  0  0  0  0  0  0  0  0
  160.5970  207.1050  155.4030 C   0  0  0  0  0  3  0  0  0  0  0  0
  160.9580  208.9470  153.3350 C   0  0  0  0  0  3  0  0  0  0  0  0
  160.8920  206.6590  154.1120 C   0  0  0  0  0  3  0  0  0  0  0  0
  160.5500  210.7540  154.8790 O   0  0  0  0  0  1  0  0  0  0  0  0
  161.9740  208.8390  148.4950 C   0  0  0  0  0  2  0  0  0  0  0  0
  161.9230  210.0540  149.2880 N   0  0  0  0  0  2  0  0  0  0  0  0
  162.2550  211.1500  148.3960 C   0  0  0  0  0  2  0  0  0  0  0  0
  161.5480  212.4200  148.8450 C   0  0  0  0  0  2  0  0  0  0  0  0
  159.3220  213.8760  149.6190 O   0  0  0  0  0  0  0  0  0  0  0  0
  160.4120  212.7150  147.9780 N   0  0  0  0  0  0  0  0  0  0  0  0
  159.3480  213.4470  148.4330 C   0  0  0  0  0  0  0  0  0  0  0  0
  158.2960  213.2530  146.2730 C   0  0  0  0  0  3  0  0  0  0  0  0
  159.3850  212.5080  145.8230 C   0  0  0  0  0  3  0  0  0  0  0  0
  160.4420  212.2480  146.6970 C   0  0  0  0  0  3  0  0  0  0  0  0
  158.2740  213.7260  147.5840 C   0  0  0  0  0  3  0  0  0  0  0  0
  1 11  1  0  0  0  0
  2  8  1  0  0  0  0
  3 10  2  0  0  0  0
  4 24  1  6  0  0  0
  4 13  1  0  0  0  0
  5  9  1  0  0  0  0
  6  5  1  0  0  0  0
  7 15  2  0  0  0  0
  8  3  1  0  0  0  0
  8  1  2  0  0  0  0
  9  1  1  0  0  0  0
 10 14  1  0  0  0  0
 10 16  1  0  0  0  0
 11 16  2  0  0  0  0
 12  6  1  0  0  0  0
 12  2  1  0  0  0  0
 13 14  2  0  0  0  0
 14 19  1  0  0  0  0
 15  4  1  0  0  0  0
 15  3  1  0  0  0  0
 17 23  1  0  0  0  0
 17 18  1  0  0  0  0
 19 21  1  0  0  0  0
 19 22  2  0  0  0  0
 20 18  2  0  0  0  0
 21 17  2  0  0  0  0
 22 20  1  0  0  0  0
 24 25  1  0  0  0  0
 26 27  1  0  0  0  0
 26 25  1  0  0  0  0
 29 30  1  0  0  0  0
 29 27  1  0  0  0  0
 30 28  2  0  0  0  0
 31 34  2  0  0  0  0
 32 31  1  0  0  0  0
 32 33  2  0  0  0  0
 33 29  1  0  0  0  0
 34 30  1  0  0  0  0
M  END
>  <MODEL>
2

>  <REMARK>
 VINA RESULT:     -10.3      1.027      1.307
  Name = 
  6 active torsions:
  status: ('A' for Active; 'I' for Inactive)
    1  A    between atoms: C_3  and  N_13
    2  A    between atoms: C_3  and  C_17
    3  A    between atoms: C_5  and  C_18
    4  A    between atoms: C_12  and  C_28
    5  A    between atoms: C_17  and  N_29
    6  A    between atoms: C_18  and  N_29
                            x       y       z     vdW  Elec       q    Type
                         _______ _______ _______ _____ _____    ______ ____

>  <TORSDO>
F 6

$$$$
=
 OpenBabel11062407563D

 34 38  0  0  1  0  0  0  0  0999 V2000
  161.0160  208.0160  154.9800 C   0  0  0  0  0  0  0  0  0  0  0  0
  161.7950  210.1940  154.1000 O   0  0  0  0  0  0  0  0  0  0  0  0
  161.4660  208.3160  152.5930 C   0  0  0  0  0  0  0  0  0  0  0  0
  161.3970  208.6980  150.0470 C   0  0  1  0  0  3  0  0  0  0  0  0
  160.0750  209.7850  156.4380 C   0  0  0  0  0  2  0  0  0  0  0  0
  160.9510  211.0210  156.2380 C   0  0  0  0  0  2  0  0  0  0  0  0
  162.4310  210.2480  151.5650 O   0  0  0  0  0  0  0  0  0  0  0  0
  161.4370  208.8470  153.9080 C   0  0  0  0  0  0  0  0  0  0  0  0
  160.8870  208.4980  156.3920 C   0  0  0  0  0  2  0  0  0  0  0  0
  161.1220  206.9630  152.3670 C   0  0  0  0  0  0  0  0  0  0  0  0
  160.6600  206.6920  154.7340 C   0  0  0  0  0  3  0  0  0  0  0  0
  162.1670  210.7680  155.3490 C   0  0  0  0  0  2  0  0  0  0  0  0
  161.3600  207.2030  149.9390 C   0  0  0  0  0  3  0  0  0  0  0  0
  161.1940  206.3860  150.9890 C   0  0  0  0  0  0  0  0  0  0  0  0
  161.8320  209.1470  151.4200 C   0  0  0  0  0  0  0  0  0  0  0  0
  160.7140  206.1730  153.4460 C   0  0  0  0  0  3  0  0  0  0  0  0
  160.9780  203.0390  149.2000 C   0  0  0  0  0  0  0  0  0  0  0  0
  161.0370  202.1480  150.2740 C   0  0  0  0  0  3  0  0  0  0  0  0
  161.1580  204.9200  150.7350 C   0  0  0  0  0  0  0  0  0  0  0  0
  161.1500  202.6350  151.5780 C   0  0  0  0  0  3  0  0  0  0  0  0
  161.0340  204.4150  149.4300 C   0  0  0  0  0  3  0  0  0  0  0  0
  161.2060  204.0120  151.8070 C   0  0  0  0  0  3  0  0  0  0  0  0
  160.8620  202.5560  147.9030 O   0  0  0  0  0  1  0  0  0  0  0  0
  162.2800  209.2520  148.9380 C   0  0  0  0  0  2  0  0  0  0  0  0
  161.5720  210.2890  148.2090 N   0  0  0  0  0  2  0  0  0  0  0  0
  162.3010  211.5250  148.4270 C   0  0  0  0  0  2  0  0  0  0  0  0
  161.4760  212.7090  147.9420 C   0  0  0  0  0  2  0  0  0  0  0  0
  159.3300  212.2920  146.2410 O   0  0  0  0  0  0  0  0  0  0  0  0
  161.5400  212.8240  146.4890 N   0  0  0  0  0  0  0  0  0  0  0  0
  160.4320  212.6070  145.7140 C   0  0  0  0  0  0  0  0  0  0  0  0
  161.7280  213.0780  143.7370 C   0  0  0  0  0  3  0  0  0  0  0  0
  162.8480  213.2950  144.5380 C   0  0  0  0  0  3  0  0  0  0  0  0
  162.7330  213.1630  145.9230 C   0  0  0  0  0  3  0  0  0  0  0  0
  160.5120  212.7330  144.3250 C   0  0  0  0  0  3  0  0  0  0  0  0
  1  9  1  0  0  0  0
  2 12  1  0  0  0  0
  3  8  1  0  0  0  0
  4 24  1  6  0  0  0
  4 15  1  0  0  0  0
  6  5  1  0  0  0  0
  8  2  1  0  0  0  0
  8  1  2  0  0  0  0
  9  5  1  0  0  0  0
 10  3  2  0  0  0  0
 10 16  1  0  0  0  0
 11  1  1  0  0  0  0
 12  6  1  0  0  0  0
 13  4  1  0  0  0  0
 13 14  2  0  0  0  0
 14 10  1  0  0  0  0
 15  7  2  0  0  0  0
 15  3  1  0  0  0  0
 16 11  2  0  0  0  0
 17 21  2  0  0  0  0
 17 18  1  0  0  0  0
 18 20  2  0  0  0  0
 19 14  1  0  0  0  0
 19 22  2  0  0  0  0
 20 22  1  0  0  0  0
 21 19  1  0  0  0  0
 23 17  1  0  0  0  0
 25 26  1  0  0  0  0
 25 24  1  0  0  0  0
 27 26  1  0  0  0  0
 29 27  1  0  0  0  0
 30 28  2  0  0  0  0
 30 29  1  0  0  0  0
 31 34  2  0  0  0  0
 31 32  1  0  0  0  0
 32 33  2  0  0  0  0
 33 29  1  0  0  0  0
 34 30  1  0  0  0  0
M  END
>  <MODEL>
3

>  <REMARK>
 VINA RESULT:      -9.7      1.255      5.834
  Name = 
  6 active torsions:
  status: ('A' for Active; 'I' for Inactive)
    1  A    between atoms: C_3  and  N_13
    2  A    between atoms: C_3  and  C_17
    3  A    between atoms: C_5  and  C_18
    4  A    between atoms: C_12  and  C_28
    5  A    between atoms: C_17  and  N_29
    6  A    between atoms: C_18  and  N_29
                            x       y       z     vdW  Elec       q    Type
                         _______ _______ _______ _____ _____    ______ ____

>  <TORSDO>
F 6

$$$$
=
 OpenBabel11062407563D

 34 38  0  0  1  0  0  0  0  0999 V2000
  161.1420  207.8900  154.8420 C   0  0  0  0  0  0  0  0  0  0  0  0
  161.7640  209.9940  153.6970 O   0  0  0  0  0  0  0  0  0  0  0  0
  161.4390  207.9560  152.4140 C   0  0  0  0  0  0  0  0  0  0  0  0
  161.2060  208.0650  149.8520 C   0  0  1  0  0  3  0  0  0  0  0  0
  160.2040  209.7620  156.1670 C   0  0  0  0  0  2  0  0  0  0  0  0
  161.0060  211.0060  155.7870 C   0  0  0  0  0  2  0  0  0  0  0  0
  162.2510  209.8070  151.1360 O   0  0  0  0  0  0  0  0  0  0  0  0
  161.4610  208.6210  153.6660 C   0  0  0  0  0  0  0  0  0  0  0  0
  161.0720  208.5120  156.2030 C   0  0  0  0  0  2  0  0  0  0  0  0
  161.1490  206.5730  152.3500 C   0  0  0  0  0  0  0  0  0  0  0  0
  160.8370  206.5340  154.7560 C   0  0  0  0  0  3  0  0  0  0  0  0
  162.1800  210.7110  154.8550 C   0  0  0  0  0  2  0  0  0  0  0  0
  161.2350  206.5670  149.9000 C   0  0  0  0  0  3  0  0  0  0  0  0
  161.1690  205.8580  151.0360 C   0  0  0  0  0  0  0  0  0  0  0  0
  161.6970  208.6740  151.1410 C   0  0  0  0  0  0  0  0  0  0  0  0
  160.8420  205.8840  153.5270 C   0  0  0  0  0  3  0  0  0  0  0  0
  160.4200  202.3080  149.9010 C   0  0  0  0  0  0  0  0  0  0  0  0
  161.1940  201.5640  150.7940 C   0  0  0  0  0  3  0  0  0  0  0  0
  161.1890  204.3740  150.9360 C   0  0  0  0  0  0  0  0  0  0  0  0
  161.9620  202.2160  151.7620 C   0  0  0  0  0  3  0  0  0  0  0  0
  160.4150  203.7030  149.9750 C   0  0  0  0  0  3  0  0  0  0  0  0
  161.9560  203.6120  151.8350 C   0  0  0  0  0  3  0  0  0  0  0  0
  159.6550  201.6620  148.9400 O   0  0  0  0  0  1  0  0  0  0  0  0
  161.9960  208.5350  148.6390 C   0  0  0  0  0  2  0  0  0  0  0  0
  162.7350  207.4250  148.0640 N   0  0  0  0  0  2  0  0  0  0  0  0
  161.8560  206.7930  147.0980 C   0  0  0  0  0  2  0  0  0  0  0  0
  162.6430  205.8170  146.2370 C   0  0  0  0  0  2  0  0  0  0  0  0
  160.8310  205.7580  144.1430 O   0  0  0  0  0  0  0  0  0  0  0  0
  161.8250  204.6610  145.8850 N   0  0  0  0  0  0  0  0  0  0  0  0
  160.9540  204.7080  144.8300 C   0  0  0  0  0  0  0  0  0  0  0  0
  160.3160  202.4240  145.2610 C   0  0  0  0  0  3  0  0  0  0  0  0
  161.2060  202.3900  146.3330 C   0  0  0  0  0  3  0  0  0  0  0  0
  161.9580  203.5280  146.6310 C   0  0  0  0  0  3  0  0  0  0  0  0
  160.1860  203.5870  144.5030 C   0  0  0  0  0  3  0  0  0  0  0  0
  1  9  1  0  0  0  0
  2 12  1  0  0  0  0
  3  8  1  0  0  0  0
  4 24  1  6  0  0  0
  4 13  1  0  0  0  0
  4 15  1  0  0  0  0
  5  9  1  0  0  0  0
  6  5  1  0  0  0  0
  7 15  2  0  0  0  0
  8  2  1  0  0  0  0
  8  1  2  0  0  0  0
 10  3  2  0  0  0  0
 10 16  1  0  0  0  0
 11  1  1  0  0  0  0
 12  6  1  0  0  0  0
 13 14  2  0  0  0  0
 14 10  1  0  0  0  0
 15  3  1  0  0  0  0
 16 11  2  0  0  0  0
 17 21  2  0  0  0  0
 17 18  1  0  0  0  0
 18 20  2  0  0  0  0
 19 14  1  0  0  0  0
 19 22  2  0  0  0  0
 20 22  1  0  0  0  0
 21 19  1  0  0  0  0
 23 17  1  0  0  0  0
 25 24  1  0  0  0  0
 26 25  1  0  0  0  0
 27 26  1  0  0  0  0
 28 30  2  0  0  0  0
 29 27  1  0  0  0  0
 29 33  1  0  0  0  0
 30 29  1  0  0  0  0
 31 32  1  0  0  0  0
 32 33  2  0  0  0  0
 34 30  1  0  0  0  0
 34 31  2  0  0  0  0
M  END
>  <MODEL>
4

>  <REMARK>
 VINA RESULT:      -9.7      3.003      7.301
  Name = 
  6 active torsions:
  status: ('A' for Active; 'I' for Inactive)
    1  A    between atoms: C_3  and  N_13
    2  A    between atoms: C_3  and  C_17
    3  A    between atoms: C_5  and  C_18
    4  A    between atoms: C_12  and  C_28
    5  A    between atoms: C_17  and  N_29
    6  A    between atoms: C_18  and  N_29
                            x       y       z     vdW  Elec       q    Type
                         _______ _______ _______ _____ _____    ______ ____

>  <TORSDO>
F 6

$$$$
=
 OpenBabel11062407563D

 34 38  0  0  1  0  0  0  0  0999 V2000
  161.0620  207.9990  155.0000 C   0  0  0  0  0  0  0  0  0  0  0  0
  161.8490  210.1680  154.1060 O   0  0  0  0  0  0  0  0  0  0  0  0
  161.4960  208.2870  152.6090 C   0  0  0  0  0  0  0  0  0  0  0  0
  161.4120  208.6600  150.0620 C   0  0  1  0  0  3  0  0  0  0  0  0
  160.1440  209.7790  156.4580 C   0  0  0  0  0  2  0  0  0  0  0  0
  161.0270  211.0090  156.2460 C   0  0  0  0  0  2  0  0  0  0  0  0
  162.4670  210.2080  151.5660 O   0  0  0  0  0  0  0  0  0  0  0  0
  161.4810  208.8230  153.9210 C   0  0  0  0  0  0  0  0  0  0  0  0
  160.9460  208.4870  156.4110 C   0  0  0  0  0  2  0  0  0  0  0  0
  161.1420  206.9350  152.3900 C   0  0  0  0  0  0  0  0  0  0  0  0
  160.6960  206.6760  154.7610 C   0  0  0  0  0  3  0  0  0  0  0  0
  162.2340  210.7440  155.3500 C   0  0  0  0  0  2  0  0  0  0  0  0
  161.3640  207.1650  149.9600 C   0  0  0  0  0  3  0  0  0  0  0  0
  161.2010  206.3520  151.0140 C   0  0  0  0  0  0  0  0  0  0  0  0
  161.8590  209.1110  151.4290 C   0  0  0  0  0  0  0  0  0  0  0  0
  160.7370  206.1510  153.4750 C   0  0  0  0  0  3  0  0  0  0  0  0
  160.9290  203.0000  149.2420 C   0  0  0  0  0  0  0  0  0  0  0  0
  161.0100  202.1120  150.3170 C   0  0  0  0  0  3  0  0  0  0  0  0
  161.1530  204.8860  150.7660 C   0  0  0  0  0  0  0  0  0  0  0  0
  161.1570  202.6030  151.6160 C   0  0  0  0  0  3  0  0  0  0  0  0
  160.9960  204.3770  149.4660 C   0  0  0  0  0  3  0  0  0  0  0  0
  161.2240  203.9810  151.8390 C   0  0  0  0  0  3  0  0  0  0  0  0
  160.7810  202.5140  147.9500 O   0  0  0  0  0  1  0  0  0  0  0  0
  162.2900  209.2030  148.9440 C   0  0  0  0  0  2  0  0  0  0  0  0
  161.5680  210.2120  148.1900 N   0  0  0  0  0  2  0  0  0  0  0  0
  162.2370  211.4760  148.4350 C   0  0  0  0  0  2  0  0  0  0  0  0
  161.7670  212.5180  147.4300 C   0  0  0  0  0  2  0  0  0  0  0  0
  159.7430  211.9980  145.6120 O   0  0  0  0  0  0  0  0  0  0  0  0
  160.3620  212.8460  147.6440 N   0  0  0  0  0  0  0  0  0  0  0  0
  159.4170  212.5520  146.6970 C   0  0  0  0  0  0  0  0  0  0  0  0
  157.7080  213.4800  148.1220 C   0  0  0  0  0  3  0  0  0  0  0  0
  158.6800  213.7750  149.0760 C   0  0  0  0  0  3  0  0  0  0  0  0
  160.0120  213.4470  148.8160 C   0  0  0  0  0  3  0  0  0  0  0  0
  158.0740  212.8650  146.9250 C   0  0  0  0  0  3  0  0  0  0  0  0
  1  9  1  0  0  0  0
  2 12  1  0  0  0  0
  3  8  1  0  0  0  0
  4 24  1  6  0  0  0
  4 15  1  0  0  0  0
  6  5  1  0  0  0  0
  8  2  1  0  0  0  0
  8  1  2  0  0  0  0
  9  5  1  0  0  0  0
 10  3  2  0  0  0  0
 10 16  1  0  0  0  0
 11  1  1  0  0  0  0
 12  6  1  0  0  0  0
 13  4  1  0  0  0  0
 13 14  2  0  0  0  0
 14 10  1  0  0  0  0
 15  7  2  0  0  0  0
 15  3  1  0  0  0  0
 16 11  2  0  0  0  0
 17 21  2  0  0  0  0
 17 18  1  0  0  0  0
 18 20  2  0  0  0  0
 19 14  1  0  0  0  0
 19 22  2  0  0  0  0
 20 22  1  0  0  0  0
 21 19  1  0  0  0  0
 23 17  1  0  0  0  0
 25 26  1  0  0  0  0
 25 24  1  0  0  0  0
 27 29  1  0  0  0  0
 27 26  1  0  0  0  0
 28 30  2  0  0  0  0
 29 33  1  0  0  0  0
 30 34  1  0  0  0  0
 30 29  1  0  0  0  0
 31 32  1  0  0  0  0
 33 32  2  0  0  0  0
 34 31  2  0  0  0  0
M  END
>  <MODEL>
5

>  <REMARK>
 VINA RESULT:      -9.7      1.578      6.026
  Name = 
  6 active torsions:
  status: ('A' for Active; 'I' for Inactive)
    1  A    between atoms: C_3  and  N_13
    2  A    between atoms: C_3  and  C_17
    3  A    between atoms: C_5  and  C_18
    4  A    between atoms: C_12  and  C_28
    5  A    between atoms: C_17  and  N_29
    6  A    between atoms: C_18  and  N_29
                            x       y       z     vdW  Elec       q    Type
                         _______ _______ _______ _____ _____    ______ ____

>  <TORSDO>
F 6

$$$$
=
 OpenBabel11062407563D

 34 38  0  0  1  0  0  0  0  0999 V2000
  160.1740  210.0940  154.9130 C   0  0  0  0  0  0  0  0  0  0  0  0
  160.4780  207.6420  154.7680 O   0  0  0  0  0  0  0  0  0  0  0  0
  161.0090  209.0530  152.8620 C   0  0  0  0  0  0  0  0  0  0  0  0
  162.3770  208.1070  150.8950 C   0  0  1  0  0  3  0  0  0  0  0  0
  160.7100  209.2760  157.1910 C   0  0  0  0  0  2  0  0  0  0  0  0
  160.3740  207.7860  157.2040 C   0  0  0  0  0  2  0  0  0  0  0  0
  161.1640  206.7060  152.4260 O   0  0  0  0  0  0  0  0  0  0  0  0
  160.5370  208.9250  154.1930 C   0  0  0  0  0  0  0  0  0  0  0  0
  159.7290  210.0740  156.3430 C   0  0  0  0  0  2  0  0  0  0  0  0
  161.0710  210.3270  152.2510 C   0  0  0  0  0  0  0  0  0  0  0  0
  160.2640  211.3420  154.3010 C   0  0  0  0  0  3  0  0  0  0  0  0
  159.7100  207.3000  155.9170 C   0  0  0  0  0  2  0  0  0  0  0  0
  162.0890  209.4130  150.2170 C   0  0  0  0  0  3  0  0  0  0  0  0
  161.5240  210.4620  150.8320 C   0  0  0  0  0  0  0  0  0  0  0  0
  161.4660  207.8800  152.0760 C   0  0  0  0  0  0  0  0  0  0  0  0
  160.7040  211.4570  152.9880 C   0  0  0  0  0  3  0  0  0  0  0  0
  161.8060  213.0950  148.1040 C   0  0  0  0  0  0  0  0  0  0  0  0
  160.9440  214.0830  148.5840 C   0  0  0  0  0  3  0  0  0  0  0  0
  161.3130  211.7050  150.0410 C   0  0  0  0  0  0  0  0  0  0  0  0
  160.2690  213.8920  149.7920 C   0  0  0  0  0  3  0  0  0  0  0  0
  161.9920  211.9160  148.8300 C   0  0  0  0  0  3  0  0  0  0  0  0
  160.4550  212.7120  150.5180 C   0  0  0  0  0  3  0  0  0  0  0  0
  162.4800  213.2840  146.9050 O   0  0  0  0  0  1  0  0  0  0  0  0
  162.2990  206.9880  149.8670 C   0  0  0  0  0  2  0  0  0  0  0  0
  161.2690  207.2830  148.8870 N   0  0  0  0  0  2  0  0  0  0  0  0
  160.4550  206.0880  148.7630 C   0  0  0  0  0  2  0  0  0  0  0  0
  161.2090  205.0220  147.9810 C   0  0  0  0  0  2  0  0  0  0  0  0
  161.2060  202.6030  146.6320 O   0  0  0  0  0  0  0  0  0  0  0  0
  161.0770  203.7190  148.6240 N   0  0  0  0  0  0  0  0  0  0  0  0
  161.0900  202.5640  147.8870 C   0  0  0  0  0  0  0  0  0  0  0  0
  160.8420  201.2770  149.9100 C   0  0  0  0  0  3  0  0  0  0  0  0
  160.8300  202.4590  150.6470 C   0  0  0  0  0  3  0  0  0  0  0  0
  160.9510  203.6800  149.9800 C   0  0  0  0  0  3  0  0  0  0  0  0
  160.9730  201.3260  148.5230 C   0  0  0  0  0  3  0  0  0  0  0  0
  1  9  1  0  0  0  0
  2 12  1  0  0  0  0
  3  8  1  0  0  0  0
  4 24  1  6  0  0  0
  4 15  1  0  0  0  0
  5  6  1  0  0  0  0
  8  2  1  0  0  0  0
  8  1  2  0  0  0  0
  9  5  1  0  0  0  0
 10  3  2  0  0  0  0
 10 16  1  0  0  0  0
 11  1  1  0  0  0  0
 12  6  1  0  0  0  0
 13 14  2  0  0  0  0
 13  4  1  0  0  0  0
 14 10  1  0  0  0  0
 15  7  2  0  0  0  0
 15  3  1  0  0  0  0
 16 11  2  0  0  0  0
 17 18  2  0  0  0  0
 17 21  1  0  0  0  0
 18 20  1  0  0  0  0
 19 22  1  0  0  0  0
 19 14  1  0  0  0  0
 20 22  2  0  0  0  0
 21 19  2  0  0  0  0
 23 17  1  0  0  0  0
 25 24  1  0  0  0  0
 26 25  1  0  0  0  0
 27 29  1  0  0  0  0
 27 26  1  0  0  0  0
 28 30  2  0  0  0  0
 29 33  1  0  0  0  0
 30 34  1  0  0  0  0
 30 29  1  0  0  0  0
 31 32  1  0  0  0  0
 33 32  2  0  0  0  0
 34 31  2  0  0  0  0
M  END
>  <MODEL>
6

>  <REMARK>
 VINA RESULT:      -9.0      2.142      8.162
  Name = 
  6 active torsions:
  status: ('A' for Active; 'I' for Inactive)
    1  A    between atoms: C_3  and  N_13
    2  A    between atoms: C_3  and  C_17
    3  A    between atoms: C_5  and  C_18
    4  A    between atoms: C_12  and  C_28
    5  A    between atoms: C_17  and  N_29
    6  A    between atoms: C_18  and  N_29
                            x       y       z     vdW  Elec       q    Type
                         _______ _______ _______ _____ _____    ______ ____

>  <TORSDO>
F 6

$$$$
=
 OpenBabel11062407563D

 34 38  0  0  1  0  0  0  0  0999 V2000
  161.1370  207.5920  154.3320 C   0  0  0  0  0  0  0  0  0  0  0  0
  161.8930  209.9100  153.9060 O   0  0  0  0  0  0  0  0  0  0  0  0
  161.5620  208.3730  152.0520 C   0  0  0  0  0  0  0  0  0  0  0  0
  161.4660  209.2630  149.6370 C   0  0  1  0  0  3  0  0  0  0  0  0
  160.2000  209.0210  156.1270 C   0  0  0  0  0  2  0  0  0  0  0  0
  161.0660  210.2790  156.1740 C   0  0  0  0  0  2  0  0  0  0  0  0
  162.5050  210.4810  151.4290 O   0  0  0  0  0  0  0  0  0  0  0  0
  161.5430  208.6270  153.4470 C   0  0  0  0  0  0  0  0  0  0  0  0
  161.0190  207.7770  155.8140 C   0  0  0  0  0  2  0  0  0  0  0  0
  161.2250  207.0910  151.5590 C   0  0  0  0  0  0  0  0  0  0  0  0
  160.7880  206.3430  153.8250 C   0  0  0  0  0  3  0  0  0  0  0  0
  162.2740  210.2210  155.2420 C   0  0  0  0  0  2  0  0  0  0  0  0
  161.4370  207.8210  149.2280 C   0  0  0  0  0  3  0  0  0  0  0  0
  161.2880  206.8060  150.0920 C   0  0  0  0  0  0  0  0  0  0  0  0
  161.9110  209.4280  151.0690 C   0  0  0  0  0  0  0  0  0  0  0  0
  160.8330  206.0950  152.4590 C   0  0  0  0  0  3  0  0  0  0  0  0
  161.5130  203.8710  147.6870 C   0  0  0  0  0  0  0  0  0  0  0  0
  161.1480  202.8070  148.5140 C   0  0  0  0  0  3  0  0  0  0  0  0
  161.2590  205.4220  149.5460 C   0  0  0  0  0  0  0  0  0  0  0  0
  160.8310  203.0440  149.8540 C   0  0  0  0  0  3  0  0  0  0  0  0
  161.5640  205.1700  148.1990 C   0  0  0  0  0  3  0  0  0  0  0  0
  160.8830  204.3440  150.3660 C   0  0  0  0  0  3  0  0  0  0  0  0
  161.8250  203.6380  146.3540 O   0  0  0  0  0  1  0  0  0  0  0  0
  162.3340  210.0380  148.6560 C   0  0  0  0  0  2  0  0  0  0  0  0
  161.5220  210.9860  147.9140 N   0  0  0  0  0  2  0  0  0  0  0  0
  162.2040  212.2650  147.9820 C   0  0  0  0  0  2  0  0  0  0  0  0
  161.2670  213.3800  147.5450 C   0  0  0  0  0  2  0  0  0  0  0  0
  158.6440  213.1550  146.6820 O   0  0  0  0  0  0  0  0  0  0  0  0
  160.1010  213.4490  148.4200 N   0  0  0  0  0  0  0  0  0  0  0  0
  158.8330  213.3230  147.9170 C   0  0  0  0  0  0  0  0  0  0  0  0
  157.9330  213.5710  150.1390 C   0  0  0  0  0  3  0  0  0  0  0  0
  159.2290  213.6990  150.6370 C   0  0  0  0  0  3  0  0  0  0  0  0
  160.3080  213.6340  149.7540 C   0  0  0  0  0  3  0  0  0  0  0  0
  157.7300  213.3820  148.7730 C   0  0  0  0  0  3  0  0  0  0  0  0
  1  9  1  0  0  0  0
  2 12  1  0  0  0  0
  3  8  1  0  0  0  0
  4 24  1  6  0  0  0
  4 15  1  0  0  0  0
  5  6  1  0  0  0  0
  8  2  1  0  0  0  0
  8  1  2  0  0  0  0
  9  5  1  0  0  0  0
 10  3  2  0  0  0  0
 10 16  1  0  0  0  0
 11  1  1  0  0  0  0
 12  6  1  0  0  0  0
 13  4  1  0  0  0  0
 13 14  2  0  0  0  0
 14 10  1  0  0  0  0
 15  7  2  0  0  0  0
 15  3  1  0  0  0  0
 16 11  2  0  0  0  0
 17 21  2  0  0  0  0
 17 18  1  0  0  0  0
 18 20  2  0  0  0  0
 19 14  1  0  0  0  0
 19 22  2  0  0  0  0
 20 22  1  0  0  0  0
 21 19  1  0  0  0  0
 23 17  1  0  0  0  0
 25 26  1  0  0  0  0
 25 24  1  0  0  0  0
 27 26  1  0  0  0  0
 27 29  1  0  0  0  0
 28 30  2  0  0  0  0
 29 33  1  0  0  0  0
 30 29  1  0  0  0  0
 30 34  1  0  0  0  0
 31 32  1  0  0  0  0
 33 32  2  0  0  0  0
 34 31  2  0  0  0  0
M  END
>  <MODEL>
7

>  <REMARK>
 VINA RESULT:      -8.9      1.855      6.081
  Name = 
  6 active torsions:
  status: ('A' for Active; 'I' for Inactive)
    1  A    between atoms: C_3  and  N_13
    2  A    between atoms: C_3  and  C_17
    3  A    between atoms: C_5  and  C_18
    4  A    between atoms: C_12  and  C_28
    5  A    between atoms: C_17  and  N_29
    6  A    between atoms: C_18  and  N_29
                            x       y       z     vdW  Elec       q    Type
                         _______ _______ _______ _____ _____    ______ ____

>  <TORSDO>
F 6

$$$$
=
 OpenBabel11062407563D

 34 38  0  0  1  0  0  0  0  0999 V2000
  160.7750  203.0960  150.6750 C   0  0  0  0  0  0  0  0  0  0  0  0
  160.8830  203.6540  148.2670 O   0  0  0  0  0  0  0  0  0  0  0  0
  161.1040  205.4060  149.9360 C   0  0  0  0  0  0  0  0  0  0  0  0
  161.9770  207.7320  149.2600 C   0  0  1  0  0  3  0  0  0  0  0  0
  161.7090  201.1260  149.4990 C   0  0  0  0  0  2  0  0  0  0  0  0
  161.2870  201.2560  148.0360 C   0  0  0  0  0  2  0  0  0  0  0  0
  161.0140  206.1980  147.6810 O   0  0  0  0  0  0  0  0  0  0  0  0
  160.9060  204.0380  149.6200 C   0  0  0  0  0  0  0  0  0  0  0  0
  160.6300  201.6230  150.4500 C   0  0  0  0  0  2  0  0  0  0  0  0
  161.1220  205.8260  151.2860 C   0  0  0  0  0  0  0  0  0  0  0  0
  160.8180  203.5270  151.9990 C   0  0  0  0  0  3  0  0  0  0  0  0
  160.3440  202.4300  147.7770 C   0  0  0  0  0  2  0  0  0  0  0  0
  161.6420  208.1400  150.6630 C   0  0  0  0  0  3  0  0  0  0  0  0
  161.2840  207.2750  151.6240 C   0  0  0  0  0  0  0  0  0  0  0  0
  161.3140  206.4310  148.8840 C   0  0  0  0  0  0  0  0  0  0  0  0
  160.9870  204.8730  152.3000 C   0  0  0  0  0  3  0  0  0  0  0  0
  160.5610  207.4710  155.3500 C   0  0  0  0  0  0  0  0  0  0  0  0
  160.4000  208.8470  155.5280 C   0  0  0  0  0  3  0  0  0  0  0  0
  160.9970  207.8150  152.9790 C   0  0  0  0  0  0  0  0  0  0  0  0
  160.5300  209.7110  154.4370 C   0  0  0  0  0  3  0  0  0  0  0  0
  160.8530  206.9590  154.0840 C   0  0  0  0  0  3  0  0  0  0  0  0
  160.8230  209.1970  153.1710 C   0  0  0  0  0  3  0  0  0  0  0  0
  160.4290  206.6120  156.4320 O   0  0  0  0  0  1  0  0  0  0  0  0
  161.6190  208.8710  148.3160 C   0  0  0  0  0  2  0  0  0  0  0  0
  162.6700  209.8730  148.3220 N   0  0  0  0  0  2  0  0  0  0  0  0
  162.2820  210.8810  149.2910 C   0  0  0  0  0  2  0  0  0  0  0  0
  161.5820  212.0360  148.5900 C   0  0  0  0  0  2  0  0  0  0  0  0
  160.0620  214.2520  147.9190 O   0  0  0  0  0  0  0  0  0  0  0  0
  160.6740  212.7210  149.5040 N   0  0  0  0  0  0  0  0  0  0  0  0
  159.9510  213.8100  149.0950 C   0  0  0  0  0  0  0  0  0  0  0  0
  158.9550  213.9650  151.2840 C   0  0  0  0  0  3  0  0  0  0  0  0
  159.6970  212.8560  151.6870 C   0  0  0  0  0  3  0  0  0  0  0  0
  160.5570  212.2430  150.7750 C   0  0  0  0  0  3  0  0  0  0  0  0
  159.0800  214.4470  149.9820 C   0  0  0  0  0  3  0  0  0  0  0  0
  1 11  1  0  0  0  0
  2  8  1  0  0  0  0
  3 10  2  0  0  0  0
  4 24  1  6  0  0  0
  4 13  1  0  0  0  0
  5  9  1  0  0  0  0
  6  5  1  0  0  0  0
  7 15  2  0  0  0  0
  8  3  1  0  0  0  0
  8  1  2  0  0  0  0
  9  1  1  0  0  0  0
 10 14  1  0  0  0  0
 10 16  1  0  0  0  0
 11 16  2  0  0  0  0
 12  6  1  0  0  0  0
 12  2  1  0  0  0  0
 13 14  2  0  0  0  0
 14 19  1  0  0  0  0
 15  4  1  0  0  0  0
 15  3  1  0  0  0  0
 17 18  1  0  0  0  0
 17 23  1  0  0  0  0
 19 22  2  0  0  0  0
 19 21  1  0  0  0  0
 20 18  2  0  0  0  0
 21 17  2  0  0  0  0
 22 20  1  0  0  0  0
 24 25  1  0  0  0  0
 25 26  1  0  0  0  0
 27 26  1  0  0  0  0
 27 29  1  0  0  0  0
 28 30  2  0  0  0  0
 29 33  1  0  0  0  0
 30 29  1  0  0  0  0
 30 34  1  0  0  0  0
 31 32  1  0  0  0  0
 33 32  2  0  0  0  0
 34 31  2  0  0  0  0
M  END
>  <MODEL>
8

>  <REMARK>
 VINA RESULT:      -8.6      1.741      2.575
  Name = 
  6 active torsions:
  status: ('A' for Active; 'I' for Inactive)
    1  A    between atoms: C_3  and  N_13
    2  A    between atoms: C_3  and  C_17
    3  A    between atoms: C_5  and  C_18
    4  A    between atoms: C_12  and  C_28
    5  A    between atoms: C_17  and  N_29
    6  A    between atoms: C_18  and  N_29
                            x       y       z     vdW  Elec       q    Type
                         _______ _______ _______ _____ _____    ______ ____

>  <TORSDO>
F 6

$$$$
=
 OpenBabel11062407563D

 34 38  0  0  1  0  0  0  0  0999 V2000
  160.7480  212.9540  150.0860 C   0  0  0  0  0  0  0  0  0  0  0  0
  162.0230  211.2480  148.8260 O   0  0  0  0  0  0  0  0  0  0  0  0
  161.1440  210.7330  151.0330 C   0  0  0  0  0  0  0  0  0  0  0  0
  161.0530  208.2930  151.8510 C   0  0  1  0  0  3  0  0  0  0  0  0
  160.3720  213.3780  147.6730 C   0  0  0  0  0  2  0  0  0  0  0  0
  161.5290  212.7080  146.9320 C   0  0  0  0  0  2  0  0  0  0  0  0
  162.5280  209.0210  150.0980 O   0  0  0  0  0  0  0  0  0  0  0  0
  161.3180  211.6580  149.9730 C   0  0  0  0  0  0  0  0  0  0  0  0
  160.8170  213.9810  148.9980 C   0  0  0  0  0  2  0  0  0  0  0  0
  160.4490  211.1180  152.2030 C   0  0  0  0  0  0  0  0  0  0  0  0
  160.0480  213.3070  151.2370 C   0  0  0  0  0  3  0  0  0  0  0  0
  162.5920  212.1270  147.8620 C   0  0  0  0  0  2  0  0  0  0  0  0
  160.6230  208.8700  153.1660 C   0  0  0  0  0  3  0  0  0  0  0  0
  160.3020  210.1600  153.3430 C   0  0  0  0  0  0  0  0  0  0  0  0
  161.6560  209.3430  150.9520 C   0  0  0  0  0  0  0  0  0  0  0  0
  159.9030  212.4020  152.2820 C   0  0  0  0  0  3  0  0  0  0  0  0
  158.1480  211.3780  156.2280 C   0  0  0  0  0  0  0  0  0  0  0  0
  159.0880  211.4640  157.2570 C   0  0  0  0  0  3  0  0  0  0  0  0
  159.8740  210.5940  154.7000 C   0  0  0  0  0  0  0  0  0  0  0  0
  160.4210  211.1240  157.0140 C   0  0  0  0  0  3  0  0  0  0  0  0
  158.5390  210.9490  154.9580 C   0  0  0  0  0  3  0  0  0  0  0  0
  160.8120  210.6950  155.7420 C   0  0  0  0  0  3  0  0  0  0  0  0
  156.8240  211.7180  156.4680 O   0  0  0  0  0  1  0  0  0  0  0  0
  161.9950  207.1250  152.1080 C   0  0  0  0  0  2  0  0  0  0  0  0
  161.2830  206.0480  152.7710 N   0  0  0  0  0  2  0  0  0  0  0  0
  161.5400  204.8420  152.0050 C   0  0  0  0  0  2  0  0  0  0  0  0
  160.9790  204.9890  150.5980 C   0  0  0  0  0  2  0  0  0  0  0  0
  161.3350  204.7010  147.8660 O   0  0  0  0  0  0  0  0  0  0  0  0
  160.9960  203.7090  149.8980 N   0  0  0  0  0  0  0  0  0  0  0  0
  161.1830  203.6480  148.5430 C   0  0  0  0  0  0  0  0  0  0  0  0
  161.0360  201.2440  148.6350 C   0  0  0  0  0  3  0  0  0  0  0  0
  160.8460  201.3210  150.0140 C   0  0  0  0  0  3  0  0  0  0  0  0
  160.8290  202.5720  150.6320 C   0  0  0  0  0  3  0  0  0  0  0  0
  161.2060  202.4120  147.8930 C   0  0  0  0  0  3  0  0  0  0  0  0
  1 11  1  0  0  0  0
  2  8  1  0  0  0  0
  3 10  2  0  0  0  0
  4 24  1  1  0  0  0
  4 13  1  0  0  0  0
  5  9  1  0  0  0  0
  6  5  1  0  0  0  0
  6 12  1  0  0  0  0
  7 15  2  0  0  0  0
  8  1  2  0  0  0  0
  8  3  1  0  0  0  0
  9  1  1  0  0  0  0
 10 16  1  0  0  0  0
 10 14  1  0  0  0  0
 11 16  2  0  0  0  0
 12  2  1  0  0  0  0
 13 14  2  0  0  0  0
 14 19  1  0  0  0  0
 15  3  1  0  0  0  0
 15  4  1  0  0  0  0
 17 23  1  0  0  0  0
 17 18  1  0  0  0  0
 19 21  1  0  0  0  0
 19 22  2  0  0  0  0
 20 18  2  0  0  0  0
 21 17  2  0  0  0  0
 22 20  1  0  0  0  0
 24 25  1  0  0  0  0
 26 25  1  0  0  0  0
 27 26  1  0  0  0  0
 28 30  2  0  0  0  0
 29 27  1  0  0  0  0
 29 33  1  0  0  0  0
 30 29  1  0  0  0  0
 31 32  1  0  0  0  0
 32 33  2  0  0  0  0
 34 30  1  0  0  0  0
 34 31  2  0  0  0  0
M  END
>  <MODEL>
9

>  <REMARK>
 VINA RESULT:      -8.5      2.619      7.991
  Name = 
  6 active torsions:
  status: ('A' for Active; 'I' for Inactive)
    1  A    between atoms: C_3  and  N_13
    2  A    between atoms: C_3  and  C_17
    3  A    between atoms: C_5  and  C_18
    4  A    between atoms: C_12  and  C_28
    5  A    between atoms: C_17  and  N_29
    6  A    between atoms: C_18  and  N_29
                            x       y       z     vdW  Elec       q    Type
                         _______ _______ _______ _____ _____    ______ ____

>  <TORSDO>
F 6

$$$$
