=
 OpenBabel11062409073D

 37 40  0  0  1  0  0  0  0  0999 V2000
  161.2380  206.8860  152.4230 C   0  0  1  0  0  0  0  0  0  0  0  0
  160.5040  207.3430  155.7850 S   0  0  0  0  0  0  0  0  0  0  0  0
  159.0160  210.6600  154.0940 C   0  0  0  0  0  3  0  0  0  0  0  0
  161.0260  206.0710  151.1170 C   0  0  1  0  0  3  0  0  0  0  0  0
  162.0810  210.4250  149.4950 C   0  0  0  0  0  2  0  0  0  0  0  0
  161.3640  209.8540  155.9090 C   0  0  0  0  0  3  0  0  0  0  0  0
  160.4390  208.7130  149.8470 O   0  0  0  0  0  1  0  0  0  0  0  0
  162.6720  207.5590  148.5590 O   0  0  0  0  0  1  0  0  0  0  0  0
  159.1280  209.5680  154.8510 C   0  0  0  0  0  3  0  0  0  0  0  0
  161.0620  212.3600  150.7240 C   0  0  0  0  0  2  0  0  0  0  0  0
  161.4380  211.3250  155.8220 C   0  0  0  0  0  3  0  0  0  0  0  0
  162.3030  205.8690  150.2870 C   0  0  2  0  0  3  0  0  0  0  0  0
  161.5200  205.9550  153.6140 C   0  0  0  0  0  2  0  0  0  0  0  0
  159.2440  206.6400  155.3610 O   0  0  0  0  0  0  0  0  0  0  0  0
  159.7070  212.6280  152.7860 C   0  0  0  0  0  2  0  0  0  0  0  0
  160.8860  212.0710  154.8650 C   0  0  0  0  0  3  0  0  0  0  0  0
  161.9100  206.6660  154.9130 C   0  0  0  0  0  2  0  0  0  0  0  0
  162.9430  207.2170  149.8880 C   0  0  2  0  0  3  0  0  0  0  0  0
  161.5290  209.3630  150.4340 C   0  0  1  0  0  3  0  0  0  0  0  0
  160.1830  211.4970  153.6820 C   0  0  1  0  0  3  0  0  0  0  0  0
  162.4060  207.8840  152.2850 C   0  0  0  0  0  2  0  0  0  0  0  0
  160.3800  209.0640  155.4540 C   0  0  0  0  0  0  0  0  0  0  0  0
  161.1330  211.6150  149.3980 C   0  0  1  0  0  3  0  0  0  0  0  0
  160.6960  207.1390  157.2610 O   0  0  0  0  0  0  0  0  0  0  0  0
  162.6310  208.3840  150.8580 C   0  0  1  0  0  3  0  0  0  0  0  0
  162.0530  205.0840  149.1580 O   0  0  0  0  0  1  0  0  0  0  0  0
  160.0660  207.6010  152.6670 O   0  0  0  0  0  1  0  0  0  0  0  0
  159.6850  212.1800  151.3360 C   0  0  0  0  0  2  0  0  0  0  0  0
  162.4220  213.6090  148.5270 C   0  0  0  0  0  3  0  0  0  0  0  0
  161.5480  212.5350  148.2940 C   0  0  0  0  0  0  0  0  0  0  0  0
  161.0510  212.3170  147.0040 C   0  0  0  0  0  3  0  0  0  0  0  0
  160.9390  212.9470  144.7080 F   0  0  0  0  0  0  0  0  0  0  0  0
  162.2940  214.2310  146.1910 C   0  0  0  0  0  3  0  0  0  0  0  0
  161.4230  213.1620  145.9540 C   0  0  0  0  0  0  0  0  0  0  0  0
  162.7930  214.4530  147.4770 C   0  0  0  0  0  3  0  0  0  0  0  0
  160.9000  203.5570  151.5000 C   0  0  0  0  0  1  0  0  0  0  0  0
  160.1190  204.8360  151.2400 C   0  0  0  0  0  2  0  0  0  0  0  0
  1 27  1  1  0  0  0
  1 13  1  0  0  0  0
  2 24  2  0  0  0  0
  3  9  2  0  0  0  0
  4 37  1  1  0  0  0
  4  1  1  0  0  0  0
  5 19  1  0  0  0  0
  9 22  1  0  0  0  0
 10 28  1  0  0  0  0
 11  6  1  0  0  0  0
 12 26  1  6  0  0  0
 12  4  1  0  0  0  0
 13 17  1  0  0  0  0
 14  2  2  0  0  0  0
 16 11  2  0  0  0  0
 17  2  1  0  0  0  0
 18  8  1  6  0  0  0
 18 12  1  0  0  0  0
 18 25  1  0  0  0  0
 19  7  1  6  0  0  0
 19 25  1  0  0  0  0
 20 15  1  6  0  0  0
 20  3  1  0  0  0  0
 20 16  1  0  0  0  0
 21  1  1  0  0  0  0
 22  2  1  0  0  0  0
 22  6  2  0  0  0  0
 23 30  1  6  0  0  0
 23  5  1  0  0  0  0
 23 10  1  0  0  0  0
 25 21  1  1  0  0  0
 28 15  1  0  0  0  0
 30 29  1  0  0  0  0
 31 30  2  0  0  0  0
 32 34  1  0  0  0  0
 33 35  1  0  0  0  0
 34 33  2  0  0  0  0
 34 31  1  0  0  0  0
 35 29  2  0  0  0  0
 37 36  1  0  0  0  0
M  END
>  <MODEL>
1

>  <REMARK>
 VINA RESULT:      -0.1      0.000      0.000
  Name = 
  2 active torsions:
  status: ('A' for Active; 'I' for Inactive)
    1  A    between atoms: C_5  and  C_23
    2  A    between atoms: C_6  and  C_31
                            x       y       z     vdW  Elec       q    Type
                         _______ _______ _______ _____ _____    ______ ____

>  <TORSDO>
F 2

$$$$
