=
 OpenBabel11052422023D

 30 32  0  0  1  0  0  0  0  0999 V2000
  162.4250  205.8330  151.6010 C   0  0  0  0  0  0  0  0  0  0  0  0
  160.4240  203.1470  148.8340 C   0  0  0  0  0  2  0  0  0  0  0  0
  161.5090  204.2010  148.7570 C   0  0  2  0  0  0  0  0  0  0  0  0
  161.4890  204.7660  151.6900 N   0  0  0  0  0  0  0  0  0  0  0  0
  163.4370  205.8500  152.3490 O   0  0  0  0  0  0  0  0  0  0  0  0
  161.5900  203.1070  149.8310 C   0  0  1  0  0  3  0  0  0  0  0  0
  161.1320  203.3730  151.2950 C   0  0  2  0  0  3  0  0  0  0  0  0
  162.2420  206.8880  150.5530 C   0  0  1  0  0  3  0  0  0  0  0  0
  161.1040  205.5670  149.1210 N   0  0  0  0  0  0  0  0  0  0  0  0
  162.3830  204.0510  147.6780 O   0  0  0  0  0  1  0  0  0  0  0  0
  160.0960  204.2650  151.4890 C   0  0  0  0  0  2  0  0  0  0  0  0
  162.2270  206.3370  149.2460 O   0  0  0  0  0  0  0  0  0  0  0  0
  161.0530  207.8180  150.8350 C   0  0  1  0  0  3  0  0  0  0  0  0
  160.5340  207.5640  152.1090 O   0  0  0  0  0  1  0  0  0  0  0  0
  161.4620  209.2890  150.6970 C   0  0  1  0  0  3  0  0  0  0  0  0
  162.4360  209.7320  151.7890 C   0  0  0  0  0  2  0  0  0  0  0  0
  161.5940  210.3650  153.2770 S   0  0  0  0  0  0  0  0  0  0  0  0
  159.0250  211.1940  152.9350 C   0  0  0  0  0  1  0  0  0  0  0  0
  160.3870  211.2820  152.2810 C   0  0  0  0  0  2  0  0  0  0  0  0
  161.9320  209.6540  149.2920 C   0  0  0  0  0  2  0  0  0  0  0  0
  162.4000  211.0300  149.2690 N   0  0  0  0  0  2  0  0  0  0  0  0
  160.9000  211.6110  147.4280 O   0  0  0  0  0  0  0  0  0  0  0  0
  162.3080  213.1620  148.3550 O   0  0  0  0  0  1  0  0  0  0  0  0
  161.8790  211.9800  148.3430 C   0  0  0  0  0  0  0  0  0  0  0  0
  160.2360  206.1350  148.0800 C   0  0  0  0  0  2  0  0  0  0  0  0
  161.0060  206.6250  146.8570 C   0  0  0  0  0  2  0  0  0  0  0  0
  160.2500  206.2430  145.5980 C   0  0  0  0  0  2  0  0  0  0  0  0
  161.1270  205.4390  144.6490 C   0  0  2  0  0  3  0  0  0  0  0  0
  160.8480  204.0770  144.7640 O   0  0  0  0  0  1  0  0  0  0  0  0
  162.4650  205.6700  144.9110 F   0  0  0  0  0  0  0  0  0  0  0  0
  1  4  1  0  0  0  0
  1  5  2  0  0  0  0
  3 10  1  6  0  0  0
  3  2  1  0  0  0  0
  3  9  1  0  0  0  0
  3  6  1  0  0  0  0
  6  2  1  6  0  0  0
  6  7  1  0  0  0  0
  7 11  1  6  0  0  0
  7  4  1  0  0  0  0
  8 13  1  1  0  0  0
  8  1  1  0  0  0  0
  9 12  1  0  0  0  0
 11  4  1  0  0  0  0
 12  8  1  0  0  0  0
 13 14  1  1  0  0  0
 15 20  1  6  0  0  0
 15 13  1  0  0  0  0
 15 16  1  0  0  0  0
 16 17  1  0  0  0  0
 19 18  1  0  0  0  0
 19 17  1  0  0  0  0
 21 20  1  0  0  0  0
 22 24  2  0  0  0  0
 24 23  1  0  0  0  0
 24 21  1  0  0  0  0
 25  9  1  0  0  0  0
 26 25  1  0  0  0  0
 27 26  1  0  0  0  0
 28 29  1  1  0  0  0
 28 30  1  0  0  0  0
 28 27  1  0  0  0  0
M  END
>  <MODEL>
1

>  <REMARK>
 VINA RESULT:      -5.7      0.000      0.000
  Name = 
  11 active torsions:
  status: ('A' for Active; 'I' for Inactive)
    1  A    between atoms: C_1  and  C_4
    2  A    between atoms: C_1  and  C_22
    3  A    between atoms: C_4  and  C_9
    4  A    between atoms: C_4  and  C_12
    5  A    between atoms: C_7  and  N_23
    6  A    between atoms: C_7  and  C_25
    7  A    between atoms: N_8  and  C_12
    8  A    between atoms: C_9  and  S_21
    9  A    between atoms: C_10  and  C_15
   10  A    between atoms: C_15  and  C_25
   11  A    between atoms: C_17  and  S_21
                            x       y       z     vdW  Elec       q    Type
                         _______ _______ _______ _____ _____    ______ ____

>  <TORSDO>
F 11

$$$$
=
 OpenBabel11052422023D

 30 32  0  0  1  0  0  0  0  0999 V2000
  160.7780  205.8390  146.6750 C   0  0  0  0  0  0  0  0  0  0  0  0
  161.7120  201.9800  148.4400 C   0  0  0  0  0  2  0  0  0  0  0  0
  160.6830  203.0710  148.6550 C   0  0  2  0  0  0  0  0  0  0  0  0
  161.6690  204.7660  146.4020 N   0  0  0  0  0  0  0  0  0  0  0  0
  160.0650  206.3190  145.7550 O   0  0  0  0  0  0  0  0  0  0  0  0
  160.9330  202.5350  147.2390 C   0  0  1  0  0  3  0  0  0  0  0  0
  161.8490  203.2950  146.2340 C   0  0  2  0  0  3  0  0  0  0  0  0
  160.6300  206.3340  148.0820 C   0  0  1  0  0  3  0  0  0  0  0  0
  161.2110  204.3840  149.0540 N   0  0  0  0  0  0  0  0  0  0  0  0
  159.5010  202.6380  149.2620 O   0  0  0  0  0  1  0  0  0  0  0  0
  162.9100  204.0110  146.7520 C   0  0  0  0  0  2  0  0  0  0  0  0
  160.2060  205.3060  148.9620 O   0  0  0  0  0  0  0  0  0  0  0  0
  161.8650  207.0970  148.5840 C   0  0  1  0  0  3  0  0  0  0  0  0
  162.7480  207.3360  147.5260 O   0  0  0  0  0  1  0  0  0  0  0  0
  161.4600  208.4100  149.2650 C   0  0  1  0  0  3  0  0  0  0  0  0
  161.3950  208.2850  150.7870 C   0  0  0  0  0  2  0  0  0  0  0  0
  162.1040  209.7260  151.6490 S   0  0  0  0  0  0  0  0  0  0  0  0
  160.8450  210.4050  153.9630 C   0  0  0  0  0  1  0  0  0  0  0  0
  160.5480  210.0480  152.5220 C   0  0  0  0  0  2  0  0  0  0  0  0
  162.2810  209.6080  148.7990 C   0  0  0  0  0  2  0  0  0  0  0  0
  161.4030  210.6250  148.2450 N   0  0  0  0  0  2  0  0  0  0  0  0
  163.1890  212.2950  148.2250 O   0  0  0  0  0  1  0  0  0  0  0  0
  161.0790  212.7950  147.4890 O   0  0  0  0  0  0  0  0  0  0  0  0
  161.8690  211.9430  147.9690 C   0  0  0  0  0  0  0  0  0  0  0  0
  161.7040  204.3350  150.4380 C   0  0  0  0  0  2  0  0  0  0  0  0
  160.7210  204.9200  151.4470 C   0  0  0  0  0  2  0  0  0  0  0  0
  161.1670  204.5630  152.8530 C   0  0  0  0  0  2  0  0  0  0  0  0
  161.6700  205.7890  153.6020 C   0  0  2  0  0  3  0  0  0  0  0  0
  160.6300  206.6960  153.8030 O   0  0  0  0  0  1  0  0  0  0  0  0
  162.6970  206.3970  152.9030 F   0  0  0  0  0  0  0  0  0  0  0  0
  1  8  1  0  0  0  0
  2  3  1  0  0  0  0
  3  9  1  0  0  0  0
  3 10  1  1  0  0  0
  4  1  1  0  0  0  0
  4 11  1  0  0  0  0
  5  1  2  0  0  0  0
  6  2  1  1  0  0  0
  6  3  1  0  0  0  0
  7  4  1  0  0  0  0
  7 11  1  1  0  0  0
  7  6  1  0  0  0  0
  8 13  1  1  0  0  0
  8 12  1  0  0  0  0
  9 25  1  0  0  0  0
 12  9  1  0  0  0  0
 13 14  1  6  0  0  0
 13 15  1  0  0  0  0
 15 20  1  1  0  0  0
 15 16  1  0  0  0  0
 16 17  1  0  0  0  0
 17 19  1  0  0  0  0
 19 18  1  0  0  0  0
 21 20  1  0  0  0  0
 23 24  2  0  0  0  0
 24 22  1  0  0  0  0
 24 21  1  0  0  0  0
 25 26  1  0  0  0  0
 26 27  1  0  0  0  0
 27 28  1  0  0  0  0
 28 30  1  6  0  0  0
 28 29  1  0  0  0  0
M  END
>  <MODEL>
2

>  <REMARK>
 VINA RESULT:      -5.5      2.296      4.447
  Name = 
  11 active torsions:
  status: ('A' for Active; 'I' for Inactive)
    1  A    between atoms: C_1  and  C_4
    2  A    between atoms: C_1  and  C_22
    3  A    between atoms: C_4  and  C_9
    4  A    between atoms: C_4  and  C_12
    5  A    between atoms: C_7  and  N_23
    6  A    between atoms: C_7  and  C_25
    7  A    between atoms: N_8  and  C_12
    8  A    between atoms: C_9  and  S_21
    9  A    between atoms: C_10  and  C_15
   10  A    between atoms: C_15  and  C_25
   11  A    between atoms: C_17  and  S_21
                            x       y       z     vdW  Elec       q    Type
                         _______ _______ _______ _____ _____    ______ ____

>  <TORSDO>
F 11

$$$$
=
 OpenBabel11052422023D

 30 32  0  0  1  0  0  0  0  0999 V2000
  161.0110  208.6860  153.6480 C   0  0  0  0  0  0  0  0  0  0  0  0
  159.6370  212.3400  155.5540 C   0  0  0  0  0  2  0  0  0  0  0  0
  159.1300  211.3980  154.4820 C   0  0  2  0  0  0  0  0  0  0  0  0
  161.4290  209.5070  154.7300 N   0  0  0  0  0  0  0  0  0  0  0  0
  160.9200  207.4390  153.7980 O   0  0  0  0  0  0  0  0  0  0  0  0
  159.6170  210.8290  155.8210 C   0  0  1  0  0  3  0  0  0  0  0  0
  161.0460  210.2320  155.9770 C   0  0  2  0  0  3  0  0  0  0  0  0
  160.5990  209.3240  152.3560 C   0  0  1  0  0  3  0  0  0  0  0  0
  159.9680  211.2830  153.2790 N   0  0  0  0  0  0  0  0  0  0  0  0
  157.7440  211.4180  154.3040 O   0  0  0  0  0  1  0  0  0  0  0  0
  162.0540  210.7770  155.2070 C   0  0  0  0  0  2  0  0  0  0  0  0
  159.5210  210.2280  152.5330 O   0  0  0  0  0  0  0  0  0  0  0  0
  161.7780  209.9260  151.5780 C   0  0  1  0  0  3  0  0  0  0  0  0
  162.9080  210.0040  152.3980 O   0  0  0  0  0  1  0  0  0  0  0  0
  162.0770  209.1110  150.3140 C   0  0  1  0  0  3  0  0  0  0  0  0
  161.2800  207.8080  150.2560 C   0  0  0  0  0  2  0  0  0  0  0  0
  161.2240  207.0840  148.5840 S   0  0  0  0  0  0  0  0  0  0  0  0
  160.8720  205.4840  150.7570 C   0  0  0  0  0  1  0  0  0  0  0  0
  160.9340  205.4210  149.2450 C   0  0  0  0  0  2  0  0  0  0  0  0
  161.9780  209.9300  149.0310 C   0  0  0  0  0  2  0  0  0  0  0  0
  162.0530  211.3470  149.3420 N   0  0  0  0  0  2  0  0  0  0  0  0
  160.8510  211.9580  147.3020 O   0  0  0  0  0  0  0  0  0  0  0  0
  161.5760  213.5490  148.7810 O   0  0  0  0  0  1  0  0  0  0  0  0
  161.4910  212.3320  148.4770 C   0  0  0  0  0  0  0  0  0  0  0  0
  159.8870  212.5140  152.4810 C   0  0  0  0  0  2  0  0  0  0  0  0
  158.8070  212.4620  151.4050 C   0  0  0  0  0  2  0  0  0  0  0  0
  158.6200  213.8460  150.8090 C   0  0  0  0  0  2  0  0  0  0  0  0
  157.2020  214.0390  150.2930 C   0  0  2  0  0  3  0  0  0  0  0  0
  156.3090  214.1660  151.3570 O   0  0  0  0  0  1  0  0  0  0  0  0
  156.8290  212.9760  149.4900 F   0  0  0  0  0  0  0  0  0  0  0  0
  1  5  2  0  0  0  0
  1  4  1  0  0  0  0
  3 10  1  6  0  0  0
  3  2  1  0  0  0  0
  3  6  1  0  0  0  0
  4 11  1  0  0  0  0
  4  7  1  0  0  0  0
  6  2  1  1  0  0  0
  6  7  1  0  0  0  0
  7 11  1  6  0  0  0
  8 13  1  1  0  0  0
  8 12  1  0  0  0  0
  8  1  1  0  0  0  0
  9  3  1  0  0  0  0
 12  9  1  0  0  0  0
 13 14  1  1  0  0  0
 15 20  1  6  0  0  0
 15 13  1  0  0  0  0
 16 15  1  0  0  0  0
 17 19  1  0  0  0  0
 17 16  1  0  0  0  0
 19 18  1  0  0  0  0
 20 21  1  0  0  0  0
 22 24  2  0  0  0  0
 24 23  1  0  0  0  0
 24 21  1  0  0  0  0
 25  9  1  0  0  0  0
 26 25  1  0  0  0  0
 27 26  1  0  0  0  0
 28 30  1  1  0  0  0
 28 27  1  0  0  0  0
 28 29  1  0  0  0  0
M  END
>  <MODEL>
3

>  <REMARK>
 VINA RESULT:      -5.2      3.835      6.993
  Name = 
  11 active torsions:
  status: ('A' for Active; 'I' for Inactive)
    1  A    between atoms: C_1  and  C_4
    2  A    between atoms: C_1  and  C_22
    3  A    between atoms: C_4  and  C_9
    4  A    between atoms: C_4  and  C_12
    5  A    between atoms: C_7  and  N_23
    6  A    between atoms: C_7  and  C_25
    7  A    between atoms: N_8  and  C_12
    8  A    between atoms: C_9  and  S_21
    9  A    between atoms: C_10  and  C_15
   10  A    between atoms: C_15  and  C_25
   11  A    between atoms: C_17  and  S_21
                            x       y       z     vdW  Elec       q    Type
                         _______ _______ _______ _____ _____    ______ ____

>  <TORSDO>
F 11

$$$$
=
 OpenBabel11052422023D

 30 32  0  0  1  0  0  0  0  0999 V2000
  162.4940  205.8390  151.5990 C   0  0  0  0  0  0  0  0  0  0  0  0
  160.1680  203.1400  149.1110 C   0  0  0  0  0  2  0  0  0  0  0  0
  161.3470  204.0730  148.9240 C   0  0  2  0  0  0  0  0  0  0  0  0
  161.4630  204.8810  151.7970 N   0  0  0  0  0  0  0  0  0  0  0  0
  163.5230  205.8200  152.3230 O   0  0  0  0  0  0  0  0  0  0  0  0
  161.3520  203.0700  150.0850 C   0  0  1  0  0  3  0  0  0  0  0  0
  160.9620  203.5010  151.5300 C   0  0  2  0  0  3  0  0  0  0  0  0
  162.3840  206.8150  150.4670 C   0  0  1  0  0  3  0  0  0  0  0  0
  161.0860  205.4980  149.1760 N   0  0  0  0  0  0  0  0  0  0  0  0
  162.1730  203.7480  147.8440 O   0  0  0  0  0  1  0  0  0  0  0  0
  160.0230  204.5040  151.6670 C   0  0  0  0  0  2  0  0  0  0  0  0
  162.2810  206.1610  149.2120 O   0  0  0  0  0  0  0  0  0  0  0  0
  161.2990  207.8780  150.6910 C   0  0  1  0  0  3  0  0  0  0  0  0
  160.7140  207.7130  151.9500 O   0  0  0  0  0  1  0  0  0  0  0  0
  161.8740  209.2920  150.5390 C   0  0  1  0  0  3  0  0  0  0  0  0
  161.8650  209.7750  149.0880 C   0  0  0  0  0  2  0  0  0  0  0  0
  162.2210  211.5550  148.9310 S   0  0  0  0  0  0  0  0  0  0  0  0
  160.3320  213.0740  147.6960 C   0  0  0  0  0  1  0  0  0  0  0  0
  161.0320  211.7370  147.5740 C   0  0  0  0  0  2  0  0  0  0  0  0
  161.2620  210.2990  151.5070 C   0  0  0  0  0  2  0  0  0  0  0  0
  162.0910  210.4080  152.6960 N   0  0  0  0  0  2  0  0  0  0  0  0
  160.1390  210.4700  154.1690 O   0  0  0  0  0  0  0  0  0  0  0  0
  162.2690  210.5830  155.0040 O   0  0  0  0  0  1  0  0  0  0  0  0
  161.5180  210.4910  154.0000 C   0  0  0  0  0  0  0  0  0  0  0  0
  160.2480  206.0590  148.1070 C   0  0  0  0  0  2  0  0  0  0  0  0
  161.0580  206.6410  146.9520 C   0  0  0  0  0  2  0  0  0  0  0  0
  160.4070  206.2590  145.6350 C   0  0  0  0  0  2  0  0  0  0  0  0
  161.3320  205.3960  144.7900 C   0  0  2  0  0  3  0  0  0  0  0  0
  160.9190  204.0640  144.8210 O   0  0  0  0  0  1  0  0  0  0  0  0
  162.6350  205.4950  145.2420 F   0  0  0  0  0  0  0  0  0  0  0  0
  1  4  1  0  0  0  0
  1  5  2  0  0  0  0
  3 10  1  6  0  0  0
  3  2  1  0  0  0  0
  3  9  1  0  0  0  0
  3  6  1  0  0  0  0
  6  2  1  6  0  0  0
  6  7  1  0  0  0  0
  7 11  1  6  0  0  0
  7  4  1  0  0  0  0
  8 13  1  1  0  0  0
  8  1  1  0  0  0  0
  9 12  1  0  0  0  0
 11  4  1  0  0  0  0
 12  8  1  0  0  0  0
 13 14  1  1  0  0  0
 15 16  1  6  0  0  0
 15 13  1  0  0  0  0
 15 20  1  0  0  0  0
 17 16  1  0  0  0  0
 19 18  1  0  0  0  0
 19 17  1  0  0  0  0
 20 21  1  0  0  0  0
 21 24  1  0  0  0  0
 24 22  2  0  0  0  0
 24 23  1  0  0  0  0
 25  9  1  0  0  0  0
 26 25  1  0  0  0  0
 27 26  1  0  0  0  0
 28 29  1  1  0  0  0
 28 30  1  0  0  0  0
 28 27  1  0  0  0  0
M  END
>  <MODEL>
4

>  <REMARK>
 VINA RESULT:      -5.2      2.063      2.803
  Name = 
  11 active torsions:
  status: ('A' for Active; 'I' for Inactive)
    1  A    between atoms: C_1  and  C_4
    2  A    between atoms: C_1  and  C_22
    3  A    between atoms: C_4  and  C_9
    4  A    between atoms: C_4  and  C_12
    5  A    between atoms: C_7  and  N_23
    6  A    between atoms: C_7  and  C_25
    7  A    between atoms: N_8  and  C_12
    8  A    between atoms: C_9  and  S_21
    9  A    between atoms: C_10  and  C_15
   10  A    between atoms: C_15  and  C_25
   11  A    between atoms: C_17  and  S_21
                            x       y       z     vdW  Elec       q    Type
                         _______ _______ _______ _____ _____    ______ ____

>  <TORSDO>
F 11

$$$$
=
 OpenBabel11052422023D

 30 32  0  0  1  0  0  0  0  0999 V2000
  160.7270  206.0630  147.6510 C   0  0  0  0  0  0  0  0  0  0  0  0
  161.5080  202.2730  149.6270 C   0  0  0  0  0  2  0  0  0  0  0  0
  160.6510  203.4950  149.8850 C   0  0  2  0  0  0  0  0  0  0  0  0
  161.4410  204.8710  147.3540 N   0  0  0  0  0  0  0  0  0  0  0  0
  159.9320  206.5510  146.8050 O   0  0  0  0  0  0  0  0  0  0  0  0
  160.6120  202.8200  148.5080 C   0  0  1  0  0  3  0  0  0  0  0  0
  161.4320  203.3790  147.3080 C   0  0  2  0  0  3  0  0  0  0  0  0
  160.8610  206.6840  149.0080 C   0  0  1  0  0  3  0  0  0  0  0  0
  161.3750  204.7610  150.0700 N   0  0  0  0  0  0  0  0  0  0  0  0
  159.5420  203.2600  150.7020 O   0  0  0  0  0  1  0  0  0  0  0  0
  162.6330  204.0000  147.5880 C   0  0  0  0  0  2  0  0  0  0  0  0
  160.4740  205.7900  150.0390 O   0  0  0  0  0  0  0  0  0  0  0  0
  162.2350  207.3280  149.2430 C   0  0  1  0  0  3  0  0  0  0  0  0
  162.9850  207.3080  148.0630 O   0  0  0  0  0  1  0  0  0  0  0  0
  162.0880  208.7600  149.7710 C   0  0  1  0  0  3  0  0  0  0  0  0
  161.8160  209.7700  148.6560 C   0  0  0  0  0  2  0  0  0  0  0  0
  162.0600  211.4960  149.1880 S   0  0  0  0  0  0  0  0  0  0  0  0
  162.3860  212.9120  146.8870 C   0  0  0  0  0  1  0  0  0  0  0  0
  161.3360  212.1370  147.6540 C   0  0  0  0  0  2  0  0  0  0  0  0
  161.1080  208.8750  150.9340 C   0  0  0  0  0  2  0  0  0  0  0  0
  161.7390  209.5680  152.0450 N   0  0  0  0  0  2  0  0  0  0  0  0
  159.6310  210.6080  152.7200 O   0  0  0  0  0  0  0  0  0  0  0  0
  161.5750  210.9990  153.8660 O   0  0  0  0  0  1  0  0  0  0  0  0
  160.9940  210.4180  152.9150 C   0  0  0  0  0  0  0  0  0  0  0  0
  162.0750  204.7640  151.3630 C   0  0  0  0  0  2  0  0  0  0  0  0
  161.1800  205.1740  152.5290 C   0  0  0  0  0  2  0  0  0  0  0  0
  161.8820  206.2380  153.3540 C   0  0  0  0  0  2  0  0  0  0  0  0
  160.8930  207.0200  154.2040 C   0  0  2  0  0  3  0  0  0  0  0  0
  161.5660  207.7660  155.1720 O   0  0  0  0  0  1  0  0  0  0  0  0
  159.9920  206.1650  154.8120 F   0  0  0  0  0  0  0  0  0  0  0  0
  1  8  1  0  0  0  0
  2  3  1  0  0  0  0
  3  9  1  0  0  0  0
  3 10  1  1  0  0  0
  4 11  1  0  0  0  0
  4  1  1  0  0  0  0
  5  1  2  0  0  0  0
  6  2  1  1  0  0  0
  6  3  1  0  0  0  0
  7  4  1  0  0  0  0
  7 11  1  1  0  0  0
  7  6  1  0  0  0  0
  8 13  1  1  0  0  0
  8 12  1  0  0  0  0
  9 25  1  0  0  0  0
 12  9  1  0  0  0  0
 13 14  1  6  0  0  0
 13 15  1  0  0  0  0
 15 16  1  6  0  0  0
 15 20  1  0  0  0  0
 16 17  1  0  0  0  0
 18 19  1  0  0  0  0
 19 17  1  0  0  0  0
 20 21  1  0  0  0  0
 21 24  1  0  0  0  0
 22 24  2  0  0  0  0
 24 23  1  0  0  0  0
 25 26  1  0  0  0  0
 26 27  1  0  0  0  0
 27 28  1  0  0  0  0
 28 30  1  1  0  0  0
 28 29  1  0  0  0  0
M  END
>  <MODEL>
5

>  <REMARK>
 VINA RESULT:      -5.2      3.051      5.238
  Name = 
  11 active torsions:
  status: ('A' for Active; 'I' for Inactive)
    1  A    between atoms: C_1  and  C_4
    2  A    between atoms: C_1  and  C_22
    3  A    between atoms: C_4  and  C_9
    4  A    between atoms: C_4  and  C_12
    5  A    between atoms: C_7  and  N_23
    6  A    between atoms: C_7  and  C_25
    7  A    between atoms: N_8  and  C_12
    8  A    between atoms: C_9  and  S_21
    9  A    between atoms: C_10  and  C_15
   10  A    between atoms: C_15  and  C_25
   11  A    between atoms: C_17  and  S_21
                            x       y       z     vdW  Elec       q    Type
                         _______ _______ _______ _____ _____    ______ ____

>  <TORSDO>
F 11

$$$$
=
 OpenBabel11052422023D

 30 32  0  0  1  0  0  0  0  0999 V2000
  161.7930  202.7790  151.2200 C   0  0  0  0  0  0  0  0  0  0  0  0
  160.3760  202.6000  147.1170 C   0  0  0  0  0  2  0  0  0  0  0  0
  161.4850  203.3040  147.8700 C   0  0  2  0  0  0  0  0  0  0  0  0
  160.8260  202.0340  150.4920 N   0  0  0  0  0  0  0  0  0  0  0  0
  162.6110  202.1880  151.9720 O   0  0  0  0  0  0  0  0  0  0  0  0
  161.2860  201.7930  148.0530 C   0  0  1  0  0  3  0  0  0  0  0  0
  160.5200  201.2190  149.2810 C   0  0  2  0  0  3  0  0  0  0  0  0
  161.8870  204.2610  151.0170 C   0  0  1  0  0  3  0  0  0  0  0  0
  161.0570  204.2400  148.9200 N   0  0  0  0  0  0  0  0  0  0  0  0
  162.5750  203.6750  147.0780 O   0  0  0  0  0  1  0  0  0  0  0  0
  159.4980  201.9810  149.8100 C   0  0  0  0  0  2  0  0  0  0  0  0
  162.1480  204.5940  149.6630 O   0  0  0  0  0  0  0  0  0  0  0  0
  160.6980  205.0270  151.6140 C   0  0  1  0  0  3  0  0  0  0  0  0
  160.1300  204.2950  152.6620 O   0  0  0  0  0  1  0  0  0  0  0  0
  161.1250  206.4200  152.0910 C   0  0  1  0  0  3  0  0  0  0  0  0
  161.1750  206.5270  153.6160 C   0  0  0  0  0  2  0  0  0  0  0  0
  160.7500  208.1920  154.2240 S   0  0  0  0  0  0  0  0  0  0  0  0
  159.9640  207.1350  156.6050 C   0  0  0  0  0  1  0  0  0  0  0  0
  161.1740  207.7450  155.9300 C   0  0  0  0  0  2  0  0  0  0  0  0
  162.3950  206.9250  151.4150 C   0  0  0  0  0  2  0  0  0  0  0  0
  162.0540  207.8610  150.3570 N   0  0  0  0  0  2  0  0  0  0  0  0
  162.6250  209.7910  151.7460 O   0  0  0  0  0  1  0  0  0  0  0  0
  161.8710  210.0480  149.5990 O   0  0  0  0  0  0  0  0  0  0  0  0
  162.1740  209.2700  150.5390 C   0  0  0  0  0  0  0  0  0  0  0  0
  160.4650  205.4430  148.3180 C   0  0  0  0  0  2  0  0  0  0  0  0
  161.3390  206.0640  147.2320 C   0  0  0  0  0  2  0  0  0  0  0  0
  160.5090  206.2830  145.9810 C   0  0  0  0  0  2  0  0  0  0  0  0
  161.2640  205.8490  144.7330 C   0  0  2  0  0  3  0  0  0  0  0  0
  160.8550  204.5750  144.3360 O   0  0  0  0  0  1  0  0  0  0  0  0
  162.6270  205.8550  144.9640 F   0  0  0  0  0  0  0  0  0  0  0  0
  1  5  2  0  0  0  0
  2  3  1  0  0  0  0
  3 10  1  6  0  0  0
  3  6  1  0  0  0  0
  3  9  1  0  0  0  0
  4  1  1  0  0  0  0
  6  2  1  6  0  0  0
  6  7  1  0  0  0  0
  7 11  1  6  0  0  0
  7  4  1  0  0  0  0
  8  1  1  0  0  0  0
  8 13  1  6  0  0  0
  9 12  1  0  0  0  0
 11  4  1  0  0  0  0
 12  8  1  0  0  0  0
 13 15  1  0  0  0  0
 13 14  1  1  0  0  0
 15 20  1  6  0  0  0
 15 16  1  0  0  0  0
 16 17  1  0  0  0  0
 17 19  1  0  0  0  0
 19 18  1  0  0  0  0
 21 24  1  0  0  0  0
 21 20  1  0  0  0  0
 23 24  2  0  0  0  0
 24 22  1  0  0  0  0
 25  9  1  0  0  0  0
 26 25  1  0  0  0  0
 27 26  1  0  0  0  0
 28 29  1  1  0  0  0
 28 30  1  0  0  0  0
 28 27  1  0  0  0  0
M  END
>  <MODEL>
6

>  <REMARK>
 VINA RESULT:      -5.0      2.276      2.924
  Name = 
  11 active torsions:
  status: ('A' for Active; 'I' for Inactive)
    1  A    between atoms: C_1  and  C_4
    2  A    between atoms: C_1  and  C_22
    3  A    between atoms: C_4  and  C_9
    4  A    between atoms: C_4  and  C_12
    5  A    between atoms: C_7  and  N_23
    6  A    between atoms: C_7  and  C_25
    7  A    between atoms: N_8  and  C_12
    8  A    between atoms: C_9  and  S_21
    9  A    between atoms: C_10  and  C_15
   10  A    between atoms: C_15  and  C_25
   11  A    between atoms: C_17  and  S_21
                            x       y       z     vdW  Elec       q    Type
                         _______ _______ _______ _____ _____    ______ ____

>  <TORSDO>
F 11

$$$$
=
 OpenBabel11052422023D

 30 32  0  0  1  0  0  0  0  0999 V2000
  160.8920  206.2430  146.6120 C   0  0  0  0  0  0  0  0  0  0  0  0
  161.9480  202.1730  147.7060 C   0  0  0  0  0  2  0  0  0  0  0  0
  160.8830  203.1780  148.0940 C   0  0  2  0  0  0  0  0  0  0  0  0
  161.8190  205.2610  146.1680 N   0  0  0  0  0  0  0  0  0  0  0  0
  160.1660  206.8490  145.7810 O   0  0  0  0  0  0  0  0  0  0  0  0
  161.1540  202.8970  146.6100 C   0  0  1  0  0  3  0  0  0  0  0  0
  162.0470  203.8450  145.7560 C   0  0  2  0  0  3  0  0  0  0  0  0
  160.7250  206.4880  148.0810 C   0  0  1  0  0  3  0  0  0  0  0  0
  161.3670  204.4200  148.7140 N   0  0  0  0  0  0  0  0  0  0  0  0
  159.7150  202.6110  148.6100 O   0  0  0  0  0  1  0  0  0  0  0  0
  163.0830  204.4970  146.3960 C   0  0  0  0  0  2  0  0  0  0  0  0
  160.3330  205.3130  148.7720 O   0  0  0  0  0  0  0  0  0  0  0  0
  161.9330  207.1930  148.7150 C   0  0  1  0  0  3  0  0  0  0  0  0
  162.9810  207.2770  147.7930 O   0  0  0  0  0  1  0  0  0  0  0  0
  161.5480  208.5840  149.2310 C   0  0  1  0  0  3  0  0  0  0  0  0
  162.0190  208.8280  150.6650 C   0  0  0  0  0  2  0  0  0  0  0  0
  162.2950  207.2840  151.5940 S   0  0  0  0  0  0  0  0  0  0  0  0
  160.9930  206.7360  153.9190 C   0  0  0  0  0  1  0  0  0  0  0  0
  160.8970  207.6250  152.6980 C   0  0  0  0  0  2  0  0  0  0  0  0
  161.9330  209.7100  148.2760 C   0  0  0  0  0  2  0  0  0  0  0  0
  161.9650  210.9750  148.9900 N   0  0  0  0  0  2  0  0  0  0  0  0
  161.0690  212.1920  147.0670 O   0  0  0  0  0  0  0  0  0  0  0  0
  161.5740  213.2630  149.0280 O   0  0  0  0  0  1  0  0  0  0  0  0
  161.5340  212.1880  148.3770 C   0  0  0  0  0  0  0  0  0  0  0  0
  161.8580  204.1530  150.0730 C   0  0  0  0  0  2  0  0  0  0  0  0
  160.7530  204.1690  151.1250 C   0  0  0  0  0  2  0  0  0  0  0  0
  160.8520  202.9190  151.9800 C   0  0  0  0  0  2  0  0  0  0  0  0
  161.8070  201.9050  151.3680 C   0  0  2  0  0  3  0  0  0  0  0  0
  161.0980  200.8300  150.8320 O   0  0  0  0  0  1  0  0  0  0  0  0
  162.7050  201.4500  152.3170 F   0  0  0  0  0  0  0  0  0  0  0  0
  1  8  1  0  0  0  0
  2  3  1  0  0  0  0
  3 10  1  1  0  0  0
  3  9  1  0  0  0  0
  4 11  1  0  0  0  0
  4  1  1  0  0  0  0
  5  1  2  0  0  0  0
  6  2  1  1  0  0  0
  6  3  1  0  0  0  0
  7  4  1  0  0  0  0
  7 11  1  1  0  0  0
  7  6  1  0  0  0  0
  8 13  1  1  0  0  0
  8 12  1  0  0  0  0
  9 12  1  0  0  0  0
  9 25  1  0  0  0  0
 13 14  1  6  0  0  0
 13 15  1  0  0  0  0
 15 20  1  6  0  0  0
 15 16  1  0  0  0  0
 16 17  1  0  0  0  0
 17 19  1  0  0  0  0
 19 18  1  0  0  0  0
 20 21  1  0  0  0  0
 22 24  2  0  0  0  0
 24 21  1  0  0  0  0
 24 23  1  0  0  0  0
 25 26  1  0  0  0  0
 26 27  1  0  0  0  0
 28 29  1  1  0  0  0
 28 27  1  0  0  0  0
 28 30  1  0  0  0  0
M  END
>  <MODEL>
7

>  <REMARK>
 VINA RESULT:      -5.0      2.651      4.384
  Name = 
  11 active torsions:
  status: ('A' for Active; 'I' for Inactive)
    1  A    between atoms: C_1  and  C_4
    2  A    between atoms: C_1  and  C_22
    3  A    between atoms: C_4  and  C_9
    4  A    between atoms: C_4  and  C_12
    5  A    between atoms: C_7  and  N_23
    6  A    between atoms: C_7  and  C_25
    7  A    between atoms: N_8  and  C_12
    8  A    between atoms: C_9  and  S_21
    9  A    between atoms: C_10  and  C_15
   10  A    between atoms: C_15  and  C_25
   11  A    between atoms: C_17  and  S_21
                            x       y       z     vdW  Elec       q    Type
                         _______ _______ _______ _____ _____    ______ ____

>  <TORSDO>
F 11

$$$$
=
 OpenBabel11052422023D

 30 32  0  0  1  0  0  0  0  0999 V2000
  161.0260  208.6960  153.5270 C   0  0  0  0  0  0  0  0  0  0  0  0
  159.8900  212.2520  155.7510 C   0  0  0  0  0  2  0  0  0  0  0  0
  159.2650  211.3670  154.6930 C   0  0  2  0  0  0  0  0  0  0  0  0
  161.5630  209.4610  154.5980 N   0  0  0  0  0  0  0  0  0  0  0  0
  160.9420  207.4440  153.6240 O   0  0  0  0  0  0  0  0  0  0  0  0
  159.8880  210.7290  155.9420 C   0  0  1  0  0  3  0  0  0  0  0  0
  161.3220  210.1230  155.9130 C   0  0  2  0  0  3  0  0  0  0  0  0
  160.4820  209.4000  152.3210 C   0  0  1  0  0  3  0  0  0  0  0  0
  159.9680  211.3110  153.4030 N   0  0  0  0  0  0  0  0  0  0  0  0
  157.8680  211.3980  154.6670 O   0  0  0  0  0  1  0  0  0  0  0  0
  162.2450  210.7050  155.0680 C   0  0  0  0  0  2  0  0  0  0  0  0
  159.4360  210.2960  152.6580 O   0  0  0  0  0  0  0  0  0  0  0  0
  161.5750  210.0380  151.4520 C   0  0  1  0  0  3  0  0  0  0  0  0
  162.8150  209.9500  152.0930 O   0  0  0  0  0  1  0  0  0  0  0  0
  161.6300  209.3820  150.0670 C   0  0  1  0  0  3  0  0  0  0  0  0
  162.3040  210.2730  149.0230 C   0  0  0  0  0  2  0  0  0  0  0  0
  161.6430  211.9720  149.0080 S   0  0  0  0  0  0  0  0  0  0  0  0
  162.3420  213.2300  146.6980 C   0  0  0  0  0  1  0  0  0  0  0  0
  162.9590  212.5400  147.8970 C   0  0  0  0  0  2  0  0  0  0  0  0
  162.1920  207.9640  150.0940 C   0  0  0  0  0  2  0  0  0  0  0  0
  162.5240  207.5380  148.7450 N   0  0  0  0  0  2  0  0  0  0  0  0
  160.4300  206.2970  148.5160 O   0  0  0  0  0  1  0  0  0  0  0  0
  161.9650  206.3710  146.8180 O   0  0  0  0  0  0  0  0  0  0  0  0
  161.6420  206.7180  147.9820 C   0  0  0  0  0  0  0  0  0  0  0  0
  159.8100  212.5810  152.6810 C   0  0  0  0  0  2  0  0  0  0  0  0
  158.6870  212.5500  151.6490 C   0  0  0  0  0  2  0  0  0  0  0  0
  157.8270  213.7910  151.8010 C   0  0  0  0  0  2  0  0  0  0  0  0
  157.0340  214.0730  150.5340 C   0  0  2  0  0  3  0  0  0  0  0  0
  155.6820  214.2400  150.8320 O   0  0  0  0  0  1  0  0  0  0  0  0
  157.1920  213.0440  149.6230 F   0  0  0  0  0  0  0  0  0  0  0  0
  1  5  2  0  0  0  0
  1  4  1  0  0  0  0
  3 10  1  6  0  0  0
  3  2  1  0  0  0  0
  3  6  1  0  0  0  0
  4 11  1  0  0  0  0
  4  7  1  0  0  0  0
  6  2  1  1  0  0  0
  7 11  1  6  0  0  0
  7  6  1  0  0  0  0
  8 13  1  1  0  0  0
  8 12  1  0  0  0  0
  8  1  1  0  0  0  0
  9  3  1  0  0  0  0
 12  9  1  0  0  0  0
 13 14  1  1  0  0  0
 15 16  1  6  0  0  0
 15 20  1  0  0  0  0
 15 13  1  0  0  0  0
 17 16  1  0  0  0  0
 18 19  1  0  0  0  0
 19 17  1  0  0  0  0
 21 20  1  0  0  0  0
 23 24  2  0  0  0  0
 24 22  1  0  0  0  0
 24 21  1  0  0  0  0
 25  9  1  0  0  0  0
 26 27  1  0  0  0  0
 26 25  1  0  0  0  0
 28 30  1  6  0  0  0
 28 29  1  0  0  0  0
 28 27  1  0  0  0  0
M  END
>  <MODEL>
8

>  <REMARK>
 VINA RESULT:      -4.9      3.628      7.301
  Name = 
  11 active torsions:
  status: ('A' for Active; 'I' for Inactive)
    1  A    between atoms: C_1  and  C_4
    2  A    between atoms: C_1  and  C_22
    3  A    between atoms: C_4  and  C_9
    4  A    between atoms: C_4  and  C_12
    5  A    between atoms: C_7  and  N_23
    6  A    between atoms: C_7  and  C_25
    7  A    between atoms: N_8  and  C_12
    8  A    between atoms: C_9  and  S_21
    9  A    between atoms: C_10  and  C_15
   10  A    between atoms: C_15  and  C_25
   11  A    between atoms: C_17  and  S_21
                            x       y       z     vdW  Elec       q    Type
                         _______ _______ _______ _____ _____    ______ ____

>  <TORSDO>
F 11

$$$$
=
 OpenBabel11052422023D

 30 32  0  0  1  0  0  0  0  0999 V2000
  161.8790  202.6050  151.2690 C   0  0  0  0  0  0  0  0  0  0  0  0
  160.2920  202.5740  147.2240 C   0  0  0  0  0  2  0  0  0  0  0  0
  161.4480  203.2310  147.9500 C   0  0  2  0  0  0  0  0  0  0  0  0
  160.8660  201.9030  150.5620 N   0  0  0  0  0  0  0  0  0  0  0  0
  162.7140  201.9760  151.9710 O   0  0  0  0  0  0  0  0  0  0  0  0
  161.2210  201.7210  148.1000 C   0  0  1  0  0  3  0  0  0  0  0  0
  160.4920  201.1290  149.3420 C   0  0  2  0  0  3  0  0  0  0  0  0
  161.9990  204.0900  151.1030 C   0  0  1  0  0  3  0  0  0  0  0  0
  161.0840  204.1460  149.0420 N   0  0  0  0  0  0  0  0  0  0  0  0
  162.5120  203.6010  147.1240 O   0  0  0  0  0  1  0  0  0  0  0  0
  159.5100  201.8990  149.9340 C   0  0  0  0  0  2  0  0  0  0  0  0
  162.2130  204.4550  149.7490 O   0  0  0  0  0  0  0  0  0  0  0  0
  160.8540  204.8640  151.7700 C   0  0  1  0  0  3  0  0  0  0  0  0
  160.2300  204.0680  152.7360 O   0  0  0  0  0  1  0  0  0  0  0  0
  161.3610  206.1730  152.3860 C   0  0  1  0  0  3  0  0  0  0  0  0
  160.8080  207.4090  151.6760 C   0  0  0  0  0  2  0  0  0  0  0  0
  162.0080  208.1670  150.5330 S   0  0  0  0  0  0  0  0  0  0  0  0
  161.0650  210.3110  151.9180 C   0  0  0  0  0  1  0  0  0  0  0  0
  162.3400  209.5280  151.6840 C   0  0  0  0  0  2  0  0  0  0  0  0
  161.1930  206.2310  153.9010 C   0  0  0  0  0  2  0  0  0  0  0  0
  161.0510  207.6120  154.3320 N   0  0  0  0  0  2  0  0  0  0  0  0
  159.8660  206.9570  156.3680 O   0  0  0  0  0  1  0  0  0  0  0  0
  160.2930  209.1560  155.8900 O   0  0  0  0  0  0  0  0  0  0  0  0
  160.3950  207.9500  155.5510 C   0  0  0  0  0  0  0  0  0  0  0  0
  160.4960  205.3790  148.4990 C   0  0  0  0  0  2  0  0  0  0  0  0
  161.3110  205.9810  147.3580 C   0  0  0  0  0  2  0  0  0  0  0  0
  160.4110  206.2010  146.1560 C   0  0  0  0  0  2  0  0  0  0  0  0
  161.1040  205.7900  144.8640 C   0  0  2  0  0  3  0  0  0  0  0  0
  160.7070  204.5070  144.4860 O   0  0  0  0  0  1  0  0  0  0  0  0
  162.4780  205.8320  145.0160 F   0  0  0  0  0  0  0  0  0  0  0  0
  1  5  2  0  0  0  0
  2  3  1  0  0  0  0
  3 10  1  6  0  0  0
  3  6  1  0  0  0  0
  3  9  1  0  0  0  0
  4  1  1  0  0  0  0
  6  2  1  6  0  0  0
  6  7  1  0  0  0  0
  7 11  1  6  0  0  0
  7  4  1  0  0  0  0
  8  1  1  0  0  0  0
  8 13  1  6  0  0  0
  9 12  1  0  0  0  0
 11  4  1  0  0  0  0
 12  8  1  0  0  0  0
 13 15  1  0  0  0  0
 13 14  1  1  0  0  0
 15 16  1  6  0  0  0
 15 20  1  0  0  0  0
 17 16  1  0  0  0  0
 17 19  1  0  0  0  0
 19 18  1  0  0  0  0
 20 21  1  0  0  0  0
 21 24  1  0  0  0  0
 24 23  2  0  0  0  0
 24 22  1  0  0  0  0
 25  9  1  0  0  0  0
 26 25  1  0  0  0  0
 27 26  1  0  0  0  0
 28 29  1  1  0  0  0
 28 30  1  0  0  0  0
 28 27  1  0  0  0  0
M  END
>  <MODEL>
9

>  <REMARK>
 VINA RESULT:      -4.9      3.011      3.966
  Name = 
  11 active torsions:
  status: ('A' for Active; 'I' for Inactive)
    1  A    between atoms: C_1  and  C_4
    2  A    between atoms: C_1  and  C_22
    3  A    between atoms: C_4  and  C_9
    4  A    between atoms: C_4  and  C_12
    5  A    between atoms: C_7  and  N_23
    6  A    between atoms: C_7  and  C_25
    7  A    between atoms: N_8  and  C_12
    8  A    between atoms: C_9  and  S_21
    9  A    between atoms: C_10  and  C_15
   10  A    between atoms: C_15  and  C_25
   11  A    between atoms: C_17  and  S_21
                            x       y       z     vdW  Elec       q    Type
                         _______ _______ _______ _____ _____    ______ ____

>  <TORSDO>
F 11

$$$$
