=
 OpenBabel11062410063D

 43 49  0  0  1  0  0  0  0  0999 V2000
  160.5350  208.1120  155.1950 C   0  0  0  0  0  2  0  0  0  0  0  0
  160.8850  207.3540  149.9550 C   0  0  2  0  0  3  0  0  0  0  0  0
  162.5110  209.5800  148.9850 C   0  0  1  0  0  3  0  0  0  0  0  0
  161.0830  206.3480  152.6620 C   0  0  0  0  0  0  0  0  0  0  0  0
  161.0230  209.1880  154.2280 C   0  0  0  0  0  2  0  0  0  0  0  0
  161.4320  206.8780  155.1330 C   0  0  0  0  0  2  0  0  0  0  0  0
  161.6970  207.6980  152.3200 C   0  0  2  0  0  3  0  0  0  0  0  0
  160.9180  205.8880  154.0920 C   0  0  0  0  0  2  0  0  0  0  0  0
  160.7500  208.8090  152.7790 C   0  0  0  0  0  2  0  0  0  0  0  0
  162.5030  209.2430  150.4860 C   0  0  0  0  0  2  0  0  0  0  0  0
  162.0520  207.8190  150.8260 C   0  0  2  0  0  3  0  0  0  0  0  0
  160.6180  205.8760  150.2460 C   0  0  0  0  0  2  0  0  0  0  0  0
  161.2320  207.5330  148.5060 C   0  0  0  0  0  0  0  0  0  0  0  0
  161.9710  208.5320  148.1180 N   0  0  0  0  0  0  0  0  0  0  0  0
  160.5350  205.5700  151.7140 C   0  0  0  0  0  3  0  0  0  0  0  0
  161.8220  210.9120  148.6930 C   0  0  2  0  0  3  0  0  0  0  0  0
  160.9090  213.0480  149.6420 C   0  0  0  0  0  0  0  0  0  0  0  0
  162.4320  213.0940  147.7270 C   0  0  0  0  0  3  0  0  0  0  0  0
  162.6570  211.7790  147.7880 C   0  0  0  0  0  3  0  0  0  0  0  0
  161.4190  213.7160  148.6000 C   0  0  0  0  0  3  0  0  0  0  0  0
  161.4170  211.6640  149.9690 C   0  0  0  0  0  2  0  0  0  0  0  0
  158.4520  212.9690  150.0440 C   0  0  2  0  0  3  0  0  0  0  0  0
  159.1570  212.6030  151.3350 C   0  0  0  0  0  2  0  0  0  0  0  0
  159.7700  213.6420  150.4110 C   0  0  1  0  0  3  0  0  0  0  0  0
  157.1000  214.2660  151.5030 O   0  0  0  0  0  0  0  0  0  0  0  0
  157.3310  213.9170  150.3140 C   0  0  0  0  0  0  0  0  0  0  0  0
  156.5740  214.4240  149.2390 O   0  0  0  0  0  0  0  0  0  0  0  0
  155.8910  214.1760  146.9400 C   0  0  0  0  0  3  0  0  0  0  0  0
  156.9160  214.3520  147.8800 C   0  0  0  0  0  0  0  0  0  0  0  0
  159.9440  214.4530  145.5980 C   0  0  0  0  0  1  0  0  0  0  0  0
  157.5050  214.1780  145.1350 C   0  0  0  0  0  3  0  0  0  0  0  0
  158.5350  214.3620  146.0630 C   0  0  0  0  0  0  0  0  0  0  0  0
  156.1820  214.0890  145.5730 C   0  0  0  0  0  3  0  0  0  0  0  0
  158.2440  214.4530  147.4280 C   0  0  0  0  0  3  0  0  0  0  0  0
  160.7360  206.6230  147.5600 O   0  0  0  0  0  0  0  0  0  0  0  0
  161.4990  205.6840  145.3820 C   0  0  0  0  0  2  0  0  0  0  0  0
  161.5640  205.7010  146.8570 C   0  0  1  0  0  0  0  0  0  0  0  0
  162.5120  206.3850  146.0700 O   0  0  0  0  0  0  0  0  0  0  0  0
  162.1900  204.5360  147.6040 C   0  0  0  0  0  2  0  0  0  0  0  0
  161.3120  203.3270  147.5760 C   0  0  0  0  0  0  0  0  0  0  0  0
  160.9820  202.7290  148.7220 C   0  0  0  0  0  2  0  0  0  0  0  0
  161.1050  202.6050  146.2790 C   0  0  0  0  0  2  0  0  0  0  0  0
  160.8400  201.1360  146.5350 C   0  0  0  0  0  1  0  0  0  0  0  0
  2 12  1  6  0  0  0
  2 11  1  0  0  0  0
  3 10  1  1  0  0  0
  4  8  1  0  0  0  0
  5  1  1  0  0  0  0
  6  1  1  0  0  0  0
  7  4  1  0  0  0  0
  7  9  1  6  0  0  0
  8  6  1  0  0  0  0
  9  5  1  0  0  0  0
 11 10  1  6  0  0  0
 11  7  1  0  0  0  0
 12 15  1  0  0  0  0
 13  2  1  0  0  0  0
 14 13  2  0  0  0  0
 14  3  1  0  0  0  0
 15  4  2  0  0  0  0
 16 19  1  1  0  0  0
 16  3  1  0  0  0  0
 16 21  1  0  0  0  0
 17 21  1  0  0  0  0
 18 19  2  0  0  0  0
 18 20  1  0  0  0  0
 20 17  2  0  0  0  0
 22 26  1  1  0  0  0
 22 24  1  0  0  0  0
 22 23  1  0  0  0  0
 24 17  1  6  0  0  0
 24 23  1  0  0  0  0
 26 25  2  0  0  0  0
 27 26  1  0  0  0  0
 28 29  1  0  0  0  0
 29 27  1  0  0  0  0
 30 32  1  0  0  0  0
 31 33  1  0  0  0  0
 31 32  2  0  0  0  0
 32 34  1  0  0  0  0
 33 28  2  0  0  0  0
 34 29  2  0  0  0  0
 35 13  1  0  0  0  0
 36 38  1  0  0  0  0
 36 37  1  0  0  0  0
 37 35  1  0  0  0  0
 37 39  1  1  0  0  0
 38 37  1  0  0  0  0
 40 39  1  0  0  0  0
 40 41  2  0  0  0  0
 42 43  1  0  0  0  0
 42 40  1  0  0  0  0
M  END
>  <MODEL>
1

>  <REMARK>
 VINA RESULT:      -7.2      0.000      0.000
  Name = 
  10 active torsions:
  status: ('A' for Active; 'I' for Inactive)
    1  A    between atoms: O_1  and  C_34
    2  A    between atoms: O_1  and  C_35
    3  A    between atoms: C_2  and  C_13
    4  A    between atoms: C_3  and  C_42
    5  A    between atoms: O_4  and  C_14
    6  A    between atoms: O_4  and  C_41
    7  A    between atoms: C_9  and  C_19
    8  A    between atoms: C_10  and  C_41
    9  A    between atoms: C_19  and  C_32
   10  A    between atoms: C_32  and  C_35
                            x       y       z     vdW  Elec       q    Type
                         _______ _______ _______ _____ _____    ______ ____

>  <TORSDO>
F 10

$$$$
=
 OpenBabel11062410063D

 43 49  0  0  1  0  0  0  0  0999 V2000
  161.9580  212.7530  147.5810 C   0  0  0  0  0  2  0  0  0  0  0  0
  159.2530  211.6020  151.9980 C   0  0  2  0  0  3  0  0  0  0  0  0
  160.8220  209.5170  153.3130 C   0  0  1  0  0  3  0  0  0  0  0  0
  160.4370  213.5430  150.2060 C   0  0  0  0  0  0  0  0  0  0  0  0
  162.2290  211.5090  148.4230 C   0  0  0  0  0  2  0  0  0  0  0  0
  162.1760  214.0220  148.4010 C   0  0  0  0  0  2  0  0  0  0  0  0
  161.2280  212.2990  150.5890 C   0  0  2  0  0  3  0  0  0  0  0  0
  160.8810  214.4530  149.0840 C   0  0  0  0  0  2  0  0  0  0  0  0
  161.1320  211.2770  149.4530 C   0  0  0  0  0  2  0  0  0  0  0  0
  161.4670  210.3700  152.2060 C   0  0  0  0  0  2  0  0  0  0  0  0
  160.7770  211.7100  151.9380 C   0  0  2  0  0  3  0  0  0  0  0  0
  158.6600  213.0090  151.8880 C   0  0  0  0  0  2  0  0  0  0  0  0
  158.8390  210.9760  153.2970 C   0  0  0  0  0  0  0  0  0  0  0  0
  159.5750  210.0580  153.8560 N   0  0  0  0  0  0  0  0  0  0  0  0
  159.2420  213.8070  150.7560 C   0  0  0  0  0  3  0  0  0  0  0  0
  160.6190  208.0680  152.8740 C   0  0  2  0  0  3  0  0  0  0  0  0
  161.0130  206.3460  151.0920 C   0  0  0  0  0  0  0  0  0  0  0  0
  161.5590  205.8590  153.4270 C   0  0  0  0  0  3  0  0  0  0  0  0
  161.2860  207.1060  153.8220 C   0  0  0  0  0  3  0  0  0  0  0  0
  161.2790  205.4400  152.0410 C   0  0  0  0  0  3  0  0  0  0  0  0
  161.0580  207.8190  151.4240 C   0  0  0  0  0  2  0  0  0  0  0  0
  161.7720  205.7290  148.8010 C   0  0  2  0  0  3  0  0  0  0  0  0
  161.1420  204.5060  149.4400 C   0  0  0  0  0  2  0  0  0  0  0  0
  160.5770  205.8850  149.7360 C   0  0  1  0  0  3  0  0  0  0  0  0
  160.4910  206.7950  147.1090 O   0  0  0  0  0  0  0  0  0  0  0  0
  161.3060  205.8760  147.3900 C   0  0  0  0  0  0  0  0  0  0  0  0
  161.8060  205.0070  146.3980 O   0  0  0  0  0  0  0  0  0  0  0  0
  160.4420  203.6750  144.9230 C   0  0  0  0  0  3  0  0  0  0  0  0
  161.2730  203.7570  146.0490 C   0  0  0  0  0  0  0  0  0  0  0  0
  161.2570  200.1410  147.1930 C   0  0  0  0  0  1  0  0  0  0  0  0
  160.1430  201.2990  145.2800 C   0  0  0  0  0  3  0  0  0  0  0  0
  160.9770  201.3670  146.4010 C   0  0  0  0  0  0  0  0  0  0  0  0
  159.8790  202.4520  144.5390 C   0  0  0  0  0  3  0  0  0  0  0  0
  161.5430  202.5880  146.7820 C   0  0  0  0  0  3  0  0  0  0  0  0
  157.6370  211.3710  153.9020 O   0  0  0  0  0  0  0  0  0  0  0  0
  156.6180  212.8820  155.6010 C   0  0  0  0  0  2  0  0  0  0  0  0
  157.5490  211.7870  155.2610 C   0  0  1  0  0  0  0  0  0  0  0  0
  156.2640  211.5280  155.7770 O   0  0  0  0  0  0  0  0  0  0  0  0
  158.6380  211.3850  156.2400 C   0  0  0  0  0  2  0  0  0  0  0  0
  159.6650  212.4600  156.3950 C   0  0  0  0  0  0  0  0  0  0  0  0
  159.6310  213.5220  155.5880 C   0  0  0  0  0  2  0  0  0  0  0  0
  160.9010  212.1780  157.1940 C   0  0  0  0  0  2  0  0  0  0  0  0
  161.7720  211.1710  156.4720 C   0  0  0  0  0  1  0  0  0  0  0  0
  1  6  1  0  0  0  0
  1  5  1  0  0  0  0
  2 12  1  1  0  0  0
  2 13  1  0  0  0  0
  3 10  1  6  0  0  0
  3 14  1  0  0  0  0
  4  7  1  0  0  0  0
  4 15  2  0  0  0  0
  5  9  1  0  0  0  0
  6  8  1  0  0  0  0
  7  9  1  6  0  0  0
  7 11  1  0  0  0  0
  8  4  1  0  0  0  0
 11  2  1  0  0  0  0
 11 10  1  6  0  0  0
 13 14  2  0  0  0  0
 13 35  1  0  0  0  0
 15 12  1  0  0  0  0
 16 21  1  6  0  0  0
 16  3  1  0  0  0  0
 16 19  1  0  0  0  0
 17 21  1  0  0  0  0
 17 20  2  0  0  0  0
 18 19  2  0  0  0  0
 20 18  1  0  0  0  0
 22 26  1  6  0  0  0
 22 23  1  0  0  0  0
 22 24  1  0  0  0  0
 23 24  1  0  0  0  0
 24 17  1  1  0  0  0
 25 26  2  0  0  0  0
 27 26  1  0  0  0  0
 28 29  1  0  0  0  0
 29 27  1  0  0  0  0
 29 34  2  0  0  0  0
 31 32  2  0  0  0  0
 32 34  1  0  0  0  0
 32 30  1  0  0  0  0
 33 28  2  0  0  0  0
 33 31  1  0  0  0  0
 35 37  1  0  0  0  0
 36 38  1  0  0  0  0
 37 36  1  0  0  0  0
 37 38  1  0  0  0  0
 37 39  1  1  0  0  0
 39 40  1  0  0  0  0
 40 42  1  0  0  0  0
 41 40  2  0  0  0  0
 43 42  1  0  0  0  0
M  END
>  <MODEL>
2

>  <REMARK>
 VINA RESULT:      -7.1      2.540      9.707
  Name = 
  10 active torsions:
  status: ('A' for Active; 'I' for Inactive)
    1  A    between atoms: O_1  and  C_34
    2  A    between atoms: O_1  and  C_35
    3  A    between atoms: C_2  and  C_13
    4  A    between atoms: C_3  and  C_42
    5  A    between atoms: O_4  and  C_14
    6  A    between atoms: O_4  and  C_41
    7  A    between atoms: C_9  and  C_19
    8  A    between atoms: C_10  and  C_41
    9  A    between atoms: C_19  and  C_32
   10  A    between atoms: C_32  and  C_35
                            x       y       z     vdW  Elec       q    Type
                         _______ _______ _______ _____ _____    ______ ____

>  <TORSDO>
F 10

$$$$
=
 OpenBabel11062410063D

 43 49  0  0  1  0  0  0  0  0999 V2000
  161.7610  211.8700  147.6700 C   0  0  0  0  0  2  0  0  0  0  0  0
  158.8740  212.2470  152.1050 C   0  0  2  0  0  3  0  0  0  0  0  0
  160.3830  210.7480  154.1090 C   0  0  1  0  0  3  0  0  0  0  0  0
  160.1340  213.4820  149.8110 C   0  0  0  0  0  0  0  0  0  0  0  0
  161.9940  210.9870  148.8940 C   0  0  0  0  0  2  0  0  0  0  0  0
  161.9470  213.3440  148.0200 C   0  0  0  0  0  2  0  0  0  0  0  0
  160.9060  212.4510  150.6230 C   0  0  2  0  0  3  0  0  0  0  0  0
  160.6260  213.9640  148.4650 C   0  0  0  0  0  2  0  0  0  0  0  0
  160.8560  211.1030  149.8980 C   0  0  0  0  0  2  0  0  0  0  0  0
  161.0750  211.1850  152.8060 C   0  0  0  0  0  2  0  0  0  0  0  0
  160.3990  212.3470  152.0730 C   0  0  2  0  0  3  0  0  0  0  0  0
  158.2880  213.5260  151.5020 C   0  0  0  0  0  2  0  0  0  0  0  0
  158.4050  212.0910  153.5220 C   0  0  0  0  0  0  0  0  0  0  0  0
  159.1150  211.4260  154.3880 N   0  0  0  0  0  0  0  0  0  0  0  0
  158.9180  213.9010  150.1910 C   0  0  0  0  0  3  0  0  0  0  0  0
  160.1950  209.2340  154.1790 C   0  0  2  0  0  3  0  0  0  0  0  0
  161.0270  206.9860  153.4370 C   0  0  0  0  0  0  0  0  0  0  0  0
  160.6060  207.4310  155.8070 C   0  0  0  0  0  3  0  0  0  0  0  0
  160.3480  208.7240  155.5880 C   0  0  0  0  0  3  0  0  0  0  0  0
  160.8170  206.5130  154.6730 C   0  0  0  0  0  3  0  0  0  0  0  0
  161.1110  208.4760  153.2070 C   0  0  0  0  0  2  0  0  0  0  0  0
  161.5370  206.7390  151.0120 C   0  0  2  0  0  3  0  0  0  0  0  0
  162.5070  205.8740  151.7930 C   0  0  0  0  0  2  0  0  0  0  0  0
  161.0780  206.0340  152.2830 C   0  0  1  0  0  3  0  0  0  0  0  0
  159.8800  206.3010  149.3680 O   0  0  0  0  0  0  0  0  0  0  0  0
  161.0140  205.9960  149.8280 C   0  0  0  0  0  0  0  0  0  0  0  0
  161.8030  204.9920  149.2310 O   0  0  0  0  0  0  0  0  0  0  0  0
  161.2320  203.0010  147.9980 C   0  0  0  0  0  3  0  0  0  0  0  0
  161.5530  204.3650  148.0010 C   0  0  0  0  0  0  0  0  0  0  0  0
  161.4420  205.1150  144.2840 C   0  0  0  0  0  1  0  0  0  0  0  0
  161.0530  203.0170  145.5830 C   0  0  0  0  0  3  0  0  0  0  0  0
  161.3640  204.3810  145.5740 C   0  0  0  0  0  0  0  0  0  0  0  0
  160.9830  202.3280  146.7960 C   0  0  0  0  0  3  0  0  0  0  0  0
  161.6080  205.0540  146.7760 C   0  0  0  0  0  3  0  0  0  0  0  0
  157.1800  212.6530  153.9100 O   0  0  0  0  0  0  0  0  0  0  0  0
  157.0220  214.4260  155.6540 C   0  0  0  0  0  2  0  0  0  0  0  0
  156.8770  213.0120  155.2550 C   0  0  1  0  0  0  0  0  0  0  0  0
  155.7700  213.8820  155.3000 O   0  0  0  0  0  0  0  0  0  0  0  0
  156.7840  211.9290  156.3160 C   0  0  0  0  0  2  0  0  0  0  0  0
  155.6230  211.0190  156.0760 C   0  0  0  0  0  0  0  0  0  0  0  0
  155.6500  210.1800  155.0390 C   0  0  0  0  0  2  0  0  0  0  0  0
  154.3240  211.2950  156.7710 C   0  0  0  0  0  2  0  0  0  0  0  0
  153.7090  210.0000  157.2600 C   0  0  0  0  0  1  0  0  0  0  0  0
  1  6  1  0  0  0  0
  1  5  1  0  0  0  0
  2 12  1  1  0  0  0
  2 13  1  0  0  0  0
  3 10  1  6  0  0  0
  3 16  1  0  0  0  0
  3 14  1  0  0  0  0
  4 15  2  0  0  0  0
  4  7  1  0  0  0  0
  5  9  1  0  0  0  0
  6  8  1  0  0  0  0
  7  9  1  6  0  0  0
  7 11  1  0  0  0  0
  8  4  1  0  0  0  0
 11  2  1  0  0  0  0
 11 10  1  6  0  0  0
 13 35  1  0  0  0  0
 13 14  2  0  0  0  0
 15 12  1  0  0  0  0
 16 21  1  6  0  0  0
 16 19  1  0  0  0  0
 17 20  2  0  0  0  0
 19 18  2  0  0  0  0
 20 18  1  0  0  0  0
 21 17  1  0  0  0  0
 22 26  1  6  0  0  0
 22 23  1  0  0  0  0
 22 24  1  0  0  0  0
 23 24  1  0  0  0  0
 24 17  1  1  0  0  0
 25 26  2  0  0  0  0
 27 26  1  0  0  0  0
 28 29  1  0  0  0  0
 29 27  1  0  0  0  0
 30 32  1  0  0  0  0
 31 33  1  0  0  0  0
 32 31  2  0  0  0  0
 32 34  1  0  0  0  0
 33 28  2  0  0  0  0
 34 29  2  0  0  0  0
 35 37  1  0  0  0  0
 37 38  1  0  0  0  0
 37 36  1  0  0  0  0
 37 39  1  1  0  0  0
 38 36  1  0  0  0  0
 40 39  1  0  0  0  0
 40 42  1  0  0  0  0
 41 40  2  0  0  0  0
 42 43  1  0  0  0  0
M  END
>  <MODEL>
3

>  <REMARK>
 VINA RESULT:      -6.9      2.952      9.618
  Name = 
  10 active torsions:
  status: ('A' for Active; 'I' for Inactive)
    1  A    between atoms: O_1  and  C_34
    2  A    between atoms: O_1  and  C_35
    3  A    between atoms: C_2  and  C_13
    4  A    between atoms: C_3  and  C_42
    5  A    between atoms: O_4  and  C_14
    6  A    between atoms: O_4  and  C_41
    7  A    between atoms: C_9  and  C_19
    8  A    between atoms: C_10  and  C_41
    9  A    between atoms: C_19  and  C_32
   10  A    between atoms: C_32  and  C_35
                            x       y       z     vdW  Elec       q    Type
                         _______ _______ _______ _____ _____    ______ ____

>  <TORSDO>
F 10

$$$$
=
 OpenBabel11062410063D

 43 49  0  0  1  0  0  0  0  0999 V2000
  161.1140  213.5880  147.3460 C   0  0  0  0  0  2  0  0  0  0  0  0
  160.5610  210.3770  151.5330 C   0  0  2  0  0  3  0  0  0  0  0  0
  162.4940  208.2310  151.0900 C   0  0  1  0  0  3  0  0  0  0  0  0
  160.8990  213.0290  150.4230 C   0  0  0  0  0  0  0  0  0  0  0  0
  161.6920  212.1760  147.3950 C   0  0  0  0  0  2  0  0  0  0  0  0
  161.6950  214.4530  148.4610 C   0  0  0  0  0  2  0  0  0  0  0  0
  161.7470  211.8820  149.8900 C   0  0  2  0  0  3  0  0  0  0  0  0
  160.8340  214.3650  149.7180 C   0  0  0  0  0  2  0  0  0  0  0  0
  161.1450  211.3840  148.5740 C   0  0  0  0  0  2  0  0  0  0  0  0
  162.6170  209.5420  150.2920 C   0  0  0  0  0  2  0  0  0  0  0  0
  161.9110  210.7480  150.9190 C   0  0  2  0  0  3  0  0  0  0  0  0
  160.0130  211.5970  152.2770 C   0  0  0  0  0  2  0  0  0  0  0  0
  160.7360  209.2340  152.4900 C   0  0  0  0  0  0  0  0  0  0  0  0
  161.6190  208.3050  152.2610 N   0  0  0  0  0  0  0  0  0  0  0  0
  160.0660  212.8570  151.4620 C   0  0  0  0  0  3  0  0  0  0  0  0
  162.0860  207.0560  150.2020 C   0  0  2  0  0  3  0  0  0  0  0  0
  160.5750  205.0740  149.9190 C   0  0  0  0  0  0  0  0  0  0  0  0
  160.8130  206.7170  148.1200 C   0  0  0  0  0  3  0  0  0  0  0  0
  161.5660  207.5280  148.8690 C   0  0  0  0  0  3  0  0  0  0  0  0
  160.4250  205.3870  148.6250 C   0  0  0  0  0  3  0  0  0  0  0  0
  161.0900  206.1110  150.8880 C   0  0  0  0  0  2  0  0  0  0  0  0
  161.5270  202.7780  150.0840 C   0  0  2  0  0  3  0  0  0  0  0  0
  161.2800  203.2930  151.4880 C   0  0  0  0  0  2  0  0  0  0  0  0
  160.3220  203.6690  150.3700 C   0  0  1  0  0  3  0  0  0  0  0  0
  160.7360  200.7360  151.0020 O   0  0  0  0  0  0  0  0  0  0  0  0
  161.0660  201.3640  149.9600 C   0  0  0  0  0  0  0  0  0  0  0  0
  160.9810  200.7680  148.6850 O   0  0  0  0  0  0  0  0  0  0  0  0
  160.0450  200.9370  146.4700 C   0  0  0  0  0  3  0  0  0  0  0  0
  160.8970  201.4460  147.4600 C   0  0  0  0  0  0  0  0  0  0  0  0
  162.3160  204.4730  145.6670 C   0  0  0  0  0  1  0  0  0  0  0  0
  160.6750  202.7260  144.9640 C   0  0  0  0  0  3  0  0  0  0  0  0
  161.5230  203.2480  145.9470 C   0  0  0  0  0  0  0  0  0  0  0  0
  159.9340  201.5720  145.2270 C   0  0  0  0  0  3  0  0  0  0  0  0
  161.6310  202.6150  147.1900 C   0  0  0  0  0  3  0  0  0  0  0  0
  159.9240  209.1590  153.6310 O   0  0  0  0  0  0  0  0  0  0  0  0
  160.1550  207.7100  155.6450 C   0  0  0  0  0  2  0  0  0  0  0  0
  160.4420  208.9790  154.9460 C   0  0  1  0  0  0  0  0  0  0  0  0
  161.3750  207.9230  154.9710 O   0  0  0  0  0  0  0  0  0  0  0  0
  160.9360  210.1830  155.7280 C   0  0  0  0  0  2  0  0  0  0  0  0
  159.8470  211.1830  155.9480 C   0  0  0  0  0  0  0  0  0  0  0  0
  158.6730  210.7780  156.4360 C   0  0  0  0  0  2  0  0  0  0  0  0
  159.9550  212.5330  155.3070 C   0  0  0  0  0  2  0  0  0  0  0  0
  158.5790  213.1470  155.1470 C   0  0  0  0  0  1  0  0  0  0  0  0
  1  5  1  0  0  0  0
  1  6  1  0  0  0  0
  2 12  1  1  0  0  0
  2 13  1  0  0  0  0
  3 10  1  6  0  0  0
  3 14  1  0  0  0  0
  4 15  2  0  0  0  0
  5  9  1  0  0  0  0
  6  8  1  0  0  0  0
  7  9  1  6  0  0  0
  7  4  1  0  0  0  0
  7 11  1  0  0  0  0
  8  4  1  0  0  0  0
 11 10  1  6  0  0  0
 11  2  1  0  0  0  0
 13 35  1  0  0  0  0
 14 13  2  0  0  0  0
 15 12  1  0  0  0  0
 16 19  1  6  0  0  0
 16 21  1  0  0  0  0
 16  3  1  0  0  0  0
 17 21  1  0  0  0  0
 18 20  1  0  0  0  0
 18 19  2  0  0  0  0
 20 17  2  0  0  0  0
 22 26  1  1  0  0  0
 22 24  1  0  0  0  0
 22 23  1  0  0  0  0
 24 17  1  6  0  0  0
 24 23  1  0  0  0  0
 26 25  2  0  0  0  0
 27 26  1  0  0  0  0
 28 29  1  0  0  0  0
 29 27  1  0  0  0  0
 30 32  1  0  0  0  0
 31 33  1  0  0  0  0
 31 32  2  0  0  0  0
 32 34  1  0  0  0  0
 33 28  2  0  0  0  0
 34 29  2  0  0  0  0
 35 37  1  0  0  0  0
 37 38  1  0  0  0  0
 37 36  1  0  0  0  0
 37 39  1  1  0  0  0
 38 36  1  0  0  0  0
 39 40  1  0  0  0  0
 40 41  2  0  0  0  0
 42 40  1  0  0  0  0
 43 42  1  0  0  0  0
M  END
>  <MODEL>
4

>  <REMARK>
 VINA RESULT:      -6.9      2.908      9.497
  Name = 
  10 active torsions:
  status: ('A' for Active; 'I' for Inactive)
    1  A    between atoms: O_1  and  C_34
    2  A    between atoms: O_1  and  C_35
    3  A    between atoms: C_2  and  C_13
    4  A    between atoms: C_3  and  C_42
    5  A    between atoms: O_4  and  C_14
    6  A    between atoms: O_4  and  C_41
    7  A    between atoms: C_9  and  C_19
    8  A    between atoms: C_10  and  C_41
    9  A    between atoms: C_19  and  C_32
   10  A    between atoms: C_32  and  C_35
                            x       y       z     vdW  Elec       q    Type
                         _______ _______ _______ _____ _____    ______ ____

>  <TORSDO>
F 10

$$$$
=
 OpenBabel11062410063D

 43 49  0  0  1  0  0  0  0  0999 V2000
  160.2800  202.6660  149.5340 C   0  0  0  0  0  2  0  0  0  0  0  0
  161.3240  207.8200  148.8310 C   0  0  2  0  0  3  0  0  0  0  0  0
  162.7110  208.6410  151.2690 C   0  0  1  0  0  3  0  0  0  0  0  0
  161.3580  205.0910  147.8660 C   0  0  0  0  0  0  0  0  0  0  0  0
  160.7130  203.5910  150.6690 C   0  0  0  0  0  2  0  0  0  0  0  0
  161.3460  202.6060  148.4440 C   0  0  0  0  0  2  0  0  0  0  0  0
  161.8060  205.3850  149.2910 C   0  0  2  0  0  3  0  0  0  0  0  0
  161.1020  203.6800  147.3880 C   0  0  0  0  0  2  0  0  0  0  0  0
  160.6630  205.0540  150.2540 C   0  0  0  0  0  2  0  0  0  0  0  0
  162.5810  207.1440  150.9350 C   0  0  0  0  0  2  0  0  0  0  0  0
  162.3060  206.8320  149.4610 C   0  0  2  0  0  3  0  0  0  0  0  0
  161.2420  207.5350  147.3300 C   0  0  0  0  0  2  0  0  0  0  0  0
  161.8020  209.2240  149.0570 C   0  0  0  0  0  0  0  0  0  0  0  0
  162.4280  209.5450  150.1530 N   0  0  0  0  0  0  0  0  0  0  0  0
  161.0380  206.0800  147.0160 C   0  0  0  0  0  3  0  0  0  0  0  0
  161.8730  209.0310  152.4860 C   0  0  2  0  0  3  0  0  0  0  0  0
  159.6790  209.9170  153.3180 C   0  0  0  0  0  0  0  0  0  0  0  0
  160.6350  207.8780  154.2770 C   0  0  0  0  0  3  0  0  0  0  0  0
  161.6370  207.8510  153.3930 C   0  0  0  0  0  3  0  0  0  0  0  0
  159.7110  209.0260  154.3180 C   0  0  0  0  0  3  0  0  0  0  0  0
  160.5530  209.7160  152.1040 C   0  0  0  0  0  2  0  0  0  0  0  0
  159.6870  212.3190  153.9800 C   0  0  2  0  0  3  0  0  0  0  0  0
  159.3360  212.2320  152.5080 C   0  0  0  0  0  2  0  0  0  0  0  0
  158.8480  211.1550  153.4620 C   0  0  1  0  0  3  0  0  0  0  0  0
  158.4360  214.3360  154.0610 O   0  0  0  0  0  0  0  0  0  0  0  0
  158.7910  213.2920  154.6720 C   0  0  0  0  0  0  0  0  0  0  0  0
  158.3370  213.0150  155.9770 O   0  0  0  0  0  0  0  0  0  0  0  0
  156.3180  214.0870  156.7420 C   0  0  0  0  0  3  0  0  0  0  0  0
  156.9980  212.9150  156.3830 C   0  0  0  0  0  0  0  0  0  0  0  0
  154.2740  210.3330  156.9370 C   0  0  0  0  0  1  0  0  0  0  0  0
  154.3170  212.8140  157.2290 C   0  0  0  0  0  3  0  0  0  0  0  0
  154.9820  211.6380  156.8650 C   0  0  0  0  0  0  0  0  0  0  0  0
  154.9840  214.0390  157.1640 C   0  0  0  0  0  3  0  0  0  0  0  0
  156.3140  211.6870  156.4400 C   0  0  0  0  0  3  0  0  0  0  0  0
  161.5530  210.2030  148.0840 O   0  0  0  0  0  0  0  0  0  0  0  0
  163.1690  212.0900  147.8860 C   0  0  0  0  0  2  0  0  0  0  0  0
  161.8370  211.5850  148.2780 C   0  0  1  0  0  0  0  0  0  0  0  0
  162.0470  212.2280  147.0420 O   0  0  0  0  0  0  0  0  0  0  0  0
  160.9530  212.4100  149.1960 C   0  0  0  0  0  2  0  0  0  0  0  0
  159.9600  213.2200  148.4260 C   0  0  0  0  0  0  0  0  0  0  0  0
  160.3920  214.1300  147.5520 C   0  0  0  0  0  2  0  0  0  0  0  0
  158.5330  213.2520  148.8830 C   0  0  0  0  0  2  0  0  0  0  0  0
  157.6020  213.2550  147.6880 C   0  0  0  0  0  1  0  0  0  0  0  0
  1  5  1  0  0  0  0
  2 12  1  6  0  0  0
  2 13  1  0  0  0  0
  2 11  1  0  0  0  0
  3 10  1  6  0  0  0
  3 16  1  0  0  0  0
  4  7  1  0  0  0  0
  6  1  1  0  0  0  0
  7 11  1  0  0  0  0
  7  9  1  1  0  0  0
  8  4  1  0  0  0  0
  8  6  1  0  0  0  0
  9  5  1  0  0  0  0
 11 10  1  1  0  0  0
 13 14  2  0  0  0  0
 14  3  1  0  0  0  0
 15 12  1  0  0  0  0
 15  4  2  0  0  0  0
 16 21  1  6  0  0  0
 16 19  1  0  0  0  0
 17 20  2  0  0  0  0
 18 20  1  0  0  0  0
 19 18  2  0  0  0  0
 21 17  1  0  0  0  0
 22 26  1  1  0  0  0
 23 24  1  0  0  0  0
 23 22  1  0  0  0  0
 24 17  1  6  0  0  0
 24 22  1  0  0  0  0
 25 26  2  0  0  0  0
 26 27  1  0  0  0  0
 27 29  1  0  0  0  0
 28 33  1  0  0  0  0
 29 34  1  0  0  0  0
 29 28  2  0  0  0  0
 32 30  1  0  0  0  0
 32 31  1  0  0  0  0
 33 31  2  0  0  0  0
 34 32  2  0  0  0  0
 35 37  1  0  0  0  0
 35 13  1  0  0  0  0
 36 37  1  0  0  0  0
 37 39  1  1  0  0  0
 38 36  1  0  0  0  0
 38 37  1  0  0  0  0
 40 42  1  0  0  0  0
 40 39  1  0  0  0  0
 41 40  2  0  0  0  0
 43 42  1  0  0  0  0
M  END
>  <MODEL>
5

>  <REMARK>
 VINA RESULT:      -6.4      3.247      7.273
  Name = 
  10 active torsions:
  status: ('A' for Active; 'I' for Inactive)
    1  A    between atoms: O_1  and  C_34
    2  A    between atoms: O_1  and  C_35
    3  A    between atoms: C_2  and  C_13
    4  A    between atoms: C_3  and  C_42
    5  A    between atoms: O_4  and  C_14
    6  A    between atoms: O_4  and  C_41
    7  A    between atoms: C_9  and  C_19
    8  A    between atoms: C_10  and  C_41
    9  A    between atoms: C_19  and  C_32
   10  A    between atoms: C_32  and  C_35
                            x       y       z     vdW  Elec       q    Type
                         _______ _______ _______ _____ _____    ______ ____

>  <TORSDO>
F 10

$$$$
=
 OpenBabel11062410063D

 43 49  0  0  1  0  0  0  0  0999 V2000
  160.5350  202.8600  149.5160 C   0  0  0  0  0  2  0  0  0  0  0  0
  161.2510  208.0610  148.7570 C   0  0  2  0  0  3  0  0  0  0  0  0
  162.7320  208.9630  151.1100 C   0  0  1  0  0  3  0  0  0  0  0  0
  161.3780  205.3370  147.7890 C   0  0  0  0  0  0  0  0  0  0  0  0
  160.9830  203.8090  150.6240 C   0  0  0  0  0  2  0  0  0  0  0  0
  161.5370  202.8550  148.3650 C   0  0  0  0  0  2  0  0  0  0  0  0
  161.8920  205.6580  149.1850 C   0  0  2  0  0  3  0  0  0  0  0  0
  161.1710  203.9120  147.3260 C   0  0  0  0  0  2  0  0  0  0  0  0
  160.8280  205.2670  150.2140 C   0  0  0  0  0  2  0  0  0  0  0  0
  162.6660  207.4610  150.7830 C   0  0  0  0  0  2  0  0  0  0  0  0
  162.3210  207.1300  149.3270 C   0  0  2  0  0  3  0  0  0  0  0  0
  161.0960  207.7690  147.2630 C   0  0  0  0  0  2  0  0  0  0  0  0
  161.6640  209.4900  148.9550 C   0  0  0  0  0  0  0  0  0  0  0  0
  162.3350  209.8480  150.0130 N   0  0  0  0  0  0  0  0  0  0  0  0
  160.9550  206.3040  146.9610 C   0  0  0  0  0  3  0  0  0  0  0  0
  161.9480  209.3090  152.3740 C   0  0  2  0  0  3  0  0  0  0  0  0
  160.0440  210.6070  153.3650 C   0  0  0  0  0  0  0  0  0  0  0  0
  160.2900  208.2170  153.8330 C   0  0  0  0  0  3  0  0  0  0  0  0
  161.3090  208.0860  152.9780 C   0  0  0  0  0  3  0  0  0  0  0  0
  159.7360  209.5510  154.1300 C   0  0  0  0  0  3  0  0  0  0  0  0
  160.9180  210.4250  152.1480 C   0  0  0  0  0  2  0  0  0  0  0  0
  158.0980  211.9980  154.0600 C   0  0  2  0  0  3  0  0  0  0  0  0
  159.0810  211.9460  155.2130 C   0  0  0  0  0  2  0  0  0  0  0  0
  159.5970  211.9740  153.7840 C   0  0  1  0  0  3  0  0  0  0  0  0
  156.9640  213.9450  154.8130 O   0  0  0  0  0  0  0  0  0  0  0  0
  157.5920  213.3900  153.8710 C   0  0  0  0  0  0  0  0  0  0  0  0
  157.8480  214.0650  152.6610 O   0  0  0  0  0  0  0  0  0  0  0  0
  155.6810  214.4420  151.6750 C   0  0  0  0  0  3  0  0  0  0  0  0
  157.0240  214.0700  151.5250 C   0  0  0  0  0  0  0  0  0  0  0  0
  157.1340  213.3400  147.8050 C   0  0  0  0  0  1  0  0  0  0  0  0
  155.2890  214.0920  149.3110 C   0  0  0  0  0  3  0  0  0  0  0  0
  156.6290  213.7280  149.1480 C   0  0  0  0  0  0  0  0  0  0  0  0
  154.8160  214.4530  150.5750 C   0  0  0  0  0  3  0  0  0  0  0  0
  157.4950  213.7200  150.2470 C   0  0  0  0  0  3  0  0  0  0  0  0
  161.3050  210.4520  148.0000 O   0  0  0  0  0  0  0  0  0  0  0  0
  162.6780  212.2090  149.1110 C   0  0  0  0  0  2  0  0  0  0  0  0
  161.6810  211.8220  148.0930 C   0  0  1  0  0  0  0  0  0  0  0  0
  163.0410  211.9880  147.7660 O   0  0  0  0  0  0  0  0  0  0  0  0
  160.8140  212.8840  147.4380 C   0  0  0  0  0  2  0  0  0  0  0  0
  160.7250  212.6890  145.9590 C   0  0  0  0  0  0  0  0  0  0  0  0
  161.6040  213.3000  145.1630 C   0  0  0  0  0  2  0  0  0  0  0  0
  159.4730  212.1110  145.3720 C   0  0  0  0  0  2  0  0  0  0  0  0
  158.8290  213.1080  144.4310 C   0  0  0  0  0  1  0  0  0  0  0  0
  1  5  1  0  0  0  0
  2 12  1  6  0  0  0
  2 13  1  0  0  0  0
  2 11  1  0  0  0  0
  3 10  1  6  0  0  0
  3 16  1  0  0  0  0
  4  7  1  0  0  0  0
  6  1  1  0  0  0  0
  7 11  1  0  0  0  0
  7  9  1  1  0  0  0
  8  4  1  0  0  0  0
  8  6  1  0  0  0  0
  9  5  1  0  0  0  0
 11 10  1  1  0  0  0
 13 14  2  0  0  0  0
 14  3  1  0  0  0  0
 15 12  1  0  0  0  0
 15  4  2  0  0  0  0
 16 21  1  6  0  0  0
 16 19  1  0  0  0  0
 17 20  2  0  0  0  0
 18 20  1  0  0  0  0
 19 18  2  0  0  0  0
 21 17  1  0  0  0  0
 22 26  1  1  0  0  0
 22 23  1  0  0  0  0
 24 17  1  6  0  0  0
 24 22  1  0  0  0  0
 24 23  1  0  0  0  0
 26 25  2  0  0  0  0
 27 26  1  0  0  0  0
 29 28  1  0  0  0  0
 29 27  1  0  0  0  0
 30 32  1  0  0  0  0
 31 33  1  0  0  0  0
 32 31  2  0  0  0  0
 32 34  1  0  0  0  0
 33 28  2  0  0  0  0
 34 29  2  0  0  0  0
 35 37  1  0  0  0  0
 35 13  1  0  0  0  0
 37 39  1  6  0  0  0
 37 36  1  0  0  0  0
 38 37  1  0  0  0  0
 38 36  1  0  0  0  0
 40 39  1  0  0  0  0
 41 40  2  0  0  0  0
 42 40  1  0  0  0  0
 43 42  1  0  0  0  0
M  END
>  <MODEL>
6

>  <REMARK>
 VINA RESULT:      -6.3      2.037      5.742
  Name = 
  10 active torsions:
  status: ('A' for Active; 'I' for Inactive)
    1  A    between atoms: O_1  and  C_34
    2  A    between atoms: O_1  and  C_35
    3  A    between atoms: C_2  and  C_13
    4  A    between atoms: C_3  and  C_42
    5  A    between atoms: O_4  and  C_14
    6  A    between atoms: O_4  and  C_41
    7  A    between atoms: C_9  and  C_19
    8  A    between atoms: C_10  and  C_41
    9  A    between atoms: C_19  and  C_32
   10  A    between atoms: C_32  and  C_35
                            x       y       z     vdW  Elec       q    Type
                         _______ _______ _______ _____ _____    ______ ____

>  <TORSDO>
F 10

$$$$
=
 OpenBabel11062410063D

 43 49  0  0  1  0  0  0  0  0999 V2000
  160.7520  212.3650  146.5350 C   0  0  0  0  0  2  0  0  0  0  0  0
  159.9990  212.4550  151.7860 C   0  0  2  0  0  3  0  0  0  0  0  0
  161.6320  210.2600  152.8130 C   0  0  1  0  0  3  0  0  0  0  0  0
  160.6090  213.8210  149.3080 C   0  0  0  0  0  0  0  0  0  0  0  0
  161.1540  211.2150  147.4540 C   0  0  0  0  0  2  0  0  0  0  0  0
  161.4840  213.6480  146.9170 C   0  0  0  0  0  2  0  0  0  0  0  0
  161.2850  212.4920  149.6150 C   0  0  2  0  0  3  0  0  0  0  0  0
  160.6770  214.4490  147.9350 C   0  0  0  0  0  2  0  0  0  0  0  0
  160.5680  211.3770  148.8500 C   0  0  0  0  0  2  0  0  0  0  0  0
  161.8780  210.7900  151.3890 C   0  0  0  0  0  2  0  0  0  0  0  0
  161.3550  212.2050  151.1260 C   0  0  2  0  0  3  0  0  0  0  0  0
  159.6390  213.9330  151.6140 C   0  0  0  0  0  2  0  0  0  0  0  0
  160.0750  212.1170  153.2460 C   0  0  0  0  0  0  0  0  0  0  0  0
  160.8260  211.1380  153.6630 N   0  0  0  0  0  0  0  0  0  0  0  0
  159.8090  214.4200  150.2040 C   0  0  0  0  0  3  0  0  0  0  0  0
  161.0430  208.8500  152.8060 C   0  0  2  0  0  3  0  0  0  0  0  0
  161.4440  206.4180  152.3410 C   0  0  0  0  0  0  0  0  0  0  0  0
  160.4530  207.1260  154.4640 C   0  0  0  0  0  3  0  0  0  0  0  0
  160.6220  208.4220  154.1880 C   0  0  0  0  0  3  0  0  0  0  0  0
  160.7520  206.1040  153.4440 C   0  0  0  0  0  3  0  0  0  0  0  0
  161.9810  207.8180  152.1630 C   0  0  0  0  0  2  0  0  0  0  0  0
  160.6700  204.2100  151.4850 C   0  0  2  0  0  3  0  0  0  0  0  0
  160.2970  205.2720  150.4700 C   0  0  0  0  0  2  0  0  0  0  0  0
  161.5930  205.4010  151.2510 C   0  0  1  0  0  3  0  0  0  0  0  0
  162.2960  202.4950  151.2550 O   0  0  0  0  0  0  0  0  0  0  0  0
  161.2400  203.0130  150.8010 C   0  0  0  0  0  0  0  0  0  0  0  0
  160.5770  202.4680  149.6830 O   0  0  0  0  0  0  0  0  0  0  0  0
  160.5440  201.7420  147.3840 C   0  0  0  0  0  3  0  0  0  0  0  0
  160.8890  202.7110  148.3370 C   0  0  0  0  0  0  0  0  0  0  0  0
  162.5260  205.3170  146.1190 C   0  0  0  0  0  1  0  0  0  0  0  0
  161.4910  203.1000  145.6170 C   0  0  0  0  0  3  0  0  0  0  0  0
  161.8330  204.0770  146.5570 C   0  0  0  0  0  0  0  0  0  0  0  0
  160.8430  201.9340  146.0300 C   0  0  0  0  0  3  0  0  0  0  0  0
  161.5310  203.8870  147.9100 C   0  0  0  0  0  3  0  0  0  0  0  0
  159.3130  212.8520  154.1660 O   0  0  0  0  0  0  0  0  0  0  0  0
  156.8810  212.3160  154.2550 C   0  0  0  0  0  2  0  0  0  0  0  0
  158.2160  212.3000  154.8870 C   0  0  1  0  0  0  0  0  0  0  0  0
  157.7010  211.1700  154.2200 O   0  0  0  0  0  0  0  0  0  0  0  0
  158.3460  212.0590  156.3810 C   0  0  0  0  0  2  0  0  0  0  0  0
  159.5910  211.3000  156.7110 C   0  0  0  0  0  0  0  0  0  0  0  0
  159.5210  209.9860  156.9280 C   0  0  0  0  0  2  0  0  0  0  0  0
  160.8150  212.0550  157.1320 C   0  0  0  0  0  2  0  0  0  0  0  0
  162.0430  211.1800  156.9900 C   0  0  0  0  0  1  0  0  0  0  0  0
  1  6  1  0  0  0  0
  1  5  1  0  0  0  0
  2 12  1  1  0  0  0
  2 13  1  0  0  0  0
  3 10  1  6  0  0  0
  3 14  1  0  0  0  0
  4  7  1  0  0  0  0
  4 15  2  0  0  0  0
  5  9  1  0  0  0  0
  6  8  1  0  0  0  0
  7  9  1  6  0  0  0
  7 11  1  0  0  0  0
  8  4  1  0  0  0  0
 11 10  1  6  0  0  0
 11  2  1  0  0  0  0
 13 14  2  0  0  0  0
 13 35  1  0  0  0  0
 15 12  1  0  0  0  0
 16 21  1  1  0  0  0
 16  3  1  0  0  0  0
 16 19  1  0  0  0  0
 17 20  2  0  0  0  0
 19 18  2  0  0  0  0
 20 18  1  0  0  0  0
 21 17  1  0  0  0  0
 22 26  1  6  0  0  0
 23 24  1  0  0  0  0
 23 22  1  0  0  0  0
 24 22  1  0  0  0  0
 24 17  1  1  0  0  0
 26 25  2  0  0  0  0
 27 26  1  0  0  0  0
 28 29  1  0  0  0  0
 29 27  1  0  0  0  0
 30 32  1  0  0  0  0
 31 33  1  0  0  0  0
 31 32  2  0  0  0  0
 32 34  1  0  0  0  0
 33 28  2  0  0  0  0
 34 29  2  0  0  0  0
 35 37  1  0  0  0  0
 36 37  1  0  0  0  0
 37 39  1  1  0  0  0
 38 36  1  0  0  0  0
 38 37  1  0  0  0  0
 39 40  1  0  0  0  0
 40 41  2  0  0  0  0
 40 42  1  0  0  0  0
 43 42  1  0  0  0  0
M  END
>  <MODEL>
7

>  <REMARK>
 VINA RESULT:      -5.9      2.636      9.696
  Name = 
  10 active torsions:
  status: ('A' for Active; 'I' for Inactive)
    1  A    between atoms: O_1  and  C_34
    2  A    between atoms: O_1  and  C_35
    3  A    between atoms: C_2  and  C_13
    4  A    between atoms: C_3  and  C_42
    5  A    between atoms: O_4  and  C_14
    6  A    between atoms: O_4  and  C_41
    7  A    between atoms: C_9  and  C_19
    8  A    between atoms: C_10  and  C_41
    9  A    between atoms: C_19  and  C_32
   10  A    between atoms: C_32  and  C_35
                            x       y       z     vdW  Elec       q    Type
                         _______ _______ _______ _____ _____    ______ ____

>  <TORSDO>
F 10

$$$$
=
 OpenBabel11062410063D

 43 49  0  0  1  0  0  0  0  0999 V2000
  156.2240  213.8860  152.1890 C   0  0  0  0  0  2  0  0  0  0  0  0
  159.8580  210.3070  153.6490 C   0  0  2  0  0  3  0  0  0  0  0  0
  162.2350  210.9730  152.0840 C   0  0  1  0  0  3  0  0  0  0  0  0
  157.8450  212.2700  154.3320 C   0  0  0  0  0  0  0  0  0  0  0  0
  157.5170  213.6460  151.4120 C   0  0  0  0  0  2  0  0  0  0  0  0
  156.5230  214.3330  153.6170 C   0  0  0  0  0  2  0  0  0  0  0  0
  158.8670  212.5940  153.2510 C   0  0  2  0  0  3  0  0  0  0  0  0
  156.6200  213.1300  154.5510 C   0  0  0  0  0  2  0  0  0  0  0  0
  158.2270  212.3830  151.8770 C   0  0  0  0  0  2  0  0  0  0  0  0
  161.1000  212.0040  152.2200 C   0  0  0  0  0  2  0  0  0  0  0  0
  160.1680  211.7860  153.4150 C   0  0  2  0  0  3  0  0  0  0  0  0
  159.0670  210.1750  154.9520 C   0  0  0  0  0  2  0  0  0  0  0  0
  161.1380  209.5300  153.7500 C   0  0  0  0  0  0  0  0  0  0  0  0
  162.1790  209.8700  153.0440 N   0  0  0  0  0  0  0  0  0  0  0  0
  157.9140  211.1330  155.0410 C   0  0  0  0  0  3  0  0  0  0  0  0
  162.3460  210.4270  150.6610 C   0  0  2  0  0  3  0  0  0  0  0  0
  161.4110  208.8520  148.9460 C   0  0  0  0  0  0  0  0  0  0  0  0
  161.8240  211.1980  148.3800 C   0  0  0  0  0  3  0  0  0  0  0  0
  162.1490  211.5140  149.6370 C   0  0  0  0  0  3  0  0  0  0  0  0
  161.5820  209.7920  148.0070 C   0  0  0  0  0  3  0  0  0  0  0  0
  161.4050  209.2410  150.4050 C   0  0  0  0  0  2  0  0  0  0  0  0
  162.0210  207.1810  147.2030 C   0  0  2  0  0  3  0  0  0  0  0  0
  162.7150  206.7970  148.4940 C   0  0  0  0  0  2  0  0  0  0  0  0
  161.3280  207.4130  148.5410 C   0  0  1  0  0  3  0  0  0  0  0  0
  160.3190  206.0830  145.9640 O   0  0  0  0  0  0  0  0  0  0  0  0
  161.4290  205.9760  146.5520 C   0  0  0  0  0  0  0  0  0  0  0  0
  162.1290  204.7530  146.5810 O   0  0  0  0  0  0  0  0  0  0  0  0
  161.1930  202.6820  145.7760 C   0  0  0  0  0  3  0  0  0  0  0  0
  161.5800  203.4910  146.8540 C   0  0  0  0  0  0  0  0  0  0  0  0
  160.6470  201.2560  149.7730 C   0  0  0  0  0  1  0  0  0  0  0  0
  160.4510  200.9540  147.3010 C   0  0  0  0  0  3  0  0  0  0  0  0
  160.8410  201.7480  148.3840 C   0  0  0  0  0  0  0  0  0  0  0  0
  160.6310  201.4190  145.9970 C   0  0  0  0  0  3  0  0  0  0  0  0
  161.4060  203.0090  148.1630 C   0  0  0  0  0  3  0  0  0  0  0  0
  161.2050  208.4170  154.6000 O   0  0  0  0  0  0  0  0  0  0  0  0
  161.0960  205.9830  155.1230 C   0  0  0  0  0  2  0  0  0  0  0  0
  160.8470  207.1010  154.1900 C   0  0  1  0  0  0  0  0  0  0  0  0
  159.8250  206.5850  155.0110 O   0  0  0  0  0  0  0  0  0  0  0  0
  160.5830  206.8190  152.7210 C   0  0  0  0  0  2  0  0  0  0  0  0
  161.6180  205.9130  152.1370 C   0  0  0  0  0  0  0  0  0  0  0  0
  162.8710  206.3500  152.0030 C   0  0  0  0  0  2  0  0  0  0  0  0
  161.1800  204.6830  151.4020 C   0  0  0  0  0  2  0  0  0  0  0  0
  160.8310  203.5840  152.3840 C   0  0  0  0  0  1  0  0  0  0  0  0
  1  6  1  0  0  0  0
  2 13  1  0  0  0  0
  2 12  1  1  0  0  0
  3 10  1  6  0  0  0
  3 14  1  0  0  0  0
  4  8  1  0  0  0  0
  4 15  2  0  0  0  0
  5  9  1  0  0  0  0
  5  1  1  0  0  0  0
  6  8  1  0  0  0  0
  7  9  1  6  0  0  0
  7 11  1  0  0  0  0
  7  4  1  0  0  0  0
 11 10  1  6  0  0  0
 11  2  1  0  0  0  0
 12 15  1  0  0  0  0
 13 35  1  0  0  0  0
 14 13  2  0  0  0  0
 16 19  1  6  0  0  0
 16  3  1  0  0  0  0
 17 21  1  0  0  0  0
 18 19  2  0  0  0  0
 20 18  1  0  0  0  0
 20 17  2  0  0  0  0
 21 16  1  0  0  0  0
 22 26  1  6  0  0  0
 22 23  1  0  0  0  0
 22 24  1  0  0  0  0
 23 24  1  0  0  0  0
 24 17  1  1  0  0  0
 25 26  2  0  0  0  0
 26 27  1  0  0  0  0
 27 29  1  0  0  0  0
 28 33  2  0  0  0  0
 28 29  1  0  0  0  0
 29 34  2  0  0  0  0
 31 32  2  0  0  0  0
 32 30  1  0  0  0  0
 33 31  1  0  0  0  0
 34 32  1  0  0  0  0
 37 39  1  6  0  0  0
 37 35  1  0  0  0  0
 37 38  1  0  0  0  0
 37 36  1  0  0  0  0
 38 36  1  0  0  0  0
 40 39  1  0  0  0  0
 41 40  2  0  0  0  0
 42 40  1  0  0  0  0
 42 43  1  0  0  0  0
M  END
>  <MODEL>
8

>  <REMARK>
 VINA RESULT:      -5.7      3.087      7.988
  Name = 
  10 active torsions:
  status: ('A' for Active; 'I' for Inactive)
    1  A    between atoms: O_1  and  C_34
    2  A    between atoms: O_1  and  C_35
    3  A    between atoms: C_2  and  C_13
    4  A    between atoms: C_3  and  C_42
    5  A    between atoms: O_4  and  C_14
    6  A    between atoms: O_4  and  C_41
    7  A    between atoms: C_9  and  C_19
    8  A    between atoms: C_10  and  C_41
    9  A    between atoms: C_19  and  C_32
   10  A    between atoms: C_32  and  C_35
                            x       y       z     vdW  Elec       q    Type
                         _______ _______ _______ _____ _____    ______ ____

>  <TORSDO>
F 10

$$$$
=
 OpenBabel11062410063D

 43 49  0  0  1  0  0  0  0  0999 V2000
  162.1820  204.0720  146.7640 C   0  0  0  0  0  2  0  0  0  0  0  0
  162.2660  208.0610  150.2610 C   0  0  2  0  0  3  0  0  0  0  0  0
  161.1270  210.3370  148.8260 C   0  0  1  0  0  3  0  0  0  0  0  0
  161.6290  205.3190  149.5860 C   0  0  0  0  0  0  0  0  0  0  0  0
  161.9760  205.5320  146.3680 C   0  0  0  0  0  2  0  0  0  0  0  0
  161.1120  203.6210  147.7530 C   0  0  0  0  0  2  0  0  0  0  0  0
  161.2770  206.4310  148.6080 C   0  0  2  0  0  3  0  0  0  0  0  0
  161.5670  203.8620  149.1900 C   0  0  0  0  0  2  0  0  0  0  0  0
  162.3360  206.4800  147.5030 C   0  0  0  0  0  2  0  0  0  0  0  0
  160.9250  208.9140  148.2770 C   0  0  0  0  0  2  0  0  0  0  0  0
  161.1040  207.7930  149.3050 C   0  0  2  0  0  3  0  0  0  0  0  0
  162.2620  206.9830  151.3480 C   0  0  0  0  0  2  0  0  0  0  0  0
  162.1070  209.4150  150.8880 C   0  0  0  0  0  0  0  0  0  0  0  0
  161.5810  210.4000  150.2170 N   0  0  0  0  0  0  0  0  0  0  0  0
  162.1420  205.5910  150.7960 C   0  0  0  0  0  3  0  0  0  0  0  0
  162.0480  211.1700  147.9350 C   0  0  2  0  0  3  0  0  0  0  0  0
  162.2390  213.1170  146.3650 C   0  0  0  0  0  0  0  0  0  0  0  0
  163.8020  212.8740  148.2330 C   0  0  0  0  0  3  0  0  0  0  0  0
  163.1450  211.8230  148.7330 C   0  0  0  0  0  3  0  0  0  0  0  0
  163.4060  213.4460  146.9330 C   0  0  0  0  0  3  0  0  0  0  0  0
  161.2840  212.1980  147.0880 C   0  0  0  0  0  2  0  0  0  0  0  0
  161.1200  212.5510  144.2130 C   0  0  2  0  0  3  0  0  0  0  0  0
  160.4410  213.7750  144.7940 C   0  0  0  0  0  2  0  0  0  0  0  0
  161.9380  213.5880  144.9750 C   0  0  1  0  0  3  0  0  0  0  0  0
  160.6470  213.5620  142.1160 O   0  0  0  0  0  0  0  0  0  0  0  0
  161.3530  212.7300  142.7490 C   0  0  0  0  0  0  0  0  0  0  0  0
  162.3690  211.9930  142.1100 O   0  0  0  0  0  0  0  0  0  0  0  0
  163.0820  212.1450  139.8120 C   0  0  0  0  0  3  0  0  0  0  0  0
  162.3300  211.4940  140.7990 C   0  0  0  0  0  0  0  0  0  0  0  0
  160.7310  208.7330  138.7470 C   0  0  0  0  0  1  0  0  0  0  0  0
  162.3000  210.5790  138.1390 C   0  0  0  0  0  3  0  0  0  0  0  0
  161.5520  209.9150  139.1170 C   0  0  0  0  0  0  0  0  0  0  0  0
  163.0680  211.6920  138.4880 C   0  0  0  0  0  3  0  0  0  0  0  0
  161.5690  210.3670  140.4420 C   0  0  0  0  0  3  0  0  0  0  0  0
  162.5470  209.6240  152.2030 O   0  0  0  0  0  0  0  0  0  0  0  0
  162.0750  210.7030  154.3990 C   0  0  0  0  0  2  0  0  0  0  0  0
  161.6600  209.8050  153.3020 C   0  0  1  0  0  0  0  0  0  0  0  0
  161.2170  211.1410  153.3690 O   0  0  0  0  0  0  0  0  0  0  0  0
  160.5190  208.8240  153.5140 C   0  0  0  0  0  2  0  0  0  0  0  0
  160.8370  207.8300  154.5840 C   0  0  0  0  0  0  0  0  0  0  0  0
  161.0850  206.5630  154.2500 C   0  0  0  0  0  2  0  0  0  0  0  0
  160.5360  208.1740  156.0120 C   0  0  0  0  0  2  0  0  0  0  0  0
  160.0100  206.9560  156.7420 C   0  0  0  0  0  1  0  0  0  0  0  0
  1  6  1  0  0  0  0
  2 13  1  0  0  0  0
  2 12  1  1  0  0  0
  3 10  1  6  0  0  0
  3 14  1  0  0  0  0
  4 15  2  0  0  0  0
  5  1  1  0  0  0  0
  5  9  1  0  0  0  0
  6  8  1  0  0  0  0
  7  9  1  6  0  0  0
  7 11  1  0  0  0  0
  7  4  1  0  0  0  0
  8  4  1  0  0  0  0
 11 10  1  6  0  0  0
 11  2  1  0  0  0  0
 13 35  1  0  0  0  0
 14 13  2  0  0  0  0
 15 12  1  0  0  0  0
 16 21  1  1  0  0  0
 16 19  1  0  0  0  0
 16  3  1  0  0  0  0
 17 20  2  0  0  0  0
 17 21  1  0  0  0  0
 18 19  2  0  0  0  0
 20 18  1  0  0  0  0
 22 26  1  6  0  0  0
 22 23  1  0  0  0  0
 22 24  1  0  0  0  0
 23 24  1  0  0  0  0
 24 17  1  1  0  0  0
 25 26  2  0  0  0  0
 27 26  1  0  0  0  0
 28 29  1  0  0  0  0
 29 27  1  0  0  0  0
 30 32  1  0  0  0  0
 31 33  1  0  0  0  0
 31 32  2  0  0  0  0
 32 34  1  0  0  0  0
 33 28  2  0  0  0  0
 34 29  2  0  0  0  0
 35 37  1  0  0  0  0
 37 38  1  0  0  0  0
 37 39  1  1  0  0  0
 37 36  1  0  0  0  0
 38 36  1  0  0  0  0
 39 40  1  0  0  0  0
 40 42  1  0  0  0  0
 41 40  2  0  0  0  0
 42 43  1  0  0  0  0
M  END
>  <MODEL>
9

>  <REMARK>
 VINA RESULT:      -5.0      3.853      7.010
  Name = 
  10 active torsions:
  status: ('A' for Active; 'I' for Inactive)
    1  A    between atoms: O_1  and  C_34
    2  A    between atoms: O_1  and  C_35
    3  A    between atoms: C_2  and  C_13
    4  A    between atoms: C_3  and  C_42
    5  A    between atoms: O_4  and  C_14
    6  A    between atoms: O_4  and  C_41
    7  A    between atoms: C_9  and  C_19
    8  A    between atoms: C_10  and  C_41
    9  A    between atoms: C_19  and  C_32
   10  A    between atoms: C_32  and  C_35
                            x       y       z     vdW  Elec       q    Type
                         _______ _______ _______ _____ _____    ______ ____

>  <TORSDO>
F 10

$$$$
