=
 OpenBabel11052422533D

 28 31  0  0  1  0  0  0  0  0999 V2000
  161.1190  209.6860  153.4030 C   0  0  1  0  0  3  0  0  0  0  0  0
  160.5910  206.9580  156.4760 O   0  0  0  0  0  0  0  0  0  0  0  0
  160.8720  206.3820  151.4110 C   0  0  2  0  0  3  0  0  0  0  0  0
  160.8540  207.2900  154.1280 C   0  0  0  0  0  0  0  0  0  0  0  0
  161.2870  207.8210  151.6930 C   0  0  0  0  0  2  0  0  0  0  0  0
  160.4460  209.2010  155.7490 C   0  0  0  0  0  3  0  0  0  0  0  0
  161.1200  205.9970  153.8890 C   0  0  0  0  0  3  0  0  0  0  0  0
  160.6320  207.7640  155.5080 C   0  0  0  0  0  0  0  0  0  0  0  0
  161.4020  205.4600  152.5120 C   0  0  0  0  0  2  0  0  0  0  0  0
  160.6360  210.0930  154.7740 C   0  0  0  0  0  3  0  0  0  0  0  0
  160.6380  208.2810  153.0000 C   0  0  2  0  0  3  0  0  0  0  0  0
  161.6000  206.8560  149.1180 C   0  0  0  0  0  3  0  0  0  0  0  0
  161.2070  203.8480  148.6770 C   0  0  0  0  0  3  0  0  0  0  0  0
  161.1660  205.6910  146.9960 C   0  0  0  0  0  0  0  0  0  0  0  0
  161.3230  205.9350  150.0520 C   0  0  0  0  0  0  0  0  0  0  0  0
  161.7710  203.7000  150.9040 F   0  0  0  0  0  0  0  0  0  0  0  0
  160.8190  204.4680  147.3960 C   0  0  0  0  0  3  0  0  0  0  0  0
  161.4790  204.4760  149.8300 C   0  0  0  0  0  0  0  0  0  0  0  0
  160.6790  206.1840  145.6800 C   0  0  0  0  0  1  0  0  0  0  0  0
  162.1320  206.5290  147.7630 C   0  0  0  0  0  2  0  0  0  0  0  0
  160.7630  210.7330  152.3840 C   0  0  0  0  0  0  0  0  0  0  0  0
  159.6420  211.5340  152.6250 C   0  0  0  0  0  3  0  0  0  0  0  0
  161.1460  211.9300  150.3000 C   0  0  0  0  0  0  0  0  0  0  0  0
  159.2730  212.5250  151.7140 C   0  0  0  0  0  3  0  0  0  0  0  0
  162.6400  210.1440  150.9530 O   0  0  0  0  0  1  0  0  0  0  0  0
  161.5220  210.9320  151.2110 C   0  0  0  0  0  0  0  0  0  0  0  0
  162.0700  212.2050  148.8340 Cl  0  0  0  0  0  0  0  0  0  0  0  0
  160.0230  212.7230  150.5530 C   0  0  0  0  0  3  0  0  0  0  0  0
  1 21  1  6  0  0  0
  1 10  1  0  0  0  0
  3 15  1  6  0  0  0
  3  5  1  0  0  0  0
  3  9  1  0  0  0  0
  4  8  1  0  0  0  0
  7  4  2  0  0  0  0
  8  6  1  0  0  0  0
  8  2  2  0  0  0  0
  9  7  1  0  0  0  0
 10  6  2  0  0  0  0
 11  5  1  6  0  0  0
 11  1  1  0  0  0  0
 11  4  1  0  0  0  0
 12 15  2  0  0  0  0
 13 18  2  0  0  0  0
 14 17  2  0  0  0  0
 14 20  1  0  0  0  0
 17 13  1  0  0  0  0
 18 15  1  0  0  0  0
 18 16  1  0  0  0  0
 19 14  1  0  0  0  0
 20 12  1  0  0  0  0
 21 22  1  0  0  0  0
 23 28  2  0  0  0  0
 23 26  1  0  0  0  0
 24 22  2  0  0  0  0
 25 26  1  0  0  0  0
 26 21  2  0  0  0  0
 27 23  1  0  0  0  0
 28 24  1  0  0  0  0
M  END
>  <MODEL>
1

>  <REMARK>
 VINA RESULT:      -9.0      0.000      0.000
  Name = 
  2 active torsions:
  status: ('A' for Active; 'I' for Inactive)
    1  A    between atoms: C_1  and  C_2
    2  A    between atoms: C_10  and  C_13
                            x       y       z     vdW  Elec       q    Type
                         _______ _______ _______ _____ _____    ______ ____

>  <TORSDO>
F 2

$$$$
=
 OpenBabel11052422533D

 28 31  0  0  1  0  0  0  0  0999 V2000
  159.3760  213.4240  152.1290 C   0  0  1  0  0  3  0  0  0  0  0  0
  159.4170  213.3030  156.2710 O   0  0  0  0  0  0  0  0  0  0  0  0
  160.3410  209.7310  152.7420 C   0  0  2  0  0  3  0  0  0  0  0  0
  159.7880  212.1110  154.2380 C   0  0  0  0  0  0  0  0  0  0  0  0
  160.2670  211.0540  151.9900 C   0  0  0  0  0  2  0  0  0  0  0  0
  158.6630  214.3870  154.3110 C   0  0  0  0  0  3  0  0  0  0  0  0
  160.4580  211.1180  154.8420 C   0  0  0  0  0  3  0  0  0  0  0  0
  159.3020  213.2660  155.0170 C   0  0  0  0  0  0  0  0  0  0  0  0
  161.0200  209.9380  154.0980 C   0  0  0  0  0  2  0  0  0  0  0  0
  158.6630  214.4500  152.9770 C   0  0  0  0  0  3  0  0  0  0  0  0
  159.3880  212.0280  152.7760 C   0  0  2  0  0  3  0  0  0  0  0  0
  161.6530  209.0220  150.7950 C   0  0  0  0  0  3  0  0  0  0  0  0
  160.9540  206.1840  151.7190 C   0  0  0  0  0  3  0  0  0  0  0  0
  161.5740  206.9740  149.4340 C   0  0  0  0  0  0  0  0  0  0  0  0
  161.0340  208.6750  151.9330 C   0  0  0  0  0  0  0  0  0  0  0  0
  160.9470  207.1350  153.8140 F   0  0  0  0  0  0  0  0  0  0  0  0
  160.9730  206.1040  150.2450 C   0  0  0  0  0  3  0  0  0  0  0  0
  161.0310  207.2920  152.4690 C   0  0  0  0  0  0  0  0  0  0  0  0
  161.4880  206.7680  147.9650 C   0  0  0  0  0  1  0  0  0  0  0  0
  162.4390  208.0720  149.9560 C   0  0  0  0  0  2  0  0  0  0  0  0
  158.8160  213.4090  150.7340 C   0  0  0  0  0  0  0  0  0  0  0  0
  157.4500  213.1520  150.5750 C   0  0  0  0  0  3  0  0  0  0  0  0
  159.0350  213.6330  148.3210 C   0  0  0  0  0  0  0  0  0  0  0  0
  156.8780  213.1340  149.3010 C   0  0  0  0  0  3  0  0  0  0  0  0
  160.9760  213.9090  149.7360 O   0  0  0  0  0  1  0  0  0  0  0  0
  159.6160  213.6520  149.5980 C   0  0  0  0  0  0  0  0  0  0  0  0
  160.0020  213.9340  146.8880 Cl  0  0  0  0  0  0  0  0  0  0  0  0
  157.6690  213.3740  148.1760 C   0  0  0  0  0  3  0  0  0  0  0  0
  1 21  1  6  0  0  0
  1 11  1  0  0  0  0
  1 10  1  0  0  0  0
  3 15  1  6  0  0  0
  3  9  1  0  0  0  0
  4  7  2  0  0  0  0
  4  8  1  0  0  0  0
  5  3  1  0  0  0  0
  6  8  1  0  0  0  0
  8  2  2  0  0  0  0
  9  7  1  0  0  0  0
 10  6  2  0  0  0  0
 11  5  1  6  0  0  0
 11  4  1  0  0  0  0
 12 15  2  0  0  0  0
 13 18  2  0  0  0  0
 14 20  1  0  0  0  0
 14 17  2  0  0  0  0
 15 18  1  0  0  0  0
 17 13  1  0  0  0  0
 18 16  1  0  0  0  0
 19 14  1  0  0  0  0
 20 12  1  0  0  0  0
 22 21  1  0  0  0  0
 23 26  1  0  0  0  0
 24 22  2  0  0  0  0
 26 25  1  0  0  0  0
 26 21  2  0  0  0  0
 27 23  1  0  0  0  0
 28 23  2  0  0  0  0
 28 24  1  0  0  0  0
M  END
>  <MODEL>
2

>  <REMARK>
 VINA RESULT:      -8.9      2.476      4.100
  Name = 
  2 active torsions:
  status: ('A' for Active; 'I' for Inactive)
    1  A    between atoms: C_1  and  C_2
    2  A    between atoms: C_10  and  C_13
                            x       y       z     vdW  Elec       q    Type
                         _______ _______ _______ _____ _____    ______ ____

>  <TORSDO>
F 2

$$$$
=
 OpenBabel11052422533D

 28 31  0  0  1  0  0  0  0  0999 V2000
  161.8580  208.2330  152.0210 C   0  0  1  0  0  3  0  0  0  0  0  0
  160.4200  206.5290  155.5130 O   0  0  0  0  0  0  0  0  0  0  0  0
  160.8430  204.7230  150.7580 C   0  0  2  0  0  3  0  0  0  0  0  0
  160.9070  206.2210  153.1990 C   0  0  0  0  0  0  0  0  0  0  0  0
  161.6160  206.0360  150.7770 C   0  0  0  0  0  2  0  0  0  0  0  0
  160.9360  208.5000  154.3170 C   0  0  0  0  0  3  0  0  0  0  0  0
  160.8240  204.8840  153.2720 C   0  0  0  0  0  3  0  0  0  0  0  0
  160.7380  207.0470  154.4100 C   0  0  0  0  0  0  0  0  0  0  0  0
  161.0330  203.9840  152.0850 C   0  0  0  0  0  2  0  0  0  0  0  0
  161.4210  209.0600  153.2060 C   0  0  0  0  0  3  0  0  0  0  0  0
  161.0390  206.9390  151.8680 C   0  0  2  0  0  3  0  0  0  0  0  0
  161.6240  204.4580  148.4480 C   0  0  0  0  0  3  0  0  0  0  0  0
  160.8710  201.5120  148.8350 C   0  0  0  0  0  3  0  0  0  0  0  0
  161.0530  202.8110  146.7120 C   0  0  0  0  0  0  0  0  0  0  0  0
  161.2370  203.8690  149.5890 C   0  0  0  0  0  0  0  0  0  0  0  0
  161.4120  201.9190  151.0340 F   0  0  0  0  0  0  0  0  0  0  0  0
  160.5610  201.7950  147.4200 C   0  0  0  0  0  3  0  0  0  0  0  0
  161.2160  202.3980  149.7800 C   0  0  0  0  0  0  0  0  0  0  0  0
  160.6300  202.9750  145.2970 C   0  0  0  0  0  1  0  0  0  0  0  0
  162.1130  203.7110  147.2540 C   0  0  0  0  0  2  0  0  0  0  0  0
  161.8630  209.0640  150.7680 C   0  0  0  0  0  0  0  0  0  0  0  0
  162.1520  208.4280  149.5560 C   0  0  0  0  0  3  0  0  0  0  0  0
  161.5930  211.1690  149.5760 C   0  0  0  0  0  0  0  0  0  0  0  0
  162.1630  209.1530  148.3630 C   0  0  0  0  0  3  0  0  0  0  0  0
  161.2920  211.0960  151.9750 O   0  0  0  0  0  1  0  0  0  0  0  0
  161.5810  210.4460  150.7790 C   0  0  0  0  0  0  0  0  0  0  0  0
  161.2430  212.8880  149.5560 Cl  0  0  0  0  0  0  0  0  0  0  0  0
  161.8830  210.5200  148.3730 C   0  0  0  0  0  3  0  0  0  0  0  0
  1 21  1  6  0  0  0
  1 10  1  0  0  0  0
  3 15  1  6  0  0  0
  3  5  1  0  0  0  0
  3  9  1  0  0  0  0
  4  7  2  0  0  0  0
  4  8  1  0  0  0  0
  6  8  1  0  0  0  0
  8  2  2  0  0  0  0
  9  7  1  0  0  0  0
 10  6  2  0  0  0  0
 11  5  1  6  0  0  0
 11  1  1  0  0  0  0
 11  4  1  0  0  0  0
 12 15  2  0  0  0  0
 13 18  2  0  0  0  0
 14 20  1  0  0  0  0
 14 17  2  0  0  0  0
 15 18  1  0  0  0  0
 17 13  1  0  0  0  0
 18 16  1  0  0  0  0
 19 14  1  0  0  0  0
 20 12  1  0  0  0  0
 21 26  1  0  0  0  0
 22 21  2  0  0  0  0
 23 26  2  0  0  0  0
 24 28  2  0  0  0  0
 24 22  1  0  0  0  0
 26 25  1  0  0  0  0
 27 23  1  0  0  0  0
 28 23  1  0  0  0  0
M  END
>  <MODEL>
3

>  <REMARK>
 VINA RESULT:      -8.8      1.665      2.482
  Name = 
  2 active torsions:
  status: ('A' for Active; 'I' for Inactive)
    1  A    between atoms: C_1  and  C_2
    2  A    between atoms: C_10  and  C_13
                            x       y       z     vdW  Elec       q    Type
                         _______ _______ _______ _____ _____    ______ ____

>  <TORSDO>
F 2

$$$$
=
 OpenBabel11052422533D

 28 31  0  0  1  0  0  0  0  0999 V2000
  161.8140  209.1350  151.6830 C   0  0  1  0  0  3  0  0  0  0  0  0
  160.6420  206.6210  154.7600 O   0  0  0  0  0  0  0  0  0  0  0  0
  161.1130  205.8720  149.7330 C   0  0  2  0  0  3  0  0  0  0  0  0
  161.0950  206.8410  152.4280 C   0  0  0  0  0  0  0  0  0  0  0  0
  161.7550  207.2250  150.0160 C   0  0  0  0  0  2  0  0  0  0  0  0
  160.9310  208.8360  153.9910 C   0  0  0  0  0  3  0  0  0  0  0  0
  161.1450  205.5160  152.2260 C   0  0  0  0  0  3  0  0  0  0  0  0
  160.8780  207.3820  153.7840 C   0  0  0  0  0  0  0  0  0  0  0  0
  161.4090  204.9020  150.8780 C   0  0  0  0  0  2  0  0  0  0  0  0
  161.3300  209.6550  153.0150 C   0  0  0  0  0  3  0  0  0  0  0  0
  161.1210  207.8240  151.2730 C   0  0  2  0  0  3  0  0  0  0  0  0
  162.0510  206.1510  147.4840 C   0  0  0  0  0  3  0  0  0  0  0  0
  161.1540  203.2510  147.0610 C   0  0  0  0  0  3  0  0  0  0  0  0
  161.5440  205.0290  145.3540 C   0  0  0  0  0  0  0  0  0  0  0  0
  161.5580  205.3180  148.4110 C   0  0  0  0  0  0  0  0  0  0  0  0
  161.5480  203.0610  149.3200 F   0  0  0  0  0  0  0  0  0  0  0  0
  160.9610  203.8980  145.7490 C   0  0  0  0  0  3  0  0  0  0  0  0
  161.4640  203.8500  148.2200 C   0  0  0  0  0  0  0  0  0  0  0  0
  161.2320  205.5670  144.0040 C   0  0  0  0  0  1  0  0  0  0  0  0
  162.5960  205.7010  146.1700 C   0  0  0  0  0  2  0  0  0  0  0  0
  161.7060  210.2000  150.6270 C   0  0  0  0  0  0  0  0  0  0  0  0
  162.2990  209.9590  149.3840 C   0  0  0  0  0  3  0  0  0  0  0  0
  160.9490  212.3690  149.8230 C   0  0  0  0  0  0  0  0  0  0  0  0
  162.2210  210.9120  148.3660 C   0  0  0  0  0  3  0  0  0  0  0  0
  160.4290  211.6740  152.0800 O   0  0  0  0  0  1  0  0  0  0  0  0
  161.0250  211.4150  150.8490 C   0  0  0  0  0  0  0  0  0  0  0  0
  160.1070  213.8890  150.0670 Cl  0  0  0  0  0  0  0  0  0  0  0  0
  161.5470  212.1150  148.5850 C   0  0  0  0  0  3  0  0  0  0  0  0
  1 21  1  6  0  0  0
  1 10  1  0  0  0  0
  3 15  1  6  0  0  0
  3  5  1  0  0  0  0
  3  9  1  0  0  0  0
  4  8  1  0  0  0  0
  7  4  2  0  0  0  0
  8  6  1  0  0  0  0
  8  2  2  0  0  0  0
  9  7  1  0  0  0  0
 10  6  2  0  0  0  0
 11  5  1  6  0  0  0
 11  1  1  0  0  0  0
 11  4  1  0  0  0  0
 12 15  2  0  0  0  0
 13 18  2  0  0  0  0
 14 17  2  0  0  0  0
 14 20  1  0  0  0  0
 17 13  1  0  0  0  0
 18 15  1  0  0  0  0
 18 16  1  0  0  0  0
 19 14  1  0  0  0  0
 20 12  1  0  0  0  0
 21 26  1  0  0  0  0
 22 21  2  0  0  0  0
 23 27  1  0  0  0  0
 23 26  2  0  0  0  0
 24 28  2  0  0  0  0
 24 22  1  0  0  0  0
 26 25  1  0  0  0  0
 28 23  1  0  0  0  0
M  END
>  <MODEL>
4

>  <REMARK>
 VINA RESULT:      -8.7      1.488      2.205
  Name = 
  2 active torsions:
  status: ('A' for Active; 'I' for Inactive)
    1  A    between atoms: C_1  and  C_2
    2  A    between atoms: C_10  and  C_13
                            x       y       z     vdW  Elec       q    Type
                         _______ _______ _______ _____ _____    ______ ____

>  <TORSDO>
F 2

$$$$
=
 OpenBabel11052422533D

 28 31  0  0  1  0  0  0  0  0999 V2000
  160.4170  211.5700  153.4450 C   0  0  1  0  0  3  0  0  0  0  0  0
  160.3140  209.6700  157.1260 O   0  0  0  0  0  0  0  0  0  0  0  0
  160.6750  207.8670  152.3640 C   0  0  2  0  0  3  0  0  0  0  0  0
  160.5210  209.4260  154.7620 C   0  0  0  0  0  0  0  0  0  0  0  0
  160.8660  209.3750  152.2570 C   0  0  0  0  0  2  0  0  0  0  0  0
  159.8280  211.6070  155.8630 C   0  0  0  0  0  3  0  0  0  0  0  0
  160.9800  208.1690  154.8460 C   0  0  0  0  0  3  0  0  0  0  0  0
  160.2310  210.1990  155.9860 C   0  0  0  0  0  0  0  0  0  0  0  0
  161.3400  207.3450  153.6400 C   0  0  0  0  0  2  0  0  0  0  0  0
  159.8790  212.2380  154.6870 C   0  0  0  0  0  3  0  0  0  0  0  0
  160.1560  210.0530  153.4300 C   0  0  2  0  0  3  0  0  0  0  0  0
  161.5330  207.8770  150.0670 C   0  0  0  0  0  3  0  0  0  0  0  0
  161.1000  204.8450  150.1970 C   0  0  0  0  0  3  0  0  0  0  0  0
  161.1870  206.3250  148.1900 C   0  0  0  0  0  0  0  0  0  0  0  0
  161.1870  207.1590  151.1450 C   0  0  0  0  0  0  0  0  0  0  0  0
  161.5420  205.1280  152.4380 F   0  0  0  0  0  0  0  0  0  0  0  0
  160.7930  205.2080  148.8000 C   0  0  0  0  0  3  0  0  0  0  0  0
  161.3240  205.6830  151.2190 C   0  0  0  0  0  0  0  0  0  0  0  0
  160.7800  206.5570  146.7790 C   0  0  0  0  0  1  0  0  0  0  0  0
  162.1280  207.2860  148.8330 C   0  0  0  0  0  2  0  0  0  0  0  0
  159.9050  212.2570  152.2100 C   0  0  0  0  0  0  0  0  0  0  0  0
  160.7980  212.4670  151.1550 C   0  0  0  0  0  3  0  0  0  0  0  0
  158.1420  213.3100  150.9030 C   0  0  0  0  0  0  0  0  0  0  0  0
  160.3710  213.0940  149.9820 C   0  0  0  0  0  3  0  0  0  0  0  0
  157.6620  212.4810  153.1240 O   0  0  0  0  0  1  0  0  0  0  0  0
  158.5650  212.6810  152.0840 C   0  0  0  0  0  0  0  0  0  0  0  0
  156.4830  213.8470  150.7150 Cl  0  0  0  0  0  0  0  0  0  0  0  0
  159.0460  213.5140  149.8560 C   0  0  0  0  0  3  0  0  0  0  0  0
  1 21  1  6  0  0  0
  1 10  1  0  0  0  0
  3 15  1  6  0  0  0
  3  9  1  0  0  0  0
  4  7  2  0  0  0  0
  4  8  1  0  0  0  0
  5  3  1  0  0  0  0
  6  8  1  0  0  0  0
  8  2  2  0  0  0  0
  9  7  1  0  0  0  0
 10  6  2  0  0  0  0
 11  5  1  6  0  0  0
 11  1  1  0  0  0  0
 11  4  1  0  0  0  0
 12 15  2  0  0  0  0
 13 18  2  0  0  0  0
 14 17  2  0  0  0  0
 14 20  1  0  0  0  0
 15 18  1  0  0  0  0
 17 13  1  0  0  0  0
 18 16  1  0  0  0  0
 19 14  1  0  0  0  0
 20 12  1  0  0  0  0
 22 21  2  0  0  0  0
 23 26  2  0  0  0  0
 24 22  1  0  0  0  0
 26 21  1  0  0  0  0
 26 25  1  0  0  0  0
 27 23  1  0  0  0  0
 28 24  2  0  0  0  0
 28 23  1  0  0  0  0
M  END
>  <MODEL>
5

>  <REMARK>
 VINA RESULT:      -8.7      2.043      2.593
  Name = 
  2 active torsions:
  status: ('A' for Active; 'I' for Inactive)
    1  A    between atoms: C_1  and  C_2
    2  A    between atoms: C_10  and  C_13
                            x       y       z     vdW  Elec       q    Type
                         _______ _______ _______ _____ _____    ______ ____

>  <TORSDO>
F 2

$$$$
=
 OpenBabel11052422533D

 28 31  0  0  1  0  0  0  0  0999 V2000
  160.7450  203.6670  148.4680 C   0  0  1  0  0  3  0  0  0  0  0  0
  160.6480  200.3030  150.8850 O   0  0  0  0  0  0  0  0  0  0  0  0
  161.7180  205.1930  151.8840 C   0  0  2  0  0  3  0  0  0  0  0  0
  160.9760  202.6620  150.7660 C   0  0  0  0  0  0  0  0  0  0  0  0
  161.1490  205.1690  150.4710 C   0  0  0  0  0  2  0  0  0  0  0  0
  160.8230  201.1900  148.7020 C   0  0  0  0  0  3  0  0  0  0  0  0
  160.8690  202.8310  152.0920 C   0  0  0  0  0  3  0  0  0  0  0  0
  160.8030  201.3250  150.1660 C   0  0  0  0  0  0  0  0  0  0  0  0
  160.9870  204.1730  152.7600 C   0  0  0  0  0  2  0  0  0  0  0  0
  160.8310  202.2660  147.9120 C   0  0  0  0  0  3  0  0  0  0  0  0
  161.4070  203.7950  149.8520 C   0  0  2  0  0  3  0  0  0  0  0  0
  161.2280  206.7260  153.7350 C   0  0  0  0  0  3  0  0  0  0  0  0
  161.6130  208.9260  151.6360 C   0  0  0  0  0  3  0  0  0  0  0  0
  160.3100  209.0080  153.7620 C   0  0  0  0  0  0  0  0  0  0  0  0
  161.6630  206.5700  152.4770 C   0  0  0  0  0  0  0  0  0  0  0  0
  163.0810  207.4250  150.6930 F   0  0  0  0  0  0  0  0  0  0  0  0
  160.5520  209.4380  152.5250 C   0  0  0  0  0  3  0  0  0  0  0  0
  162.1430  207.6950  151.6360 C   0  0  0  0  0  0  0  0  0  0  0  0
  159.1890  209.6120  154.5290 C   0  0  0  0  0  1  0  0  0  0  0  0
  161.2080  208.0350  154.4500 C   0  0  0  0  0  2  0  0  0  0  0  0
  161.2800  204.6640  147.4780 C   0  0  0  0  0  0  0  0  0  0  0  0
  161.9110  205.8100  147.9720 C   0  0  0  0  0  3  0  0  0  0  0  0
  161.6970  205.4360  145.2080 C   0  0  0  0  0  0  0  0  0  0  0  0
  162.4310  206.7640  147.0950 C   0  0  0  0  0  3  0  0  0  0  0  0
  160.5460  203.3410  145.5740 O   0  0  0  0  0  1  0  0  0  0  0  0
  161.1720  204.4740  146.0840 C   0  0  0  0  0  0  0  0  0  0  0  0
  161.5810  205.2290  143.4700 Cl  0  0  0  0  0  0  0  0  0  0  0  0
  162.3250  206.5770  145.7160 C   0  0  0  0  0  3  0  0  0  0  0  0
  1 21  1  6  0  0  0
  1 11  1  0  0  0  0
  3 15  1  1  0  0  0
  3  9  1  0  0  0  0
  4  7  2  0  0  0  0
  5  3  1  0  0  0  0
  6  8  1  0  0  0  0
  7  9  1  0  0  0  0
  8  4  1  0  0  0  0
  8  2  2  0  0  0  0
 10  1  1  0  0  0  0
 10  6  2  0  0  0  0
 11  5  1  1  0  0  0
 11  4  1  0  0  0  0
 12 20  1  0  0  0  0
 13 17  1  0  0  0  0
 14 20  1  0  0  0  0
 14 19  1  0  0  0  0
 15 12  2  0  0  0  0
 16 18  1  0  0  0  0
 17 14  2  0  0  0  0
 18 13  2  0  0  0  0
 18 15  1  0  0  0  0
 21 22  1  0  0  0  0
 23 28  2  0  0  0  0
 23 26  1  0  0  0  0
 24 22  2  0  0  0  0
 25 26  1  0  0  0  0
 26 21  2  0  0  0  0
 27 23  1  0  0  0  0
 28 24  1  0  0  0  0
M  END
>  <MODEL>
6

>  <REMARK>
 VINA RESULT:      -8.5      3.376      7.083
  Name = 
  2 active torsions:
  status: ('A' for Active; 'I' for Inactive)
    1  A    between atoms: C_1  and  C_2
    2  A    between atoms: C_10  and  C_13
                            x       y       z     vdW  Elec       q    Type
                         _______ _______ _______ _____ _____    ______ ____

>  <TORSDO>
F 2

$$$$
=
 OpenBabel11052422533D

 28 31  0  0  1  0  0  0  0  0999 V2000
  160.8130  207.6420  152.3530 C   0  0  1  0  0  3  0  0  0  0  0  0
  161.1060  207.5710  156.4860 O   0  0  0  0  0  0  0  0  0  0  0  0
  160.1590  211.3580  153.1970 C   0  0  2  0  0  3  0  0  0  0  0  0
  160.6600  208.8790  154.5410 C   0  0  0  0  0  0  0  0  0  0  0  0
  160.0810  210.0700  152.3860 C   0  0  0  0  0  2  0  0  0  0  0  0
  161.6260  206.5330  154.4280 C   0  0  0  0  0  3  0  0  0  0  0  0
  160.1110  209.8840  155.2390 C   0  0  0  0  0  3  0  0  0  0  0  0
  161.1250  207.6590  155.2290 C   0  0  0  0  0  0  0  0  0  0  0  0
  159.5760  211.1330  154.5940 C   0  0  0  0  0  2  0  0  0  0  0  0
  161.5170  206.5330  153.0970 C   0  0  0  0  0  3  0  0  0  0  0  0
  160.9490  209.0040  153.0570 C   0  0  2  0  0  3  0  0  0  0  0  0
  158.6010  213.2520  153.1620 C   0  0  0  0  0  3  0  0  0  0  0  0
  159.0160  213.1680  150.1270 C   0  0  0  0  0  3  0  0  0  0  0  0
  157.0840  214.0840  151.4140 C   0  0  0  0  0  0  0  0  0  0  0  0
  159.4800  212.4950  152.4910 C   0  0  0  0  0  0  0  0  0  0  0  0
  161.1060  212.3810  150.6830 F   0  0  0  0  0  0  0  0  0  0  0  0
  157.6060  213.5700  150.3010 C   0  0  0  0  0  3  0  0  0  0  0  0
  159.8600  212.7460  151.0790 C   0  0  0  0  0  0  0  0  0  0  0  0
  155.6370  214.4230  151.4410 C   0  0  0  0  0  1  0  0  0  0  0  0
  157.9300  214.4530  152.5860 C   0  0  0  0  0  2  0  0  0  0  0  0
  161.2610  207.6860  150.9190 C   0  0  0  0  0  0  0  0  0  0  0  0
  161.8890  208.8490  150.4600 C   0  0  0  0  0  3  0  0  0  0  0  0
  161.5240  206.6950  148.7120 C   0  0  0  0  0  0  0  0  0  0  0  0
  162.3310  208.9380  149.1380 C   0  0  0  0  0  3  0  0  0  0  0  0
  160.4550  205.4350  150.4770 O   0  0  0  0  0  1  0  0  0  0  0  0
  161.0770  206.5990  150.0390 C   0  0  0  0  0  0  0  0  0  0  0  0
  161.3130  205.3610  147.5930 Cl  0  0  0  0  0  0  0  0  0  0  0  0
  162.1500  207.8630  148.2660 C   0  0  0  0  0  3  0  0  0  0  0  0
  1 21  1  6  0  0  0
  1 11  1  0  0  0  0
  1 10  1  0  0  0  0
  3 15  1  6  0  0  0
  3  9  1  0  0  0  0
  4  8  1  0  0  0  0
  4  7  2  0  0  0  0
  5  3  1  0  0  0  0
  6  8  1  0  0  0  0
  8  2  2  0  0  0  0
  9  7  1  0  0  0  0
 10  6  2  0  0  0  0
 11  5  1  6  0  0  0
 11  4  1  0  0  0  0
 13 17  1  0  0  0  0
 13 18  2  0  0  0  0
 14 19  1  0  0  0  0
 14 20  1  0  0  0  0
 15 12  2  0  0  0  0
 16 18  1  0  0  0  0
 17 14  2  0  0  0  0
 18 15  1  0  0  0  0
 20 12  1  0  0  0  0
 22 21  1  0  0  0  0
 23 26  1  0  0  0  0
 24 22  2  0  0  0  0
 26 25  1  0  0  0  0
 26 21  2  0  0  0  0
 27 23  1  0  0  0  0
 28 23  2  0  0  0  0
 28 24  1  0  0  0  0
M  END
>  <MODEL>
7

>  <REMARK>
 VINA RESULT:      -8.5      2.771      6.398
  Name = 
  2 active torsions:
  status: ('A' for Active; 'I' for Inactive)
    1  A    between atoms: C_1  and  C_2
    2  A    between atoms: C_10  and  C_13
                            x       y       z     vdW  Elec       q    Type
                         _______ _______ _______ _____ _____    ______ ____

>  <TORSDO>
F 2

$$$$
=
 OpenBabel11052422533D

 28 31  0  0  1  0  0  0  0  0999 V2000
  160.8930  206.3610  150.8300 C   0  0  1  0  0  3  0  0  0  0  0  0
  161.2060  206.9890  154.9140 O   0  0  0  0  0  0  0  0  0  0  0  0
  161.7180  210.1370  150.9280 C   0  0  2  0  0  3  0  0  0  0  0  0
  161.2600  207.9640  152.7370 C   0  0  0  0  0  0  0  0  0  0  0  0
  161.1420  208.8420  150.3680 C   0  0  0  0  0  2  0  0  0  0  0  0
  161.2570  205.4530  153.1190 C   0  0  0  0  0  3  0  0  0  0  0  0
  161.1470  209.2170  153.2020 C   0  0  0  0  0  3  0  0  0  0  0  0
  161.2360  206.8170  153.6660 C   0  0  0  0  0  0  0  0  0  0  0  0
  161.1170  210.4240  152.3050 C   0  0  0  0  0  2  0  0  0  0  0  0
  161.1340  205.2360  151.8070 C   0  0  0  0  0  3  0  0  0  0  0  0
  161.5490  207.6800  151.2750 C   0  0  2  0  0  3  0  0  0  0  0  0
  160.9780  212.4250  150.4460 C   0  0  0  0  0  3  0  0  0  0  0  0
  161.3300  211.6140  147.5110 C   0  0  0  0  0  3  0  0  0  0  0  0
  159.8800  213.4020  148.4740 C   0  0  0  0  0  0  0  0  0  0  0  0
  161.5120  211.2850  149.9840 C   0  0  0  0  0  0  0  0  0  0  0  0
  162.9760  210.2400  148.3460 F   0  0  0  0  0  0  0  0  0  0  0  0
  160.1720  212.5290  147.5110 C   0  0  0  0  0  3  0  0  0  0  0  0
  161.9560  211.1030  148.5800 C   0  0  0  0  0  0  0  0  0  0  0  0
  158.6640  214.2460  148.3380 C   0  0  0  0  0  1  0  0  0  0  0  0
  160.8030  213.6530  149.6180 C   0  0  0  0  0  2  0  0  0  0  0  0
  161.3000  205.9530  149.4420 C   0  0  0  0  0  0  0  0  0  0  0  0
  161.9270  206.9060  148.6320 C   0  0  0  0  0  3  0  0  0  0  0  0
  161.4880  204.3260  147.6410 C   0  0  0  0  0  0  0  0  0  0  0  0
  162.3310  206.5760  147.3360 C   0  0  0  0  0  3  0  0  0  0  0  0
  160.4560  203.6910  149.7340 O   0  0  0  0  0  1  0  0  0  0  0  0
  161.0790  204.6520  148.9430 C   0  0  0  0  0  0  0  0  0  0  0  0
  161.2290  202.7170  146.9920 Cl  0  0  0  0  0  0  0  0  0  0  0  0
  162.1130  205.2880  146.8420 C   0  0  0  0  0  3  0  0  0  0  0  0
  1 21  1  6  0  0  0
  1 11  1  0  0  0  0
  1 10  1  0  0  0  0
  3 15  1  6  0  0  0
  3  9  1  0  0  0  0
  4  7  2  0  0  0  0
  4  8  1  0  0  0  0
  5  3  1  0  0  0  0
  6  8  1  0  0  0  0
  8  2  2  0  0  0  0
  9  7  1  0  0  0  0
 10  6  2  0  0  0  0
 11  5  1  6  0  0  0
 11  4  1  0  0  0  0
 13 17  1  0  0  0  0
 13 18  2  0  0  0  0
 14 20  1  0  0  0  0
 15 12  2  0  0  0  0
 16 18  1  0  0  0  0
 17 14  2  0  0  0  0
 18 15  1  0  0  0  0
 19 14  1  0  0  0  0
 20 12  1  0  0  0  0
 22 21  2  0  0  0  0
 23 26  2  0  0  0  0
 24 22  1  0  0  0  0
 26 21  1  0  0  0  0
 26 25  1  0  0  0  0
 27 23  1  0  0  0  0
 28 24  2  0  0  0  0
 28 23  1  0  0  0  0
M  END
>  <MODEL>
8

>  <REMARK>
 VINA RESULT:      -8.5      2.953      6.222
  Name = 
  2 active torsions:
  status: ('A' for Active; 'I' for Inactive)
    1  A    between atoms: C_1  and  C_2
    2  A    between atoms: C_10  and  C_13
                            x       y       z     vdW  Elec       q    Type
                         _______ _______ _______ _____ _____    ______ ____

>  <TORSDO>
F 2

$$$$
=
 OpenBabel11052422533D

 28 31  0  0  1  0  0  0  0  0999 V2000
  161.0190  209.0160  151.4400 C   0  0  1  0  0  3  0  0  0  0  0  0
  162.7010  211.0730  148.2610 O   0  0  0  0  0  0  0  0  0  0  0  0
  161.6640  206.1230  148.9570 C   0  0  2  0  0  3  0  0  0  0  0  0
  161.9550  208.9690  149.1030 C   0  0  0  0  0  0  0  0  0  0  0  0
  160.9850  206.8590  150.1060 C   0  0  0  0  0  2  0  0  0  0  0  0
  162.1930  211.0300  150.5680 C   0  0  0  0  0  3  0  0  0  0  0  0
  161.9560  208.3880  147.8940 C   0  0  0  0  0  3  0  0  0  0  0  0
  162.3040  210.3960  149.2470 C   0  0  0  0  0  0  0  0  0  0  0  0
  161.5660  206.9520  147.6750 C   0  0  0  0  0  2  0  0  0  0  0  0
  161.6320  210.3870  151.5950 C   0  0  0  0  0  3  0  0  0  0  0  0
  161.7310  208.1680  150.3720 C   0  0  2  0  0  3  0  0  0  0  0  0
  160.6410  204.0760  149.8400 C   0  0  0  0  0  3  0  0  0  0  0  0
  161.2070  202.9350  147.0520 C   0  0  0  0  0  3  0  0  0  0  0  0
  160.9130  201.7140  149.2080 C   0  0  0  0  0  0  0  0  0  0  0  0
  161.0940  204.7480  148.7710 C   0  0  0  0  0  0  0  0  0  0  0  0
  160.9170  205.1140  146.3720 F   0  0  0  0  0  0  0  0  0  0  0  0
  161.3960  201.7940  147.9690 C   0  0  0  0  0  3  0  0  0  0  0  0
  161.0240  204.2200  147.3870 C   0  0  0  0  0  0  0  0  0  0  0  0
  161.2060  200.5030  150.0190 C   0  0  0  0  0  1  0  0  0  0  0  0
  159.9820  202.7400  149.7610 C   0  0  0  0  0  2  0  0  0  0  0  0
  160.9370  208.3190  152.7700 C   0  0  0  0  0  0  0  0  0  0  0  0
  161.2590  206.9590  152.8230 C   0  0  0  0  0  3  0  0  0  0  0  0
  160.5070  208.2910  155.1650 C   0  0  0  0  0  0  0  0  0  0  0  0
  161.2060  206.2670  154.0350 C   0  0  0  0  0  3  0  0  0  0  0  0
  160.2330  210.3440  153.9180 O   0  0  0  0  0  1  0  0  0  0  0  0
  160.5580  208.9920  153.9510 C   0  0  0  0  0  0  0  0  0  0  0  0
  160.0410  209.0980  156.6520 Cl  0  0  0  0  0  0  0  0  0  0  0  0
  160.8310  206.9310  155.2040 C   0  0  0  0  0  3  0  0  0  0  0  0
  1 10  1  0  0  0  0
  1 21  1  1  0  0  0
  2  8  2  0  0  0  0
  3 15  1  6  0  0  0
  3  5  1  0  0  0  0
  4  8  1  0  0  0  0
  4 11  1  0  0  0  0
  6 10  2  0  0  0  0
  7  4  2  0  0  0  0
  8  6  1  0  0  0  0
  9  7  1  0  0  0  0
  9  3  1  0  0  0  0
 11  5  1  6  0  0  0
 11  1  1  0  0  0  0
 13 18  2  0  0  0  0
 13 17  1  0  0  0  0
 14 20  1  0  0  0  0
 14 19  1  0  0  0  0
 15 12  2  0  0  0  0
 16 18  1  0  0  0  0
 17 14  2  0  0  0  0
 18 15  1  0  0  0  0
 20 12  1  0  0  0  0
 21 22  2  0  0  0  0
 21 26  1  0  0  0  0
 22 24  1  0  0  0  0
 23 28  1  0  0  0  0
 23 27  1  0  0  0  0
 24 28  2  0  0  0  0
 25 26  1  0  0  0  0
 26 23  2  0  0  0  0
M  END
>  <MODEL>
9

>  <REMARK>
 VINA RESULT:      -8.3      2.509      5.082
  Name = 
  2 active torsions:
  status: ('A' for Active; 'I' for Inactive)
    1  A    between atoms: C_1  and  C_2
    2  A    between atoms: C_10  and  C_13
                            x       y       z     vdW  Elec       q    Type
                         _______ _______ _______ _____ _____    ______ ____

>  <TORSDO>
F 2

$$$$
