=
 OpenBabel11062409093D

 37 42  0  0  1  0  0  0  0  0999 V2000
  161.6420  206.9460  155.5320 C   0  0  0  0  0  2  0  0  0  0  0  0
  161.4470  209.5610  151.8150 C   0  0  0  0  0  0  0  0  0  0  0  0
  160.4090  212.8640  150.6620 N   0  0  0  0  0  2  0  0  0  0  0  0
  160.7700  207.6130  153.3090 C   0  0  0  0  0  0  0  0  0  0  0  0
  161.4010  210.8730  151.6350 C   0  0  0  0  0  3  0  0  0  0  0  0
  161.1840  209.0780  153.2400 C   0  0  2  0  0  3  0  0  0  0  0  0
  161.2180  211.6970  150.4370 C   0  0  0  0  0  0  0  0  0  0  0  0
  160.8660  206.8150  152.2440 C   0  0  0  0  0  3  0  0  0  0  0  0
  160.2260  210.0430  154.0100 C   0  0  2  0  0  3  0  0  0  0  0  0
  161.7320  209.6070  156.2970 S   0  0  0  0  0  0  0  0  0  0  0  0
  162.1980  208.9170  149.4230 C   0  0  0  0  0  3  0  0  0  0  0  0
  161.3190  207.3050  150.9360 C   0  0  0  0  0  3  0  0  0  0  0  0
  160.1010  209.7800  155.5080 C   0  0  0  0  0  2  0  0  0  0  0  0
  158.4570  213.6440  151.6790 C   0  0  1  0  0  3  0  0  0  0  0  0
  159.7790  213.0470  151.9070 N   0  0  1  0  0  0  0  0  0  0  0  0
  161.5790  208.5910  150.7100 C   0  0  0  0  0  0  0  0  0  0  0  0
  158.8430  210.1490  153.3680 C   0  0  0  0  0  2  0  0  0  0  0  0
  160.4290  206.9710  154.6150 C   0  0  0  0  0  2  0  0  0  0  0  0
  161.6280  211.3870  149.1900 C   0  0  0  0  0  0  0  0  0  0  0  0
  161.4310  207.8620  156.7290 C   0  0  0  0  0  2  0  0  0  0  0  0
  158.5800  212.1840  151.8950 C   0  0  1  0  0  3  0  0  0  0  0  0
  158.3520  211.5990  153.3030 C   0  0  1  0  0  3  0  0  0  0  0  0
  162.2380  210.0950  148.8040 C   0  0  0  0  0  3  0  0  0  0  0  0
  162.4460  213.2840  147.8950 C   0  0  0  0  0  3  0  0  0  0  0  0
  161.4810  212.3700  148.0870 C   0  0  0  0  0  0  0  0  0  0  0  0
  160.2960  212.2790  147.1480 C   0  0  0  0  0  2  0  0  0  0  0  0
  159.2320  213.2310  145.2470 F   0  0  0  0  0  0  0  0  0  0  0  0
  161.4550  213.9390  145.6920 C   0  0  0  0  0  2  0  0  0  0  0  0
  160.1140  213.5170  146.2710 C   0  0  2  0  0  3  0  0  0  0  0  0
  162.3710  214.3490  146.8380 C   0  0  0  0  0  2  0  0  0  0  0  0
  158.0580  214.4510  152.9070 C   0  0  0  0  0  2  0  0  0  0  0  0
  159.1940  214.4440  153.9080 C   0  0  0  0  0  1  0  0  0  0  0  0
  156.8880  211.7140  153.7680 C   0  0  0  0  0  2  0  0  0  0  0  0
  156.6350  211.8010  155.2830 C   0  0  1  0  0  3  0  0  0  0  0  0
  156.2030  213.0730  155.6610 O   0  0  0  0  0  1  0  0  0  0  0  0
  155.2120  209.8200  154.9720 C   0  0  0  0  0  2  0  0  0  0  0  0
  155.6880  210.7590  155.7860 C   0  0  0  0  0  3  0  0  0  0  0  0
  1 20  1  0  0  0  0
  4 18  1  0  0  0  0
  5  2  2  0  0  0  0
  6  2  1  6  0  0  0
  6  4  1  0  0  0  0
  6  9  1  0  0  0  0
  7  3  1  0  0  0  0
  7  5  1  0  0  0  0
  8  4  2  0  0  0  0
  9 17  1  6  0  0  0
  9 13  1  0  0  0  0
 10 20  1  0  0  0  0
 11 16  1  0  0  0  0
 12  8  1  0  0  0  0
 13 10  1  0  0  0  0
 14 21  1  0  0  0  0
 14 15  1  0  0  0  0
 14 31  1  1  0  0  0
 15  3  1  6  0  0  0
 16 12  2  0  0  0  0
 16  2  1  0  0  0  0
 18  1  1  0  0  0  0
 19  7  2  0  0  0  0
 21 15  1  0  0  0  0
 21 22  1  0  0  0  0
 22 17  1  0  0  0  0
 22 33  1  0  0  0  0
 23 19  1  0  0  0  0
 23 11  2  0  0  0  0
 24 25  2  0  0  0  0
 25 19  1  0  0  0  0
 26 25  1  0  0  0  0
 27 29  1  0  0  0  0
 28 29  1  0  0  0  0
 28 30  1  0  0  0  0
 29 26  1  0  0  0  0
 30 24  1  0  0  0  0
 31 32  1  0  0  0  0
 33 34  1  0  0  0  0
 34 35  1  0  0  0  0
 34 37  1  0  0  0  0
 36 37  2  0  0  0  0
M  END
>  <MODEL>
1

>  <REMARK>
 VINA RESULT:      -5.3      0.000      0.000
  Name = 
  5 active torsions:
  status: ('A' for Active; 'I' for Inactive)
    1  A    between atoms: C_1  and  C_5
    2  A    between atoms: C_1  and  C_36
    3  A    between atoms: C_5  and  C_23
    4  A    between atoms: C_6  and  C_31
    5  A    between atoms: C_11  and  C_26
                            x       y       z     vdW  Elec       q    Type
                         _______ _______ _______ _____ _____    ______ ____

>  <TORSDO>
F 5

$$$$
=
 OpenBabel11062409093D

 37 42  0  0  1  0  0  0  0  0999 V2000
  161.7390  209.1850  157.2610 C   0  0  0  0  0  2  0  0  0  0  0  0
  161.6000  207.6940  152.9660 C   0  0  0  0  0  0  0  0  0  0  0  0
  162.1030  208.7770  149.5170 N   0  0  0  0  0  2  0  0  0  0  0  0
  160.6050  208.3960  155.2020 C   0  0  0  0  0  0  0  0  0  0  0  0
  162.1830  208.1020  151.8480 C   0  0  0  0  0  3  0  0  0  0  0  0
  161.6640  208.6670  154.1410 C   0  0  0  0  0  0  0  0  0  0  0  0
  162.0360  207.6860  150.4510 C   0  0  0  0  0  0  0  0  0  0  0  0
  159.8750  207.2800  155.1830 C   0  0  0  0  0  3  0  0  0  0  0  0
  161.7090  210.1540  153.6580 C   0  0  2  0  0  3  0  0  0  0  0  0
  163.4760  210.7010  155.7230 S   0  0  0  0  0  0  0  0  0  0  0  0
  160.9710  205.3130  152.1690 C   0  0  0  0  0  3  0  0  0  0  0  0
  160.0040  206.2780  154.1170 C   0  0  0  0  0  3  0  0  0  0  0  0
  162.0210  211.1820  154.7420 C   0  0  0  0  0  2  0  0  0  0  0  0
  161.3740  210.9570  149.1010 C   0  0  1  0  0  3  0  0  0  0  0  0
  162.1660  210.1000  149.9930 N   0  0  1  0  0  0  0  0  0  0  0  0
  160.7930  206.4620  153.0600 C   0  0  1  0  0  3  0  0  0  0  0  0
  160.4630  210.5650  152.8730 C   0  0  0  0  0  2  0  0  0  0  0  0
  160.4820  209.2710  156.4080 C   0  0  0  0  0  2  0  0  0  0  0  0
  161.7360  206.4430  150.0200 C   0  0  0  0  0  0  0  0  0  0  0  0
  162.4910  210.5090  157.2460 C   0  0  0  0  0  2  0  0  0  0  0  0
  160.7850  210.4700  150.3700 C   0  0  1  0  0  3  0  0  0  0  0  0
  160.8180  211.3720  151.6200 C   0  0  1  0  0  3  0  0  0  0  0  0
  161.3920  205.3080  150.9060 C   0  0  0  0  0  3  0  0  0  0  0  0
  162.8060  205.5320  148.0270 C   0  0  0  0  0  3  0  0  0  0  0  0
  161.7340  206.1340  148.5680 C   0  0  0  0  0  0  0  0  0  0  0  0
  160.5000  206.4210  147.7370 C   0  0  0  0  0  2  0  0  0  0  0  0
  159.5330  206.3000  145.5690 F   0  0  0  0  0  0  0  0  0  0  0  0
  161.5520  205.0960  145.9050 C   0  0  0  0  0  2  0  0  0  0  0  0
  160.7450  206.3420  146.2310 C   0  0  2  0  0  3  0  0  0  0  0  0
  162.9210  205.2190  146.5620 C   0  0  0  0  0  2  0  0  0  0  0  0
  161.9350  212.3710  149.1440 C   0  0  0  0  0  2  0  0  0  0  0  0
  162.8040  212.6080  147.9260 C   0  0  0  0  0  1  0  0  0  0  0  0
  159.9180  212.6150  151.4840 C   0  0  0  0  0  2  0  0  0  0  0  0
  158.7220  212.7260  152.4460 C   0  0  1  0  0  3  0  0  0  0  0  0
  159.0990  213.2680  153.6750 O   0  0  0  0  0  1  0  0  0  0  0  0
  157.4830  213.7100  150.5630 C   0  0  0  0  0  2  0  0  0  0  0  0
  157.5710  213.4890  151.8730 C   0  0  0  0  0  3  0  0  0  0  0  0
  2 16  1  0  0  0  0
  2  6  1  0  0  0  0
  3  7  1  0  0  0  0
  4 18  1  0  0  0  0
  5  2  2  0  0  0  0
  6  4  2  0  0  0  0
  7  5  1  0  0  0  0
  8  4  1  0  0  0  0
  9 17  1  1  0  0  0
  9  6  1  0  0  0  0
  9 13  1  0  0  0  0
 10 20  1  0  0  0  0
 12  8  2  0  0  0  0
 13 10  1  0  0  0  0
 14 31  1  1  0  0  0
 14 15  1  0  0  0  0
 14 21  1  0  0  0  0
 15  3  1  6  0  0  0
 15 21  1  0  0  0  0
 16 11  1  1  0  0  0
 16 12  1  0  0  0  0
 18  1  1  0  0  0  0
 19  7  2  0  0  0  0
 19 23  1  0  0  0  0
 20  1  1  0  0  0  0
 21 22  1  0  0  0  0
 22 17  1  0  0  0  0
 23 11  2  0  0  0  0
 24 25  2  0  0  0  0
 25 19  1  0  0  0  0
 26 25  1  0  0  0  0
 27 29  1  0  0  0  0
 28 29  1  0  0  0  0
 28 30  1  0  0  0  0
 29 26  1  0  0  0  0
 30 24  1  0  0  0  0
 32 31  1  0  0  0  0
 33 22  1  0  0  0  0
 33 34  1  0  0  0  0
 34 35  1  0  0  0  0
 36 37  2  0  0  0  0
 37 34  1  0  0  0  0
M  END
>  <MODEL>
2

>  <REMARK>
 VINA RESULT:      -5.0      2.579      4.805
  Name = 
  5 active torsions:
  status: ('A' for Active; 'I' for Inactive)
    1  A    between atoms: C_1  and  C_5
    2  A    between atoms: C_1  and  C_36
    3  A    between atoms: C_5  and  C_23
    4  A    between atoms: C_6  and  C_31
    5  A    between atoms: C_11  and  C_26
                            x       y       z     vdW  Elec       q    Type
                         _______ _______ _______ _____ _____    ______ ____

>  <TORSDO>
F 5

$$$$
=
 OpenBabel11062409093D

 37 42  0  0  1  0  0  0  0  0999 V2000
  161.6120  204.6430  150.7590 C   0  0  0  0  0  2  0  0  0  0  0  0
  160.3390  208.2150  153.2720 C   0  0  0  0  0  0  0  0  0  0  0  0
  159.3090  211.7070  153.0110 N   0  0  0  0  0  2  0  0  0  0  0  0
  161.9850  206.4980  152.3610 C   0  0  0  0  0  0  0  0  0  0  0  0
  159.6260  209.2990  153.0050 C   0  0  0  0  0  3  0  0  0  0  0  0
  160.8040  207.4130  152.0580 C   0  0  0  0  0  0  0  0  0  0  0  0
  159.3240  210.4990  153.7910 C   0  0  0  0  0  0  0  0  0  0  0  0
  162.3870  206.2780  153.6140 C   0  0  0  0  0  3  0  0  0  0  0  0
  161.0160  208.3260  150.8070 C   0  0  2  0  0  3  0  0  0  0  0  0
  159.9910  206.2900  149.2300 S   0  0  0  0  0  0  0  0  0  0  0  0
  160.1450  208.3080  155.8510 C   0  0  0  0  0  3  0  0  0  0  0  0
  161.7610  206.9400  154.7660 C   0  0  0  0  0  3  0  0  0  0  0  0
  161.2400  207.5870  149.4910 C   0  0  0  0  0  2  0  0  0  0  0  0
  160.4350  212.8970  151.3470 C   0  0  1  0  0  3  0  0  0  0  0  0
  159.6940  211.6690  151.6580 N   0  0  1  0  0  0  0  0  0  0  0  0
  160.8120  207.8640  154.6250 C   0  0  1  0  0  3  0  0  0  0  0  0
  162.0990  209.3850  151.0180 C   0  0  0  0  0  2  0  0  0  0  0  0
  162.6070  205.6650  151.2880 C   0  0  0  0  0  2  0  0  0  0  0  0
  159.1930  210.5570  155.1330 C   0  0  0  0  0  0  0  0  0  0  0  0
  161.2330  204.9580  149.3180 C   0  0  0  0  0  2  0  0  0  0  0  0
  161.1720  211.6480  151.6480 C   0  0  1  0  0  3  0  0  0  0  0  0
  161.6660  210.7570  150.4910 C   0  0  1  0  0  3  0  0  0  0  0  0
  159.4460  209.4240  156.0500 C   0  0  0  0  0  3  0  0  0  0  0  0
  159.7090  212.6670  156.2410 C   0  0  0  0  0  3  0  0  0  0  0  0
  158.7690  211.8190  155.7890 C   0  0  0  0  0  0  0  0  0  0  0  0
  157.2990  212.1740  155.8650 C   0  0  0  0  0  2  0  0  0  0  0  0
  155.7130  213.7870  156.5960 F   0  0  0  0  0  0  0  0  0  0  0  0
  157.9930  214.4530  156.6010 C   0  0  0  0  0  2  0  0  0  0  0  0
  156.9960  213.3260  156.8210 C   0  0  2  0  0  3  0  0  0  0  0  0
  159.3840  213.9460  156.9590 C   0  0  0  0  0  2  0  0  0  0  0  0
  160.2720  213.2160  149.8680 C   0  0  0  0  0  2  0  0  0  0  0  0
  158.8810  213.7600  149.6190 C   0  0  0  0  0  1  0  0  0  0  0  0
  162.7870  211.4170  149.6670 C   0  0  0  0  0  2  0  0  0  0  0  0
  162.6110  211.4480  148.1380 C   0  0  1  0  0  3  0  0  0  0  0  0
  161.3180  211.0860  147.7600 O   0  0  0  0  0  1  0  0  0  0  0  0
  162.2050  213.3310  146.6090 C   0  0  0  0  0  2  0  0  0  0  0  0
  162.9830  212.7620  147.5270 C   0  0  0  0  0  3  0  0  0  0  0  0
  1 18  1  0  0  0  0
  2 16  1  0  0  0  0
  3  7  1  0  0  0  0
  4  8  1  0  0  0  0
  5  2  2  0  0  0  0
  5  7  1  0  0  0  0
  6  4  2  0  0  0  0
  6  2  1  0  0  0  0
  7 19  2  0  0  0  0
  8 12  2  0  0  0  0
  9 13  1  6  0  0  0
  9 17  1  0  0  0  0
  9  6  1  0  0  0  0
 10 20  1  0  0  0  0
 10 13  1  0  0  0  0
 11 23  2  0  0  0  0
 14 31  1  6  0  0  0
 14 21  1  0  0  0  0
 14 15  1  0  0  0  0
 15  3  1  1  0  0  0
 16 12  1  6  0  0  0
 16 11  1  0  0  0  0
 18  4  1  0  0  0  0
 19 25  1  0  0  0  0
 19 23  1  0  0  0  0
 20  1  1  0  0  0  0
 21 15  1  0  0  0  0
 22 17  1  0  0  0  0
 22 21  1  0  0  0  0
 24 30  1  0  0  0  0
 25 26  1  0  0  0  0
 25 24  2  0  0  0  0
 26 29  1  0  0  0  0
 27 29  1  0  0  0  0
 28 29  1  0  0  0  0
 28 30  1  0  0  0  0
 32 31  1  0  0  0  0
 33 22  1  0  0  0  0
 34 33  1  0  0  0  0
 35 34  1  0  0  0  0
 36 37  2  0  0  0  0
 37 34  1  0  0  0  0
M  END
>  <MODEL>
3

>  <REMARK>
 VINA RESULT:      -3.4      3.277      6.908
  Name = 
  5 active torsions:
  status: ('A' for Active; 'I' for Inactive)
    1  A    between atoms: C_1  and  C_5
    2  A    between atoms: C_1  and  C_36
    3  A    between atoms: C_5  and  C_23
    4  A    between atoms: C_6  and  C_31
    5  A    between atoms: C_11  and  C_26
                            x       y       z     vdW  Elec       q    Type
                         _______ _______ _______ _____ _____    ______ ____

>  <TORSDO>
F 5

$$$$
