=
 OpenBabel11062407593D

 34 39  0  0  1  0  0  0  0  0999 V2000
  160.8580  210.4160  152.2380 C   0  0  0  0  0  0  0  0  0  0  0  0
  161.6830  208.0460  152.1400 N   0  0  0  0  0  0  0  0  0  0  0  0
  160.3460  211.2350  156.7790 C   0  0  0  0  0  0  0  0  0  0  0  0
  159.5160  210.1470  157.1830 N   0  0  0  0  0  2  0  0  0  0  0  0
  161.7180  209.4340  150.2410 O   0  0  0  0  0  0  0  0  0  0  0  0
  161.9300  209.5430  155.6380 C   0  0  1  0  0  3  0  0  0  0  0  0
  159.7140  208.8230  156.6160 C   0  0  0  0  0  2  0  0  0  0  0  0
  161.1770  210.3970  153.5390 C   0  0  0  0  0  0  0  0  0  0  0  0
  161.4480  211.0280  155.7790 C   0  0  1  0  0  3  0  0  0  0  0  0
  161.9650  208.1170  153.5460 C   0  0  0  0  0  3  0  0  0  0  0  0
  161.2070  208.5340  156.5460 C   0  0  0  0  0  2  0  0  0  0  0  0
  161.7090  209.2440  154.1970 C   0  0  0  0  0  0  0  0  0  0  0  0
  160.1480  212.3810  157.2570 O   0  0  0  0  0  0  0  0  0  0  0  0
  161.0150  209.1460  151.4140 C   0  0  0  0  0  0  0  0  0  0  0  0
  160.9960  211.4610  154.4550 N   0  0  0  0  0  2  0  0  0  0  0  0
  158.9550  212.0630  151.9820 C   0  0  0  0  0  0  0  0  0  0  0  0
  160.9730  212.3210  150.6570 C   0  0  0  0  0  3  0  0  0  0  0  0
  159.1530  213.8940  150.4040 C   0  0  0  0  0  3  0  0  0  0  0  0
  161.1450  214.1360  149.1220 F   0  0  0  0  0  0  0  0  0  0  0  0
  160.2400  211.6080  151.6160 C   0  0  0  0  0  0  0  0  0  0  0  0
  158.4200  213.2020  151.3710 C   0  0  0  0  0  3  0  0  0  0  0  0
  158.2040  211.4080  153.0000 N   0  0  0  0  0  1  0  0  0  0  0  0
  160.4300  213.4560  150.0500 C   0  0  0  0  0  0  0  0  0  0  0  0
  161.8820  206.7760  151.4550 C   0  0  0  0  0  2  0  0  0  0  0  0
  160.3870  204.6980  151.0380 C   0  0  1  0  0  3  0  0  0  0  0  0
  161.6160  204.3330  151.8560 C   0  0  0  0  0  2  0  0  0  0  0  0
  160.9800  205.6930  152.0510 C   0  0  1  0  0  3  0  0  0  0  0  0
  161.4890  202.7320  149.2850 F   0  0  0  0  0  0  0  0  0  0  0  0
  160.7190  204.9840  149.5930 C   0  0  0  0  0  0  0  0  0  0  0  0
  161.2790  203.9760  148.7890 C   0  0  0  0  0  0  0  0  0  0  0  0
  161.4200  205.5230  146.9290 C   0  0  0  0  0  3  0  0  0  0  0  0
  160.8770  206.5330  147.7260 C   0  0  0  0  0  3  0  0  0  0  0  0
  160.5360  206.2670  149.0540 C   0  0  0  0  0  3  0  0  0  0  0  0
  161.6220  204.2470  147.4610 C   0  0  0  0  0  3  0  0  0  0  0  0
  1  8  2  0  0  0  0
  2 10  1  0  0  0  0
  3  4  1  0  0  0  0
  3 13  2  0  0  0  0
  5 14  2  0  0  0  0
  6  9  1  0  0  0  0
  6 11  1  1  0  0  0
  7  4  1  0  0  0  0
  8 12  1  0  0  0  0
  8 15  1  0  0  0  0
  9 15  1  6  0  0  0
  9  3  1  0  0  0  0
 10 12  2  0  0  0  0
 11  7  1  0  0  0  0
 12  6  1  0  0  0  0
 14  2  1  0  0  0  0
 14  1  1  0  0  0  0
 16 22  1  0  0  0  0
 17 20  2  0  0  0  0
 18 21  1  0  0  0  0
 19 23  1  0  0  0  0
 20 16  1  0  0  0  0
 20  1  1  0  0  0  0
 21 16  2  0  0  0  0
 23 18  2  0  0  0  0
 23 17  1  0  0  0  0
 24  2  1  0  0  0  0
 25 29  1  6  0  0  0
 25 26  1  0  0  0  0
 25 27  1  0  0  0  0
 26 27  1  0  0  0  0
 27 24  1  6  0  0  0
 30 28  1  0  0  0  0
 30 29  2  0  0  0  0
 31 34  2  0  0  0  0
 31 32  1  0  0  0  0
 32 33  2  0  0  0  0
 33 29  1  0  0  0  0
 34 30  1  0  0  0  0
M  END
>  <MODEL>
1

>  <REMARK>
 VINA RESULT:      -7.6      0.000      0.000
  Name = 
  4 active torsions:
  status: ('A' for Active; 'I' for Inactive)
    1  A    between atoms: C_3  and  C_13
    2  A    between atoms: C_4  and  C_15
    3  A    between atoms: N_5  and  C_18
    4  A    between atoms: C_18  and  C_29
                            x       y       z     vdW  Elec       q    Type
                         _______ _______ _______ _____ _____    ______ ____

>  <TORSDO>
F 4

$$$$
=
 OpenBabel11062407593D

 34 39  0  0  1  0  0  0  0  0999 V2000
  161.5710  205.7280  148.5210 C   0  0  0  0  0  0  0  0  0  0  0  0
  161.7230  207.1390  150.5930 N   0  0  0  0  0  0  0  0  0  0  0  0
  160.7550  201.4530  150.1380 C   0  0  0  0  0  0  0  0  0  0  0  0
  161.8220  201.2820  151.0710 N   0  0  0  0  0  2  0  0  0  0  0  0
  161.5860  208.1130  148.4560 O   0  0  0  0  0  0  0  0  0  0  0  0
  160.1960  203.7100  151.2610 C   0  0  1  0  0  3  0  0  0  0  0  0
  162.2550  202.3940  151.9020 C   0  0  0  0  0  2  0  0  0  0  0  0
  161.0100  204.7860  149.2910 C   0  0  0  0  0  0  0  0  0  0  0  0
  160.0510  202.7740  150.0130 C   0  0  1  0  0  3  0  0  0  0  0  0
  161.1400  206.0580  151.3370 C   0  0  0  0  0  3  0  0  0  0  0  0
  161.0280  203.1320  152.4180 C   0  0  0  0  0  2  0  0  0  0  0  0
  160.8150  204.9410  150.6990 C   0  0  0  0  0  0  0  0  0  0  0  0
  160.4080  200.4910  149.4060 O   0  0  0  0  0  0  0  0  0  0  0  0
  162.0750  207.0120  149.1630 C   0  0  0  0  0  0  0  0  0  0  0  0
  160.5830  203.5060  148.8630 N   0  0  0  0  0  2  0  0  0  0  0  0
  160.9360  205.9540  146.0830 C   0  0  0  0  0  0  0  0  0  0  0  0
  162.9920  204.8220  146.7040 C   0  0  0  0  0  3  0  0  0  0  0  0
  162.3850  205.0300  144.3720 C   0  0  0  0  0  3  0  0  0  0  0  0
  164.4030  203.9330  145.0020 F   0  0  0  0  0  0  0  0  0  0  0  0
  161.8210  205.4940  147.0820 C   0  0  0  0  0  0  0  0  0  0  0  0
  161.2240  205.7160  144.7350 C   0  0  0  0  0  3  0  0  0  0  0  0
  159.7700  206.7000  146.4190 N   0  0  0  0  0  1  0  0  0  0  0  0
  163.2710  204.5870  145.3560 C   0  0  0  0  0  0  0  0  0  0  0  0
  162.1600  208.3240  151.3170 C   0  0  0  0  0  2  0  0  0  0  0  0
  160.4800  209.9970  152.3690 C   0  0  1  0  0  3  0  0  0  0  0  0
  161.6920  210.7210  151.8040 C   0  0  0  0  0  2  0  0  0  0  0  0
  161.1820  209.4810  151.1010 C   0  0  1  0  0  3  0  0  0  0  0  0
  161.8450  211.1720  154.5840 F   0  0  0  0  0  0  0  0  0  0  0  0
  160.8000  209.2330  153.6320 C   0  0  0  0  0  0  0  0  0  0  0  0
  161.4930  209.8650  154.6780 C   0  0  0  0  0  0  0  0  0  0  0  0
  161.4770  207.8030  155.9500 C   0  0  0  0  0  3  0  0  0  0  0  0
  160.8010  207.1640  154.9090 C   0  0  0  0  0  3  0  0  0  0  0  0
  160.4710  207.8730  153.7520 C   0  0  0  0  0  3  0  0  0  0  0  0
  161.8240  209.1510  155.8330 C   0  0  0  0  0  3  0  0  0  0  0  0
  1 14  1  0  0  0  0
  1  8  2  0  0  0  0
  2 24  1  0  0  0  0
  2 10  1  0  0  0  0
  3  4  1  0  0  0  0
  4  7  1  0  0  0  0
  5 14  2  0  0  0  0
  6 11  1  1  0  0  0
  7 11  1  0  0  0  0
  8 12  1  0  0  0  0
  9 15  1  6  0  0  0
  9  3  1  0  0  0  0
  9  6  1  0  0  0  0
 12  6  1  0  0  0  0
 12 10  2  0  0  0  0
 13  3  2  0  0  0  0
 14  2  1  0  0  0  0
 15  8  1  0  0  0  0
 16 22  1  0  0  0  0
 16 20  1  0  0  0  0
 17 20  2  0  0  0  0
 18 21  1  0  0  0  0
 18 23  2  0  0  0  0
 19 23  1  0  0  0  0
 20  1  1  0  0  0  0
 21 16  2  0  0  0  0
 23 17  1  0  0  0  0
 25 29  1  1  0  0  0
 26 25  1  0  0  0  0
 27 24  1  1  0  0  0
 27 26  1  0  0  0  0
 27 25  1  0  0  0  0
 28 30  1  0  0  0  0
 29 33  2  0  0  0  0
 29 30  1  0  0  0  0
 30 34  2  0  0  0  0
 32 31  2  0  0  0  0
 33 32  1  0  0  0  0
 34 31  1  0  0  0  0
M  END
>  <MODEL>
2

>  <REMARK>
 VINA RESULT:      -6.9      3.400      8.197
  Name = 
  4 active torsions:
  status: ('A' for Active; 'I' for Inactive)
    1  A    between atoms: C_3  and  C_13
    2  A    between atoms: C_4  and  C_15
    3  A    between atoms: N_5  and  C_18
    4  A    between atoms: C_18  and  C_29
                            x       y       z     vdW  Elec       q    Type
                         _______ _______ _______ _____ _____    ______ ____

>  <TORSDO>
F 4

$$$$
=
 OpenBabel11062407593D

 34 39  0  0  1  0  0  0  0  0999 V2000
  161.3210  209.9110  151.5540 C   0  0  0  0  0  0  0  0  0  0  0  0
  161.6040  207.4160  151.5870 N   0  0  0  0  0  0  0  0  0  0  0  0
  160.4910  211.0000  155.9910 C   0  0  0  0  0  0  0  0  0  0  0  0
  159.3990  210.1370  156.3070 N   0  0  0  0  0  2  0  0  0  0  0  0
  162.1630  208.6860  149.6880 O   0  0  0  0  0  0  0  0  0  0  0  0
  161.7780  208.9580  155.0700 C   0  0  1  0  0  3  0  0  0  0  0  0
  159.3610  208.7810  155.7840 C   0  0  0  0  0  2  0  0  0  0  0  0
  161.4780  209.8740  152.8850 C   0  0  0  0  0  0  0  0  0  0  0  0
  161.6260  210.5170  155.1330 C   0  0  1  0  0  3  0  0  0  0  0  0
  161.7330  207.4780  153.0160 C   0  0  0  0  0  3  0  0  0  0  0  0
  160.7500  208.1690  155.8970 C   0  0  0  0  0  2  0  0  0  0  0  0
  161.6620  208.6590  153.6160 C   0  0  0  0  0  0  0  0  0  0  0  0
  160.4990  212.1790  156.4270 O   0  0  0  0  0  0  0  0  0  0  0  0
  161.2860  208.6060  150.7720 C   0  0  0  0  0  0  0  0  0  0  0  0
  161.4350  210.9860  153.7590 N   0  0  0  0  0  2  0  0  0  0  0  0
  159.9850  212.0290  151.1990 C   0  0  0  0  0  0  0  0  0  0  0  0
  161.9290  211.5720  149.8180 C   0  0  0  0  0  3  0  0  0  0  0  0
  160.6490  213.5950  149.4710 C   0  0  0  0  0  3  0  0  0  0  0  0
  162.5660  213.1340  148.1360 F   0  0  0  0  0  0  0  0  0  0  0  0
  161.0590  211.1840  150.8480 C   0  0  0  0  0  0  0  0  0  0  0  0
  159.7860  213.2270  150.5060 C   0  0  0  0  0  3  0  0  0  0  0  0
  159.1180  211.7050  152.2820 N   0  0  0  0  0  1  0  0  0  0  0  0
  161.7220  212.7700  149.1300 C   0  0  0  0  0  0  0  0  0  0  0  0
  161.5930  206.1080  150.9470 C   0  0  0  0  0  2  0  0  0  0  0  0
  160.4000  203.8070  151.0630 C   0  0  1  0  0  3  0  0  0  0  0  0
  161.6230  203.8360  151.9670 C   0  0  0  0  0  2  0  0  0  0  0  0
  160.8080  205.1000  151.7910 C   0  0  1  0  0  3  0  0  0  0  0  0
  160.7830  201.3570  149.6480 F   0  0  0  0  0  0  0  0  0  0  0  0
  160.7670  203.7550  149.5990 C   0  0  0  0  0  0  0  0  0  0  0  0
  160.9610  202.5150  148.9670 C   0  0  0  0  0  0  0  0  0  0  0  0
  161.5300  203.6450  146.9000 C   0  0  0  0  0  3  0  0  0  0  0  0
  161.3530  204.8810  147.5250 C   0  0  0  0  0  3  0  0  0  0  0  0
  160.9810  204.9370  148.8700 C   0  0  0  0  0  3  0  0  0  0  0  0
  161.3360  202.4640  147.6210 C   0  0  0  0  0  3  0  0  0  0  0  0
  1  8  2  0  0  0  0
  2 10  1  0  0  0  0
  3  4  1  0  0  0  0
  3 13  2  0  0  0  0
  5 14  2  0  0  0  0
  6  9  1  0  0  0  0
  6 11  1  1  0  0  0
  7 11  1  0  0  0  0
  7  4  1  0  0  0  0
  8 12  1  0  0  0  0
  8 15  1  0  0  0  0
  9 15  1  6  0  0  0
  9  3  1  0  0  0  0
 10 12  2  0  0  0  0
 12  6  1  0  0  0  0
 14  1  1  0  0  0  0
 14  2  1  0  0  0  0
 16 22  1  0  0  0  0
 17 20  2  0  0  0  0
 18 21  1  0  0  0  0
 19 23  1  0  0  0  0
 20 16  1  0  0  0  0
 20  1  1  0  0  0  0
 21 16  2  0  0  0  0
 23 18  2  0  0  0  0
 23 17  1  0  0  0  0
 24  2  1  0  0  0  0
 25 29  1  6  0  0  0
 25 27  1  0  0  0  0
 25 26  1  0  0  0  0
 27 24  1  6  0  0  0
 27 26  1  0  0  0  0
 30 29  1  0  0  0  0
 30 28  1  0  0  0  0
 31 32  2  0  0  0  0
 31 34  1  0  0  0  0
 32 33  1  0  0  0  0
 33 29  2  0  0  0  0
 34 30  2  0  0  0  0
M  END
>  <MODEL>
3

>  <REMARK>
 VINA RESULT:      -6.8      1.056      1.235
  Name = 
  4 active torsions:
  status: ('A' for Active; 'I' for Inactive)
    1  A    between atoms: C_3  and  C_13
    2  A    between atoms: C_4  and  C_15
    3  A    between atoms: N_5  and  C_18
    4  A    between atoms: C_18  and  C_29
                            x       y       z     vdW  Elec       q    Type
                         _______ _______ _______ _____ _____    ______ ____

>  <TORSDO>
F 4

$$$$
=
 OpenBabel11062407593D

 34 39  0  0  1  0  0  0  0  0999 V2000
  160.8490  210.5460  151.5950 C   0  0  0  0  0  0  0  0  0  0  0  0
  161.4400  211.2220  149.2500 N   0  0  0  0  0  0  0  0  0  0  0  0
  161.4010  205.9350  151.6020 C   0  0  0  0  0  0  0  0  0  0  0  0
  160.5940  205.5400  150.4930 N   0  0  0  0  0  2  0  0  0  0  0  0
  161.1740  212.8210  150.9550 O   0  0  0  0  0  0  0  0  0  0  0  0
  162.5590  207.6720  150.0800 C   0  0  1  0  0  3  0  0  0  0  0  0
  160.5570  206.3500  149.2870 C   0  0  0  0  0  2  0  0  0  0  0  0
  161.4400  209.3730  151.3290 C   0  0  0  0  0  0  0  0  0  0  0  0
  162.2400  207.1800  151.5330 C   0  0  1  0  0  3  0  0  0  0  0  0
  162.0250  209.9250  149.0540 C   0  0  0  0  0  3  0  0  0  0  0  0
  161.9710  206.8050  148.9540 C   0  0  0  0  0  2  0  0  0  0  0  0
  162.0080  209.0550  150.0550 C   0  0  0  0  0  0  0  0  0  0  0  0
  161.4040  205.2410  152.6500 O   0  0  0  0  0  0  0  0  0  0  0  0
  160.7220  211.5830  150.4890 C   0  0  0  0  0  0  0  0  0  0  0  0
  161.5480  208.2750  152.2160 N   0  0  0  0  0  2  0  0  0  0  0  0
  160.9530  210.8690  154.1020 C   0  0  0  0  0  0  0  0  0  0  0  0
  158.8240  211.0190  152.9440 C   0  0  0  0  0  3  0  0  0  0  0  0
  158.9190  211.3220  155.3420 C   0  0  0  0  0  3  0  0  0  0  0  0
  156.8430  211.4770  154.1850 F   0  0  0  0  0  0  0  0  0  0  0  0
  160.2090  210.8030  152.9040 C   0  0  0  0  0  0  0  0  0  0  0  0
  160.3010  211.1250  155.3120 C   0  0  0  0  0  3  0  0  0  0  0  0
  162.3700  210.7220  154.0970 N   0  0  0  0  0  1  0  0  0  0  0  0
  158.1820  211.2730  154.1580 C   0  0  0  0  0  0  0  0  0  0  0  0
  161.3840  212.1360  148.1180 C   0  0  0  0  0  2  0  0  0  0  0  0
  162.7710  213.8810  146.7920 C   0  0  1  0  0  3  0  0  0  0  0  0
  162.3870  214.4150  148.1630 C   0  0  0  0  0  2  0  0  0  0  0  0
  162.6820  212.9380  148.0050 C   0  0  1  0  0  3  0  0  0  0  0  0
  162.9040  212.6090  144.2390 F   0  0  0  0  0  0  0  0  0  0  0  0
  161.5960  213.8190  145.8470 C   0  0  0  0  0  0  0  0  0  0  0  0
  161.7330  213.1940  144.5950 C   0  0  0  0  0  0  0  0  0  0  0  0
  159.4440  213.7680  144.0440 C   0  0  0  0  0  3  0  0  0  0  0  0
  159.3040  214.4020  145.2800 C   0  0  0  0  0  3  0  0  0  0  0  0
  160.3770  214.4350  146.1740 C   0  0  0  0  0  3  0  0  0  0  0  0
  160.6580  213.1670  143.7020 C   0  0  0  0  0  3  0  0  0  0  0  0
  1 20  1  0  0  0  0
  2 14  1  0  0  0  0
  3 13  2  0  0  0  0
  4  3  1  0  0  0  0
  6 11  1  6  0  0  0
  6  9  1  0  0  0  0
  7  4  1  0  0  0  0
  8  1  2  0  0  0  0
  8 15  1  0  0  0  0
  9  3  1  6  0  0  0
  9 15  1  0  0  0  0
 10  2  1  0  0  0  0
 10 12  2  0  0  0  0
 11  7  1  0  0  0  0
 12  6  1  0  0  0  0
 12  8  1  0  0  0  0
 14  5  2  0  0  0  0
 14  1  1  0  0  0  0
 16 21  1  0  0  0  0
 17 23  2  0  0  0  0
 20 17  1  0  0  0  0
 20 16  2  0  0  0  0
 21 18  2  0  0  0  0
 22 16  1  0  0  0  0
 23 19  1  0  0  0  0
 23 18  1  0  0  0  0
 24  2  1  0  0  0  0
 25 29  1  6  0  0  0
 25 27  1  0  0  0  0
 25 26  1  0  0  0  0
 27 24  1  6  0  0  0
 27 26  1  0  0  0  0
 28 30  1  0  0  0  0
 29 33  1  0  0  0  0
 30 29  2  0  0  0  0
 31 32  1  0  0  0  0
 32 33  2  0  0  0  0
 34 31  2  0  0  0  0
 34 30  1  0  0  0  0
M  END
>  <MODEL>
4

>  <REMARK>
 VINA RESULT:      -6.7      3.387      6.943
  Name = 
  4 active torsions:
  status: ('A' for Active; 'I' for Inactive)
    1  A    between atoms: C_3  and  C_13
    2  A    between atoms: C_4  and  C_15
    3  A    between atoms: N_5  and  C_18
    4  A    between atoms: C_18  and  C_29
                            x       y       z     vdW  Elec       q    Type
                         _______ _______ _______ _____ _____    ______ ____

>  <TORSDO>
F 4

$$$$
=
 OpenBabel11062407593D

 34 39  0  0  1  0  0  0  0  0999 V2000
  160.0510  211.1140  152.6020 C   0  0  0  0  0  0  0  0  0  0  0  0
  160.8660  212.0780  150.4310 N   0  0  0  0  0  0  0  0  0  0  0  0
  161.3700  206.6670  152.4150 C   0  0  0  0  0  0  0  0  0  0  0  0
  160.8180  206.2480  151.1670 N   0  0  0  0  0  2  0  0  0  0  0  0
  160.0770  213.4600  152.1640 O   0  0  0  0  0  0  0  0  0  0  0  0
  162.4320  208.6910  151.2130 C   0  0  1  0  0  3  0  0  0  0  0  0
  160.8270  207.1440  150.0230 C   0  0  0  0  0  2  0  0  0  0  0  0
  160.8650  210.0770  152.3640 C   0  0  0  0  0  0  0  0  0  0  0  0
  161.9860  208.0300  152.5610 C   0  0  1  0  0  3  0  0  0  0  0  0
  161.6850  210.9120  150.2540 C   0  0  0  0  0  3  0  0  0  0  0  0
  162.1770  207.8440  149.9550 C   0  0  0  0  0  2  0  0  0  0  0  0
  161.6640  209.9660  151.1840 C   0  0  0  0  0  0  0  0  0  0  0  0
  161.3320  205.8920  153.4050 O   0  0  0  0  0  0  0  0  0  0  0  0
  159.9180  212.2120  151.5560 C   0  0  0  0  0  0  0  0  0  0  0  0
  161.0230  208.9370  153.1880 N   0  0  0  0  0  2  0  0  0  0  0  0
  159.7150  211.3010  155.1020 C   0  0  0  0  0  0  0  0  0  0  0  0
  157.7970  211.0680  153.6320 C   0  0  0  0  0  3  0  0  0  0  0  0
  157.4720  211.2390  156.0230 C   0  0  0  0  0  3  0  0  0  0  0  0
  155.6040  211.0220  154.5620 F   0  0  0  0  0  0  0  0  0  0  0  0
  159.1860  211.1520  153.8020 C   0  0  0  0  0  0  0  0  0  0  0  0
  158.8530  211.3410  156.2030 C   0  0  0  0  0  3  0  0  0  0  0  0
  161.1150  211.4570  155.3140 N   0  0  0  0  0  1  0  0  0  0  0  0
  156.9440  211.1070  154.7370 C   0  0  0  0  0  0  0  0  0  0  0  0
  160.8260  213.0680  149.3630 C   0  0  0  0  0  2  0  0  0  0  0  0
  161.5790  212.9420  146.8840 C   0  0  1  0  0  3  0  0  0  0  0  0
  162.2390  214.1110  147.5980 C   0  0  0  0  0  2  0  0  0  0  0  0
  161.9670  212.8370  148.3690 C   0  0  1  0  0  3  0  0  0  0  0  0
  160.0840  211.4420  144.9690 F   0  0  0  0  0  0  0  0  0  0  0  0
  160.1110  213.1800  146.6230 C   0  0  0  0  0  0  0  0  0  0  0  0
  159.4380  212.4200  145.6510 C   0  0  0  0  0  0  0  0  0  0  0  0
  157.4030  213.6690  146.0660 C   0  0  0  0  0  3  0  0  0  0  0  0
  158.0680  214.4380  147.0230 C   0  0  0  0  0  3  0  0  0  0  0  0
  159.4180  214.2010  147.2940 C   0  0  0  0  0  3  0  0  0  0  0  0
  158.0880  212.6630  145.3800 C   0  0  0  0  0  3  0  0  0  0  0  0
  1 20  1  0  0  0  0
  2 14  1  0  0  0  0
  3 13  2  0  0  0  0
  4  3  1  0  0  0  0
  6 11  1  6  0  0  0
  6  9  1  0  0  0  0
  7  4  1  0  0  0  0
  8  1  2  0  0  0  0
  8 15  1  0  0  0  0
  9  3  1  6  0  0  0
  9 15  1  0  0  0  0
 10  2  1  0  0  0  0
 10 12  2  0  0  0  0
 11  7  1  0  0  0  0
 12  6  1  0  0  0  0
 12  8  1  0  0  0  0
 14  5  2  0  0  0  0
 14  1  1  0  0  0  0
 16 22  1  0  0  0  0
 16 21  1  0  0  0  0
 17 20  1  0  0  0  0
 17 23  2  0  0  0  0
 18 21  2  0  0  0  0
 19 23  1  0  0  0  0
 20 16  2  0  0  0  0
 23 18  1  0  0  0  0
 24  2  1  0  0  0  0
 25 29  1  1  0  0  0
 25 26  1  0  0  0  0
 25 27  1  0  0  0  0
 26 27  1  0  0  0  0
 27 24  1  1  0  0  0
 28 30  1  0  0  0  0
 29 33  1  0  0  0  0
 30 29  2  0  0  0  0
 31 32  1  0  0  0  0
 32 33  2  0  0  0  0
 34 30  1  0  0  0  0
 34 31  2  0  0  0  0
M  END
>  <MODEL>
5

>  <REMARK>
 VINA RESULT:      -6.6      3.198      6.608
  Name = 
  4 active torsions:
  status: ('A' for Active; 'I' for Inactive)
    1  A    between atoms: C_3  and  C_13
    2  A    between atoms: C_4  and  C_15
    3  A    between atoms: N_5  and  C_18
    4  A    between atoms: C_18  and  C_29
                            x       y       z     vdW  Elec       q    Type
                         _______ _______ _______ _____ _____    ______ ____

>  <TORSDO>
F 4

$$$$
=
 OpenBabel11062407593D

 34 39  0  0  1  0  0  0  0  0999 V2000
  161.2170  210.3850  151.4280 C   0  0  0  0  0  0  0  0  0  0  0  0
  161.4910  211.0170  149.0130 N   0  0  0  0  0  0  0  0  0  0  0  0
  161.4660  205.7480  151.4050 C   0  0  0  0  0  0  0  0  0  0  0  0
  160.4770  205.4050  150.4350 N   0  0  0  0  0  2  0  0  0  0  0  0
  161.5880  212.6330  150.7210 O   0  0  0  0  0  0  0  0  0  0  0  0
  162.4910  207.4040  149.7080 C   0  0  1  0  0  3  0  0  0  0  0  0
  160.3120  206.2140  149.2380 C   0  0  0  0  0  2  0  0  0  0  0  0
  161.6840  209.1750  151.0900 C   0  0  0  0  0  0  0  0  0  0  0  0
  162.3640  206.9360  151.1980 C   0  0  1  0  0  3  0  0  0  0  0  0
  161.9560  209.6840  148.7480 C   0  0  0  0  0  3  0  0  0  0  0  0
  161.6860  206.5750  148.6930 C   0  0  0  0  0  2  0  0  0  0  0  0
  162.0330  208.8190  149.7500 C   0  0  0  0  0  0  0  0  0  0  0  0
  161.5810  205.0570  152.4490 O   0  0  0  0  0  0  0  0  0  0  0  0
  160.9920  211.4270  150.3420 C   0  0  0  0  0  0  0  0  0  0  0  0
  161.8540  208.0750  151.9640 N   0  0  0  0  0  2  0  0  0  0  0  0
  159.5260  211.2170  153.1150 C   0  0  0  0  0  0  0  0  0  0  0  0
  161.6880  210.4010  153.8620 C   0  0  0  0  0  3  0  0  0  0  0  0
  160.0760  211.2040  155.4770 C   0  0  0  0  0  3  0  0  0  0  0  0
  162.1970  210.3880  156.1890 F   0  0  0  0  0  0  0  0  0  0  0  0
  160.7990  210.6860  152.8150 C   0  0  0  0  0  0  0  0  0  0  0  0
  159.1750  211.4750  154.4450 C   0  0  0  0  0  3  0  0  0  0  0  0
  158.5680  211.4580  152.0890 N   0  0  0  0  0  1  0  0  0  0  0  0
  161.3300  210.6630  155.1860 C   0  0  0  0  0  0  0  0  0  0  0  0
  161.3240  211.9310  147.8920 C   0  0  0  0  0  2  0  0  0  0  0  0
  162.6250  213.4890  146.2770 C   0  0  1  0  0  3  0  0  0  0  0  0
  162.5950  214.0620  147.6850 C   0  0  0  0  0  2  0  0  0  0  0  0
  162.6640  212.5610  147.5040 C   0  0  1  0  0  3  0  0  0  0  0  0
  162.0800  212.2230  143.7760 F   0  0  0  0  0  0  0  0  0  0  0  0
  161.2840  213.5810  145.5880 C   0  0  0  0  0  0  0  0  0  0  0  0
  161.0880  212.9500  144.3470 C   0  0  0  0  0  0  0  0  0  0  0  0
  158.8250  213.8120  144.2550 C   0  0  0  0  0  3  0  0  0  0  0  0
  159.0170  214.4530  145.4800 C   0  0  0  0  0  3  0  0  0  0  0  0
  160.2430  214.3440  146.1400 C   0  0  0  0  0  3  0  0  0  0  0  0
  159.8600  213.0640  143.6880 C   0  0  0  0  0  3  0  0  0  0  0  0
  1 20  1  0  0  0  0
  2 14  1  0  0  0  0
  3 13  2  0  0  0  0
  4  3  1  0  0  0  0
  6 11  1  6  0  0  0
  6 12  1  0  0  0  0
  6  9  1  0  0  0  0
  7  4  1  0  0  0  0
  8  1  2  0  0  0  0
  8 15  1  0  0  0  0
  9  3  1  6  0  0  0
  9 15  1  0  0  0  0
 10  2  1  0  0  0  0
 10 12  2  0  0  0  0
 11  7  1  0  0  0  0
 12  8  1  0  0  0  0
 14  5  2  0  0  0  0
 14  1  1  0  0  0  0
 16 21  1  0  0  0  0
 17 23  2  0  0  0  0
 20 16  2  0  0  0  0
 20 17  1  0  0  0  0
 21 18  2  0  0  0  0
 22 16  1  0  0  0  0
 23 18  1  0  0  0  0
 23 19  1  0  0  0  0
 24  2  1  0  0  0  0
 25 29  1  6  0  0  0
 25 27  1  0  0  0  0
 25 26  1  0  0  0  0
 27 26  1  0  0  0  0
 27 24  1  6  0  0  0
 28 30  1  0  0  0  0
 29 33  1  0  0  0  0
 30 29  2  0  0  0  0
 31 32  1  0  0  0  0
 32 33  2  0  0  0  0
 34 31  2  0  0  0  0
 34 30  1  0  0  0  0
M  END
>  <MODEL>
6

>  <REMARK>
 VINA RESULT:      -6.3      3.501      6.969
  Name = 
  4 active torsions:
  status: ('A' for Active; 'I' for Inactive)
    1  A    between atoms: C_3  and  C_13
    2  A    between atoms: C_4  and  C_15
    3  A    between atoms: N_5  and  C_18
    4  A    between atoms: C_18  and  C_29
                            x       y       z     vdW  Elec       q    Type
                         _______ _______ _______ _____ _____    ______ ____

>  <TORSDO>
F 4

$$$$
=
 OpenBabel11062407593D

 34 39  0  0  1  0  0  0  0  0999 V2000
  161.4140  205.8550  148.6070 C   0  0  0  0  0  0  0  0  0  0  0  0
  161.6920  207.1330  150.7510 N   0  0  0  0  0  0  0  0  0  0  0  0
  160.8140  201.4640  149.9920 C   0  0  0  0  0  0  0  0  0  0  0  0
  161.9510  201.2620  150.8310 N   0  0  0  0  0  2  0  0  0  0  0  0
  161.3730  208.2390  148.6990 O   0  0  0  0  0  0  0  0  0  0  0  0
  160.2920  203.6290  151.3010 C   0  0  1  0  0  3  0  0  0  0  0  0
  162.4210  202.3280  151.6990 C   0  0  0  0  0  2  0  0  0  0  0  0
  160.9330  204.8510  149.3520 C   0  0  0  0  0  0  0  0  0  0  0  0
  160.0740  202.7720  150.0080 C   0  0  1  0  0  3  0  0  0  0  0  0
  161.1900  205.9910  151.4630 C   0  0  0  0  0  3  0  0  0  0  0  0
  161.2220  202.9990  152.3520 C   0  0  0  0  0  2  0  0  0  0  0  0
  160.8410  204.9100  150.7780 C   0  0  0  0  0  0  0  0  0  0  0  0
  160.4330  200.5430  149.2260 O   0  0  0  0  0  0  0  0  0  0  0  0
  161.9380  207.1080  149.2940 C   0  0  0  0  0  0  0  0  0  0  0  0
  160.5020  203.5910  148.8720 N   0  0  0  0  0  2  0  0  0  0  0  0
  162.7580  205.2710  146.5450 C   0  0  0  0  0  0  0  0  0  0  0  0
  160.4590  206.0220  146.3260 C   0  0  0  0  0  3  0  0  0  0  0  0
  161.7440  205.4720  144.3520 C   0  0  0  0  0  3  0  0  0  0  0  0
  159.4840  206.1990  144.1590 F   0  0  0  0  0  0  0  0  0  0  0  0
  161.5600  205.7210  147.1410 C   0  0  0  0  0  0  0  0  0  0  0  0
  162.8410  205.1530  145.1540 C   0  0  0  0  0  3  0  0  0  0  0  0
  163.8770  204.8910  147.3400 N   0  0  0  0  0  1  0  0  0  0  0  0
  160.5520  205.9020  144.9370 C   0  0  0  0  0  0  0  0  0  0  0  0
  162.1570  208.2800  151.5180 C   0  0  0  0  0  2  0  0  0  0  0  0
  160.5430  210.0110  152.5790 C   0  0  1  0  0  3  0  0  0  0  0  0
  161.7900  210.6890  152.0320 C   0  0  0  0  0  2  0  0  0  0  0  0
  161.2320  209.4810  151.3090 C   0  0  1  0  0  3  0  0  0  0  0  0
  161.9580  211.0920  154.8100 F   0  0  0  0  0  0  0  0  0  0  0  0
  160.8200  209.2190  153.8340 C   0  0  0  0  0  0  0  0  0  0  0  0
  161.5410  209.8050  154.8890 C   0  0  0  0  0  0  0  0  0  0  0  0
  161.4160  207.7320  156.1390 C   0  0  0  0  0  3  0  0  0  0  0  0
  160.7120  207.1390  155.0900 C   0  0  0  0  0  3  0  0  0  0  0  0
  160.4220  207.8760  153.9390 C   0  0  0  0  0  3  0  0  0  0  0  0
  161.8310  209.0620  156.0380 C   0  0  0  0  0  3  0  0  0  0  0  0
  1 14  1  0  0  0  0
  1  8  2  0  0  0  0
  2 10  1  0  0  0  0
  2 24  1  0  0  0  0
  3  9  1  0  0  0  0
  3  4  1  0  0  0  0
  4  7  1  0  0  0  0
  5 14  2  0  0  0  0
  6 11  1  1  0  0  0
  7 11  1  0  0  0  0
  8 12  1  0  0  0  0
  9 15  1  6  0  0  0
  9  6  1  0  0  0  0
 12  6  1  0  0  0  0
 12 10  2  0  0  0  0
 13  3  2  0  0  0  0
 14  2  1  0  0  0  0
 15  8  1  0  0  0  0
 16 20  1  0  0  0  0
 16 22  1  0  0  0  0
 17 20  2  0  0  0  0
 18 23  2  0  0  0  0
 18 21  1  0  0  0  0
 19 23  1  0  0  0  0
 20  1  1  0  0  0  0
 21 16  2  0  0  0  0
 23 17  1  0  0  0  0
 25 29  1  1  0  0  0
 26 25  1  0  0  0  0
 27 24  1  1  0  0  0
 27 26  1  0  0  0  0
 27 25  1  0  0  0  0
 28 30  1  0  0  0  0
 29 33  2  0  0  0  0
 29 30  1  0  0  0  0
 30 34  2  0  0  0  0
 32 31  2  0  0  0  0
 33 32  1  0  0  0  0
 34 31  1  0  0  0  0
M  END
>  <MODEL>
7

>  <REMARK>
 VINA RESULT:      -6.1      3.441      8.176
  Name = 
  4 active torsions:
  status: ('A' for Active; 'I' for Inactive)
    1  A    between atoms: C_3  and  C_13
    2  A    between atoms: C_4  and  C_15
    3  A    between atoms: N_5  and  C_18
    4  A    between atoms: C_18  and  C_29
                            x       y       z     vdW  Elec       q    Type
                         _______ _______ _______ _____ _____    ______ ____

>  <TORSDO>
F 4

$$$$
=
 OpenBabel11062407593D

 34 39  0  0  1  0  0  0  0  0999 V2000
  161.2940  207.7020  150.7350 C   0  0  0  0  0  0  0  0  0  0  0  0
  161.6370  209.9640  149.7010 N   0  0  0  0  0  0  0  0  0  0  0  0
  160.8470  208.6010  155.2680 C   0  0  0  0  0  0  0  0  0  0  0  0
  162.0240  209.3640  155.5340 N   0  0  0  0  0  2  0  0  0  0  0  0
  161.2060  208.0660  148.3790 O   0  0  0  0  0  0  0  0  0  0  0  0
  160.3370  210.1680  153.2790 C   0  0  1  0  0  3  0  0  0  0  0  0
  162.5080  210.3280  154.5610 C   0  0  0  0  0  2  0  0  0  0  0  0
  160.8670  208.3460  151.8290 C   0  0  0  0  0  0  0  0  0  0  0  0
  160.0810  208.7950  153.9900 C   0  0  1  0  0  3  0  0  0  0  0  0
  161.1900  210.5610  150.9280 C   0  0  0  0  0  3  0  0  0  0  0  0
  161.3240  211.1020  154.0000 C   0  0  0  0  0  2  0  0  0  0  0  0
  160.8350  209.7720  151.9340 C   0  0  0  0  0  0  0  0  0  0  0  0
  160.4530  207.7510  156.1070 O   0  0  0  0  0  0  0  0  0  0  0  0
  161.8200  208.5050  149.5550 C   0  0  0  0  0  0  0  0  0  0  0  0
  160.4430  207.7440  153.0380 N   0  0  0  0  0  2  0  0  0  0  0  0
  161.9140  205.4790  151.7710 C   0  0  0  0  0  0  0  0  0  0  0  0
  160.8820  205.5510  149.5740 C   0  0  0  0  0  3  0  0  0  0  0  0
  161.4810  203.4240  150.5580 C   0  0  0  0  0  3  0  0  0  0  0  0
  160.4560  203.5160  148.4100 F   0  0  0  0  0  0  0  0  0  0  0  0
  161.3790  206.2250  150.6980 C   0  0  0  0  0  0  0  0  0  0  0  0
  161.9630  204.0830  151.6910 C   0  0  0  0  0  3  0  0  0  0  0  0
  162.3690  206.1190  152.9590 N   0  0  0  0  0  1  0  0  0  0  0  0
  160.9360  204.1570  149.5020 C   0  0  0  0  0  0  0  0  0  0  0  0
  162.1100  210.8370  148.6360 C   0  0  0  0  0  2  0  0  0  0  0  0
  161.7740  213.3880  148.3060 C   0  0  1  0  0  3  0  0  0  0  0  0
  161.0380  212.8940  149.5420 C   0  0  0  0  0  2  0  0  0  0  0  0
  162.3560  212.2520  149.1650 C   0  0  1  0  0  3  0  0  0  0  0  0
  163.1410  213.3200  145.8010 F   0  0  0  0  0  0  0  0  0  0  0  0
  161.1120  212.9440  147.0240 C   0  0  0  0  0  0  0  0  0  0  0  0
  161.8360  212.9540  145.8200 C   0  0  0  0  0  0  0  0  0  0  0  0
  159.8710  212.2010  144.6180 C   0  0  0  0  0  3  0  0  0  0  0  0
  159.1400  212.2030  145.8080 C   0  0  0  0  0  3  0  0  0  0  0  0
  159.7560  212.5810  147.0040 C   0  0  0  0  0  3  0  0  0  0  0  0
  161.2160  212.5780  144.6240 C   0  0  0  0  0  3  0  0  0  0  0  0
  1  8  2  0  0  0  0
  2 10  1  0  0  0  0
  3  4  1  0  0  0  0
  3 13  2  0  0  0  0
  5 14  2  0  0  0  0
  6  9  1  0  0  0  0
  6 11  1  1  0  0  0
  7  4  1  0  0  0  0
  8 12  1  0  0  0  0
  8 15  1  0  0  0  0
  9 15  1  6  0  0  0
  9  3  1  0  0  0  0
 10 12  2  0  0  0  0
 11  7  1  0  0  0  0
 12  6  1  0  0  0  0
 14  2  1  0  0  0  0
 14  1  1  0  0  0  0
 16 22  1  0  0  0  0
 17 20  1  0  0  0  0
 18 21  2  0  0  0  0
 19 23  1  0  0  0  0
 20  1  1  0  0  0  0
 20 16  2  0  0  0  0
 21 16  1  0  0  0  0
 23 17  2  0  0  0  0
 23 18  1  0  0  0  0
 24  2  1  0  0  0  0
 25 29  1  6  0  0  0
 25 27  1  0  0  0  0
 25 26  1  0  0  0  0
 27 24  1  6  0  0  0
 27 26  1  0  0  0  0
 28 30  1  0  0  0  0
 30 29  2  0  0  0  0
 31 34  2  0  0  0  0
 31 32  1  0  0  0  0
 32 33  2  0  0  0  0
 33 29  1  0  0  0  0
 34 30  1  0  0  0  0
M  END
>  <MODEL>
8

>  <REMARK>
 VINA RESULT:      -5.9      2.629      6.619
  Name = 
  4 active torsions:
  status: ('A' for Active; 'I' for Inactive)
    1  A    between atoms: C_3  and  C_13
    2  A    between atoms: C_4  and  C_15
    3  A    between atoms: N_5  and  C_18
    4  A    between atoms: C_18  and  C_29
                            x       y       z     vdW  Elec       q    Type
                         _______ _______ _______ _____ _____    ______ ____

>  <TORSDO>
F 4

$$$$
=
 OpenBabel11062407593D

 34 39  0  0  1  0  0  0  0  0999 V2000
  161.2310  210.6010  151.2190 C   0  0  0  0  0  0  0  0  0  0  0  0
  161.6380  211.0650  148.7850 N   0  0  0  0  0  0  0  0  0  0  0  0
  161.4020  205.9710  151.5180 C   0  0  0  0  0  0  0  0  0  0  0  0
  160.4570  205.5760  150.5230 N   0  0  0  0  0  2  0  0  0  0  0  0
  161.6760  212.7910  150.3840 O   0  0  0  0  0  0  0  0  0  0  0  0
  162.5390  207.4930  149.7690 C   0  0  1  0  0  3  0  0  0  0  0  0
  160.3660  206.3050  149.2690 C   0  0  0  0  0  2  0  0  0  0  0  0
  161.6940  209.3650  150.9870 C   0  0  0  0  0  0  0  0  0  0  0  0
  162.3290  207.1290  151.2780 C   0  0  1  0  0  3  0  0  0  0  0  0
  162.0920  209.7110  148.6330 C   0  0  0  0  0  3  0  0  0  0  0  0
  161.7720  206.6090  148.7710 C   0  0  0  0  0  2  0  0  0  0  0  0
  162.1040  208.9150  149.6930 C   0  0  0  0  0  0  0  0  0  0  0  0
  161.4520  205.3490  152.6100 O   0  0  0  0  0  0  0  0  0  0  0  0
  161.0800  211.5700  150.0560 C   0  0  0  0  0  0  0  0  0  0  0  0
  161.8010  208.3240  151.9390 N   0  0  0  0  0  2  0  0  0  0  0  0
  159.5040  211.6370  152.7490 C   0  0  0  0  0  0  0  0  0  0  0  0
  161.5460  210.7050  153.6760 C   0  0  0  0  0  3  0  0  0  0  0  0
  159.8990  211.7020  155.1410 C   0  0  0  0  0  3  0  0  0  0  0  0
  161.9030  210.7720  156.0300 F   0  0  0  0  0  0  0  0  0  0  0  0
  160.7490  211.0000  152.5600 C   0  0  0  0  0  0  0  0  0  0  0  0
  159.0890  211.9860  154.0390 C   0  0  0  0  0  3  0  0  0  0  0  0
  158.6340  211.8950  151.6510 N   0  0  0  0  0  1  0  0  0  0  0  0
  161.1240  211.0590  154.9600 C   0  0  0  0  0  0  0  0  0  0  0  0
  161.5430  211.9040  147.5980 C   0  0  0  0  0  2  0  0  0  0  0  0
  160.0490  213.7090  146.4860 C   0  0  1  0  0  3  0  0  0  0  0  0
  159.2120  212.5490  147.0030 C   0  0  0  0  0  2  0  0  0  0  0  0
  160.4510  212.9620  147.7700 C   0  0  1  0  0  3  0  0  0  0  0  0
  158.9530  212.2050  144.3200 F   0  0  0  0  0  0  0  0  0  0  0  0
  160.8470  213.3430  145.2580 C   0  0  0  0  0  0  0  0  0  0  0  0
  160.2530  212.5820  144.2360 C   0  0  0  0  0  0  0  0  0  0  0  0
  162.3420  212.5820  143.0070 C   0  0  0  0  0  3  0  0  0  0  0  0
  162.9430  213.3250  144.0250 C   0  0  0  0  0  3  0  0  0  0  0  0
  162.2010  213.6970  145.1490 C   0  0  0  0  0  3  0  0  0  0  0  0
  161.0000  212.2090  143.1140 C   0  0  0  0  0  3  0  0  0  0  0  0
  1 20  1  0  0  0  0
  2 14  1  0  0  0  0
  3 13  2  0  0  0  0
  4  3  1  0  0  0  0
  6 11  1  6  0  0  0
  6  9  1  0  0  0  0
  7  4  1  0  0  0  0
  8  1  2  0  0  0  0
  8 15  1  0  0  0  0
  9  3  1  6  0  0  0
  9 15  1  0  0  0  0
 10  2  1  0  0  0  0
 10 12  2  0  0  0  0
 11  7  1  0  0  0  0
 12  6  1  0  0  0  0
 12  8  1  0  0  0  0
 14  5  2  0  0  0  0
 14  1  1  0  0  0  0
 16 21  1  0  0  0  0
 17 23  2  0  0  0  0
 20 16  2  0  0  0  0
 20 17  1  0  0  0  0
 21 18  2  0  0  0  0
 22 16  1  0  0  0  0
 23 18  1  0  0  0  0
 23 19  1  0  0  0  0
 24  2  1  0  0  0  0
 25 29  1  6  0  0  0
 25 26  1  0  0  0  0
 25 27  1  0  0  0  0
 26 27  1  0  0  0  0
 27 24  1  6  0  0  0
 30 28  1  0  0  0  0
 30 29  2  0  0  0  0
 31 34  2  0  0  0  0
 31 32  1  0  0  0  0
 32 33  2  0  0  0  0
 33 29  1  0  0  0  0
 34 30  1  0  0  0  0
M  END
>  <MODEL>
9

>  <REMARK>
 VINA RESULT:      -5.9      3.685      6.763
  Name = 
  4 active torsions:
  status: ('A' for Active; 'I' for Inactive)
    1  A    between atoms: C_3  and  C_13
    2  A    between atoms: C_4  and  C_15
    3  A    between atoms: N_5  and  C_18
    4  A    between atoms: C_18  and  C_29
                            x       y       z     vdW  Elec       q    Type
                         _______ _______ _______ _____ _____    ______ ____

>  <TORSDO>
F 4

$$$$
