=
 OpenBabel11052421473D

 30 31  0  0  1  0  0  0  0  0999 V2000
  160.6600  209.8020  152.6330 C   0  0  2  0  0  3  0  0  0  0  0  0
  161.7400  207.9070  149.5120 C   0  0  0  0  0  3  0  0  0  0  0  0
  161.2300  208.1750  150.7920 C   0  0  0  0  0  0  0  0  0  0  0  0
  161.7080  210.5330  150.4500 C   0  0  0  0  0  3  0  0  0  0  0  0
  161.2180  209.5010  151.2660 C   0  0  0  0  0  0  0  0  0  0  0  0
  162.2300  208.9400  148.7100 C   0  0  0  0  0  3  0  0  0  0  0  0
  162.2130  210.2530  149.1790 C   0  0  0  0  0  3  0  0  0  0  0  0
  160.7280  207.1170  151.6250 N   0  0  0  0  0  2  0  0  0  0  0  0
  162.9500  206.1150  151.8660 C   0  0  0  0  0  1  0  0  0  0  0  0
  161.1720  205.6610  153.5050 C   0  0  0  0  0  1  0  0  0  0  0  0
  160.9950  204.7140  151.2410 C   0  0  0  0  0  1  0  0  0  0  0  0
  161.4550  205.9190  152.0410 C   0  0  0  0  0  0  0  0  0  0  0  0
  159.3580  210.3920  152.5720 O   0  0  0  0  0  0  0  0  0  0  0  0
  159.2590  212.7830  152.9040 C   0  0  0  0  0  0  0  0  0  0  0  0
  158.8390  213.8990  153.6330 C   0  0  0  0  0  3  0  0  0  0  0  0
  160.0060  212.9580  151.7850 F   0  0  0  0  0  0  0  0  0  0  0  0
  158.1390  211.3350  154.4850 C   0  0  0  0  0  3  0  0  0  0  0  0
  156.9010  212.2720  156.4400 C   0  0  0  0  0  1  0  0  0  0  0  0
  158.9170  211.4910  153.3260 C   0  0  0  0  0  0  0  0  0  0  0  0
  158.0690  213.7340  154.7870 C   0  0  0  0  0  3  0  0  0  0  0  0
  157.7190  212.4500  155.2130 C   0  0  0  0  0  0  0  0  0  0  0  0
  161.6100  210.5610  153.5610 C   0  0  0  0  0  2  0  0  0  0  0  0
  161.8080  209.8190  154.8800 C   0  0  2  0  0  3  0  0  0  0  0  0
  161.7820  207.7490  157.0310 O   0  0  0  0  0  1  0  0  0  0  0  0
  160.6700  207.9500  156.2210 C   0  0  0  0  0  0  0  0  0  0  0  0
  159.6420  207.2460  156.3940 O   0  0  0  0  0  0  0  0  0  0  0  0
  160.6730  208.9550  155.2020 N   0  0  0  0  0  2  0  0  0  0  0  0
  163.3820  210.8150  156.5610 O   0  0  0  0  0  1  0  0  0  0  0  0
  161.1620  211.5630  156.4540 C   0  0  0  0  0  2  0  0  0  0  0  0
  162.1120  210.7600  156.0010 C   0  0  0  0  0  0  0  0  0  0  0  0
  1 22  1  6  0  0  0
  2  3  1  0  0  0  0
  3  5  2  0  0  0  0
  3  8  1  0  0  0  0
  4  5  1  0  0  0  0
  5  1  1  0  0  0  0
  6  7  1  0  0  0  0
  6  2  2  0  0  0  0
  7  4  2  0  0  0  0
  8 12  1  0  0  0  0
  9 12  1  0  0  0  0
 11 12  1  0  0  0  0
 12 10  1  0  0  0  0
 13  1  1  0  0  0  0
 13 19  1  0  0  0  0
 14 19  2  0  0  0  0
 14 15  1  0  0  0  0
 15 20  2  0  0  0  0
 16 14  1  0  0  0  0
 17 21  2  0  0  0  0
 19 17  1  0  0  0  0
 20 21  1  0  0  0  0
 21 18  1  0  0  0  0
 23 22  1  6  0  0  0
 23 27  1  0  0  0  0
 23 30  1  0  0  0  0
 25 26  2  0  0  0  0
 25 24  1  0  0  0  0
 27 25  1  0  0  0  0
 30 29  2  0  0  0  0
 30 28  1  0  0  0  0
M  END
>  <MODEL>
1

>  <REMARK>
 VINA RESULT:      -5.5      0.000      0.000
  Name = 
  9 active torsions:
  status: ('A' for Active; 'I' for Inactive)
    1  A    between atoms: O_1  and  C_5
    2  A    between atoms: O_1  and  C_22
    3  A    between atoms: C_4  and  C_5
    4  A    between atoms: C_4  and  C_23
    5  A    between atoms: C_5  and  C_12
    6  A    between atoms: C_8  and  N_13
    7  A    between atoms: N_13  and  C_30
    8  A    between atoms: C_23  and  N_25
    9  A    between atoms: C_23  and  C_26
                            x       y       z     vdW  Elec       q    Type
                         _______ _______ _______ _____ _____    ______ ____

>  <TORSDO>
F 9

$$$$
=
 OpenBabel11052421473D

 30 31  0  0  1  0  0  0  0  0999 V2000
  160.7620  207.1490  151.5570 C   0  0  2  0  0  3  0  0  0  0  0  0
  160.8360  209.1240  154.8120 C   0  0  0  0  0  3  0  0  0  0  0  0
  160.6680  208.8070  153.4550 C   0  0  0  0  0  0  0  0  0  0  0  0
  161.3920  206.5380  153.9290 C   0  0  0  0  0  3  0  0  0  0  0  0
  160.9520  207.5020  153.0100 C   0  0  0  0  0  0  0  0  0  0  0  0
  161.2790  208.1580  155.7180 C   0  0  0  0  0  3  0  0  0  0  0  0
  161.5560  206.8640  155.2760 C   0  0  0  0  0  3  0  0  0  0  0  0
  160.2170  209.7970  152.5150 N   0  0  0  0  0  2  0  0  0  0  0  0
  160.6190  211.6980  154.0060 C   0  0  0  0  0  1  0  0  0  0  0  0
  160.1340  212.0420  151.6180 C   0  0  0  0  0  1  0  0  0  0  0  0
  158.3430  211.2560  153.1110 C   0  0  0  0  0  1  0  0  0  0  0  0
  159.8300  211.1740  152.8200 C   0  0  0  0  0  0  0  0  0  0  0  0
  160.0130  205.9410  151.3840 O   0  0  0  0  0  0  0  0  0  0  0  0
  160.8470  203.7070  151.7660 C   0  0  0  0  0  0  0  0  0  0  0  0
  161.3460  202.4910  151.2900 C   0  0  0  0  0  3  0  0  0  0  0  0
  160.6960  203.8900  153.1010 F   0  0  0  0  0  0  0  0  0  0  0  0
  160.6700  204.5170  149.4940 C   0  0  0  0  0  3  0  0  0  0  0  0
  161.3400  203.0900  147.5580 C   0  0  0  0  0  1  0  0  0  0  0  0
  160.5090  204.7320  150.8720 C   0  0  0  0  0  0  0  0  0  0  0  0
  161.5080  202.2880  149.9170 C   0  0  0  0  0  3  0  0  0  0  0  0
  161.1690  203.3030  149.0190 C   0  0  0  0  0  0  0  0  0  0  0  0
  162.0390  207.1770  150.7170 C   0  0  0  0  0  2  0  0  0  0  0  0
  161.8270  207.9400  149.4110 C   0  0  2  0  0  3  0  0  0  0  0  0
  160.5190  206.6670  147.0500 O   0  0  0  0  0  1  0  0  0  0  0  0
  161.9030  206.6930  147.1690 C   0  0  0  0  0  0  0  0  0  0  0  0
  162.6120  206.1690  146.2730 O   0  0  0  0  0  0  0  0  0  0  0  0
  162.5330  207.3210  148.2900 N   0  0  0  0  0  2  0  0  0  0  0  0
  162.7070  209.8750  150.7440 O   0  0  0  0  0  1  0  0  0  0  0  0
  162.0290  210.2000  148.5230 C   0  0  0  0  0  2  0  0  0  0  0  0
  162.1890  209.3830  149.5530 C   0  0  0  0  0  0  0  0  0  0  0  0
  1 22  1  1  0  0  0
  1  5  1  0  0  0  0
  2  6  1  0  0  0  0
  3  2  2  0  0  0  0
  4  7  1  0  0  0  0
  5  3  1  0  0  0  0
  5  4  2  0  0  0  0
  7  6  2  0  0  0  0
  8 12  1  0  0  0  0
  8  3  1  0  0  0  0
 10 12  1  0  0  0  0
 12 11  1  0  0  0  0
 12  9  1  0  0  0  0
 13  1  1  0  0  0  0
 14 16  1  0  0  0  0
 15 14  1  0  0  0  0
 17 19  1  0  0  0  0
 18 21  1  0  0  0  0
 19 13  1  0  0  0  0
 19 14  2  0  0  0  0
 20 15  2  0  0  0  0
 21 17  2  0  0  0  0
 21 20  1  0  0  0  0
 23 30  1  0  0  0  0
 23 22  1  1  0  0  0
 24 25  1  0  0  0  0
 25 27  1  0  0  0  0
 26 25  2  0  0  0  0
 27 23  1  0  0  0  0
 29 30  2  0  0  0  0
 30 28  1  0  0  0  0
M  END
>  <MODEL>
2

>  <REMARK>
 VINA RESULT:      -5.4      3.310      7.876
  Name = 
  9 active torsions:
  status: ('A' for Active; 'I' for Inactive)
    1  A    between atoms: O_1  and  C_5
    2  A    between atoms: O_1  and  C_22
    3  A    between atoms: C_4  and  C_5
    4  A    between atoms: C_4  and  C_23
    5  A    between atoms: C_5  and  C_12
    6  A    between atoms: C_8  and  N_13
    7  A    between atoms: N_13  and  C_30
    8  A    between atoms: C_23  and  N_25
    9  A    between atoms: C_23  and  C_26
                            x       y       z     vdW  Elec       q    Type
                         _______ _______ _______ _____ _____    ______ ____

>  <TORSDO>
F 9

$$$$
=
 OpenBabel11052421473D

 30 31  0  0  1  0  0  0  0  0999 V2000
  160.8000  210.9350  152.2560 C   0  0  2  0  0  3  0  0  0  0  0  0
  157.9850  213.4820  151.9520 C   0  0  0  0  0  3  0  0  0  0  0  0
  158.7360  212.3770  152.3880 C   0  0  0  0  0  0  0  0  0  0  0  0
  160.4560  212.9530  150.7720 C   0  0  0  0  0  3  0  0  0  0  0  0
  159.9810  212.1100  151.7880 C   0  0  0  0  0  0  0  0  0  0  0  0
  158.4650  214.3110  150.9380 C   0  0  0  0  0  3  0  0  0  0  0  0
  159.7010  214.0480  150.3480 C   0  0  0  0  0  3  0  0  0  0  0  0
  158.2470  211.5150  153.4280 N   0  0  0  0  0  2  0  0  0  0  0  0
  156.4700  212.3870  154.8690 C   0  0  0  0  0  1  0  0  0  0  0  0
  158.0610  210.7030  155.6990 C   0  0  0  0  0  1  0  0  0  0  0  0
  158.8430  212.9990  155.2830 C   0  0  0  0  0  1  0  0  0  0  0  0
  157.9080  211.9070  154.7950 C   0  0  0  0  0  0  0  0  0  0  0  0
  161.2000  211.0610  153.6250 O   0  0  0  0  0  0  0  0  0  0  0  0
  161.8490  210.2740  155.8140 C   0  0  0  0  0  0  0  0  0  0  0  0
  161.9560  209.2530  156.7640 C   0  0  0  0  0  3  0  0  0  0  0  0
  162.2940  211.5180  156.1190 F   0  0  0  0  0  0  0  0  0  0  0  0
  160.8320  208.7180  154.2650 C   0  0  0  0  0  3  0  0  0  0  0  0
  160.4560  206.3310  154.8930 C   0  0  0  0  0  1  0  0  0  0  0  0
  161.2900  210.0140  154.5550 C   0  0  0  0  0  0  0  0  0  0  0  0
  161.5020  207.9660  156.4640 C   0  0  0  0  0  3  0  0  0  0  0  0
  160.9390  207.7000  155.2140 C   0  0  0  0  0  0  0  0  0  0  0  0
  161.9600  210.5520  151.3350 C   0  0  0  0  0  2  0  0  0  0  0  0
  161.7030  209.2140  150.6460 C   0  0  2  0  0  3  0  0  0  0  0  0
  160.7090  206.4230  151.0080 O   0  0  0  0  0  0  0  0  0  0  0  0
  161.9750  206.7920  151.4480 C   0  0  0  0  0  0  0  0  0  0  0  0
  162.7080  205.9390  152.0110 O   0  0  0  0  0  1  0  0  0  0  0  0
  162.4610  208.1240  151.2580 N   0  0  0  0  0  2  0  0  0  0  0  0
  162.0160  208.1480  148.3970 O   0  0  0  0  0  1  0  0  0  0  0  0
  162.1100  210.4820  148.6050 C   0  0  0  0  0  2  0  0  0  0  0  0
  161.9560  209.2960  149.1750 C   0  0  0  0  0  0  0  0  0  0  0  0
  1 22  1  6  0  0  0
  1 13  1  0  0  0  0
  2  3  1  0  0  0  0
  3  8  1  0  0  0  0
  4  5  1  0  0  0  0
  5  1  1  0  0  0  0
  5  3  2  0  0  0  0
  6  2  2  0  0  0  0
  7  4  2  0  0  0  0
  7  6  1  0  0  0  0
  8 12  1  0  0  0  0
 12  9  1  0  0  0  0
 12 11  1  0  0  0  0
 12 10  1  0  0  0  0
 13 19  1  0  0  0  0
 14 16  1  0  0  0  0
 14 15  1  0  0  0  0
 17 19  1  0  0  0  0
 17 21  2  0  0  0  0
 18 21  1  0  0  0  0
 19 14  2  0  0  0  0
 20 15  2  0  0  0  0
 21 20  1  0  0  0  0
 23 27  1  0  0  0  0
 23 22  1  1  0  0  0
 24 25  2  0  0  0  0
 25 26  1  0  0  0  0
 27 25  1  0  0  0  0
 28 30  1  0  0  0  0
 29 30  2  0  0  0  0
 30 23  1  0  0  0  0
M  END
>  <MODEL>
3

>  <REMARK>
 VINA RESULT:      -5.2      2.438      5.900
  Name = 
  9 active torsions:
  status: ('A' for Active; 'I' for Inactive)
    1  A    between atoms: O_1  and  C_5
    2  A    between atoms: O_1  and  C_22
    3  A    between atoms: C_4  and  C_5
    4  A    between atoms: C_4  and  C_23
    5  A    between atoms: C_5  and  C_12
    6  A    between atoms: C_8  and  N_13
    7  A    between atoms: N_13  and  C_30
    8  A    between atoms: C_23  and  N_25
    9  A    between atoms: C_23  and  C_26
                            x       y       z     vdW  Elec       q    Type
                         _______ _______ _______ _____ _____    ______ ____

>  <TORSDO>
F 9

$$$$
=
 OpenBabel11052421473D

 30 31  0  0  1  0  0  0  0  0999 V2000
  161.4450  210.4160  152.0490 C   0  0  2  0  0  3  0  0  0  0  0  0
  161.1470  208.1440  155.0910 C   0  0  0  0  0  3  0  0  0  0  0  0
  161.3120  209.2960  154.3050 C   0  0  0  0  0  0  0  0  0  0  0  0
  161.0810  207.9270  152.3110 C   0  0  0  0  0  3  0  0  0  0  0  0
  161.2820  209.1840  152.9020 C   0  0  0  0  0  0  0  0  0  0  0  0
  160.9520  206.8980  154.4930 C   0  0  0  0  0  3  0  0  0  0  0  0
  160.9180  206.7890  153.1030 C   0  0  0  0  0  3  0  0  0  0  0  0
  161.5180  210.5820  154.9120 N   0  0  0  0  0  2  0  0  0  0  0  0
  159.7060  210.2070  156.5160 C   0  0  0  0  0  1  0  0  0  0  0  0
  161.9050  211.0240  157.2580 C   0  0  0  0  0  1  0  0  0  0  0  0
  160.4410  212.5150  155.9600 C   0  0  0  0  0  1  0  0  0  0  0  0
  160.8900  211.0760  156.1370 C   0  0  0  0  0  0  0  0  0  0  0  0
  160.1900  210.9360  151.5990 O   0  0  0  0  0  0  0  0  0  0  0  0
  159.3880  213.1160  152.2620 C   0  0  0  0  0  0  0  0  0  0  0  0
  158.5250  213.9270  153.0040 C   0  0  0  0  0  3  0  0  0  0  0  0
  160.3110  213.6910  151.4510 F   0  0  0  0  0  0  0  0  0  0  0  0
  158.3390  211.1490  153.1990 C   0  0  0  0  0  3  0  0  0  0  0  0
  156.4610  211.3420  154.8340 C   0  0  0  0  0  1  0  0  0  0  0  0
  159.3060  211.7200  152.3570 C   0  0  0  0  0  0  0  0  0  0  0  0
  157.5690  213.3490  153.8440 C   0  0  0  0  0  3  0  0  0  0  0  0
  157.4770  211.9590  153.9410 C   0  0  0  0  0  0  0  0  0  0  0  0
  162.4700  210.2850  150.9210 C   0  0  0  0  0  2  0  0  0  0  0  0
  161.7930  210.3080  149.5520 C   0  0  2  0  0  3  0  0  0  0  0  0
  160.7540  207.5150  149.3760 O   0  0  0  0  0  1  0  0  0  0  0  0
  161.8270  207.9270  148.5950 C   0  0  0  0  0  0  0  0  0  0  0  0
  162.3700  207.1090  147.8080 O   0  0  0  0  0  0  0  0  0  0  0  0
  162.3150  209.2700  148.6630 N   0  0  0  0  0  2  0  0  0  0  0  0
  160.8120  212.5490  148.9960 O   0  0  0  0  0  1  0  0  0  0  0  0
  162.9860  212.0190  148.2930 C   0  0  0  0  0  2  0  0  0  0  0  0
  161.8760  211.6600  148.9200 C   0  0  0  0  0  0  0  0  0  0  0  0
  1 22  1  6  0  0  0
  1  5  1  0  0  0  0
  3  8  1  0  0  0  0
  3  2  2  0  0  0  0
  4  5  2  0  0  0  0
  4  7  1  0  0  0  0
  5  3  1  0  0  0  0
  6  2  1  0  0  0  0
  7  6  2  0  0  0  0
  8 12  1  0  0  0  0
 11 12  1  0  0  0  0
 12  9  1  0  0  0  0
 12 10  1  0  0  0  0
 13  1  1  0  0  0  0
 13 19  1  0  0  0  0
 14 19  2  0  0  0  0
 14 15  1  0  0  0  0
 15 20  2  0  0  0  0
 16 14  1  0  0  0  0
 17 21  2  0  0  0  0
 19 17  1  0  0  0  0
 20 21  1  0  0  0  0
 21 18  1  0  0  0  0
 23 22  1  1  0  0  0
 25 27  1  0  0  0  0
 25 24  1  0  0  0  0
 26 25  2  0  0  0  0
 27 23  1  0  0  0  0
 29 30  2  0  0  0  0
 30 28  1  0  0  0  0
 30 23  1  0  0  0  0
M  END
>  <MODEL>
4

>  <REMARK>
 VINA RESULT:      -5.2      2.433      5.338
  Name = 
  9 active torsions:
  status: ('A' for Active; 'I' for Inactive)
    1  A    between atoms: O_1  and  C_5
    2  A    between atoms: O_1  and  C_22
    3  A    between atoms: C_4  and  C_5
    4  A    between atoms: C_4  and  C_23
    5  A    between atoms: C_5  and  C_12
    6  A    between atoms: C_8  and  N_13
    7  A    between atoms: N_13  and  C_30
    8  A    between atoms: C_23  and  N_25
    9  A    between atoms: C_23  and  C_26
                            x       y       z     vdW  Elec       q    Type
                         _______ _______ _______ _____ _____    ______ ____

>  <TORSDO>
F 9

$$$$
=
 OpenBabel11052421473D

 30 31  0  0  1  0  0  0  0  0999 V2000
  160.2020  211.2290  152.8710 C   0  0  2  0  0  3  0  0  0  0  0  0
  159.9500  210.6600  156.6280 C   0  0  0  0  0  3  0  0  0  0  0  0
  159.5840  210.8990  155.2940 C   0  0  0  0  0  0  0  0  0  0  0  0
  161.9310  210.8240  154.6710 C   0  0  0  0  0  3  0  0  0  0  0  0
  160.5850  210.9860  154.3080 C   0  0  0  0  0  0  0  0  0  0  0  0
  161.2920  210.5050  156.9790 C   0  0  0  0  0  3  0  0  0  0  0  0
  162.2830  210.5870  156.0010 C   0  0  0  0  0  3  0  0  0  0  0  0
  158.2050  211.0650  154.9230 N   0  0  0  0  0  2  0  0  0  0  0  0
  158.0140  213.4200  155.5640 C   0  0  0  0  0  1  0  0  0  0  0  0
  156.1720  212.2700  154.4090 C   0  0  0  0  0  1  0  0  0  0  0  0
  156.6860  211.6810  156.7420 C   0  0  0  0  0  1  0  0  0  0  0  0
  157.2900  212.0950  155.4130 C   0  0  0  0  0  0  0  0  0  0  0  0
  161.1780  210.7240  151.9540 O   0  0  0  0  0  0  0  0  0  0  0  0
  161.8590  209.0460  150.3560 C   0  0  0  0  0  0  0  0  0  0  0  0
  162.0720  207.7100  150.0020 C   0  0  0  0  0  3  0  0  0  0  0  0
  162.1130  210.0240  149.4520 F   0  0  0  0  0  0  0  0  0  0  0  0
  161.1330  208.3420  152.5530 C   0  0  0  0  0  3  0  0  0  0  0  0
  161.0710  205.9260  153.1800 C   0  0  0  0  0  1  0  0  0  0  0  0
  161.3830  209.3730  151.6330 C   0  0  0  0  0  0  0  0  0  0  0  0
  161.8150  206.6910  150.9220 C   0  0  0  0  0  3  0  0  0  0  0  0
  161.3460  207.0080  152.1990 C   0  0  0  0  0  0  0  0  0  0  0  0
  159.7790  212.6640  152.5530 C   0  0  0  0  0  2  0  0  0  0  0  0
  159.5240  212.8490  151.0590 C   0  0  2  0  0  3  0  0  0  0  0  0
  160.4610  212.5670  148.2390 O   0  0  0  0  0  0  0  0  0  0  0  0
  161.0060  213.5320  149.0790 C   0  0  0  0  0  0  0  0  0  0  0  0
  161.9100  214.2910  148.6450 O   0  0  0  0  0  1  0  0  0  0  0  0
  160.5450  213.6820  150.4240 N   0  0  0  0  0  2  0  0  0  0  0  0
  157.4280  212.9640  149.6850 O   0  0  0  0  0  1  0  0  0  0  0  0
  157.6090  214.2360  151.6480 C   0  0  0  0  0  2  0  0  0  0  0  0
  158.1500  213.3760  150.7980 C   0  0  0  0  0  0  0  0  0  0  0  0
  1 22  1  1  0  0  0
  1  5  1  0  0  0  0
  2  6  1  0  0  0  0
  3  2  2  0  0  0  0
  4  7  1  0  0  0  0
  5  4  2  0  0  0  0
  5  3  1  0  0  0  0
  7  6  2  0  0  0  0
  8  3  1  0  0  0  0
  8 12  1  0  0  0  0
 10 12  1  0  0  0  0
 12  9  1  0  0  0  0
 12 11  1  0  0  0  0
 13  1  1  0  0  0  0
 14 19  1  0  0  0  0
 15 14  2  0  0  0  0
 15 20  1  0  0  0  0
 16 14  1  0  0  0  0
 19 13  1  0  0  0  0
 19 17  2  0  0  0  0
 20 21  2  0  0  0  0
 21 17  1  0  0  0  0
 21 18  1  0  0  0  0
 23 22  1  1  0  0  0
 24 25  2  0  0  0  0
 25 27  1  0  0  0  0
 26 25  1  0  0  0  0
 27 23  1  0  0  0  0
 28 30  1  0  0  0  0
 30 23  1  0  0  0  0
 30 29  2  0  0  0  0
M  END
>  <MODEL>
5

>  <REMARK>
 VINA RESULT:      -5.1      2.637      7.089
  Name = 
  9 active torsions:
  status: ('A' for Active; 'I' for Inactive)
    1  A    between atoms: O_1  and  C_5
    2  A    between atoms: O_1  and  C_22
    3  A    between atoms: C_4  and  C_5
    4  A    between atoms: C_4  and  C_23
    5  A    between atoms: C_5  and  C_12
    6  A    between atoms: C_8  and  N_13
    7  A    between atoms: N_13  and  C_30
    8  A    between atoms: C_23  and  N_25
    9  A    between atoms: C_23  and  C_26
                            x       y       z     vdW  Elec       q    Type
                         _______ _______ _______ _____ _____    ______ ____

>  <TORSDO>
F 9

$$$$
=
 OpenBabel11052421473D

 30 31  0  0  1  0  0  0  0  0999 V2000
  160.6250  209.9790  152.2000 C   0  0  2  0  0  3  0  0  0  0  0  0
  159.5270  212.7250  154.5980 C   0  0  0  0  0  3  0  0  0  0  0  0
  160.2300  211.6350  154.0600 C   0  0  0  0  0  0  0  0  0  0  0  0
  158.8210  211.7470  152.0840 C   0  0  0  0  0  3  0  0  0  0  0  0
  159.8690  211.1400  152.7920 C   0  0  0  0  0  0  0  0  0  0  0  0
  158.4830  213.3190  153.8870 C   0  0  0  0  0  3  0  0  0  0  0  0
  158.1300  212.8300  152.6300 C   0  0  0  0  0  3  0  0  0  0  0  0
  161.3030  211.0150  154.7870 N   0  0  0  0  0  2  0  0  0  0  0  0
  162.4880  209.7350  156.5050 C   0  0  0  0  0  1  0  0  0  0  0  0
  161.2920  211.8090  157.0720 C   0  0  0  0  0  1  0  0  0  0  0  0
  160.0050  209.8000  156.4700 C   0  0  0  0  0  1  0  0  0  0  0  0
  161.2730  210.5840  156.1840 C   0  0  0  0  0  0  0  0  0  0  0  0
  160.8340  208.9250  153.1460 O   0  0  0  0  0  0  0  0  0  0  0  0
  161.1510  206.6490  153.8890 C   0  0  0  0  0  0  0  0  0  0  0  0
  161.2650  205.2810  153.6230 C   0  0  0  0  0  3  0  0  0  0  0  0
  161.2500  207.0910  155.1670 F   0  0  0  0  0  0  0  0  0  0  0  0
  160.8370  207.0750  151.5290 C   0  0  0  0  0  3  0  0  0  0  0  0
  160.8460  205.2120  149.8680 C   0  0  0  0  0  1  0  0  0  0  0  0
  160.9410  207.5580  152.8430 C   0  0  0  0  0  0  0  0  0  0  0  0
  161.1660  204.8110  152.3110 C   0  0  0  0  0  3  0  0  0  0  0  0
  160.9520  205.7090  151.2640 C   0  0  0  0  0  0  0  0  0  0  0  0
  161.9020  210.3600  151.4500 C   0  0  0  0  0  2  0  0  0  0  0  0
  161.7210  210.2240  149.9400 C   0  0  2  0  0  3  0  0  0  0  0  0
  160.8960  208.0430  148.0760 O   0  0  0  0  0  1  0  0  0  0  0  0
  162.2180  208.1690  148.4870 C   0  0  0  0  0  0  0  0  0  0  0  0
  163.0760  207.3480  148.0710 O   0  0  0  0  0  0  0  0  0  0  0  0
  162.6200  209.2250  149.3640 N   0  0  0  0  0  2  0  0  0  0  0  0
  161.0490  212.6170  149.5990 O   0  0  0  0  0  1  0  0  0  0  0  0
  162.7710  211.6920  148.3020 C   0  0  0  0  0  2  0  0  0  0  0  0
  161.8570  211.5430  149.2490 C   0  0  0  0  0  0  0  0  0  0  0  0
  1 22  1  1  0  0  0
  1  5  1  0  0  0  0
  1 13  1  0  0  0  0
  3  2  1  0  0  0  0
  3  8  1  0  0  0  0
  4  7  2  0  0  0  0
  4  5  1  0  0  0  0
  5  3  2  0  0  0  0
  6  2  2  0  0  0  0
  7  6  1  0  0  0  0
  8 12  1  0  0  0  0
 12 11  1  0  0  0  0
 12  9  1  0  0  0  0
 12 10  1  0  0  0  0
 14 16  1  0  0  0  0
 15 14  1  0  0  0  0
 17 19  1  0  0  0  0
 18 21  1  0  0  0  0
 19 13  1  0  0  0  0
 19 14  2  0  0  0  0
 20 15  2  0  0  0  0
 21 17  2  0  0  0  0
 21 20  1  0  0  0  0
 23 22  1  1  0  0  0
 24 25  1  0  0  0  0
 25 27  1  0  0  0  0
 26 25  2  0  0  0  0
 27 23  1  0  0  0  0
 29 30  2  0  0  0  0
 30 28  1  0  0  0  0
 30 23  1  0  0  0  0
M  END
>  <MODEL>
6

>  <REMARK>
 VINA RESULT:      -4.9      2.536      6.744
  Name = 
  9 active torsions:
  status: ('A' for Active; 'I' for Inactive)
    1  A    between atoms: O_1  and  C_5
    2  A    between atoms: O_1  and  C_22
    3  A    between atoms: C_4  and  C_5
    4  A    between atoms: C_4  and  C_23
    5  A    between atoms: C_5  and  C_12
    6  A    between atoms: C_8  and  N_13
    7  A    between atoms: N_13  and  C_30
    8  A    between atoms: C_23  and  N_25
    9  A    between atoms: C_23  and  C_26
                            x       y       z     vdW  Elec       q    Type
                         _______ _______ _______ _____ _____    ______ ____

>  <TORSDO>
F 9

$$$$
=
 OpenBabel11052421473D

 30 31  0  0  1  0  0  0  0  0999 V2000
  159.5990  211.6580  152.4050 C   0  0  2  0  0  3  0  0  0  0  0  0
  158.4960  211.5330  156.0470 C   0  0  0  0  0  3  0  0  0  0  0  0
  159.3180  211.5960  154.9100 C   0  0  0  0  0  0  0  0  0  0  0  0
  157.3320  211.5030  153.5140 C   0  0  0  0  0  3  0  0  0  0  0  0
  158.7280  211.5770  153.6320 C   0  0  0  0  0  0  0  0  0  0  0  0
  157.1090  211.4550  155.9190 C   0  0  0  0  0  3  0  0  0  0  0  0
  156.5260  211.4410  154.6520 C   0  0  0  0  0  3  0  0  0  0  0  0
  160.7470  211.6710  155.0330 N   0  0  0  0  0  2  0  0  0  0  0  0
  162.9650  210.7020  155.4090 C   0  0  0  0  0  1  0  0  0  0  0  0
  161.7120  211.7490  157.2500 C   0  0  0  0  0  1  0  0  0  0  0  0
  160.9350  209.6030  156.3310 C   0  0  0  0  0  1  0  0  0  0  0  0
  161.5790  210.9330  155.9830 C   0  0  0  0  0  0  0  0  0  0  0  0
  160.8660  211.0190  152.5930 O   0  0  0  0  0  0  0  0  0  0  0  0
  161.7960  209.6450  150.8380 C   0  0  0  0  0  0  0  0  0  0  0  0
  162.1640  208.3960  150.3290 C   0  0  0  0  0  3  0  0  0  0  0  0
  161.9910  210.7560  150.0850 F   0  0  0  0  0  0  0  0  0  0  0  0
  161.0400  208.5850  152.8760 C   0  0  0  0  0  3  0  0  0  0  0  0
  161.1990  206.1120  153.1810 C   0  0  0  0  0  1  0  0  0  0  0  0
  161.2260  209.7490  152.1140 C   0  0  0  0  0  0  0  0  0  0  0  0
  161.9700  207.2430  151.0920 C   0  0  0  0  0  3  0  0  0  0  0  0
  161.4070  207.3380  152.3670 C   0  0  0  0  0  0  0  0  0  0  0  0
  159.7280  213.0560  151.7990 C   0  0  0  0  0  2  0  0  0  0  0  0
  159.2690  213.0750  150.3430 C   0  0  2  0  0  3  0  0  0  0  0  0
  160.4860  212.2620  147.7410 O   0  0  0  0  0  1  0  0  0  0  0  0
  160.7160  213.5260  148.2720 C   0  0  0  0  0  0  0  0  0  0  0  0
  161.4500  214.3350  147.6490 O   0  0  0  0  0  0  0  0  0  0  0  0
  160.1180  213.9250  149.5090 N   0  0  0  0  0  2  0  0  0  0  0  0
  157.2030  214.1940  151.2220 O   0  0  0  0  0  1  0  0  0  0  0  0
  157.1460  213.1020  149.1470 C   0  0  0  0  0  2  0  0  0  0  0  0
  157.8290  213.4570  150.2250 C   0  0  0  0  0  0  0  0  0  0  0  0
  1 22  1  1  0  0  0
  1 13  1  0  0  0  0
  1  5  1  0  0  0  0
  3  8  1  0  0  0  0
  3  2  2  0  0  0  0
  4  5  2  0  0  0  0
  4  7  1  0  0  0  0
  5  3  1  0  0  0  0
  6  2  1  0  0  0  0
  7  6  2  0  0  0  0
  8 12  1  0  0  0  0
  9 12  1  0  0  0  0
 12 11  1  0  0  0  0
 12 10  1  0  0  0  0
 14 19  1  0  0  0  0
 15 14  2  0  0  0  0
 15 20  1  0  0  0  0
 16 14  1  0  0  0  0
 19 13  1  0  0  0  0
 19 17  2  0  0  0  0
 20 21  2  0  0  0  0
 21 17  1  0  0  0  0
 21 18  1  0  0  0  0
 23 22  1  1  0  0  0
 24 25  1  0  0  0  0
 25 27  1  0  0  0  0
 26 25  2  0  0  0  0
 27 23  1  0  0  0  0
 29 30  2  0  0  0  0
 30 23  1  0  0  0  0
 30 28  1  0  0  0  0
M  END
>  <MODEL>
7

>  <REMARK>
 VINA RESULT:      -4.9      2.828      6.966
  Name = 
  9 active torsions:
  status: ('A' for Active; 'I' for Inactive)
    1  A    between atoms: O_1  and  C_5
    2  A    between atoms: O_1  and  C_22
    3  A    between atoms: C_4  and  C_5
    4  A    between atoms: C_4  and  C_23
    5  A    between atoms: C_5  and  C_12
    6  A    between atoms: C_8  and  N_13
    7  A    between atoms: N_13  and  C_30
    8  A    between atoms: C_23  and  N_25
    9  A    between atoms: C_23  and  C_26
                            x       y       z     vdW  Elec       q    Type
                         _______ _______ _______ _____ _____    ______ ____

>  <TORSDO>
F 9

$$$$
=
 OpenBabel11052421473D

 30 31  0  0  1  0  0  0  0  0999 V2000
  161.1030  210.5010  152.3940 C   0  0  2  0  0  3  0  0  0  0  0  0
  158.4590  213.1690  151.7690 C   0  0  0  0  0  3  0  0  0  0  0  0
  159.1530  212.0990  152.3570 C   0  0  0  0  0  0  0  0  0  0  0  0
  160.8250  212.2640  150.6030 C   0  0  0  0  0  3  0  0  0  0  0  0
  160.3440  211.6400  151.7640 C   0  0  0  0  0  0  0  0  0  0  0  0
  158.9430  213.7790  150.6110 C   0  0  0  0  0  3  0  0  0  0  0  0
  160.1260  213.3270  150.0280 C   0  0  0  0  0  3  0  0  0  0  0  0
  158.6590  211.4620  153.5470 N   0  0  0  0  0  2  0  0  0  0  0  0
  158.0940  211.0610  155.8960 C   0  0  0  0  0  1  0  0  0  0  0  0
  159.6720  212.8390  155.2590 C   0  0  0  0  0  1  0  0  0  0  0  0
  157.2820  213.1030  154.7340 C   0  0  0  0  0  1  0  0  0  0  0  0
  158.4180  212.1020  154.8400 C   0  0  0  0  0  0  0  0  0  0  0  0
  162.0540  209.9180  151.4970 O   0  0  0  0  0  0  0  0  0  0  0  0
  161.9550  208.9880  149.2700 C   0  0  0  0  0  0  0  0  0  0  0  0
  161.7300  207.9160  148.4020 C   0  0  0  0  0  3  0  0  0  0  0  0
  162.2990  210.1970  148.7610 F   0  0  0  0  0  0  0  0  0  0  0  0
  161.4710  207.5560  151.1580 C   0  0  0  0  0  3  0  0  0  0  0  0
  160.8670  205.1550  150.8350 C   0  0  0  0  0  1  0  0  0  0  0  0
  161.8230  208.8190  150.6550 C   0  0  0  0  0  0  0  0  0  0  0  0
  161.3750  206.6640  148.9120 C   0  0  0  0  0  3  0  0  0  0  0  0
  161.2450  206.4850  150.2910 C   0  0  0  0  0  0  0  0  0  0  0  0
  160.2310  209.4560  153.0920 C   0  0  0  0  0  2  0  0  0  0  0  0
  160.6880  209.2220  154.5300 C   0  0  2  0  0  3  0  0  0  0  0  0
  161.5470  210.3490  157.1560 O   0  0  0  0  0  1  0  0  0  0  0  0
  162.3930  210.3850  156.0540 C   0  0  0  0  0  0  0  0  0  0  0  0
  163.5330  210.9040  156.1650 O   0  0  0  0  0  0  0  0  0  0  0  0
  161.9910  209.8280  154.7990 N   0  0  0  0  0  2  0  0  0  0  0  0
  161.4810  206.8660  154.1940 O   0  0  0  0  0  1  0  0  0  0  0  0
  159.9070  207.3410  155.8670 C   0  0  0  0  0  2  0  0  0  0  0  0
  160.6790  207.7690  154.8790 C   0  0  0  0  0  0  0  0  0  0  0  0
  1 22  1  6  0  0  0
  2  3  1  0  0  0  0
  3  8  1  0  0  0  0
  4  5  1  0  0  0  0
  5  3  2  0  0  0  0
  5  1  1  0  0  0  0
  6  2  2  0  0  0  0
  7  4  2  0  0  0  0
  7  6  1  0  0  0  0
  8 12  1  0  0  0  0
 11 12  1  0  0  0  0
 12 10  1  0  0  0  0
 12  9  1  0  0  0  0
 13  1  1  0  0  0  0
 14 19  1  0  0  0  0
 15 20  1  0  0  0  0
 15 14  2  0  0  0  0
 16 14  1  0  0  0  0
 19 17  2  0  0  0  0
 19 13  1  0  0  0  0
 20 21  2  0  0  0  0
 21 18  1  0  0  0  0
 21 17  1  0  0  0  0
 23 22  1  6  0  0  0
 23 27  1  0  0  0  0
 23 30  1  0  0  0  0
 25 26  2  0  0  0  0
 25 24  1  0  0  0  0
 27 25  1  0  0  0  0
 28 30  1  0  0  0  0
 30 29  2  0  0  0  0
M  END
>  <MODEL>
8

>  <REMARK>
 VINA RESULT:      -4.9      1.916      5.769
  Name = 
  9 active torsions:
  status: ('A' for Active; 'I' for Inactive)
    1  A    between atoms: O_1  and  C_5
    2  A    between atoms: O_1  and  C_22
    3  A    between atoms: C_4  and  C_5
    4  A    between atoms: C_4  and  C_23
    5  A    between atoms: C_5  and  C_12
    6  A    between atoms: C_8  and  N_13
    7  A    between atoms: N_13  and  C_30
    8  A    between atoms: C_23  and  N_25
    9  A    between atoms: C_23  and  C_26
                            x       y       z     vdW  Elec       q    Type
                         _______ _______ _______ _____ _____    ______ ____

>  <TORSDO>
F 9

$$$$
=
 OpenBabel11052421473D

 30 31  0  0  1  0  0  0  0  0999 V2000
  160.5760  211.2510  152.3820 C   0  0  2  0  0  3  0  0  0  0  0  0
  159.1680  213.9550  150.1000 C   0  0  0  0  0  3  0  0  0  0  0  0
  160.0140  212.9600  150.6140 C   0  0  0  0  0  0  0  0  0  0  0  0
  158.5060  212.7000  152.5000 C   0  0  0  0  0  3  0  0  0  0  0  0
  159.6810  212.3300  151.8280 C   0  0  0  0  0  0  0  0  0  0  0  0
  158.0040  214.3190  150.7790 C   0  0  0  0  0  3  0  0  0  0  0  0
  157.6720  213.6910  151.9790 C   0  0  0  0  0  3  0  0  0  0  0  0
  161.2170  212.5830  149.9240 N   0  0  0  0  0  2  0  0  0  0  0  0
  161.6960  214.4130  148.3700 C   0  0  0  0  0  1  0  0  0  0  0  0
  162.8980  212.2720  148.2130 C   0  0  0  0  0  1  0  0  0  0  0  0
  160.5210  212.3690  147.5860 C   0  0  0  0  0  1  0  0  0  0  0  0
  161.5670  212.9110  148.5430 C   0  0  0  0  0  0  0  0  0  0  0  0
  160.0750  209.9380  152.1140 O   0  0  0  0  0  0  0  0  0  0  0  0
  161.8040  208.8190  150.8520 C   0  0  0  0  0  0  0  0  0  0  0  0
  162.5940  207.6950  150.5920 C   0  0  0  0  0  3  0  0  0  0  0  0
  161.9610  209.9350  150.0980 F   0  0  0  0  0  0  0  0  0  0  0  0
  160.7130  207.6270  152.6530 C   0  0  0  0  0  3  0  0  0  0  0  0
  161.3400  205.2760  153.2110 C   0  0  0  0  0  1  0  0  0  0  0  0
  160.8530  208.7930  151.8820 C   0  0  0  0  0  0  0  0  0  0  0  0
  162.4430  206.5390  151.3600 C   0  0  0  0  0  3  0  0  0  0  0  0
  161.5020  206.5050  152.3920 C   0  0  0  0  0  0  0  0  0  0  0  0
  160.9820  211.4420  153.8440 C   0  0  0  0  0  2  0  0  0  0  0  0
  160.0260  210.7120  154.7850 C   0  0  2  0  0  3  0  0  0  0  0  0
  157.0930  210.7480  155.3360 O   0  0  0  0  0  0  0  0  0  0  0  0
  157.9460  211.6550  155.9540 C   0  0  0  0  0  0  0  0  0  0  0  0
  157.4730  212.5050  156.7520 O   0  0  0  0  0  1  0  0  0  0  0  0
  159.3540  211.6270  155.7070 N   0  0  0  0  0  2  0  0  0  0  0  0
  162.0720  209.6790  155.8060 O   0  0  0  0  0  1  0  0  0  0  0  0
  160.0180  208.5520  155.9140 C   0  0  0  0  0  2  0  0  0  0  0  0
  160.7150  209.6070  155.5190 C   0  0  0  0  0  0  0  0  0  0  0  0
  1 22  1  1  0  0  0
  2  3  2  0  0  0  0
  2  6  1  0  0  0  0
  3  5  1  0  0  0  0
  5  1  1  0  0  0  0
  5  4  2  0  0  0  0
  6  7  2  0  0  0  0
  7  4  1  0  0  0  0
  8  3  1  0  0  0  0
  9 12  1  0  0  0  0
 10 12  1  0  0  0  0
 11 12  1  0  0  0  0
 12  8  1  0  0  0  0
 13  1  1  0  0  0  0
 14 19  1  0  0  0  0
 15 14  2  0  0  0  0
 15 20  1  0  0  0  0
 16 14  1  0  0  0  0
 19 13  1  0  0  0  0
 19 17  2  0  0  0  0
 20 21  2  0  0  0  0
 21 17  1  0  0  0  0
 21 18  1  0  0  0  0
 23 22  1  1  0  0  0
 23 30  1  0  0  0  0
 23 27  1  0  0  0  0
 24 25  2  0  0  0  0
 25 26  1  0  0  0  0
 27 25  1  0  0  0  0
 30 28  1  0  0  0  0
 30 29  2  0  0  0  0
M  END
>  <MODEL>
9

>  <REMARK>
 VINA RESULT:      -4.8      2.532      5.761
  Name = 
  9 active torsions:
  status: ('A' for Active; 'I' for Inactive)
    1  A    between atoms: O_1  and  C_5
    2  A    between atoms: O_1  and  C_22
    3  A    between atoms: C_4  and  C_5
    4  A    between atoms: C_4  and  C_23
    5  A    between atoms: C_5  and  C_12
    6  A    between atoms: C_8  and  N_13
    7  A    between atoms: N_13  and  C_30
    8  A    between atoms: C_23  and  N_25
    9  A    between atoms: C_23  and  C_26
                            x       y       z     vdW  Elec       q    Type
                         _______ _______ _______ _____ _____    ______ ____

>  <TORSDO>
F 9

$$$$
