=
 OpenBabel11062410513D

 32 38  0  0  1  0  0  0  0  0999 V2000
  160.8150  213.6870  148.9480 C   0  0  1  0  0  3  0  0  0  0  0  0
  161.7730  208.7650  150.0320 C   0  0  1  0  0  3  0  0  0  0  0  0
  160.4590  208.6020  154.7870 C   0  0  0  0  0  2  0  0  0  0  0  0
  160.9650  207.1740  154.8460 C   0  0  0  0  0  2  0  0  0  0  0  0
  161.6370  206.7300  148.7260 C   0  0  0  0  0  0  0  0  0  0  0  0
  161.4430  205.3470  148.6920 C   0  0  0  0  0  0  0  0  0  0  0  0
  161.7910  210.8740  148.9040 C   0  0  0  0  0  0  0  0  0  0  0  0
  161.4160  210.8360  151.2890 N   0  0  0  0  0  0  0  0  0  0  0  0
  161.0610  202.5970  148.6410 C   0  0  0  0  0  3  0  0  0  0  0  0
  161.0080  212.9780  150.2820 C   0  0  0  0  0  2  0  0  0  0  0  0
  161.2900  209.3690  153.7710 C   0  0  0  0  0  2  0  0  0  0  0  0
  161.9160  209.4600  151.3600 C   0  0  1  0  0  3  0  0  0  0  0  0
  161.2880  208.7210  152.4550 N   0  0  1  0  0  0  0  0  0  0  0  0
  161.2990  206.6800  151.1410 C   0  0  0  0  0  0  0  0  0  0  0  0
  161.3140  203.2820  147.4920 N   0  0  0  0  0  0  0  0  0  0  0  0
  162.2350  213.3900  147.8390 S   0  0  0  0  0  0  0  0  0  0  0  0
  161.3990  211.5280  150.1880 C   0  0  0  0  0  0  0  0  0  0  0  0
  161.5040  204.6290  147.4920 C   0  0  0  0  0  3  0  0  0  0  0  0
  161.8560  211.6240  147.6120 C   0  0  0  0  0  2  0  0  0  0  0  0
  160.6720  206.4810  153.5250 C   0  0  0  0  0  2  0  0  0  0  0  0
  161.1490  207.2850  152.3400 C   0  0  2  0  0  3  0  0  0  0  0  0
  161.1140  205.3310  151.0570 N   0  0  0  0  0  0  0  0  0  0  0  0
  161.9090  209.5800  148.8580 N   0  0  0  0  0  0  0  0  0  0  0  0
  161.8990  207.3750  147.5560 F   0  0  0  0  0  0  0  0  0  0  0  0
  160.9920  203.2730  149.8610 C   0  0  0  0  0  3  0  0  0  0  0  0
  161.5880  207.4260  149.9620 C   0  0  0  0  0  0  0  0  0  0  0  0
  161.1850  204.6550  149.8850 C   0  0  0  0  0  0  0  0  0  0  0  0
  159.4800  213.3240  148.3110 C   0  0  0  0  0  2  0  0  0  0  0  0
  158.4450  214.2300  148.7760 N   0  0  0  0  0  2  0  0  0  0  0  0
  157.4140  213.4110  149.3870 C   0  0  0  0  0  3  0  0  0  0  0  0
  156.0810  214.1240  149.2740 C   0  0  0  0  0  2  0  0  0  0  0  0
  156.8410  214.1440  150.5820 C   0  0  0  0  0  2  0  0  0  0  0  0
  1 28  1  6  0  0  0
  1 10  1  0  0  0  0
  2 23  1  6  0  0  0
  2 12  1  0  0  0  0
  3  4  1  0  0  0  0
  5 26  1  0  0  0  0
  6  5  2  0  0  0  0
  6 27  1  0  0  0  0
  7 17  1  0  0  0  0
  9 25  2  0  0  0  0
 11  3  1  0  0  0  0
 12  8  1  6  0  0  0
 12 13  1  0  0  0  0
 13 11  1  1  0  0  0
 14 21  1  0  0  0  0
 15 18  2  0  0  0  0
 15  9  1  0  0  0  0
 16  1  1  0  0  0  0
 17 10  1  0  0  0  0
 17  8  2  0  0  0  0
 18  6  1  0  0  0  0
 19 16  1  0  0  0  0
 19  7  1  0  0  0  0
 20  4  1  0  0  0  0
 21 13  1  0  0  0  0
 21 20  1  6  0  0  0
 22 14  1  0  0  0  0
 23  7  2  0  0  0  0
 24  5  1  0  0  0  0
 25 27  1  0  0  0  0
 26  2  1  0  0  0  0
 26 14  2  0  0  0  0
 27 22  2  0  0  0  0
 28 29  1  0  0  0  0
 29 30  1  0  0  0  0
 30 32  1  0  0  0  0
 31 30  1  0  0  0  0
 31 32  1  0  0  0  0
M  END
>  <MODEL>
1

>  <REMARK>
 VINA RESULT:      -8.6      0.000      0.000
  Name = 
  3 active torsions:
  status: ('A' for Active; 'I' for Inactive)
    1  A    between atoms: C_1  and  N_10
    2  A    between atoms: C_2  and  C_24
    3  A    between atoms: N_10  and  C_24
                            x       y       z     vdW  Elec       q    Type
                         _______ _______ _______ _____ _____    ______ ____

>  <TORSDO>
F 3

$$$$
=
 OpenBabel11062410513D

 32 38  0  0  1  0  0  0  0  0999 V2000
  161.9280  205.5630  150.6400 C   0  0  1  0  0  3  0  0  0  0  0  0
  160.7250  210.3130  152.1560 C   0  0  1  0  0  3  0  0  0  0  0  0
  161.5360  212.8380  147.9930 C   0  0  0  0  0  2  0  0  0  0  0  0
  161.2620  214.1210  148.7540 C   0  0  0  0  0  2  0  0  0  0  0  0
  159.1090  211.1820  153.7380 C   0  0  0  0  0  0  0  0  0  0  0  0
  158.2750  212.2310  154.1350 C   0  0  0  0  0  0  0  0  0  0  0  0
  161.3070  207.9960  152.2410 C   0  0  0  0  0  0  0  0  0  0  0  0
  161.9550  209.2860  150.3060 N   0  0  0  0  0  0  0  0  0  0  0  0
  156.6270  214.3250  154.9130 C   0  0  0  0  0  3  0  0  0  0  0  0
  162.2710  206.9200  150.0380 C   0  0  0  0  0  2  0  0  0  0  0  0
  162.1450  211.8270  148.9520 C   0  0  0  0  0  2  0  0  0  0  0  0
  161.7070  210.5320  151.0360 C   0  0  1  0  0  3  0  0  0  0  0  0
  161.3000  211.6070  150.1310 N   0  0  1  0  0  0  0  0  0  0  0  0
  159.7930  212.5070  151.8070 C   0  0  0  0  0  0  0  0  0  0  0  0
  156.6930  213.1840  155.6530 N   0  0  0  0  0  0  0  0  0  0  0  0
  162.4420  205.4750  152.3890 S   0  0  0  0  0  0  0  0  0  0  0  0
  161.8350  208.1100  150.8490 C   0  0  0  0  0  0  0  0  0  0  0  0
  157.4920  212.1450  155.2920 C   0  0  0  0  0  3  0  0  0  0  0  0
  161.2010  206.6830  152.9510 C   0  0  0  0  0  2  0  0  0  0  0  0
  160.1670  213.8730  149.7800 C   0  0  0  0  0  2  0  0  0  0  0  0
  160.4510  212.6630  150.6380 C   0  0  2  0  0  3  0  0  0  0  0  0
  158.9620  213.5010  152.2330 N   0  0  0  0  0  0  0  0  0  0  0  0
  160.7540  209.0310  152.8000 N   0  0  0  0  0  0  0  0  0  0  0  0
  159.1550  210.0640  154.5130 F   0  0  0  0  0  0  0  0  0  0  0  0
  157.3910  214.4530  153.7520 C   0  0  0  0  0  3  0  0  0  0  0  0
  159.9040  211.3080  152.5700 C   0  0  0  0  0  0  0  0  0  0  0  0
  158.2200  213.4010  153.3620 C   0  0  0  0  0  0  0  0  0  0  0  0
  160.4590  205.2170  150.4360 C   0  0  0  0  0  2  0  0  0  0  0  0
  160.2340  203.8110  150.7230 N   0  0  0  0  0  2  0  0  0  0  0  0
  160.8730  203.0590  149.6580 C   0  0  0  0  0  3  0  0  0  0  0  0
  159.9840  201.8940  149.2710 C   0  0  0  0  0  2  0  0  0  0  0  0
  161.1900  201.6640  150.1570 C   0  0  0  0  0  2  0  0  0  0  0  0
  1 28  1  1  0  0  0
  1 16  1  0  0  0  0
  2 26  1  1  0  0  0
  2 23  1  0  0  0  0
  3  4  1  0  0  0  0
  3 11  1  0  0  0  0
  4 20  1  0  0  0  0
  5  6  1  0  0  0  0
  5 24  1  0  0  0  0
  6 18  1  0  0  0  0
  7 23  2  0  0  0  0
  7 19  1  0  0  0  0
  8 17  2  0  0  0  0
  9 15  1  0  0  0  0
 10  1  1  0  0  0  0
 10 17  1  0  0  0  0
 12  8  1  6  0  0  0
 12  2  1  0  0  0  0
 13 11  1  1  0  0  0
 13 21  1  0  0  0  0
 13 12  1  0  0  0  0
 14 22  2  0  0  0  0
 14 26  1  0  0  0  0
 16 19  1  0  0  0  0
 17  7  1  0  0  0  0
 18 15  2  0  0  0  0
 21 20  1  6  0  0  0
 21 14  1  0  0  0  0
 22 27  1  0  0  0  0
 25  9  2  0  0  0  0
 26  5  2  0  0  0  0
 27 25  1  0  0  0  0
 27  6  2  0  0  0  0
 28 29  1  0  0  0  0
 30 32  1  0  0  0  0
 30 29  1  0  0  0  0
 31 30  1  0  0  0  0
 31 32  1  0  0  0  0
M  END
>  <MODEL>
2

>  <REMARK>
 VINA RESULT:      -6.9      3.219      8.571
  Name = 
  3 active torsions:
  status: ('A' for Active; 'I' for Inactive)
    1  A    between atoms: C_1  and  N_10
    2  A    between atoms: C_2  and  C_24
    3  A    between atoms: N_10  and  C_24
                            x       y       z     vdW  Elec       q    Type
                         _______ _______ _______ _____ _____    ______ ____

>  <TORSDO>
F 3

$$$$
=
 OpenBabel11062410513D

 32 38  0  0  1  0  0  0  0  0999 V2000
  160.6130  209.8350  153.8190 C   0  0  1  0  0  3  0  0  0  0  0  0
  161.6710  206.4440  150.1180 C   0  0  1  0  0  3  0  0  0  0  0  0
  160.3330  202.2350  152.3200 C   0  0  0  0  0  2  0  0  0  0  0  0
  160.8700  201.4730  151.1240 C   0  0  0  0  0  2  0  0  0  0  0  0
  161.5880  206.5600  147.7000 C   0  0  0  0  0  0  0  0  0  0  0  0
  161.4250  205.8970  146.4800 C   0  0  0  0  0  0  0  0  0  0  0  0
  161.6510  208.4740  151.3820 C   0  0  0  0  0  0  0  0  0  0  0  0
  161.2610  206.3860  152.5310 N   0  0  0  0  0  0  0  0  0  0  0  0
  161.1040  204.5670  144.0640 C   0  0  0  0  0  3  0  0  0  0  0  0
  160.8130  208.3260  153.8740 C   0  0  0  0  0  2  0  0  0  0  0  0
  161.1530  203.5030  152.4960 C   0  0  0  0  0  2  0  0  0  0  0  0
  161.7920  205.6400  151.3850 C   0  0  1  0  0  3  0  0  0  0  0  0
  161.1730  204.3190  151.2780 N   0  0  1  0  0  0  0  0  0  0  0  0
  161.2360  204.4390  148.8540 C   0  0  0  0  0  0  0  0  0  0  0  0
  161.3480  205.9060  144.0900 N   0  0  0  0  0  0  0  0  0  0  0  0
  162.0460  210.6550  153.0390 S   0  0  0  0  0  0  0  0  0  0  0  0
  161.2360  207.6860  152.5810 C   0  0  0  0  0  0  0  0  0  0  0  0
  161.5080  206.5790  145.2600 C   0  0  0  0  0  3  0  0  0  0  0  0
  161.7070  209.9680  151.3880 C   0  0  0  0  0  2  0  0  0  0  0  0
  160.6000  202.2710  149.8580 C   0  0  0  0  0  2  0  0  0  0  0  0
  161.0660  203.7020  149.9730 C   0  0  2  0  0  3  0  0  0  0  0  0
  161.0810  203.8380  147.6400 N   0  0  0  0  0  0  0  0  0  0  0  0
  161.7970  207.8690  150.2400 N   0  0  0  0  0  0  0  0  0  0  0  0
  161.8430  207.8960  147.6800 F   0  0  0  0  0  0  0  0  0  0  0  0
  161.0130  203.8470  145.2570 C   0  0  0  0  0  3  0  0  0  0  0  0
  161.5160  205.8350  148.9180 C   0  0  0  0  0  0  0  0  0  0  0  0
  161.1750  204.5160  146.4710 C   0  0  0  0  0  0  0  0  0  0  0  0
  159.2900  210.1980  153.1570 C   0  0  0  0  0  2  0  0  0  0  0  0
  158.9180  211.5590  153.5030 N   0  0  0  0  0  2  0  0  0  0  0  0
  157.6440  211.4830  154.1940 C   0  0  0  0  0  3  0  0  0  0  0  0
  157.4280  212.7610  154.9800 C   0  0  0  0  0  2  0  0  0  0  0  0
  157.8880  211.5060  155.6890 C   0  0  0  0  0  2  0  0  0  0  0  0
  1 28  1  6  0  0  0
  1 10  1  0  0  0  0
  2 26  1  6  0  0  0
  2 23  1  0  0  0  0
  2 12  1  0  0  0  0
  3 11  1  0  0  0  0
  4  3  1  0  0  0  0
  5 26  1  0  0  0  0
  6  5  2  0  0  0  0
  7 19  1  0  0  0  0
  7 17  1  0  0  0  0
  8 17  2  0  0  0  0
  9 15  1  0  0  0  0
  9 25  2  0  0  0  0
 12  8  1  1  0  0  0
 13 12  1  0  0  0  0
 13 11  1  1  0  0  0
 14 26  2  0  0  0  0
 14 21  1  0  0  0  0
 15 18  2  0  0  0  0
 16  1  1  0  0  0  0
 17 10  1  0  0  0  0
 18  6  1  0  0  0  0
 19 16  1  0  0  0  0
 20  4  1  0  0  0  0
 21 20  1  6  0  0  0
 21 13  1  0  0  0  0
 22 14  1  0  0  0  0
 23  7  2  0  0  0  0
 24  5  1  0  0  0  0
 25 27  1  0  0  0  0
 27  6  1  0  0  0  0
 27 22  2  0  0  0  0
 28 29  1  0  0  0  0
 29 30  1  0  0  0  0
 30 31  1  0  0  0  0
 30 32  1  0  0  0  0
 31 32  1  0  0  0  0
M  END
>  <MODEL>
3

>  <REMARK>
 VINA RESULT:      -6.2      2.901      4.619
  Name = 
  3 active torsions:
  status: ('A' for Active; 'I' for Inactive)
    1  A    between atoms: C_1  and  N_10
    2  A    between atoms: C_2  and  C_24
    3  A    between atoms: N_10  and  C_24
                            x       y       z     vdW  Elec       q    Type
                         _______ _______ _______ _____ _____    ______ ____

>  <TORSDO>
F 3

$$$$
=
 OpenBabel11062410513D

 32 38  0  0  1  0  0  0  0  0999 V2000
  160.4170  214.1760  146.5160 C   0  0  1  0  0  3  0  0  0  0  0  0
  161.0520  211.4450  150.8120 C   0  0  1  0  0  3  0  0  0  0  0  0
  157.5900  213.4580  153.6980 C   0  0  0  0  0  2  0  0  0  0  0  0
  158.0980  212.6090  154.8480 C   0  0  0  0  0  2  0  0  0  0  0  0
  161.7130  209.1530  151.2290 C   0  0  0  0  0  0  0  0  0  0  0  0
  161.6560  208.0270  152.0550 C   0  0  0  0  0  0  0  0  0  0  0  0
  161.4780  212.4080  148.6660 C   0  0  0  0  0  0  0  0  0  0  0  0
  159.9840  213.5550  150.1770 N   0  0  0  0  0  0  0  0  0  0  0  0
  161.5360  205.8010  153.7100 C   0  0  0  0  0  3  0  0  0  0  0  0
  159.9780  214.4510  147.9490 C   0  0  0  0  0  2  0  0  0  0  0  0
  158.7580  213.7780  152.7790 C   0  0  0  0  0  2  0  0  0  0  0  0
  160.4780  212.7500  151.2980 C   0  0  1  0  0  3  0  0  0  0  0  0
  159.4460  212.5680  152.3180 N   0  0  1  0  0  0  0  0  0  0  0  0
  160.2380  210.3210  152.7820 C   0  0  0  0  0  0  0  0  0  0  0  0
  162.2720  205.7730  152.5650 N   0  0  0  0  0  0  0  0  0  0  0  0
  162.2140  213.8670  146.4310 S   0  0  0  0  0  0  0  0  0  0  0  0
  160.4630  213.4600  148.9710 C   0  0  0  0  0  0  0  0  0  0  0  0
  162.3460  206.8510  151.7390 C   0  0  0  0  0  3  0  0  0  0  0  0
  162.1170  212.2810  147.3190 C   0  0  0  0  0  2  0  0  0  0  0  0
  158.5390  211.2540  154.3170 C   0  0  0  0  0  2  0  0  0  0  0  0
  159.4790  211.3790  153.1420 C   0  0  2  0  0  3  0  0  0  0  0  0
  160.2110  209.1970  153.5540 N   0  0  0  0  0  0  0  0  0  0  0  0
  161.6900  211.4580  149.5270 N   0  0  0  0  0  0  0  0  0  0  0  0
  162.4700  209.0870  150.1000 F   0  0  0  0  0  0  0  0  0  0  0  0
  160.8320  206.9530  154.0650 C   0  0  0  0  0  3  0  0  0  0  0  0
  161.0170  210.3360  151.5880 C   0  0  0  0  0  0  0  0  0  0  0  0
  160.8940  208.0720  153.2330 C   0  0  0  0  0  0  0  0  0  0  0  0
  159.5930  213.0590  145.8860 C   0  0  0  0  0  2  0  0  0  0  0  0
  158.6390  213.6170  144.9430 N   0  0  0  0  0  2  0  0  0  0  0  0
  159.4110  214.2170  143.8710 C   0  0  0  0  0  3  0  0  0  0  0  0
  158.5630  214.2680  142.6160 C   0  0  0  0  0  2  0  0  0  0  0  0
  159.6170  213.1930  142.7740 C   0  0  0  0  0  2  0  0  0  0  0  0
  1 28  1  1  0  0  0
  1 10  1  0  0  0  0
  2 23  1  1  0  0  0
  2 12  1  0  0  0  0
  2 26  1  0  0  0  0
  3  4  1  0  0  0  0
  5 26  2  0  0  0  0
  5  6  1  0  0  0  0
  6 27  1  0  0  0  0
  7 17  1  0  0  0  0
  7 23  2  0  0  0  0
  9 25  1  0  0  0  0
 10 17  1  0  0  0  0
 11  3  1  0  0  0  0
 12  8  1  6  0  0  0
 12 13  1  0  0  0  0
 13 11  1  1  0  0  0
 13 21  1  0  0  0  0
 14 21  1  0  0  0  0
 14 22  2  0  0  0  0
 15  9  2  0  0  0  0
 16  1  1  0  0  0  0
 16 19  1  0  0  0  0
 17  8  2  0  0  0  0
 18  6  2  0  0  0  0
 18 15  1  0  0  0  0
 19  7  1  0  0  0  0
 20  4  1  0  0  0  0
 21 20  1  6  0  0  0
 24  5  1  0  0  0  0
 26 14  1  0  0  0  0
 27 22  1  0  0  0  0
 27 25  2  0  0  0  0
 29 28  1  0  0  0  0
 30 29  1  0  0  0  0
 31 32  1  0  0  0  0
 31 30  1  0  0  0  0
 32 30  1  0  0  0  0
M  END
>  <MODEL>
4

>  <REMARK>
 VINA RESULT:      -6.0      2.637      4.473
  Name = 
  3 active torsions:
  status: ('A' for Active; 'I' for Inactive)
    1  A    between atoms: C_1  and  N_10
    2  A    between atoms: C_2  and  C_24
    3  A    between atoms: N_10  and  C_24
                            x       y       z     vdW  Elec       q    Type
                         _______ _______ _______ _____ _____    ______ ____

>  <TORSDO>
F 3

$$$$
