=
 OpenBabel11052423203D

 27 31  0  0  1  0  0  0  0  0999 V2000
  161.6610  209.0240  152.4690 N   0  0  0  0  0  0  0  0  0  0  0  0
  161.4480  207.6970  152.5570 C   0  0  0  0  0  0  0  0  0  0  0  0
  161.5830  208.1500  150.3950 C   0  0  0  0  0  0  0  0  0  0  0  0
  160.8750  203.5920  152.3220 C   0  0  0  0  0  3  0  0  0  0  0  0
  160.8300  202.9460  151.0850 C   0  0  0  0  0  3  0  0  0  0  0  0
  161.3110  206.9420  153.7190 C   0  0  0  0  0  3  0  0  0  0  0  0
  161.1620  205.0630  149.9530 C   0  0  0  0  0  3  0  0  0  0  0  0
  161.9580  210.6590  149.0530 C   0  0  0  0  0  0  0  0  0  0  0  0
  161.2800  207.2000  148.2260 O   0  0  0  0  0  0  0  0  0  0  0  0
  161.8350  211.7160  148.4550 O   0  0  0  0  0  0  0  0  0  0  0  0
  161.2040  205.7250  151.1840 C   0  0  0  0  0  0  0  0  0  0  0  0
  160.9740  203.6790  149.9040 C   0  0  0  0  0  3  0  0  0  0  0  0
  161.0640  204.9760  152.3850 C   0  0  0  0  0  0  0  0  0  0  0  0
  161.7460  209.3020  151.1490 C   0  0  0  0  0  0  0  0  0  0  0  0
  161.3900  207.1120  151.3100 C   0  0  0  0  0  0  0  0  0  0  0  0
  162.1890  209.4010  148.2500 C   0  0  0  0  0  2  0  0  0  0  0  0
  161.1190  205.5980  153.6010 N   0  0  0  0  0  0  0  0  0  0  0  0
  161.0170  211.5380  151.0410 F   0  0  0  0  0  0  0  0  0  0  0  0
  161.9840  210.6680  150.5670 C   0  0  2  0  0  3  0  0  0  0  0  0
  161.6460  208.1790  148.9250 C   0  0  0  0  0  0  0  0  0  0  0  0
  161.8410  209.9560  153.5780 C   0  0  0  0  0  2  0  0  0  0  0  0
  158.0690  211.0020  155.3300 C   0  0  0  0  0  3  0  0  0  0  0  0
  160.5210  210.3010  154.1810 C   0  0  0  0  0  0  0  0  0  0  0  0
  160.2540  209.9770  155.5160 C   0  0  0  0  0  3  0  0  0  0  0  0
  159.0280  210.3240  156.0890 C   0  0  0  0  0  3  0  0  0  0  0  0
  158.3370  211.3340  153.9980 C   0  0  0  0  0  3  0  0  0  0  0  0
  159.5640  210.9860  153.4250 C   0  0  0  0  0  3  0  0  0  0  0  0
  1  2  1  0  0  0  0
  1 21  1  0  0  0  0
  2  6  1  0  0  0  0
  3 14  2  0  0  0  0
  3 15  1  0  0  0  0
  4 13  1  0  0  0  0
  5  4  2  0  0  0  0
  7 11  1  0  0  0  0
  8 19  1  0  0  0  0
  9 20  2  0  0  0  0
 10  8  2  0  0  0  0
 11 15  1  0  0  0  0
 11 13  2  0  0  0  0
 12  7  2  0  0  0  0
 12  5  1  0  0  0  0
 13 17  1  0  0  0  0
 14  1  1  0  0  0  0
 15  2  2  0  0  0  0
 16 20  1  0  0  0  0
 16  8  1  0  0  0  0
 17  6  2  0  0  0  0
 19 18  1  1  0  0  0
 19 14  1  0  0  0  0
 20  3  1  0  0  0  0
 21 23  1  0  0  0  0
 22 25  1  0  0  0  0
 23 24  1  0  0  0  0
 24 25  2  0  0  0  0
 26 22  2  0  0  0  0
 27 26  1  0  0  0  0
 27 23  2  0  0  0  0
M  END
>  <MODEL>
1

>  <REMARK>
 VINA RESULT:      -9.1      0.000      0.000
  Name = 
  2 active torsions:
  status: ('A' for Active; 'I' for Inactive)
    1  A    between atoms: N_1  and  C_15
    2  A    between atoms: C_9  and  C_15
                            x       y       z     vdW  Elec       q    Type
                         _______ _______ _______ _____ _____    ______ ____

>  <TORSDO>
F 2

$$$$
=
 OpenBabel11052423203D

 27 31  0  0  1  0  0  0  0  0999 V2000
  161.5220  209.5780  152.4260 N   0  0  0  0  0  0  0  0  0  0  0  0
  161.5460  208.8300  151.3070 C   0  0  0  0  0  0  0  0  0  0  0  0
  161.1690  207.4220  152.9720 C   0  0  0  0  0  0  0  0  0  0  0  0
  161.4630  206.1340  148.1510 C   0  0  0  0  0  3  0  0  0  0  0  0
  161.2330  204.7750  148.3770 C   0  0  0  0  0  3  0  0  0  0  0  0
  161.7360  209.2740  150.0010 C   0  0  0  0  0  3  0  0  0  0  0  0
  161.0590  205.1880  150.7580 C   0  0  0  0  0  3  0  0  0  0  0  0
  160.9800  207.9060  155.7940 C   0  0  0  0  0  0  0  0  0  0  0  0
  161.0100  205.1010  153.5070 O   0  0  0  0  0  0  0  0  0  0  0  0
  161.1700  208.0270  156.9940 O   0  0  0  0  0  0  0  0  0  0  0  0
  161.2940  206.5500  150.5490 C   0  0  0  0  0  0  0  0  0  0  0  0
  161.0300  204.3030  149.6770 C   0  0  0  0  0  3  0  0  0  0  0  0
  161.4940  207.0280  149.2250 C   0  0  0  0  0  0  0  0  0  0  0  0
  161.2900  208.7200  153.4440 C   0  0  0  0  0  0  0  0  0  0  0  0
  161.3360  207.4960  151.5870 C   0  0  0  0  0  0  0  0  0  0  0  0
  160.4520  206.5890  155.2800 C   0  0  0  0  0  2  0  0  0  0  0  0
  161.7070  208.3590  148.9920 N   0  0  0  0  0  0  0  0  0  0  0  0
  162.3180  209.7900  155.2710 F   0  0  0  0  0  0  0  0  0  0  0  0
  161.1750  209.1080  154.8930 C   0  0  2  0  0  3  0  0  0  0  0  0
  160.8990  206.2960  153.8800 C   0  0  0  0  0  0  0  0  0  0  0  0
  161.6440  211.0300  152.5100 C   0  0  0  0  0  2  0  0  0  0  0  0
  157.8030  212.9130  152.2050 C   0  0  0  0  0  3  0  0  0  0  0  0
  160.3020  211.6690  152.3920 C   0  0  0  0  0  0  0  0  0  0  0  0
  159.3060  211.3860  153.3330 C   0  0  0  0  0  3  0  0  0  0  0  0
  158.0560  212.0050  153.2380 C   0  0  0  0  0  3  0  0  0  0  0  0
  158.8000  213.2030  151.2680 C   0  0  0  0  0  3  0  0  0  0  0  0
  160.0500  212.5830  151.3630 C   0  0  0  0  0  3  0  0  0  0  0  0
  1 21  1  0  0  0  0
  1 14  1  0  0  0  0
  2 15  1  0  0  0  0
  2  1  1  0  0  0  0
  3 14  2  0  0  0  0
  3 20  1  0  0  0  0
  4  5  2  0  0  0  0
  4 13  1  0  0  0  0
  5 12  1  0  0  0  0
  6  2  2  0  0  0  0
  8 10  2  0  0  0  0
  9 20  2  0  0  0  0
 11  7  1  0  0  0  0
 11 15  2  0  0  0  0
 12  7  2  0  0  0  0
 13 11  1  0  0  0  0
 14 19  1  0  0  0  0
 15  3  1  0  0  0  0
 16  8  1  0  0  0  0
 17 13  2  0  0  0  0
 17  6  1  0  0  0  0
 19 18  1  1  0  0  0
 19  8  1  0  0  0  0
 20 16  1  0  0  0  0
 22 25  1  0  0  0  0
 23 21  1  0  0  0  0
 23 24  1  0  0  0  0
 25 24  2  0  0  0  0
 26 27  1  0  0  0  0
 26 22  2  0  0  0  0
 27 23  2  0  0  0  0
M  END
>  <MODEL>
2

>  <REMARK>
 VINA RESULT:      -8.0      2.718      4.227
  Name = 
  2 active torsions:
  status: ('A' for Active; 'I' for Inactive)
    1  A    between atoms: N_1  and  C_15
    2  A    between atoms: C_9  and  C_15
                            x       y       z     vdW  Elec       q    Type
                         _______ _______ _______ _____ _____    ______ ____

>  <TORSDO>
F 2

$$$$
=
 OpenBabel11052423203D

 27 31  0  0  1  0  0  0  0  0999 V2000
  161.9020  207.7850  152.2990 N   0  0  0  0  0  0  0  0  0  0  0  0
  161.7860  208.8550  151.4900 C   0  0  0  0  0  0  0  0  0  0  0  0
  160.6430  209.3480  153.3190 C   0  0  0  0  0  0  0  0  0  0  0  0
  161.2050  212.3900  149.3920 C   0  0  0  0  0  3  0  0  0  0  0  0
  160.4560  213.4330  149.9410 C   0  0  0  0  0  3  0  0  0  0  0  0
  162.3500  209.0200  150.2270 C   0  0  0  0  0  3  0  0  0  0  0  0
  160.0610  212.1140  151.9360 C   0  0  0  0  0  3  0  0  0  0  0  0
  160.1600  207.7830  155.6750 C   0  0  0  0  0  0  0  0  0  0  0  0
  159.1480  210.9560  154.2570 O   0  0  0  0  0  0  0  0  0  0  0  0
  159.7080  207.0580  156.5480 O   0  0  0  0  0  0  0  0  0  0  0  0
  160.8030  211.0590  151.3970 C   0  0  0  0  0  0  0  0  0  0  0  0
  159.8870  213.2960  151.2100 C   0  0  0  0  0  3  0  0  0  0  0  0
  161.3870  211.2030  150.1090 C   0  0  0  0  0  0  0  0  0  0  0  0
  161.2060  208.0850  153.4180 C   0  0  0  0  0  0  0  0  0  0  0  0
  161.0200  209.8450  152.0690 C   0  0  0  0  0  0  0  0  0  0  0  0
  159.8910  209.2660  155.7610 C   0  0  0  0  0  2  0  0  0  0  0  0
  162.1330  210.1930  149.5670 N   0  0  0  0  0  0  0  0  0  0  0  0
  160.5370  205.9680  154.2000 F   0  0  0  0  0  0  0  0  0  0  0  0
  161.0570  207.1830  154.6120 C   0  0  2  0  0  3  0  0  0  0  0  0
  159.8450  209.9220  154.4150 C   0  0  0  0  0  0  0  0  0  0  0  0
  162.6850  206.5790  152.0470 C   0  0  0  0  0  2  0  0  0  0  0  0
  160.4560  203.7640  149.7010 C   0  0  0  0  0  3  0  0  0  0  0  0
  161.8920  205.6080  151.2380 C   0  0  0  0  0  0  0  0  0  0  0  0
  161.5320  205.9220  149.9230 C   0  0  0  0  0  3  0  0  0  0  0  0
  160.8120  205.0010  149.1560 C   0  0  0  0  0  3  0  0  0  0  0  0
  160.8220  203.4460  151.0130 C   0  0  0  0  0  3  0  0  0  0  0  0
  161.5420  204.3670  151.7800 C   0  0  0  0  0  3  0  0  0  0  0  0
  1 14  1  0  0  0  0
  2 15  1  0  0  0  0
  2  1  1  0  0  0  0
  3 14  2  0  0  0  0
  3 20  1  0  0  0  0
  4  5  2  0  0  0  0
  4 13  1  0  0  0  0
  5 12  1  0  0  0  0
  6  2  2  0  0  0  0
  8 16  1  0  0  0  0
  8 10  2  0  0  0  0
  9 20  2  0  0  0  0
 11  7  1  0  0  0  0
 11 15  2  0  0  0  0
 12  7  2  0  0  0  0
 13 11  1  0  0  0  0
 14 19  1  0  0  0  0
 15  3  1  0  0  0  0
 17 13  2  0  0  0  0
 17  6  1  0  0  0  0
 19 18  1  6  0  0  0
 19  8  1  0  0  0  0
 20 16  1  0  0  0  0
 21  1  1  0  0  0  0
 22 26  1  0  0  0  0
 23 27  1  0  0  0  0
 23 21  1  0  0  0  0
 24 23  2  0  0  0  0
 25 22  2  0  0  0  0
 25 24  1  0  0  0  0
 26 27  2  0  0  0  0
M  END
>  <MODEL>
3

>  <REMARK>
 VINA RESULT:      -7.5      2.832      6.861
  Name = 
  2 active torsions:
  status: ('A' for Active; 'I' for Inactive)
    1  A    between atoms: N_1  and  C_15
    2  A    between atoms: C_9  and  C_15
                            x       y       z     vdW  Elec       q    Type
                         _______ _______ _______ _____ _____    ______ ____

>  <TORSDO>
F 2

$$$$
=
 OpenBabel11052423203D

 27 31  0  0  1  0  0  0  0  0999 V2000
  162.3100  209.5010  150.3330 N   0  0  0  0  0  0  0  0  0  0  0  0
  162.1340  208.3680  149.6260 C   0  0  0  0  0  0  0  0  0  0  0  0
  161.4940  207.9020  151.6920 C   0  0  0  0  0  0  0  0  0  0  0  0
  161.3590  204.6890  147.8640 C   0  0  0  0  0  3  0  0  0  0  0  0
  160.8330  203.6340  148.6140 C   0  0  0  0  0  3  0  0  0  0  0  0
  162.3850  208.1740  148.2700 C   0  0  0  0  0  3  0  0  0  0  0  0
  160.8220  205.0310  150.5950 C   0  0  0  0  0  3  0  0  0  0  0  0
  161.4950  209.5480  154.0430 C   0  0  0  0  0  0  0  0  0  0  0  0
  160.8280  206.1110  153.1240 O   0  0  0  0  0  0  0  0  0  0  0  0
  161.7400  210.1140  155.0960 O   0  0  0  0  0  0  0  0  0  0  0  0
  161.3530  206.0940  149.8600 C   0  0  0  0  0  0  0  0  0  0  0  0
  160.5640  203.8040  149.9750 C   0  0  0  0  0  3  0  0  0  0  0  0
  161.6200  205.9210  148.4740 C   0  0  0  0  0  0  0  0  0  0  0  0
  161.9170  209.2180  151.5950 C   0  0  0  0  0  0  0  0  0  0  0  0
  161.6350  207.3530  150.4160 C   0  0  0  0  0  0  0  0  0  0  0  0
  160.6680  208.2850  154.0820 C   0  0  0  0  0  2  0  0  0  0  0  0
  162.1220  206.9510  147.7290 N   0  0  0  0  0  0  0  0  0  0  0  0
  163.2090  210.7020  152.8860 F   0  0  0  0  0  0  0  0  0  0  0  0
  161.9320  210.1900  152.7430 C   0  0  2  0  0  3  0  0  0  0  0  0
  161.0000  207.3460  152.9620 C   0  0  0  0  0  0  0  0  0  0  0  0
  162.7600  210.7900  149.8190 C   0  0  0  0  0  2  0  0  0  0  0  0
  159.4870  213.0180  148.1700 C   0  0  0  0  0  3  0  0  0  0  0  0
  161.6090  211.5490  149.2490 C   0  0  0  0  0  0  0  0  0  0  0  0
  160.8240  212.3580  150.0780 C   0  0  0  0  0  3  0  0  0  0  0  0
  159.7620  213.0910  149.5400 C   0  0  0  0  0  3  0  0  0  0  0  0
  160.2760  212.2160  147.3390 C   0  0  0  0  0  3  0  0  0  0  0  0
  161.3380  211.4840  147.8790 C   0  0  0  0  0  3  0  0  0  0  0  0
  1 14  1  0  0  0  0
  2  1  1  0  0  0  0
  2 15  1  0  0  0  0
  3 20  1  0  0  0  0
  4 13  1  0  0  0  0
  4  5  2  0  0  0  0
  5 12  1  0  0  0  0
  6  2  2  0  0  0  0
  8 16  1  0  0  0  0
  8 10  2  0  0  0  0
 11 15  2  0  0  0  0
 11  7  1  0  0  0  0
 12  7  2  0  0  0  0
 13 11  1  0  0  0  0
 14  3  2  0  0  0  0
 14 19  1  0  0  0  0
 15  3  1  0  0  0  0
 17  6  1  0  0  0  0
 17 13  2  0  0  0  0
 19 18  1  1  0  0  0
 19  8  1  0  0  0  0
 20  9  2  0  0  0  0
 20 16  1  0  0  0  0
 21  1  1  0  0  0  0
 22 25  1  0  0  0  0
 23 21  1  0  0  0  0
 23 24  1  0  0  0  0
 25 24  2  0  0  0  0
 26 27  1  0  0  0  0
 26 22  2  0  0  0  0
 27 23  2  0  0  0  0
M  END
>  <MODEL>
4

>  <REMARK>
 VINA RESULT:      -7.4      2.615      4.600
  Name = 
  2 active torsions:
  status: ('A' for Active; 'I' for Inactive)
    1  A    between atoms: N_1  and  C_15
    2  A    between atoms: C_9  and  C_15
                            x       y       z     vdW  Elec       q    Type
                         _______ _______ _______ _____ _____    ______ ____

>  <TORSDO>
F 2

$$$$
=
 OpenBabel11052423203D

 27 31  0  0  1  0  0  0  0  0999 V2000
  162.1870  206.0450  149.0720 N   0  0  0  0  0  0  0  0  0  0  0  0
  161.9920  206.8630  150.1230 C   0  0  0  0  0  0  0  0  0  0  0  0
  161.3090  204.8630  150.7750 C   0  0  0  0  0  0  0  0  0  0  0  0
  161.2790  208.9660  153.6310 C   0  0  0  0  0  3  0  0  0  0  0  0
  160.7530  208.3240  154.7550 C   0  0  0  0  0  3  0  0  0  0  0  0
  162.2880  208.2230  150.1970 C   0  0  0  0  0  3  0  0  0  0  0  0
  160.6810  206.2280  153.5390 C   0  0  0  0  0  3  0  0  0  0  0  0
  161.2070  202.3840  149.3330 C   0  0  0  0  0  0  0  0  0  0  0  0
  160.1870  203.7140  152.5410 O   0  0  0  0  0  0  0  0  0  0  0  0
  160.8910  201.4010  148.6800 O   0  0  0  0  0  0  0  0  0  0  0  0
  161.2010  206.8570  152.4040 C   0  0  0  0  0  0  0  0  0  0  0  0
  160.4560  206.9590  154.7100 C   0  0  0  0  0  3  0  0  0  0  0  0
  161.5080  208.2450  152.4550 C   0  0  0  0  0  0  0  0  0  0  0  0
  161.7720  204.8210  149.4690 C   0  0  0  0  0  0  0  0  0  0  0  0
  161.4530  206.1870  151.1960 C   0  0  0  0  0  0  0  0  0  0  0  0
  161.0870  202.3160  150.8360 C   0  0  0  0  0  2  0  0  0  0  0  0
  162.0350  208.8800  151.3640 N   0  0  0  0  0  0  0  0  0  0  0  0
  161.1090  203.8140  147.4480 F   0  0  0  0  0  0  0  0  0  0  0  0
  161.8040  203.5800  148.6210 C   0  0  2  0  0  3  0  0  0  0  0  0
  160.8130  203.6540  151.4530 C   0  0  0  0  0  0  0  0  0  0  0  0
  162.7950  206.3950  147.7910 C   0  0  0  0  0  2  0  0  0  0  0  0
  160.1540  205.4670  144.5420 C   0  0  0  0  0  3  0  0  0  0  0  0
  161.8700  206.0550  146.6710 C   0  0  0  0  0  0  0  0  0  0  0  0
  160.5440  206.4990  146.6980 C   0  0  0  0  0  3  0  0  0  0  0  0
  159.6850  206.2030  145.6350 C   0  0  0  0  0  3  0  0  0  0  0  0
  161.4820  205.0290  144.5100 C   0  0  0  0  0  3  0  0  0  0  0  0
  162.3400  205.3250  145.5730 C   0  0  0  0  0  3  0  0  0  0  0  0
  1 14  1  0  0  0  0
  1  2  1  0  0  0  0
  2  6  2  0  0  0  0
  2 15  1  0  0  0  0
  3 15  1  0  0  0  0
  3 20  1  0  0  0  0
  4  5  2  0  0  0  0
  6 17  1  0  0  0  0
  7 12  2  0  0  0  0
  8 16  1  0  0  0  0
 10  8  2  0  0  0  0
 11 13  1  0  0  0  0
 11  7  1  0  0  0  0
 12  5  1  0  0  0  0
 13  4  1  0  0  0  0
 14  3  2  0  0  0  0
 15 11  2  0  0  0  0
 16 20  1  0  0  0  0
 17 13  2  0  0  0  0
 19 18  1  6  0  0  0
 19  8  1  0  0  0  0
 19 14  1  0  0  0  0
 20  9  2  0  0  0  0
 21  1  1  0  0  0  0
 22 25  1  0  0  0  0
 23 24  1  0  0  0  0
 23 21  1  0  0  0  0
 25 24  2  0  0  0  0
 26 22  2  0  0  0  0
 26 27  1  0  0  0  0
 27 23  2  0  0  0  0
M  END
>  <MODEL>
5

>  <REMARK>
 VINA RESULT:      -7.1      3.332      7.156
  Name = 
  2 active torsions:
  status: ('A' for Active; 'I' for Inactive)
    1  A    between atoms: N_1  and  C_15
    2  A    between atoms: C_9  and  C_15
                            x       y       z     vdW  Elec       q    Type
                         _______ _______ _______ _____ _____    ______ ____

>  <TORSDO>
F 2

$$$$
=
 OpenBabel11052423203D

 27 31  0  0  1  0  0  0  0  0999 V2000
  161.9680  204.5890  147.9190 N   0  0  0  0  0  0  0  0  0  0  0  0
  161.9850  205.8450  148.4040 C   0  0  0  0  0  0  0  0  0  0  0  0
  161.2960  204.5600  150.0680 C   0  0  0  0  0  0  0  0  0  0  0  0
  161.9410  209.5090  150.3570 C   0  0  0  0  0  3  0  0  0  0  0  0
  161.5590  209.6000  151.6970 C   0  0  0  0  0  3  0  0  0  0  0  0
  162.3660  207.0030  147.7300 C   0  0  0  0  0  3  0  0  0  0  0  0
  161.1800  207.2070  151.7650 C   0  0  0  0  0  3  0  0  0  0  0  0
  160.8310  201.7290  150.1460 C   0  0  0  0  0  0  0  0  0  0  0  0
  160.3940  204.6220  152.2780 O   0  0  0  0  0  0  0  0  0  0  0  0
  160.3630  200.6010  150.1360 O   0  0  0  0  0  0  0  0  0  0  0  0
  161.5550  207.1000  150.4220 C   0  0  0  0  0  0  0  0  0  0  0  0
  161.1800  208.4520  152.4000 C   0  0  0  0  0  3  0  0  0  0  0  0
  161.9450  208.2680  149.7120 C   0  0  0  0  0  0  0  0  0  0  0  0
  161.5500  203.8020  148.9350 C   0  0  0  0  0  0  0  0  0  0  0  0
  161.5790  205.8830  149.7210 C   0  0  0  0  0  0  0  0  0  0  0  0
  160.9400  202.4500  151.4680 C   0  0  0  0  0  2  0  0  0  0  0  0
  162.3330  208.1870  148.4030 N   0  0  0  0  0  0  0  0  0  0  0  0
  160.5270  202.0030  147.8130 F   0  0  0  0  0  0  0  0  0  0  0  0
  161.3800  202.3100  148.8590 C   0  0  2  0  0  3  0  0  0  0  0  0
  160.8410  203.9380  151.3220 C   0  0  0  0  0  0  0  0  0  0  0  0
  162.3910  204.1600  146.5900 C   0  0  0  0  0  2  0  0  0  0  0  0
  158.9410  203.5780  144.1090 C   0  0  0  0  0  3  0  0  0  0  0  0
  161.2030  203.9590  145.7100 C   0  0  0  0  0  0  0  0  0  0  0  0
  160.8350  202.6690  145.3130 C   0  0  0  0  0  3  0  0  0  0  0  0
  159.7060  202.4780  144.5110 C   0  0  0  0  0  3  0  0  0  0  0  0
  159.3040  204.8680  144.5110 C   0  0  0  0  0  3  0  0  0  0  0  0
  160.4330  205.0580  145.3130 C   0  0  0  0  0  3  0  0  0  0  0  0
  1  2  1  0  0  0  0
  1 14  1  0  0  0  0
  2 15  1  0  0  0  0
  3 20  1  0  0  0  0
  4  5  2  0  0  0  0
  5 12  1  0  0  0  0
  6 17  1  0  0  0  0
  6  2  2  0  0  0  0
  7 12  2  0  0  0  0
  8 16  1  0  0  0  0
 10  8  2  0  0  0  0
 11  7  1  0  0  0  0
 13  4  1  0  0  0  0
 13 11  1  0  0  0  0
 14  3  2  0  0  0  0
 15  3  1  0  0  0  0
 15 11  2  0  0  0  0
 17 13  2  0  0  0  0
 19 18  1  6  0  0  0
 19 14  1  0  0  0  0
 19  8  1  0  0  0  0
 20 16  1  0  0  0  0
 20  9  2  0  0  0  0
 21  1  1  0  0  0  0
 22 26  2  0  0  0  0
 22 25  1  0  0  0  0
 23 21  1  0  0  0  0
 24 23  1  0  0  0  0
 25 24  2  0  0  0  0
 26 27  1  0  0  0  0
 27 23  2  0  0  0  0
M  END
>  <MODEL>
6

>  <REMARK>
 VINA RESULT:      -6.8      3.959      8.139
  Name = 
  2 active torsions:
  status: ('A' for Active; 'I' for Inactive)
    1  A    between atoms: N_1  and  C_15
    2  A    between atoms: C_9  and  C_15
                            x       y       z     vdW  Elec       q    Type
                         _______ _______ _______ _____ _____    ______ ____

>  <TORSDO>
F 2

$$$$
=
 OpenBabel11052423203D

 27 31  0  0  1  0  0  0  0  0999 V2000
  160.0520  212.4030  152.2140 N   0  0  0  0  0  0  0  0  0  0  0  0
  160.6530  211.2300  151.9380 C   0  0  0  0  0  0  0  0  0  0  0  0
  159.5850  210.9320  153.8530 C   0  0  0  0  0  0  0  0  0  0  0  0
  162.2440  207.4220  151.4860 C   0  0  0  0  0  3  0  0  0  0  0  0
  161.9990  206.4280  152.4360 C   0  0  0  0  0  3  0  0  0  0  0  0
  161.4310  210.9240  150.8240 C   0  0  0  0  0  3  0  0  0  0  0  0
  160.6720  207.9810  153.7380 C   0  0  0  0  0  3  0  0  0  0  0  0
  158.0270  212.7740  155.4060 C   0  0  0  0  0  0  0  0  0  0  0  0
  159.3000  209.3950  155.6580 O   0  0  0  0  0  0  0  0  0  0  0  0
  157.6050  213.5870  156.2140 O   0  0  0  0  0  0  0  0  0  0  0  0
  160.9120  208.9890  152.8000 C   0  0  0  0  0  0  0  0  0  0  0  0
  161.2150  206.7060  153.5580 C   0  0  0  0  0  3  0  0  0  0  0  0
  161.7050  208.7010  151.6550 C   0  0  0  0  0  0  0  0  0  0  0  0
  159.3980  212.2220  153.3820 C   0  0  0  0  0  0  0  0  0  0  0  0
  160.3990  210.2910  152.9160 C   0  0  0  0  0  0  0  0  0  0  0  0
  157.8800  211.3050  155.7210 C   0  0  0  0  0  2  0  0  0  0  0  0
  161.9400  209.6650  150.7130 N   0  0  0  0  0  0  0  0  0  0  0  0
  159.3570  214.3900  154.2970 F   0  0  0  0  0  0  0  0  0  0  0  0
  158.5760  213.2680  154.0840 C   0  0  2  0  0  3  0  0  0  0  0  0
  158.9630  210.4730  155.1050 C   0  0  0  0  0  0  0  0  0  0  0  0
  160.0480  213.6000  151.3790 C   0  0  0  0  0  2  0  0  0  0  0  0
  157.3180  213.1750  148.0980 C   0  0  0  0  0  3  0  0  0  0  0  0
  159.1000  213.4320  150.2390 C   0  0  0  0  0  0  0  0  0  0  0  0
  157.7250  213.3370  150.4800 C   0  0  0  0  0  3  0  0  0  0  0  0
  156.8350  213.2050  149.4110 C   0  0  0  0  0  3  0  0  0  0  0  0
  158.6920  213.2770  147.8560 C   0  0  0  0  0  3  0  0  0  0  0  0
  159.5820  213.4090  148.9260 C   0  0  0  0  0  3  0  0  0  0  0  0
  1 14  1  0  0  0  0
  2  1  1  0  0  0  0
  2 15  1  0  0  0  0
  3 20  1  0  0  0  0
  4 13  1  0  0  0  0
  4  5  2  0  0  0  0
  5 12  1  0  0  0  0
  6  2  2  0  0  0  0
  8 16  1  0  0  0  0
  8 10  2  0  0  0  0
 11 15  2  0  0  0  0
 11  7  1  0  0  0  0
 12  7  2  0  0  0  0
 13 11  1  0  0  0  0
 14  3  2  0  0  0  0
 14 19  1  0  0  0  0
 15  3  1  0  0  0  0
 17  6  1  0  0  0  0
 17 13  2  0  0  0  0
 19 18  1  1  0  0  0
 19  8  1  0  0  0  0
 20  9  2  0  0  0  0
 20 16  1  0  0  0  0
 21  1  1  0  0  0  0
 22 25  1  0  0  0  0
 23 24  1  0  0  0  0
 23 21  1  0  0  0  0
 25 24  2  0  0  0  0
 26 22  2  0  0  0  0
 26 27  1  0  0  0  0
 27 23  2  0  0  0  0
M  END
>  <MODEL>
7

>  <REMARK>
 VINA RESULT:      -6.5      3.541      5.779
  Name = 
  2 active torsions:
  status: ('A' for Active; 'I' for Inactive)
    1  A    between atoms: N_1  and  C_15
    2  A    between atoms: C_9  and  C_15
                            x       y       z     vdW  Elec       q    Type
                         _______ _______ _______ _____ _____    ______ ____

>  <TORSDO>
F 2

$$$$
=
 OpenBabel11052423203D

 27 31  0  0  1  0  0  0  0  0999 V2000
  161.7620  209.9510  151.3830 N   0  0  0  0  0  0  0  0  0  0  0  0
  161.1410  209.9840  152.5770 C   0  0  0  0  0  0  0  0  0  0  0  0
  160.4560  211.7830  151.4870 C   0  0  0  0  0  0  0  0  0  0  0  0
  158.9570  210.4780  156.0740 C   0  0  0  0  0  3  0  0  0  0  0  0
  158.1010  211.5710  156.2340 C   0  0  0  0  0  3  0  0  0  0  0  0
  161.2430  209.0500  153.6060 C   0  0  0  0  0  3  0  0  0  0  0  0
  158.7010  212.3790  154.0290 C   0  0  0  0  0  3  0  0  0  0  0  0
  161.1780  212.7510  148.8830 C   0  0  0  0  0  0  0  0  0  0  0  0
  159.2200  213.8100  151.7380 O   0  0  0  0  0  0  0  0  0  0  0  0
  161.6620  213.3290  147.9230 O   0  0  0  0  0  0  0  0  0  0  0  0
  159.5660  211.2940  153.8560 C   0  0  0  0  0  0  0  0  0  0  0  0
  157.9730  212.5180  155.2140 C   0  0  0  0  0  3  0  0  0  0  0  0
  159.6900  210.3280  154.8920 C   0  0  0  0  0  0  0  0  0  0  0  0
  161.3430  211.0490  150.7150 C   0  0  0  0  0  0  0  0  0  0  0  0
  160.3270  211.0910  152.6930 C   0  0  0  0  0  0  0  0  0  0  0  0
  159.9360  213.3300  149.5190 C   0  0  0  0  0  2  0  0  0  0  0  0
  160.5150  209.2490  154.7400 N   0  0  0  0  0  0  0  0  0  0  0  0
  163.1530  211.5070  149.2820 F   0  0  0  0  0  0  0  0  0  0  0  0
  161.7720  211.4300  149.3250 C   0  0  2  0  0  3  0  0  0  0  0  0
  159.8400  213.0200  150.9820 C   0  0  0  0  0  0  0  0  0  0  0  0
  162.6460  208.9020  150.8860 C   0  0  0  0  0  2  0  0  0  0  0  0
  160.4560  205.9800  148.6360 C   0  0  0  0  0  3  0  0  0  0  0  0
  161.8670  207.8980  150.1040 C   0  0  0  0  0  0  0  0  0  0  0  0
  161.8440  207.9630  148.7070 C   0  0  0  0  0  3  0  0  0  0  0  0
  161.1370  207.0070  147.9730 C   0  0  0  0  0  3  0  0  0  0  0  0
  160.4850  205.9090  150.0330 C   0  0  0  0  0  3  0  0  0  0  0  0
  161.1930  206.8660  150.7660 C   0  0  0  0  0  3  0  0  0  0  0  0
  1  2  1  0  0  0  0
  2 15  2  0  0  0  0
  2  6  1  0  0  0  0
  3 15  1  0  0  0  0
  4  5  1  0  0  0  0
  6 17  2  0  0  0  0
  7 12  1  0  0  0  0
  8 19  1  0  0  0  0
  8 16  1  0  0  0  0
 10  8  2  0  0  0  0
 11  7  2  0  0  0  0
 11 13  1  0  0  0  0
 12  5  2  0  0  0  0
 13  4  2  0  0  0  0
 14  1  1  0  0  0  0
 14  3  2  0  0  0  0
 15 11  1  0  0  0  0
 16 20  1  0  0  0  0
 17 13  1  0  0  0  0
 19 18  1  1  0  0  0
 19 14  1  0  0  0  0
 20  3  1  0  0  0  0
 20  9  2  0  0  0  0
 21  1  1  0  0  0  0
 22 26  1  0  0  0  0
 23 27  1  0  0  0  0
 23 21  1  0  0  0  0
 24 23  2  0  0  0  0
 25 22  2  0  0  0  0
 25 24  1  0  0  0  0
 26 27  2  0  0  0  0
M  END
>  <MODEL>
8

>  <REMARK>
 VINA RESULT:      -6.4      2.100      5.957
  Name = 
  2 active torsions:
  status: ('A' for Active; 'I' for Inactive)
    1  A    between atoms: N_1  and  C_15
    2  A    between atoms: C_9  and  C_15
                            x       y       z     vdW  Elec       q    Type
                         _______ _______ _______ _____ _____    ______ ____

>  <TORSDO>
F 2

$$$$
=
 OpenBabel11052423203D

 27 31  0  0  1  0  0  0  0  0999 V2000
  162.1370  209.7490  150.2550 N   0  0  0  0  0  0  0  0  0  0  0  0
  161.8660  209.6610  151.5710 C   0  0  0  0  0  0  0  0  0  0  0  0
  161.4680  207.6530  150.7320 C   0  0  0  0  0  0  0  0  0  0  0  0
  160.9800  208.8840  155.5520 C   0  0  0  0  0  3  0  0  0  0  0  0
  160.5740  207.6110  155.9590 C   0  0  0  0  0  3  0  0  0  0  0  0
  161.9840  210.6690  152.5250 C   0  0  0  0  0  3  0  0  0  0  0  0
  160.7420  206.8140  153.6770 C   0  0  0  0  0  3  0  0  0  0  0  0
  161.6500  206.7110  148.0270 C   0  0  0  0  0  0  0  0  0  0  0  0
  160.5530  205.5120  151.2620 O   0  0  0  0  0  0  0  0  0  0  0  0
  161.4480  206.3580  146.8760 O   0  0  0  0  0  0  0  0  0  0  0  0
  161.1450  208.0840  153.2530 C   0  0  0  0  0  0  0  0  0  0  0  0
  160.4560  206.5790  155.0240 C   0  0  0  0  0  3  0  0  0  0  0  0
  161.2700  209.1310  154.2070 C   0  0  0  0  0  0  0  0  0  0  0  0
  161.8960  208.5220  149.7410 C   0  0  0  0  0  0  0  0  0  0  0  0
  161.4490  208.3920  151.9170 C   0  0  0  0  0  0  0  0  0  0  0  0
  161.5810  205.6710  149.1200 C   0  0  0  0  0  2  0  0  0  0  0  0
  161.6790  210.3770  153.8210 N   0  0  0  0  0  0  0  0  0  0  0  0
  161.3160  208.9980  147.5100 F   0  0  0  0  0  0  0  0  0  0  0  0
  162.0670  208.1420  148.2960 C   0  0  2  0  0  3  0  0  0  0  0  0
  161.1510  206.2460  150.4360 C   0  0  0  0  0  0  0  0  0  0  0  0
  162.6590  210.9130  149.5460 C   0  0  0  0  0  2  0  0  0  0  0  0
  159.4730  213.4400  148.1850 C   0  0  0  0  0  3  0  0  0  0  0  0
  161.5370  211.7770  149.0760 C   0  0  0  0  0  0  0  0  0  0  0  0
  160.8300  212.5660  149.9890 C   0  0  0  0  0  3  0  0  0  0  0  0
  159.7960  213.3960  149.5450 C   0  0  0  0  0  3  0  0  0  0  0  0
  160.1840  212.6570  147.2690 C   0  0  0  0  0  3  0  0  0  0  0  0
  161.2170  211.8280  147.7150 C   0  0  0  0  0  3  0  0  0  0  0  0
  1  2  1  0  0  0  0
  2 15  2  0  0  0  0
  2  6  1  0  0  0  0
  3 15  1  0  0  0  0
  4  5  1  0  0  0  0
  6 17  2  0  0  0  0
  7 12  1  0  0  0  0
  8 19  1  0  0  0  0
  8 16  1  0  0  0  0
 10  8  2  0  0  0  0
 11  7  2  0  0  0  0
 11 13  1  0  0  0  0
 12  5  2  0  0  0  0
 13  4  2  0  0  0  0
 14  1  1  0  0  0  0
 14  3  2  0  0  0  0
 15 11  1  0  0  0  0
 16 20  1  0  0  0  0
 17 13  1  0  0  0  0
 19 18  1  6  0  0  0
 19 14  1  0  0  0  0
 20  3  1  0  0  0  0
 20  9  2  0  0  0  0
 21  1  1  0  0  0  0
 22 25  1  0  0  0  0
 23 21  1  0  0  0  0
 23 24  1  0  0  0  0
 25 24  2  0  0  0  0
 26 27  1  0  0  0  0
 26 22  2  0  0  0  0
 27 23  2  0  0  0  0
M  END
>  <MODEL>
9

>  <REMARK>
 VINA RESULT:      -6.4      2.476      4.779
  Name = 
  2 active torsions:
  status: ('A' for Active; 'I' for Inactive)
    1  A    between atoms: N_1  and  C_15
    2  A    between atoms: C_9  and  C_15
                            x       y       z     vdW  Elec       q    Type
                         _______ _______ _______ _____ _____    ______ ____

>  <TORSDO>
F 2

$$$$
