=
 OpenBabel11062409543D

 43 48  0  0  1  0  0  0  0  0999 V2000
  160.9020  203.8560  149.3700 C   0  0  0  0  0  0  0  0  0  0  0  0
  161.8280  208.7280  150.1230 C   0  0  0  0  0  0  0  0  0  0  0  0
  161.3610  209.2940  152.8340 C   0  0  0  0  0  0  0  0  0  0  0  0
  161.4810  206.1480  149.1160 C   0  0  0  0  0  0  0  0  0  0  0  0
  160.6390  204.0490  150.7310 C   0  0  0  0  0  3  0  0  0  0  0  0
  160.7290  202.5070  148.7650 C   0  0  0  0  0  1  0  0  0  0  0  0
  161.2340  206.3940  150.4840 C   0  0  0  0  0  0  0  0  0  0  0  0
  161.3140  204.8990  148.5980 N   0  0  0  0  0  0  0  0  0  0  0  0
  160.8070  205.3220  151.2880 C   0  0  0  0  0  3  0  0  0  0  0  0
  161.1820  207.9910  152.3510 C   0  0  0  0  0  3  0  0  0  0  0  0
  161.4140  207.6960  150.9990 C   0  0  0  0  0  0  0  0  0  0  0  0
  162.0560  208.4480  148.8080 N   0  0  0  0  0  0  0  0  0  0  0  0
  161.9960  210.0390  150.6030 C   0  0  0  0  0  0  0  0  0  0  0  0
  161.7570  210.3080  151.9600 C   0  0  0  0  0  3  0  0  0  0  0  0
  161.8940  207.1970  148.2960 C   0  0  0  0  0  3  0  0  0  0  0  0
  161.1120  209.6330  154.2690 C   0  0  1  0  0  3  0  0  0  0  0  0
  162.2510  210.4760  154.8290 C   0  0  0  0  0  1  0  0  0  0  0  0
  159.8410  210.3300  154.4170 N   0  0  0  0  0  2  0  0  0  0  0  0
  159.2480  210.5680  155.6970 C   0  0  0  0  0  0  0  0  0  0  0  0
  159.8140  210.1700  156.7500 O   0  0  0  0  0  0  0  0  0  0  0  0
  157.9330  211.2670  155.7880 C   0  0  0  0  0  2  0  0  0  0  0  0
  158.1290  212.7770  155.8350 C   0  0  2  0  0  3  0  0  0  0  0  0
  156.2500  214.2220  155.3420 C   0  0  0  0  0  2  0  0  0  0  0  0
  156.7960  213.7210  152.3720 N   0  0  0  0  0  0  0  0  0  0  0  0
  157.7400  213.4630  153.4300 C   0  0  0  0  0  0  0  0  0  0  0  0
  157.6170  213.3280  157.1520 C   0  0  0  0  0  2  0  0  0  0  0  0
  157.3210  213.4060  154.8050 N   0  0  0  0  0  0  0  0  0  0  0  0
  156.2970  213.6950  150.0250 N   0  0  0  0  0  2  0  0  0  0  0  0
  154.5390  214.3640  151.6810 C   0  0  0  0  0  2  0  0  0  0  0  0
  155.0560  214.4530  150.2330 C   0  0  0  0  0  2  0  0  0  0  0  0
  155.3780  213.4290  152.5520 C   0  0  0  0  0  2  0  0  0  0  0  0
  157.2860  214.0750  151.0340 C   0  0  0  0  0  2  0  0  0  0  0  0
  158.9580  213.2810  153.1460 O   0  0  0  0  0  0  0  0  0  0  0  0
  156.2970  214.0290  156.8480 C   0  0  0  0  0  2  0  0  0  0  0  0
  162.3660  211.0470  149.6960 O   0  0  0  0  0  0  0  0  0  0  0  0
  160.0440  213.8350  148.7930 C   0  0  0  0  0  3  0  0  0  0  0  0
  159.8500  213.5660  147.4350 C   0  0  0  0  0  0  0  0  0  0  0  0
  161.3160  211.6460  147.6120 C   0  0  0  0  0  3  0  0  0  0  0  0
  160.8740  213.0090  149.5590 C   0  0  0  0  0  3  0  0  0  0  0  0
  161.5140  211.9030  148.9740 C   0  0  0  0  0  0  0  0  0  0  0  0
  160.4830  212.4670  146.8480 C   0  0  0  0  0  3  0  0  0  0  0  0
  157.5790  213.9530  146.7310 N   0  0  0  0  0  1  0  0  0  0  0  0
  158.9480  214.4300  146.6210 C   0  0  0  0  0  2  0  0  0  0  0  0
  1  5  1  0  0  0  0
  2 13  2  0  0  0  0
  2 11  1  0  0  0  0
  3 16  1  0  0  0  0
  4  7  2  0  0  0  0
  5  9  2  0  0  0  0
  6  1  1  0  0  0  0
  7 11  1  0  0  0  0
  7  9  1  0  0  0  0
  8  4  1  0  0  0  0
  8  1  2  0  0  0  0
 10  3  1  0  0  0  0
 11 10  2  0  0  0  0
 12  2  1  0  0  0  0
 13 14  1  0  0  0  0
 14  3  2  0  0  0  0
 15 12  2  0  0  0  0
 15  4  1  0  0  0  0
 16 18  1  0  0  0  0
 16 17  1  6  0  0  0
 18 19  1  0  0  0  0
 19 21  1  0  0  0  0
 19 20  2  0  0  0  0
 22 21  1  1  0  0  0
 22 26  1  0  0  0  0
 23 34  1  0  0  0  0
 24 31  1  0  0  0  0
 24 25  1  0  0  0  0
 25 27  1  0  0  0  0
 27 23  1  0  0  0  0
 27 22  1  0  0  0  0
 28 30  1  0  0  0  0
 28 32  1  0  0  0  0
 29 31  1  0  0  0  0
 30 29  1  0  0  0  0
 32 24  1  0  0  0  0
 33 25  2  0  0  0  0
 34 26  1  0  0  0  0
 35 13  1  0  0  0  0
 36 39  1  0  0  0  0
 37 36  2  0  0  0  0
 38 40  1  0  0  0  0
 40 39  2  0  0  0  0
 40 35  1  0  0  0  0
 41 37  1  0  0  0  0
 41 38  2  0  0  0  0
 43 42  1  0  0  0  0
 43 37  1  0  0  0  0
M  END
>  <MODEL>
1

>  <REMARK>
 VINA RESULT:      -8.6      0.000      0.000
  Name = 
  7 active torsions:
  status: ('A' for Active; 'I' for Inactive)
    1  A    between atoms: O_1  and  C_34
    2  A    between atoms: O_1  and  C_35
    3  A    between atoms: C_2  and  N_6
    4  A    between atoms: C_2  and  C_13
    5  A    between atoms: C_3  and  C_4
    6  A    between atoms: C_3  and  C_12
    7  A    between atoms: C_19  and  C_37
                            x       y       z     vdW  Elec       q    Type
                         _______ _______ _______ _____ _____    ______ ____

>  <TORSDO>
F 7

$$$$
=
 OpenBabel11062409543D

 43 48  0  0  1  0  0  0  0  0999 V2000
  161.4560  204.4830  147.8070 C   0  0  0  0  0  0  0  0  0  0  0  0
  161.5550  208.5210  150.7820 C   0  0  0  0  0  0  0  0  0  0  0  0
  162.0490  210.7730  149.1780 C   0  0  0  0  0  0  0  0  0  0  0  0
  161.3800  205.9700  149.6600 C   0  0  0  0  0  0  0  0  0  0  0  0
  161.7120  205.5470  146.9350 C   0  0  0  0  0  3  0  0  0  0  0  0
  161.3580  203.0950  147.2770 C   0  0  0  0  0  1  0  0  0  0  0  0
  161.6320  207.0780  148.8210 C   0  0  0  0  0  0  0  0  0  0  0  0
  161.2960  204.7140  149.1390 N   0  0  0  0  0  0  0  0  0  0  0  0
  161.7990  206.8470  147.4450 C   0  0  0  0  0  3  0  0  0  0  0  0
  161.9630  209.5020  148.5920 C   0  0  0  0  0  3  0  0  0  0  0  0
  161.7150  208.3700  149.3840 C   0  0  0  0  0  0  0  0  0  0  0  0
  161.3130  207.4250  151.5570 N   0  0  0  0  0  0  0  0  0  0  0  0
  161.6520  209.7930  151.3730 C   0  0  0  0  0  0  0  0  0  0  0  0
  161.9020  210.9090  150.5590 C   0  0  0  0  0  3  0  0  0  0  0  0
  161.2220  206.1720  151.0310 C   0  0  0  0  0  3  0  0  0  0  0  0
  162.3200  211.9910  148.3560 C   0  0  1  0  0  3  0  0  0  0  0  0
  163.8170  212.1860  148.1570 C   0  0  0  0  0  1  0  0  0  0  0  0
  161.6410  211.9020  147.0690 N   0  0  0  0  0  2  0  0  0  0  0  0
  160.3280  212.4300  146.8620 C   0  0  0  0  0  0  0  0  0  0  0  0
  159.7060  212.9900  147.8040 O   0  0  0  0  0  0  0  0  0  0  0  0
  159.6730  212.2900  145.5290 C   0  0  0  0  0  2  0  0  0  0  0  0
  159.9500  213.5130  144.6640 C   0  0  2  0  0  3  0  0  0  0  0  0
  159.0320  213.6000  142.4260 C   0  0  0  0  0  2  0  0  0  0  0  0
  161.3440  211.8030  141.5350 N   0  0  0  0  0  0  0  0  0  0  0  0
  161.3200  212.5530  142.7650 C   0  0  0  0  0  0  0  0  0  0  0  0
  158.7590  214.4520  144.6930 C   0  0  0  0  0  2  0  0  0  0  0  0
  160.0950  213.1070  143.2780 N   0  0  0  0  0  0  0  0  0  0  0  0
  162.5190  210.3040  140.0760 N   0  0  0  0  0  2  0  0  0  0  0  0
  160.1900  211.0410  139.5160 C   0  0  0  0  0  2  0  0  0  0  0  0
  161.5390  210.5080  139.0000 C   0  0  0  0  0  2  0  0  0  0  0  0
  160.1390  211.1450  141.0410 C   0  0  0  0  0  2  0  0  0  0  0  0
  162.6290  211.5170  140.8850 C   0  0  0  0  0  2  0  0  0  0  0  0
  162.3940  212.7240  143.4090 O   0  0  0  0  0  0  0  0  0  0  0  0
  158.0520  214.3030  143.3500 C   0  0  0  0  0  2  0  0  0  0  0  0
  161.5300  209.8990  152.7690 O   0  0  0  0  0  0  0  0  0  0  0  0
  158.2470  211.4330  153.6910 C   0  0  0  0  0  3  0  0  0  0  0  0
  158.1850  211.0920  155.0440 C   0  0  0  0  0  0  0  0  0  0  0  0
  160.3280  209.9800  154.8560 C   0  0  0  0  0  3  0  0  0  0  0  0
  159.3500  211.0480  152.9200 C   0  0  0  0  0  3  0  0  0  0  0  0
  160.4040  210.3200  153.5000 C   0  0  0  0  0  0  0  0  0  0  0  0
  159.2300  210.3690  155.6260 C   0  0  0  0  0  3  0  0  0  0  0  0
  155.7950  210.9680  155.3220 N   0  0  0  0  0  1  0  0  0  0  0  0
  157.0220  211.5210  155.8730 C   0  0  0  0  0  2  0  0  0  0  0  0
  1  8  1  0  0  0  0
  2 13  1  0  0  0  0
  2 12  1  0  0  0  0
  3 14  1  0  0  0  0
  4 15  1  0  0  0  0
  5  9  1  0  0  0  0
  5  1  2  0  0  0  0
  6  1  1  0  0  0  0
  7 11  1  0  0  0  0
  7  4  1  0  0  0  0
  8  4  2  0  0  0  0
  9  7  2  0  0  0  0
 10  3  2  0  0  0  0
 10 11  1  0  0  0  0
 11  2  2  0  0  0  0
 13 35  1  0  0  0  0
 14 13  2  0  0  0  0
 15 12  2  0  0  0  0
 16 17  1  6  0  0  0
 16  3  1  0  0  0  0
 18 16  1  0  0  0  0
 19 18  1  0  0  0  0
 19 20  2  0  0  0  0
 21 19  1  0  0  0  0
 22 26  1  0  0  0  0
 22 21  1  1  0  0  0
 23 27  1  0  0  0  0
 23 34  1  0  0  0  0
 24 25  1  0  0  0  0
 25 27  1  0  0  0  0
 25 33  2  0  0  0  0
 27 22  1  0  0  0  0
 28 32  1  0  0  0  0
 29 31  1  0  0  0  0
 30 29  1  0  0  0  0
 30 28  1  0  0  0  0
 31 24  1  0  0  0  0
 32 24  1  0  0  0  0
 34 26  1  0  0  0  0
 35 40  1  0  0  0  0
 36 37  1  0  0  0  0
 37 41  2  0  0  0  0
 37 43  1  0  0  0  0
 38 41  1  0  0  0  0
 39 40  1  0  0  0  0
 39 36  2  0  0  0  0
 40 38  2  0  0  0  0
 42 43  1  0  0  0  0
M  END
>  <MODEL>
2

>  <REMARK>
 VINA RESULT:      -8.5      3.566      8.349
  Name = 
  7 active torsions:
  status: ('A' for Active; 'I' for Inactive)
    1  A    between atoms: O_1  and  C_34
    2  A    between atoms: O_1  and  C_35
    3  A    between atoms: C_2  and  N_6
    4  A    between atoms: C_2  and  C_13
    5  A    between atoms: C_3  and  C_4
    6  A    between atoms: C_3  and  C_12
    7  A    between atoms: C_19  and  C_37
                            x       y       z     vdW  Elec       q    Type
                         _______ _______ _______ _____ _____    ______ ____

>  <TORSDO>
F 7

$$$$
=
 OpenBabel11062409543D

 43 48  0  0  1  0  0  0  0  0999 V2000
  160.2600  210.8940  155.9800 C   0  0  0  0  0  0  0  0  0  0  0  0
  160.9850  207.0580  152.8300 C   0  0  0  0  0  0  0  0  0  0  0  0
  161.9820  208.0900  150.4150 C   0  0  0  0  0  0  0  0  0  0  0  0
  160.3990  208.7430  154.9770 C   0  0  0  0  0  0  0  0  0  0  0  0
  160.7450  211.4940  154.8130 C   0  0  0  0  0  3  0  0  0  0  0  0
  159.9190  211.7350  157.1600 C   0  0  0  0  0  1  0  0  0  0  0  0
  160.8960  209.2990  153.7790 C   0  0  0  0  0  0  0  0  0  0  0  0
  160.0990  209.5440  156.0380 N   0  0  0  0  0  0  0  0  0  0  0  0
  161.0640  210.6930  153.7110 C   0  0  0  0  0  3  0  0  0  0  0  0
  161.6960  208.9550  151.4800 C   0  0  0  0  0  3  0  0  0  0  0  0
  161.1990  208.4500  152.6920 C   0  0  0  0  0  0  0  0  0  0  0  0
  160.5030  206.5610  154.0050 N   0  0  0  0  0  0  0  0  0  0  0  0
  161.2600  206.1900  151.7590 C   0  0  0  0  0  0  0  0  0  0  0  0
  161.7550  206.7200  150.5570 C   0  0  0  0  0  3  0  0  0  0  0  0
  160.2120  207.3640  155.0650 C   0  0  0  0  0  3  0  0  0  0  0  0
  162.5040  208.6060  149.1130 C   0  0  1  0  0  3  0  0  0  0  0  0
  162.9870  207.4590  148.2340 C   0  0  0  0  0  1  0  0  0  0  0  0
  161.4830  209.3830  148.4230 N   0  0  0  0  0  2  0  0  0  0  0  0
  161.6840  210.7510  148.0580 C   0  0  0  0  0  0  0  0  0  0  0  0
  162.7670  211.3350  148.3320 O   0  0  0  0  0  0  0  0  0  0  0  0
  160.5950  211.5050  147.3730 C   0  0  0  0  0  2  0  0  0  0  0  0
  160.8980  212.9980  147.3670 C   0  0  2  0  0  3  0  0  0  0  0  0
  159.6050  214.4530  145.9260 C   0  0  0  0  0  2  0  0  0  0  0  0
  161.3940  213.5520  143.6110 N   0  0  0  0  0  0  0  0  0  0  0  0
  161.7190  213.3890  145.0050 C   0  0  0  0  0  0  0  0  0  0  0  0
  159.8990  213.7370  148.2370 C   0  0  0  0  0  2  0  0  0  0  0  0
  160.7160  213.5270  146.0270 N   0  0  0  0  0  0  0  0  0  0  0  0
  162.0220  213.2500  141.3150 N   0  0  0  0  0  2  0  0  0  0  0  0
  159.7780  214.2040  141.8930 C   0  0  0  0  0  2  0  0  0  0  0  0
  160.9050  214.0840  140.8510 C   0  0  0  0  0  2  0  0  0  0  0  0
  160.0290  213.3510  143.1370 C   0  0  0  0  0  2  0  0  0  0  0  0
  162.4730  213.7090  142.6280 C   0  0  0  0  0  2  0  0  0  0  0  0
  162.9080  213.1160  145.3380 O   0  0  0  0  0  0  0  0  0  0  0  0
  158.9400  214.4530  147.2910 C   0  0  0  0  0  2  0  0  0  0  0  0
  160.9950  204.8180  151.9160 O   0  0  0  0  0  0  0  0  0  0  0  0
  160.9200  203.0780  148.6080 C   0  0  0  0  0  3  0  0  0  0  0  0
  161.1250  201.7580  149.0180 C   0  0  0  0  0  0  0  0  0  0  0  0
  161.2330  202.4950  151.3220 C   0  0  0  0  0  3  0  0  0  0  0  0
  160.8720  204.1070  149.5560 C   0  0  0  0  0  3  0  0  0  0  0  0
  161.0240  203.8210  150.9240 C   0  0  0  0  0  0  0  0  0  0  0  0
  161.2760  201.4690  150.3760 C   0  0  0  0  0  3  0  0  0  0  0  0
  160.8230  201.1840  146.6980 N   0  0  0  0  0  1  0  0  0  0  0  0
  161.1530  200.6570  148.0120 C   0  0  0  0  0  2  0  0  0  0  0  0
  1  8  1  0  0  0  0
  1  6  1  0  0  0  0
  2 12  1  0  0  0  0
  3 14  2  0  0  0  0
  3 10  1  0  0  0  0
  4 15  1  0  0  0  0
  4  8  2  0  0  0  0
  5  1  2  0  0  0  0
  7  4  1  0  0  0  0
  9  7  2  0  0  0  0
  9  5  1  0  0  0  0
 10 11  2  0  0  0  0
 11  2  1  0  0  0  0
 11  7  1  0  0  0  0
 12 15  2  0  0  0  0
 13 35  1  0  0  0  0
 13  2  2  0  0  0  0
 14 13  1  0  0  0  0
 16 17  1  6  0  0  0
 16  3  1  0  0  0  0
 18 16  1  0  0  0  0
 19 20  2  0  0  0  0
 19 18  1  0  0  0  0
 21 19  1  0  0  0  0
 22 21  1  6  0  0  0
 22 26  1  0  0  0  0
 23 27  1  0  0  0  0
 23 34  1  0  0  0  0
 24 25  1  0  0  0  0
 25 33  2  0  0  0  0
 25 27  1  0  0  0  0
 27 22  1  0  0  0  0
 28 32  1  0  0  0  0
 29 31  1  0  0  0  0
 30 28  1  0  0  0  0
 30 29  1  0  0  0  0
 31 24  1  0  0  0  0
 32 24  1  0  0  0  0
 34 26  1  0  0  0  0
 36 37  2  0  0  0  0
 36 39  1  0  0  0  0
 37 41  1  0  0  0  0
 39 40  2  0  0  0  0
 40 38  1  0  0  0  0
 40 35  1  0  0  0  0
 41 38  2  0  0  0  0
 42 43  1  0  0  0  0
 43 37  1  0  0  0  0
M  END
>  <MODEL>
3

>  <REMARK>
 VINA RESULT:      -8.3      3.224      8.774
  Name = 
  7 active torsions:
  status: ('A' for Active; 'I' for Inactive)
    1  A    between atoms: O_1  and  C_34
    2  A    between atoms: O_1  and  C_35
    3  A    between atoms: C_2  and  N_6
    4  A    between atoms: C_2  and  C_13
    5  A    between atoms: C_3  and  C_4
    6  A    between atoms: C_3  and  C_12
    7  A    between atoms: C_19  and  C_37
                            x       y       z     vdW  Elec       q    Type
                         _______ _______ _______ _____ _____    ______ ____

>  <TORSDO>
F 7

$$$$
=
 OpenBabel11062409543D

 43 48  0  0  1  0  0  0  0  0999 V2000
  161.5530  204.7970  147.3520 C   0  0  0  0  0  0  0  0  0  0  0  0
  161.6900  208.6710  150.5360 C   0  0  0  0  0  0  0  0  0  0  0  0
  162.0350  211.0200  149.0350 C   0  0  0  0  0  0  0  0  0  0  0  0
  161.5310  206.1800  149.2860 C   0  0  0  0  0  0  0  0  0  0  0  0
  161.7320  205.9130  146.5280 C   0  0  0  0  0  3  0  0  0  0  0  0
  161.4680  203.4370  146.7530 C   0  0  0  0  0  1  0  0  0  0  0  0
  161.7070  207.3380  148.4980 C   0  0  0  0  0  0  0  0  0  0  0  0
  161.4560  204.9510  148.7020 N   0  0  0  0  0  0  0  0  0  0  0  0
  161.8080  207.1860  147.1040 C   0  0  0  0  0  3  0  0  0  0  0  0
  161.9550  209.7810  148.3860 C   0  0  0  0  0  3  0  0  0  0  0  0
  161.7820  208.6010  149.1250 C   0  0  0  0  0  0  0  0  0  0  0  0
  161.5210  207.5280  151.2610 N   0  0  0  0  0  0  0  0  0  0  0  0
  161.7810  209.9120  151.1900 C   0  0  0  0  0  0  0  0  0  0  0  0
  161.9560  211.0780  150.4270 C   0  0  0  0  0  3  0  0  0  0  0  0
  161.4400  206.3030  150.6720 C   0  0  0  0  0  3  0  0  0  0  0  0
  162.2270  212.2890  148.2680 C   0  0  1  0  0  3  0  0  0  0  0  0
  163.6990  212.6790  148.2320 C   0  0  0  0  0  1  0  0  0  0  0  0
  161.7010  212.1550  146.9160 N   0  0  0  0  0  2  0  0  0  0  0  0
  161.4840  213.2860  146.0680 C   0  0  0  0  0  0  0  0  0  0  0  0
  161.7390  214.4510  146.4750 O   0  0  0  0  0  0  0  0  0  0  0  0
  160.9210  213.0920  144.7000 C   0  0  0  0  0  2  0  0  0  0  0  0
  162.0030  212.6210  143.7370 C   0  0  2  0  0  3  0  0  0  0  0  0
  162.4820  213.9480  141.7690 C   0  0  0  0  0  2  0  0  0  0  0  0
  160.0300  212.6710  140.4560 N   0  0  0  0  0  0  0  0  0  0  0  0
  160.6970  212.1480  141.6210 C   0  0  0  0  0  0  0  0  0  0  0  0
  163.2940  213.3750  143.9940 C   0  0  0  0  0  2  0  0  0  0  0  0
  161.6210  212.9520  142.3760 N   0  0  0  0  0  0  0  0  0  0  0  0
  158.2690  212.4580  138.8390 N   0  0  0  0  0  2  0  0  0  0  0  0
  159.7860  214.4530  138.7980 C   0  0  0  0  0  2  0  0  0  0  0  0
  158.8380  213.5300  138.0100 C   0  0  0  0  0  2  0  0  0  0  0  0
  159.8460  214.1080  140.2860 C   0  0  0  0  0  2  0  0  0  0  0  0
  159.3410  211.7520  139.5420 C   0  0  0  0  0  2  0  0  0  0  0  0
  160.4640  210.9620  141.9910 O   0  0  0  0  0  0  0  0  0  0  0  0
  163.4460  214.3820  142.8590 C   0  0  0  0  0  2  0  0  0  0  0  0
  161.7290  209.9400  152.5950 O   0  0  0  0  0  0  0  0  0  0  0  0
  158.4550  211.3480  153.7240 C   0  0  0  0  0  3  0  0  0  0  0  0
  158.5670  211.1610  155.1040 C   0  0  0  0  0  0  0  0  0  0  0  0
  160.7590  210.1800  154.7870 C   0  0  0  0  0  3  0  0  0  0  0  0
  159.4950  210.9510  152.8760 C   0  0  0  0  0  3  0  0  0  0  0  0
  160.6590  210.3660  153.4030 C   0  0  0  0  0  0  0  0  0  0  0  0
  159.7230  210.5810  155.6340 C   0  0  0  0  0  3  0  0  0  0  0  0
  157.9320  212.7110  156.8350 N   0  0  0  0  0  1  0  0  0  0  0  0
  157.4710  211.6040  156.0130 C   0  0  0  0  0  2  0  0  0  0  0  0
  1  8  1  0  0  0  0
  2 13  1  0  0  0  0
  2 12  1  0  0  0  0
  3 14  1  0  0  0  0
  4 15  1  0  0  0  0
  5  9  1  0  0  0  0
  5  1  2  0  0  0  0
  6  1  1  0  0  0  0
  7 11  1  0  0  0  0
  7  4  1  0  0  0  0
  8  4  2  0  0  0  0
  9  7  2  0  0  0  0
 10  3  2  0  0  0  0
 10 11  1  0  0  0  0
 11  2  2  0  0  0  0
 13 35  1  0  0  0  0
 14 13  2  0  0  0  0
 15 12  2  0  0  0  0
 16 17  1  6  0  0  0
 16  3  1  0  0  0  0
 18 16  1  0  0  0  0
 19 20  2  0  0  0  0
 19 18  1  0  0  0  0
 21 19  1  0  0  0  0
 22 26  1  0  0  0  0
 22 21  1  1  0  0  0
 23 27  1  0  0  0  0
 23 34  1  0  0  0  0
 24 25  1  0  0  0  0
 25 33  2  0  0  0  0
 25 27  1  0  0  0  0
 27 22  1  0  0  0  0
 28 32  1  0  0  0  0
 29 31  1  0  0  0  0
 30 29  1  0  0  0  0
 30 28  1  0  0  0  0
 31 24  1  0  0  0  0
 32 24  1  0  0  0  0
 34 26  1  0  0  0  0
 35 40  1  0  0  0  0
 36 37  1  0  0  0  0
 37 41  2  0  0  0  0
 37 43  1  0  0  0  0
 38 41  1  0  0  0  0
 39 40  1  0  0  0  0
 39 36  2  0  0  0  0
 40 38  2  0  0  0  0
 43 42  1  0  0  0  0
M  END
>  <MODEL>
4

>  <REMARK>
 VINA RESULT:      -7.2      3.968      8.864
  Name = 
  7 active torsions:
  status: ('A' for Active; 'I' for Inactive)
    1  A    between atoms: O_1  and  C_34
    2  A    between atoms: O_1  and  C_35
    3  A    between atoms: C_2  and  N_6
    4  A    between atoms: C_2  and  C_13
    5  A    between atoms: C_3  and  C_4
    6  A    between atoms: C_3  and  C_12
    7  A    between atoms: C_19  and  C_37
                            x       y       z     vdW  Elec       q    Type
                         _______ _______ _______ _____ _____    ______ ____

>  <TORSDO>
F 7

$$$$
=
 OpenBabel11062409543D

 43 48  0  0  1  0  0  0  0  0999 V2000
  160.9680  202.0980  147.1070 C   0  0  0  0  0  0  0  0  0  0  0  0
  161.8210  206.8060  148.6140 C   0  0  0  0  0  0  0  0  0  0  0  0
  161.1760  206.9780  151.3420 C   0  0  0  0  0  0  0  0  0  0  0  0
  161.5520  204.3990  147.2250 C   0  0  0  0  0  0  0  0  0  0  0  0
  160.6170  202.0940  148.4620 C   0  0  0  0  0  3  0  0  0  0  0  0
  160.8420  200.8510  146.3040 C   0  0  0  0  0  1  0  0  0  0  0  0
  161.2160  204.4470  148.5950 C   0  0  0  0  0  0  0  0  0  0  0  0
  161.4250  203.2390  146.5220 N   0  0  0  0  0  0  0  0  0  0  0  0
  160.7430  203.2730  149.2060 C   0  0  0  0  0  3  0  0  0  0  0  0
  161.0350  205.7580  150.6660 C   0  0  0  0  0  3  0  0  0  0  0  0
  161.3560  205.6600  149.3030 C   0  0  0  0  0  0  0  0  0  0  0  0
  162.1350  206.7180  147.2900 N   0  0  0  0  0  0  0  0  0  0  0  0
  161.9520  208.0330  149.2880 C   0  0  0  0  0  0  0  0  0  0  0  0
  161.6230  208.1050  150.6510 C   0  0  0  0  0  3  0  0  0  0  0  0
  162.0130  205.5540  146.5930 C   0  0  0  0  0  3  0  0  0  0  0  0
  160.8330  207.1070  152.7920 C   0  0  1  0  0  3  0  0  0  0  0  0
  162.0570  206.8500  153.6610 C   0  0  0  0  0  1  0  0  0  0  0  0
  160.2770  208.4250  153.0700 N   0  0  0  0  0  2  0  0  0  0  0  0
  161.0880  209.6040  153.1000 C   0  0  0  0  0  0  0  0  0  0  0  0
  162.3280  209.5340  152.8880 O   0  0  0  0  0  0  0  0  0  0  0  0
  160.4680  210.9230  153.4130 C   0  0  0  0  0  2  0  0  0  0  0  0
  160.8220  211.3600  154.8300 C   0  0  2  0  0  3  0  0  0  0  0  0
  159.4170  210.6400  156.6660 C   0  0  0  0  0  2  0  0  0  0  0  0
  157.4770  212.8820  155.9040 N   0  0  0  0  0  0  0  0  0  0  0  0
  158.8510  212.8100  155.4740 C   0  0  0  0  0  0  0  0  0  0  0  0
  161.5490  210.2420  155.5530 C   0  0  0  0  0  2  0  0  0  0  0  0
  159.6050  211.5900  155.5870 N   0  0  0  0  0  0  0  0  0  0  0  0
  155.3880  214.0620  155.8880 N   0  0  0  0  0  2  0  0  0  0  0  0
  155.5770  211.8480  157.0470 C   0  0  0  0  0  2  0  0  0  0  0  0
  154.8360  213.1930  156.9370 C   0  0  0  0  0  2  0  0  0  0  0  0
  156.6570  211.6780  155.9780 C   0  0  0  0  0  2  0  0  0  0  0  0
  156.8350  214.1920  156.0620 C   0  0  0  0  0  2  0  0  0  0  0  0
  159.4030  213.8360  154.9850 O   0  0  0  0  0  0  0  0  0  0  0  0
  160.5540  209.6410  156.5400 C   0  0  0  0  0  2  0  0  0  0  0  0
  162.3750  209.1600  148.5620 O   0  0  0  0  0  0  0  0  0  0  0  0
  161.4360  212.5590  149.8050 C   0  0  0  0  0  3  0  0  0  0  0  0
  160.8180  213.0780  148.6640 C   0  0  0  0  0  0  0  0  0  0  0  0
  161.2430  211.0000  147.4950 C   0  0  0  0  0  3  0  0  0  0  0  0
  161.9560  211.2590  149.7900 C   0  0  0  0  0  3  0  0  0  0  0  0
  161.8600  210.4670  148.6330 C   0  0  0  0  0  0  0  0  0  0  0  0
  160.7180  212.2940  147.5120 C   0  0  0  0  0  3  0  0  0  0  0  0
  158.7910  214.3770  148.7240 N   0  0  0  0  0  1  0  0  0  0  0  0
  160.2420  214.4530  148.6850 C   0  0  0  0  0  2  0  0  0  0  0  0
  1  5  1  0  0  0  0
  2 13  2  0  0  0  0
  2 11  1  0  0  0  0
  3 16  1  0  0  0  0
  4  7  2  0  0  0  0
  5  9  2  0  0  0  0
  6  1  1  0  0  0  0
  7  9  1  0  0  0  0
  7 11  1  0  0  0  0
  8  1  2  0  0  0  0
  8  4  1  0  0  0  0
 10  3  1  0  0  0  0
 11 10  2  0  0  0  0
 12  2  1  0  0  0  0
 13 14  1  0  0  0  0
 14  3  2  0  0  0  0
 15  4  1  0  0  0  0
 15 12  2  0  0  0  0
 16 18  1  0  0  0  0
 16 17  1  1  0  0  0
 18 19  1  0  0  0  0
 19 21  1  0  0  0  0
 20 19  2  0  0  0  0
 22 21  1  6  0  0  0
 22 26  1  0  0  0  0
 22 27  1  0  0  0  0
 24 31  1  0  0  0  0
 24 32  1  0  0  0  0
 25 27  1  0  0  0  0
 25 24  1  0  0  0  0
 26 34  1  0  0  0  0
 27 23  1  0  0  0  0
 28 32  1  0  0  0  0
 28 30  1  0  0  0  0
 30 29  1  0  0  0  0
 31 29  1  0  0  0  0
 33 25  2  0  0  0  0
 34 23  1  0  0  0  0
 35 40  1  0  0  0  0
 35 13  1  0  0  0  0
 37 43  1  0  0  0  0
 37 36  2  0  0  0  0
 38 41  2  0  0  0  0
 38 40  1  0  0  0  0
 39 36  1  0  0  0  0
 40 39  2  0  0  0  0
 41 37  1  0  0  0  0
 43 42  1  0  0  0  0
M  END
>  <MODEL>
5

>  <REMARK>
 VINA RESULT:      -6.8      2.109      3.426
  Name = 
  7 active torsions:
  status: ('A' for Active; 'I' for Inactive)
    1  A    between atoms: O_1  and  C_34
    2  A    between atoms: O_1  and  C_35
    3  A    between atoms: C_2  and  N_6
    4  A    between atoms: C_2  and  C_13
    5  A    between atoms: C_3  and  C_4
    6  A    between atoms: C_3  and  C_12
    7  A    between atoms: C_19  and  C_37
                            x       y       z     vdW  Elec       q    Type
                         _______ _______ _______ _____ _____    ______ ____

>  <TORSDO>
F 7

$$$$
=
 OpenBabel11062409543D

 43 48  0  0  1  0  0  0  0  0999 V2000
  159.2580  211.7190  155.5370 C   0  0  0  0  0  0  0  0  0  0  0  0
  161.2240  209.1010  151.7350 C   0  0  0  0  0  0  0  0  0  0  0  0
  161.8360  210.8970  149.6650 C   0  0  0  0  0  0  0  0  0  0  0  0
  160.1030  209.9980  154.1300 C   0  0  0  0  0  0  0  0  0  0  0  0
  159.5240  212.6820  154.5570 C   0  0  0  0  0  3  0  0  0  0  0  0
  158.6530  212.1270  156.8340 C   0  0  0  0  0  1  0  0  0  0  0  0
  160.3950  210.9320  153.1120 C   0  0  0  0  0  0  0  0  0  0  0  0
  159.5510  210.4090  155.3060 N   0  0  0  0  0  0  0  0  0  0  0  0
  160.0950  212.2850  153.3420 C   0  0  0  0  0  3  0  0  0  0  0  0
  161.2760  211.3710  150.8590 C   0  0  0  0  0  3  0  0  0  0  0  0
  160.9670  210.4830  151.9010 C   0  0  0  0  0  0  0  0  0  0  0  0
  160.9270  208.2320  152.7440 N   0  0  0  0  0  0  0  0  0  0  0  0
  161.7750  208.6220  150.5340 C   0  0  0  0  0  0  0  0  0  0  0  0
  162.0730  209.5310  149.5070 C   0  0  0  0  0  3  0  0  0  0  0  0
  160.3810  208.6480  153.9210 C   0  0  0  0  0  3  0  0  0  0  0  0
  162.1660  211.8240  148.5400 C   0  0  1  0  0  3  0  0  0  0  0  0
  163.5710  211.5570  148.0150 C   0  0  0  0  0  1  0  0  0  0  0  0
  161.1880  211.6950  147.4670 N   0  0  0  0  0  2  0  0  0  0  0  0
  161.0950  212.6450  146.4020 C   0  0  0  0  0  0  0  0  0  0  0  0
  161.8660  213.6420  146.3640 O   0  0  0  0  0  0  0  0  0  0  0  0
  160.0590  212.4750  145.3430 C   0  0  0  0  0  2  0  0  0  0  0  0
  160.0260  213.6910  144.4250 C   0  0  2  0  0  3  0  0  0  0  0  0
  158.8070  213.5530  142.3370 C   0  0  0  0  0  2  0  0  0  0  0  0
  161.2210  212.0830  141.1620 N   0  0  0  0  0  0  0  0  0  0  0  0
  161.2530  212.8690  142.3700 C   0  0  0  0  0  0  0  0  0  0  0  0
  158.7220  214.4440  144.6040 C   0  0  0  0  0  2  0  0  0  0  0  0
  160.0400  213.2560  143.0400 N   0  0  0  0  0  0  0  0  0  0  0  0
  162.4000  210.7170  139.5800 N   0  0  0  0  0  2  0  0  0  0  0  0
  159.9310  211.0800  139.3420 C   0  0  0  0  0  2  0  0  0  0  0  0
  161.2620  210.7320  138.6500 C   0  0  0  0  0  2  0  0  0  0  0  0
  160.0750  211.2350  140.8560 C   0  0  0  0  0  2  0  0  0  0  0  0
  162.4340  211.9640  140.3430 C   0  0  0  0  0  2  0  0  0  0  0  0
  162.3660  213.2220  142.8520 O   0  0  0  0  0  0  0  0  0  0  0  0
  157.8690  214.1390  143.3770 C   0  0  0  0  0  2  0  0  0  0  0  0
  161.9750  207.2380  150.3880 O   0  0  0  0  0  0  0  0  0  0  0  0
  161.1730  204.5160  147.9540 C   0  0  0  0  0  3  0  0  0  0  0  0
  161.7230  205.0560  146.7880 C   0  0  0  0  0  0  0  0  0  0  0  0
  162.4240  207.0120  148.0310 C   0  0  0  0  0  3  0  0  0  0  0  0
  161.2490  205.2250  149.1580 C   0  0  0  0  0  3  0  0  0  0  0  0
  161.8810  206.4800  149.2070 C   0  0  0  0  0  0  0  0  0  0  0  0
  162.3530  206.3020  146.8310 C   0  0  0  0  0  3  0  0  0  0  0  0
  160.6060  204.8260  144.6660 N   0  0  0  0  0  1  0  0  0  0  0  0
  161.6650  204.2920  145.5080 C   0  0  0  0  0  2  0  0  0  0  0  0
  1  6  1  0  0  0  0
  2 11  1  0  0  0  0
  2 12  1  0  0  0  0
  3 10  1  0  0  0  0
  4  8  2  0  0  0  0
  5  1  2  0  0  0  0
  7  9  2  0  0  0  0
  7  4  1  0  0  0  0
  8  1  1  0  0  0  0
  9  5  1  0  0  0  0
 10 11  2  0  0  0  0
 11  7  1  0  0  0  0
 12 15  2  0  0  0  0
 13  2  2  0  0  0  0
 14  3  2  0  0  0  0
 14 13  1  0  0  0  0
 15  4  1  0  0  0  0
 16 17  1  6  0  0  0
 16  3  1  0  0  0  0
 18 16  1  0  0  0  0
 19 18  1  0  0  0  0
 20 19  2  0  0  0  0
 21 19  1  0  0  0  0
 22 26  1  0  0  0  0
 22 21  1  1  0  0  0
 23 27  1  0  0  0  0
 23 34  1  0  0  0  0
 24 25  1  0  0  0  0
 25 33  2  0  0  0  0
 25 27  1  0  0  0  0
 27 22  1  0  0  0  0
 28 32  1  0  0  0  0
 29 31  1  0  0  0  0
 30 29  1  0  0  0  0
 30 28  1  0  0  0  0
 31 24  1  0  0  0  0
 32 24  1  0  0  0  0
 34 26  1  0  0  0  0
 35 13  1  0  0  0  0
 36 39  1  0  0  0  0
 37 41  1  0  0  0  0
 37 36  2  0  0  0  0
 38 40  1  0  0  0  0
 39 40  2  0  0  0  0
 40 35  1  0  0  0  0
 41 38  2  0  0  0  0
 42 43  1  0  0  0  0
 43 37  1  0  0  0  0
M  END
>  <MODEL>
6

>  <REMARK>
 VINA RESULT:      -6.7      3.786      9.298
  Name = 
  7 active torsions:
  status: ('A' for Active; 'I' for Inactive)
    1  A    between atoms: O_1  and  C_34
    2  A    between atoms: O_1  and  C_35
    3  A    between atoms: C_2  and  N_6
    4  A    between atoms: C_2  and  C_13
    5  A    between atoms: C_3  and  C_4
    6  A    between atoms: C_3  and  C_12
    7  A    between atoms: C_19  and  C_37
                            x       y       z     vdW  Elec       q    Type
                         _______ _______ _______ _____ _____    ______ ____

>  <TORSDO>
F 7

$$$$
=
 OpenBabel11062409543D

 43 48  0  0  1  0  0  0  0  0999 V2000
  160.9550  201.9430  146.7490 C   0  0  0  0  0  0  0  0  0  0  0  0
  161.1580  204.9350  150.7710 C   0  0  0  0  0  0  0  0  0  0  0  0
  161.7140  207.5430  149.8890 C   0  0  0  0  0  0  0  0  0  0  0  0
  160.9170  202.8270  148.9560 C   0  0  0  0  0  0  0  0  0  0  0  0
  161.2410  203.2080  146.2230 C   0  0  0  0  0  3  0  0  0  0  0  0
  160.8220  200.7730  145.8380 C   0  0  0  0  0  1  0  0  0  0  0  0
  161.1990  204.1240  148.4740 C   0  0  0  0  0  0  0  0  0  0  0  0
  160.8000  201.7800  148.0920 N   0  0  0  0  0  0  0  0  0  0  0  0
  161.3620  204.3000  147.0890 C   0  0  0  0  0  3  0  0  0  0  0  0
  161.5950  206.5010  148.9600 C   0  0  0  0  0  3  0  0  0  0  0  0
  161.3170  205.1940  149.3880 C   0  0  0  0  0  0  0  0  0  0  0  0
  160.8870  203.6670  151.1950 N   0  0  0  0  0  0  0  0  0  0  0  0
  161.2890  205.9760  151.7060 C   0  0  0  0  0  0  0  0  0  0  0  0
  161.5690  207.2740  151.2510 C   0  0  0  0  0  3  0  0  0  0  0  0
  160.7640  202.6250  150.3270 C   0  0  0  0  0  3  0  0  0  0  0  0
  162.0180  208.9410  149.4560 C   0  0  1  0  0  3  0  0  0  0  0  0
  162.0980  209.0300  147.9380 C   0  0  0  0  0  1  0  0  0  0  0  0
  161.0160  209.8660  149.9700 N   0  0  0  0  0  2  0  0  0  0  0  0
  161.1640  210.5270  151.2300 C   0  0  0  0  0  0  0  0  0  0  0  0
  162.1800  210.3210  151.9460 O   0  0  0  0  0  0  0  0  0  0  0  0
  160.0950  211.4460  151.7160 C   0  0  0  0  0  2  0  0  0  0  0  0
  160.4250  212.8900  151.3590 C   0  0  2  0  0  3  0  0  0  0  0  0
  158.8290  214.1740  150.0680 C   0  0  0  0  0  2  0  0  0  0  0  0
  159.8960  212.7650  147.5680 N   0  0  0  0  0  0  0  0  0  0  0  0
  160.5830  212.8150  148.8340 C   0  0  0  0  0  0  0  0  0  0  0  0
  159.7210  213.8370  152.3110 C   0  0  0  0  0  2  0  0  0  0  0  0
  159.9000  213.1980  150.0400 N   0  0  0  0  0  0  0  0  0  0  0  0
  159.8670  212.0340  145.2830 N   0  0  0  0  0  2  0  0  0  0  0  0
  157.8920  213.2380  146.2470 C   0  0  0  0  0  2  0  0  0  0  0  0
  158.6890  212.8600  144.9850 C   0  0  0  0  0  2  0  0  0  0  0  0
  158.4490  212.5900  147.5150 C   0  0  0  0  0  2  0  0  0  0  0  0
  160.6710  212.6730  146.3250 C   0  0  0  0  0  2  0  0  0  0  0  0
  161.8100  212.5130  148.8860 O   0  0  0  0  0  0  0  0  0  0  0  0
  158.5600  214.4530  151.5360 C   0  0  0  0  0  2  0  0  0  0  0  0
  161.1680  205.6740  153.0740 O   0  0  0  0  0  0  0  0  0  0  0  0
  160.2620  207.0670  156.4230 C   0  0  0  0  0  3  0  0  0  0  0  0
  160.4070  208.4340  156.1700 C   0  0  0  0  0  0  0  0  0  0  0  0
  161.0440  207.9390  153.8870 C   0  0  0  0  0  3  0  0  0  0  0  0
  160.5090  206.1370  155.4070 C   0  0  0  0  0  3  0  0  0  0  0  0
  160.8980  206.5670  154.1270 C   0  0  0  0  0  0  0  0  0  0  0  0
  160.7930  208.8680  154.8990 C   0  0  0  0  0  3  0  0  0  0  0  0
  160.4490  210.7650  156.7740 N   0  0  0  0  0  1  0  0  0  0  0  0
  160.1220  209.4290  157.2440 C   0  0  0  0  0  2  0  0  0  0  0  0
  1  8  1  0  0  0  0
  2 12  1  0  0  0  0
  2 13  1  0  0  0  0
  3 14  1  0  0  0  0
  4 15  1  0  0  0  0
  5  1  2  0  0  0  0
  5  9  1  0  0  0  0
  6  1  1  0  0  0  0
  7  4  1  0  0  0  0
  7 11  1  0  0  0  0
  8  4  2  0  0  0  0
  9  7  2  0  0  0  0
 10 11  1  0  0  0  0
 10  3  2  0  0  0  0
 11  2  2  0  0  0  0
 13 35  1  0  0  0  0
 14 13  2  0  0  0  0
 15 12  2  0  0  0  0
 16 17  1  6  0  0  0
 16  3  1  0  0  0  0
 16 18  1  0  0  0  0
 18 19  1  0  0  0  0
 19 21  1  0  0  0  0
 19 20  2  0  0  0  0
 22 21  1  1  0  0  0
 22 26  1  0  0  0  0
 23 34  1  0  0  0  0
 24 25  1  0  0  0  0
 25 33  2  0  0  0  0
 25 27  1  0  0  0  0
 27 23  1  0  0  0  0
 27 22  1  0  0  0  0
 28 32  1  0  0  0  0
 29 31  1  0  0  0  0
 30 28  1  0  0  0  0
 30 29  1  0  0  0  0
 31 24  1  0  0  0  0
 32 24  1  0  0  0  0
 34 26  1  0  0  0  0
 35 40  1  0  0  0  0
 37 36  1  0  0  0  0
 37 43  1  0  0  0  0
 38 40  2  0  0  0  0
 38 41  1  0  0  0  0
 39 36  2  0  0  0  0
 40 39  1  0  0  0  0
 41 37  2  0  0  0  0
 42 43  1  0  0  0  0
M  END
>  <MODEL>
7

>  <REMARK>
 VINA RESULT:      -5.9      2.702      6.113
  Name = 
  7 active torsions:
  status: ('A' for Active; 'I' for Inactive)
    1  A    between atoms: O_1  and  C_34
    2  A    between atoms: O_1  and  C_35
    3  A    between atoms: C_2  and  N_6
    4  A    between atoms: C_2  and  C_13
    5  A    between atoms: C_3  and  C_4
    6  A    between atoms: C_3  and  C_12
    7  A    between atoms: C_19  and  C_37
                            x       y       z     vdW  Elec       q    Type
                         _______ _______ _______ _____ _____    ______ ____

>  <TORSDO>
F 7

$$$$
=
 OpenBabel11062409543D

 43 48  0  0  1  0  0  0  0  0999 V2000
  161.0720  201.5370  147.5820 C   0  0  0  0  0  0  0  0  0  0  0  0
  161.1100  205.0150  151.1970 C   0  0  0  0  0  0  0  0  0  0  0  0
  161.6730  207.4970  150.0110 C   0  0  0  0  0  0  0  0  0  0  0  0
  160.9500  202.6920  149.6570 C   0  0  0  0  0  0  0  0  0  0  0  0
  161.3640  202.7290  146.9100 C   0  0  0  0  0  3  0  0  0  0  0  0
  160.9800  200.2590  146.8230 C   0  0  0  0  0  1  0  0  0  0  0  0
  161.2370  203.9210  149.0240 C   0  0  0  0  0  0  0  0  0  0  0  0
  160.8720  201.5420  148.9290 N   0  0  0  0  0  0  0  0  0  0  0  0
  161.4460  203.9230  147.6340 C   0  0  0  0  0  3  0  0  0  0  0  0
  161.5950  206.3450  149.2180 C   0  0  0  0  0  3  0  0  0  0  0  0
  161.3140  205.0990  149.7990 C   0  0  0  0  0  0  0  0  0  0  0  0
  160.8350  203.8070  151.7690 N   0  0  0  0  0  0  0  0  0  0  0  0
  161.1990  206.1670  151.9970 C   0  0  0  0  0  0  0  0  0  0  0  0
  161.4840  207.4010  151.3910 C   0  0  0  0  0  3  0  0  0  0  0  0
  160.7510  202.6620  151.0360 C   0  0  0  0  0  3  0  0  0  0  0  0
  161.9800  208.8330  149.4150 C   0  0  1  0  0  3  0  0  0  0  0  0
  161.5970  208.8670  147.9410 C   0  0  0  0  0  1  0  0  0  0  0  0
  161.2910  209.8900  150.1450 N   0  0  0  0  0  2  0  0  0  0  0  0
  161.8760  211.1790  150.3520 C   0  0  0  0  0  0  0  0  0  0  0  0
  163.0270  211.4400  149.9070 O   0  0  0  0  0  0  0  0  0  0  0  0
  161.1360  212.2150  151.1270 C   0  0  0  0  0  2  0  0  0  0  0  0
  159.6680  212.2430  150.7200 C   0  0  2  0  0  3  0  0  0  0  0  0
  158.2540  214.0290  151.5410 C   0  0  0  0  0  2  0  0  0  0  0  0
  158.0320  212.4830  154.1740 N   0  0  0  0  0  0  0  0  0  0  0  0
  158.4720  211.9110  152.9260 C   0  0  0  0  0  0  0  0  0  0  0  0
  159.4610  213.2240  149.5820 C   0  0  0  0  0  2  0  0  0  0  0  0
  158.8660  212.7450  151.8210 N   0  0  0  0  0  0  0  0  0  0  0  0
  157.5470  212.1790  156.5040 N   0  0  0  0  0  2  0  0  0  0  0  0
  157.3730  214.4530  155.4650 C   0  0  0  0  0  2  0  0  0  0  0  0
  156.9270  213.5080  156.5960 C   0  0  0  0  0  2  0  0  0  0  0  0
  158.4350  213.8300  154.5580 C   0  0  0  0  0  2  0  0  0  0  0  0
  157.3550  211.6320  155.1610 C   0  0  0  0  0  2  0  0  0  0  0  0
  158.5180  210.6540  152.8000 O   0  0  0  0  0  0  0  0  0  0  0  0
  158.7830  214.4520  150.1820 C   0  0  0  0  0  2  0  0  0  0  0  0
  161.0350  206.0390  153.3870 O   0  0  0  0  0  0  0  0  0  0  0  0
  160.2910  207.8970  156.5450 C   0  0  0  0  0  3  0  0  0  0  0  0
  160.5740  209.2030  156.1370 C   0  0  0  0  0  0  0  0  0  0  0  0
  161.1480  208.3830  153.9310 C   0  0  0  0  0  3  0  0  0  0  0  0
  160.4360  206.8340  155.6460 C   0  0  0  0  0  3  0  0  0  0  0  0
  160.8620  207.0710  154.3270 C   0  0  0  0  0  0  0  0  0  0  0  0
  160.9980  209.4440  154.8270 C   0  0  0  0  0  3  0  0  0  0  0  0
  161.4650  211.3080  156.8950 N   0  0  0  0  0  1  0  0  0  0  0  0
  160.3980  210.3400  157.0860 C   0  0  0  0  0  2  0  0  0  0  0  0
  1  8  1  0  0  0  0
  2 12  1  0  0  0  0
  2 13  1  0  0  0  0
  3 14  1  0  0  0  0
  4 15  1  0  0  0  0
  5  1  2  0  0  0  0
  5  9  1  0  0  0  0
  6  1  1  0  0  0  0
  7  4  1  0  0  0  0
  7 11  1  0  0  0  0
  8  4  2  0  0  0  0
  9  7  2  0  0  0  0
 10 11  1  0  0  0  0
 10  3  2  0  0  0  0
 11  2  2  0  0  0  0
 13 35  1  0  0  0  0
 14 13  2  0  0  0  0
 15 12  2  0  0  0  0
 16 17  1  6  0  0  0
 16  3  1  0  0  0  0
 16 18  1  0  0  0  0
 18 19  1  0  0  0  0
 19 21  1  0  0  0  0
 20 19  2  0  0  0  0
 22 21  1  1  0  0  0
 22 27  1  0  0  0  0
 23 27  1  0  0  0  0
 24 31  1  0  0  0  0
 24 32  1  0  0  0  0
 25 24  1  0  0  0  0
 26 34  1  0  0  0  0
 26 22  1  0  0  0  0
 27 25  1  0  0  0  0
 28 30  1  0  0  0  0
 29 30  1  0  0  0  0
 31 29  1  0  0  0  0
 32 28  1  0  0  0  0
 33 25  2  0  0  0  0
 34 23  1  0  0  0  0
 35 40  1  0  0  0  0
 37 36  1  0  0  0  0
 37 43  1  0  0  0  0
 38 40  2  0  0  0  0
 38 41  1  0  0  0  0
 39 36  2  0  0  0  0
 40 39  1  0  0  0  0
 41 37  2  0  0  0  0
 42 43  1  0  0  0  0
M  END
>  <MODEL>
8

>  <REMARK>
 VINA RESULT:      -5.8      2.161      5.934
  Name = 
  7 active torsions:
  status: ('A' for Active; 'I' for Inactive)
    1  A    between atoms: O_1  and  C_34
    2  A    between atoms: O_1  and  C_35
    3  A    between atoms: C_2  and  N_6
    4  A    between atoms: C_2  and  C_13
    5  A    between atoms: C_3  and  C_4
    6  A    between atoms: C_3  and  C_12
    7  A    between atoms: C_19  and  C_37
                            x       y       z     vdW  Elec       q    Type
                         _______ _______ _______ _____ _____    ______ ____

>  <TORSDO>
F 7

$$$$
