=
 OpenBabel11062409443D

 34 39  0  0  0  0  0  0  0  0999 V2000
  161.2480  206.3400  149.5180 C   0  0  0  0  0  3  0  0  0  0  0  0
  161.1500  203.9440  146.5900 C   0  0  0  0  0  0  0  0  0  0  0  0
  161.0790  202.6670  147.3260 C   0  0  0  0  0  0  0  0  0  0  0  0
  161.1700  205.1200  151.5690 N   0  0  0  0  0  0  0  0  0  0  0  0
  161.1930  205.1450  148.7900 C   0  0  0  0  0  0  0  0  0  0  0  0
  161.1160  203.9380  150.9000 C   0  0  0  0  0  0  0  0  0  0  0  0
  160.9920  201.5200  150.9300 C   0  0  0  0  0  3  0  0  0  0  0  0
  161.0490  202.7380  151.6120 C   0  0  0  0  0  3  0  0  0  0  0  0
  161.2360  206.3170  150.9220 C   0  0  0  0  0  0  0  0  0  0  0  0
  161.0680  202.6900  148.8020 C   0  0  0  0  0  0  0  0  0  0  0  0
  161.1260  203.9220  149.4880 C   0  0  0  0  0  0  0  0  0  0  0  0
  161.0020  201.4960  149.5340 C   0  0  0  0  0  3  0  0  0  0  0  0
  161.1620  203.9580  145.1880 C   0  0  0  0  0  3  0  0  0  0  0  0
  161.2330  205.1690  144.4940 C   0  0  0  0  0  0  0  0  0  0  0  0
  161.2790  206.3750  145.1990 C   0  0  0  0  0  3  0  0  0  0  0  0
  161.0280  201.5720  146.7030 O   0  0  0  0  0  0  0  0  0  0  0  0
  161.2680  206.3700  146.5960 C   0  0  0  0  0  3  0  0  0  0  0  0
  161.2050  205.1600  147.3030 C   0  0  0  0  0  0  0  0  0  0  0  0
  161.7220  210.0480  151.8610 C   0  0  0  0  0  2  0  0  0  0  0  0
  160.9870  207.5330  153.1570 C   0  0  0  0  0  3  0  0  0  0  0  0
  160.7860  210.2720  155.3800 C   0  0  0  0  0  0  0  0  0  0  0  0
  161.0630  210.8900  154.2230 C   0  0  0  0  0  3  0  0  0  0  0  0
  161.1100  209.9220  153.1790 N   0  0  0  0  0  0  0  0  0  0  0  0
  160.6870  208.8520  155.2060 N   0  0  0  0  0  0  0  0  0  0  0  0
  160.9040  208.6830  153.8180 C   0  0  0  0  0  0  0  0  0  0  0  0
  160.1140  207.8780  156.1220 C   0  0  0  0  0  1  0  0  0  0  0  0
  161.2940  207.5700  151.7040 C   0  0  0  0  0  0  0  0  0  0  0  0
  161.6020  208.7420  151.1040 C   0  0  0  0  0  3  0  0  0  0  0  0
  160.6460  210.9680  156.6700 C   0  0  0  0  0  0  0  0  0  0  0  0
  159.3960  211.1280  157.2520 O   0  0  0  0  0  0  0  0  0  0  0  0
  161.6630  211.4210  157.2600 O   0  0  0  0  0  1  0  0  0  0  0  0
  161.2200  205.1760  143.0060 C   0  0  0  0  0  2  0  0  0  0  0  0
  161.6160  206.4290  142.5380 O   0  0  0  0  0  0  0  0  0  0  0  0
  162.0060  206.2020  141.2190 C   0  0  0  0  0  1  0  0  0  0  0  0
  1  9  1  0  0  0  0
  2 18  1  0  0  0  0
  2  3  1  0  0  0  0
  3 10  1  0  0  0  0
  5 11  1  0  0  0  0
  5  1  2  0  0  0  0
  6  4  1  0  0  0  0
  6  8  1  0  0  0  0
  7  8  2  0  0  0  0
  9  4  2  0  0  0  0
  9 27  1  0  0  0  0
 10 11  1  0  0  0  0
 10 12  2  0  0  0  0
 11  6  2  0  0  0  0
 12  7  1  0  0  0  0
 13  2  2  0  0  0  0
 14 13  1  0  0  0  0
 14 15  2  0  0  0  0
 15 17  1  0  0  0  0
 16  3  2  0  0  0  0
 17 18  2  0  0  0  0
 18  5  1  0  0  0  0
 19 23  1  0  0  0  0
 20 25  2  0  0  0  0
 21 29  1  0  0  0  0
 22 21  2  0  0  0  0
 23 25  1  0  0  0  0
 23 22  1  0  0  0  0
 24 21  1  0  0  0  0
 24 26  1  0  0  0  0
 25 24  1  0  0  0  0
 27 20  1  0  0  0  0
 28 27  2  0  0  0  0
 28 19  1  0  0  0  0
 29 30  2  0  0  0  0
 29 31  1  0  0  0  0
 32 14  1  0  0  0  0
 33 32  1  0  0  0  0
 34 33  1  0  0  0  0
M  END
>  <MODEL>
1

>  <REMARK>
 VINA RESULT:      -9.5      0.000      0.000
  Name = 
  4 active torsions:
  status: ('A' for Active; 'I' for Inactive)
    1  A    between atoms: C_3  and  O_13
    2  A    between atoms: C_3  and  C_25
    3  A    between atoms: C_7  and  C_11
    4  A    between atoms: C_18  and  C_30
                            x       y       z     vdW  Elec       q    Type
                         _______ _______ _______ _____ _____    ______ ____

>  <TORSDO>
F 4

$$$$
=
 OpenBabel11062409443D

 34 39  0  0  0  0  0  0  0  0999 V2000
  161.3950  206.4590  150.6660 C   0  0  0  0  0  3  0  0  0  0  0  0
  161.6100  210.1960  151.2250 C   0  0  0  0  0  0  0  0  0  0  0  0
  161.3690  210.2360  152.6810 C   0  0  0  0  0  0  0  0  0  0  0  0
  160.9540  205.3520  152.7350 N   0  0  0  0  0  0  0  0  0  0  0  0
  161.3880  207.7010  151.3140 C   0  0  0  0  0  0  0  0  0  0  0  0
  160.9400  206.5370  153.4010 C   0  0  0  0  0  0  0  0  0  0  0  0
  160.6950  207.7700  155.4700 C   0  0  0  0  0  3  0  0  0  0  0  0
  160.7100  206.5560  154.7790 C   0  0  0  0  0  3  0  0  0  0  0  0
  161.1740  205.2790  151.3920 C   0  0  0  0  0  0  0  0  0  0  0  0
  161.1420  208.9690  153.4050 C   0  0  0  0  0  0  0  0  0  0  0  0
  161.1580  207.7450  152.7040 C   0  0  0  0  0  0  0  0  0  0  0  0
  160.9090  208.9700  154.7870 C   0  0  0  0  0  3  0  0  0  0  0  0
  161.8290  211.3800  150.5080 C   0  0  0  0  0  3  0  0  0  0  0  0
  162.0530  211.3390  149.1290 C   0  0  0  0  0  0  0  0  0  0  0  0
  162.0740  210.1120  148.4620 C   0  0  0  0  0  3  0  0  0  0  0  0
  161.3570  211.3370  153.2970 O   0  0  0  0  0  0  0  0  0  0  0  0
  161.8560  208.9270  149.1690 C   0  0  0  0  0  3  0  0  0  0  0  0
  161.6210  208.9570  150.5530 C   0  0  0  0  0  0  0  0  0  0  0  0
  161.1960  201.4430  150.8190 C   0  0  0  0  0  2  0  0  0  0  0  0
  161.1900  203.9010  149.2380 C   0  0  0  0  0  3  0  0  0  0  0  0
  160.9880  201.0200  147.2020 C   0  0  0  0  0  0  0  0  0  0  0  0
  160.9080  200.4840  148.4280 C   0  0  0  0  0  3  0  0  0  0  0  0
  160.9030  201.5310  149.3940 N   0  0  0  0  0  0  0  0  0  0  0  0
  161.1000  202.4490  147.2600 N   0  0  0  0  0  0  0  0  0  0  0  0
  161.0500  202.7180  148.6490 C   0  0  0  0  0  0  0  0  0  0  0  0
  160.9070  203.4050  146.1810 C   0  0  0  0  0  1  0  0  0  0  0  0
  161.1770  203.9600  150.7220 C   0  0  0  0  0  0  0  0  0  0  0  0
  161.1480  202.8190  151.4480 C   0  0  0  0  0  3  0  0  0  0  0  0
  161.0020  200.2310  145.9590 C   0  0  0  0  0  0  0  0  0  0  0  0
  160.2830  200.6540  144.8490 O   0  0  0  0  0  0  0  0  0  0  0  0
  161.6710  199.1660  145.8920 O   0  0  0  0  0  1  0  0  0  0  0  0
  162.3100  212.5990  148.3780 C   0  0  0  0  0  2  0  0  0  0  0  0
  161.6680  212.5480  147.1420 O   0  0  0  0  0  0  0  0  0  0  0  0
  162.4840  213.2970  146.2940 C   0  0  0  0  0  1  0  0  0  0  0  0
  1  5  2  0  0  0  0
  1  9  1  0  0  0  0
  2  3  1  0  0  0  0
  3 16  2  0  0  0  0
  3 10  1  0  0  0  0
  4  6  1  0  0  0  0
  5 11  1  0  0  0  0
  6  8  1  0  0  0  0
  8  7  2  0  0  0  0
  9  4  2  0  0  0  0
 10 12  2  0  0  0  0
 11  6  2  0  0  0  0
 11 10  1  0  0  0  0
 12  7  1  0  0  0  0
 13  2  2  0  0  0  0
 14 13  1  0  0  0  0
 15 14  2  0  0  0  0
 15 17  1  0  0  0  0
 17 18  2  0  0  0  0
 18  2  1  0  0  0  0
 18  5  1  0  0  0  0
 19 28  1  0  0  0  0
 20 27  1  0  0  0  0
 21 24  1  0  0  0  0
 21 22  2  0  0  0  0
 22 23  1  0  0  0  0
 23 19  1  0  0  0  0
 24 25  1  0  0  0  0
 25 20  2  0  0  0  0
 25 23  1  0  0  0  0
 26 24  1  0  0  0  0
 27  9  1  0  0  0  0
 27 28  2  0  0  0  0
 29 21  1  0  0  0  0
 30 29  2  0  0  0  0
 31 29  1  0  0  0  0
 32 14  1  0  0  0  0
 33 32  1  0  0  0  0
 34 33  1  0  0  0  0
M  END
>  <MODEL>
2

>  <REMARK>
 VINA RESULT:      -9.2      2.666      8.728
  Name = 
  4 active torsions:
  status: ('A' for Active; 'I' for Inactive)
    1  A    between atoms: C_3  and  O_13
    2  A    between atoms: C_3  and  C_25
    3  A    between atoms: C_7  and  C_11
    4  A    between atoms: C_18  and  C_30
                            x       y       z     vdW  Elec       q    Type
                         _______ _______ _______ _____ _____    ______ ____

>  <TORSDO>
F 4

$$$$
=
 OpenBabel11062409443D

 34 39  0  0  0  0  0  0  0  0999 V2000
  161.0970  206.1950  151.3500 C   0  0  0  0  0  3  0  0  0  0  0  0
  161.0550  209.3240  153.4800 C   0  0  0  0  0  0  0  0  0  0  0  0
  161.3670  210.3250  152.4410 C   0  0  0  0  0  0  0  0  0  0  0  0
  161.5930  206.7600  149.0850 N   0  0  0  0  0  0  0  0  0  0  0  0
  161.1830  207.5430  151.7200 C   0  0  0  0  0  0  0  0  0  0  0  0
  161.6850  208.0790  149.4010 C   0  0  0  0  0  0  0  0  0  0  0  0
  162.0770  210.3710  148.7250 C   0  0  0  0  0  3  0  0  0  0  0  0
  161.9820  209.0140  148.4070 C   0  0  0  0  0  3  0  0  0  0  0  0
  161.3060  205.8100  150.0170 C   0  0  0  0  0  0  0  0  0  0  0  0
  161.5790  209.8750  151.0510 C   0  0  0  0  0  0  0  0  0  0  0  0
  161.4810  208.5040  150.7330 C   0  0  0  0  0  0  0  0  0  0  0  0
  161.8770  210.7990  150.0400 C   0  0  0  0  0  3  0  0  0  0  0  0
  160.8480  209.7180  154.8090 C   0  0  0  0  0  3  0  0  0  0  0  0
  160.5560  208.7660  155.7900 C   0  0  0  0  0  0  0  0  0  0  0  0
  160.4560  207.4160  155.4440 C   0  0  0  0  0  3  0  0  0  0  0  0
  161.4510  211.5490  152.7380 O   0  0  0  0  0  0  0  0  0  0  0  0
  160.6610  207.0150  154.1220 C   0  0  0  0  0  3  0  0  0  0  0  0
  160.9630  207.9610  153.1300 C   0  0  0  0  0  0  0  0  0  0  0  0
  161.0310  201.9450  150.1900 C   0  0  0  0  0  2  0  0  0  0  0  0
  161.2660  204.0430  148.1690 C   0  0  0  0  0  3  0  0  0  0  0  0
  160.8840  200.8450  146.7160 C   0  0  0  0  0  0  0  0  0  0  0  0
  160.7290  200.5640  148.0170 C   0  0  0  0  0  3  0  0  0  0  0  0
  160.7840  201.7770  148.7640 N   0  0  0  0  0  0  0  0  0  0  0  0
  161.1110  202.2460  146.5030 N   0  0  0  0  0  0  0  0  0  0  0  0
  161.0470  202.7820  147.8110 C   0  0  0  0  0  0  0  0  0  0  0  0
  161.0240  202.9850  145.2540 C   0  0  0  0  0  1  0  0  0  0  0  0
  161.2200  204.3900  149.6120 C   0  0  0  0  0  0  0  0  0  0  0  0
  161.0790  203.4170  150.5410 C   0  0  0  0  0  3  0  0  0  0  0  0
  160.8670  199.8310  145.6480 C   0  0  0  0  0  0  0  0  0  0  0  0
  160.0810  200.0120  144.5180 O   0  0  0  0  0  0  0  0  0  0  0  0
  161.5700  198.7910  145.7500 O   0  0  0  0  0  1  0  0  0  0  0  0
  160.3130  209.1950  157.1940 C   0  0  0  0  0  2  0  0  0  0  0  0
  160.2720  210.5870  157.2610 O   0  0  0  0  0  0  0  0  0  0  0  0
  158.9120  210.8970  157.2560 C   0  0  0  0  0  1  0  0  0  0  0  0
  1  5  1  0  0  0  0
  2 13  1  0  0  0  0
  3 16  2  0  0  0  0
  3  2  1  0  0  0  0
  4  6  2  0  0  0  0
  4  9  1  0  0  0  0
  5 18  1  0  0  0  0
  6 11  1  0  0  0  0
  7 12  1  0  0  0  0
  8  7  2  0  0  0  0
  8  6  1  0  0  0  0
  9  1  2  0  0  0  0
 10  3  1  0  0  0  0
 11 10  1  0  0  0  0
 11  5  2  0  0  0  0
 12 10  2  0  0  0  0
 13 14  2  0  0  0  0
 14 32  1  0  0  0  0
 15 14  1  0  0  0  0
 17 15  2  0  0  0  0
 18  2  2  0  0  0  0
 18 17  1  0  0  0  0
 19 28  1  0  0  0  0
 20 27  1  0  0  0  0
 21 22  2  0  0  0  0
 22 23  1  0  0  0  0
 23 19  1  0  0  0  0
 24 21  1  0  0  0  0
 24 25  1  0  0  0  0
 25 20  2  0  0  0  0
 25 23  1  0  0  0  0
 26 24  1  0  0  0  0
 27  9  1  0  0  0  0
 27 28  2  0  0  0  0
 29 31  1  0  0  0  0
 29 21  1  0  0  0  0
 30 29  2  0  0  0  0
 32 33  1  0  0  0  0
 34 33  1  0  0  0  0
M  END
>  <MODEL>
3

>  <REMARK>
 VINA RESULT:      -8.7      2.547     10.239
  Name = 
  4 active torsions:
  status: ('A' for Active; 'I' for Inactive)
    1  A    between atoms: C_3  and  O_13
    2  A    between atoms: C_3  and  C_25
    3  A    between atoms: C_7  and  C_11
    4  A    between atoms: C_18  and  C_30
                            x       y       z     vdW  Elec       q    Type
                         _______ _______ _______ _____ _____    ______ ____

>  <TORSDO>
F 4

$$$$
=
 OpenBabel11062409443D

 34 39  0  0  0  0  0  0  0  0999 V2000
  160.6100  207.8400  152.2420 C   0  0  0  0  0  3  0  0  0  0  0  0
  160.0350  211.1760  153.9360 C   0  0  0  0  0  0  0  0  0  0  0  0
  160.1330  210.7500  155.3450 C   0  0  0  0  0  0  0  0  0  0  0  0
  160.9410  206.1410  153.8860 N   0  0  0  0  0  0  0  0  0  0  0  0
  160.4520  208.8020  153.2490 C   0  0  0  0  0  0  0  0  0  0  0  0
  160.7930  207.0430  154.8920 C   0  0  0  0  0  0  0  0  0  0  0  0
  160.7390  207.5440  157.2610 C   0  0  0  0  0  3  0  0  0  0  0  0
  160.8890  206.6230  156.2210 C   0  0  0  0  0  3  0  0  0  0  0  0
  160.8560  206.4990  152.5740 C   0  0  0  0  0  0  0  0  0  0  0  0
  160.3940  209.3290  155.6480 C   0  0  0  0  0  0  0  0  0  0  0  0
  160.5450  208.4010  154.5960 C   0  0  0  0  0  0  0  0  0  0  0  0
  160.4930  208.8890  156.9760 C   0  0  0  0  0  3  0  0  0  0  0  0
  159.7890  212.5180  153.6130 C   0  0  0  0  0  3  0  0  0  0  0  0
  159.6920  212.9170  152.2770 C   0  0  0  0  0  0  0  0  0  0  0  0
  159.8560  211.9780  151.2550 C   0  0  0  0  0  3  0  0  0  0  0  0
  159.9970  211.5890  156.2780 O   0  0  0  0  0  0  0  0  0  0  0  0
  160.1010  210.6390  151.5680 C   0  0  0  0  0  3  0  0  0  0  0  0
  160.1910  210.2250  152.9060 C   0  0  0  0  0  0  0  0  0  0  0  0
  161.2260  203.0650  150.8120 C   0  0  0  0  0  2  0  0  0  0  0  0
  161.1850  205.9020  150.1100 C   0  0  0  0  0  3  0  0  0  0  0  0
  161.4010  203.8370  147.2510 C   0  0  0  0  0  0  0  0  0  0  0  0
  161.2440  202.9270  148.2230 C   0  0  0  0  0  3  0  0  0  0  0  0
  161.0660  203.6010  149.4660 N   0  0  0  0  0  0  0  0  0  0  0  0
  161.3980  205.1720  147.7750 N   0  0  0  0  0  0  0  0  0  0  0  0
  161.1940  204.9710  149.1610 C   0  0  0  0  0  0  0  0  0  0  0  0
  161.2360  206.4190  147.0430 C   0  0  0  0  0  1  0  0  0  0  0  0
  161.0250  205.4730  151.5230 C   0  0  0  0  0  0  0  0  0  0  0  0
  161.0130  204.1580  151.8370 C   0  0  0  0  0  3  0  0  0  0  0  0
  161.5950  203.4970  145.8310 C   0  0  0  0  0  0  0  0  0  0  0  0
  162.6430  204.0550  145.1110 O   0  0  0  0  0  0  0  0  0  0  0  0
  160.8120  202.6930  145.2590 O   0  0  0  0  0  1  0  0  0  0  0  0
  159.4560  214.3480  151.9420 C   0  0  0  0  0  2  0  0  0  0  0  0
  158.9830  214.4530  150.6350 O   0  0  0  0  0  0  0  0  0  0  0  0
  157.6400  214.0860  150.7190 C   0  0  0  0  0  1  0  0  0  0  0  0
  1  9  2  0  0  0  0
  1  5  1  0  0  0  0
  2  3  1  0  0  0  0
  3 10  1  0  0  0  0
  3 16  2  0  0  0  0
  4  6  2  0  0  0  0
  5 11  2  0  0  0  0
  6  8  1  0  0  0  0
  8  7  2  0  0  0  0
  9  4  1  0  0  0  0
 10 12  2  0  0  0  0
 11  6  1  0  0  0  0
 11 10  1  0  0  0  0
 12  7  1  0  0  0  0
 13  2  1  0  0  0  0
 14 13  2  0  0  0  0
 15 17  2  0  0  0  0
 15 14  1  0  0  0  0
 17 18  1  0  0  0  0
 18  5  1  0  0  0  0
 18  2  2  0  0  0  0
 19 28  1  0  0  0  0
 20 27  1  0  0  0  0
 21 24  1  0  0  0  0
 21 22  2  0  0  0  0
 22 23  1  0  0  0  0
 23 19  1  0  0  0  0
 24 25  1  0  0  0  0
 25 23  1  0  0  0  0
 25 20  2  0  0  0  0
 26 24  1  0  0  0  0
 27 28  2  0  0  0  0
 27  9  1  0  0  0  0
 29 21  1  0  0  0  0
 30 29  2  0  0  0  0
 31 29  1  0  0  0  0
 32 14  1  0  0  0  0
 33 34  1  0  0  0  0
 33 32  1  0  0  0  0
M  END
>  <MODEL>
4

>  <REMARK>
 VINA RESULT:      -7.7      2.434      9.285
  Name = 
  4 active torsions:
  status: ('A' for Active; 'I' for Inactive)
    1  A    between atoms: C_3  and  O_13
    2  A    between atoms: C_3  and  C_25
    3  A    between atoms: C_7  and  C_11
    4  A    between atoms: C_18  and  C_30
                            x       y       z     vdW  Elec       q    Type
                         _______ _______ _______ _____ _____    ______ ____

>  <TORSDO>
F 4

$$$$
=
 OpenBabel11062409443D

 34 39  0  0  0  0  0  0  0  0999 V2000
  161.0790  205.3980  149.7310 C   0  0  0  0  0  3  0  0  0  0  0  0
  161.1650  203.9690  146.2270 C   0  0  0  0  0  0  0  0  0  0  0  0
  161.1920  202.5300  146.5550 C   0  0  0  0  0  0  0  0  0  0  0  0
  161.0940  203.6270  151.3310 N   0  0  0  0  0  0  0  0  0  0  0  0
  161.1160  204.4690  148.6830 C   0  0  0  0  0  0  0  0  0  0  0  0
  161.1310  202.6930  150.3440 C   0  0  0  0  0  0  0  0  0  0  0  0
  161.1940  200.3710  149.6620 C   0  0  0  0  0  3  0  0  0  0  0  0
  161.1570  201.3360  150.6710 C   0  0  0  0  0  3  0  0  0  0  0  0
  161.0690  204.9620  151.0650 C   0  0  0  0  0  0  0  0  0  0  0  0
  161.1800  202.1170  147.9720 C   0  0  0  0  0  0  0  0  0  0  0  0
  161.1430  203.0940  148.9900 C   0  0  0  0  0  0  0  0  0  0  0  0
  161.2050  200.7590  148.3200 C   0  0  0  0  0  3  0  0  0  0  0  0
  161.1760  204.3950  144.8920 C   0  0  0  0  0  3  0  0  0  0  0  0
  161.1550  205.7580  144.5850 C   0  0  0  0  0  0  0  0  0  0  0  0
  161.1070  206.7030  145.6130 C   0  0  0  0  0  3  0  0  0  0  0  0
  161.2260  201.6650  145.6370 O   0  0  0  0  0  0  0  0  0  0  0  0
  161.0970  206.2870  146.9460 C   0  0  0  0  0  3  0  0  0  0  0  0
  161.1270  204.9210  147.2660 C   0  0  0  0  0  0  0  0  0  0  0  0
  161.1180  206.4530  154.6440 C   0  0  0  0  0  2  0  0  0  0  0  0
  160.8310  207.3730  151.8850 C   0  0  0  0  0  3  0  0  0  0  0  0
  160.8820  210.0630  154.1750 C   0  0  0  0  0  0  0  0  0  0  0  0
  161.1360  209.0240  154.9820 C   0  0  0  0  0  3  0  0  0  0  0  0
  161.2250  207.8370  154.1990 N   0  0  0  0  0  0  0  0  0  0  0  0
  160.7240  209.6440  152.8120 N   0  0  0  0  0  0  0  0  0  0  0  0
  160.9390  208.2470  152.8800 C   0  0  0  0  0  0  0  0  0  0  0  0
  160.7420  210.4700  151.6150 C   0  0  0  0  0  1  0  0  0  0  0  0
  161.0300  205.9310  152.1820 C   0  0  0  0  0  0  0  0  0  0  0  0
  161.1940  205.5160  153.4580 C   0  0  0  0  0  3  0  0  0  0  0  0
  160.7390  211.4520  154.6430 C   0  0  0  0  0  0  0  0  0  0  0  0
  160.0800  212.3930  153.8640 O   0  0  0  0  0  0  0  0  0  0  0  0
  161.2130  211.7970  155.7580 O   0  0  0  0  0  1  0  0  0  0  0  0
  161.1410  206.2010  143.1640 C   0  0  0  0  0  2  0  0  0  0  0  0
  162.3320  205.8280  142.5430 O   0  0  0  0  0  0  0  0  0  0  0  0
  162.2390  206.3630  141.2590 C   0  0  0  0  0  1  0  0  0  0  0  0
  1  9  1  0  0  0  0
  2  3  1  0  0  0  0
  2 18  1  0  0  0  0
  3 10  1  0  0  0  0
  5 11  1  0  0  0  0
  5  1  2  0  0  0  0
  6  8  1  0  0  0  0
  6  4  1  0  0  0  0
  7  8  2  0  0  0  0
  9  4  2  0  0  0  0
  9 27  1  0  0  0  0
 10 12  2  0  0  0  0
 10 11  1  0  0  0  0
 11  6  2  0  0  0  0
 12  7  1  0  0  0  0
 13  2  2  0  0  0  0
 14 13  1  0  0  0  0
 14 15  2  0  0  0  0
 15 17  1  0  0  0  0
 16  3  2  0  0  0  0
 17 18  2  0  0  0  0
 18  5  1  0  0  0  0
 20 27  1  0  0  0  0
 20 25  2  0  0  0  0
 21 29  1  0  0  0  0
 21 22  2  0  0  0  0
 23 19  1  0  0  0  0
 23 22  1  0  0  0  0
 24 25  1  0  0  0  0
 24 21  1  0  0  0  0
 25 23  1  0  0  0  0
 26 24  1  0  0  0  0
 27 28  2  0  0  0  0
 28 19  1  0  0  0  0
 29 31  1  0  0  0  0
 30 29  2  0  0  0  0
 32 14  1  0  0  0  0
 33 32  1  0  0  0  0
 34 33  1  0  0  0  0
M  END
>  <MODEL>
5

>  <REMARK>
 VINA RESULT:      -7.6      1.202      1.960
  Name = 
  4 active torsions:
  status: ('A' for Active; 'I' for Inactive)
    1  A    between atoms: C_3  and  O_13
    2  A    between atoms: C_3  and  C_25
    3  A    between atoms: C_7  and  C_11
    4  A    between atoms: C_18  and  C_30
                            x       y       z     vdW  Elec       q    Type
                         _______ _______ _______ _____ _____    ______ ____

>  <TORSDO>
F 4

$$$$
=
 OpenBabel11062409443D

 34 39  0  0  0  0  0  0  0  0999 V2000
  160.9540  206.0370  150.6870 C   0  0  0  0  0  3  0  0  0  0  0  0
  161.0530  204.2820  147.3350 C   0  0  0  0  0  0  0  0  0  0  0  0
  161.1470  202.8840  147.7990 C   0  0  0  0  0  0  0  0  0  0  0  0
  161.0710  204.4310  152.4490 N   0  0  0  0  0  0  0  0  0  0  0  0
  161.0170  205.0140  149.7320 C   0  0  0  0  0  0  0  0  0  0  0  0
  161.1340  203.4090  151.5550 C   0  0  0  0  0  0  0  0  0  0  0  0
  161.2880  201.0360  151.0970 C   0  0  0  0  0  3  0  0  0  0  0  0
  161.2240  202.0920  152.0110 C   0  0  0  0  0  3  0  0  0  0  0  0
  160.9830  205.7320  152.0570 C   0  0  0  0  0  0  0  0  0  0  0  0
  161.1730  202.6090  149.2490 C   0  0  0  0  0  0  0  0  0  0  0  0
  161.1080  203.6770  150.1690 C   0  0  0  0  0  0  0  0  0  0  0  0
  161.2630  201.2930  149.7250 C   0  0  0  0  0  3  0  0  0  0  0  0
  161.0250  204.5770  145.9650 C   0  0  0  0  0  3  0  0  0  0  0  0
  160.9400  205.9020  145.5300 C   0  0  0  0  0  0  0  0  0  0  0  0
  160.8660  206.9390  146.4630 C   0  0  0  0  0  3  0  0  0  0  0  0
  161.2050  201.9370  146.9670 O   0  0  0  0  0  0  0  0  0  0  0  0
  160.8930  206.6540  147.8300 C   0  0  0  0  0  3  0  0  0  0  0  0
  160.9880  205.3280  148.2790 C   0  0  0  0  0  0  0  0  0  0  0  0
  161.1910  207.5960  155.4510 C   0  0  0  0  0  2  0  0  0  0  0  0
  160.4710  208.1600  152.6750 C   0  0  0  0  0  3  0  0  0  0  0  0
  160.3590  211.0640  154.6850 C   0  0  0  0  0  0  0  0  0  0  0  0
  160.8540  210.1650  155.5470 C   0  0  0  0  0  3  0  0  0  0  0  0
  161.0370  208.9240  154.8710 N   0  0  0  0  0  0  0  0  0  0  0  0
  160.1200  210.4810  153.3960 N   0  0  0  0  0  0  0  0  0  0  0  0
  160.5520  209.1440  153.5650 C   0  0  0  0  0  0  0  0  0  0  0  0
  159.8840  211.1660  152.1350 C   0  0  0  0  0  1  0  0  0  0  0  0
  160.9180  206.8020  153.0760 C   0  0  0  0  0  0  0  0  0  0  0  0
  161.2800  206.5550  154.3560 C   0  0  0  0  0  3  0  0  0  0  0  0
  160.0580  212.4620  155.0380 C   0  0  0  0  0  0  0  0  0  0  0  0
  159.3310  213.2660  154.1700 O   0  0  0  0  0  0  0  0  0  0  0  0
  160.4560  212.9390  156.1330 O   0  0  0  0  0  1  0  0  0  0  0  0
  160.8860  206.2060  144.0740 C   0  0  0  0  0  2  0  0  0  0  0  0
  161.8470  205.4530  143.4010 O   0  0  0  0  0  0  0  0  0  0  0  0
  161.9540  206.0620  142.1500 C   0  0  0  0  0  1  0  0  0  0  0  0
  1  9  1  0  0  0  0
  2  3  1  0  0  0  0
  2 18  1  0  0  0  0
  3 10  1  0  0  0  0
  5 11  1  0  0  0  0
  5  1  2  0  0  0  0
  6  8  1  0  0  0  0
  6  4  1  0  0  0  0
  7  8  2  0  0  0  0
  9  4  2  0  0  0  0
  9 27  1  0  0  0  0
 10 12  2  0  0  0  0
 10 11  1  0  0  0  0
 11  6  2  0  0  0  0
 12  7  1  0  0  0  0
 13  2  2  0  0  0  0
 14 13  1  0  0  0  0
 14 15  2  0  0  0  0
 15 17  1  0  0  0  0
 16  3  2  0  0  0  0
 17 18  2  0  0  0  0
 18  5  1  0  0  0  0
 20 27  1  0  0  0  0
 20 25  2  0  0  0  0
 21 29  1  0  0  0  0
 21 22  2  0  0  0  0
 23 19  1  0  0  0  0
 23 22  1  0  0  0  0
 24 25  1  0  0  0  0
 24 21  1  0  0  0  0
 25 23  1  0  0  0  0
 26 24  1  0  0  0  0
 27 28  2  0  0  0  0
 28 19  1  0  0  0  0
 29 31  1  0  0  0  0
 30 29  2  0  0  0  0
 32 14  1  0  0  0  0
 33 32  1  0  0  0  0
 34 33  1  0  0  0  0
M  END
>  <MODEL>
6

>  <REMARK>
 VINA RESULT:      -7.5      1.234      1.918
  Name = 
  4 active torsions:
  status: ('A' for Active; 'I' for Inactive)
    1  A    between atoms: C_3  and  O_13
    2  A    between atoms: C_3  and  C_25
    3  A    between atoms: C_7  and  C_11
    4  A    between atoms: C_18  and  C_30
                            x       y       z     vdW  Elec       q    Type
                         _______ _______ _______ _____ _____    ______ ____

>  <TORSDO>
F 4

$$$$
=
 OpenBabel11062409443D

 34 39  0  0  0  0  0  0  0  0999 V2000
  160.3390  208.5250  152.2140 C   0  0  0  0  0  3  0  0  0  0  0  0
  159.3460  211.1990  154.7030 C   0  0  0  0  0  0  0  0  0  0  0  0
  159.7890  210.5430  155.9490 C   0  0  0  0  0  0  0  0  0  0  0  0
  161.3310  206.6790  153.3570 N   0  0  0  0  0  0  0  0  0  0  0  0
  160.1530  209.1950  153.4300 C   0  0  0  0  0  0  0  0  0  0  0  0
  161.1690  207.2960  154.5580 C   0  0  0  0  0  0  0  0  0  0  0  0
  161.4300  207.2900  156.9650 C   0  0  0  0  0  3  0  0  0  0  0  0
  161.5930  206.6610  155.7280 C   0  0  0  0  0  3  0  0  0  0  0  0
  160.9340  207.2550  152.1880 C   0  0  0  0  0  0  0  0  0  0  0  0
  160.4100  209.2060  155.8740 C   0  0  0  0  0  0  0  0  0  0  0  0
  160.5740  208.5740  154.6230 C   0  0  0  0  0  0  0  0  0  0  0  0
  160.8420  208.5540  157.0380 C   0  0  0  0  0  3  0  0  0  0  0  0
  158.7520  212.4680  154.7380 C   0  0  0  0  0  3  0  0  0  0  0  0
  158.3300  213.0830  153.5570 C   0  0  0  0  0  0  0  0  0  0  0  0
  158.5140  212.4390  152.3300 C   0  0  0  0  0  3  0  0  0  0  0  0
  159.6380  211.1180  157.0620 O   0  0  0  0  0  0  0  0  0  0  0  0
  159.1040  211.1740  152.2860 C   0  0  0  0  0  3  0  0  0  0  0  0
  159.5240  210.5420  153.4670 C   0  0  0  0  0  0  0  0  0  0  0  0
  161.8180  206.5040  148.4870 C   0  0  0  0  0  2  0  0  0  0  0  0
  160.8080  205.0880  150.8360 C   0  0  0  0  0  3  0  0  0  0  0  0
  161.3170  202.9120  148.0990 C   0  0  0  0  0  0  0  0  0  0  0  0
  161.8110  204.0620  147.6180 C   0  0  0  0  0  3  0  0  0  0  0  0
  161.7500  205.0560  148.6370 N   0  0  0  0  0  0  0  0  0  0  0  0
  160.8400  203.0660  149.4430 N   0  0  0  0  0  0  0  0  0  0  0  0
  161.1250  204.4220  149.7300 C   0  0  0  0  0  0  0  0  0  0  0  0
  160.5220  202.0210  150.4030 C   0  0  0  0  0  1  0  0  0  0  0  0
  161.1360  206.5340  150.9120 C   0  0  0  0  0  0  0  0  0  0  0  0
  161.6330  207.1770  149.8310 C   0  0  0  0  0  3  0  0  0  0  0  0
  161.2380  201.6630  147.3230 C   0  0  0  0  0  0  0  0  0  0  0  0
  160.8450  201.6860  145.9910 O   0  0  0  0  0  0  0  0  0  0  0  0
  161.5310  200.5630  147.8610 O   0  0  0  0  0  1  0  0  0  0  0  0
  157.7230  214.4420  153.6000 C   0  0  0  0  0  2  0  0  0  0  0  0
  156.5140  214.4390  152.9070 O   0  0  0  0  0  0  0  0  0  0  0  0
  155.5520  214.1850  153.8830 C   0  0  0  0  0  1  0  0  0  0  0  0
  1  5  1  0  0  0  0
  2 13  1  0  0  0  0
  2  3  1  0  0  0  0
  3 16  2  0  0  0  0
  4  6  2  0  0  0  0
  5 18  1  0  0  0  0
  5 11  2  0  0  0  0
  6 11  1  0  0  0  0
  6  8  1  0  0  0  0
  7 12  1  0  0  0  0
  8  7  2  0  0  0  0
  9  1  2  0  0  0  0
  9  4  1  0  0  0  0
 10  3  1  0  0  0  0
 10 12  2  0  0  0  0
 11 10  1  0  0  0  0
 14 32  1  0  0  0  0
 14 13  2  0  0  0  0
 15 14  1  0  0  0  0
 17 15  2  0  0  0  0
 17 18  1  0  0  0  0
 18  2  2  0  0  0  0
 19 23  1  0  0  0  0
 19 28  1  0  0  0  0
 20 27  1  0  0  0  0
 21 24  1  0  0  0  0
 22 21  2  0  0  0  0
 22 23  1  0  0  0  0
 23 25  1  0  0  0  0
 24 25  1  0  0  0  0
 24 26  1  0  0  0  0
 25 20  2  0  0  0  0
 27  9  1  0  0  0  0
 28 27  2  0  0  0  0
 29 31  1  0  0  0  0
 29 21  1  0  0  0  0
 30 29  2  0  0  0  0
 33 32  1  0  0  0  0
 33 34  1  0  0  0  0
M  END
>  <MODEL>
7

>  <REMARK>
 VINA RESULT:      -7.3      2.446      9.653
  Name = 
  4 active torsions:
  status: ('A' for Active; 'I' for Inactive)
    1  A    between atoms: C_3  and  O_13
    2  A    between atoms: C_3  and  C_25
    3  A    between atoms: C_7  and  C_11
    4  A    between atoms: C_18  and  C_30
                            x       y       z     vdW  Elec       q    Type
                         _______ _______ _______ _____ _____    ______ ____

>  <TORSDO>
F 4

$$$$
=
 OpenBabel11062409443D

 34 39  0  0  0  0  0  0  0  0999 V2000
  160.4110  209.1400  151.9900 C   0  0  0  0  0  3  0  0  0  0  0  0
  159.1520  211.0990  154.9750 C   0  0  0  0  0  0  0  0  0  0  0  0
  159.5580  210.1780  156.0550 C   0  0  0  0  0  0  0  0  0  0  0  0
  161.4290  207.1090  152.7220 N   0  0  0  0  0  0  0  0  0  0  0  0
  160.1260  209.4910  153.3160 C   0  0  0  0  0  0  0  0  0  0  0  0
  161.1710  207.4120  154.0220 C   0  0  0  0  0  0  0  0  0  0  0  0
  161.3010  206.8350  156.3710 C   0  0  0  0  0  3  0  0  0  0  0  0
  161.5620  206.5300  155.0320 C   0  0  0  0  0  3  0  0  0  0  0  0
  161.0690  207.9350  151.7010 C   0  0  0  0  0  0  0  0  0  0  0  0
  160.2480  208.9210  155.7040 C   0  0  0  0  0  0  0  0  0  0  0  0
  160.5110  208.6160  154.3520 C   0  0  0  0  0  0  0  0  0  0  0  0
  160.6480  208.0240  156.7050 C   0  0  0  0  0  3  0  0  0  0  0  0
  158.4950  212.3000  155.2730 C   0  0  0  0  0  3  0  0  0  0  0  0
  158.1090  213.1670  154.2480 C   0  0  0  0  0  0  0  0  0  0  0  0
  158.3900  212.8440  152.9180 C   0  0  0  0  0  3  0  0  0  0  0  0
  159.3180  210.4620  157.2610 O   0  0  0  0  0  0  0  0  0  0  0  0
  159.0440  211.6480  152.6120 C   0  0  0  0  0  3  0  0  0  0  0  0
  159.4290  210.7660  153.6330 C   0  0  0  0  0  0  0  0  0  0  0  0
  162.2450  208.1140  148.0100 C   0  0  0  0  0  2  0  0  0  0  0  0
  161.0660  206.1720  149.8490 C   0  0  0  0  0  3  0  0  0  0  0  0
  161.8040  204.7370  146.7060 C   0  0  0  0  0  0  0  0  0  0  0  0
  162.3240  205.9630  146.5640 C   0  0  0  0  0  3  0  0  0  0  0  0
  162.1760  206.6750  147.7900 N   0  0  0  0  0  0  0  0  0  0  0  0
  161.2220  204.5590  148.0050 N   0  0  0  0  0  0  0  0  0  0  0  0
  161.4730  205.7980  148.6400 C   0  0  0  0  0  0  0  0  0  0  0  0
  160.8390  203.3120  148.6490 C   0  0  0  0  0  1  0  0  0  0  0  0
  161.3750  207.5510  150.3060 C   0  0  0  0  0  0  0  0  0  0  0  0
  161.9500  208.4350  149.4590 C   0  0  0  0  0  3  0  0  0  0  0  0
  161.7960  203.7200  145.6400 C   0  0  0  0  0  0  0  0  0  0  0  0
  161.3280  202.4380  145.8950 O   0  0  0  0  0  1  0  0  0  0  0  0
  162.2100  204.0070  144.4860 O   0  0  0  0  0  0  0  0  0  0  0  0
  157.4340  214.4530  154.5750 C   0  0  0  0  0  2  0  0  0  0  0  0
  156.2660  214.2020  155.2940 O   0  0  0  0  0  0  0  0  0  0  0  0
  155.2520  214.2380  154.3370 C   0  0  0  0  0  1  0  0  0  0  0  0
  1  5  1  0  0  0  0
  2 13  1  0  0  0  0
  2  3  1  0  0  0  0
  3 16  2  0  0  0  0
  4  6  2  0  0  0  0
  5 18  1  0  0  0  0
  5 11  2  0  0  0  0
  6 11  1  0  0  0  0
  6  8  1  0  0  0  0
  7 12  1  0  0  0  0
  8  7  2  0  0  0  0
  9  1  2  0  0  0  0
  9  4  1  0  0  0  0
 10  3  1  0  0  0  0
 10 12  2  0  0  0  0
 11 10  1  0  0  0  0
 14 32  1  0  0  0  0
 14 13  2  0  0  0  0
 15 14  1  0  0  0  0
 17 15  2  0  0  0  0
 17 18  1  0  0  0  0
 18  2  2  0  0  0  0
 19 28  1  0  0  0  0
 20 27  1  0  0  0  0
 21 24  1  0  0  0  0
 22 21  2  0  0  0  0
 22 23  1  0  0  0  0
 23 19  1  0  0  0  0
 23 25  1  0  0  0  0
 24 25  1  0  0  0  0
 24 26  1  0  0  0  0
 25 20  2  0  0  0  0
 27  9  1  0  0  0  0
 28 27  2  0  0  0  0
 29 30  1  0  0  0  0
 29 21  1  0  0  0  0
 31 29  2  0  0  0  0
 32 33  1  0  0  0  0
 34 33  1  0  0  0  0
M  END
>  <MODEL>
8

>  <REMARK>
 VINA RESULT:      -7.1      2.557      9.813
  Name = 
  4 active torsions:
  status: ('A' for Active; 'I' for Inactive)
    1  A    between atoms: C_3  and  O_13
    2  A    between atoms: C_3  and  C_25
    3  A    between atoms: C_7  and  C_11
    4  A    between atoms: C_18  and  C_30
                            x       y       z     vdW  Elec       q    Type
                         _______ _______ _______ _____ _____    ______ ____

>  <TORSDO>
F 4

$$$$
=
 OpenBabel11062409443D

 34 39  0  0  0  0  0  0  0  0999 V2000
  161.2190  206.7630  150.0140 C   0  0  0  0  0  3  0  0  0  0  0  0
  161.2400  208.8170  153.1930 C   0  0  0  0  0  0  0  0  0  0  0  0
  161.4970  210.1510  152.6160 C   0  0  0  0  0  0  0  0  0  0  0  0
  161.6090  208.1770  148.1310 N   0  0  0  0  0  0  0  0  0  0  0  0
  161.3080  207.8640  150.8760 C   0  0  0  0  0  0  0  0  0  0  0  0
  161.7030  209.2700  148.9320 C   0  0  0  0  0  0  0  0  0  0  0  0
  162.0430  211.6540  149.1870 C   0  0  0  0  0  3  0  0  0  0  0  0
  161.9470  210.5260  148.3700 C   0  0  0  0  0  3  0  0  0  0  0  0
  161.3730  206.9310  148.6300 C   0  0  0  0  0  0  0  0  0  0  0  0
  161.6520  210.2810  151.1530 C   0  0  0  0  0  0  0  0  0  0  0  0
  161.5540  209.1400  150.3300 C   0  0  0  0  0  0  0  0  0  0  0  0
  161.8970  211.5330  150.5710 C   0  0  0  0  0  3  0  0  0  0  0  0
  161.0880  208.6580  154.5770 C   0  0  0  0  0  3  0  0  0  0  0  0
  160.8490  207.3930  155.1210 C   0  0  0  0  0  0  0  0  0  0  0  0
  160.7460  206.2810  154.2810 C   0  0  0  0  0  3  0  0  0  0  0  0
  161.5830  211.1650  153.3620 O   0  0  0  0  0  0  0  0  0  0  0  0
  160.8970  206.4310  152.9010 C   0  0  0  0  0  3  0  0  0  0  0  0
  161.1460  207.6950  152.3440 C   0  0  0  0  0  0  0  0  0  0  0  0
  161.1510  204.8300  145.3770 C   0  0  0  0  0  2  0  0  0  0  0  0
  161.2070  204.4050  148.2680 C   0  0  0  0  0  3  0  0  0  0  0  0
  161.1940  201.3550  146.4850 C   0  0  0  0  0  0  0  0  0  0  0  0
  161.2980  202.2440  145.4870 C   0  0  0  0  0  3  0  0  0  0  0  0
  161.3900  203.5540  146.0400 N   0  0  0  0  0  0  0  0  0  0  0  0
  161.1490  202.0030  147.7640 N   0  0  0  0  0  0  0  0  0  0  0  0
  161.2680  203.3740  147.4330 C   0  0  0  0  0  0  0  0  0  0  0  0
  161.3430  201.4050  149.0760 C   0  0  0  0  0  1  0  0  0  0  0  0
  161.2820  205.7780  147.7080 C   0  0  0  0  0  0  0  0  0  0  0  0
  161.2880  205.9660  146.3680 C   0  0  0  0  0  3  0  0  0  0  0  0
  161.0930  199.9000  146.2820 C   0  0  0  0  0  0  0  0  0  0  0  0
  160.4650  199.3890  145.1540 O   0  0  0  0  0  0  0  0  0  0  0  0
  161.5810  199.1060  147.1290 O   0  0  0  0  0  1  0  0  0  0  0  0
  160.6640  207.2360  156.5890 C   0  0  0  0  0  2  0  0  0  0  0  0
  161.1440  208.3680  157.2480 O   0  0  0  0  0  0  0  0  0  0  0  0
  160.0650  209.2510  157.2560 C   0  0  0  0  0  1  0  0  0  0  0  0
  1  5  1  0  0  0  0
  2 13  1  0  0  0  0
  3  2  1  0  0  0  0
  3 16  2  0  0  0  0
  4  9  1  0  0  0  0
  4  6  2  0  0  0  0
  5 18  1  0  0  0  0
  6 11  1  0  0  0  0
  7 12  1  0  0  0  0
  8  6  1  0  0  0  0
  8  7  2  0  0  0  0
  9  1  2  0  0  0  0
 10  3  1  0  0  0  0
 11  5  2  0  0  0  0
 11 10  1  0  0  0  0
 12 10  2  0  0  0  0
 13 14  2  0  0  0  0
 14 32  1  0  0  0  0
 15 14  1  0  0  0  0
 17 15  2  0  0  0  0
 18 17  1  0  0  0  0
 18  2  2  0  0  0  0
 19 23  1  0  0  0  0
 19 28  1  0  0  0  0
 21 24  1  0  0  0  0
 22 23  1  0  0  0  0
 22 21  2  0  0  0  0
 23 25  1  0  0  0  0
 24 26  1  0  0  0  0
 25 24  1  0  0  0  0
 25 20  2  0  0  0  0
 27 20  1  0  0  0  0
 27  9  1  0  0  0  0
 28 27  2  0  0  0  0
 29 21  1  0  0  0  0
 29 31  1  0  0  0  0
 30 29  2  0  0  0  0
 32 33  1  0  0  0  0
 33 34  1  0  0  0  0
M  END
>  <MODEL>
9

>  <REMARK>
 VINA RESULT:      -7.0      2.748      9.977
  Name = 
  4 active torsions:
  status: ('A' for Active; 'I' for Inactive)
    1  A    between atoms: C_3  and  O_13
    2  A    between atoms: C_3  and  C_25
    3  A    between atoms: C_7  and  C_11
    4  A    between atoms: C_18  and  C_30
                            x       y       z     vdW  Elec       q    Type
                         _______ _______ _______ _____ _____    ______ ____

>  <TORSDO>
F 4

$$$$
