=
 OpenBabel11062410303D

 43 48  0  0  1  0  0  0  0  0999 V2000
  162.6540  211.0700  149.1390 C   0  0  2  0  0  3  0  0  0  0  0  0
  160.9600  203.4900  150.1260 C   0  0  0  0  0  0  0  0  0  0  0  0
  162.0210  208.3230  148.9000 C   0  0  0  0  0  0  0  0  0  0  0  0
  161.0990  208.5790  151.2950 C   0  0  0  0  0  3  0  0  0  0  0  0
  161.3620  205.5610  148.9250 C   0  0  0  0  0  0  0  0  0  0  0  0
  160.9870  204.2550  151.3940 C   0  0  0  0  0  3  0  0  0  0  0  0
  160.7950  202.0810  150.1590 N   0  0  0  0  0  1  0  0  0  0  0  0
  160.8480  206.3640  150.1100 C   0  0  0  0  0  0  0  0  0  0  0  0
  161.1790  204.1020  148.9590 C   0  0  0  0  0  2  0  0  0  0  0  0
  160.9870  205.5940  151.3960 C   0  0  0  0  0  3  0  0  0  0  0  0
  161.4540  210.0100  151.4120 N   0  0  0  0  0  0  0  0  0  0  0  0
  161.3680  207.7810  150.1720 C   0  0  0  0  0  0  0  0  0  0  0  0
  162.2700  207.5740  147.8330 C   0  0  0  0  0  3  0  0  0  0  0  0
  162.3300  209.7090  149.0540 C   0  0  0  0  0  0  0  0  0  0  0  0
  162.0540  210.4350  150.2230 C   0  0  0  0  0  0  0  0  0  0  0  0
  161.9540  206.1340  147.8680 C   0  0  0  0  0  3  0  0  0  0  0  0
  160.0110  212.1740  146.6260 C   0  0  0  0  0  3  0  0  0  0  0  0
  159.7000  213.4550  147.0930 C   0  0  0  0  0  0  0  0  0  0  0  0
  161.3310  213.2010  148.8710 C   0  0  0  0  0  3  0  0  0  0  0  0
  160.9820  211.4060  147.2810 C   0  0  0  0  0  3  0  0  0  0  0  0
  161.6600  211.9200  148.3990 C   0  0  0  0  0  0  0  0  0  0  0  0
  160.3570  213.9660  148.2220 C   0  0  0  0  0  3  0  0  0  0  0  0
  157.4170  213.4000  146.1520 C   0  0  0  0  0  1  0  0  0  0  0  0
  158.6450  214.2600  146.4140 C   0  0  0  0  0  2  0  0  0  0  0  0
  161.1720  210.8780  152.5470 C   0  0  1  0  0  3  0  0  0  0  0  0
  160.2030  211.9860  152.1620 C   0  0  0  0  0  1  0  0  0  0  0  0
  161.5550  210.4370  154.8640 F   0  0  0  0  0  0  0  0  0  0  0  0
  160.7400  210.0960  153.7980 C   0  0  2  0  0  0  0  0  0  0  0  0
  160.9310  208.6110  153.5270 C   0  0  0  0  0  1  0  0  0  0  0  0
  159.2720  210.3200  154.1760 C   0  0  0  0  0  2  0  0  0  0  0  0
  159.0770  211.4420  155.1940 C   0  0  0  0  0  2  0  0  0  0  0  0
  157.7370  212.1690  155.0150 C   0  0  2  0  0  3  0  0  0  0  0  0
  156.5870  211.2540  154.5770 C   0  0  0  0  0  2  0  0  0  0  0  0
  155.8620  210.8340  155.6950 O   0  0  0  0  0  1  0  0  0  0  0  0
  157.8500  213.4390  154.2640 N   0  0  0  0  0  0  0  0  0  0  0  0
  158.6430  214.4090  155.0100 C   0  0  0  0  0  1  0  0  0  0  0  0
  156.5810  214.0280  153.7790 C   0  0  0  0  0  2  0  0  0  0  0  0
  156.4640  214.1650  152.2860 C   0  0  0  0  0  0  0  0  0  0  0  0
  157.4800  214.4040  150.0960 C   0  0  0  0  0  3  0  0  0  0  0  0
  155.0760  214.2120  150.2900 C   0  0  0  0  0  3  0  0  0  0  0  0
  156.2150  214.3630  149.4980 C   0  0  0  0  0  3  0  0  0  0  0  0
  155.2020  214.1080  151.6810 C   0  0  0  0  0  3  0  0  0  0  0  0
  157.6050  214.3010  151.4870 C   0  0  0  0  0  3  0  0  0  0  0  0
  1 21  1  6  0  0  0
  1 15  1  0  0  0  0
  2  7  1  0  0  0  0
  2  6  2  0  0  0  0
  3 14  1  0  0  0  0
  3 12  1  0  0  0  0
  4 11  1  0  0  0  0
  5  9  1  0  0  0  0
  5  8  1  0  0  0  0
  6 10  1  0  0  0  0
  8 12  1  0  0  0  0
  8 10  2  0  0  0  0
  9  2  1  0  0  0  0
 11 25  1  0  0  0  0
 12  4  2  0  0  0  0
 13 16  1  0  0  0  0
 13  3  2  0  0  0  0
 14  1  1  0  0  0  0
 14 15  2  0  0  0  0
 15 11  1  0  0  0  0
 16  5  2  0  0  0  0
 17 18  2  0  0  0  0
 17 20  1  0  0  0  0
 18 22  1  0  0  0  0
 20 21  2  0  0  0  0
 21 19  1  0  0  0  0
 22 19  2  0  0  0  0
 23 24  1  0  0  0  0
 24 18  1  0  0  0  0
 25 26  1  6  0  0  0
 25 28  1  0  0  0  0
 28 29  1  6  0  0  0
 28 30  1  0  0  0  0
 28 27  1  0  0  0  0
 30 31  1  0  0  0  0
 32 33  1  6  0  0  0
 32 31  1  0  0  0  0
 33 34  1  0  0  0  0
 35 36  1  0  0  0  0
 35 32  1  0  0  0  0
 37 35  1  0  0  0  0
 38 37  1  0  0  0  0
 39 43  1  0  0  0  0
 40 42  2  0  0  0  0
 41 39  2  0  0  0  0
 41 40  1  0  0  0  0
 42 38  1  0  0  0  0
 43 38  2  0  0  0  0
M  END
>  <MODEL>
1

>  <REMARK>
 VINA RESULT:      -7.6      0.000      0.000
  Name = 
  11 active torsions:
  status: ('A' for Active; 'I' for Inactive)
    1  A    between atoms: C_1  and  C_35
    2  A    between atoms: C_2  and  C_12
    3  A    between atoms: C_2  and  N_27
    4  A    between atoms: C_4  and  C_6
    5  A    between atoms: C_4  and  C_15
    6  A    between atoms: C_6  and  C_12
    7  A    between atoms: C_10  and  C_15
    8  A    between atoms: C_11  and  C_14
    9  A    between atoms: C_14  and  N_22
   10  A    between atoms: C_15  and  N_22
   11  A    between atoms: C_19  and  C_37
                            x       y       z     vdW  Elec       q    Type
                         _______ _______ _______ _____ _____    ______ ____

>  <TORSDO>
F 11

$$$$
=
 OpenBabel11062410303D

 43 48  0  0  1  0  0  0  0  0999 V2000
  162.7390  206.4480  151.6640 C   0  0  2  0  0  3  0  0  0  0  0  0
  158.7820  212.0530  155.4350 C   0  0  0  0  0  0  0  0  0  0  0  0
  161.1310  208.0240  153.3770 C   0  0  0  0  0  0  0  0  0  0  0  0
  161.0220  209.6470  151.3750 C   0  0  0  0  0  3  0  0  0  0  0  0
  159.5650  209.8100  154.9310 C   0  0  0  0  0  0  0  0  0  0  0  0
  159.4100  212.5220  154.1780 C   0  0  0  0  0  3  0  0  0  0  0  0
  158.1420  212.9850  156.2910 N   0  0  0  0  0  1  0  0  0  0  0  0
  159.6990  210.1730  153.4600 C   0  0  1  0  0  3  0  0  0  0  0  0
  158.8910  210.7760  155.8130 C   0  0  0  0  0  3  0  0  0  0  0  0
  159.8870  211.6560  153.2760 C   0  0  0  0  0  3  0  0  0  0  0  0
  161.8810  208.8210  150.4990 N   0  0  0  0  0  0  0  0  0  0  0  0
  160.6860  209.3190  152.6980 C   0  0  0  0  0  0  0  0  0  0  0  0
  160.8090  207.7070  154.6240 C   0  0  0  0  0  3  0  0  0  0  0  0
  161.9420  207.2530  152.4880 C   0  0  0  0  0  0  0  0  0  0  0  0
  162.2590  207.6620  151.1840 C   0  0  0  0  0  0  0  0  0  0  0  0
  160.0230  208.6560  155.4340 C   0  0  0  0  0  3  0  0  0  0  0  0
  160.8450  204.2350  149.2060 C   0  0  0  0  0  3  0  0  0  0  0  0
  160.6090  203.0950  149.9810 C   0  0  0  0  0  0  0  0  0  0  0  0
  161.7290  204.1450  151.8610 C   0  0  0  0  0  3  0  0  0  0  0  0
  161.5220  205.3300  149.7570 C   0  0  0  0  0  3  0  0  0  0  0  0
  161.9560  205.2980  151.0940 C   0  0  0  0  0  0  0  0  0  0  0  0
  161.0580  203.0480  151.3090 C   0  0  0  0  0  3  0  0  0  0  0  0
  160.9360  200.9280  148.8410 C   0  0  0  0  0  1  0  0  0  0  0  0
  159.9150  201.9190  149.3840 C   0  0  0  0  0  2  0  0  0  0  0  0
  162.2330  209.1110  149.1160 C   0  0  1  0  0  3  0  0  0  0  0  0
  161.4160  208.2640  148.1520 C   0  0  0  0  0  1  0  0  0  0  0  0
  163.3870  211.0040  148.2230 F   0  0  0  0  0  0  0  0  0  0  0  0
  162.1880  210.6140  148.7960 C   0  0  2  0  0  0  0  0  0  0  0  0
  162.0300  211.3790  150.1020 C   0  0  0  0  0  1  0  0  0  0  0  0
  161.0240  211.0040  147.8790 C   0  0  0  0  0  2  0  0  0  0  0  0
  160.8070  212.5130  147.7910 C   0  0  0  0  0  2  0  0  0  0  0  0
  161.3480  213.1080  146.4840 C   0  0  2  0  0  3  0  0  0  0  0  0
  162.3500  214.2510  146.6890 C   0  0  0  0  0  2  0  0  0  0  0  0
  162.9680  214.1230  147.9350 O   0  0  0  0  0  1  0  0  0  0  0  0
  160.2980  213.3670  145.4730 N   0  0  0  0  0  0  0  0  0  0  0  0
  159.0920  213.8860  146.1060 C   0  0  0  0  0  1  0  0  0  0  0  0
  159.9930  212.2530  144.5470 C   0  0  0  0  0  2  0  0  0  0  0  0
  160.7730  212.2530  143.2610 C   0  0  0  0  0  0  0  0  0  0  0  0
  162.6950  212.9420  141.9510 C   0  0  0  0  0  3  0  0  0  0  0  0
  161.0500  211.4570  140.9800 C   0  0  0  0  0  3  0  0  0  0  0  0
  162.2340  212.1880  140.8650 C   0  0  0  0  0  3  0  0  0  0  0  0
  160.3240  211.4860  142.1770 C   0  0  0  0  0  3  0  0  0  0  0  0
  161.9680  212.9710  143.1480 C   0  0  0  0  0  3  0  0  0  0  0  0
  1 21  1  6  0  0  0
  1 14  1  0  0  0  0
  2  9  2  0  0  0  0
  2  7  1  0  0  0  0
  3 13  2  0  0  0  0
  4 12  2  0  0  0  0
  5 16  2  0  0  0  0
  5  9  1  0  0  0  0
  6  2  1  0  0  0  0
  8 10  1  1  0  0  0
  8  5  1  0  0  0  0
 10  6  2  0  0  0  0
 11 15  1  0  0  0  0
 11  4  1  0  0  0  0
 12  3  1  0  0  0  0
 12  8  1  0  0  0  0
 13 16  1  0  0  0  0
 14  3  1  0  0  0  0
 15  1  1  0  0  0  0
 15 14  2  0  0  0  0
 17 20  2  0  0  0  0
 17 18  1  0  0  0  0
 18 22  2  0  0  0  0
 20 21  1  0  0  0  0
 21 19  2  0  0  0  0
 22 19  1  0  0  0  0
 23 24  1  0  0  0  0
 24 18  1  0  0  0  0
 25 26  1  6  0  0  0
 25 11  1  0  0  0  0
 27 28  1  0  0  0  0
 28 25  1  0  0  0  0
 28 29  1  1  0  0  0
 30 28  1  0  0  0  0
 31 30  1  0  0  0  0
 32 33  1  1  0  0  0
 32 31  1  0  0  0  0
 33 34  1  0  0  0  0
 35 36  1  0  0  0  0
 35 32  1  0  0  0  0
 37 35  1  0  0  0  0
 38 37  1  0  0  0  0
 39 43  2  0  0  0  0
 40 42  1  0  0  0  0
 41 40  2  0  0  0  0
 41 39  1  0  0  0  0
 42 38  2  0  0  0  0
 43 38  1  0  0  0  0
M  END
>  <MODEL>
2

>  <REMARK>
 VINA RESULT:      -7.6      3.182      8.483
  Name = 
  11 active torsions:
  status: ('A' for Active; 'I' for Inactive)
    1  A    between atoms: C_1  and  C_35
    2  A    between atoms: C_2  and  C_12
    3  A    between atoms: C_2  and  N_27
    4  A    between atoms: C_4  and  C_6
    5  A    between atoms: C_4  and  C_15
    6  A    between atoms: C_6  and  C_12
    7  A    between atoms: C_10  and  C_15
    8  A    between atoms: C_11  and  C_14
    9  A    between atoms: C_14  and  N_22
   10  A    between atoms: C_15  and  N_22
   11  A    between atoms: C_19  and  C_37
                            x       y       z     vdW  Elec       q    Type
                         _______ _______ _______ _____ _____    ______ ____

>  <TORSDO>
F 11

$$$$
=
 OpenBabel11062410303D

 43 48  0  0  1  0  0  0  0  0999 V2000
  162.7280  206.5610  151.7050 C   0  0  2  0  0  3  0  0  0  0  0  0
  158.8400  212.1310  155.5990 C   0  0  0  0  0  0  0  0  0  0  0  0
  161.1270  208.1180  153.4430 C   0  0  0  0  0  0  0  0  0  0  0  0
  161.0960  209.8120  151.4980 C   0  0  0  0  0  3  0  0  0  0  0  0
  159.5760  209.8880  155.0300 C   0  0  0  0  0  0  0  0  0  0  0  0
  159.5030  212.6270  154.3710 C   0  0  0  0  0  3  0  0  0  0  0  0
  158.2060  213.0480  156.4760 N   0  0  0  0  0  1  0  0  0  0  0  0
  159.7470  210.2980  153.5760 C   0  0  1  0  0  3  0  0  0  0  0  0
  158.9100  210.8390  155.9340 C   0  0  0  0  0  3  0  0  0  0  0  0
  159.9750  211.7810  153.4480 C   0  0  0  0  0  3  0  0  0  0  0  0
  161.9500  208.9950  150.6090 N   0  0  0  0  0  0  0  0  0  0  0  0
  160.7270  209.4470  152.8030 C   0  0  0  0  0  0  0  0  0  0  0  0
  160.7740  207.7650  154.6720 C   0  0  0  0  0  3  0  0  0  0  0  0
  161.9360  207.3580  152.5420 C   0  0  0  0  0  0  0  0  0  0  0  0
  162.2870  207.8040  151.2590 C   0  0  0  0  0  0  0  0  0  0  0  0
  159.9960  208.7060  155.5010 C   0  0  0  0  0  3  0  0  0  0  0  0
  160.9010  204.4420  149.1180 C   0  0  0  0  0  3  0  0  0  0  0  0
  160.5490  203.3190  149.8750 C   0  0  0  0  0  0  0  0  0  0  0  0
  161.5840  204.3170  151.8300 C   0  0  0  0  0  3  0  0  0  0  0  0
  161.5940  205.5010  149.7160 C   0  0  0  0  0  3  0  0  0  0  0  0
  161.9270  205.4530  151.0810 C   0  0  0  0  0  0  0  0  0  0  0  0
  160.8970  203.2550  151.2320 C   0  0  0  0  0  3  0  0  0  0  0  0
  160.8320  201.2880  148.5000 C   0  0  0  0  0  1  0  0  0  0  0  0
  159.8380  202.1790  149.2310 C   0  0  0  0  0  2  0  0  0  0  0  0
  162.3360  209.3240  149.2440 C   0  0  1  0  0  3  0  0  0  0  0  0
  161.8260  208.2790  148.2620 C   0  0  0  0  0  1  0  0  0  0  0  0
  161.5880  211.4690  149.9850 F   0  0  0  0  0  0  0  0  0  0  0  0
  161.9610  210.7630  148.8530 C   0  0  2  0  0  0  0  0  0  0  0  0
  160.7590  210.7120  147.9230 C   0  0  0  0  0  1  0  0  0  0  0  0
  163.0860  211.5070  148.1270 C   0  0  0  0  0  2  0  0  0  0  0  0
  162.7140  212.9380  147.7450 C   0  0  0  0  0  2  0  0  0  0  0  0
  162.1100  213.0320  146.3370 C   0  0  2  0  0  3  0  0  0  0  0  0
  162.8200  214.0360  145.4220 C   0  0  0  0  0  2  0  0  0  0  0  0
  163.4580  213.3610  144.3790 O   0  0  0  0  0  1  0  0  0  0  0  0
  160.6320  213.1120  146.3320 N   0  0  0  0  0  0  0  0  0  0  0  0
  160.1120  212.9480  144.9800 C   0  0  0  0  0  1  0  0  0  0  0  0
  160.0390  214.2890  147.0070 C   0  0  0  0  0  2  0  0  0  0  0  0
  159.2150  213.9850  148.2280 C   0  0  0  0  0  0  0  0  0  0  0  0
  158.9660  213.8680  150.6380 C   0  0  0  0  0  3  0  0  0  0  0  0
  157.0900  213.3270  149.2090 C   0  0  0  0  0  3  0  0  0  0  0  0
  157.6350  213.4610  150.4880 C   0  0  0  0  0  3  0  0  0  0  0  0
  157.8780  213.5930  148.0830 C   0  0  0  0  0  3  0  0  0  0  0  0
  159.7530  214.1340  149.5110 C   0  0  0  0  0  3  0  0  0  0  0  0
  1 21  1  6  0  0  0
  1 14  1  0  0  0  0
  2  9  2  0  0  0  0
  2  7  1  0  0  0  0
  3 13  2  0  0  0  0
  4 12  2  0  0  0  0
  5 16  2  0  0  0  0
  5  9  1  0  0  0  0
  6  2  1  0  0  0  0
  8 10  1  1  0  0  0
  8  5  1  0  0  0  0
 10  6  2  0  0  0  0
 11 15  1  0  0  0  0
 11  4  1  0  0  0  0
 12  3  1  0  0  0  0
 12  8  1  0  0  0  0
 13 16  1  0  0  0  0
 14  3  1  0  0  0  0
 15  1  1  0  0  0  0
 15 14  2  0  0  0  0
 17 20  2  0  0  0  0
 17 18  1  0  0  0  0
 18 22  2  0  0  0  0
 20 21  1  0  0  0  0
 21 19  2  0  0  0  0
 22 19  1  0  0  0  0
 23 24  1  0  0  0  0
 24 18  1  0  0  0  0
 25 26  1  6  0  0  0
 25 11  1  0  0  0  0
 28 29  1  6  0  0  0
 28 25  1  0  0  0  0
 28 27  1  0  0  0  0
 30 28  1  0  0  0  0
 31 30  1  0  0  0  0
 32 33  1  1  0  0  0
 32 31  1  0  0  0  0
 34 33  1  0  0  0  0
 35 32  1  0  0  0  0
 35 37  1  0  0  0  0
 36 35  1  0  0  0  0
 37 38  1  0  0  0  0
 38 43  1  0  0  0  0
 40 41  2  0  0  0  0
 41 39  1  0  0  0  0
 42 38  2  0  0  0  0
 42 40  1  0  0  0  0
 43 39  2  0  0  0  0
M  END
>  <MODEL>
3

>  <REMARK>
 VINA RESULT:      -7.4      2.896      7.725
  Name = 
  11 active torsions:
  status: ('A' for Active; 'I' for Inactive)
    1  A    between atoms: C_1  and  C_35
    2  A    between atoms: C_2  and  C_12
    3  A    between atoms: C_2  and  N_27
    4  A    between atoms: C_4  and  C_6
    5  A    between atoms: C_4  and  C_15
    6  A    between atoms: C_6  and  C_12
    7  A    between atoms: C_10  and  C_15
    8  A    between atoms: C_11  and  C_14
    9  A    between atoms: C_14  and  N_22
   10  A    between atoms: C_15  and  N_22
   11  A    between atoms: C_19  and  C_37
                            x       y       z     vdW  Elec       q    Type
                         _______ _______ _______ _____ _____    ______ ____

>  <TORSDO>
F 11

$$$$
=
 OpenBabel11062410303D

 43 48  0  0  1  0  0  0  0  0999 V2000
  162.5220  209.5420  151.8410 C   0  0  2  0  0  3  0  0  0  0  0  0
  156.6650  213.7520  154.8870 C   0  0  0  0  0  0  0  0  0  0  0  0
  160.2950  210.5670  153.2540 C   0  0  0  0  0  0  0  0  0  0  0  0
  160.1020  212.2040  151.2700 C   0  0  0  0  0  3  0  0  0  0  0  0
  158.0800  211.8120  154.5180 C   0  0  0  0  0  0  0  0  0  0  0  0
  157.3500  214.4270  153.7610 C   0  0  0  0  0  3  0  0  0  0  0  0
  155.6700  214.4450  155.6220 N   0  0  0  0  0  1  0  0  0  0  0  0
  158.3590  212.2690  153.0950 C   0  0  1  0  0  3  0  0  0  0  0  0
  157.0390  212.5280  155.2730 C   0  0  0  0  0  3  0  0  0  0  0  0
  158.1810  213.7580  152.9520 C   0  0  0  0  0  3  0  0  0  0  0  0
  161.2810  211.6700  150.5540 N   0  0  0  0  0  0  0  0  0  0  0  0
  159.6470  211.7360  152.5140 C   0  0  0  0  0  0  0  0  0  0  0  0
  159.8640  210.1160  154.4250 C   0  0  0  0  0  3  0  0  0  0  0  0
  161.4160  210.0740  152.5170 C   0  0  0  0  0  0  0  0  0  0  0  0
  161.8290  210.6150  151.2890 C   0  0  0  0  0  0  0  0  0  0  0  0
  158.7330  210.7910  155.0900 C   0  0  0  0  0  3  0  0  0  0  0  0
  161.3760  205.9610  151.2210 C   0  0  0  0  0  3  0  0  0  0  0  0
  161.3860  205.9020  149.8240 C   0  0  0  0  0  0  0  0  0  0  0  0
  162.1660  208.1980  149.7360 C   0  0  0  0  0  3  0  0  0  0  0  0
  161.7610  207.1370  151.8760 C   0  0  0  0  0  3  0  0  0  0  0  0
  162.1730  208.2600  151.1390 C   0  0  0  0  0  0  0  0  0  0  0  0
  161.7760  207.0260  149.0810 C   0  0  0  0  0  3  0  0  0  0  0  0
  161.2240  204.7720  147.6340 C   0  0  0  0  0  1  0  0  0  0  0  0
  160.9480  204.6600  149.1270 C   0  0  0  0  0  2  0  0  0  0  0  0
  161.7720  212.1080  149.2550 C   0  0  1  0  0  3  0  0  0  0  0  0
  161.8470  210.9460  148.2760 C   0  0  0  0  0  1  0  0  0  0  0  0
  160.9350  214.3070  149.6750 F   0  0  0  0  0  0  0  0  0  0  0  0
  160.9970  213.3180  148.7070 C   0  0  2  0  0  0  0  0  0  0  0  0
  159.5720  212.8800  148.4030 C   0  0  0  0  0  1  0  0  0  0  0  0
  161.5980  213.8910  147.4200 C   0  0  0  0  0  2  0  0  0  0  0  0
  160.6710  213.7610  146.2130 C   0  0  0  0  0  2  0  0  0  0  0  0
  161.3890  213.1890  144.9820 C   0  0  2  0  0  3  0  0  0  0  0  0
  162.8640  213.5950  144.8790 C   0  0  0  0  0  2  0  0  0  0  0  0
  163.2730  213.5670  143.5430 O   0  0  0  0  0  1  0  0  0  0  0  0
  160.6110  213.3240  143.7300 N   0  0  0  0  0  0  0  0  0  0  0  0
  159.5470  214.3070  143.8880 C   0  0  0  0  0  1  0  0  0  0  0  0
  160.1080  212.0650  143.1340 C   0  0  0  0  0  2  0  0  0  0  0  0
  160.4970  211.8300  141.7010 C   0  0  0  0  0  0  0  0  0  0  0  0
  160.0190  211.9760  139.3270 C   0  0  0  0  0  3  0  0  0  0  0  0
  162.1460  211.0950  140.0720 C   0  0  0  0  0  3  0  0  0  0  0  0
  161.2740  211.4300  139.0340 C   0  0  0  0  0  3  0  0  0  0  0  0
  161.7590  211.2990  141.4020 C   0  0  0  0  0  3  0  0  0  0  0  0
  159.6330  212.1800  140.6570 C   0  0  0  0  0  3  0  0  0  0  0  0
  1 21  1  6  0  0  0
  1 14  1  0  0  0  0
  2  9  2  0  0  0  0
  2  7  1  0  0  0  0
  3 13  2  0  0  0  0
  4 12  2  0  0  0  0
  5 16  2  0  0  0  0
  5  9  1  0  0  0  0
  6  2  1  0  0  0  0
  8 10  1  1  0  0  0
  8  5  1  0  0  0  0
 10  6  2  0  0  0  0
 11  4  1  0  0  0  0
 11 15  1  0  0  0  0
 12  8  1  0  0  0  0
 12  3  1  0  0  0  0
 13 16  1  0  0  0  0
 14  3  1  0  0  0  0
 15  1  1  0  0  0  0
 15 14  2  0  0  0  0
 17 20  1  0  0  0  0
 18 17  2  0  0  0  0
 19 21  1  0  0  0  0
 21 20  2  0  0  0  0
 22 19  2  0  0  0  0
 22 18  1  0  0  0  0
 23 24  1  0  0  0  0
 24 18  1  0  0  0  0
 25 26  1  6  0  0  0
 25 11  1  0  0  0  0
 28 29  1  6  0  0  0
 28 25  1  0  0  0  0
 28 27  1  0  0  0  0
 30 28  1  0  0  0  0
 31 30  1  0  0  0  0
 32 33  1  6  0  0  0
 32 31  1  0  0  0  0
 34 33  1  0  0  0  0
 35 36  1  0  0  0  0
 35 32  1  0  0  0  0
 37 35  1  0  0  0  0
 38 37  1  0  0  0  0
 39 43  1  0  0  0  0
 40 42  2  0  0  0  0
 41 39  2  0  0  0  0
 41 40  1  0  0  0  0
 42 38  1  0  0  0  0
 43 38  2  0  0  0  0
M  END
>  <MODEL>
4

>  <REMARK>
 VINA RESULT:      -6.7      3.924      9.032
  Name = 
  11 active torsions:
  status: ('A' for Active; 'I' for Inactive)
    1  A    between atoms: C_1  and  C_35
    2  A    between atoms: C_2  and  C_12
    3  A    between atoms: C_2  and  N_27
    4  A    between atoms: C_4  and  C_6
    5  A    between atoms: C_4  and  C_15
    6  A    between atoms: C_6  and  C_12
    7  A    between atoms: C_10  and  C_15
    8  A    between atoms: C_11  and  C_14
    9  A    between atoms: C_14  and  N_22
   10  A    between atoms: C_15  and  N_22
   11  A    between atoms: C_19  and  C_37
                            x       y       z     vdW  Elec       q    Type
                         _______ _______ _______ _____ _____    ______ ____

>  <TORSDO>
F 11

$$$$
=
 OpenBabel11062410303D

 43 48  0  0  1  0  0  0  0  0999 V2000
  162.6000  211.5030  148.3900 C   0  0  2  0  0  3  0  0  0  0  0  0
  160.9020  204.2200  150.7080 C   0  0  0  0  0  0  0  0  0  0  0  0
  161.9870  208.7530  148.6430 C   0  0  0  0  0  0  0  0  0  0  0  0
  160.9770  209.4390  150.9150 C   0  0  0  0  0  3  0  0  0  0  0  0
  161.3400  206.0370  149.1570 C   0  0  0  0  0  0  0  0  0  0  0  0
  160.8790  205.2080  151.8110 C   0  0  0  0  0  3  0  0  0  0  0  0
  160.7420  202.8400  150.9950 N   0  0  0  0  0  1  0  0  0  0  0  0
  160.7790  207.0400  150.1530 C   0  0  0  0  0  0  0  0  0  0  0  0
  161.1620  204.6080  149.4550 C   0  0  0  0  0  2  0  0  0  0  0  0
  160.8740  206.5230  151.5640 C   0  0  0  0  0  3  0  0  0  0  0  0
  161.3220  210.8710  150.7750 N   0  0  0  0  0  0  0  0  0  0  0  0
  161.2910  208.4500  149.9690 C   0  0  0  0  0  0  0  0  0  0  0  0
  162.2790  207.8220  147.7430 C   0  0  0  0  0  3  0  0  0  0  0  0
  162.2850  210.1470  148.5470 C   0  0  0  0  0  0  0  0  0  0  0  0
  161.9640  211.0740  149.5510 C   0  0  0  0  0  0  0  0  0  0  0  0
  161.9680  206.4100  148.0340 C   0  0  0  0  0  3  0  0  0  0  0  0
  159.3610  212.4890  146.6420 C   0  0  0  0  0  3  0  0  0  0  0  0
  159.7850  213.5630  145.8520 C   0  0  0  0  0  0  0  0  0  0  0  0
  162.0450  213.2790  146.6860 C   0  0  0  0  0  3  0  0  0  0  0  0
  160.2780  211.8100  147.4530 C   0  0  0  0  0  3  0  0  0  0  0  0
  161.6300  212.1900  147.4700 C   0  0  0  0  0  0  0  0  0  0  0  0
  161.1290  213.9620  145.8800 C   0  0  0  0  0  3  0  0  0  0  0  0
  157.4730  214.4250  145.7440 C   0  0  0  0  0  1  0  0  0  0  0  0
  158.8020  214.3030  145.0120 C   0  0  0  0  0  2  0  0  0  0  0  0
  160.9940  211.9320  151.7180 C   0  0  1  0  0  3  0  0  0  0  0  0
  160.2050  213.0430  151.0420 C   0  0  0  0  0  1  0  0  0  0  0  0
  159.3710  210.4550  152.6650 F   0  0  0  0  0  0  0  0  0  0  0  0
  160.3270  211.4010  152.9980 C   0  0  2  0  0  0  0  0  0  0  0  0
  159.6130  212.5560  153.6830 C   0  0  0  0  0  1  0  0  0  0  0  0
  161.3210  210.8030  153.9980 C   0  0  0  0  0  2  0  0  0  0  0  0
  161.4230  209.2820  153.9100 C   0  0  0  0  0  2  0  0  0  0  0  0
  161.2900  208.6050  155.2820 C   0  0  2  0  0  3  0  0  0  0  0  0
  160.1060  207.6350  155.3830 C   0  0  0  0  0  2  0  0  0  0  0  0
  160.5100  206.3520  155.0090 O   0  0  0  0  0  1  0  0  0  0  0  0
  161.4350  209.5410  156.4180 N   0  0  0  0  0  0  0  0  0  0  0  0
  162.6030  209.2000  157.2210 C   0  0  0  0  0  1  0  0  0  0  0  0
  160.2330  209.7400  157.2600 C   0  0  0  0  0  2  0  0  0  0  0  0
  159.6250  211.1140  157.2020 C   0  0  0  0  0  0  0  0  0  0  0  0
  157.6860  212.5690  157.1070 C   0  0  0  0  0  3  0  0  0  0  0  0
  159.9030  213.5300  157.2300 C   0  0  0  0  0  3  0  0  0  0  0  0
  158.5190  213.6930  157.1490 C   0  0  0  0  0  3  0  0  0  0  0  0
  160.4540  212.2420  157.2610 C   0  0  0  0  0  3  0  0  0  0  0  0
  158.2380  211.2820  157.1380 C   0  0  0  0  0  3  0  0  0  0  0  0
  1 21  1  6  0  0  0
  1 14  1  0  0  0  0
  1 15  1  0  0  0  0
  2  7  1  0  0  0  0
  2  6  2  0  0  0  0
  3 12  1  0  0  0  0
  5  9  1  0  0  0  0
  5  8  1  0  0  0  0
  8 10  2  0  0  0  0
  9  2  1  0  0  0  0
 10  6  1  0  0  0  0
 11  4  1  0  0  0  0
 11 25  1  0  0  0  0
 12  8  1  0  0  0  0
 12  4  2  0  0  0  0
 13 16  1  0  0  0  0
 13  3  2  0  0  0  0
 14  3  1  0  0  0  0
 14 15  2  0  0  0  0
 15 11  1  0  0  0  0
 16  5  2  0  0  0  0
 17 20  1  0  0  0  0
 18 22  1  0  0  0  0
 18 17  2  0  0  0  0
 19 21  1  0  0  0  0
 20 21  2  0  0  0  0
 22 19  2  0  0  0  0
 24 23  1  0  0  0  0
 24 18  1  0  0  0  0
 25 26  1  6  0  0  0
 25 28  1  0  0  0  0
 27 28  1  0  0  0  0
 28 29  1  1  0  0  0
 28 30  1  0  0  0  0
 31 30  1  0  0  0  0
 32 31  1  6  0  0  0
 32 33  1  0  0  0  0
 32 35  1  0  0  0  0
 34 33  1  0  0  0  0
 35 36  1  0  0  0  0
 35 37  1  0  0  0  0
 38 37  1  0  0  0  0
 38 42  1  0  0  0  0
 39 43  1  0  0  0  0
 39 41  2  0  0  0  0
 40 42  2  0  0  0  0
 41 40  1  0  0  0  0
 43 38  2  0  0  0  0
M  END
>  <MODEL>
5

>  <REMARK>
 VINA RESULT:      -6.2      2.407      3.835
  Name = 
  11 active torsions:
  status: ('A' for Active; 'I' for Inactive)
    1  A    between atoms: C_1  and  C_35
    2  A    between atoms: C_2  and  C_12
    3  A    between atoms: C_2  and  N_27
    4  A    between atoms: C_4  and  C_6
    5  A    between atoms: C_4  and  C_15
    6  A    between atoms: C_6  and  C_12
    7  A    between atoms: C_10  and  C_15
    8  A    between atoms: C_11  and  C_14
    9  A    between atoms: C_14  and  N_22
   10  A    between atoms: C_15  and  N_22
   11  A    between atoms: C_19  and  C_37
                            x       y       z     vdW  Elec       q    Type
                         _______ _______ _______ _____ _____    ______ ____

>  <TORSDO>
F 11

$$$$
=
 OpenBabel11062410303D

 43 48  0  0  1  0  0  0  0  0999 V2000
  162.3410  212.0070  148.4750 C   0  0  2  0  0  3  0  0  0  0  0  0
  161.1990  205.2170  152.2010 C   0  0  0  0  0  0  0  0  0  0  0  0
  161.9840  209.3170  149.2760 C   0  0  0  0  0  0  0  0  0  0  0  0
  160.7440  210.3410  151.2930 C   0  0  0  0  0  3  0  0  0  0  0  0
  161.5700  206.7120  150.3230 C   0  0  0  0  0  0  0  0  0  0  0  0
  160.9960  206.4020  153.0650 C   0  0  0  0  0  3  0  0  0  0  0  0
  161.1540  203.9170  152.7670 N   0  0  0  0  0  1  0  0  0  0  0  0
  160.8400  207.8300  151.0520 C   0  0  0  0  0  0  0  0  0  0  0  0
  161.5120  205.3640  150.9100 C   0  0  0  0  0  2  0  0  0  0  0  0
  160.8800  207.6290  152.5440 C   0  0  0  0  0  3  0  0  0  0  0  0
  160.9570  211.7420  150.8700 N   0  0  0  0  0  0  0  0  0  0  0  0
  161.2240  209.2190  150.5980 C   0  0  0  0  0  0  0  0  0  0  0  0
  162.4320  208.2600  148.6120 C   0  0  0  0  0  3  0  0  0  0  0  0
  162.1500  210.6860  148.9010 C   0  0  0  0  0  0  0  0  0  0  0  0
  161.6650  211.7590  149.6660 C   0  0  0  0  0  0  0  0  0  0  0  0
  162.2410  206.9120  149.1810 C   0  0  0  0  0  3  0  0  0  0  0  0
  159.0970  212.5880  146.5620 C   0  0  0  0  0  3  0  0  0  0  0  0
  159.5670  213.1930  145.3920 C   0  0  0  0  0  0  0  0  0  0  0  0
  161.8430  212.9980  146.2090 C   0  0  0  0  0  3  0  0  0  0  0  0
  159.9990  212.1880  147.5560 C   0  0  0  0  0  3  0  0  0  0  0  0
  161.3800  212.3770  147.3800 C   0  0  0  0  0  0  0  0  0  0  0  0
  160.9430  213.4030  145.2190 C   0  0  0  0  0  3  0  0  0  0  0  0
  159.0800  213.2050  142.9700 C   0  0  0  0  0  1  0  0  0  0  0  0
  158.6040  213.6450  144.3480 C   0  0  0  0  0  2  0  0  0  0  0  0
  160.4570  212.9310  151.5470 C   0  0  1  0  0  3  0  0  0  0  0  0
  159.7450  213.8590  150.5730 C   0  0  0  0  0  1  0  0  0  0  0  0
  160.4560  212.1770  153.8150 F   0  0  0  0  0  0  0  0  0  0  0  0
  159.6200  212.5960  152.7930 C   0  0  2  0  0  0  0  0  0  0  0  0
  158.6920  211.4400  152.4520 C   0  0  0  0  0  1  0  0  0  0  0  0
  158.7580  213.7660  153.2770 C   0  0  0  0  0  2  0  0  0  0  0  0
  158.7040  213.8860  154.7980 C   0  0  0  0  0  2  0  0  0  0  0  0
  157.4080  213.3100  155.3860 C   0  0  2  0  0  3  0  0  0  0  0  0
  156.8140  214.1520  156.5220 C   0  0  0  0  0  2  0  0  0  0  0  0
  155.4700  214.4280  156.2570 O   0  0  0  0  0  1  0  0  0  0  0  0
  157.4740  211.8560  155.6500 N   0  0  0  0  0  0  0  0  0  0  0  0
  156.1450  211.2600  155.5860 C   0  0  0  0  0  1  0  0  0  0  0  0
  158.1980  211.4450  156.8740 C   0  0  0  0  0  2  0  0  0  0  0  0
  159.5720  210.8760  156.6490 C   0  0  0  0  0  0  0  0  0  0  0  0
  161.9800  210.9850  156.9270 C   0  0  0  0  0  3  0  0  0  0  0  0
  160.9850  209.0880  155.8010 C   0  0  0  0  0  3  0  0  0  0  0  0
  162.1190  209.7610  156.2620 C   0  0  0  0  0  3  0  0  0  0  0  0
  159.7150  209.6430  155.9990 C   0  0  0  0  0  3  0  0  0  0  0  0
  160.7090  211.5390  157.1240 C   0  0  0  0  0  3  0  0  0  0  0  0
  1 21  1  6  0  0  0
  1 14  1  0  0  0  0
  1 15  1  0  0  0  0
  2  7  1  0  0  0  0
  2  6  2  0  0  0  0
  3 12  1  0  0  0  0
  5  9  1  0  0  0  0
  5  8  1  0  0  0  0
  8 10  2  0  0  0  0
  9  2  1  0  0  0  0
 10  6  1  0  0  0  0
 11  4  1  0  0  0  0
 11 25  1  0  0  0  0
 12  8  1  0  0  0  0
 12  4  2  0  0  0  0
 13 16  1  0  0  0  0
 13  3  2  0  0  0  0
 14  3  1  0  0  0  0
 14 15  2  0  0  0  0
 15 11  1  0  0  0  0
 16  5  2  0  0  0  0
 17 20  1  0  0  0  0
 18 17  2  0  0  0  0
 19 21  1  0  0  0  0
 21 20  2  0  0  0  0
 22 18  1  0  0  0  0
 22 19  2  0  0  0  0
 23 24  1  0  0  0  0
 24 18  1  0  0  0  0
 25 26  1  6  0  0  0
 25 28  1  0  0  0  0
 28 29  1  6  0  0  0
 28 30  1  0  0  0  0
 28 27  1  0  0  0  0
 30 31  1  0  0  0  0
 32 31  1  1  0  0  0
 32 35  1  0  0  0  0
 32 33  1  0  0  0  0
 34 33  1  0  0  0  0
 35 37  1  0  0  0  0
 36 35  1  0  0  0  0
 38 37  1  0  0  0  0
 38 43  1  0  0  0  0
 39 43  2  0  0  0  0
 40 42  1  0  0  0  0
 40 41  2  0  0  0  0
 41 39  1  0  0  0  0
 42 38  2  0  0  0  0
M  END
>  <MODEL>
6

>  <REMARK>
 VINA RESULT:      -6.1      1.984      3.882
  Name = 
  11 active torsions:
  status: ('A' for Active; 'I' for Inactive)
    1  A    between atoms: C_1  and  C_35
    2  A    between atoms: C_2  and  C_12
    3  A    between atoms: C_2  and  N_27
    4  A    between atoms: C_4  and  C_6
    5  A    between atoms: C_4  and  C_15
    6  A    between atoms: C_6  and  C_12
    7  A    between atoms: C_10  and  C_15
    8  A    between atoms: C_11  and  C_14
    9  A    between atoms: C_14  and  N_22
   10  A    between atoms: C_15  and  N_22
   11  A    between atoms: C_19  and  C_37
                            x       y       z     vdW  Elec       q    Type
                         _______ _______ _______ _____ _____    ______ ____

>  <TORSDO>
F 11

$$$$
=
 OpenBabel11062410303D

 43 48  0  0  1  0  0  0  0  0999 V2000
  162.6850  205.4960  152.1070 C   0  0  2  0  0  3  0  0  0  0  0  0
  159.1550  211.7240  155.2770 C   0  0  0  0  0  0  0  0  0  0  0  0
  161.1710  207.3440  153.6230 C   0  0  0  0  0  0  0  0  0  0  0  0
  161.3180  208.8200  151.5120 C   0  0  0  0  0  3  0  0  0  0  0  0
  159.7270  209.3840  154.9680 C   0  0  0  0  0  0  0  0  0  0  0  0
  159.8830  212.0350  154.0270 C   0  0  0  0  0  3  0  0  0  0  0  0
  158.5750  212.7740  156.0340 N   0  0  0  0  0  1  0  0  0  0  0  0
  159.9630  209.6240  153.4850 C   0  0  1  0  0  3  0  0  0  0  0  0
  159.1160  210.4730  155.7470 C   0  0  0  0  0  3  0  0  0  0  0  0
  160.3090  211.0630  153.2110 C   0  0  0  0  0  3  0  0  0  0  0  0
  162.1260  207.8520  150.7400 N   0  0  0  0  0  0  0  0  0  0  0  0
  160.8910  208.6240  152.8360 C   0  0  0  0  0  0  0  0  0  0  0  0
  160.7630  207.1520  154.8700 C   0  0  0  0  0  3  0  0  0  0  0  0
  161.9380  206.4340  152.8320 C   0  0  0  0  0  0  0  0  0  0  0  0
  162.3530  206.7140  151.5210 C   0  0  0  0  0  0  0  0  0  0  0  0
  160.0420  208.2300  155.5720 C   0  0  0  0  0  3  0  0  0  0  0  0
  160.8320  203.2040  149.6920 C   0  0  0  0  0  3  0  0  0  0  0  0
  160.3020  202.2480  150.5660 C   0  0  0  0  0  0  0  0  0  0  0  0
  161.2930  203.4200  152.4450 C   0  0  0  0  0  3  0  0  0  0  0  0
  161.5920  204.2670  150.1940 C   0  0  0  0  0  3  0  0  0  0  0  0
  161.8150  204.3920  151.5760 C   0  0  0  0  0  0  0  0  0  0  0  0
  160.5390  202.3540  151.9440 C   0  0  0  0  0  3  0  0  0  0  0  0
  158.6630  201.5540  148.8530 C   0  0  0  0  0  1  0  0  0  0  0  0
  159.5190  201.1000  150.0270 C   0  0  0  0  0  2  0  0  0  0  0  0
  162.5680  208.0040  149.3610 C   0  0  1  0  0  3  0  0  0  0  0  0
  163.8180  207.1800  149.0910 C   0  0  0  0  0  1  0  0  0  0  0  0
  160.8690  208.9600  147.9790 F   0  0  0  0  0  0  0  0  0  0  0  0
  161.4410  207.7530  148.3470 C   0  0  2  0  0  0  0  0  0  0  0  0
  160.3620  206.9190  149.0220 C   0  0  0  0  0  1  0  0  0  0  0  0
  161.9050  206.9980  147.0970 C   0  0  0  0  0  2  0  0  0  0  0  0
  160.9570  205.8730  146.6860 C   0  0  0  0  0  2  0  0  0  0  0  0
  161.7060  204.6080  146.2430 C   0  0  2  0  0  3  0  0  0  0  0  0
  163.2320  204.7220  146.3420 C   0  0  0  0  0  2  0  0  0  0  0  0
  163.8310  203.9540  145.3420 O   0  0  0  0  0  1  0  0  0  0  0  0
  161.1990  204.0350  144.9770 N   0  0  0  0  0  0  0  0  0  0  0  0
  160.9100  205.0910  144.0130 C   0  0  0  0  0  1  0  0  0  0  0  0
  160.0740  203.0800  145.0950 C   0  0  0  0  0  2  0  0  0  0  0  0
  160.4480  201.6950  145.5440 C   0  0  0  0  0  0  0  0  0  0  0  0
  160.4690  199.2930  145.2060 C   0  0  0  0  0  3  0  0  0  0  0  0
  161.5810  200.2440  147.1340 C   0  0  0  0  0  3  0  0  0  0  0  0
  161.2100  199.1270  146.3820 C   0  0  0  0  0  3  0  0  0  0  0  0
  161.2040  201.5250  146.7120 C   0  0  0  0  0  3  0  0  0  0  0  0
  160.0930  200.5740  144.7860 C   0  0  0  0  0  3  0  0  0  0  0  0
  1 21  1  6  0  0  0
  1 14  1  0  0  0  0
  2  9  2  0  0  0  0
  2  7  1  0  0  0  0
  3 13  2  0  0  0  0
  4 12  2  0  0  0  0
  5 16  2  0  0  0  0
  5  9  1  0  0  0  0
  6  2  1  0  0  0  0
  8 10  1  1  0  0  0
  8  5  1  0  0  0  0
 10  6  2  0  0  0  0
 11  4  1  0  0  0  0
 11 15  1  0  0  0  0
 12  8  1  0  0  0  0
 12  3  1  0  0  0  0
 13 16  1  0  0  0  0
 14  3  1  0  0  0  0
 15  1  1  0  0  0  0
 15 14  2  0  0  0  0
 17 20  2  0  0  0  0
 17 18  1  0  0  0  0
 18 22  2  0  0  0  0
 20 21  1  0  0  0  0
 21 19  2  0  0  0  0
 22 19  1  0  0  0  0
 23 24  1  0  0  0  0
 24 18  1  0  0  0  0
 25 26  1  6  0  0  0
 25 11  1  0  0  0  0
 27 28  1  0  0  0  0
 28 29  1  1  0  0  0
 28 25  1  0  0  0  0
 30 28  1  0  0  0  0
 31 30  1  0  0  0  0
 32 33  1  6  0  0  0
 32 31  1  0  0  0  0
 34 33  1  0  0  0  0
 35 37  1  0  0  0  0
 35 32  1  0  0  0  0
 36 35  1  0  0  0  0
 37 38  1  0  0  0  0
 38 42  1  0  0  0  0
 39 41  2  0  0  0  0
 41 40  1  0  0  0  0
 42 40  2  0  0  0  0
 43 39  1  0  0  0  0
 43 38  2  0  0  0  0
M  END
>  <MODEL>
7

>  <REMARK>
 VINA RESULT:      -6.1      4.344     10.385
  Name = 
  11 active torsions:
  status: ('A' for Active; 'I' for Inactive)
    1  A    between atoms: C_1  and  C_35
    2  A    between atoms: C_2  and  C_12
    3  A    between atoms: C_2  and  N_27
    4  A    between atoms: C_4  and  C_6
    5  A    between atoms: C_4  and  C_15
    6  A    between atoms: C_6  and  C_12
    7  A    between atoms: C_10  and  C_15
    8  A    between atoms: C_11  and  C_14
    9  A    between atoms: C_14  and  N_22
   10  A    between atoms: C_15  and  N_22
   11  A    between atoms: C_19  and  C_37
                            x       y       z     vdW  Elec       q    Type
                         _______ _______ _______ _____ _____    ______ ____

>  <TORSDO>
F 11

$$$$
=
 OpenBabel11062410303D

 43 48  0  0  1  0  0  0  0  0999 V2000
  162.5480  210.7290  149.0860 C   0  0  2  0  0  3  0  0  0  0  0  0
  160.8260  203.1210  149.7550 C   0  0  0  0  0  0  0  0  0  0  0  0
  161.8810  208.0020  148.7330 C   0  0  0  0  0  0  0  0  0  0  0  0
  161.0550  208.1430  151.1730 C   0  0  0  0  0  3  0  0  0  0  0  0
  161.1990  205.2480  148.6450 C   0  0  0  0  0  0  0  0  0  0  0  0
  160.9090  203.8210  151.0580 C   0  0  0  0  0  3  0  0  0  0  0  0
  160.6490  201.7140  149.7230 N   0  0  0  0  0  1  0  0  0  0  0  0
  160.7390  205.9930  149.8880 C   0  0  0  0  0  0  0  0  0  0  0  0
  161.0050  203.7900  148.6120 C   0  0  0  0  0  2  0  0  0  0  0  0
  160.9210  205.1570  151.1270 C   0  0  0  0  0  3  0  0  0  0  0  0
  161.4280  209.5640  151.3470 N   0  0  0  0  0  0  0  0  0  0  0  0
  161.2740  207.4020  150.0010 C   0  0  0  0  0  0  0  0  0  0  0  0
  162.0820  207.3070  147.6210 C   0  0  0  0  0  3  0  0  0  0  0  0
  162.2090  209.3770  148.9440 C   0  0  0  0  0  0  0  0  0  0  0  0
  161.9850  210.0440  150.1590 C   0  0  0  0  0  0  0  0  0  0  0  0
  161.7550  205.8680  147.5960 C   0  0  0  0  0  3  0  0  0  0  0  0
  160.0120  213.5190  148.5370 C   0  0  0  0  0  3  0  0  0  0  0  0
  159.7380  213.3840  147.1720 C   0  0  0  0  0  0  0  0  0  0  0  0
  161.2660  211.5020  147.0560 C   0  0  0  0  0  3  0  0  0  0  0  0
  160.9120  212.6470  149.1620 C   0  0  0  0  0  3  0  0  0  0  0  0
  161.5340  211.6220  148.4290 C   0  0  0  0  0  0  0  0  0  0  0  0
  160.3720  212.3760  146.4300 C   0  0  0  0  0  3  0  0  0  0  0  0
  157.5200  213.6120  146.1090 C   0  0  0  0  0  1  0  0  0  0  0  0
  158.8030  214.3310  146.5020 C   0  0  0  0  0  2  0  0  0  0  0  0
  161.1980  210.3760  152.5340 C   0  0  1  0  0  3  0  0  0  0  0  0
  159.7150  210.6500  152.7320 C   0  0  0  0  0  1  0  0  0  0  0  0
  163.2280  210.1410  153.7730 F   0  0  0  0  0  0  0  0  0  0  0  0
  161.8850  209.8030  153.7850 C   0  0  2  0  0  0  0  0  0  0  0  0
  161.7910  208.2850  153.7340 C   0  0  0  0  0  1  0  0  0  0  0  0
  161.2450  210.2700  155.0960 C   0  0  0  0  0  2  0  0  0  0  0  0
  160.7980  211.7300  155.0610 C   0  0  0  0  0  2  0  0  0  0  0  0
  159.7310  212.0420  156.1210 C   0  0  2  0  0  3  0  0  0  0  0  0
  158.7380  210.8980  156.3580 C   0  0  0  0  0  2  0  0  0  0  0  0
  159.2800  209.9780  157.2590 O   0  0  0  0  0  1  0  0  0  0  0  0
  159.1220  213.3820  155.9680 N   0  0  0  0  0  0  0  0  0  0  0  0
  160.0050  214.4130  156.4990 C   0  0  0  0  0  1  0  0  0  0  0  0
  157.7390  213.5330  156.4740 C   0  0  0  0  0  2  0  0  0  0  0  0
  156.7050  213.8720  155.4350 C   0  0  0  0  0  0  0  0  0  0  0  0
  156.0620  214.2060  153.1200 C   0  0  0  0  0  3  0  0  0  0  0  0
  154.4000  214.3980  154.8680 C   0  0  0  0  0  3  0  0  0  0  0  0
  154.7420  214.4530  153.5160 C   0  0  0  0  0  3  0  0  0  0  0  0
  155.3790  214.1030  155.8250 C   0  0  0  0  0  3  0  0  0  0  0  0
  157.0410  213.9120  154.0780 C   0  0  0  0  0  3  0  0  0  0  0  0
  1 21  1  6  0  0  0
  1 15  1  0  0  0  0
  2  6  2  0  0  0  0
  3 14  1  0  0  0  0
  3 12  1  0  0  0  0
  4 11  1  0  0  0  0
  5  8  1  0  0  0  0
  6 10  1  0  0  0  0
  7  2  1  0  0  0  0
  8 12  1  0  0  0  0
  8 10  2  0  0  0  0
  9  5  1  0  0  0  0
  9  2  1  0  0  0  0
 11 25  1  0  0  0  0
 12  4  2  0  0  0  0
 13  3  2  0  0  0  0
 14  1  1  0  0  0  0
 14 15  2  0  0  0  0
 15 11  1  0  0  0  0
 16 13  1  0  0  0  0
 16  5  2  0  0  0  0
 17 20  1  0  0  0  0
 18 17  2  0  0  0  0
 19 21  1  0  0  0  0
 21 20  2  0  0  0  0
 22 19  2  0  0  0  0
 22 18  1  0  0  0  0
 23 24  1  0  0  0  0
 24 18  1  0  0  0  0
 25 26  1  1  0  0  0
 25 28  1  0  0  0  0
 27 28  1  0  0  0  0
 28 29  1  6  0  0  0
 28 30  1  0  0  0  0
 31 30  1  0  0  0  0
 32 31  1  6  0  0  0
 32 33  1  0  0  0  0
 33 34  1  0  0  0  0
 35 32  1  0  0  0  0
 35 37  1  0  0  0  0
 35 36  1  0  0  0  0
 38 42  1  0  0  0  0
 38 37  1  0  0  0  0
 39 41  2  0  0  0  0
 39 43  1  0  0  0  0
 40 42  2  0  0  0  0
 41 40  1  0  0  0  0
 43 38  2  0  0  0  0
M  END
>  <MODEL>
8

>  <REMARK>
 VINA RESULT:      -6.1      1.473      2.010
  Name = 
  11 active torsions:
  status: ('A' for Active; 'I' for Inactive)
    1  A    between atoms: C_1  and  C_35
    2  A    between atoms: C_2  and  C_12
    3  A    between atoms: C_2  and  N_27
    4  A    between atoms: C_4  and  C_6
    5  A    between atoms: C_4  and  C_15
    6  A    between atoms: C_6  and  C_12
    7  A    between atoms: C_10  and  C_15
    8  A    between atoms: C_11  and  C_14
    9  A    between atoms: C_14  and  N_22
   10  A    between atoms: C_15  and  N_22
   11  A    between atoms: C_19  and  C_37
                            x       y       z     vdW  Elec       q    Type
                         _______ _______ _______ _____ _____    ______ ____

>  <TORSDO>
F 11

$$$$
=
 OpenBabel11062410303D

 43 48  0  0  1  0  0  0  0  0999 V2000
  162.6800  205.7760  152.2490 C   0  0  2  0  0  3  0  0  0  0  0  0
  158.9040  211.6330  155.8180 C   0  0  0  0  0  0  0  0  0  0  0  0
  161.0360  207.4520  153.8280 C   0  0  0  0  0  0  0  0  0  0  0  0
  161.4160  209.1800  151.9510 C   0  0  0  0  0  3  0  0  0  0  0  0
  159.4810  209.3390  155.2710 C   0  0  0  0  0  0  0  0  0  0  0  0
  159.7610  212.0830  154.6980 C   0  0  0  0  0  3  0  0  0  0  0  0
  158.2590  212.5920  156.6410 N   0  0  0  0  0  1  0  0  0  0  0  0
  159.8720  209.7590  153.8620 C   0  0  1  0  0  3  0  0  0  0  0  0
  158.8040  210.3340  156.1170 C   0  0  0  0  0  3  0  0  0  0  0  0
  160.2590  211.2130  153.8120 C   0  0  0  0  0  3  0  0  0  0  0  0
  162.2890  208.2980  151.1470 N   0  0  0  0  0  0  0  0  0  0  0  0
  160.8520  208.8280  153.1880 C   0  0  0  0  0  0  0  0  0  0  0  0
  160.4990  207.1130  154.9930 C   0  0  0  0  0  3  0  0  0  0  0  0
  161.8710  206.6320  153.0090 C   0  0  0  0  0  0  0  0  0  0  0  0
  162.4230  207.0660  151.7930 C   0  0  0  0  0  0  0  0  0  0  0  0
  159.7200  208.1110  155.7510 C   0  0  0  0  0  3  0  0  0  0  0  0
  160.7950  204.0350  149.4320 C   0  0  0  0  0  3  0  0  0  0  0  0
  160.4390  202.8270  150.0390 C   0  0  0  0  0  0  0  0  0  0  0  0
  161.5110  203.5460  152.0930 C   0  0  0  0  0  3  0  0  0  0  0  0
  161.5080  205.0000  150.1540 C   0  0  0  0  0  3  0  0  0  0  0  0
  161.8580  204.7680  151.4950 C   0  0  0  0  0  0  0  0  0  0  0  0
  160.8040  202.5800  151.3700 C   0  0  0  0  0  3  0  0  0  0  0  0
  160.5690  201.2920  148.1080 C   0  0  0  0  0  1  0  0  0  0  0  0
  159.7060  201.7890  149.2600 C   0  0  0  0  0  2  0  0  0  0  0  0
  162.8740  208.6140  149.8500 C   0  0  1  0  0  3  0  0  0  0  0  0
  163.4430  207.3680  149.1870 C   0  0  0  0  0  1  0  0  0  0  0  0
  160.8170  209.8190  149.6810 F   0  0  0  0  0  0  0  0  0  0  0  0
  161.9140  209.4030  148.9450 C   0  0  2  0  0  0  0  0  0  0  0  0
  161.4100  208.4740  147.8510 C   0  0  0  0  0  1  0  0  0  0  0  0
  162.5720  210.6100  148.2700 C   0  0  0  0  0  2  0  0  0  0  0  0
  162.0150  211.9480  148.7530 C   0  0  0  0  0  2  0  0  0  0  0  0
  161.4660  212.8040  147.6030 C   0  0  2  0  0  3  0  0  0  0  0  0
  162.5240  213.6800  146.9200 C   0  0  0  0  0  2  0  0  0  0  0  0
  161.9650  214.3250  145.8140 O   0  0  0  0  0  1  0  0  0  0  0  0
  160.1980  213.4920  147.9320 N   0  0  0  0  0  0  0  0  0  0  0  0
  160.0580  213.6500  149.3750 C   0  0  0  0  0  1  0  0  0  0  0  0
  158.9710  212.9300  147.3230 C   0  0  0  0  0  2  0  0  0  0  0  0
  158.9030  213.0100  145.8220 C   0  0  0  0  0  0  0  0  0  0  0  0
  158.2000  214.1370  143.7930 C   0  0  0  0  0  3  0  0  0  0  0  0
  159.5200  212.1140  143.6470 C   0  0  0  0  0  3  0  0  0  0  0  0
  158.8390  213.1600  143.0200 C   0  0  0  0  0  3  0  0  0  0  0  0
  159.5550  212.0430  145.0450 C   0  0  0  0  0  3  0  0  0  0  0  0
  158.2360  214.0650  145.1910 C   0  0  0  0  0  3  0  0  0  0  0  0
  1 21  1  6  0  0  0
  1 14  1  0  0  0  0
  2  9  2  0  0  0  0
  2  7  1  0  0  0  0
  3 13  2  0  0  0  0
  4 12  2  0  0  0  0
  5 16  2  0  0  0  0
  5  9  1  0  0  0  0
  6  2  1  0  0  0  0
  8 10  1  1  0  0  0
  8  5  1  0  0  0  0
 10  6  2  0  0  0  0
 11 15  1  0  0  0  0
 11  4  1  0  0  0  0
 12  3  1  0  0  0  0
 12  8  1  0  0  0  0
 13 16  1  0  0  0  0
 14  3  1  0  0  0  0
 15  1  1  0  0  0  0
 15 14  2  0  0  0  0
 17 18  2  0  0  0  0
 17 20  1  0  0  0  0
 18 22  1  0  0  0  0
 20 21  2  0  0  0  0
 21 19  1  0  0  0  0
 22 19  2  0  0  0  0
 23 24  1  0  0  0  0
 24 18  1  0  0  0  0
 25 26  1  6  0  0  0
 25 11  1  0  0  0  0
 28 29  1  6  0  0  0
 28 27  1  0  0  0  0
 28 25  1  0  0  0  0
 30 31  1  0  0  0  0
 30 28  1  0  0  0  0
 32 33  1  1  0  0  0
 32 35  1  0  0  0  0
 32 31  1  0  0  0  0
 34 33  1  0  0  0  0
 35 36  1  0  0  0  0
 37 35  1  0  0  0  0
 38 37  1  0  0  0  0
 39 43  2  0  0  0  0
 40 42  1  0  0  0  0
 41 40  2  0  0  0  0
 41 39  1  0  0  0  0
 42 38  2  0  0  0  0
 43 38  1  0  0  0  0
M  END
>  <MODEL>
9

>  <REMARK>
 VINA RESULT:      -5.6      3.092      7.881
  Name = 
  11 active torsions:
  status: ('A' for Active; 'I' for Inactive)
    1  A    between atoms: C_1  and  C_35
    2  A    between atoms: C_2  and  C_12
    3  A    between atoms: C_2  and  N_27
    4  A    between atoms: C_4  and  C_6
    5  A    between atoms: C_4  and  C_15
    6  A    between atoms: C_6  and  C_12
    7  A    between atoms: C_10  and  C_15
    8  A    between atoms: C_11  and  C_14
    9  A    between atoms: C_14  and  N_22
   10  A    between atoms: C_15  and  N_22
   11  A    between atoms: C_19  and  C_37
                            x       y       z     vdW  Elec       q    Type
                         _______ _______ _______ _____ _____    ______ ____

>  <TORSDO>
F 11

$$$$
