=
 OpenBabel11062409303D

 34 37  0  0  1  0  0  0  0  0999 V2000
  161.2830  210.8900  153.0040 C   0  0  2  0  0  3  0  0  0  0  0  0
  157.7690  211.6610  152.5380 C   0  0  0  0  0  2  0  0  0  0  0  0
  158.8860  211.1010  154.6630 C   0  0  0  0  0  2  0  0  0  0  0  0
  162.5940  210.3710  155.0780 C   0  0  0  0  0  3  0  0  0  0  0  0
  161.5440  210.3480  157.2610 C   0  0  0  0  0  3  0  0  0  0  0  0
  162.6830  210.2040  156.4630 C   0  0  0  0  0  3  0  0  0  0  0  0
  160.2230  210.8440  155.2910 C   0  0  0  0  0  0  0  0  0  0  0  0
  161.3670  210.6890  154.4880 C   0  0  0  0  0  0  0  0  0  0  0  0
  160.3130  210.6610  156.6750 C   0  0  0  0  0  3  0  0  0  0  0  0
  157.4700  212.6000  151.3930 C   0  0  0  0  0  3  0  0  0  0  0  0
  158.2670  213.5370  150.8340 C   0  0  0  0  0  0  0  0  0  0  0  0
  159.6020  213.9480  151.3890 C   0  0  0  0  0  2  0  0  0  0  0  0
  158.9440  212.0280  153.4390 C   0  0  1  0  0  3  0  0  0  0  0  0
  160.5170  212.8010  151.6920 C   0  0  0  0  0  3  0  0  0  0  0  0
  160.2390  211.9140  152.6520 C   0  0  0  0  0  0  0  0  0  0  0  0
  157.7630  214.3350  149.6650 C   0  0  0  0  0  3  0  0  0  0  0  0
  158.7070  214.2330  148.4810 C   0  0  0  0  0  1  0  0  0  0  0  0
  156.3630  213.9060  149.2580 C   0  0  0  0  0  1  0  0  0  0  0  0
  161.1110  209.5790  152.2370 C   0  0  0  0  0  2  0  0  0  0  0  0
  162.3360  209.2080  151.5300 N   0  0  0  0  0  0  0  0  0  0  0  0
  161.9360  208.9390  150.1410 C   0  0  0  0  0  2  0  0  0  0  0  0
  162.3310  207.8180  150.9910 C   0  0  2  0  0  3  0  0  0  0  0  0
  161.1160  206.9640  151.3900 C   0  0  2  0  0  3  0  0  0  0  0  0
  161.5810  205.8110  152.2590 C   0  0  0  0  0  1  0  0  0  0  0  0
  161.1040  205.9860  149.1560 C   0  0  0  0  0  0  0  0  0  0  0  0
  160.4260  206.4100  150.1870 C   0  0  0  0  0  3  0  0  0  0  0  0
  161.7880  205.5600  148.1280 C   0  0  0  0  0  3  0  0  0  0  0  0
  161.5980  204.2230  147.5490 C   0  0  0  0  0  0  0  0  0  0  0  0
  161.0920  203.2820  148.3580 C   0  0  0  0  0  3  0  0  0  0  0  0
  161.9900  203.9660  146.1110 C   0  0  0  0  0  3  0  0  0  0  0  0
  160.8860  204.3350  145.1340 C   0  0  0  0  0  1  0  0  0  0  0  0
  163.2990  204.6390  145.7390 C   0  0  0  0  0  1  0  0  0  0  0  0
  161.1850  200.9260  149.0840 C   0  0  0  0  0  1  0  0  0  0  0  0
  160.8150  201.8690  147.9570 C   0  0  0  0  0  2  0  0  0  0  0  0
  1 19  1  6  0  0  0
  1  8  1  0  0  0  0
  3  7  1  0  0  0  0
  4  6  1  0  0  0  0
  6  5  2  0  0  0  0
  7  9  2  0  0  0  0
  8  4  2  0  0  0  0
  8  7  1  0  0  0  0
  9  5  1  0  0  0  0
 10  2  1  0  0  0  0
 11 12  1  0  0  0  0
 11 10  2  0  0  0  0
 12 14  1  0  0  0  0
 13  2  1  6  0  0  0
 13  3  1  0  0  0  0
 14 15  2  0  0  0  0
 15  1  1  0  0  0  0
 15 13  1  0  0  0  0
 16 11  1  0  0  0  0
 17 16  1  0  0  0  0
 18 16  1  0  0  0  0
 20 19  1  0  0  0  0
 21 22  1  0  0  0  0
 21 20  1  0  0  0  0
 22 23  1  1  0  0  0
 22 20  1  0  0  0  0
 23 24  1  1  0  0  0
 25 26  2  0  0  0  0
 26 23  1  0  0  0  0
 27 25  2  0  0  0  0
 28 27  1  0  0  0  0
 28 29  2  0  0  0  0
 30 28  1  0  0  0  0
 31 30  1  0  0  0  0
 32 30  1  0  0  0  0
 34 29  1  0  0  0  0
 34 33  1  0  0  0  0
M  END
>  <MODEL>
1

>  <REMARK>
 VINA RESULT:      -7.4      0.000      0.000
  Name = 
  8 active torsions:
  status: ('A' for Active; 'I' for Inactive)
    1  A    between atoms: C_1  and  C_9
    2  A    between atoms: C_3  and  C_25
    3  A    between atoms: C_6  and  C_28
    4  A    between atoms: C_6  and  C_30
    5  A    between atoms: C_7  and  C_11
    6  A    between atoms: C_7  and  C_29
    7  A    between atoms: N_8  and  C_9
    8  A    between atoms: C_14  and  C_16
                            x       y       z     vdW  Elec       q    Type
                         _______ _______ _______ _____ _____    ______ ____

>  <TORSDO>
F 8

$$$$
=
 OpenBabel11062409303D

 34 37  0  0  1  0  0  0  0  0999 V2000
  160.6360  212.9530  149.2650 C   0  0  2  0  0  3  0  0  0  0  0  0
  159.1290  212.5100  145.9950 C   0  0  0  0  0  2  0  0  0  0  0  0
  157.9950  213.2620  148.0500 C   0  0  0  0  0  2  0  0  0  0  0  0
  159.6640  213.7670  151.4290 C   0  0  0  0  0  3  0  0  0  0  0  0
  157.3470  214.4530  151.5910 C   0  0  0  0  0  3  0  0  0  0  0  0
  158.5990  214.2650  152.1850 C   0  0  0  0  0  3  0  0  0  0  0  0
  158.2260  213.6630  149.4760 C   0  0  0  0  0  0  0  0  0  0  0  0
  159.4820  213.4640  150.0760 C   0  0  0  0  0  0  0  0  0  0  0  0
  157.1580  214.1460  150.2400 C   0  0  0  0  0  3  0  0  0  0  0  0
  160.0630  212.7280  144.8280 C   0  0  0  0  0  3  0  0  0  0  0  0
  161.1800  213.4860  144.7670 C   0  0  0  0  0  0  0  0  0  0  0  0
  161.6210  214.4270  145.8520 C   0  0  0  0  0  2  0  0  0  0  0  0
  159.1970  213.5260  147.1300 C   0  0  1  0  0  3  0  0  0  0  0  0
  161.6530  213.8110  147.2180 C   0  0  0  0  0  3  0  0  0  0  0  0
  160.5380  213.4080  147.8340 C   0  0  0  0  0  0  0  0  0  0  0  0
  161.9810  213.5200  143.4960 C   0  0  0  0  0  3  0  0  0  0  0  0
  163.4620  213.6910  143.7830 C   0  0  0  0  0  1  0  0  0  0  0  0
  161.7510  212.2750  142.6560 C   0  0  0  0  0  1  0  0  0  0  0  0
  160.8290  211.4420  149.3950 C   0  0  0  0  0  2  0  0  0  0  0  0
  162.2360  211.0690  149.2550 N   0  0  0  0  0  0  0  0  0  0  0  0
  162.2400  209.7110  148.6920 C   0  0  0  0  0  2  0  0  0  0  0  0
  162.6410  209.8980  150.0830 C   0  0  2  0  0  3  0  0  0  0  0  0
  161.5660  209.3750  151.0510 C   0  0  2  0  0  3  0  0  0  0  0  0
  161.6910  210.1020  152.3760 C   0  0  0  0  0  1  0  0  0  0  0  0
  161.0580  207.0360  150.5840 C   0  0  0  0  0  0  0  0  0  0  0  0
  161.7220  207.9100  151.2910 C   0  0  0  0  0  3  0  0  0  0  0  0
  160.3940  206.1660  149.8710 C   0  0  0  0  0  3  0  0  0  0  0  0
  161.0470  205.0510  149.1720 C   0  0  0  0  0  0  0  0  0  0  0  0
  161.2800  205.2150  147.8620 C   0  0  0  0  0  3  0  0  0  0  0  0
  161.4000  203.7920  149.9330 C   0  0  0  0  0  3  0  0  0  0  0  0
  161.5100  204.0320  151.4290 C   0  0  0  0  0  1  0  0  0  0  0  0
  160.4500  202.6480  149.6290 C   0  0  0  0  0  1  0  0  0  0  0  0
  163.0790  204.8490  146.2140 C   0  0  0  0  0  1  0  0  0  0  0  0
  161.9410  204.2060  146.9790 C   0  0  0  0  0  2  0  0  0  0  0  0
  1 19  1  6  0  0  0
  1  8  1  0  0  0  0
  3  7  1  0  0  0  0
  4  6  1  0  0  0  0
  5  6  2  0  0  0  0
  7  8  1  0  0  0  0
  7  9  2  0  0  0  0
  8  4  2  0  0  0  0
  9  5  1  0  0  0  0
 10  2  1  0  0  0  0
 11 10  2  0  0  0  0
 11 12  1  0  0  0  0
 12 14  1  0  0  0  0
 13  2  1  6  0  0  0
 13 15  1  0  0  0  0
 13  3  1  0  0  0  0
 14 15  2  0  0  0  0
 15  1  1  0  0  0  0
 16 17  1  0  0  0  0
 16 11  1  0  0  0  0
 18 16  1  0  0  0  0
 20 19  1  0  0  0  0
 20 22  1  0  0  0  0
 21 20  1  0  0  0  0
 21 22  1  0  0  0  0
 22 23  1  1  0  0  0
 23 26  1  0  0  0  0
 23 24  1  1  0  0  0
 25 26  2  0  0  0  0
 27 25  2  0  0  0  0
 28 27  1  0  0  0  0
 28 30  1  0  0  0  0
 29 28  2  0  0  0  0
 30 31  1  0  0  0  0
 32 30  1  0  0  0  0
 33 34  1  0  0  0  0
 34 29  1  0  0  0  0
M  END
>  <MODEL>
2

>  <REMARK>
 VINA RESULT:      -6.6      2.753      5.404
  Name = 
  8 active torsions:
  status: ('A' for Active; 'I' for Inactive)
    1  A    between atoms: C_1  and  C_9
    2  A    between atoms: C_3  and  C_25
    3  A    between atoms: C_6  and  C_28
    4  A    between atoms: C_6  and  C_30
    5  A    between atoms: C_7  and  C_11
    6  A    between atoms: C_7  and  C_29
    7  A    between atoms: N_8  and  C_9
    8  A    between atoms: C_14  and  C_16
                            x       y       z     vdW  Elec       q    Type
                         _______ _______ _______ _____ _____    ______ ____

>  <TORSDO>
F 8

$$$$
=
 OpenBabel11062409303D

 34 37  0  0  1  0  0  0  0  0999 V2000
  161.1140  210.8000  152.9930 C   0  0  2  0  0  3  0  0  0  0  0  0
  157.6820  211.8050  152.3820 C   0  0  0  0  0  2  0  0  0  0  0  0
  158.6740  211.1910  154.5540 C   0  0  0  0  0  2  0  0  0  0  0  0
  162.3040  210.2150  155.1220 C   0  0  0  0  0  3  0  0  0  0  0  0
  161.1700  210.2860  157.2610 C   0  0  0  0  0  3  0  0  0  0  0  0
  162.3270  210.0560  156.5100 C   0  0  0  0  0  3  0  0  0  0  0  0
  159.9650  210.8510  155.2360 C   0  0  0  0  0  0  0  0  0  0  0  0
  161.1260  210.6090  154.4810 C   0  0  0  0  0  0  0  0  0  0  0  0
  159.9880  210.6750  156.6240 C   0  0  0  0  0  3  0  0  0  0  0  0
  157.4920  212.7500  151.2190 C   0  0  0  0  0  3  0  0  0  0  0  0
  158.3740  213.6250  150.6860 C   0  0  0  0  0  0  0  0  0  0  0  0
  159.7110  213.9500  151.2900 C   0  0  0  0  0  2  0  0  0  0  0  0
  158.8430  212.1000  153.3260 C   0  0  1  0  0  3  0  0  0  0  0  0
  160.5320  212.7460  151.6370 C   0  0  0  0  0  3  0  0  0  0  0  0
  160.1570  211.8900  152.5920 C   0  0  0  0  0  0  0  0  0  0  0  0
  157.9710  214.4430  149.4910 C   0  0  0  0  0  3  0  0  0  0  0  0
  158.7790  214.0600  148.2640 C   0  0  0  0  0  1  0  0  0  0  0  0
  156.4850  214.3160  149.2020 C   0  0  0  0  0  1  0  0  0  0  0  0
  160.8820  209.4970  152.2290 C   0  0  0  0  0  2  0  0  0  0  0  0
  162.0450  209.1390  151.4170 N   0  0  0  0  0  0  0  0  0  0  0  0
  161.5210  208.3630  150.2830 C   0  0  0  0  0  2  0  0  0  0  0  0
  162.2880  207.6720  151.3160 C   0  0  2  0  0  3  0  0  0  0  0  0
  161.3820  206.7940  152.1940 C   0  0  2  0  0  3  0  0  0  0  0  0
  161.8440  206.8820  153.6340 C   0  0  0  0  0  1  0  0  0  0  0  0
  160.9020  204.9840  150.6310 C   0  0  0  0  0  0  0  0  0  0  0  0
  161.4310  205.3650  151.7610 C   0  0  0  0  0  3  0  0  0  0  0  0
  160.3740  204.6090  149.4960 C   0  0  0  0  0  3  0  0  0  0  0  0
  161.1200  203.8410  148.4900 C   0  0  0  0  0  0  0  0  0  0  0  0
  161.7230  204.5440  147.5210 C   0  0  0  0  0  3  0  0  0  0  0  0
  161.1580  202.3310  148.5760 C   0  0  0  0  0  3  0  0  0  0  0  0
  160.4030  201.8000  149.7820 C   0  0  0  0  0  1  0  0  0  0  0  0
  160.6840  201.6680  147.2960 C   0  0  0  0  0  1  0  0  0  0  0  0
  162.8980  205.0210  145.4050 C   0  0  0  0  0  1  0  0  0  0  0  0
  162.5360  203.9520  146.4160 C   0  0  0  0  0  2  0  0  0  0  0  0
  1 19  1  6  0  0  0
  1  8  1  0  0  0  0
  3  7  1  0  0  0  0
  4  6  1  0  0  0  0
  6  5  2  0  0  0  0
  7  9  2  0  0  0  0
  8  4  2  0  0  0  0
  8  7  1  0  0  0  0
  9  5  1  0  0  0  0
 10  2  1  0  0  0  0
 11 10  2  0  0  0  0
 11 12  1  0  0  0  0
 12 14  1  0  0  0  0
 13  2  1  6  0  0  0
 13  3  1  0  0  0  0
 14 15  2  0  0  0  0
 15  1  1  0  0  0  0
 15 13  1  0  0  0  0
 16 11  1  0  0  0  0
 17 16  1  0  0  0  0
 18 16  1  0  0  0  0
 20 19  1  0  0  0  0
 21 22  1  0  0  0  0
 21 20  1  0  0  0  0
 22 20  1  0  0  0  0
 22 23  1  1  0  0  0
 23 24  1  1  0  0  0
 25 26  2  0  0  0  0
 26 23  1  0  0  0  0
 27 25  2  0  0  0  0
 28 30  1  0  0  0  0
 28 27  1  0  0  0  0
 29 28  2  0  0  0  0
 30 31  1  0  0  0  0
 32 30  1  0  0  0  0
 33 34  1  0  0  0  0
 34 29  1  0  0  0  0
M  END
>  <MODEL>
3

>  <REMARK>
 VINA RESULT:      -6.5      0.725      1.888
  Name = 
  8 active torsions:
  status: ('A' for Active; 'I' for Inactive)
    1  A    between atoms: C_1  and  C_9
    2  A    between atoms: C_3  and  C_25
    3  A    between atoms: C_6  and  C_28
    4  A    between atoms: C_6  and  C_30
    5  A    between atoms: C_7  and  C_11
    6  A    between atoms: C_7  and  C_29
    7  A    between atoms: N_8  and  C_9
    8  A    between atoms: C_14  and  C_16
                            x       y       z     vdW  Elec       q    Type
                         _______ _______ _______ _____ _____    ______ ____

>  <TORSDO>
F 8

$$$$
=
 OpenBabel11062409303D

 34 37  0  0  1  0  0  0  0  0999 V2000
  160.5800  212.1590  151.2710 C   0  0  2  0  0  3  0  0  0  0  0  0
  158.5260  212.6580  148.3230 C   0  0  0  0  0  2  0  0  0  0  0  0
  157.8100  212.8770  150.6710 C   0  0  0  0  0  2  0  0  0  0  0  0
  160.0470  212.4040  153.7100 C   0  0  0  0  0  3  0  0  0  0  0  0
  157.8520  213.1060  154.4560 C   0  0  0  0  0  3  0  0  0  0  0  0
  159.1640  212.7200  154.7470 C   0  0  0  0  0  3  0  0  0  0  0  0
  158.3040  212.8750  152.0870 C   0  0  0  0  0  0  0  0  0  0  0  0
  159.6210  212.4780  152.3800 C   0  0  0  0  0  0  0  0  0  0  0  0
  157.4200  213.1760  153.1280 C   0  0  0  0  0  3  0  0  0  0  0  0
  159.2720  213.1450  147.1020 C   0  0  0  0  0  3  0  0  0  0  0  0
  160.4220  213.8500  147.0370 C   0  0  0  0  0  0  0  0  0  0  0  0
  161.1120  214.4520  148.2300 C   0  0  0  0  0  2  0  0  0  0  0  0
  158.8630  213.3320  149.6490 C   0  0  1  0  0  3  0  0  0  0  0  0
  161.3160  213.4940  149.3640 C   0  0  0  0  0  3  0  0  0  0  0  0
  160.2870  212.9820  150.0460 C   0  0  0  0  0  0  0  0  0  0  0  0
  161.0050  214.1920  145.6950 C   0  0  0  0  0  3  0  0  0  0  0  0
  162.2790  213.4110  145.4330 C   0  0  0  0  0  1  0  0  0  0  0  0
  160.0050  213.9560  144.5750 C   0  0  0  0  0  1  0  0  0  0  0  0
  160.6670  210.6620  150.9740 C   0  0  0  0  0  2  0  0  0  0  0  0
  162.0460  210.2460  150.7230 N   0  0  0  0  0  0  0  0  0  0  0  0
  161.9660  209.1590  149.7360 C   0  0  0  0  0  2  0  0  0  0  0  0
  162.3370  208.8370  151.1110 C   0  0  2  0  0  3  0  0  0  0  0  0
  161.1970  208.1090  151.8430 C   0  0  2  0  0  3  0  0  0  0  0  0
  161.1820  208.5390  153.2970 C   0  0  0  0  0  1  0  0  0  0  0  0
  160.8140  205.9180  150.8420 C   0  0  0  0  0  0  0  0  0  0  0  0
  161.3760  206.6280  151.7820 C   0  0  0  0  0  3  0  0  0  0  0  0
  160.2530  205.2140  149.8950 C   0  0  0  0  0  3  0  0  0  0  0  0
  161.0090  204.2810  149.0480 C   0  0  0  0  0  0  0  0  0  0  0  0
  161.5190  204.7770  147.9120 C   0  0  0  0  0  3  0  0  0  0  0  0
  161.1560  202.8360  149.4710 C   0  0  0  0  0  3  0  0  0  0  0  0
  160.9250  202.6410  150.9600 C   0  0  0  0  0  1  0  0  0  0  0  0
  160.2830  201.9030  148.6530 C   0  0  0  0  0  1  0  0  0  0  0  0
  161.5100  203.7430  145.6720 C   0  0  0  0  0  1  0  0  0  0  0  0
  162.3240  203.9950  146.9250 C   0  0  0  0  0  2  0  0  0  0  0  0
  1 19  1  6  0  0  0
  1  8  1  0  0  0  0
  3  7  1  0  0  0  0
  4  6  1  0  0  0  0
  5  6  2  0  0  0  0
  7  8  1  0  0  0  0
  7  9  2  0  0  0  0
  8  4  2  0  0  0  0
  9  5  1  0  0  0  0
 10  2  1  0  0  0  0
 11 10  2  0  0  0  0
 11 12  1  0  0  0  0
 12 14  1  0  0  0  0
 13  2  1  6  0  0  0
 13 15  1  0  0  0  0
 13  3  1  0  0  0  0
 14 15  2  0  0  0  0
 15  1  1  0  0  0  0
 16 11  1  0  0  0  0
 17 16  1  0  0  0  0
 18 16  1  0  0  0  0
 20 19  1  0  0  0  0
 20 22  1  0  0  0  0
 21 20  1  0  0  0  0
 21 22  1  0  0  0  0
 22 23  1  1  0  0  0
 23 24  1  1  0  0  0
 25 26  2  0  0  0  0
 26 23  1  0  0  0  0
 27 25  2  0  0  0  0
 28 30  1  0  0  0  0
 28 27  1  0  0  0  0
 29 28  2  0  0  0  0
 30 31  1  0  0  0  0
 32 30  1  0  0  0  0
 33 34  1  0  0  0  0
 34 29  1  0  0  0  0
M  END
>  <MODEL>
4

>  <REMARK>
 VINA RESULT:      -6.0      1.866      3.712
  Name = 
  8 active torsions:
  status: ('A' for Active; 'I' for Inactive)
    1  A    between atoms: C_1  and  C_9
    2  A    between atoms: C_3  and  C_25
    3  A    between atoms: C_6  and  C_28
    4  A    between atoms: C_6  and  C_30
    5  A    between atoms: C_7  and  C_11
    6  A    between atoms: C_7  and  C_29
    7  A    between atoms: N_8  and  C_9
    8  A    between atoms: C_14  and  C_16
                            x       y       z     vdW  Elec       q    Type
                         _______ _______ _______ _____ _____    ______ ____

>  <TORSDO>
F 8

$$$$
=
 OpenBabel11062409303D

 34 37  0  0  1  0  0  0  0  0999 V2000
  160.7890  211.8300  151.6840 C   0  0  2  0  0  3  0  0  0  0  0  0
  158.4500  212.6730  149.0420 C   0  0  0  0  0  2  0  0  0  0  0  0
  157.9910  212.6440  151.4630 C   0  0  0  0  0  2  0  0  0  0  0  0
  160.5210  211.8140  154.1770 C   0  0  0  0  0  3  0  0  0  0  0  0
  158.4340  212.4590  155.2250 C   0  0  0  0  0  3  0  0  0  0  0  0
  159.7600  212.0270  155.3310 C   0  0  0  0  0  3  0  0  0  0  0  0
  158.6300  212.4820  152.8100 C   0  0  0  0  0  0  0  0  0  0  0  0
  159.9600  212.0380  152.9160 C   0  0  0  0  0  0  0  0  0  0  0  0
  157.8670  212.6790  153.9660 C   0  0  0  0  0  3  0  0  0  0  0  0
  159.0750  213.2800  147.8080 C   0  0  0  0  0  3  0  0  0  0  0  0
  160.2290  213.9740  147.6960 C   0  0  0  0  0  0  0  0  0  0  0  0
  161.0540  214.4330  148.8660 C   0  0  0  0  0  2  0  0  0  0  0  0
  158.9410  213.1940  150.3890 C   0  0  1  0  0  3  0  0  0  0  0  0
  161.3530  213.3550  149.8620 C   0  0  0  0  0  3  0  0  0  0  0  0
  160.3900  212.7850  150.5920 C   0  0  0  0  0  0  0  0  0  0  0  0
  160.6760  214.4520  146.3440 C   0  0  0  0  0  3  0  0  0  0  0  0
  162.1450  214.1490  146.1100 C   0  0  0  0  0  1  0  0  0  0  0  0
  159.8330  213.8510  145.2310 C   0  0  0  0  0  1  0  0  0  0  0  0
  160.8080  210.3740  151.2200 C   0  0  0  0  0  2  0  0  0  0  0  0
  162.1310  209.9850  150.7330 N   0  0  0  0  0  0  0  0  0  0  0  0
  161.9220  209.4500  149.3800 C   0  0  0  0  0  2  0  0  0  0  0  0
  162.2730  208.5270  150.4560 C   0  0  2  0  0  3  0  0  0  0  0  0
  161.0710  207.6600  150.8650 C   0  0  2  0  0  3  0  0  0  0  0  0
  161.5330  206.5910  151.8340 C   0  0  0  0  0  1  0  0  0  0  0  0
  161.1870  206.3860  148.7890 C   0  0  0  0  0  0  0  0  0  0  0  0
  160.4530  206.9980  149.6780 C   0  0  0  0  0  3  0  0  0  0  0  0
  161.9270  205.7710  147.9050 C   0  0  0  0  0  3  0  0  0  0  0  0
  161.6760  204.3850  147.4880 C   0  0  0  0  0  0  0  0  0  0  0  0
  161.2030  203.5510  148.4240 C   0  0  0  0  0  3  0  0  0  0  0  0
  161.9740  203.9640  146.0660 C   0  0  0  0  0  3  0  0  0  0  0  0
  160.8410  204.3030  145.1120 C   0  0  0  0  0  1  0  0  0  0  0  0
  163.2970  204.5140  145.5650 C   0  0  0  0  0  1  0  0  0  0  0  0
  160.8510  201.3670  149.5180 C   0  0  0  0  0  1  0  0  0  0  0  0
  160.8750  202.1100  148.1980 C   0  0  0  0  0  2  0  0  0  0  0  0
  1 19  1  6  0  0  0
  1  8  1  0  0  0  0
  3  7  1  0  0  0  0
  4  6  1  0  0  0  0
  5  6  2  0  0  0  0
  7  8  1  0  0  0  0
  7  9  2  0  0  0  0
  8  4  2  0  0  0  0
  9  5  1  0  0  0  0
 10  2  1  0  0  0  0
 11 10  2  0  0  0  0
 11 12  1  0  0  0  0
 12 14  1  0  0  0  0
 13  2  1  6  0  0  0
 13 15  1  0  0  0  0
 13  3  1  0  0  0  0
 14 15  2  0  0  0  0
 15  1  1  0  0  0  0
 16 11  1  0  0  0  0
 17 16  1  0  0  0  0
 18 16  1  0  0  0  0
 20 19  1  0  0  0  0
 21 22  1  0  0  0  0
 21 20  1  0  0  0  0
 22 20  1  0  0  0  0
 22 23  1  1  0  0  0
 23 24  1  1  0  0  0
 25 26  2  0  0  0  0
 26 23  1  0  0  0  0
 27 25  2  0  0  0  0
 28 27  1  0  0  0  0
 28 29  2  0  0  0  0
 30 28  1  0  0  0  0
 31 30  1  0  0  0  0
 32 30  1  0  0  0  0
 34 29  1  0  0  0  0
 34 33  1  0  0  0  0
M  END
>  <MODEL>
5

>  <REMARK>
 VINA RESULT:      -5.9      1.482      2.632
  Name = 
  8 active torsions:
  status: ('A' for Active; 'I' for Inactive)
    1  A    between atoms: C_1  and  C_9
    2  A    between atoms: C_3  and  C_25
    3  A    between atoms: C_6  and  C_28
    4  A    between atoms: C_6  and  C_30
    5  A    between atoms: C_7  and  C_11
    6  A    between atoms: C_7  and  C_29
    7  A    between atoms: N_8  and  C_9
    8  A    between atoms: C_14  and  C_16
                            x       y       z     vdW  Elec       q    Type
                         _______ _______ _______ _____ _____    ______ ____

>  <TORSDO>
F 8

$$$$
=
 OpenBabel11062409303D

 34 37  0  0  1  0  0  0  0  0999 V2000
  160.9100  207.9560  153.7310 C   0  0  2  0  0  3  0  0  0  0  0  0
  161.9300  210.5190  151.3750 C   0  0  0  0  0  2  0  0  0  0  0  0
  161.9770  208.0820  151.0130 C   0  0  0  0  0  2  0  0  0  0  0  0
  160.8230  205.4590  153.5120 C   0  0  0  0  0  3  0  0  0  0  0  0
  161.4630  204.3510  151.4550 C   0  0  0  0  0  3  0  0  0  0  0  0
  160.9930  204.2860  152.7710 C   0  0  0  0  0  3  0  0  0  0  0  0
  161.5790  206.7660  151.6120 C   0  0  0  0  0  0  0  0  0  0  0  0
  161.1170  206.7000  152.9380 C   0  0  0  0  0  0  0  0  0  0  0  0
  161.7620  205.5890  150.8780 C   0  0  0  0  0  3  0  0  0  0  0  0
  161.2020  211.8360  151.5120 C   0  0  0  0  0  3  0  0  0  0  0  0
  159.9690  212.0750  152.0110 C   0  0  0  0  0  0  0  0  0  0  0  0
  158.9860  211.0000  152.3820 C   0  0  0  0  0  2  0  0  0  0  0  0
  161.0810  209.2540  151.4420 C   0  0  1  0  0  3  0  0  0  0  0  0
  159.5540  209.9330  153.2670 C   0  0  0  0  0  3  0  0  0  0  0  0
  160.5100  209.1020  152.8410 C   0  0  0  0  0  0  0  0  0  0  0  0
  159.4630  213.4880  152.0840 C   0  0  0  0  0  3  0  0  0  0  0  0
  160.0550  214.3430  150.9800 C   0  0  0  0  0  1  0  0  0  0  0  0
  157.9450  213.5410  152.0320 C   0  0  0  0  0  1  0  0  0  0  0  0
  162.0990  208.2910  154.6310 C   0  0  0  0  0  2  0  0  0  0  0  0
  161.9340  207.7230  155.9690 N   0  0  0  0  0  0  0  0  0  0  0  0
  160.5620  208.0550  156.3810 C   0  0  0  0  0  2  0  0  0  0  0  0
  161.6780  208.7360  157.0320 C   0  0  2  0  0  3  0  0  0  0  0  0
  161.7800  210.2020  156.5810 C   0  0  2  0  0  3  0  0  0  0  0  0
  163.1400  210.7500  156.9650 C   0  0  0  0  0  1  0  0  0  0  0  0
  159.9810  211.8490  156.5240 C   0  0  0  0  0  0  0  0  0  0  0  0
  160.7260  211.0400  157.2270 C   0  0  0  0  0  3  0  0  0  0  0  0
  159.2350  212.6530  155.8140 C   0  0  0  0  0  3  0  0  0  0  0  0
  157.7670  212.6320  155.8740 C   0  0  0  0  0  0  0  0  0  0  0  0
  157.1740  211.4420  155.7100 C   0  0  0  0  0  3  0  0  0  0  0  0
  157.0080  213.9220  156.0910 C   0  0  0  0  0  3  0  0  0  0  0  0
  156.3280  214.4140  154.8240 C   0  0  0  0  0  1  0  0  0  0  0  0
  156.0230  213.8270  157.2410 C   0  0  0  0  0  1  0  0  0  0  0  0
  155.3360  210.0150  154.8880 C   0  0  0  0  0  1  0  0  0  0  0  0
  155.6980  211.2100  155.7470 C   0  0  0  0  0  2  0  0  0  0  0  0
  1 19  1  6  0  0  0
  2 13  1  0  0  0  0
  2 10  1  0  0  0  0
  3  7  1  0  0  0  0
  5  6  1  0  0  0  0
  6  4  2  0  0  0  0
  7  8  2  0  0  0  0
  8  4  1  0  0  0  0
  8  1  1  0  0  0  0
  9  5  2  0  0  0  0
  9  7  1  0  0  0  0
 10 11  2  0  0  0  0
 11 16  1  0  0  0  0
 11 12  1  0  0  0  0
 12 14  1  0  0  0  0
 13  3  1  1  0  0  0
 13 15  1  0  0  0  0
 15 14  2  0  0  0  0
 15  1  1  0  0  0  0
 17 16  1  0  0  0  0
 18 16  1  0  0  0  0
 19 20  1  0  0  0  0
 20 21  1  0  0  0  0
 20 22  1  0  0  0  0
 21 22  1  0  0  0  0
 22 23  1  6  0  0  0
 23 24  1  1  0  0  0
 23 26  1  0  0  0  0
 25 26  2  0  0  0  0
 27 28  1  0  0  0  0
 27 25  2  0  0  0  0
 28 30  1  0  0  0  0
 29 34  1  0  0  0  0
 29 28  2  0  0  0  0
 30 32  1  0  0  0  0
 31 30  1  0  0  0  0
 33 34  1  0  0  0  0
M  END
>  <MODEL>
6

>  <REMARK>
 VINA RESULT:      -5.6      2.677      8.075
  Name = 
  8 active torsions:
  status: ('A' for Active; 'I' for Inactive)
    1  A    between atoms: C_1  and  C_9
    2  A    between atoms: C_3  and  C_25
    3  A    between atoms: C_6  and  C_28
    4  A    between atoms: C_6  and  C_30
    5  A    between atoms: C_7  and  C_11
    6  A    between atoms: C_7  and  C_29
    7  A    between atoms: N_8  and  C_9
    8  A    between atoms: C_14  and  C_16
                            x       y       z     vdW  Elec       q    Type
                         _______ _______ _______ _____ _____    ______ ____

>  <TORSDO>
F 8

$$$$
=
 OpenBabel11062409303D

 34 37  0  0  1  0  0  0  0  0999 V2000
  161.1320  207.6950  151.6360 C   0  0  2  0  0  3  0  0  0  0  0  0
  162.1720  204.2570  152.1470 C   0  0  0  0  0  2  0  0  0  0  0  0
  161.5300  205.8770  153.8900 C   0  0  0  0  0  2  0  0  0  0  0  0
  160.3840  209.4490  153.2650 C   0  0  0  0  0  3  0  0  0  0  0  0
  160.2300  208.9820  155.6370 C   0  0  0  0  0  3  0  0  0  0  0  0
  160.0800  209.8660  154.5640 C   0  0  0  0  0  3  0  0  0  0  0  0
  160.9710  207.2510  154.1120 C   0  0  0  0  0  0  0  0  0  0  0  0
  160.8310  208.1440  153.0350 C   0  0  0  0  0  0  0  0  0  0  0  0
  160.6810  207.6780  155.4120 C   0  0  0  0  0  3  0  0  0  0  0  0
  161.8450  203.3170  151.0100 C   0  0  0  0  0  3  0  0  0  0  0  0
  160.8610  203.4120  150.0890 C   0  0  0  0  0  0  0  0  0  0  0  0
  159.7580  204.4330  150.1330 C   0  0  0  0  0  2  0  0  0  0  0  0
  161.0770  205.2300  152.5720 C   0  0  1  0  0  3  0  0  0  0  0  0
  160.2370  205.8390  150.3260 C   0  0  0  0  0  3  0  0  0  0  0  0
  160.8300  206.2320  151.4560 C   0  0  0  0  0  0  0  0  0  0  0  0
  160.7510  202.3670  149.0150 C   0  0  0  0  0  3  0  0  0  0  0  0
  161.8730  201.3500  149.1200 C   0  0  0  0  0  1  0  0  0  0  0  0
  159.4030  201.6660  149.0540 C   0  0  0  0  0  1  0  0  0  0  0  0
  162.5440  208.0690  151.1840 C   0  0  0  0  0  2  0  0  0  0  0  0
  162.5260  209.1880  150.2430 N   0  0  0  0  0  0  0  0  0  0  0  0
  161.2070  209.1480  149.5940 C   0  0  0  0  0  2  0  0  0  0  0  0
  162.3860  208.7810  148.8160 C   0  0  2  0  0  3  0  0  0  0  0  0
  162.4380  207.2660  148.5570 C   0  0  2  0  0  3  0  0  0  0  0  0
  163.8110  206.7420  148.9300 C   0  0  0  0  0  1  0  0  0  0  0  0
  162.2710  205.7340  146.6660 C   0  0  0  0  0  0  0  0  0  0  0  0
  162.1790  206.9540  147.1200 C   0  0  0  0  0  3  0  0  0  0  0  0
  162.3610  204.5090  146.2200 C   0  0  0  0  0  3  0  0  0  0  0  0
  161.2810  203.8610  145.4630 C   0  0  0  0  0  0  0  0  0  0  0  0
  161.1240  202.5430  145.6460 C   0  0  0  0  0  3  0  0  0  0  0  0
  160.4300  204.6820  144.5190 C   0  0  0  0  0  3  0  0  0  0  0  0
  159.4680  205.5990  145.2550 C   0  0  0  0  0  1  0  0  0  0  0  0
  161.2630  205.4540  143.5120 C   0  0  0  0  0  1  0  0  0  0  0  0
  160.3320  200.2380  145.2610 C   0  0  0  0  0  1  0  0  0  0  0  0
  160.0810  201.7060  144.9790 C   0  0  0  0  0  2  0  0  0  0  0  0
  1 19  1  1  0  0  0
  1  8  1  0  0  0  0
  3  7  1  0  0  0  0
  4  6  1  0  0  0  0
  6  5  2  0  0  0  0
  7  9  2  0  0  0  0
  8  4  2  0  0  0  0
  8  7  1  0  0  0  0
  9  5  1  0  0  0  0
 10  2  1  0  0  0  0
 11 12  1  0  0  0  0
 11 10  2  0  0  0  0
 12 14  1  0  0  0  0
 13  2  1  6  0  0  0
 13  3  1  0  0  0  0
 14 15  2  0  0  0  0
 15  1  1  0  0  0  0
 15 13  1  0  0  0  0
 16 18  1  0  0  0  0
 16 17  1  0  0  0  0
 16 11  1  0  0  0  0
 20 19  1  0  0  0  0
 21 20  1  0  0  0  0
 22 23  1  1  0  0  0
 22 21  1  0  0  0  0
 22 20  1  0  0  0  0
 23 24  1  6  0  0  0
 25 26  2  0  0  0  0
 26 23  1  0  0  0  0
 27 25  2  0  0  0  0
 28 29  2  0  0  0  0
 28 27  1  0  0  0  0
 30 31  1  0  0  0  0
 30 28  1  0  0  0  0
 32 30  1  0  0  0  0
 34 33  1  0  0  0  0
 34 29  1  0  0  0  0
M  END
>  <MODEL>
7

>  <REMARK>
 VINA RESULT:      -5.3      2.894      6.028
  Name = 
  8 active torsions:
  status: ('A' for Active; 'I' for Inactive)
    1  A    between atoms: C_1  and  C_9
    2  A    between atoms: C_3  and  C_25
    3  A    between atoms: C_6  and  C_28
    4  A    between atoms: C_6  and  C_30
    5  A    between atoms: C_7  and  C_11
    6  A    between atoms: C_7  and  C_29
    7  A    between atoms: N_8  and  C_9
    8  A    between atoms: C_14  and  C_16
                            x       y       z     vdW  Elec       q    Type
                         _______ _______ _______ _____ _____    ______ ____

>  <TORSDO>
F 8

$$$$
=
 OpenBabel11062409303D

 34 37  0  0  1  0  0  0  0  0999 V2000
  160.1960  209.4900  153.8750 C   0  0  2  0  0  3  0  0  0  0  0  0
  162.1160  209.9680  150.8330 C   0  0  0  0  0  2  0  0  0  0  0  0
  162.8140  210.5520  153.1240 C   0  0  0  0  0  2  0  0  0  0  0  0
  160.7670  209.9540  156.2720 C   0  0  0  0  0  3  0  0  0  0  0  0
  162.9250  210.8570  156.9020 C   0  0  0  0  0  3  0  0  0  0  0  0
  161.6570  210.3900  157.2590 C   0  0  0  0  0  3  0  0  0  0  0  0
  162.4260  210.4400  154.5680 C   0  0  0  0  0  0  0  0  0  0  0  0
  161.1470  209.9800  154.9260 C   0  0  0  0  0  0  0  0  0  0  0  0
  163.3070  210.8890  155.5580 C   0  0  0  0  0  3  0  0  0  0  0  0
  161.8310  208.9680  149.7370 C   0  0  0  0  0  3  0  0  0  0  0  0
  161.3660  207.7040  149.8430 C   0  0  0  0  0  0  0  0  0  0  0  0
  161.1990  206.9720  151.1460 C   0  0  0  0  0  2  0  0  0  0  0  0
  162.2690  209.4150  152.2460 C   0  0  1  0  0  3  0  0  0  0  0  0
  160.4460  207.7440  152.1860 C   0  0  0  0  0  3  0  0  0  0  0  0
  160.9350  208.8650  152.7220 C   0  0  0  0  0  0  0  0  0  0  0  0
  161.1200  206.9000  148.5980 C   0  0  0  0  0  3  0  0  0  0  0  0
  162.3280  206.9260  147.6790 C   0  0  0  0  0  1  0  0  0  0  0  0
  160.7400  205.4650  148.9240 C   0  0  0  0  0  1  0  0  0  0  0  0
  159.2000  210.5600  153.4300 C   0  0  0  0  0  2  0  0  0  0  0  0
  158.1260  210.7300  154.4080 N   0  0  0  0  0  0  0  0  0  0  0  0
  157.2370  211.7620  153.8550 C   0  0  0  0  0  2  0  0  0  0  0  0
  158.0630  212.0910  155.0130 C   0  0  2  0  0  3  0  0  0  0  0  0
  159.2160  213.0340  154.6290 C   0  0  2  0  0  3  0  0  0  0  0  0
  159.7510  213.7030  155.8790 C   0  0  0  0  0  1  0  0  0  0  0  0
  159.1490  214.0960  152.4340 C   0  0  0  0  0  0  0  0  0  0  0  0
  158.7560  214.0900  153.6790 C   0  0  0  0  0  3  0  0  0  0  0  0
  159.5430  214.0950  151.1890 C   0  0  0  0  0  3  0  0  0  0  0  0
  158.6040  214.1560  150.0610 C   0  0  0  0  0  0  0  0  0  0  0  0
  157.3000  214.0640  150.3570 C   0  0  0  0  0  3  0  0  0  0  0  0
  159.1340  214.2940  148.6510 C   0  0  0  0  0  3  0  0  0  0  0  0
  160.6450  214.4410  148.6110 C   0  0  0  0  0  1  0  0  0  0  0  0
  158.6690  213.1680  147.7460 C   0  0  0  0  0  1  0  0  0  0  0  0
  154.8620  214.3030  150.0600 C   0  0  0  0  0  1  0  0  0  0  0  0
  156.1910  214.1140  149.3560 C   0  0  0  0  0  2  0  0  0  0  0  0
  1 19  1  6  0  0  0
  1  8  1  0  0  0  0
  3  7  1  0  0  0  0
  4  6  1  0  0  0  0
  5  6  2  0  0  0  0
  7  8  1  0  0  0  0
  7  9  2  0  0  0  0
  8  4  2  0  0  0  0
  9  5  1  0  0  0  0
 10 11  2  0  0  0  0
 10  2  1  0  0  0  0
 11 12  1  0  0  0  0
 12 14  1  0  0  0  0
 13  2  1  6  0  0  0
 13 15  1  0  0  0  0
 13  3  1  0  0  0  0
 14 15  2  0  0  0  0
 15  1  1  0  0  0  0
 16 18  1  0  0  0  0
 16 11  1  0  0  0  0
 17 16  1  0  0  0  0
 19 20  1  0  0  0  0
 20 22  1  0  0  0  0
 21 20  1  0  0  0  0
 21 22  1  0  0  0  0
 22 23  1  6  0  0  0
 23 24  1  1  0  0  0
 25 26  2  0  0  0  0
 26 23  1  0  0  0  0
 27 25  2  0  0  0  0
 28 29  2  0  0  0  0
 28 27  1  0  0  0  0
 30 28  1  0  0  0  0
 31 30  1  0  0  0  0
 32 30  1  0  0  0  0
 34 33  1  0  0  0  0
 34 29  1  0  0  0  0
M  END
>  <MODEL>
8

>  <REMARK>
 VINA RESULT:      -5.1      2.054      7.594
  Name = 
  8 active torsions:
  status: ('A' for Active; 'I' for Inactive)
    1  A    between atoms: C_1  and  C_9
    2  A    between atoms: C_3  and  C_25
    3  A    between atoms: C_6  and  C_28
    4  A    between atoms: C_6  and  C_30
    5  A    between atoms: C_7  and  C_11
    6  A    between atoms: C_7  and  C_29
    7  A    between atoms: N_8  and  C_9
    8  A    between atoms: C_14  and  C_16
                            x       y       z     vdW  Elec       q    Type
                         _______ _______ _______ _____ _____    ______ ____

>  <TORSDO>
F 8

$$$$
=
 OpenBabel11062409303D

 34 37  0  0  1  0  0  0  0  0999 V2000
  160.9510  203.9410  149.3220 C   0  0  2  0  0  3  0  0  0  0  0  0
  163.1620  206.4860  147.9820 C   0  0  0  0  0  2  0  0  0  0  0  0
  162.4240  204.4270  146.8440 C   0  0  0  0  0  2  0  0  0  0  0  0
  160.0460  201.8390  148.2950 C   0  0  0  0  0  3  0  0  0  0  0  0
  160.5900  201.2130  146.0190 C   0  0  0  0  0  3  0  0  0  0  0  0
  159.9190  200.9560  147.2190 C   0  0  0  0  0  3  0  0  0  0  0  0
  161.5040  203.2490  146.9620 C   0  0  0  0  0  0  0  0  0  0  0  0
  160.8380  202.9850  148.1720 C   0  0  0  0  0  0  0  0  0  0  0  0
  161.3870  202.3540  145.8930 C   0  0  0  0  0  3  0  0  0  0  0  0
  162.9210  207.8810  148.5090 C   0  0  0  0  0  3  0  0  0  0  0  0
  161.7830  208.4150  149.0030 C   0  0  0  0  0  0  0  0  0  0  0  0
  160.4430  207.7350  148.9590 C   0  0  0  0  0  2  0  0  0  0  0  0
  161.9300  205.6750  147.5930 C   0  0  1  0  0  3  0  0  0  0  0  0
  160.4560  206.3270  149.4700 C   0  0  0  0  0  3  0  0  0  0  0  0
  161.1210  205.3560  148.8390 C   0  0  0  0  0  0  0  0  0  0  0  0
  161.7900  209.8280  149.5120 C   0  0  0  0  0  3  0  0  0  0  0  0
  162.3270  209.9000  150.9300 C   0  0  0  0  0  1  0  0  0  0  0  0
  162.5890  210.7470  148.6020 C   0  0  0  0  0  1  0  0  0  0  0  0
  162.0190  203.5270  150.3340 C   0  0  0  0  0  2  0  0  0  0  0  0
  161.4210  203.1020  151.5990 N   0  0  0  0  0  0  0  0  0  0  0  0
  160.1280  203.7960  151.6870 C   0  0  0  0  0  2  0  0  0  0  0  0
  161.2110  204.2080  152.5750 C   0  0  2  0  0  3  0  0  0  0  0  0
  161.7900  205.5700  152.1590 C   0  0  2  0  0  3  0  0  0  0  0  0
  163.0730  205.8230  152.9260 C   0  0  0  0  0  1  0  0  0  0  0  0
  160.8190  207.2720  153.6120 C   0  0  0  0  0  0  0  0  0  0  0  0
  160.8300  206.6770  152.4510 C   0  0  0  0  0  3  0  0  0  0  0  0
  160.8160  207.8670  154.7750 C   0  0  0  0  0  3  0  0  0  0  0  0
  160.9070  209.3260  154.9190 C   0  0  0  0  0  0  0  0  0  0  0  0
  160.3100  210.0630  153.9720 C   0  0  0  0  0  3  0  0  0  0  0  0
  161.6690  209.9180  156.0840 C   0  0  0  0  0  3  0  0  0  0  0  0
  162.0010  208.8830  157.1450 C   0  0  0  0  0  1  0  0  0  0  0  0
  162.9120  210.6680  155.6410 C   0  0  0  0  0  1  0  0  0  0  0  0
  159.8950  212.0450  152.5630 C   0  0  0  0  0  1  0  0  0  0  0  0
  160.2810  211.5570  153.9450 C   0  0  0  0  0  2  0  0  0  0  0  0
  1 19  1  1  0  0  0
  2 10  1  0  0  0  0
  3  7  1  0  0  0  0
  5  6  1  0  0  0  0
  6  4  2  0  0  0  0
  7  8  2  0  0  0  0
  8  4  1  0  0  0  0
  8  1  1  0  0  0  0
  9  5  2  0  0  0  0
  9  7  1  0  0  0  0
 10 11  2  0  0  0  0
 11 16  1  0  0  0  0
 12 11  1  0  0  0  0
 12 14  1  0  0  0  0
 13  3  1  1  0  0  0
 13  2  1  0  0  0  0
 13 15  1  0  0  0  0
 15  1  1  0  0  0  0
 15 14  2  0  0  0  0
 16 17  1  0  0  0  0
 18 16  1  0  0  0  0
 19 20  1  0  0  0  0
 20 21  1  0  0  0  0
 20 22  1  0  0  0  0
 21 22  1  0  0  0  0
 22 23  1  6  0  0  0
 23 26  1  0  0  0  0
 23 24  1  1  0  0  0
 25 27  2  0  0  0  0
 26 25  2  0  0  0  0
 27 28  1  0  0  0  0
 28 30  1  0  0  0  0
 29 28  2  0  0  0  0
 30 31  1  0  0  0  0
 32 30  1  0  0  0  0
 33 34  1  0  0  0  0
 34 29  1  0  0  0  0
M  END
>  <MODEL>
9

>  <REMARK>
 VINA RESULT:      -4.7      2.261      8.943
  Name = 
  8 active torsions:
  status: ('A' for Active; 'I' for Inactive)
    1  A    between atoms: C_1  and  C_9
    2  A    between atoms: C_3  and  C_25
    3  A    between atoms: C_6  and  C_28
    4  A    between atoms: C_6  and  C_30
    5  A    between atoms: C_7  and  C_11
    6  A    between atoms: C_7  and  C_29
    7  A    between atoms: N_8  and  C_9
    8  A    between atoms: C_14  and  C_16
                            x       y       z     vdW  Elec       q    Type
                         _______ _______ _______ _____ _____    ______ ____

>  <TORSDO>
F 8

$$$$
