=
 OpenBabel11052422593D

 28 31  0  0  1  0  0  0  0  0999 V2000
  161.2810  207.8140  152.1290 C   0  0  0  0  0  0  0  0  0  0  0  0
  160.3740  206.5680  147.1730 C   0  0  0  0  0  2  0  0  0  0  0  0
  160.7250  203.0270  152.3500 O   0  0  0  0  0  1  0  0  0  0  0  0
  161.7830  204.5120  147.5830 C   0  0  2  0  0  3  0  0  0  0  0  0
  160.3650  205.4390  149.4670 C   0  0  2  0  0  3  0  0  0  0  0  0
  161.5310  205.4150  145.2950 C   0  0  0  0  0  0  0  0  0  0  0  0
  160.4840  205.2530  147.9500 C   0  0  1  0  0  3  0  0  0  0  0  0
  160.8200  202.8910  149.3150 C   0  0  0  0  0  2  0  0  0  0  0  0
  161.8060  204.1760  146.0950 C   0  0  0  0  0  2  0  0  0  0  0  0
  161.1650  205.3820  152.2420 C   0  0  0  0  0  0  0  0  0  0  0  0
  161.3940  206.4460  149.9990 C   0  0  0  0  0  2  0  0  0  0  0  0
  162.0170  203.2520  148.4310 C   0  0  0  0  0  2  0  0  0  0  0  0
  161.1200  206.6990  154.2800 C   0  0  0  0  0  3  0  0  0  0  0  0
  161.2030  204.0520  151.5300 C   0  0  2  0  0  3  0  0  0  0  0  0
  161.1040  205.4580  153.6410 C   0  0  0  0  0  3  0  0  0  0  0  0
  162.2050  205.6700  144.3100 O   0  0  0  0  0  0  0  0  0  0  0  0
  160.3750  206.2950  145.6670 C   0  0  0  0  0  2  0  0  0  0  0  0
  160.4040  204.0680  150.2130 C   0  0  1  0  0  3  0  0  0  0  0  0
  161.2080  207.8710  153.5280 C   0  0  0  0  0  3  0  0  0  0  0  0
  161.2720  206.5620  151.4870 C   0  0  0  0  0  0  0  0  0  0  0  0
  161.3920  209.0820  151.3300 C   0  0  2  0  0  3  0  0  0  0  0  0
  162.5600  209.0600  150.5680 O   0  0  0  0  0  1  0  0  0  0  0  0
  161.3800  210.3310  152.2130 C   0  0  0  0  0  2  0  0  0  0  0  0
  159.4830  210.8410  153.8260 C   0  0  0  0  0  1  0  0  0  0  0  0
  159.9940  210.9550  152.3940 C   0  0  1  0  0  3  0  0  0  0  0  0
  159.9070  212.3470  151.8440 C   0  0  0  0  0  0  0  0  0  0  0  0
  159.2470  213.3280  152.5730 O   0  0  0  0  0  1  0  0  0  0  0  0
  160.3990  212.6350  150.7210 O   0  0  0  0  0  0  0  0  0  0  0  0
  1 19  1  0  0  0  0
  4  9  1  6  0  0  0
  4  7  1  0  0  0  0
  4 12  1  0  0  0  0
  5 11  1  1  0  0  0
  5 18  1  0  0  0  0
  6 17  1  0  0  0  0
  6  9  1  0  0  0  0
  7  2  1  6  0  0  0
  7  5  1  0  0  0  0
 10 15  2  0  0  0  0
 11 20  1  0  0  0  0
 12  8  1  0  0  0  0
 14 10  1  0  0  0  0
 14  3  1  1  0  0  0
 15 13  1  0  0  0  0
 16  6  2  0  0  0  0
 17  2  1  0  0  0  0
 18  8  1  6  0  0  0
 18 14  1  0  0  0  0
 19 13  2  0  0  0  0
 20  1  2  0  0  0  0
 20 10  1  0  0  0  0
 21 22  1  1  0  0  0
 21  1  1  0  0  0  0
 21 23  1  0  0  0  0
 23 25  1  0  0  0  0
 25 24  1  1  0  0  0
 26 25  1  0  0  0  0
 26 27  1  0  0  0  0
 28 26  2  0  0  0  0
M  END
>  <MODEL>
1

>  <REMARK>
 VINA RESULT:      -9.2      0.000      0.000
  Name = 
  4 active torsions:
  status: ('A' for Active; 'I' for Inactive)
    1  A    between atoms: C_1  and  C_2
    2  A    between atoms: C_2  and  C_3
    3  A    between atoms: C_3  and  C_11
    4  A    between atoms: C_6  and  C_11
                            x       y       z     vdW  Elec       q    Type
                         _______ _______ _______ _____ _____    ______ ____

>  <TORSDO>
F 4

$$$$
=
 OpenBabel11052422593D

 28 31  0  0  1  0  0  0  0  0999 V2000
  161.2640  205.5510  150.1330 C   0  0  0  0  0  0  0  0  0  0  0  0
  162.2190  210.5660  149.2010 C   0  0  0  0  0  2  0  0  0  0  0  0
  161.4460  207.4140  154.5800 O   0  0  0  0  0  1  0  0  0  0  0  0
  160.6450  211.0710  151.1110 C   0  0  2  0  0  3  0  0  0  0  0  0
  162.0740  208.9810  151.2010 C   0  0  2  0  0  3  0  0  0  0  0  0
  161.0330  212.7500  149.3370 C   0  0  0  0  0  0  0  0  0  0  0  0
  161.9860  210.4300  150.7080 C   0  0  1  0  0  3  0  0  0  0  0  0
  161.4300  210.2110  153.3910 C   0  0  0  0  0  2  0  0  0  0  0  0
  160.6400  212.5590  150.7730 C   0  0  0  0  0  2  0  0  0  0  0  0
  161.1900  206.4950  152.3790 C   0  0  0  0  0  0  0  0  0  0  0  0
  161.1090  208.0610  150.4410 C   0  0  0  0  0  2  0  0  0  0  0  0
  160.2900  210.8470  152.5890 C   0  0  0  0  0  2  0  0  0  0  0  0
  161.2750  204.0890  152.0740 C   0  0  0  0  0  3  0  0  0  0  0  0
  161.0720  207.7100  153.2660 C   0  0  2  0  0  3  0  0  0  0  0  0
  161.2150  205.2010  152.9170 C   0  0  0  0  0  3  0  0  0  0  0  0
  160.4100  213.5250  148.6300 O   0  0  0  0  0  0  0  0  0  0  0  0
  162.2410  212.0420  148.8000 C   0  0  0  0  0  2  0  0  0  0  0  0
  161.9080  208.8970  152.7510 C   0  0  1  0  0  3  0  0  0  0  0  0
  161.2990  204.2630  150.6890 C   0  0  0  0  0  3  0  0  0  0  0  0
  161.1960  206.6680  150.9850 C   0  0  0  0  0  0  0  0  0  0  0  0
  161.2730  205.7250  148.6410 C   0  0  2  0  0  3  0  0  0  0  0  0
  160.0520  206.2510  148.2190 O   0  0  0  0  0  1  0  0  0  0  0  0
  161.5490  204.4150  147.9020 C   0  0  0  0  0  2  0  0  0  0  0  0
  163.3210  204.6830  146.0990 C   0  0  0  0  0  1  0  0  0  0  0  0
  161.8310  204.5890  146.4070 C   0  0  1  0  0  3  0  0  0  0  0  0
  161.1150  203.5800  145.5590 C   0  0  0  0  0  0  0  0  0  0  0  0
  160.4640  203.9970  144.4060 O   0  0  0  0  0  0  0  0  0  0  0  0
  161.0720  202.3660  145.8900 O   0  0  0  0  0  1  0  0  0  0  0  0
  1 19  2  0  0  0  0
  1 20  1  0  0  0  0
  4  9  1  1  0  0  0
  4 12  1  0  0  0  0
  5 11  1  6  0  0  0
  5 18  1  0  0  0  0
  6  9  1  0  0  0  0
  7  2  1  6  0  0  0
  7  4  1  0  0  0  0
  7  5  1  0  0  0  0
 10 15  1  0  0  0  0
 10 14  1  0  0  0  0
 11 20  1  0  0  0  0
 12  8  1  0  0  0  0
 13 15  2  0  0  0  0
 14  3  1  1  0  0  0
 16  6  2  0  0  0  0
 17  2  1  0  0  0  0
 17  6  1  0  0  0  0
 18 14  1  0  0  0  0
 18  8  1  6  0  0  0
 19 13  1  0  0  0  0
 20 10  2  0  0  0  0
 21 22  1  6  0  0  0
 21  1  1  0  0  0  0
 23 21  1  0  0  0  0
 25 24  1  1  0  0  0
 25 23  1  0  0  0  0
 26 28  1  0  0  0  0
 26 25  1  0  0  0  0
 27 26  2  0  0  0  0
M  END
>  <MODEL>
2

>  <REMARK>
 VINA RESULT:      -9.2      2.041      7.031
  Name = 
  4 active torsions:
  status: ('A' for Active; 'I' for Inactive)
    1  A    between atoms: C_1  and  C_2
    2  A    between atoms: C_2  and  C_3
    3  A    between atoms: C_3  and  C_11
    4  A    between atoms: C_6  and  C_11
                            x       y       z     vdW  Elec       q    Type
                         _______ _______ _______ _____ _____    ______ ____

>  <TORSDO>
F 4

$$$$
=
 OpenBabel11052422593D

 28 31  0  0  1  0  0  0  0  0999 V2000
  161.2170  204.4210  148.2910 C   0  0  0  0  0  0  0  0  0  0  0  0
  162.4030  208.7710  150.8610 C   0  0  0  0  0  2  0  0  0  0  0  0
  161.1140  202.9670  152.8910 O   0  0  0  0  0  1  0  0  0  0  0  0
  160.7040  208.0450  152.5830 C   0  0  2  0  0  3  0  0  0  0  0  0
  162.0520  206.2870  151.3550 C   0  0  2  0  0  3  0  0  0  0  0  0
  161.2810  210.4370  152.3320 C   0  0  0  0  0  0  0  0  0  0  0  0
  162.0500  207.7160  151.9120 C   0  0  1  0  0  3  0  0  0  0  0  0
  161.2810  205.8650  153.7930 C   0  0  0  0  0  2  0  0  0  0  0  0
  160.7730  209.3970  153.2870 C   0  0  0  0  0  2  0  0  0  0  0  0
  161.0000  203.7020  150.6100 C   0  0  0  0  0  0  0  0  0  0  0  0
  161.1210  206.1470  150.1430 C   0  0  0  0  0  2  0  0  0  0  0  0
  160.2280  206.9500  153.5500 C   0  0  0  0  0  2  0  0  0  0  0  0
  161.0310  202.0580  148.8250 C   0  0  0  0  0  3  0  0  0  0  0  0
  160.8530  204.0660  152.0680 C   0  0  2  0  0  3  0  0  0  0  0  0
  160.9420  202.3670  150.1840 C   0  0  0  0  0  3  0  0  0  0  0  0
  160.7410  211.5290  152.2700 O   0  0  0  0  0  0  0  0  0  0  0  0
  162.5040  210.1520  151.5110 C   0  0  0  0  0  2  0  0  0  0  0  0
  161.7640  205.2390  152.4750 C   0  0  1  0  0  3  0  0  0  0  0  0
  161.1680  203.0790  147.8830 C   0  0  0  0  0  3  0  0  0  0  0  0
  161.1200  204.7300  149.6610 C   0  0  0  0  0  0  0  0  0  0  0  0
  161.3480  205.5120  147.2680 C   0  0  2  0  0  3  0  0  0  0  0  0
  160.1140  206.1340  147.0790 O   0  0  0  0  0  1  0  0  0  0  0  0
  161.8710  204.9960  145.9270 C   0  0  0  0  0  2  0  0  0  0  0  0
  161.3400  205.6170  143.5200 C   0  0  0  0  0  1  0  0  0  0  0  0
  160.8240  204.9880  144.8090 C   0  0  1  0  0  3  0  0  0  0  0  0
  160.2060  203.6380  144.6020 C   0  0  0  0  0  0  0  0  0  0  0  0
  158.9780  203.5420  143.9600 O   0  0  0  0  0  0  0  0  0  0  0  0
  160.7680  202.5930  145.0240 O   0  0  0  0  0  1  0  0  0  0  0  0
  1 20  1  0  0  0  0
  2 17  1  0  0  0  0
  4  9  1  1  0  0  0
  4 12  1  0  0  0  0
  5 11  1  6  0  0  0
  5  7  1  0  0  0  0
  5 18  1  0  0  0  0
  6  9  1  0  0  0  0
  7  2  1  6  0  0  0
  7  4  1  0  0  0  0
 10 14  1  0  0  0  0
 12  8  1  0  0  0  0
 13 15  2  0  0  0  0
 14 18  1  0  0  0  0
 14  3  1  1  0  0  0
 15 10  1  0  0  0  0
 16  6  2  0  0  0  0
 17  6  1  0  0  0  0
 18  8  1  1  0  0  0
 19  1  2  0  0  0  0
 19 13  1  0  0  0  0
 20 11  1  0  0  0  0
 20 10  2  0  0  0  0
 21 22  1  6  0  0  0
 21  1  1  0  0  0  0
 23 21  1  0  0  0  0
 25 24  1  6  0  0  0
 25 23  1  0  0  0  0
 26 25  1  0  0  0  0
 26 28  1  0  0  0  0
 27 26  2  0  0  0  0
M  END
>  <MODEL>
3

>  <REMARK>
 VINA RESULT:      -9.1      1.587      7.160
  Name = 
  4 active torsions:
  status: ('A' for Active; 'I' for Inactive)
    1  A    between atoms: C_1  and  C_2
    2  A    between atoms: C_2  and  C_3
    3  A    between atoms: C_3  and  C_11
    4  A    between atoms: C_6  and  C_11
                            x       y       z     vdW  Elec       q    Type
                         _______ _______ _______ _____ _____    ______ ____

>  <TORSDO>
F 4

$$$$
=
 OpenBabel11052422593D

 28 31  0  0  1  0  0  0  0  0999 V2000
  162.0740  207.8480  149.8710 C   0  0  0  0  0  0  0  0  0  0  0  0
  160.4810  203.1770  148.2630 C   0  0  0  0  0  2  0  0  0  0  0  0
  160.7800  205.7160  154.0020 O   0  0  0  0  0  1  0  0  0  0  0  0
  161.5750  202.2490  150.3420 C   0  0  2  0  0  3  0  0  0  0  0  0
  160.5230  204.5520  150.4180 C   0  0  2  0  0  3  0  0  0  0  0  0
  161.2420  200.8090  148.3590 C   0  0  0  0  0  0  0  0  0  0  0  0
  160.4560  203.1540  149.7940 C   0  0  1  0  0  3  0  0  0  0  0  0
  160.5440  203.0620  152.5400 C   0  0  0  0  0  2  0  0  0  0  0  0
  161.3930  200.8160  149.8520 C   0  0  0  0  0  2  0  0  0  0  0  0
  161.5810  206.7380  151.9850 C   0  0  0  0  0  0  0  0  0  0  0  0
  161.7490  205.3360  149.9300 C   0  0  0  0  0  2  0  0  0  0  0  0
  161.6880  202.2910  151.8740 C   0  0  0  0  0  2  0  0  0  0  0  0
  161.9540  209.1350  151.9280 C   0  0  0  0  0  3  0  0  0  0  0  0
  161.3320  205.4580  152.7440 C   0  0  2  0  0  3  0  0  0  0  0  0
  161.6740  207.9700  152.6460 C   0  0  0  0  0  3  0  0  0  0  0  0
  161.8440  199.9900  147.6860 O   0  0  0  0  0  0  0  0  0  0  0  0
  160.2850  201.7650  147.7090 C   0  0  0  0  0  2  0  0  0  0  0  0
  160.4170  204.4860  151.9740 C   0  0  1  0  0  3  0  0  0  0  0  0
  162.1530  209.0740  150.5480 C   0  0  0  0  0  3  0  0  0  0  0  0
  161.7980  206.6750  150.5980 C   0  0  0  0  0  0  0  0  0  0  0  0
  162.3060  207.7920  148.3880 C   0  0  2  0  0  3  0  0  0  0  0  0
  162.1170  209.0580  147.8320 O   0  0  0  0  0  1  0  0  0  0  0  0
  161.3890  206.7850  147.6910 C   0  0  0  0  0  2  0  0  0  0  0  0
  163.0300  205.1010  146.7260 C   0  0  0  0  0  1  0  0  0  0  0  0
  161.9870  206.1710  146.4220 C   0  0  1  0  0  3  0  0  0  0  0  0
  160.9420  205.7170  145.4480 C   0  0  0  0  0  0  0  0  0  0  0  0
  161.1980  204.6210  144.6340 O   0  0  0  0  0  0  0  0  0  0  0  0
  159.8470  206.3290  145.3370 O   0  0  0  0  0  1  0  0  0  0  0  0
  1 19  2  0  0  0  0
  1 20  1  0  0  0  0
  4  9  1  1  0  0  0
  4 12  1  0  0  0  0
  5 11  1  1  0  0  0
  5 18  1  0  0  0  0
  6  9  1  0  0  0  0
  7  2  1  6  0  0  0
  7  4  1  0  0  0  0
  7  5  1  0  0  0  0
 10 15  1  0  0  0  0
 10 14  1  0  0  0  0
 11 20  1  0  0  0  0
 12  8  1  0  0  0  0
 13 15  2  0  0  0  0
 14  3  1  1  0  0  0
 16  6  2  0  0  0  0
 17  2  1  0  0  0  0
 17  6  1  0  0  0  0
 18  8  1  1  0  0  0
 18 14  1  0  0  0  0
 19 13  1  0  0  0  0
 20 10  2  0  0  0  0
 21 22  1  6  0  0  0
 21  1  1  0  0  0  0
 23 21  1  0  0  0  0
 25 24  1  1  0  0  0
 25 23  1  0  0  0  0
 26 25  1  0  0  0  0
 27 26  2  0  0  0  0
 28 26  1  0  0  0  0
M  END
>  <MODEL>
4

>  <REMARK>
 VINA RESULT:      -8.5      2.348      5.172
  Name = 
  4 active torsions:
  status: ('A' for Active; 'I' for Inactive)
    1  A    between atoms: C_1  and  C_2
    2  A    between atoms: C_2  and  C_3
    3  A    between atoms: C_3  and  C_11
    4  A    between atoms: C_6  and  C_11
                            x       y       z     vdW  Elec       q    Type
                         _______ _______ _______ _____ _____    ______ ____

>  <TORSDO>
F 4

$$$$
=
 OpenBabel11052422593D

 28 31  0  0  1  0  0  0  0  0999 V2000
  160.9670  204.9740  149.6630 C   0  0  0  0  0  0  0  0  0  0  0  0
  162.2540  209.9290  148.8080 C   0  0  0  0  0  2  0  0  0  0  0  0
  161.6110  206.6640  154.1360 O   0  0  0  0  0  1  0  0  0  0  0  0
  160.8650  210.4890  150.8410 C   0  0  2  0  0  3  0  0  0  0  0  0
  162.1230  208.2920  150.7670 C   0  0  2  0  0  3  0  0  0  0  0  0
  161.2600  212.1930  149.0920 C   0  0  0  0  0  0  0  0  0  0  0  0
  162.1180  209.7590  150.3230 C   0  0  1  0  0  3  0  0  0  0  0  0
  161.7370  209.4930  153.0320 C   0  0  0  0  0  2  0  0  0  0  0  0
  160.9560  211.9840  150.5470 C   0  0  0  0  0  2  0  0  0  0  0  0
  161.1270  205.8440  151.9340 C   0  0  0  0  0  0  0  0  0  0  0  0
  161.0370  207.4770  150.0530 C   0  0  0  0  0  2  0  0  0  0  0  0
  160.5980  210.2430  152.3340 C   0  0  0  0  0  2  0  0  0  0  0  0
  160.9970  203.4510  151.5550 C   0  0  0  0  0  3  0  0  0  0  0  0
  161.1700  207.0330  152.8630 C   0  0  2  0  0  3  0  0  0  0  0  0
  161.0860  204.5340  152.4310 C   0  0  0  0  0  3  0  0  0  0  0  0
  160.6540  213.0380  148.4550 O   0  0  0  0  0  0  0  0  0  0  0  0
  162.3670  211.4120  148.4490 C   0  0  0  0  0  2  0  0  0  0  0  0
  162.0610  208.1680  152.3220 C   0  0  1  0  0  3  0  0  0  0  0  0
  160.9370  203.6690  150.1780 C   0  0  0  0  0  3  0  0  0  0  0  0
  161.0490  206.0640  150.5490 C   0  0  0  0  0  0  0  0  0  0  0  0
  160.8850  205.1980  148.1800 C   0  0  2  0  0  3  0  0  0  0  0  0
  160.8780  203.9710  147.5160 O   0  0  0  0  0  1  0  0  0  0  0  0
  162.0370  206.0580  147.6550 C   0  0  0  0  0  2  0  0  0  0  0  0
  163.3960  204.6010  146.0770 C   0  0  0  0  0  1  0  0  0  0  0  0
  162.4220  205.7660  146.2020 C   0  0  1  0  0  3  0  0  0  0  0  0
  161.2310  205.6410  145.2990 C   0  0  0  0  0  0  0  0  0  0  0  0
  160.1910  206.5550  145.4120 O   0  0  0  0  0  1  0  0  0  0  0  0
  161.1460  204.7060  144.4600 O   0  0  0  0  0  0  0  0  0  0  0  0
  1 19  2  0  0  0  0
  1 20  1  0  0  0  0
  4  9  1  1  0  0  0
  4 12  1  0  0  0  0
  5 11  1  6  0  0  0
  5 18  1  0  0  0  0
  6  9  1  0  0  0  0
  7  2  1  6  0  0  0
  7  5  1  0  0  0  0
  7  4  1  0  0  0  0
 10 15  1  0  0  0  0
 10 14  1  0  0  0  0
 11 20  1  0  0  0  0
 12  8  1  0  0  0  0
 13 15  2  0  0  0  0
 14  3  1  1  0  0  0
 16  6  2  0  0  0  0
 17  2  1  0  0  0  0
 17  6  1  0  0  0  0
 18 14  1  0  0  0  0
 18  8  1  1  0  0  0
 19 13  1  0  0  0  0
 20 10  2  0  0  0  0
 21 22  1  6  0  0  0
 21  1  1  0  0  0  0
 23 21  1  0  0  0  0
 25 24  1  1  0  0  0
 25 23  1  0  0  0  0
 26 27  1  0  0  0  0
 26 25  1  0  0  0  0
 28 26  2  0  0  0  0
M  END
>  <MODEL>
5

>  <REMARK>
 VINA RESULT:      -8.0      1.906      6.494
  Name = 
  4 active torsions:
  status: ('A' for Active; 'I' for Inactive)
    1  A    between atoms: C_1  and  C_2
    2  A    between atoms: C_2  and  C_3
    3  A    between atoms: C_3  and  C_11
    4  A    between atoms: C_6  and  C_11
                            x       y       z     vdW  Elec       q    Type
                         _______ _______ _______ _____ _____    ______ ____

>  <TORSDO>
F 4

$$$$
=
 OpenBabel11052422593D

 28 31  0  0  1  0  0  0  0  0999 V2000
  161.7140  207.3580  151.6570 C   0  0  0  0  0  0  0  0  0  0  0  0
  160.5710  212.3770  150.9960 C   0  0  0  0  0  2  0  0  0  0  0  0
  160.2340  208.6700  156.0570 O   0  0  0  0  0  1  0  0  0  0  0  0
  158.6050  211.9820  152.5320 C   0  0  2  0  0  3  0  0  0  0  0  0
  160.7490  210.6860  152.9050 C   0  0  2  0  0  3  0  0  0  0  0  0
  158.5580  213.8370  150.8970 C   0  0  0  0  0  0  0  0  0  0  0  0
  160.1410  212.0060  152.4180 C   0  0  1  0  0  3  0  0  0  0  0  0
  159.2390  211.3070  154.9180 C   0  0  0  0  0  2  0  0  0  0  0  0
  158.0230  213.3560  152.2140 C   0  0  0  0  0  2  0  0  0  0  0  0
  160.8180  207.9540  153.8440 C   0  0  0  0  0  0  0  0  0  0  0  0
  160.4380  209.5270  151.9480 C   0  0  0  0  0  2  0  0  0  0  0  0
  158.1100  211.4830  153.8980 C   0  0  0  0  0  2  0  0  0  0  0  0
  161.9880  205.8500  153.5410 C   0  0  0  0  0  3  0  0  0  0  0  0
  160.0240  208.9120  154.6970 C   0  0  2  0  0  3  0  0  0  0  0  0
  161.2980  206.7430  154.3630 C   0  0  0  0  0  3  0  0  0  0  0  0
  157.8070  214.3460  150.0800 O   0  0  0  0  0  0  0  0  0  0  0  0
  160.0310  213.7590  150.6230 C   0  0  0  0  0  2  0  0  0  0  0  0
  160.3470  210.3860  154.3830 C   0  0  1  0  0  3  0  0  0  0  0  0
  162.1960  206.1550  152.1950 C   0  0  0  0  0  3  0  0  0  0  0  0
  161.0120  208.2530  152.4850 C   0  0  0  0  0  0  0  0  0  0  0  0
  161.9280  207.6680  150.2030 C   0  0  2  0  0  3  0  0  0  0  0  0
  161.8760  209.0480  150.0010 O   0  0  0  0  0  1  0  0  0  0  0  0
  160.9020  206.9800  149.3010 C   0  0  0  0  0  2  0  0  0  0  0  0
  160.7290  204.4470  149.4100 C   0  0  0  0  0  1  0  0  0  0  0  0
  161.3760  205.6440  148.7230 C   0  0  1  0  0  3  0  0  0  0  0  0
  161.2790  205.5910  147.2270 C   0  0  0  0  0  0  0  0  0  0  0  0
  160.6660  206.6340  146.5460 O   0  0  0  0  0  0  0  0  0  0  0  0
  161.7220  204.6040  146.5820 O   0  0  0  0  0  1  0  0  0  0  0  0
  1 19  2  0  0  0  0
  1 20  1  0  0  0  0
  4  9  1  1  0  0  0
  4 12  1  0  0  0  0
  5 11  1  6  0  0  0
  5 18  1  0  0  0  0
  6  9  1  0  0  0  0
  7  2  1  6  0  0  0
  7  4  1  0  0  0  0
  7  5  1  0  0  0  0
 10 15  1  0  0  0  0
 10 14  1  0  0  0  0
 11 20  1  0  0  0  0
 12  8  1  0  0  0  0
 13 15  2  0  0  0  0
 14  3  1  1  0  0  0
 16  6  2  0  0  0  0
 17  6  1  0  0  0  0
 17  2  1  0  0  0  0
 18 14  1  0  0  0  0
 18  8  1  6  0  0  0
 19 13  1  0  0  0  0
 20 10  2  0  0  0  0
 21 22  1  1  0  0  0
 21  1  1  0  0  0  0
 23 21  1  0  0  0  0
 25 23  1  0  0  0  0
 25 24  1  1  0  0  0
 26 25  1  0  0  0  0
 27 26  2  0  0  0  0
 28 26  1  0  0  0  0
M  END
>  <MODEL>
6

>  <REMARK>
 VINA RESULT:      -7.3      1.917      7.217
  Name = 
  4 active torsions:
  status: ('A' for Active; 'I' for Inactive)
    1  A    between atoms: C_1  and  C_2
    2  A    between atoms: C_2  and  C_3
    3  A    between atoms: C_3  and  C_11
    4  A    between atoms: C_6  and  C_11
                            x       y       z     vdW  Elec       q    Type
                         _______ _______ _______ _____ _____    ______ ____

>  <TORSDO>
F 4

$$$$
=
 OpenBabel11052422593D

 28 31  0  0  1  0  0  0  0  0999 V2000
  161.1090  208.7000  153.6680 C   0  0  0  0  0  0  0  0  0  0  0  0
  161.9360  203.9220  151.8150 C   0  0  0  0  0  2  0  0  0  0  0  0
  162.1860  209.5540  149.0430 O   0  0  0  0  0  1  0  0  0  0  0  0
  160.7750  204.6950  149.7090 C   0  0  2  0  0  3  0  0  0  0  0  0
  162.1630  206.3470  151.0370 C   0  0  2  0  0  3  0  0  0  0  0  0
  160.8310  202.2920  150.2920 C   0  0  0  0  0  0  0  0  0  0  0  0
  162.0010  204.8800  150.6220 C   0  0  1  0  0  3  0  0  0  0  0  0
  161.9790  206.5780  148.4610 C   0  0  0  0  0  2  0  0  0  0  0  0
  160.7260  203.2720  149.1600 C   0  0  0  0  0  2  0  0  0  0  0  0
  161.4900  209.1440  151.3010 C   0  0  0  0  0  0  0  0  0  0  0  0
  161.0540  206.7920  152.0010 C   0  0  0  0  0  2  0  0  0  0  0  0
  160.7140  205.7220  148.5670 C   0  0  0  0  0  2  0  0  0  0  0  0
  161.4790  210.9730  152.8970 C   0  0  0  0  0  3  0  0  0  0  0  0
  161.5660  208.6280  149.8850 C   0  0  2  0  0  3  0  0  0  0  0  0
  161.6020  210.5130  151.5840 C   0  0  0  0  0  3  0  0  0  0  0  0
  160.0940  201.3220  150.3330 O   0  0  0  0  0  0  0  0  0  0  0  0
  161.9010  202.4720  151.3280 C   0  0  0  0  0  2  0  0  0  0  0  0
  162.3030  207.2780  149.7910 C   0  0  1  0  0  3  0  0  0  0  0  0
  161.2330  210.0710  153.9330 C   0  0  0  0  0  3  0  0  0  0  0  0
  161.2260  208.2400  152.3430 C   0  0  0  0  0  0  0  0  0  0  0  0
  160.8280  207.7400  154.7880 C   0  0  2  0  0  3  0  0  0  0  0  0
  160.4060  206.5160  154.2690 O   0  0  0  0  0  1  0  0  0  0  0  0
  159.7760  208.2720  155.7630 C   0  0  0  0  0  2  0  0  0  0  0  0
  161.8160  208.5020  157.2610 C   0  0  0  0  0  1  0  0  0  0  0  0
  160.3600  208.8920  157.0360 C   0  0  1  0  0  3  0  0  0  0  0  0
  160.1230  210.3690  157.1250 C   0  0  0  0  0  0  0  0  0  0  0  0
  161.2060  211.2270  157.2590 O   0  0  0  0  0  1  0  0  0  0  0  0
  158.9560  210.8420  157.1070 O   0  0  0  0  0  0  0  0  0  0  0  0
  1 19  1  0  0  0  0
  1 21  1  0  0  0  0
  4 12  1  6  0  0  0
  4  7  1  0  0  0  0
  5 11  1  6  0  0  0
  6 16  2  0  0  0  0
  6 17  1  0  0  0  0
  7  5  1  0  0  0  0
  7  2  1  1  0  0  0
  8 12  1  0  0  0  0
  9  4  1  0  0  0  0
  9  6  1  0  0  0  0
 10 15  2  0  0  0  0
 10 20  1  0  0  0  0
 11 20  1  0  0  0  0
 13 19  2  0  0  0  0
 14  3  1  6  0  0  0
 14 10  1  0  0  0  0
 15 13  1  0  0  0  0
 17  2  1  0  0  0  0
 18  8  1  6  0  0  0
 18 14  1  0  0  0  0
 18  5  1  0  0  0  0
 20  1  2  0  0  0  0
 21 22  1  6  0  0  0
 21 23  1  0  0  0  0
 23 25  1  0  0  0  0
 25 26  1  0  0  0  0
 25 24  1  6  0  0  0
 26 27  1  0  0  0  0
 28 26  2  0  0  0  0
M  END
>  <MODEL>
7

>  <REMARK>
 VINA RESULT:      -7.3      2.348      4.711
  Name = 
  4 active torsions:
  status: ('A' for Active; 'I' for Inactive)
    1  A    between atoms: C_1  and  C_2
    2  A    between atoms: C_2  and  C_3
    3  A    between atoms: C_3  and  C_11
    4  A    between atoms: C_6  and  C_11
                            x       y       z     vdW  Elec       q    Type
                         _______ _______ _______ _____ _____    ______ ____

>  <TORSDO>
F 4

$$$$
=
 OpenBabel11052422593D

 28 31  0  0  1  0  0  0  0  0999 V2000
  161.1020  204.3700  151.9350 C   0  0  0  0  0  0  0  0  0  0  0  0
  162.1570  204.1320  146.8590 C   0  0  0  0  0  2  0  0  0  0  0  0
  162.0150  208.9820  150.8500 O   0  0  0  0  0  1  0  0  0  0  0  0
  160.9030  206.3140  146.6440 C   0  0  2  0  0  3  0  0  0  0  0  0
  162.2250  205.8470  148.7530 C   0  0  2  0  0  3  0  0  0  0  0  0
  161.1110  204.7980  144.7010 C   0  0  0  0  0  0  0  0  0  0  0  0
  162.1380  205.6140  147.2410 C   0  0  1  0  0  3  0  0  0  0  0  0
  161.9650  208.2790  147.8930 C   0  0  0  0  0  2  0  0  0  0  0  0
  160.9220  206.2260  145.1210 C   0  0  0  0  0  2  0  0  0  0  0  0
  161.3990  206.7250  151.3800 C   0  0  0  0  0  0  0  0  0  0  0  0
  161.1170  205.1010  149.5090 C   0  0  0  0  0  2  0  0  0  0  0  0
  160.7540  207.7720  147.1040 C   0  0  0  0  0  2  0  0  0  0  0  0
  161.3210  206.0240  153.7010 C   0  0  0  0  0  3  0  0  0  0  0  0
  161.4700  207.8060  150.3280 C   0  0  2  0  0  3  0  0  0  0  0  0
  161.4380  207.0350  152.7460 C   0  0  0  0  0  3  0  0  0  0  0  0
  160.4320  204.3280  143.8030 O   0  0  0  0  0  0  0  0  0  0  0  0
  162.1940  203.9770  145.3380 C   0  0  0  0  0  2  0  0  0  0  0  0
  162.2800  207.3700  149.0920 C   0  0  1  0  0  3  0  0  0  0  0  0
  161.1540  204.6980  153.2980 C   0  0  0  0  0  3  0  0  0  0  0  0
  161.2120  205.3930  150.9750 C   0  0  0  0  0  0  0  0  0  0  0  0
  160.9040  202.9430  151.5130 C   0  0  2  0  0  3  0  0  0  0  0  0
  161.9420  202.1540  152.0110 O   0  0  0  0  0  1  0  0  0  0  0  0
  160.8270  202.7880  149.9930 C   0  0  0  0  0  2  0  0  0  0  0  0
  158.8060  201.3280  149.5020 C   0  0  0  0  0  1  0  0  0  0  0  0
  160.3270  201.4170  149.5290 C   0  0  1  0  0  3  0  0  0  0  0  0
  160.9690  200.9660  148.2510 C   0  0  0  0  0  0  0  0  0  0  0  0
  160.4360  201.3810  147.0380 O   0  0  0  0  0  0  0  0  0  0  0  0
  161.9660  200.1970  148.2610 O   0  0  0  0  0  1  0  0  0  0  0  0
  1 19  1  0  0  0  0
  4  9  1  6  0  0  0
  4 12  1  0  0  0  0
  4  7  1  0  0  0  0
  5 18  1  0  0  0  0
  5 11  1  1  0  0  0
  6  9  1  0  0  0  0
  6 17  1  0  0  0  0
  7  2  1  1  0  0  0
  7  5  1  0  0  0  0
 10 15  2  0  0  0  0
 11 20  1  0  0  0  0
 12  8  1  0  0  0  0
 14  3  1  1  0  0  0
 14 10  1  0  0  0  0
 15 13  1  0  0  0  0
 16  6  2  0  0  0  0
 17  2  1  0  0  0  0
 18  8  1  6  0  0  0
 18 14  1  0  0  0  0
 19 13  2  0  0  0  0
 20 10  1  0  0  0  0
 20  1  2  0  0  0  0
 21  1  1  0  0  0  0
 21 22  1  6  0  0  0
 23 21  1  0  0  0  0
 25 24  1  6  0  0  0
 25 23  1  0  0  0  0
 26 28  1  0  0  0  0
 26 25  1  0  0  0  0
 27 26  2  0  0  0  0
M  END
>  <MODEL>
8

>  <REMARK>
 VINA RESULT:      -7.2      2.291      6.102
  Name = 
  4 active torsions:
  status: ('A' for Active; 'I' for Inactive)
    1  A    between atoms: C_1  and  C_2
    2  A    between atoms: C_2  and  C_3
    3  A    between atoms: C_3  and  C_11
    4  A    between atoms: C_6  and  C_11
                            x       y       z     vdW  Elec       q    Type
                         _______ _______ _______ _____ _____    ______ ____

>  <TORSDO>
F 4

$$$$
=
 OpenBabel11052422593D

 28 31  0  0  1  0  0  0  0  0999 V2000
  161.1420  205.3950  149.5800 C   0  0  0  0  0  0  0  0  0  0  0  0
  160.0730  207.4180  154.2380 C   0  0  0  0  0  2  0  0  0  0  0  0
  161.9560  210.0980  148.8780 O   0  0  0  0  0  1  0  0  0  0  0  0
  162.0300  208.9670  153.8540 C   0  0  2  0  0  3  0  0  0  0  0  0
  160.6290  208.2270  151.8780 C   0  0  2  0  0  3  0  0  0  0  0  0
  161.2880  208.4410  156.1540 C   0  0  0  0  0  0  0  0  0  0  0  0
  160.6260  208.5550  153.3750 C   0  0  1  0  0  3  0  0  0  0  0  0
  161.7490  210.5650  151.8740 C   0  0  0  0  0  2  0  0  0  0  0  0
  161.9810  209.4600  155.2970 C   0  0  0  0  0  2  0  0  0  0  0  0
  161.7160  207.7400  149.2450 C   0  0  0  0  0  0  0  0  0  0  0  0
  161.3920  206.9290  151.5800 C   0  0  0  0  0  2  0  0  0  0  0  0
  162.6950  210.0110  152.9430 C   0  0  0  0  0  2  0  0  0  0  0  0
  161.5340  206.2480  147.3400 C   0  0  0  0  0  3  0  0  0  0  0  0
  162.0390  209.0890  149.8400 C   0  0  2  0  0  3  0  0  0  0  0  0
  161.7910  207.5170  147.8630 C   0  0  0  0  0  3  0  0  0  0  0  0
  161.7520  208.1380  157.2400 O   0  0  0  0  0  0  0  0  0  0  0  0
  159.9830  207.8580  155.7000 C   0  0  0  0  0  2  0  0  0  0  0  0
  161.1270  209.4400  151.0310 C   0  0  1  0  0  3  0  0  0  0  0  0
  161.2120  205.1920  148.1930 C   0  0  0  0  0  3  0  0  0  0  0  0
  161.4080  206.6730  150.1050 C   0  0  0  0  0  0  0  0  0  0  0  0
  160.8110  204.2470  150.4900 C   0  0  2  0  0  3  0  0  0  0  0  0
  161.9600  203.8290  151.1620 O   0  0  0  0  0  1  0  0  0  0  0  0
  160.1970  203.0640  149.7390 C   0  0  0  0  0  2  0  0  0  0  0  0
  160.8590  200.7550  150.5710 C   0  0  0  0  0  1  0  0  0  0  0  0
  161.1440  201.8710  149.5730 C   0  0  1  0  0  3  0  0  0  0  0  0
  161.2280  201.3900  148.1560 C   0  0  0  0  0  0  0  0  0  0  0  0
  160.9710  202.2760  147.1180 O   0  0  0  0  0  0  0  0  0  0  0  0
  161.5020  200.1890  147.8920 O   0  0  0  0  0  1  0  0  0  0  0  0
  1 20  1  0  0  0  0
  1 21  1  0  0  0  0
  2 17  1  0  0  0  0
  4 12  1  6  0  0  0
  4  9  1  0  0  0  0
  5 11  1  1  0  0  0
  5  7  1  0  0  0  0
  6 16  2  0  0  0  0
  7  4  1  0  0  0  0
  7  2  1  1  0  0  0
  8 12  1  0  0  0  0
  9  6  1  0  0  0  0
 10 14  1  0  0  0  0
 10 20  2  0  0  0  0
 13 15  2  0  0  0  0
 13 19  1  0  0  0  0
 14  3  1  6  0  0  0
 14 18  1  0  0  0  0
 15 10  1  0  0  0  0
 17  6  1  0  0  0  0
 18  8  1  1  0  0  0
 18  5  1  0  0  0  0
 19  1  2  0  0  0  0
 20 11  1  0  0  0  0
 21 22  1  6  0  0  0
 23 21  1  0  0  0  0
 25 23  1  0  0  0  0
 25 24  1  1  0  0  0
 26 25  1  0  0  0  0
 27 26  2  0  0  0  0
 28 26  1  0  0  0  0
M  END
>  <MODEL>
9

>  <REMARK>
 VINA RESULT:      -7.2      2.331      8.157
  Name = 
  4 active torsions:
  status: ('A' for Active; 'I' for Inactive)
    1  A    between atoms: C_1  and  C_2
    2  A    between atoms: C_2  and  C_3
    3  A    between atoms: C_3  and  C_11
    4  A    between atoms: C_6  and  C_11
                            x       y       z     vdW  Elec       q    Type
                         _______ _______ _______ _____ _____    ______ ____

>  <TORSDO>
F 4

$$$$
