=
 OpenBabel11052422363D

 31 35  0  0  1  0  0  0  0  0999 V2000
  161.3400  201.0100  148.6420 C   0  0  0  0  0  0  0  0  0  0  0  0
  160.9520  204.7090  148.7250 N   0  0  0  0  0  0  0  0  0  0  0  0
  160.9040  205.1510  147.3420 C   0  0  0  0  0  0  0  0  0  0  0  0
  160.4030  204.7430  144.9910 C   0  0  0  0  0  0  0  0  0  0  0  0
  160.5980  203.3170  149.0990 C   0  0  1  0  0  3  0  0  0  0  0  0
  160.9400  200.6560  149.9430 O   0  0  0  0  0  0  0  0  0  0  0  0
  160.4350  204.3100  146.3170 C   0  0  0  0  0  3  0  0  0  0  0  0
  161.1810  205.3080  151.1830 C   0  0  1  0  0  3  0  0  0  0  0  0
  161.9250  199.9790  147.7460 C   0  0  0  0  0  1  0  0  0  0  0  0
  161.7200  207.4550  148.0540 C   0  0  0  0  0  2  0  0  0  0  0  0
  159.9130  203.8310  143.9240 C   0  0  0  0  0  1  0  0  0  0  0  0
  160.3850  204.0490  151.4640 C   0  0  0  0  0  2  0  0  0  0  0  0
  160.9750  205.7870  149.7400 C   0  0  1  0  0  3  0  0  0  0  0  0
  161.2460  202.2750  148.2220 C   0  0  0  0  0  3  0  0  0  0  0  0
  160.8300  206.0300  144.6660 C   0  0  0  0  0  3  0  0  0  0  0  0
  160.9380  202.9910  150.5500 C   0  0  1  0  0  3  0  0  0  0  0  0
  160.3850  201.6070  150.8610 C   0  0  0  0  0  2  0  0  0  0  0  0
  162.0610  206.7920  149.3820 C   0  0  0  0  0  2  0  0  0  0  0  0
  161.3270  206.4590  147.0010 C   0  0  0  0  0  0  0  0  0  0  0  0
  161.2820  206.8880  145.6710 C   0  0  0  0  0  3  0  0  0  0  0  0
  162.4610  205.8920  153.6570 O   0  0  0  0  0  0  0  0  0  0  0  0
  161.4610  206.5970  153.3480 C   0  0  0  0  0  0  0  0  0  0  0  0
  160.7850  206.3590  152.1090 N   0  0  0  0  0  2  0  0  0  0  0  0
  160.0500  209.6340  156.0340 C   0  0  0  0  0  0  0  0  0  0  0  0
  160.3750  207.3080  155.4630 C   0  0  0  0  0  3  0  0  0  0  0  0
  161.7180  209.4600  152.7570 O   0  0  0  0  0  1  0  0  0  0  0  0
  159.5990  210.5810  156.8930 F   0  0  0  0  0  0  0  0  0  0  0  0
  159.9100  208.2830  156.3500 C   0  0  0  0  0  3  0  0  0  0  0  0
  161.1220  209.0420  153.9410 C   0  0  0  0  0  0  0  0  0  0  0  0
  160.9850  207.6700  154.2520 C   0  0  0  0  0  0  0  0  0  0  0  0
  160.6540  210.0120  154.8340 C   0  0  0  0  0  3  0  0  0  0  0  0
  1  6  1  0  0  0  0
  2  5  1  0  0  0  0
  2 13  1  0  0  0  0
  3  2  1  0  0  0  0
  4  7  1  0  0  0  0
  5 14  1  6  0  0  0
  5 16  1  0  0  0  0
  6 17  1  0  0  0  0
  7  3  2  0  0  0  0
  8 12  1  0  0  0  0
  8 23  1  1  0  0  0
  9  1  1  0  0  0  0
 10 18  1  0  0  0  0
 11  4  1  0  0  0  0
 13 18  1  6  0  0  0
 13  8  1  0  0  0  0
 14  1  2  0  0  0  0
 15  4  2  0  0  0  0
 15 20  1  0  0  0  0
 16 17  1  1  0  0  0
 16 12  1  0  0  0  0
 19  3  1  0  0  0  0
 19 10  1  0  0  0  0
 20 19  2  0  0  0  0
 22 21  2  0  0  0  0
 22 30  1  0  0  0  0
 23 22  1  0  0  0  0
 24 28  1  0  0  0  0
 24 27  1  0  0  0  0
 25 28  2  0  0  0  0
 26 29  1  0  0  0  0
 29 30  2  0  0  0  0
 29 31  1  0  0  0  0
 30 25  1  0  0  0  0
 31 24  2  0  0  0  0
M  END
>  <MODEL>
1

>  <REMARK>
 VINA RESULT:      -6.7      0.000      0.000
  Name = 
  2 active torsions:
  status: ('A' for Active; 'I' for Inactive)
    1  A    between atoms: C_9  and  C_22
    2  A    between atoms: C_15  and  N_23
                            x       y       z     vdW  Elec       q    Type
                         _______ _______ _______ _____ _____    ______ ____

>  <TORSDO>
F 2

$$$$
=
 OpenBabel11052422363D

 31 35  0  0  1  0  0  0  0  0999 V2000
  161.2120  201.2660  149.2370 C   0  0  0  0  0  0  0  0  0  0  0  0
  161.1480  204.9640  148.8360 N   0  0  0  0  0  0  0  0  0  0  0  0
  161.1460  205.2260  147.4070 C   0  0  0  0  0  0  0  0  0  0  0  0
  160.6240  204.5600  145.1200 C   0  0  0  0  0  0  0  0  0  0  0  0
  160.6720  203.6680  149.3800 C   0  0  1  0  0  3  0  0  0  0  0  0
  160.7760  201.1190  150.5660 O   0  0  0  0  0  0  0  0  0  0  0  0
  160.6110  204.3020  146.4920 C   0  0  0  0  0  3  0  0  0  0  0  0
  161.4150  205.8550  151.2000 C   0  0  1  0  0  3  0  0  0  0  0  0
  161.7090  200.0810  148.4900 C   0  0  0  0  0  1  0  0  0  0  0  0
  162.1560  207.5240  147.8300 C   0  0  0  0  0  2  0  0  0  0  0  0
  160.0620  203.5640  144.1720 C   0  0  0  0  0  1  0  0  0  0  0  0
  160.5110  204.7160  151.6270 C   0  0  0  0  0  2  0  0  0  0  0  0
  161.2600  206.1580  149.7040 C   0  0  1  0  0  3  0  0  0  0  0  0
  161.2310  202.4690  148.6550 C   0  0  0  0  0  3  0  0  0  0  0  0
  161.1630  205.7530  144.6400 C   0  0  0  0  0  3  0  0  0  0  0  0
  160.9750  203.5050  150.8670 C   0  0  1  0  0  3  0  0  0  0  0  0
  160.3010  202.2250  151.3440 C   0  0  0  0  0  2  0  0  0  0  0  0
  162.4310  207.0110  149.2380 C   0  0  0  0  0  2  0  0  0  0  0  0
  161.6830  206.4370  146.9080 C   0  0  0  0  0  0  0  0  0  0  0  0
  161.6830  206.6920  145.5320 C   0  0  0  0  0  3  0  0  0  0  0  0
  161.8510  206.1580  153.9960 O   0  0  0  0  0  0  0  0  0  0  0  0
  161.3370  207.1350  153.3860 C   0  0  0  0  0  0  0  0  0  0  0  0
  161.1070  207.0470  151.9760 N   0  0  0  0  0  2  0  0  0  0  0  0
  160.3340  210.7800  155.4220 C   0  0  0  0  0  0  0  0  0  0  0  0
  161.3530  209.6110  153.5680 C   0  0  0  0  0  3  0  0  0  0  0  0
  159.8660  207.1640  155.9250 O   0  0  0  0  0  1  0  0  0  0  0  0
  160.0250  211.9400  156.0520 F   0  0  0  0  0  0  0  0  0  0  0  0
  161.0350  210.8070  154.2160 C   0  0  0  0  0  3  0  0  0  0  0  0
  160.2660  208.3570  155.3370 C   0  0  0  0  0  0  0  0  0  0  0  0
  160.9760  208.3740  154.1150 C   0  0  0  0  0  0  0  0  0  0  0  0
  159.9510  209.5600  155.9800 C   0  0  0  0  0  3  0  0  0  0  0  0
  1  6  1  0  0  0  0
  2  5  1  0  0  0  0
  2 13  1  0  0  0  0
  3  2  1  0  0  0  0
  4  7  1  0  0  0  0
  5 14  1  6  0  0  0
  5 16  1  0  0  0  0
  6 17  1  0  0  0  0
  7  3  2  0  0  0  0
  8 12  1  0  0  0  0
  8 23  1  1  0  0  0
  9  1  1  0  0  0  0
 10 18  1  0  0  0  0
 11  4  1  0  0  0  0
 13 18  1  6  0  0  0
 13  8  1  0  0  0  0
 14  1  2  0  0  0  0
 15  4  2  0  0  0  0
 15 20  1  0  0  0  0
 16 17  1  1  0  0  0
 16 12  1  0  0  0  0
 19  3  1  0  0  0  0
 19 10  1  0  0  0  0
 20 19  2  0  0  0  0
 22 21  2  0  0  0  0
 22 30  1  0  0  0  0
 23 22  1  0  0  0  0
 24 31  1  0  0  0  0
 24 27  1  0  0  0  0
 25 30  2  0  0  0  0
 25 28  1  0  0  0  0
 28 24  2  0  0  0  0
 29 26  1  0  0  0  0
 29 31  2  0  0  0  0
 30 29  1  0  0  0  0
M  END
>  <MODEL>
2

>  <REMARK>
 VINA RESULT:      -6.6      0.945      1.369
  Name = 
  2 active torsions:
  status: ('A' for Active; 'I' for Inactive)
    1  A    between atoms: C_9  and  C_22
    2  A    between atoms: C_15  and  N_23
                            x       y       z     vdW  Elec       q    Type
                         _______ _______ _______ _____ _____    ______ ____

>  <TORSDO>
F 2

$$$$
=
 OpenBabel11052422363D

 31 35  0  0  1  0  0  0  0  0999 V2000
  160.7910  205.5190  145.9290 C   0  0  0  0  0  0  0  0  0  0  0  0
  161.2060  204.6160  149.5140 N   0  0  0  0  0  0  0  0  0  0  0  0
  161.1430  203.1660  149.5860 C   0  0  0  0  0  0  0  0  0  0  0  0
  161.4480  200.9680  148.5760 C   0  0  0  0  0  0  0  0  0  0  0  0
  161.5810  205.3070  148.2560 C   0  0  1  0  0  3  0  0  0  0  0  0
  161.2940  206.8320  145.9100 O   0  0  0  0  0  0  0  0  0  0  0  0
  161.5220  202.3600  148.4980 C   0  0  0  0  0  3  0  0  0  0  0  0
  161.1820  206.8470  150.7300 C   0  0  1  0  0  3  0  0  0  0  0  0
  160.1290  204.9670  144.7190 C   0  0  0  0  0  1  0  0  0  0  0  0
  160.4010  203.3220  152.0160 C   0  0  0  0  0  2  0  0  0  0  0  0
  161.8440  200.1380  147.4090 C   0  0  0  0  0  1  0  0  0  0  0  0
  161.9920  207.3800  149.5640 C   0  0  0  0  0  2  0  0  0  0  0  0
  161.2720  205.3180  150.8170 C   0  0  1  0  0  3  0  0  0  0  0  0
  160.8580  204.7810  147.0420 C   0  0  0  0  0  3  0  0  0  0  0  0
  161.0030  200.3570  149.7480 C   0  0  0  0  0  3  0  0  0  0  0  0
  161.3590  206.8150  148.3220 C   0  0  1  0  0  3  0  0  0  0  0  0
  161.9280  207.4280  147.0490 C   0  0  0  0  0  2  0  0  0  0  0  0
  160.1660  204.7980  151.7250 C   0  0  0  0  0  2  0  0  0  0  0  0
  160.7010  202.5340  150.7740 C   0  0  0  0  0  0  0  0  0  0  0  0
  160.6390  201.1390  150.8460 C   0  0  0  0  0  3  0  0  0  0  0  0
  160.0580  209.1280  152.0060 O   0  0  0  0  0  0  0  0  0  0  0  0
  161.0590  208.5960  152.5600 C   0  0  0  0  0  0  0  0  0  0  0  0
  161.6590  207.4370  151.9720 N   0  0  0  0  0  2  0  0  0  0  0  0
  162.7130  210.2940  156.1400 C   0  0  0  0  0  0  0  0  0  0  0  0
  162.4020  210.3160  153.7430 C   0  0  0  0  0  3  0  0  0  0  0  0
  160.6100  207.4190  155.2100 O   0  0  0  0  0  1  0  0  0  0  0  0
  163.2420  210.8420  157.2610 F   0  0  0  0  0  0  0  0  0  0  0  0
  162.9490  210.8820  154.8980 C   0  0  0  0  0  3  0  0  0  0  0  0
  161.3820  208.5670  155.0780 C   0  0  0  0  0  0  0  0  0  0  0  0
  161.6150  209.1560  153.8140 C   0  0  0  0  0  0  0  0  0  0  0  0
  161.9320  209.1400  156.2300 C   0  0  0  0  0  3  0  0  0  0  0  0
  1 14  2  0  0  0  0
  2  3  1  0  0  0  0
  2 13  1  0  0  0  0
  3 19  1  0  0  0  0
  4 15  2  0  0  0  0
  5 14  1  6  0  0  0
  5 16  1  0  0  0  0
  5  2  1  0  0  0  0
  6  1  1  0  0  0  0
  6 17  1  0  0  0  0
  7  4  1  0  0  0  0
  7  3  2  0  0  0  0
  8 13  1  0  0  0  0
  8 23  1  1  0  0  0
  9  1  1  0  0  0  0
 11  4  1  0  0  0  0
 12  8  1  0  0  0  0
 13 18  1  1  0  0  0
 15 20  1  0  0  0  0
 16 17  1  6  0  0  0
 16 12  1  0  0  0  0
 18 10  1  0  0  0  0
 19 20  2  0  0  0  0
 19 10  1  0  0  0  0
 21 22  2  0  0  0  0
 22 30  1  0  0  0  0
 23 22  1  0  0  0  0
 24 31  1  0  0  0  0
 24 27  1  0  0  0  0
 25 30  2  0  0  0  0
 25 28  1  0  0  0  0
 28 24  2  0  0  0  0
 29 26  1  0  0  0  0
 29 31  2  0  0  0  0
 30 29  1  0  0  0  0
M  END
>  <MODEL>
3

>  <REMARK>
 VINA RESULT:      -6.0      1.945      4.397
  Name = 
  2 active torsions:
  status: ('A' for Active; 'I' for Inactive)
    1  A    between atoms: C_9  and  C_22
    2  A    between atoms: C_15  and  N_23
                            x       y       z     vdW  Elec       q    Type
                         _______ _______ _______ _____ _____    ______ ____

>  <TORSDO>
F 2

$$$$
=
 OpenBabel11052422363D

 31 35  0  0  1  0  0  0  0  0999 V2000
  161.6840  212.9870  148.9390 C   0  0  0  0  0  0  0  0  0  0  0  0
  160.9260  210.1940  151.2770 N   0  0  0  0  0  0  0  0  0  0  0  0
  160.2000  210.7750  152.3940 C   0  0  0  0  0  0  0  0  0  0  0  0
  158.7390  212.4920  153.3240 C   0  0  0  0  0  0  0  0  0  0  0  0
  160.9540  210.8590  149.9510 C   0  0  1  0  0  3  0  0  0  0  0  0
  161.9660  212.2900  147.7500 O   0  0  0  0  0  0  0  0  0  0  0  0
  159.4240  211.9370  152.2410 C   0  0  0  0  0  3  0  0  0  0  0  0
  162.1730  208.2070  150.3050 C   0  0  1  0  0  3  0  0  0  0  0  0
  161.9180  214.4520  149.0050 C   0  0  0  0  0  1  0  0  0  0  0  0
  160.9620  208.8560  153.8830 C   0  0  0  0  0  2  0  0  0  0  0  0
  157.9330  213.7270  153.1390 C   0  0  0  0  0  1  0  0  0  0  0  0
  161.7520  208.7320  148.9460 C   0  0  0  0  0  2  0  0  0  0  0  0
  161.2760  208.7630  151.4180 C   0  0  1  0  0  3  0  0  0  0  0  0
  161.2540  212.3360  150.0240 C   0  0  0  0  0  3  0  0  0  0  0  0
  158.8100  211.8860  154.5780 C   0  0  0  0  0  3  0  0  0  0  0  0
  161.9540  210.2210  148.9920 C   0  0  1  0  0  3  0  0  0  0  0  0
  161.7770  210.8740  147.6280 C   0  0  0  0  0  2  0  0  0  0  0  0
  161.9480  208.5390  152.7660 C   0  0  0  0  0  2  0  0  0  0  0  0
  160.2580  210.1650  153.6710 C   0  0  0  0  0  0  0  0  0  0  0  0
  159.5610  210.7220  154.7480 C   0  0  0  0  0  3  0  0  0  0  0  0
  160.1040  206.6360  149.1430 O   0  0  0  0  0  0  0  0  0  0  0  0
  161.0390  206.0160  149.7190 C   0  0  0  0  0  0  0  0  0  0  0  0
  162.1150  206.7520  150.3110 N   0  0  0  0  0  2  0  0  0  0  0  0
  161.0160  201.7320  150.0130 C   0  0  0  0  0  0  0  0  0  0  0  0
  160.8580  203.9180  151.0340 C   0  0  0  0  0  3  0  0  0  0  0  0
  161.3860  204.2780  147.3800 O   0  0  0  0  0  1  0  0  0  0  0  0
  161.0070  200.3820  150.1230 F   0  0  0  0  0  0  0  0  0  0  0  0
  160.8480  202.5260  151.1480 C   0  0  0  0  0  3  0  0  0  0  0  0
  161.2060  203.7230  148.6410 C   0  0  0  0  0  0  0  0  0  0  0  0
  161.0360  204.5360  149.7850 C   0  0  0  0  0  0  0  0  0  0  0  0
  161.1940  202.3300  148.7640 C   0  0  0  0  0  3  0  0  0  0  0  0
  1  9  1  0  0  0  0
  1 14  2  0  0  0  0
  2 13  1  0  0  0  0
  2  3  1  0  0  0  0
  3 19  1  0  0  0  0
  4 15  2  0  0  0  0
  5 14  1  1  0  0  0
  5  2  1  0  0  0  0
  6  1  1  0  0  0  0
  7  3  2  0  0  0  0
  7  4  1  0  0  0  0
  8 23  1  6  0  0  0
  8 13  1  0  0  0  0
 11  4  1  0  0  0  0
 12 16  1  0  0  0  0
 12  8  1  0  0  0  0
 13 18  1  1  0  0  0
 15 20  1  0  0  0  0
 16 17  1  6  0  0  0
 16  5  1  0  0  0  0
 17  6  1  0  0  0  0
 18 10  1  0  0  0  0
 19 10  1  0  0  0  0
 19 20  2  0  0  0  0
 21 22  2  0  0  0  0
 22 30  1  0  0  0  0
 22 23  1  0  0  0  0
 24 27  1  0  0  0  0
 24 28  1  0  0  0  0
 25 28  2  0  0  0  0
 26 29  1  0  0  0  0
 29 31  1  0  0  0  0
 29 30  2  0  0  0  0
 30 25  1  0  0  0  0
 31 24  2  0  0  0  0
M  END
>  <MODEL>
4

>  <REMARK>
 VINA RESULT:      -5.9      3.920      8.700
  Name = 
  2 active torsions:
  status: ('A' for Active; 'I' for Inactive)
    1  A    between atoms: C_9  and  C_22
    2  A    between atoms: C_15  and  N_23
                            x       y       z     vdW  Elec       q    Type
                         _______ _______ _______ _____ _____    ______ ____

>  <TORSDO>
F 2

$$$$
=
 OpenBabel11052422363D

 31 35  0  0  1  0  0  0  0  0999 V2000
  161.6200  202.4010  151.4030 C   0  0  0  0  0  0  0  0  0  0  0  0
  161.4160  205.7310  149.7580 N   0  0  0  0  0  0  0  0  0  0  0  0
  161.5920  205.5010  148.3340 C   0  0  0  0  0  0  0  0  0  0  0  0
  161.4160  204.0670  146.3710 C   0  0  0  0  0  0  0  0  0  0  0  0
  160.9400  204.6510  150.6580 C   0  0  1  0  0  3  0  0  0  0  0  0
  161.0180  202.6640  152.6470 O   0  0  0  0  0  0  0  0  0  0  0  0
  161.2330  204.2800  147.7380 C   0  0  0  0  0  3  0  0  0  0  0  0
  161.3180  207.3790  151.6890 C   0  0  1  0  0  3  0  0  0  0  0  0
  162.2740  201.0880  151.1650 C   0  0  0  0  0  1  0  0  0  0  0  0
  162.4150  207.8940  148.0530 C   0  0  0  0  0  2  0  0  0  0  0  0
  161.0380  202.7630  145.7650 C   0  0  0  0  0  1  0  0  0  0  0  0
  160.4250  206.3670  152.3800 C   0  0  0  0  0  2  0  0  0  0  0  0
  161.3480  207.1520  150.1730 C   0  0  1  0  0  3  0  0  0  0  0  0
  161.6530  203.3380  150.4510 C   0  0  0  0  0  3  0  0  0  0  0  0
  161.9510  205.0780  145.5720 C   0  0  0  0  0  3  0  0  0  0  0  0
  161.0500  205.0210  152.1340 C   0  0  1  0  0  3  0  0  0  0  0  0
  160.3860  203.9160  152.9440 C   0  0  0  0  0  2  0  0  0  0  0  0
  162.5250  207.9070  149.5720 C   0  0  0  0  0  2  0  0  0  0  0  0
  162.1270  206.5230  147.5120 C   0  0  0  0  0  0  0  0  0  0  0  0
  162.2980  206.3040  146.1410 C   0  0  0  0  0  3  0  0  0  0  0  0
  160.7950  208.4290  154.2820 O   0  0  0  0  0  0  0  0  0  0  0  0
  160.5880  209.1940  153.3010 C   0  0  0  0  0  0  0  0  0  0  0  0
  160.8470  208.7270  151.9730 N   0  0  0  0  0  2  0  0  0  0  0  0
  159.0960  213.1880  153.8120 C   0  0  0  0  0  0  0  0  0  0  0  0
  159.4180  211.2130  152.4560 C   0  0  0  0  0  3  0  0  0  0  0  0
  160.9070  210.6820  155.8110 O   0  0  0  0  0  1  0  0  0  0  0  0
  158.6190  214.4480  153.9580 F   0  0  0  0  0  0  0  0  0  0  0  0
  158.9250  212.5130  152.6040 C   0  0  0  0  0  3  0  0  0  0  0  0
  160.2540  211.2650  154.7320 C   0  0  0  0  0  0  0  0  0  0  0  0
  160.0860  210.5730  153.5110 C   0  0  0  0  0  0  0  0  0  0  0  0
  159.7580  212.5660  154.8720 C   0  0  0  0  0  3  0  0  0  0  0  0
  1  6  1  0  0  0  0
  2 13  1  0  0  0  0
  2  5  1  0  0  0  0
  3  2  1  0  0  0  0
  4  7  2  0  0  0  0
  5 14  1  1  0  0  0
  5 16  1  0  0  0  0
  6 17  1  0  0  0  0
  7  3  1  0  0  0  0
  8 23  1  6  0  0  0
  8 12  1  0  0  0  0
  9  1  1  0  0  0  0
 10 18  1  0  0  0  0
 11  4  1  0  0  0  0
 13 18  1  1  0  0  0
 13  8  1  0  0  0  0
 14  1  2  0  0  0  0
 15 20  2  0  0  0  0
 15  4  1  0  0  0  0
 16 12  1  6  0  0  0
 16 17  1  0  0  0  0
 19 10  1  0  0  0  0
 19  3  2  0  0  0  0
 20 19  1  0  0  0  0
 22 30  1  0  0  0  0
 22 21  2  0  0  0  0
 23 22  1  0  0  0  0
 24 27  1  0  0  0  0
 24 31  1  0  0  0  0
 25 28  1  0  0  0  0
 25 30  2  0  0  0  0
 28 24  2  0  0  0  0
 29 31  2  0  0  0  0
 29 26  1  0  0  0  0
 30 29  1  0  0  0  0
M  END
>  <MODEL>
5

>  <REMARK>
 VINA RESULT:      -5.4      2.134      2.874
  Name = 
  2 active torsions:
  status: ('A' for Active; 'I' for Inactive)
    1  A    between atoms: C_9  and  C_22
    2  A    between atoms: C_15  and  N_23
                            x       y       z     vdW  Elec       q    Type
                         _______ _______ _______ _____ _____    ______ ____

>  <TORSDO>
F 2

$$$$
=
 OpenBabel11052422363D

 31 35  0  0  1  0  0  0  0  0999 V2000
  161.2210  205.8900  153.4850 C   0  0  0  0  0  0  0  0  0  0  0  0
  161.3520  206.0910  149.7730 N   0  0  0  0  0  0  0  0  0  0  0  0
  161.1850  204.7350  149.2780 C   0  0  0  0  0  0  0  0  0  0  0  0
  160.3310  202.4660  149.5320 C   0  0  0  0  0  0  0  0  0  0  0  0
  160.8650  206.4840  151.1180 C   0  0  1  0  0  3  0  0  0  0  0  0
  160.9500  207.2260  153.8300 O   0  0  0  0  0  0  0  0  0  0  0  0
  160.4770  203.7680  150.0130 C   0  0  0  0  0  3  0  0  0  0  0  0
  161.9800  208.5070  149.2980 C   0  0  1  0  0  3  0  0  0  0  0  0
  161.5380  204.9050  154.5510 C   0  0  0  0  0  1  0  0  0  0  0  0
  162.3920  205.3730  147.1290 C   0  0  0  0  0  2  0  0  0  0  0  0
  159.5870  201.4580  150.3320 C   0  0  0  0  0  1  0  0  0  0  0  0
  161.0630  208.8690  150.4500 C   0  0  0  0  0  2  0  0  0  0  0  0
  161.6540  207.1140  148.7440 C   0  0  1  0  0  3  0  0  0  0  0  0
  161.2450  205.5090  152.2040 C   0  0  0  0  0  3  0  0  0  0  0  0
  160.8830  202.1100  148.3010 C   0  0  0  0  0  3  0  0  0  0  0  0
  161.3440  207.8700  151.5380 C   0  0  1  0  0  3  0  0  0  0  0  0
  160.6530  208.2270  152.8470 C   0  0  0  0  0  2  0  0  0  0  0  0
  162.8100  206.6310  147.8800 C   0  0  0  0  0  2  0  0  0  0  0  0
  161.7340  204.3640  148.0260 C   0  0  0  0  0  0  0  0  0  0  0  0
  161.5740  203.0600  147.5480 C   0  0  0  0  0  3  0  0  0  0  0  0
  161.7360  211.3150  149.6870 O   0  0  0  0  0  0  0  0  0  0  0  0
  161.7210  210.8980  148.4970 C   0  0  0  0  0  0  0  0  0  0  0  0
  161.8540  209.4960  148.2370 N   0  0  0  0  0  2  0  0  0  0  0  0
  161.1940  213.6040  145.2050 C   0  0  0  0  0  0  0  0  0  0  0  0
  160.3670  211.8490  146.6460 C   0  0  0  0  0  3  0  0  0  0  0  0
  163.8100  212.7830  147.6630 O   0  0  0  0  0  1  0  0  0  0  0  0
  161.0130  214.4520  144.1640 F   0  0  0  0  0  0  0  0  0  0  0  0
  160.1780  212.7220  145.5720 C   0  0  0  0  0  3  0  0  0  0  0  0
  162.5960  212.7410  146.9870 C   0  0  0  0  0  0  0  0  0  0  0  0
  161.5720  211.8440  147.3660 C   0  0  0  0  0  0  0  0  0  0  0  0
  162.3990  213.6140  145.9100 C   0  0  0  0  0  3  0  0  0  0  0  0
  1  6  1  0  0  0  0
  1  9  1  0  0  0  0
  2  5  1  0  0  0  0
  3  2  1  0  0  0  0
  3  7  1  0  0  0  0
  4  7  2  0  0  0  0
  4 11  1  0  0  0  0
  5 16  1  0  0  0  0
  5 14  1  1  0  0  0
  8 23  1  6  0  0  0
  8 12  1  0  0  0  0
 10 18  1  0  0  0  0
 10 19  1  0  0  0  0
 13 18  1  1  0  0  0
 13  8  1  0  0  0  0
 13  2  1  0  0  0  0
 14  1  2  0  0  0  0
 15  4  1  0  0  0  0
 16 12  1  6  0  0  0
 16 17  1  0  0  0  0
 17  6  1  0  0  0  0
 19  3  2  0  0  0  0
 20 19  1  0  0  0  0
 20 15  2  0  0  0  0
 22 21  2  0  0  0  0
 23 22  1  0  0  0  0
 24 28  2  0  0  0  0
 24 31  1  0  0  0  0
 25 30  2  0  0  0  0
 27 24  1  0  0  0  0
 28 25  1  0  0  0  0
 29 30  1  0  0  0  0
 29 26  1  0  0  0  0
 30 22  1  0  0  0  0
 31 29  2  0  0  0  0
M  END
>  <MODEL>
6

>  <REMARK>
 VINA RESULT:      -4.7      4.051      6.755
  Name = 
  2 active torsions:
  status: ('A' for Active; 'I' for Inactive)
    1  A    between atoms: C_9  and  C_22
    2  A    between atoms: C_15  and  N_23
                            x       y       z     vdW  Elec       q    Type
                         _______ _______ _______ _____ _____    ______ ____

>  <TORSDO>
F 2

$$$$
=
 OpenBabel11052422363D

 31 35  0  0  1  0  0  0  0  0999 V2000
  162.1370  210.7640  149.7020 C   0  0  0  0  0  0  0  0  0  0  0  0
  161.2780  207.3750  150.9740 N   0  0  0  0  0  0  0  0  0  0  0  0
  160.9560  207.5310  152.3830 C   0  0  0  0  0  0  0  0  0  0  0  0
  160.1520  208.8810  154.2470 C   0  0  0  0  0  0  0  0  0  0  0  0
  161.1760  208.5170  150.0320 C   0  0  1  0  0  3  0  0  0  0  0  0
  161.9970  210.5880  148.3140 O   0  0  0  0  0  0  0  0  0  0  0  0
  160.4490  208.7400  152.8910 C   0  0  0  0  0  3  0  0  0  0  0  0
  161.8080  205.8250  149.0340 C   0  0  1  0  0  3  0  0  0  0  0  0
  162.7060  212.0320  150.2290 C   0  0  0  0  0  1  0  0  0  0  0  0
  161.5600  205.0910  152.7870 C   0  0  0  0  0  2  0  0  0  0  0  0
  159.6270  210.1720  154.7620 C   0  0  0  0  0  1  0  0  0  0  0  0
  161.2390  206.9090  148.1390 C   0  0  0  0  0  2  0  0  0  0  0  0
  161.3170  205.9810  150.4780 C   0  0  1  0  0  3  0  0  0  0  0  0
  161.8110  209.7830  150.5500 C   0  0  0  0  0  3  0  0  0  0  0  0
  160.3480  207.8100  155.1190 C   0  0  0  0  0  3  0  0  0  0  0  0
  161.7790  208.2100  148.6650 C   0  0  1  0  0  3  0  0  0  0  0  0
  161.4700  209.3830  147.7430 C   0  0  0  0  0  2  0  0  0  0  0  0
  162.1900  205.1420  151.4010 C   0  0  0  0  0  2  0  0  0  0  0  0
  161.1430  206.4480  153.2770 C   0  0  0  0  0  0  0  0  0  0  0  0
  160.8340  206.5960  154.6330 C   0  0  0  0  0  3  0  0  0  0  0  0
  162.8240  204.6160  146.6660 O   0  0  0  0  0  0  0  0  0  0  0  0
  161.9620  203.9650  147.3170 C   0  0  0  0  0  0  0  0  0  0  0  0
  161.4250  204.5150  148.5250 N   0  0  0  0  0  2  0  0  0  0  0  0
  160.6790  200.0700  146.0460 C   0  0  0  0  0  0  0  0  0  0  0  0
  161.7570  201.5150  147.6560 C   0  0  0  0  0  3  0  0  0  0  0  0
  160.5530  203.5250  144.7810 O   0  0  0  0  0  1  0  0  0  0  0  0
  160.2810  198.8340  145.6580 F   0  0  0  0  0  0  0  0  0  0  0  0
  161.3470  200.2400  147.2590 C   0  0  0  0  0  3  0  0  0  0  0  0
  160.8290  202.4530  145.6210 C   0  0  0  0  0  0  0  0  0  0  0  0
  161.5060  202.6350  146.8490 C   0  0  0  0  0  0  0  0  0  0  0  0
  160.4210  201.1730  145.2300 C   0  0  0  0  0  3  0  0  0  0  0  0
  1  9  1  0  0  0  0
  1 14  2  0  0  0  0
  2  3  1  0  0  0  0
  3  7  2  0  0  0  0
  3 19  1  0  0  0  0
  4 11  1  0  0  0  0
  4 15  2  0  0  0  0
  5 14  1  1  0  0  0
  5  2  1  0  0  0  0
  6  1  1  0  0  0  0
  7  4  1  0  0  0  0
  8 23  1  6  0  0  0
  8 13  1  0  0  0  0
 10 19  1  0  0  0  0
 12 16  1  0  0  0  0
 12  8  1  0  0  0  0
 13  2  1  0  0  0  0
 13 18  1  1  0  0  0
 16 17  1  6  0  0  0
 16  5  1  0  0  0  0
 17  6  1  0  0  0  0
 18 10  1  0  0  0  0
 19 20  2  0  0  0  0
 20 15  1  0  0  0  0
 21 22  2  0  0  0  0
 22 23  1  0  0  0  0
 24 28  1  0  0  0  0
 26 29  1  0  0  0  0
 27 24  1  0  0  0  0
 28 25  2  0  0  0  0
 29 30  2  0  0  0  0
 30 22  1  0  0  0  0
 30 25  1  0  0  0  0
 31 29  1  0  0  0  0
 31 24  2  0  0  0  0
M  END
>  <MODEL>
7

>  <REMARK>
 VINA RESULT:      -4.7      3.810      8.947
  Name = 
  2 active torsions:
  status: ('A' for Active; 'I' for Inactive)
    1  A    between atoms: C_9  and  C_22
    2  A    between atoms: C_15  and  N_23
                            x       y       z     vdW  Elec       q    Type
                         _______ _______ _______ _____ _____    ______ ____

>  <TORSDO>
F 2

$$$$
