=
 OpenBabel11062410553D

 32 36  0  0  1  0  0  0  0  0999 V2000
  160.6260  208.7050  155.0440 C   0  0  0  0  0  0  0  0  0  0  0  0
  161.7550  206.4580  150.6570 C   0  0  0  0  0  0  0  0  0  0  0  0
  161.1980  204.2970  149.4690 C   0  0  0  0  0  0  0  0  0  0  0  0
  161.1890  203.5140  148.2280 C   0  0  0  0  0  0  0  0  0  0  0  0
  161.4750  206.9600  153.0150 C   0  0  0  0  0  0  0  0  0  0  0  0
  160.7920  208.5850  151.3430 C   0  0  0  0  0  3  0  0  0  0  0  0
  161.2920  202.0370  145.8530 C   0  0  0  0  0  3  0  0  0  0  0  0
  160.4940  209.0770  153.6940 C   0  0  0  0  0  3  0  0  0  0  0  0
  161.2110  207.7190  150.3230 C   0  0  0  0  0  0  0  0  0  0  0  0
  161.1430  208.1930  148.8950 C   0  0  2  0  0  3  0  0  0  0  0  0
  162.3910  206.1520  148.2870 N   0  0  2  0  0  0  0  0  0  0  0  0
  160.5290  201.5750  146.9300 C   0  0  0  0  0  3  0  0  0  0  0  0
  161.1820  207.4610  155.3650 C   0  0  0  0  0  3  0  0  0  0  0  0
  160.9140  208.2120  152.6820 C   0  0  0  0  0  0  0  0  0  0  0  0
  160.4780  202.3120  148.1190 C   0  0  0  0  0  3  0  0  0  0  0  0
  161.6050  206.5910  154.3550 C   0  0  0  0  0  3  0  0  0  0  0  0
  161.2840  207.0440  147.8930 C   0  0  1  0  0  3  0  0  0  0  0  0
  162.6380  205.2240  147.2500 N   0  0  0  0  0  2  0  0  0  0  0  0
  161.8880  206.0920  152.0030 C   0  0  0  0  0  3  0  0  0  0  0  0
  160.4820  203.9460  150.4460 O   0  0  0  0  0  0  0  0  0  0  0  0
  161.9990  203.2390  145.9590 C   0  0  0  0  0  3  0  0  0  0  0  0
  162.1520  205.4720  149.5830 C   0  0  1  0  0  3  0  0  0  0  0  0
  161.9380  203.9800  147.1410 C   0  0  0  0  0  0  0  0  0  0  0  0
  163.0060  209.9880  148.4410 N   0  0  0  0  0  0  0  0  0  0  0  0
  162.1850  209.1970  148.6410 C   0  0  0  0  0  0  0  0  0  0  0  0
  159.8030  206.3330  146.4060 C   0  0  0  0  0  1  0  0  0  0  0  0
  160.0700  206.3560  147.7750 O   0  0  0  0  0  0  0  0  0  0  0  0
  159.3180  210.5020  155.9500 C   0  0  0  0  0  3  0  0  0  0  0  0
  160.2040  209.5690  156.1050 N   0  0  0  0  0  0  0  0  0  0  0  0
  158.9240  211.3690  157.0950 C   0  0  0  0  0  3  0  0  0  0  0  0
  157.4800  211.7890  156.9310 C   0  0  0  0  0  1  0  0  0  0  0  0
  159.8020  212.6040  157.1400 C   0  0  0  0  0  1  0  0  0  0  0  0
  1 13  1  0  0  0  0
  1 29  1  0  0  0  0
  2 19  1  0  0  0  0
  3 20  2  0  0  0  0
  4  3  1  0  0  0  0
  5 16  1  0  0  0  0
  6 14  2  0  0  0  0
  7 21  2  0  0  0  0
  7 12  1  0  0  0  0
  8  1  2  0  0  0  0
  9  2  2  0  0  0  0
  9  6  1  0  0  0  0
 10 25  1  6  0  0  0
 10  9  1  0  0  0  0
 11 18  1  6  0  0  0
 11 22  1  0  0  0  0
 12 15  2  0  0  0  0
 14  5  1  0  0  0  0
 14  8  1  0  0  0  0
 15  4  1  0  0  0  0
 16 13  2  0  0  0  0
 17 27  1  1  0  0  0
 17 11  1  0  0  0  0
 17 10  1  0  0  0  0
 19  5  2  0  0  0  0
 21 23  1  0  0  0  0
 22  3  1  6  0  0  0
 22  2  1  0  0  0  0
 23 18  1  0  0  0  0
 23  4  2  0  0  0  0
 24 25  3  0  0  0  0
 26 27  1  0  0  0  0
 28 29  2  0  0  0  0
 28 30  1  0  0  0  0
 30 32  1  0  0  0  0
 31 30  1  0  0  0  0
M  END
>  <MODEL>
1

>  <REMARK>
 VINA RESULT:      -6.2      0.000      0.000
  Name = 
  4 active torsions:
  status: ('A' for Active; 'I' for Inactive)
    1  A    between atoms: C_1  and  C_10
    2  A    between atoms: C_2  and  N_24
    3  A    between atoms: C_13  and  C_15
    4  A    between atoms: O_25  and  C_26
                            x       y       z     vdW  Elec       q    Type
                         _______ _______ _______ _____ _____    ______ ____

>  <TORSDO>
F 4

$$$$
=
 OpenBabel11062410553D

 32 36  0  0  1  0  0  0  0  0999 V2000
  161.4300  205.1640  150.3230 C   0  0  0  0  0  0  0  0  0  0  0  0
  160.6680  209.1800  153.3000 C   0  0  0  0  0  0  0  0  0  0  0  0
  159.1090  211.1670  153.3900 C   0  0  0  0  0  0  0  0  0  0  0  0
  158.5420  212.2840  154.1560 C   0  0  0  0  0  0  0  0  0  0  0  0
  161.1110  207.7370  151.3990 C   0  0  0  0  0  0  0  0  0  0  0  0
  160.7330  206.7650  153.5920 C   0  0  0  0  0  3  0  0  0  0  0  0
  157.5740  214.4530  155.6350 C   0  0  0  0  0  3  0  0  0  0  0  0
  161.1550  205.3260  151.6920 C   0  0  0  0  0  3  0  0  0  0  0  0
  160.5700  208.0460  154.1380 C   0  0  0  0  0  0  0  0  0  0  0  0
  160.3750  208.1820  155.6250 C   0  0  2  0  0  3  0  0  0  0  0  0
  160.6160  210.6180  155.3110 N   0  0  2  0  0  0  0  0  0  0  0  0
  156.9480  214.0880  154.4400 C   0  0  0  0  0  3  0  0  0  0  0  0
  161.5410  206.2940  149.5040 C   0  0  0  0  0  3  0  0  0  0  0  0
  160.9950  206.6040  152.2320 C   0  0  0  0  0  0  0  0  0  0  0  0
  157.4310  213.0040  153.6980 C   0  0  0  0  0  3  0  0  0  0  0  0
  161.3840  207.5770  150.0380 C   0  0  0  0  0  3  0  0  0  0  0  0
  159.8600  209.5680  156.0200 C   0  0  1  0  0  3  0  0  0  0  0  0
  160.2710  211.8830  155.8380 N   0  0  0  0  0  2  0  0  0  0  0  0
  160.9450  209.0150  151.9360 C   0  0  0  0  0  3  0  0  0  0  0  0
  158.5440  210.7700  152.3350 O   0  0  0  0  0  0  0  0  0  0  0  0
  158.6800  213.7320  156.0960 C   0  0  0  0  0  3  0  0  0  0  0  0
  160.4290  210.5700  153.8400 C   0  0  1  0  0  3  0  0  0  0  0  0
  159.1560  212.6430  155.3620 C   0  0  0  0  0  0  0  0  0  0  0  0
  162.6220  207.6880  156.8910 N   0  0  0  0  0  0  0  0  0  0  0  0
  161.6320  207.9050  156.3330 C   0  0  0  0  0  0  0  0  0  0  0  0
  157.9400  210.1190  156.9800 C   0  0  0  0  0  1  0  0  0  0  0  0
  158.4830  209.6580  155.7800 O   0  0  0  0  0  0  0  0  0  0  0  0
  161.2160  203.5770  148.5350 C   0  0  0  0  0  3  0  0  0  0  0  0
  161.5980  203.8670  149.7390 N   0  0  0  0  0  0  0  0  0  0  0  0
  161.4180  202.2080  147.9860 C   0  0  0  0  0  3  0  0  0  0  0  0
  160.8740  202.1480  146.5760 C   0  0  0  0  0  1  0  0  0  0  0  0
  160.6940  201.1900  148.8460 C   0  0  0  0  0  1  0  0  0  0  0  0
  1  8  1  0  0  0  0
  2  9  1  0  0  0  0
  3 22  1  0  0  0  0
  3  4  1  0  0  0  0
  4 23  1  0  0  0  0
  5 19  1  0  0  0  0
  5 14  1  0  0  0  0
  6  9  2  0  0  0  0
  7 21  1  0  0  0  0
  8 14  2  0  0  0  0
  9 10  1  0  0  0  0
 10 17  1  0  0  0  0
 10 25  1  1  0  0  0
 11 18  1  1  0  0  0
 11 17  1  0  0  0  0
 12  7  2  0  0  0  0
 13 16  1  0  0  0  0
 13  1  2  0  0  0  0
 14  6  1  0  0  0  0
 15  4  2  0  0  0  0
 15 12  1  0  0  0  0
 16  5  2  0  0  0  0
 17 27  1  6  0  0  0
 19  2  2  0  0  0  0
 20  3  2  0  0  0  0
 22  2  1  1  0  0  0
 22 11  1  0  0  0  0
 23 18  1  0  0  0  0
 23 21  2  0  0  0  0
 25 24  3  0  0  0  0
 27 26  1  0  0  0  0
 28 29  2  0  0  0  0
 29  1  1  0  0  0  0
 30 28  1  0  0  0  0
 30 32  1  0  0  0  0
 31 30  1  0  0  0  0
M  END
>  <MODEL>
2

>  <REMARK>
 VINA RESULT:      -5.5      2.554      9.515
  Name = 
  4 active torsions:
  status: ('A' for Active; 'I' for Inactive)
    1  A    between atoms: C_1  and  C_10
    2  A    between atoms: C_2  and  N_24
    3  A    between atoms: C_13  and  C_15
    4  A    between atoms: O_25  and  C_26
                            x       y       z     vdW  Elec       q    Type
                         _______ _______ _______ _____ _____    ______ ____

>  <TORSDO>
F 4

$$$$
=
 OpenBabel11062410553D

 32 36  0  0  1  0  0  0  0  0999 V2000
  161.6280  205.9400  149.1020 C   0  0  0  0  0  0  0  0  0  0  0  0
  161.1020  209.3270  152.8200 C   0  0  0  0  0  0  0  0  0  0  0  0
  159.8510  211.4880  153.2130 C   0  0  0  0  0  0  0  0  0  0  0  0
  159.3640  212.5030  154.1560 C   0  0  0  0  0  0  0  0  0  0  0  0
  161.5600  208.2540  150.6920 C   0  0  0  0  0  0  0  0  0  0  0  0
  160.7770  206.9290  152.5710 C   0  0  0  0  0  3  0  0  0  0  0  0
  158.5490  214.4530  155.9890 C   0  0  0  0  0  3  0  0  0  0  0  0
  161.2140  205.8610  150.4430 C   0  0  0  0  0  3  0  0  0  0  0  0
  160.7370  208.0790  153.3720 C   0  0  0  0  0  0  0  0  0  0  0  0
  160.3830  207.9370  154.8290 C   0  0  2  0  0  3  0  0  0  0  0  0
  161.0140  210.3090  155.0880 N   0  0  2  0  0  0  0  0  0  0  0  0
  158.0280  214.4530  154.6920 C   0  0  0  0  0  3  0  0  0  0  0  0
  162.0030  207.1790  148.5690 C   0  0  0  0  0  3  0  0  0  0  0  0
  161.1780  207.0090  151.2380 C   0  0  0  0  0  0  0  0  0  0  0  0
  158.4350  213.4800  153.7730 C   0  0  0  0  0  3  0  0  0  0  0  0
  161.9700  208.3320  149.3590 C   0  0  0  0  0  3  0  0  0  0  0  0
  160.0320  209.2790  155.4760 C   0  0  1  0  0  3  0  0  0  0  0  0
  160.7970  211.4770  155.8510 N   0  0  0  0  0  2  0  0  0  0  0  0
  161.5170  209.4020  151.4830 C   0  0  0  0  0  3  0  0  0  0  0  0
  159.3670  211.4190  152.0500 O   0  0  0  0  0  0  0  0  0  0  0  0
  159.4730  213.4760  156.3730 C   0  0  0  0  0  3  0  0  0  0  0  0
  161.0050  210.5970  153.6330 C   0  0  1  0  0  3  0  0  0  0  0  0
  159.8710  212.4970  155.4600 C   0  0  0  0  0  0  0  0  0  0  0  0
  162.3630  206.8200  156.1450 N   0  0  0  0  0  0  0  0  0  0  0  0
  161.4900  207.3120  155.5650 C   0  0  0  0  0  0  0  0  0  0  0  0
  158.1090  209.9320  156.3620 C   0  0  0  0  0  1  0  0  0  0  0  0
  158.7230  209.6480  155.1420 O   0  0  0  0  0  0  0  0  0  0  0  0
  161.6720  204.8460  146.9660 C   0  0  0  0  0  3  0  0  0  0  0  0
  161.6750  204.7820  148.2610 N   0  0  0  0  0  0  0  0  0  0  0  0
  161.7210  203.6030  146.1480 C   0  0  0  0  0  3  0  0  0  0  0  0
  160.8750  203.7880  144.9070 C   0  0  0  0  0  1  0  0  0  0  0  0
  161.1880  202.4310  146.9480 C   0  0  0  0  0  1  0  0  0  0  0  0
  1  8  1  0  0  0  0
  2  9  1  0  0  0  0
  3 22  1  0  0  0  0
  3  4  1  0  0  0  0
  4 23  1  0  0  0  0
  5 14  1  0  0  0  0
  5 19  1  0  0  0  0
  6  9  2  0  0  0  0
  7 21  1  0  0  0  0
  8 14  2  0  0  0  0
  9 10  1  0  0  0  0
 10 17  1  0  0  0  0
 10 25  1  1  0  0  0
 11 17  1  0  0  0  0
 11 18  1  1  0  0  0
 12  7  2  0  0  0  0
 13  1  2  0  0  0  0
 13 16  1  0  0  0  0
 14  6  1  0  0  0  0
 15  4  2  0  0  0  0
 15 12  1  0  0  0  0
 16  5  2  0  0  0  0
 17 27  1  6  0  0  0
 19  2  2  0  0  0  0
 20  3  2  0  0  0  0
 22  2  1  6  0  0  0
 22 11  1  0  0  0  0
 23 18  1  0  0  0  0
 23 21  2  0  0  0  0
 25 24  3  0  0  0  0
 27 26  1  0  0  0  0
 28 29  2  0  0  0  0
 29  1  1  0  0  0  0
 30 32  1  0  0  0  0
 30 28  1  0  0  0  0
 31 30  1  0  0  0  0
M  END
>  <MODEL>
3

>  <REMARK>
 VINA RESULT:      -5.1      2.455      9.538
  Name = 
  4 active torsions:
  status: ('A' for Active; 'I' for Inactive)
    1  A    between atoms: C_1  and  C_10
    2  A    between atoms: C_2  and  N_24
    3  A    between atoms: C_13  and  C_15
    4  A    between atoms: O_25  and  C_26
                            x       y       z     vdW  Elec       q    Type
                         _______ _______ _______ _____ _____    ______ ____

>  <TORSDO>
F 4

$$$$
=
 OpenBabel11062410553D

 32 36  0  0  1  0  0  0  0  0999 V2000
  162.0260  211.8760  148.3370 C   0  0  0  0  0  0  0  0  0  0  0  0
  161.3820  213.3420  143.5400 C   0  0  0  0  0  0  0  0  0  0  0  0
  162.5160  212.9830  141.3100 C   0  0  0  0  0  0  0  0  0  0  0  0
  162.4660  213.0800  139.8460 C   0  0  0  0  0  0  0  0  0  0  0  0
  162.3010  212.9260  145.7470 C   0  0  0  0  0  0  0  0  0  0  0  0
  160.0390  212.2110  145.2260 C   0  0  0  0  0  3  0  0  0  0  0  0
  162.3480  213.3840  137.0670 C   0  0  0  0  0  3  0  0  0  0  0  0
  160.9640  211.7780  147.4200 C   0  0  0  0  0  3  0  0  0  0  0  0
  160.1680  212.7310  143.9300 C   0  0  0  0  0  0  0  0  0  0  0  0
  158.9760  212.6940  143.0110 C   0  0  2  0  0  3  0  0  0  0  0  0
  160.2830  214.1000  141.4590 N   0  0  2  0  0  0  0  0  0  0  0  0
  163.3580  212.6070  137.6420 C   0  0  0  0  0  3  0  0  0  0  0  0
  163.2170  212.4980  147.9470 C   0  0  0  0  0  3  0  0  0  0  0  0
  161.0970  212.2990  146.1310 C   0  0  0  0  0  0  0  0  0  0  0  0
  163.4190  212.4550  139.0320 C   0  0  0  0  0  3  0  0  0  0  0  0
  163.3560  213.0220  146.6580 C   0  0  0  0  0  3  0  0  0  0  0  0
  159.3570  212.9550  141.5520 C   0  0  1  0  0  3  0  0  0  0  0  0
  160.4590  214.4530  140.1030 N   0  0  0  0  0  2  0  0  0  0  0  0
  162.4370  213.4400  144.4570 C   0  0  0  0  0  3  0  0  0  0  0  0
  163.3780  212.2490  141.8680 O   0  0  0  0  0  0  0  0  0  0  0  0
  161.3930  214.0040  137.8790 C   0  0  0  0  0  3  0  0  0  0  0  0
  161.5810  213.8500  142.1320 C   0  0  1  0  0  3  0  0  0  0  0  0
  161.4470  213.8430  139.2650 C   0  0  0  0  0  0  0  0  0  0  0  0
  157.1810  214.4530  143.7740 N   0  0  0  0  0  0  0  0  0  0  0  0
  157.9720  213.6780  143.4390 C   0  0  0  0  0  0  0  0  0  0  0  0
  158.8980  211.3170  140.1310 C   0  0  0  0  0  1  0  0  0  0  0  0
  159.8960  211.7960  140.9800 O   0  0  0  0  0  0  0  0  0  0  0  0
  161.9900  210.0860  149.9350 C   0  0  0  0  0  3  0  0  0  0  0  0
  161.9210  211.3510  149.6650 N   0  0  0  0  0  0  0  0  0  0  0  0
  161.8730  209.6040  151.3390 C   0  0  0  0  0  3  0  0  0  0  0  0
  161.4560  208.1500  151.3360 C   0  0  0  0  0  1  0  0  0  0  0  0
  160.8350  210.4200  152.0850 C   0  0  0  0  0  1  0  0  0  0  0  0
  1 29  1  0  0  0  0
  2  9  2  0  0  0  0
  2 19  1  0  0  0  0
  3 20  2  0  0  0  0
  4  3  1  0  0  0  0
  5 14  1  0  0  0  0
  5 16  1  0  0  0  0
  6 14  2  0  0  0  0
  7 12  2  0  0  0  0
  7 21  1  0  0  0  0
  8  1  2  0  0  0  0
  9  6  1  0  0  0  0
 10 25  1  1  0  0  0
 10  9  1  0  0  0  0
 11 18  1  6  0  0  0
 11 17  1  0  0  0  0
 11 22  1  0  0  0  0
 12 15  1  0  0  0  0
 13  1  1  0  0  0  0
 14  8  1  0  0  0  0
 15  4  2  0  0  0  0
 16 13  2  0  0  0  0
 17 27  1  1  0  0  0
 17 10  1  0  0  0  0
 19  5  2  0  0  0  0
 21 23  2  0  0  0  0
 22  3  1  6  0  0  0
 22  2  1  0  0  0  0
 23  4  1  0  0  0  0
 23 18  1  0  0  0  0
 25 24  3  0  0  0  0
 26 27  1  0  0  0  0
 28 30  1  0  0  0  0
 29 28  2  0  0  0  0
 30 32  1  0  0  0  0
 31 30  1  0  0  0  0
M  END
>  <MODEL>
4

>  <REMARK>
 VINA RESULT:      -3.8      7.380     10.021
  Name = 
  4 active torsions:
  status: ('A' for Active; 'I' for Inactive)
    1  A    between atoms: C_1  and  C_10
    2  A    between atoms: C_2  and  N_24
    3  A    between atoms: C_13  and  C_15
    4  A    between atoms: O_25  and  C_26
                            x       y       z     vdW  Elec       q    Type
                         _______ _______ _______ _____ _____    ______ ____

>  <TORSDO>
F 4

$$$$
=
 OpenBabel11062410553D

 32 36  0  0  1  0  0  0  0  0999 V2000
  161.3250  203.6350  148.3790 C   0  0  0  0  0  0  0  0  0  0  0  0
  160.9010  207.6340  151.4450 C   0  0  0  0  0  0  0  0  0  0  0  0
  161.2060  208.1430  153.9020 C   0  0  0  0  0  0  0  0  0  0  0  0
  161.3560  209.1410  154.9680 C   0  0  0  0  0  0  0  0  0  0  0  0
  160.6510  205.4540  150.4100 C   0  0  0  0  0  0  0  0  0  0  0  0
  162.1380  207.0990  149.4190 C   0  0  0  0  0  3  0  0  0  0  0  0
  161.5350  211.0930  156.9650 C   0  0  0  0  0  3  0  0  0  0  0  0
  161.9040  204.9170  148.3980 C   0  0  0  0  0  3  0  0  0  0  0  0
  161.8090  208.0130  150.4300 C   0  0  0  0  0  0  0  0  0  0  0  0
  162.3740  209.4070  150.3600 C   0  0  2  0  0  3  0  0  0  0  0  0
  160.8730  209.9780  152.2340 N   0  0  2  0  0  0  0  0  0  0  0  0
  161.8410  209.7620  157.2610 C   0  0  0  0  0  3  0  0  0  0  0  0
  160.4140  203.2760  149.3800 C   0  0  0  0  0  3  0  0  0  0  0  0
  161.5710  205.8240  149.4060 C   0  0  0  0  0  0  0  0  0  0  0  0
  161.7510  208.7840  156.2640 C   0  0  0  0  0  3  0  0  0  0  0  0
  160.0770  204.1800  150.3920 C   0  0  0  0  0  3  0  0  0  0  0  0
  162.2290  210.1610  151.6840 C   0  0  1  0  0  3  0  0  0  0  0  0
  160.6920  210.8400  153.3390 N   0  0  0  0  0  2  0  0  0  0  0  0
  160.3240  206.3570  151.4220 C   0  0  0  0  0  3  0  0  0  0  0  0
  161.5230  206.9400  154.1110 O   0  0  0  0  0  0  0  0  0  0  0  0
  161.1450  211.4520  155.6710 C   0  0  0  0  0  3  0  0  0  0  0  0
  160.5780  208.5670  152.5880 C   0  0  1  0  0  3  0  0  0  0  0  0
  161.0660  210.4780  154.6720 C   0  0  0  0  0  0  0  0  0  0  0  0
  161.2060  210.7700  148.4420 N   0  0  0  0  0  0  0  0  0  0  0  0
  161.7200  210.1690  149.2880 C   0  0  0  0  0  0  0  0  0  0  0  0
  164.1730  210.7700  152.5570 C   0  0  0  0  0  1  0  0  0  0  0  0
  163.2210  209.7510  152.5830 O   0  0  0  0  0  0  0  0  0  0  0  0
  160.8130  201.7770  146.9500 C   0  0  0  0  0  3  0  0  0  0  0  0
  161.6450  202.6820  147.3600 N   0  0  0  0  0  0  0  0  0  0  0  0
  161.2080  200.8120  145.8870 C   0  0  0  0  0  3  0  0  0  0  0  0
  160.0810  200.6810  144.8860 C   0  0  0  0  0  1  0  0  0  0  0  0
  161.4960  199.4540  146.4960 C   0  0  0  0  0  1  0  0  0  0  0  0
  1  8  2  0  0  0  0
  1 13  1  0  0  0  0
  3 20  2  0  0  0  0
  3  4  1  0  0  0  0
  4 15  1  0  0  0  0
  5 19  2  0  0  0  0
  6  9  1  0  0  0  0
  7 12  1  0  0  0  0
  8 14  1  0  0  0  0
  9  2  2  0  0  0  0
 10 25  1  6  0  0  0
 10  9  1  0  0  0  0
 10 17  1  0  0  0  0
 11 22  1  0  0  0  0
 11 18  1  1  0  0  0
 13 16  2  0  0  0  0
 14  6  2  0  0  0  0
 14  5  1  0  0  0  0
 15 12  2  0  0  0  0
 16  5  1  0  0  0  0
 17 11  1  0  0  0  0
 17 27  1  1  0  0  0
 18 23  1  0  0  0  0
 19  2  1  0  0  0  0
 21  7  2  0  0  0  0
 22  2  1  6  0  0  0
 22  3  1  0  0  0  0
 23  4  2  0  0  0  0
 23 21  1  0  0  0  0
 24 25  3  0  0  0  0
 26 27  1  0  0  0  0
 28 29  2  0  0  0  0
 29  1  1  0  0  0  0
 30 32  1  0  0  0  0
 30 28  1  0  0  0  0
 31 30  1  0  0  0  0
M  END
>  <MODEL>
5

>  <REMARK>
 VINA RESULT:      -3.5      2.388      8.837
  Name = 
  4 active torsions:
  status: ('A' for Active; 'I' for Inactive)
    1  A    between atoms: C_1  and  C_10
    2  A    between atoms: C_2  and  N_24
    3  A    between atoms: C_13  and  C_15
    4  A    between atoms: O_25  and  C_26
                            x       y       z     vdW  Elec       q    Type
                         _______ _______ _______ _____ _____    ______ ____

>  <TORSDO>
F 4

$$$$
