=
 OpenBabel11052421433D

 30 36  0  0  1  0  0  0  0  0999 V2000
  161.9370  208.0650  149.0740 C   0  0  2  0  0  3  0  0  0  0  0  0
  161.8900  205.8610  147.6780 C   0  0  0  0  0  0  0  0  0  0  0  0
  161.2530  204.3080  152.2580 N   0  0  0  0  0  2  0  0  0  0  0  0
  161.0500  208.4170  150.2630 C   0  0  2  0  0  3  0  0  0  0  0  0
  161.7710  209.1460  148.0620 C   0  0  0  0  0  3  0  0  0  0  0  0
  161.1560  212.2890  150.3040 S   0  0  0  0  0  0  0  0  0  0  0  0
  160.3120  209.0310  153.1420 C   0  0  1  0  0  3  0  0  0  0  0  0
  162.0760  210.7330  150.0010 C   0  0  2  0  0  3  0  0  0  0  0  0
  161.5400  211.5140  147.7130 N   0  0  0  0  0  2  0  0  0  0  0  0
  160.7660  207.5960  153.3880 C   0  0  2  0  0  3  0  0  0  0  0  0
  161.9600  205.5010  152.6470 C   0  0  0  0  0  0  0  0  0  0  0  0
  161.8660  210.4030  148.5260 C   0  0  0  0  0  0  0  0  0  0  0  0
  161.7660  209.5570  150.9880 C   0  0  1  0  0  3  0  0  0  0  0  0
  161.6070  204.5250  147.7410 N   0  0  0  0  0  0  0  0  0  0  0  0
  161.4510  207.6940  154.7070 C   0  0  0  0  0  2  0  0  0  0  0  0
  159.9980  209.5830  154.4000 O   0  0  0  0  0  0  0  0  0  0  0  0
  161.1130  213.7820  148.0760 O   0  0  0  0  0  0  0  0  0  0  0  0
  162.5410  206.4020  146.5330 N   0  0  0  0  0  1  0  0  0  0  0  0
  160.2150  204.1980  151.2400 C   0  0  0  0  0  2  0  0  0  0  0  0
  161.0390  203.9580  148.8490 C   0  0  0  0  0  3  0  0  0  0  0  0
  161.2540  212.6250  148.5460 C   0  0  0  0  0  0  0  0  0  0  0  0
  161.5500  206.6710  148.7640 C   0  0  0  0  0  0  0  0  0  0  0  0
  160.7420  207.0940  150.9710 C   0  0  2  0  0  3  0  0  0  0  0  0
  162.9730  205.3700  153.3820 O   0  0  0  0  0  0  0  0  0  0  0  0
  161.5550  206.9180  152.2620 C   0  0  1  0  0  3  0  0  0  0  0  0
  160.6690  208.8060  155.3750 C   0  0  0  0  0  2  0  0  0  0  0  0
  162.4980  210.3660  153.2320 C   0  0  0  0  0  1  0  0  0  0  0  0
  160.7210  204.7560  149.9570 C   0  0  0  0  0  0  0  0  0  0  0  0
  161.0010  206.1080  149.8900 C   0  0  0  0  0  0  0  0  0  0  0  0
  161.2910  209.9750  152.3900 C   0  0  2  0  0  3  0  0  0  0  0  0
  1  5  1  6  0  0  0
  1  4  1  0  0  0  0
  2 14  2  0  0  0  0
  2 22  1  0  0  0  0
  3 11  1  0  0  0  0
  4 23  1  0  0  0  0
  4 13  1  0  0  0  0
  5 12  2  0  0  0  0
  7 10  1  0  0  0  0
  7 16  1  0  0  0  0
  8  6  1  0  0  0  0
  8 13  1  0  0  0  0
  9 12  1  0  0  0  0
  9 21  1  0  0  0  0
 10 15  1  0  0  0  0
 11 24  2  0  0  0  0
 12  8  1  0  0  0  0
 13 30  1  0  0  0  0
 14 20  1  0  0  0  0
 15 26  1  0  0  0  0
 16 26  1  0  0  0  0
 17 21  2  0  0  0  0
 18  2  1  0  0  0  0
 19  3  1  0  0  0  0
 20 28  2  0  0  0  0
 21  6  1  0  0  0  0
 22  1  1  0  0  0  0
 22 29  2  0  0  0  0
 23 25  1  0  0  0  0
 25 11  1  0  0  0  0
 25 10  1  0  0  0  0
 28 19  1  0  0  0  0
 29 28  1  0  0  0  0
 29 23  1  0  0  0  0
 30  7  1  0  0  0  0
 30 27  1  0  0  0  0
M  END
>  <MODEL>
1

>  <REMARK>
 VINA RESULT:      -6.2      0.000      0.000
  Name = 
  0 active torsions:
  status: ('A' for Active; 'I' for Inactive)
                            x       y       z     vdW  Elec       q    Type
                         _______ _______ _______ _____ _____    ______ ____

>  <TORSDO>
F 0

$$$$
=
 OpenBabel11052421433D

 30 36  0  0  1  0  0  0  0  0999 V2000
  160.7880  204.4720  149.8880 C   0  0  2  0  0  3  0  0  0  0  0  0
  160.6610  202.2210  151.2000 C   0  0  0  0  0  0  0  0  0  0  0  0
  160.7900  200.8020  146.5340 N   0  0  0  0  0  2  0  0  0  0  0  0
  161.6290  204.7670  148.6500 C   0  0  2  0  0  3  0  0  0  0  0  0
  161.1540  205.4820  150.9220 C   0  0  0  0  0  3  0  0  0  0  0  0
  161.9950  208.6220  148.7520 S   0  0  0  0  0  0  0  0  0  0  0  0
  162.2390  205.4130  145.7490 C   0  0  1  0  0  3  0  0  0  0  0  0
  160.9140  207.1760  149.0670 C   0  0  2  0  0  3  0  0  0  0  0  0
  161.6960  207.7880  151.3360 N   0  0  0  0  0  2  0  0  0  0  0  0
  161.5980  204.0550  145.4870 C   0  0  2  0  0  3  0  0  0  0  0  0
  160.2090  202.0870  146.2400 C   0  0  0  0  0  0  0  0  0  0  0  0
  161.1820  206.7590  150.5100 C   0  0  0  0  0  0  0  0  0  0  0  0
  161.0100  206.0150  148.0200 C   0  0  1  0  0  3  0  0  0  0  0  0
  160.7730  200.8650  151.0700 N   0  0  0  0  0  0  0  0  0  0  0  0
  160.8410  204.2900  144.2260 C   0  0  0  0  0  2  0  0  0  0  0  0
  162.5320  205.9770  144.4920 O   0  0  0  0  0  0  0  0  0  0  0  0
  162.3720  210.0020  151.0210 O   0  0  0  0  0  0  0  0  0  0  0  0
  160.1600  202.7860  152.4070 N   0  0  0  0  0  1  0  0  0  0  0  0
  161.8740  200.5250  147.4700 C   0  0  0  0  0  2  0  0  0  0  0  0
  161.1900  200.2820  149.9050 C   0  0  0  0  0  3  0  0  0  0  0  0
  162.0580  208.8910  150.5230 C   0  0  0  0  0  0  0  0  0  0  0  0
  161.0220  203.0310  150.1200 C   0  0  0  0  0  0  0  0  0  0  0  0
  161.7240  203.4490  147.8770 C   0  0  2  0  0  3  0  0  0  0  0  0
  159.1400  202.1100  145.5760 O   0  0  0  0  0  0  0  0  0  0  0  0
  160.8100  203.4270  146.6430 C   0  0  1  0  0  3  0  0  0  0  0  0
  161.7070  205.3290  143.5410 C   0  0  0  0  0  2  0  0  0  0  0  0
  160.2330  207.0020  145.8650 C   0  0  0  0  0  1  0  0  0  0  0  0
  161.5280  201.0830  148.8050 C   0  0  0  0  0  0  0  0  0  0  0  0
  161.4200  202.4550  148.9390 C   0  0  0  0  0  0  0  0  0  0  0  0
  161.4360  206.4340  146.6020 C   0  0  2  0  0  3  0  0  0  0  0  0
  1 22  1  0  0  0  0
  1  5  1  1  0  0  0
  2 18  1  0  0  0  0
  3 19  1  0  0  0  0
  4  1  1  0  0  0  0
  6  8  1  0  0  0  0
  6 21  1  0  0  0  0
  7 30  1  0  0  0  0
  8 12  1  0  0  0  0
 10  7  1  0  0  0  0
 10 25  1  0  0  0  0
 11  3  1  0  0  0  0
 11 25  1  0  0  0  0
 12  5  2  0  0  0  0
 12  9  1  0  0  0  0
 13  4  1  0  0  0  0
 13  8  1  0  0  0  0
 14  2  1  0  0  0  0
 15 10  1  0  0  0  0
 16  7  1  0  0  0  0
 19 28  1  0  0  0  0
 20 14  2  0  0  0  0
 21 17  2  0  0  0  0
 21  9  1  0  0  0  0
 22  2  2  0  0  0  0
 23  4  1  0  0  0  0
 23 29  1  0  0  0  0
 24 11  2  0  0  0  0
 25 23  1  0  0  0  0
 26 15  1  0  0  0  0
 26 16  1  0  0  0  0
 27 30  1  0  0  0  0
 28 29  2  0  0  0  0
 28 20  1  0  0  0  0
 29 22  1  0  0  0  0
 30 13  1  0  0  0  0
M  END
>  <MODEL>
2

>  <REMARK>
 VINA RESULT:      -5.7      3.493      6.588
  Name = 
  0 active torsions:
  status: ('A' for Active; 'I' for Inactive)
                            x       y       z     vdW  Elec       q    Type
                         _______ _______ _______ _____ _____    ______ ____

>  <TORSDO>
F 0

$$$$
=
 OpenBabel11052421433D

 30 36  0  0  1  0  0  0  0  0999 V2000
  161.2320  210.0290  152.0720 C   0  0  2  0  0  3  0  0  0  0  0  0
  162.2800  207.6830  151.6260 C   0  0  0  0  0  0  0  0  0  0  0  0
  160.7150  207.3620  156.2360 N   0  0  0  0  0  2  0  0  0  0  0  0
  159.9520  210.3310  152.8440 C   0  0  2  0  0  3  0  0  0  0  0  0
  161.0830  210.6310  150.7160 C   0  0  0  0  0  3  0  0  0  0  0  0
  158.8930  213.7850  151.4460 S   0  0  0  0  0  0  0  0  0  0  0  0
  158.1950  211.3970  155.0770 C   0  0  1  0  0  3  0  0  0  0  0  0
  160.2770  212.6880  151.9360 C   0  0  2  0  0  3  0  0  0  0  0  0
  160.2880  212.5240  149.4650 N   0  0  0  0  0  2  0  0  0  0  0  0
  158.9490  210.3810  155.9280 C   0  0  2  0  0  3  0  0  0  0  0  0
  160.8790  208.7920  156.2770 C   0  0  0  0  0  0  0  0  0  0  0  0
  160.6510  211.9020  150.6830 C   0  0  0  0  0  0  0  0  0  0  0  0
  160.0320  211.8140  153.2110 C   0  0  1  0  0  3  0  0  0  0  0  0
  162.4000  206.4180  152.1310 N   0  0  0  0  0  0  0  0  0  0  0  0
  159.1210  211.1020  157.2200 C   0  0  0  0  0  2  0  0  0  0  0  0
  157.3520  212.1140  155.9480 O   0  0  0  0  0  0  0  0  0  0  0  0
  159.1190  214.4530  148.8580 O   0  0  0  0  0  0  0  0  0  0  0  0
  163.0700  208.0870  150.5130 N   0  0  0  0  0  1  0  0  0  0  0  0
  160.1330  206.5780  155.1520 C   0  0  0  0  0  2  0  0  0  0  0  0
  161.7040  206.0120  153.2370 C   0  0  0  0  0  3  0  0  0  0  0  0
  159.4390  213.6230  149.7460 C   0  0  0  0  0  0  0  0  0  0  0  0
  161.3920  208.5690  152.2400 C   0  0  0  0  0  0  0  0  0  0  0  0
  159.8400  209.2500  153.9220 C   0  0  2  0  0  3  0  0  0  0  0  0
  161.5980  209.2750  157.1900 O   0  0  0  0  0  0  0  0  0  0  0  0
  160.2170  209.7720  155.3170 C   0  0  1  0  0  3  0  0  0  0  0  0
  157.8760  211.9650  157.2540 C   0  0  0  0  0  2  0  0  0  0  0  0
  159.7440  213.4380  155.0820 C   0  0  0  0  0  1  0  0  0  0  0  0
  160.8320  206.9020  153.8790 C   0  0  0  0  0  0  0  0  0  0  0  0
  160.7070  208.1790  153.3640 C   0  0  0  0  0  0  0  0  0  0  0  0
  159.0370  212.3920  154.2320 C   0  0  2  0  0  3  0  0  0  0  0  0
  1  5  1  6  0  0  0
  1 22  1  0  0  0  0
  1  4  1  0  0  0  0
  2 14  2  0  0  0  0
  2 22  1  0  0  0  0
  3 11  1  0  0  0  0
  4 13  1  0  0  0  0
  4 23  1  0  0  0  0
  6  8  1  0  0  0  0
  7 10  1  0  0  0  0
  7 16  1  0  0  0  0
  8 13  1  0  0  0  0
  9 21  1  0  0  0  0
  9 12  1  0  0  0  0
 10 15  1  0  0  0  0
 11 24  2  0  0  0  0
 12  5  2  0  0  0  0
 12  8  1  0  0  0  0
 13 30  1  0  0  0  0
 14 20  1  0  0  0  0
 15 26  1  0  0  0  0
 16 26  1  0  0  0  0
 17 21  2  0  0  0  0
 18  2  1  0  0  0  0
 19  3  1  0  0  0  0
 20 28  2  0  0  0  0
 21  6  1  0  0  0  0
 22 29  2  0  0  0  0
 23 25  1  0  0  0  0
 25 10  1  0  0  0  0
 25 11  1  0  0  0  0
 28 19  1  0  0  0  0
 29 28  1  0  0  0  0
 29 23  1  0  0  0  0
 30  7  1  0  0  0  0
 30 27  1  0  0  0  0
M  END
>  <MODEL>
3

>  <REMARK>
 VINA RESULT:      -4.2      2.813      4.053
  Name = 
  0 active torsions:
  status: ('A' for Active; 'I' for Inactive)
                            x       y       z     vdW  Elec       q    Type
                         _______ _______ _______ _____ _____    ______ ____

>  <TORSDO>
F 0

$$$$
=
 OpenBabel11052421433D

 30 36  0  0  1  0  0  0  0  0999 V2000
  160.6430  210.0360  152.0170 C   0  0  2  0  0  3  0  0  0  0  0  0
  161.9360  210.1430  149.7540 C   0  0  0  0  0  0  0  0  0  0  0  0
  159.0310  214.0590  149.5810 N   0  0  0  0  0  2  0  0  0  0  0  0
  160.2850  211.2070  152.9270 C   0  0  2  0  0  3  0  0  0  0  0  0
  161.4140  209.0590  152.8370 C   0  0  0  0  0  3  0  0  0  0  0  0
  159.8220  209.5100  156.3780 S   0  0  0  0  0  0  0  0  0  0  0  0
  158.5290  213.2110  154.3770 C   0  0  1  0  0  3  0  0  0  0  0  0
  159.6010  209.3790  154.5640 C   0  0  2  0  0  3  0  0  0  0  0  0
  161.6050  207.9840  154.9800 N   0  0  0  0  0  2  0  0  0  0  0  0
  158.1830  213.6760  152.9660 C   0  0  2  0  0  3  0  0  0  0  0  0
  158.1670  213.3230  150.4680 C   0  0  0  0  0  0  0  0  0  0  0  0
  160.8840  208.7470  154.0310 C   0  0  0  0  0  0  0  0  0  0  0  0
  159.1660  210.6950  153.8350 C   0  0  1  0  0  3  0  0  0  0  0  0
  162.1970  210.9390  148.6740 N   0  0  0  0  0  0  0  0  0  0  0  0
  156.7330  213.9980  153.0760 C   0  0  0  0  0  2  0  0  0  0  0  0
  157.7290  213.9610  155.2620 O   0  0  0  0  0  0  0  0  0  0  0  0
  161.3940  207.5240  157.2610 O   0  0  0  0  0  0  0  0  0  0  0  0
  162.3290  208.7750  149.7480 N   0  0  0  0  0  1  0  0  0  0  0  0
  160.4840  214.1610  149.6590 C   0  0  0  0  0  2  0  0  0  0  0  0
  161.7800  212.2410  148.6170 C   0  0  0  0  0  3  0  0  0  0  0  0
  161.0560  208.2150  156.2660 C   0  0  0  0  0  0  0  0  0  0  0  0
  161.2580  210.6940  150.8450 C   0  0  0  0  0  0  0  0  0  0  0  0
  160.0740  212.4110  152.0060 C   0  0  2  0  0  3  0  0  0  0  0  0
  156.9670  213.1660  150.1220 O   0  0  0  0  0  0  0  0  0  0  0  0
  158.5870  212.7490  151.8150 C   0  0  1  0  0  3  0  0  0  0  0  0
  156.6300  214.4530  154.5170 C   0  0  0  0  0  2  0  0  0  0  0  0
  156.9200  211.2550  154.7650 C   0  0  0  0  0  1  0  0  0  0  0  0
  161.0740  212.7960  149.6930 C   0  0  0  0  0  0  0  0  0  0  0  0
  160.8160  211.9930  150.7890 C   0  0  0  0  0  0  0  0  0  0  0  0
  158.3740  211.6980  154.6930 C   0  0  2  0  0  3  0  0  0  0  0  0
  1  5  1  1  0  0  0
  1  4  1  0  0  0  0
  2 22  1  0  0  0  0
  3 19  1  0  0  0  0
  3 11  1  0  0  0  0
  4 13  1  0  0  0  0
  5 12  2  0  0  0  0
  7 30  1  0  0  0  0
  7 16  1  0  0  0  0
  8  6  1  0  0  0  0
  9 21  1  0  0  0  0
 10 15  1  0  0  0  0
 10  7  1  0  0  0  0
 11 25  1  0  0  0  0
 12  8  1  0  0  0  0
 12  9  1  0  0  0  0
 13  8  1  0  0  0  0
 13 30  1  0  0  0  0
 14  2  2  0  0  0  0
 15 26  1  0  0  0  0
 18  2  1  0  0  0  0
 19 28  1  0  0  0  0
 20 14  1  0  0  0  0
 20 28  2  0  0  0  0
 21  6  1  0  0  0  0
 21 17  2  0  0  0  0
 22  1  1  0  0  0  0
 23  4  1  0  0  0  0
 24 11  2  0  0  0  0
 25 23  1  0  0  0  0
 25 10  1  0  0  0  0
 26 16  1  0  0  0  0
 28 29  1  0  0  0  0
 29 22  2  0  0  0  0
 29 23  1  0  0  0  0
 30 27  1  0  0  0  0
M  END
>  <MODEL>
4

>  <REMARK>
 VINA RESULT:      -4.1      3.564      6.934
  Name = 
  0 active torsions:
  status: ('A' for Active; 'I' for Inactive)
                            x       y       z     vdW  Elec       q    Type
                         _______ _______ _______ _____ _____    ______ ____

>  <TORSDO>
F 0

$$$$
=
 OpenBabel11052421433D

 30 36  0  0  1  0  0  0  0  0999 V2000
  159.2560  212.5230  151.3850 C   0  0  2  0  0  3  0  0  0  0  0  0
  161.4290  211.3640  150.5270 C   0  0  0  0  0  0  0  0  0  0  0  0
  161.3960  210.3110  155.2900 N   0  0  0  0  0  2  0  0  0  0  0  0
  158.2630  211.9730  152.4040 C   0  0  2  0  0  3  0  0  0  0  0  0
  158.4890  212.8360  150.1460 C   0  0  0  0  0  3  0  0  0  0  0  0
  155.0090  213.9020  151.5700 S   0  0  0  0  0  0  0  0  0  0  0  0
  156.7290  211.7680  155.0140 C   0  0  1  0  0  3  0  0  0  0  0  0
  156.8370  213.9580  151.6880 C   0  0  2  0  0  3  0  0  0  0  0  0
  156.4460  213.7360  149.2530 N   0  0  0  0  0  2  0  0  0  0  0  0
  158.1070  211.5000  155.6090 C   0  0  2  0  0  3  0  0  0  0  0  0
  160.6250  211.5190  155.4420 C   0  0  0  0  0  0  0  0  0  0  0  0
  157.3580  213.5390  150.3170 C   0  0  0  0  0  0  0  0  0  0  0  0
  157.4640  213.1810  152.8950 C   0  0  1  0  0  3  0  0  0  0  0  0
  162.4180  210.4870  150.8740 N   0  0  0  0  0  0  0  0  0  0  0  0
  158.0440  212.2180  156.9120 C   0  0  0  0  0  2  0  0  0  0  0  0
  155.8220  211.8190  156.0910 O   0  0  0  0  0  0  0  0  0  0  0  0
  154.2310  214.4530  149.0630 O   0  0  0  0  0  0  0  0  0  0  0  0
  161.5410  212.1330  149.3340 N   0  0  0  0  0  1  0  0  0  0  0  0
  161.2330  209.2920  154.2590 C   0  0  0  0  0  2  0  0  0  0  0  0
  162.3770  209.7780  152.0430 C   0  0  0  0  0  3  0  0  0  0  0  0
  155.1740  214.0540  149.7920 C   0  0  0  0  0  0  0  0  0  0  0  0
  160.3300  211.5070  151.3770 C   0  0  0  0  0  0  0  0  0  0  0  0
  159.0800  211.1130  153.3730 C   0  0  2  0  0  3  0  0  0  0  0  0
  161.0450  212.3860  156.2510 O   0  0  0  0  0  0  0  0  0  0  0  0
  159.3160  211.8130  154.7200 C   0  0  1  0  0  3  0  0  0  0  0  0
  156.5740  212.0920  157.2580 C   0  0  0  0  0  2  0  0  0  0  0  0
  156.6040  214.3260  154.9380 C   0  0  0  0  0  1  0  0  0  0  0  0
  161.2930  209.9340  152.9180 C   0  0  0  0  0  0  0  0  0  0  0  0
  160.2900  210.8170  152.5640 C   0  0  0  0  0  0  0  0  0  0  0  0
  156.5610  213.0360  154.1320 C   0  0  2  0  0  3  0  0  0  0  0  0
  1  5  1  6  0  0  0
  1  4  1  0  0  0  0
  2 14  2  0  0  0  0
  2 22  1  0  0  0  0
  3 11  1  0  0  0  0
  4 13  1  0  0  0  0
  4 23  1  0  0  0  0
  5 12  2  0  0  0  0
  6  8  1  0  0  0  0
  7 10  1  0  0  0  0
  7 16  1  0  0  0  0
  8 13  1  0  0  0  0
  9 21  1  0  0  0  0
  9 12  1  0  0  0  0
 10 15  1  0  0  0  0
 11 24  2  0  0  0  0
 12  8  1  0  0  0  0
 13 30  1  0  0  0  0
 14 20  1  0  0  0  0
 15 26  1  0  0  0  0
 16 26  1  0  0  0  0
 17 21  2  0  0  0  0
 18  2  1  0  0  0  0
 19  3  1  0  0  0  0
 20 28  2  0  0  0  0
 21  6  1  0  0  0  0
 22  1  1  0  0  0  0
 22 29  2  0  0  0  0
 23 25  1  0  0  0  0
 25 11  1  0  0  0  0
 25 10  1  0  0  0  0
 28 19  1  0  0  0  0
 29 28  1  0  0  0  0
 29 23  1  0  0  0  0
 30 27  1  0  0  0  0
 30  7  1  0  0  0  0
M  END
>  <MODEL>
5

>  <REMARK>
 VINA RESULT:      -4.0      4.373      6.083
  Name = 
  0 active torsions:
  status: ('A' for Active; 'I' for Inactive)
                            x       y       z     vdW  Elec       q    Type
                         _______ _______ _______ _____ _____    ______ ____

>  <TORSDO>
F 0

$$$$
=
 OpenBabel11052421433D

 30 36  0  0  1  0  0  0  0  0999 V2000
  162.0790  206.7710  148.4400 C   0  0  2  0  0  3  0  0  0  0  0  0
  161.9400  204.9560  146.5720 C   0  0  0  0  0  0  0  0  0  0  0  0
  161.1360  202.4260  150.6650 N   0  0  0  0  0  2  0  0  0  0  0  0
  161.1890  206.8890  149.6740 C   0  0  2  0  0  3  0  0  0  0  0  0
  161.9890  208.0650  147.7060 C   0  0  0  0  0  3  0  0  0  0  0  0
  161.5000  210.6350  150.6100 S   0  0  0  0  0  0  0  0  0  0  0  0
  160.4300  206.8630  152.6110 C   0  0  1  0  0  3  0  0  0  0  0  0
  162.3410  209.1420  149.9610 C   0  0  2  0  0  3  0  0  0  0  0  0
  161.8910  210.4590  147.9120 N   0  0  0  0  0  2  0  0  0  0  0  0
  160.8030  205.3870  152.5220 C   0  0  2  0  0  3  0  0  0  0  0  0
  161.8980  203.4560  151.3230 C   0  0  0  0  0  0  0  0  0  0  0  0
  162.1420  209.1730  148.4480 C   0  0  0  0  0  0  0  0  0  0  0  0
  161.9510  207.7890  150.6470 C   0  0  1  0  0  3  0  0  0  0  0  0
  161.5860  203.6590  146.3230 N   0  0  0  0  0  0  0  0  0  0  0  0
  161.4670  205.1390  153.8320 C   0  0  0  0  0  2  0  0  0  0  0  0
  160.1220  207.1260  153.9610 O   0  0  0  0  0  0  0  0  0  0  0  0
  161.5780  212.6020  148.7880 O   0  0  0  0  0  0  0  0  0  0  0  0
  162.6410  205.7080  145.5880 N   0  0  0  0  0  1  0  0  0  0  0  0
  160.1120  202.6120  149.6420 C   0  0  0  0  0  2  0  0  0  0  0  0
  160.9680  202.8850  147.2660 C   0  0  0  0  0  3  0  0  0  0  0  0
  161.6490  211.3610  148.9780 C   0  0  0  0  0  0  0  0  0  0  0  0
  161.6240  205.5110  147.8150 C   0  0  0  0  0  0  0  0  0  0  0  0
  160.7980  205.4580  150.0540 C   0  0  2  0  0  3  0  0  0  0  0  0
  162.8880  203.1020  152.0150 O   0  0  0  0  0  0  0  0  0  0  0  0
  161.5750  204.9440  151.2750 C   0  0  1  0  0  3  0  0  0  0  0  0
  160.7320  206.1090  154.7340 C   0  0  0  0  0  2  0  0  0  0  0  0
  162.6810  208.0160  153.0210 C   0  0  0  0  0  1  0  0  0  0  0  0
  160.6720  203.4220  148.5260 C   0  0  0  0  0  0  0  0  0  0  0  0
  161.0250  204.7350  148.7760 C   0  0  0  0  0  0  0  0  0  0  0  0
  161.4720  207.8990  152.1050 C   0  0  2  0  0  3  0  0  0  0  0  0
  1  5  1  6  0  0  0
  1  4  1  0  0  0  0
  2 22  1  0  0  0  0
  3 11  1  0  0  0  0
  4 23  1  0  0  0  0
  4 13  1  0  0  0  0
  5 12  2  0  0  0  0
  7 16  1  0  0  0  0
  8  6  1  0  0  0  0
  8 13  1  0  0  0  0
  9 12  1  0  0  0  0
  9 21  1  0  0  0  0
 10  7  1  0  0  0  0
 10 15  1  0  0  0  0
 11 24  2  0  0  0  0
 12  8  1  0  0  0  0
 13 30  1  0  0  0  0
 14  2  2  0  0  0  0
 14 20  1  0  0  0  0
 15 26  1  0  0  0  0
 16 26  1  0  0  0  0
 17 21  2  0  0  0  0
 18  2  1  0  0  0  0
 19  3  1  0  0  0  0
 20 28  2  0  0  0  0
 21  6  1  0  0  0  0
 22  1  1  0  0  0  0
 22 29  2  0  0  0  0
 23 25  1  0  0  0  0
 25 11  1  0  0  0  0
 25 10  1  0  0  0  0
 28 29  1  0  0  0  0
 28 19  1  0  0  0  0
 29 23  1  0  0  0  0
 30  7  1  0  0  0  0
 30 27  1  0  0  0  0
M  END
>  <MODEL>
6

>  <REMARK>
 VINA RESULT:      -3.5      1.570      1.961
  Name = 
  0 active torsions:
  status: ('A' for Active; 'I' for Inactive)
                            x       y       z     vdW  Elec       q    Type
                         _______ _______ _______ _____ _____    ______ ____

>  <TORSDO>
F 0

$$$$
=
 OpenBabel11052421433D

 30 36  0  0  1  0  0  0  0  0999 V2000
  161.6570  203.4020  147.9830 C   0  0  2  0  0  3  0  0  0  0  0  0
  161.1180  201.1340  149.1540 C   0  0  0  0  0  0  0  0  0  0  0  0
  161.3330  204.2950  152.8640 N   0  0  0  0  0  2  0  0  0  0  0  0
  161.0780  204.7720  148.3240 C   0  0  2  0  0  3  0  0  0  0  0  0
  161.3770  203.1500  146.5410 C   0  0  0  0  0  3  0  0  0  0  0  0
  161.5350  206.7480  145.0240 S   0  0  0  0  0  0  0  0  0  0  0  0
  161.0260  207.6430  149.3030 C   0  0  1  0  0  3  0  0  0  0  0  0
  162.2270  205.4970  146.1690 C   0  0  2  0  0  3  0  0  0  0  0  0
  161.2900  204.1150  144.3400 N   0  0  0  0  0  2  0  0  0  0  0  0
  161.3920  207.0150  150.6440 C   0  0  2  0  0  3  0  0  0  0  0  0
  162.2100  205.0630  152.0170 C   0  0  0  0  0  0  0  0  0  0  0  0
  161.6800  204.1520  145.7000 C   0  0  0  0  0  0  0  0  0  0  0  0
  162.0300  205.7900  147.6950 C   0  0  1  0  0  3  0  0  0  0  0  0
  160.7370  200.5720  150.3400 N   0  0  0  0  0  0  0  0  0  0  0  0
  162.3470  208.0040  151.2160 C   0  0  0  0  0  2  0  0  0  0  0  0
  161.0370  209.0390  149.4890 O   0  0  0  0  0  0  0  0  0  0  0  0
  161.1530  205.6660  142.5990 O   0  0  0  0  0  0  0  0  0  0  0  0
  161.5570  200.3100  148.0800 N   0  0  0  0  0  1  0  0  0  0  0  0
  160.0960  203.6300  152.4680 C   0  0  0  0  0  2  0  0  0  0  0  0
  160.3700  201.3340  151.4160 C   0  0  0  0  0  3  0  0  0  0  0  0
  161.2870  205.4360  143.8280 C   0  0  0  0  0  0  0  0  0  0  0  0
  161.0910  202.5260  149.0300 C   0  0  0  0  0  0  0  0  0  0  0  0
  160.8110  204.7580  149.8310 C   0  0  2  0  0  3  0  0  0  0  0  0
  163.3400  205.3760  152.4740 O   0  0  0  0  0  0  0  0  0  0  0  0
  161.8600  205.5560  150.6190 C   0  0  1  0  0  3  0  0  0  0  0  0
  161.8270  209.3020  150.6340 C   0  0  0  0  0  2  0  0  0  0  0  0
  163.2910  207.8980  148.1320 C   0  0  0  0  0  1  0  0  0  0  0  0
  160.3660  202.7320  151.3130 C   0  0  0  0  0  0  0  0  0  0  0  0
  160.7450  203.3000  150.1110 C   0  0  0  0  0  0  0  0  0  0  0  0
  161.9030  207.2750  148.0750 C   0  0  2  0  0  3  0  0  0  0  0  0
  1  5  1  6  0  0  0
  1  4  1  0  0  0  0
  1 22  1  0  0  0  0
  2 14  1  0  0  0  0
  4 23  1  0  0  0  0
  6  8  1  0  0  0  0
  7 16  1  0  0  0  0
  7 10  1  0  0  0  0
  8 13  1  0  0  0  0
  9 12  1  0  0  0  0
 10 15  1  0  0  0  0
 11 24  2  0  0  0  0
 11  3  1  0  0  0  0
 12  8  1  0  0  0  0
 12  5  2  0  0  0  0
 13 30  1  0  0  0  0
 13  4  1  0  0  0  0
 14 20  2  0  0  0  0
 16 26  1  0  0  0  0
 17 21  2  0  0  0  0
 18  2  1  0  0  0  0
 19  3  1  0  0  0  0
 21  9  1  0  0  0  0
 21  6  1  0  0  0  0
 22  2  2  0  0  0  0
 22 29  1  0  0  0  0
 23 29  1  0  0  0  0
 23 25  1  0  0  0  0
 25 10  1  0  0  0  0
 25 11  1  0  0  0  0
 26 15  1  0  0  0  0
 28 20  1  0  0  0  0
 28 19  1  0  0  0  0
 29 28  2  0  0  0  0
 30 27  1  0  0  0  0
 30  7  1  0  0  0  0
M  END
>  <MODEL>
7

>  <REMARK>
 VINA RESULT:      -3.4      3.168      5.112
  Name = 
  0 active torsions:
  status: ('A' for Active; 'I' for Inactive)
                            x       y       z     vdW  Elec       q    Type
                         _______ _______ _______ _____ _____    ______ ____

>  <TORSDO>
F 0

$$$$
