=
 OpenBabel11062407583D

 34 38  0  0  1  0  0  0  0  0999 V2000
  160.5620  207.8940  154.7400 C   0  0  0  0  0  0  0  0  0  0  0  0
  162.3930  209.5750  154.5180 C   0  0  0  0  0  2  0  0  0  0  0  0
  160.9090  209.1260  152.6210 N   0  0  0  0  0  0  0  0  0  0  0  0
  161.7620  210.3490  150.6690 C   0  0  2  0  0  3  0  0  0  0  0  0
  160.3710  209.1150  156.9520 C   0  0  0  0  0  2  0  0  0  0  0  0
  162.1460  209.3730  157.2600 S   0  0  0  0  0  0  0  0  0  0  0  0
  160.8770  211.4940  152.5900 O   0  0  0  0  0  1  0  0  0  0  0  0
  160.9790  209.1990  154.0900 C   0  0  1  0  0  3  0  0  0  0  0  0
  160.1580  207.8180  156.1840 C   0  0  0  0  0  2  0  0  0  0  0  0
  161.1110  207.8680  151.9400 C   0  0  0  0  0  0  0  0  0  0  0  0
  160.6170  206.7520  154.0520 C   0  0  0  0  0  3  0  0  0  0  0  0
  162.3630  210.4150  155.7840 C   0  0  0  0  0  2  0  0  0  0  0  0
  161.7560  209.0480  149.9120 C   0  0  0  0  0  3  0  0  0  0  0  0
  161.4800  207.8720  150.4930 C   0  0  0  0  0  0  0  0  0  0  0  0
  160.7380  210.3390  151.8120 C   0  0  2  0  0  3  0  0  0  0  0  0
  160.9810  206.7310  152.6280 C   0  0  0  0  0  3  0  0  0  0  0  0
  161.0900  204.2610  149.3590 C   0  0  0  0  0  0  0  0  0  0  0  0
  161.5020  204.3440  148.0270 C   0  0  0  0  0  3  0  0  0  0  0  0
  161.5110  206.6420  149.6530 C   0  0  0  0  0  0  0  0  0  0  0  0
  161.9170  205.5690  147.5010 C   0  0  0  0  0  3  0  0  0  0  0  0
  161.0920  205.4030  150.1650 C   0  0  0  0  0  3  0  0  0  0  0  0
  161.9190  206.7100  148.3080 C   0  0  0  0  0  3  0  0  0  0  0  0
  160.5580  202.7310  150.0180 Cl  0  0  0  0  0  0  0  0  0  0  0  0
  161.6020  211.4950  149.7650 N   0  0  0  0  0  2  0  0  0  0  0  0
  162.2670  211.2510  148.4870 C   0  0  0  0  0  2  0  0  0  0  0  0
  162.1750  212.4790  147.6000 C   0  0  0  0  0  2  0  0  0  0  0  0
  161.0470  213.3760  148.0830 C   0  0  0  0  0  2  0  0  0  0  0  0
  158.3980  213.7360  149.6410 S   0  0  0  0  0  0  0  0  0  0  0  0
  159.7880  212.9900  147.4560 N   0  0  0  0  0  0  0  0  0  0  0  0
  158.5120  213.1910  148.0990 C   0  0  0  0  0  0  0  0  0  0  0  0
  157.4520  212.8210  145.9040 C   0  0  0  0  0  3  0  0  0  0  0  0
  158.6470  212.5930  145.3410 C   0  0  0  0  0  3  0  0  0  0  0  0
  159.8370  212.2490  146.1970 C   0  0  0  0  0  2  0  0  0  0  0  0
  157.2670  212.7340  147.3960 C   0  0  0  0  0  2  0  0  0  0  0  0
  1  9  1  0  0  0  0
  2 12  1  0  0  0  0
  3  8  1  0  0  0  0
  4 24  1  6  0  0  0
  4 15  1  0  0  0  0
  5  6  1  0  0  0  0
  8  2  1  6  0  0  0
  8  1  1  0  0  0  0
  9  5  1  0  0  0  0
 10  3  1  0  0  0  0
 10 16  2  0  0  0  0
 11  1  2  0  0  0  0
 12  6  1  0  0  0  0
 13 14  2  0  0  0  0
 13  4  1  0  0  0  0
 14 10  1  0  0  0  0
 15  7  1  1  0  0  0
 15  3  1  0  0  0  0
 16 11  1  0  0  0  0
 17 23  1  0  0  0  0
 17 21  1  0  0  0  0
 18 17  2  0  0  0  0
 19 21  2  0  0  0  0
 19 14  1  0  0  0  0
 20 18  1  0  0  0  0
 20 22  2  0  0  0  0
 22 19  1  0  0  0  0
 25 24  1  0  0  0  0
 26 27  1  0  0  0  0
 26 25  1  0  0  0  0
 29 27  1  0  0  0  0
 29 30  1  0  0  0  0
 30 28  2  0  0  0  0
 31 34  1  0  0  0  0
 32 31  2  0  0  0  0
 32 33  1  0  0  0  0
 33 29  1  0  0  0  0
 34 30  1  0  0  0  0
M  END
>  <MODEL>
1

>  <REMARK>
 VINA RESULT:      -8.7      0.000      0.000
  Name = 
  6 active torsions:
  status: ('A' for Active; 'I' for Inactive)
    1  A    between atoms: C_3  and  N_13
    2  A    between atoms: C_3  and  C_17
    3  A    between atoms: C_5  and  N_18
    4  A    between atoms: C_12  and  C_28
    5  A    between atoms: C_17  and  C_29
    6  A    between atoms: N_18  and  C_29
                            x       y       z     vdW  Elec       q    Type
                         _______ _______ _______ _____ _____    ______ ____

>  <TORSDO>
F 6

$$$$
=
 OpenBabel11062407583D

 34 38  0  0  1  0  0  0  0  0999 V2000
  161.5100  204.9520  151.9520 C   0  0  0  0  0  0  0  0  0  0  0  0
  160.4540  205.5110  149.7610 C   0  0  0  0  0  2  0  0  0  0  0  0
  161.8940  207.1490  150.8780 N   0  0  0  0  0  0  0  0  0  0  0  0
  161.7870  209.2550  149.6190 C   0  0  2  0  0  3  0  0  0  0  0  0
  161.8590  202.7890  150.6790 C   0  0  0  0  0  2  0  0  0  0  0  0
  160.2750  202.7560  149.7830 S   0  0  0  0  0  0  0  0  0  0  0  0
  162.7860  207.2750  148.6880 O   0  0  0  0  0  1  0  0  0  0  0  0
  161.6770  205.7110  150.6500 C   0  0  1  0  0  3  0  0  0  0  0  0
  161.6800  203.4620  152.0320 C   0  0  0  0  0  2  0  0  0  0  0  0
  161.3340  207.7980  152.0410 C   0  0  0  0  0  0  0  0  0  0  0  0
  161.1290  205.5920  153.0590 C   0  0  0  0  0  3  0  0  0  0  0  0
  160.6320  204.2910  148.8720 C   0  0  0  0  0  2  0  0  0  0  0  0
  161.4130  209.9470  150.9020 C   0  0  0  0  0  3  0  0  0  0  0  0
  161.1720  209.2830  152.0410 C   0  0  0  0  0  0  0  0  0  0  0  0
  162.5910  207.9750  149.8840 C   0  0  2  0  0  3  0  0  0  0  0  0
  160.9590  207.0510  153.0820 C   0  0  0  0  0  3  0  0  0  0  0  0
  161.3400  210.9490  155.4570 C   0  0  0  0  0  0  0  0  0  0  0  0
  160.1130  211.6140  155.5010 C   0  0  0  0  0  3  0  0  0  0  0  0
  160.8000  210.0660  153.2530 C   0  0  0  0  0  0  0  0  0  0  0  0
  159.2260  211.5110  154.4270 C   0  0  0  0  0  3  0  0  0  0  0  0
  161.6820  210.1840  154.3390 C   0  0  0  0  0  3  0  0  0  0  0  0
  159.5680  210.7440  153.3100 C   0  0  0  0  0  3  0  0  0  0  0  0
  162.4590  211.0860  156.7950 Cl  0  0  0  0  0  0  0  0  0  0  0  0
  162.4600  210.1730  148.6920 N   0  0  0  0  0  2  0  0  0  0  0  0
  162.0810  211.5590  148.9590 C   0  0  0  0  0  2  0  0  0  0  0  0
  162.3300  212.4220  147.7350 C   0  0  0  0  0  2  0  0  0  0  0  0
  161.3270  213.5630  147.7020 C   0  0  0  0  0  2  0  0  0  0  0  0
  158.8350  213.8590  149.5130 S   0  0  0  0  0  0  0  0  0  0  0  0
  160.0320  213.0870  147.2260 N   0  0  0  0  0  0  0  0  0  0  0  0
  158.8200  213.2530  147.9900 C   0  0  0  0  0  0  0  0  0  0  0  0
  157.5620  212.7340  145.9340 C   0  0  0  0  0  3  0  0  0  0  0  0
  158.7040  212.5410  145.2590 C   0  0  0  0  0  3  0  0  0  0  0  0
  159.9920  212.2950  145.9980 C   0  0  0  0  0  2  0  0  0  0  0  0
  157.5360  212.7050  147.4390 C   0  0  0  0  0  2  0  0  0  0  0  0
  1  9  1  0  0  0  0
  1 11  2  0  0  0  0
  3 10  1  0  0  0  0
  4 24  1  6  0  0  0
  4 15  1  0  0  0  0
  4 13  1  0  0  0  0
  5  9  1  0  0  0  0
  6  5  1  0  0  0  0
  8  2  1  6  0  0  0
  8  3  1  0  0  0  0
  8  1  1  0  0  0  0
 10 16  2  0  0  0  0
 11 16  1  0  0  0  0
 12  2  1  0  0  0  0
 12  6  1  0  0  0  0
 13 14  2  0  0  0  0
 14 10  1  0  0  0  0
 14 19  1  0  0  0  0
 15  7  1  6  0  0  0
 15  3  1  0  0  0  0
 17 18  1  0  0  0  0
 17 23  1  0  0  0  0
 19 22  2  0  0  0  0
 19 21  1  0  0  0  0
 20 18  2  0  0  0  0
 21 17  2  0  0  0  0
 22 20  1  0  0  0  0
 24 25  1  0  0  0  0
 26 25  1  0  0  0  0
 27 26  1  0  0  0  0
 29 27  1  0  0  0  0
 29 30  1  0  0  0  0
 30 28  2  0  0  0  0
 31 34  1  0  0  0  0
 32 31  2  0  0  0  0
 32 33  1  0  0  0  0
 33 29  1  0  0  0  0
 34 30  1  0  0  0  0
M  END
>  <MODEL>
2

>  <REMARK>
 VINA RESULT:      -8.4      3.056      5.383
  Name = 
  6 active torsions:
  status: ('A' for Active; 'I' for Inactive)
    1  A    between atoms: C_3  and  N_13
    2  A    between atoms: C_3  and  C_17
    3  A    between atoms: C_5  and  N_18
    4  A    between atoms: C_12  and  C_28
    5  A    between atoms: C_17  and  C_29
    6  A    between atoms: N_18  and  C_29
                            x       y       z     vdW  Elec       q    Type
                         _______ _______ _______ _____ _____    ______ ____

>  <TORSDO>
F 6

$$$$
=
 OpenBabel11062407583D

 34 38  0  0  1  0  0  0  0  0999 V2000
  160.4020  208.3340  155.3900 C   0  0  0  0  0  0  0  0  0  0  0  0
  162.3610  209.6750  154.6200 C   0  0  0  0  0  2  0  0  0  0  0  0
  160.8230  208.7060  152.9790 N   0  0  0  0  0  0  0  0  0  0  0  0
  161.7480  209.0870  150.7350 C   0  0  2  0  0  3  0  0  0  0  0  0
  160.3390  210.2690  157.0250 C   0  0  0  0  0  2  0  0  0  0  0  0
  162.1330  210.4760  157.2520 S   0  0  0  0  0  0  0  0  0  0  0  0
  160.9830  210.9040  152.1130 O   0  0  0  0  0  1  0  0  0  0  0  0
  160.9160  209.2870  154.3270 C   0  0  1  0  0  3  0  0  0  0  0  0
  160.0110  208.8060  156.7600 C   0  0  0  0  0  2  0  0  0  0  0  0
  160.9130  207.2770  152.7890 C   0  0  0  0  0  0  0  0  0  0  0  0
  160.3560  207.0220  155.1500 C   0  0  0  0  0  3  0  0  0  0  0  0
  162.4160  210.9080  155.5070 C   0  0  0  0  0  2  0  0  0  0  0  0
  161.6270  207.6080  150.4860 C   0  0  0  0  0  3  0  0  0  0  0  0
  161.2630  206.7390  151.4400 C   0  0  0  0  0  0  0  0  0  0  0  0
  160.7410  209.5650  151.7900 C   0  0  2  0  0  3  0  0  0  0  0  0
  160.6980  206.4700  153.8320 C   0  0  0  0  0  3  0  0  0  0  0  0
  161.1010  203.5150  149.4280 C   0  0  0  0  0  0  0  0  0  0  0  0
  161.1120  202.5550  150.4420 C   0  0  0  0  0  3  0  0  0  0  0  0
  161.1830  205.2930  151.0890 C   0  0  0  0  0  0  0  0  0  0  0  0
  161.1600  202.9550  151.7790 C   0  0  0  0  0  3  0  0  0  0  0  0
  161.1390  204.8740  149.7490 C   0  0  0  0  0  3  0  0  0  0  0  0
  161.1980  204.3150  152.1000 C   0  0  0  0  0  3  0  0  0  0  0  0
  161.0530  203.0170  147.7510 Cl  0  0  0  0  0  0  0  0  0  0  0  0
  161.6700  209.8490  149.4820 N   0  0  0  0  0  2  0  0  0  0  0  0
  162.1690  211.2100  149.6630 C   0  0  0  0  0  2  0  0  0  0  0  0
  162.2020  211.9440  148.3350 C   0  0  0  0  0  2  0  0  0  0  0  0
  161.2780  213.1490  148.3950 C   0  0  0  0  0  2  0  0  0  0  0  0
  158.5700  213.8080  149.7400 S   0  0  0  0  0  0  0  0  0  0  0  0
  160.0350  212.8710  147.6830 N   0  0  0  0  0  0  0  0  0  0  0  0
  158.7420  213.2140  148.2230 C   0  0  0  0  0  0  0  0  0  0  0  0
  157.8130  212.8900  145.9620 C   0  0  0  0  0  3  0  0  0  0  0  0
  159.0180  212.5310  145.4960 C   0  0  0  0  0  3  0  0  0  0  0  0
  160.1020  212.0950  146.4450 C   0  0  0  0  0  2  0  0  0  0  0  0
  157.5120  212.8620  147.4370 C   0  0  0  0  0  2  0  0  0  0  0  0
  1  9  1  0  0  0  0
  2 12  1  0  0  0  0
  3  8  1  0  0  0  0
  4 24  1  6  0  0  0
  4 15  1  0  0  0  0
  5  6  1  0  0  0  0
  8  2  1  1  0  0  0
  8  1  1  0  0  0  0
  9  5  1  0  0  0  0
 10  3  1  0  0  0  0
 10 16  2  0  0  0  0
 11  1  2  0  0  0  0
 12  6  1  0  0  0  0
 13  4  1  0  0  0  0
 13 14  2  0  0  0  0
 14 10  1  0  0  0  0
 15  7  1  1  0  0  0
 15  3  1  0  0  0  0
 16 11  1  0  0  0  0
 17 21  2  0  0  0  0
 17 18  1  0  0  0  0
 18 20  2  0  0  0  0
 19 14  1  0  0  0  0
 19 22  2  0  0  0  0
 20 22  1  0  0  0  0
 21 19  1  0  0  0  0
 23 17  1  0  0  0  0
 24 25  1  0  0  0  0
 26 27  1  0  0  0  0
 26 25  1  0  0  0  0
 29 30  1  0  0  0  0
 29 27  1  0  0  0  0
 30 28  2  0  0  0  0
 31 34  1  0  0  0  0
 32 31  2  0  0  0  0
 32 33  1  0  0  0  0
 33 29  1  0  0  0  0
 34 30  1  0  0  0  0
M  END
>  <MODEL>
3

>  <REMARK>
 VINA RESULT:      -8.3      1.067      1.615
  Name = 
  6 active torsions:
  status: ('A' for Active; 'I' for Inactive)
    1  A    between atoms: C_3  and  N_13
    2  A    between atoms: C_3  and  C_17
    3  A    between atoms: C_5  and  N_18
    4  A    between atoms: C_12  and  C_28
    5  A    between atoms: C_17  and  C_29
    6  A    between atoms: N_18  and  C_29
                            x       y       z     vdW  Elec       q    Type
                         _______ _______ _______ _____ _____    ______ ____

>  <TORSDO>
F 6

$$$$
=
 OpenBabel11062407583D

 34 38  0  0  1  0  0  0  0  0999 V2000
  161.4620  205.0410  151.9550 C   0  0  0  0  0  0  0  0  0  0  0  0
  160.4850  205.5780  149.7220 C   0  0  0  0  0  2  0  0  0  0  0  0
  161.8780  207.2300  150.8770 N   0  0  0  0  0  0  0  0  0  0  0  0
  161.8110  209.3240  149.5950 C   0  0  2  0  0  3  0  0  0  0  0  0
  161.8640  202.8690  150.7150 C   0  0  0  0  0  2  0  0  0  0  0  0
  160.3140  202.8230  149.7620 S   0  0  0  0  0  0  0  0  0  0  0  0
  162.8490  207.3390  148.7190 O   0  0  0  0  0  1  0  0  0  0  0  0
  161.6740  205.7900  150.6530 C   0  0  1  0  0  3  0  0  0  0  0  0
  161.6330  203.5530  152.0550 C   0  0  0  0  0  2  0  0  0  0  0  0
  161.2750  207.8880  152.0120 C   0  0  0  0  0  0  0  0  0  0  0  0
  161.0390  205.6900  153.0420 C   0  0  0  0  0  3  0  0  0  0  0  0
  160.6990  204.3510  148.8520 C   0  0  0  0  0  2  0  0  0  0  0  0
  161.3890  210.0270  150.8580 C   0  0  0  0  0  3  0  0  0  0  0  0
  161.1080  209.3720  151.9930 C   0  0  0  0  0  0  0  0  0  0  0  0
  162.6080  208.0490  149.9000 C   0  0  2  0  0  3  0  0  0  0  0  0
  160.8640  207.1480  153.0460 C   0  0  0  0  0  3  0  0  0  0  0  0
  158.9930  211.3940  154.4250 C   0  0  0  0  0  0  0  0  0  0  0  0
  159.8930  211.5910  155.4750 C   0  0  0  0  0  3  0  0  0  0  0  0
  160.6890  210.1640  153.1830 C   0  0  0  0  0  0  0  0  0  0  0  0
  161.1890  211.0790  155.3880 C   0  0  0  0  0  3  0  0  0  0  0  0
  159.3890  210.6830  153.2890 C   0  0  0  0  0  3  0  0  0  0  0  0
  161.5830  210.3680  154.2510 C   0  0  0  0  0  3  0  0  0  0  0  0
  157.3650  212.0240  154.5360 Cl  0  0  0  0  0  0  0  0  0  0  0  0
  162.5150  210.2370  148.6850 N   0  0  0  0  0  2  0  0  0  0  0  0
  161.5890  211.1910  148.0790 C   0  0  0  0  0  2  0  0  0  0  0  0
  162.0950  212.6100  148.2620 C   0  0  0  0  0  2  0  0  0  0  0  0
  161.0250  213.5950  147.8190 C   0  0  0  0  0  2  0  0  0  0  0  0
  158.0920  212.9540  147.0690 S   0  0  0  0  0  0  0  0  0  0  0  0
  159.9830  213.7030  148.8350 N   0  0  0  0  0  0  0  0  0  0  0  0
  158.6080  213.3560  148.5710 C   0  0  0  0  0  0  0  0  0  0  0  0
  158.2430  213.3290  151.0100 C   0  0  0  0  0  3  0  0  0  0  0  0
  159.5140  213.6950  151.2250 C   0  0  0  0  0  3  0  0  0  0  0  0
  160.3250  214.3150  150.1180 C   0  0  0  0  0  2  0  0  0  0  0  0
  157.5950  213.5290  149.6660 C   0  0  0  0  0  2  0  0  0  0  0  0
  1  9  1  0  0  0  0
  1 11  2  0  0  0  0
  3 10  1  0  0  0  0
  4 24  1  6  0  0  0
  4 15  1  0  0  0  0
  4 13  1  0  0  0  0
  5  9  1  0  0  0  0
  6  5  1  0  0  0  0
  8  2  1  6  0  0  0
  8  3  1  0  0  0  0
  8  1  1  0  0  0  0
 10 16  2  0  0  0  0
 11 16  1  0  0  0  0
 12  2  1  0  0  0  0
 12  6  1  0  0  0  0
 13 14  2  0  0  0  0
 14 10  1  0  0  0  0
 14 19  1  0  0  0  0
 15  7  1  6  0  0  0
 15  3  1  0  0  0  0
 17 23  1  0  0  0  0
 17 18  1  0  0  0  0
 19 21  1  0  0  0  0
 19 22  2  0  0  0  0
 20 18  2  0  0  0  0
 21 17  2  0  0  0  0
 22 20  1  0  0  0  0
 25 26  1  0  0  0  0
 25 24  1  0  0  0  0
 27 26  1  0  0  0  0
 27 29  1  0  0  0  0
 28 30  2  0  0  0  0
 29 33  1  0  0  0  0
 30 29  1  0  0  0  0
 30 34  1  0  0  0  0
 31 32  2  0  0  0  0
 33 32  1  0  0  0  0
 34 31  1  0  0  0  0
M  END
>  <MODEL>
4

>  <REMARK>
 VINA RESULT:      -8.2      3.227      5.634
  Name = 
  6 active torsions:
  status: ('A' for Active; 'I' for Inactive)
    1  A    between atoms: C_3  and  N_13
    2  A    between atoms: C_3  and  C_17
    3  A    between atoms: C_5  and  N_18
    4  A    between atoms: C_12  and  C_28
    5  A    between atoms: C_17  and  C_29
    6  A    between atoms: N_18  and  C_29
                            x       y       z     vdW  Elec       q    Type
                         _______ _______ _______ _____ _____    ______ ____

>  <TORSDO>
F 6

$$$$
=
 OpenBabel11062407583D

 34 38  0  0  1  0  0  0  0  0999 V2000
  160.7510  207.8180  154.6660 C   0  0  0  0  0  0  0  0  0  0  0  0
  162.4330  209.6570  154.5380 C   0  0  0  0  0  2  0  0  0  0  0  0
  160.9400  209.2320  152.6430 N   0  0  0  0  0  0  0  0  0  0  0  0
  161.6380  210.6670  150.7750 C   0  0  2  0  0  3  0  0  0  0  0  0
  160.5220  208.8460  156.9700 C   0  0  0  0  0  2  0  0  0  0  0  0
  162.2780  209.2270  157.2610 S   0  0  0  0  0  0  0  0  0  0  0  0
  160.7150  211.5850  152.7980 O   0  0  0  0  0  1  0  0  0  0  0  0
  161.0440  209.1990  154.1110 C   0  0  1  0  0  3  0  0  0  0  0  0
  160.3930  207.5980  156.1070 C   0  0  0  0  0  2  0  0  0  0  0  0
  161.2250  208.0520  151.8610 C   0  0  0  0  0  0  0  0  0  0  0  0
  160.8800  206.7410  153.8890 C   0  0  0  0  0  3  0  0  0  0  0  0
  162.3700  210.3930  155.8660 C   0  0  0  0  0  2  0  0  0  0  0  0
  161.7170  209.4320  149.9190 C   0  0  0  0  0  3  0  0  0  0  0  0
  161.5530  208.1960  150.4110 C   0  0  0  0  0  0  0  0  0  0  0  0
  160.6490  210.4860  151.9350 C   0  0  2  0  0  3  0  0  0  0  0  0
  161.2050  206.8580  152.4610 C   0  0  0  0  0  3  0  0  0  0  0  0
  161.2500  204.7010  148.9390 C   0  0  0  0  0  0  0  0  0  0  0  0
  161.8010  204.8880  147.6690 C   0  0  0  0  0  3  0  0  0  0  0  0
  161.6610  207.0410  149.4770 C   0  0  0  0  0  0  0  0  0  0  0  0
  162.2810  206.1450  147.2960 C   0  0  0  0  0  3  0  0  0  0  0  0
  161.1780  205.7710  149.8350 C   0  0  0  0  0  3  0  0  0  0  0  0
  162.2090  207.2140  148.1930 C   0  0  0  0  0  3  0  0  0  0  0  0
  160.6360  203.1310  149.4060 Cl  0  0  0  0  0  0  0  0  0  0  0  0
  161.3610  211.8610  149.9670 N   0  0  0  0  0  2  0  0  0  0  0  0
  161.9260  211.7300  148.6260 C   0  0  0  0  0  2  0  0  0  0  0  0
  161.0300  212.4060  147.6050 C   0  0  0  0  0  2  0  0  0  0  0  0
  161.8830  213.0740  146.5390 C   0  0  0  0  0  2  0  0  0  0  0  0
  163.4380  213.5420  143.9050 S   0  0  0  0  0  0  0  0  0  0  0  0
  161.1530  213.1520  145.2790 N   0  0  0  0  0  0  0  0  0  0  0  0
  161.8200  213.3020  144.0080 C   0  0  0  0  0  0  0  0  0  0  0  0
  159.7090  212.6280  142.9250 C   0  0  0  0  0  3  0  0  0  0  0  0
  159.1010  212.5400  144.1170 C   0  0  0  0  0  3  0  0  0  0  0  0
  159.6930  213.2170  145.3240 C   0  0  0  0  0  2  0  0  0  0  0  0
  160.9890  213.4050  142.7620 C   0  0  0  0  0  2  0  0  0  0  0  0
  1  9  1  0  0  0  0
  2 12  1  0  0  0  0
  3  8  1  0  0  0  0
  4 24  1  6  0  0  0
  4 15  1  0  0  0  0
  5  6  1  0  0  0  0
  8  2  1  6  0  0  0
  8  1  1  0  0  0  0
  9  5  1  0  0  0  0
 10 16  2  0  0  0  0
 10  3  1  0  0  0  0
 11  1  2  0  0  0  0
 12  6  1  0  0  0  0
 13 14  2  0  0  0  0
 13  4  1  0  0  0  0
 14 10  1  0  0  0  0
 15  3  1  0  0  0  0
 15  7  1  1  0  0  0
 16 11  1  0  0  0  0
 17 23  1  0  0  0  0
 17 21  1  0  0  0  0
 18 17  2  0  0  0  0
 19 21  2  0  0  0  0
 19 14  1  0  0  0  0
 20 18  1  0  0  0  0
 20 22  2  0  0  0  0
 22 19  1  0  0  0  0
 25 24  1  0  0  0  0
 26 25  1  0  0  0  0
 27 26  1  0  0  0  0
 28 30  2  0  0  0  0
 29 33  1  0  0  0  0
 29 27  1  0  0  0  0
 30 29  1  0  0  0  0
 31 32  2  0  0  0  0
 32 33  1  0  0  0  0
 34 31  1  0  0  0  0
 34 30  1  0  0  0  0
M  END
>  <MODEL>
5

>  <REMARK>
 VINA RESULT:      -8.2      1.757      2.134
  Name = 
  6 active torsions:
  status: ('A' for Active; 'I' for Inactive)
    1  A    between atoms: C_3  and  N_13
    2  A    between atoms: C_3  and  C_17
    3  A    between atoms: C_5  and  N_18
    4  A    between atoms: C_12  and  C_28
    5  A    between atoms: C_17  and  C_29
    6  A    between atoms: N_18  and  C_29
                            x       y       z     vdW  Elec       q    Type
                         _______ _______ _______ _____ _____    ______ ____

>  <TORSDO>
F 6

$$$$
=
 OpenBabel11062407583D

 34 38  0  0  1  0  0  0  0  0999 V2000
  161.6020  209.6500  154.2670 C   0  0  0  0  0  0  0  0  0  0  0  0
  160.3960  207.6680  153.3470 C   0  0  0  0  0  2  0  0  0  0  0  0
  162.0770  208.8170  151.9850 N   0  0  0  0  0  0  0  0  0  0  0  0
  162.0400  207.8410  149.7310 C   0  0  2  0  0  3  0  0  0  0  0  0
  161.6320  208.0920  156.2660 C   0  0  0  0  0  2  0  0  0  0  0  0
  159.9730  207.3730  156.0590 S   0  0  0  0  0  0  0  0  0  0  0  0
  162.7630  206.5760  151.6440 O   0  0  0  0  0  1  0  0  0  0  0  0
  161.7110  208.4390  153.3590 C   0  0  1  0  0  3  0  0  0  0  0  0
  161.6450  209.5290  155.7630 C   0  0  0  0  0  2  0  0  0  0  0  0
  161.6920  210.1020  151.4510 C   0  0  0  0  0  0  0  0  0  0  0  0
  161.3880  210.8600  153.7490 C   0  0  0  0  0  3  0  0  0  0  0  0
  160.3780  206.6230  154.4510 C   0  0  0  0  0  2  0  0  0  0  0  0
  161.8550  209.2320  149.1850 C   0  0  0  0  0  3  0  0  0  0  0  0
  161.6640  210.3010  149.9710 C   0  0  0  0  0  0  0  0  0  0  0  0
  162.7470  207.8610  151.0920 C   0  0  2  0  0  3  0  0  0  0  0  0
  161.3530  211.0790  152.2970 C   0  0  0  0  0  3  0  0  0  0  0  0
  161.8770  213.1650  147.4770 C   0  0  0  0  0  0  0  0  0  0  0  0
  161.0620  214.1220  148.0850 C   0  0  0  0  0  3  0  0  0  0  0  0
  161.4820  211.6310  149.3260 C   0  0  0  0  0  0  0  0  0  0  0  0
  160.4540  213.8420  149.3100 C   0  0  0  0  0  3  0  0  0  0  0  0
  162.0830  211.9280  148.0920 C   0  0  0  0  0  3  0  0  0  0  0  0
  160.6600  212.6040  149.9250 C   0  0  0  0  0  3  0  0  0  0  0  0
  162.6320  213.5090  145.9360 Cl  0  0  0  0  0  0  0  0  0  0  0  0
  162.7010  206.9670  148.7540 N   0  0  0  0  0  2  0  0  0  0  0  0
  161.9840  206.9660  147.4810 C   0  0  0  0  0  2  0  0  0  0  0  0
  161.0020  205.8100  147.4270 C   0  0  0  0  0  2  0  0  0  0  0  0
  161.7610  204.4940  147.4240 C   0  0  0  0  0  2  0  0  0  0  0  0
  160.9030  201.6290  146.6280 S   0  0  0  0  0  0  0  0  0  0  0  0
  161.2240  203.5960  148.4410 N   0  0  0  0  0  0  0  0  0  0  0  0
  160.8670  202.2280  148.1540 C   0  0  0  0  0  0  0  0  0  0  0  0
  160.8410  201.8200  150.5850 C   0  0  0  0  0  3  0  0  0  0  0  0
  161.1290  203.1070  150.8260 C   0  0  0  0  0  3  0  0  0  0  0  0
  160.9110  204.1470  149.7590 C   0  0  0  0  0  2  0  0  0  0  0  0
  160.2920  201.3830  149.2530 C   0  0  0  0  0  2  0  0  0  0  0  0
  1  9  1  0  0  0  0
  2 12  1  0  0  0  0
  3  8  1  0  0  0  0
  4 24  1  6  0  0  0
  4 15  1  0  0  0  0
  6  5  1  0  0  0  0
  8  2  1  6  0  0  0
  8  1  1  0  0  0  0
  9  5  1  0  0  0  0
 10  3  1  0  0  0  0
 10 16  2  0  0  0  0
 11  1  2  0  0  0  0
 12  6  1  0  0  0  0
 13  4  1  0  0  0  0
 13 14  2  0  0  0  0
 14 10  1  0  0  0  0
 15  7  1  1  0  0  0
 15  3  1  0  0  0  0
 16 11  1  0  0  0  0
 17 18  2  0  0  0  0
 17 21  1  0  0  0  0
 18 20  1  0  0  0  0
 19 22  1  0  0  0  0
 19 14  1  0  0  0  0
 20 22  2  0  0  0  0
 21 19  2  0  0  0  0
 23 17  1  0  0  0  0
 25 24  1  0  0  0  0
 26 25  1  0  0  0  0
 27 26  1  0  0  0  0
 27 29  1  0  0  0  0
 28 30  2  0  0  0  0
 29 33  1  0  0  0  0
 30 29  1  0  0  0  0
 30 34  1  0  0  0  0
 31 32  2  0  0  0  0
 33 32  1  0  0  0  0
 34 31  1  0  0  0  0
M  END
>  <MODEL>
6

>  <REMARK>
 VINA RESULT:      -8.0      3.692      7.075
  Name = 
  6 active torsions:
  status: ('A' for Active; 'I' for Inactive)
    1  A    between atoms: C_3  and  N_13
    2  A    between atoms: C_3  and  C_17
    3  A    between atoms: C_5  and  N_18
    4  A    between atoms: C_12  and  C_28
    5  A    between atoms: C_17  and  C_29
    6  A    between atoms: N_18  and  C_29
                            x       y       z     vdW  Elec       q    Type
                         _______ _______ _______ _____ _____    ______ ____

>  <TORSDO>
F 6

$$$$
=
 OpenBabel11062407583D

 34 38  0  0  1  0  0  0  0  0999 V2000
  161.5680  204.9110  151.9330 C   0  0  0  0  0  0  0  0  0  0  0  0
  160.4550  205.4420  149.7630 C   0  0  0  0  0  2  0  0  0  0  0  0
  161.8800  207.1140  150.8480 N   0  0  0  0  0  0  0  0  0  0  0  0
  161.7010  209.2140  149.5870 C   0  0  2  0  0  3  0  0  0  0  0  0
  161.9380  202.7540  150.6560 C   0  0  0  0  0  2  0  0  0  0  0  0
  160.3370  202.6840  149.7930 S   0  0  0  0  0  0  0  0  0  0  0  0
  162.7230  207.2550  148.6390 O   0  0  0  0  0  1  0  0  0  0  0  0
  161.6900  205.6710  150.6260 C   0  0  1  0  0  3  0  0  0  0  0  0
  161.7730  203.4260  152.0120 C   0  0  0  0  0  2  0  0  0  0  0  0
  161.3310  207.7530  152.0200 C   0  0  0  0  0  0  0  0  0  0  0  0
  161.1960  205.5450  153.0460 C   0  0  0  0  0  3  0  0  0  0  0  0
  160.6400  204.2250  148.8730 C   0  0  0  0  0  2  0  0  0  0  0  0
  161.3390  209.9010  150.8770 C   0  0  0  0  0  3  0  0  0  0  0  0
  161.1360  209.2340  152.0220 C   0  0  0  0  0  0  0  0  0  0  0  0
  162.5380  207.9530  149.8370 C   0  0  2  0  0  3  0  0  0  0  0  0
  160.9950  207.0000  153.0710 C   0  0  0  0  0  3  0  0  0  0  0  0
  159.1160  211.1530  154.6120 C   0  0  0  0  0  0  0  0  0  0  0  0
  160.0860  211.4090  155.5840 C   0  0  0  0  0  3  0  0  0  0  0  0
  160.7720  210.0110  153.2400 C   0  0  0  0  0  0  0  0  0  0  0  0
  161.3970  210.9690  155.3930 C   0  0  0  0  0  3  0  0  0  0  0  0
  159.4570  210.4560  153.4500 C   0  0  0  0  0  3  0  0  0  0  0  0
  161.7370  210.2730  154.2290 C   0  0  0  0  0  3  0  0  0  0  0  0
  157.4690  211.6910  154.8550 Cl  0  0  0  0  0  0  0  0  0  0  0  0
  162.3340  210.1450  148.6450 N   0  0  0  0  0  2  0  0  0  0  0  0
  162.3210  211.5100  149.1670 C   0  0  0  0  0  2  0  0  0  0  0  0
  161.3930  212.3840  148.3440 C   0  0  0  0  0  2  0  0  0  0  0  0
  162.0940  212.8120  147.0650 C   0  0  0  0  0  2  0  0  0  0  0  0
  163.1030  213.3250  144.1860 S   0  0  0  0  0  0  0  0  0  0  0  0
  161.1290  212.9600  145.9820 N   0  0  0  0  0  0  0  0  0  0  0  0
  161.5310  213.1340  144.6070 C   0  0  0  0  0  0  0  0  0  0  0  0
  159.2210  212.5710  143.9550 C   0  0  0  0  0  3  0  0  0  0  0  0
  158.8620  212.4590  145.2430 C   0  0  0  0  0  3  0  0  0  0  0  0
  159.7120  213.0720  146.3240 C   0  0  0  0  0  2  0  0  0  0  0  0
  160.4710  213.3110  143.5590 C   0  0  0  0  0  2  0  0  0  0  0  0
  1  9  1  0  0  0  0
  1 11  2  0  0  0  0
  3 10  1  0  0  0  0
  4 24  1  6  0  0  0
  4 15  1  0  0  0  0
  4 13  1  0  0  0  0
  5  9  1  0  0  0  0
  6  5  1  0  0  0  0
  8  2  1  6  0  0  0
  8  3  1  0  0  0  0
  8  1  1  0  0  0  0
 10 14  1  0  0  0  0
 10 16  2  0  0  0  0
 11 16  1  0  0  0  0
 12  2  1  0  0  0  0
 12  6  1  0  0  0  0
 13 14  2  0  0  0  0
 14 19  1  0  0  0  0
 15  7  1  6  0  0  0
 15  3  1  0  0  0  0
 17 23  1  0  0  0  0
 17 18  1  0  0  0  0
 19 21  1  0  0  0  0
 19 22  2  0  0  0  0
 20 18  2  0  0  0  0
 21 17  2  0  0  0  0
 22 20  1  0  0  0  0
 24 25  1  0  0  0  0
 26 25  1  0  0  0  0
 27 26  1  0  0  0  0
 28 30  2  0  0  0  0
 29 33  1  0  0  0  0
 29 27  1  0  0  0  0
 30 29  1  0  0  0  0
 31 32  2  0  0  0  0
 32 33  1  0  0  0  0
 34 31  1  0  0  0  0
 34 30  1  0  0  0  0
M  END
>  <MODEL>
7

>  <REMARK>
 VINA RESULT:      -7.9      3.366      5.670
  Name = 
  6 active torsions:
  status: ('A' for Active; 'I' for Inactive)
    1  A    between atoms: C_3  and  N_13
    2  A    between atoms: C_3  and  C_17
    3  A    between atoms: C_5  and  N_18
    4  A    between atoms: C_12  and  C_28
    5  A    between atoms: C_17  and  C_29
    6  A    between atoms: N_18  and  C_29
                            x       y       z     vdW  Elec       q    Type
                         _______ _______ _______ _____ _____    ______ ____

>  <TORSDO>
F 6

$$$$
=
 OpenBabel11062407583D

 34 38  0  0  1  0  0  0  0  0999 V2000
  160.3280  208.1080  155.1530 C   0  0  0  0  0  0  0  0  0  0  0  0
  162.3210  209.3450  154.3010 C   0  0  0  0  0  2  0  0  0  0  0  0
  160.8740  208.1350  152.7380 N   0  0  0  0  0  0  0  0  0  0  0  0
  161.9150  208.2010  150.5150 C   0  0  2  0  0  3  0  0  0  0  0  0
  160.1730  210.2560  156.4880 C   0  0  0  0  0  2  0  0  0  0  0  0
  161.9510  210.5120  156.7760 S   0  0  0  0  0  0  0  0  0  0  0  0
  161.0740  210.1880  151.5760 O   0  0  0  0  0  1  0  0  0  0  0  0
  160.8950  208.9040  153.9930 C   0  0  1  0  0  3  0  0  0  0  0  0
  159.8630  208.7670  156.4190 C   0  0  0  0  0  2  0  0  0  0  0  0
  160.9780  206.6940  152.7610 C   0  0  0  0  0  0  0  0  0  0  0  0
  160.2980  206.7750  155.1020 C   0  0  0  0  0  3  0  0  0  0  0  0
  162.3250  210.6920  155.0040 C   0  0  0  0  0  2  0  0  0  0  0  0
  161.8120  206.7000  150.4750 C   0  0  0  0  0  3  0  0  0  0  0  0
  161.4000  205.9720  151.5230 C   0  0  0  0  0  0  0  0  0  0  0  0
  160.8530  208.8140  151.4360 C   0  0  2  0  0  3  0  0  0  0  0  0
  160.7110  206.0430  153.8960 C   0  0  0  0  0  3  0  0  0  0  0  0
  160.3430  202.4890  150.4190 C   0  0  0  0  0  0  0  0  0  0  0  0
  161.2990  201.6950  151.0560 C   0  0  0  0  0  3  0  0  0  0  0  0
  161.3430  204.4910  151.3790 C   0  0  0  0  0  0  0  0  0  0  0  0
  162.2780  202.2900  151.8540 C   0  0  0  0  0  3  0  0  0  0  0  0
  160.3680  203.8770  150.5770 C   0  0  0  0  0  3  0  0  0  0  0  0
  162.3010  203.6780  152.0120 C   0  0  0  0  0  3  0  0  0  0  0  0
  159.1220  201.7480  149.4080 Cl  0  0  0  0  0  0  0  0  0  0  0  0
  161.9020  208.7740  149.1630 N   0  0  0  0  0  2  0  0  0  0  0  0
  162.6290  207.9220  148.2240 C   0  0  0  0  0  2  0  0  0  0  0  0
  161.6640  207.0490  147.4440 C   0  0  0  0  0  2  0  0  0  0  0  0
  162.4410  206.1460  146.4990 C   0  0  0  0  0  2  0  0  0  0  0  0
  161.1960  205.5560  143.7290 S   0  0  0  0  0  0  0  0  0  0  0  0
  161.7220  204.8950  146.2870 N   0  0  0  0  0  0  0  0  0  0  0  0
  161.1750  204.5270  145.0040 C   0  0  0  0  0  0  0  0  0  0  0  0
  160.9630  202.2230  145.8580 C   0  0  0  0  0  3  0  0  0  0  0  0
  161.4320  202.6020  147.0560 C   0  0  0  0  0  3  0  0  0  0  0  0
  161.4310  204.0560  147.4480 C   0  0  0  0  0  2  0  0  0  0  0  0
  160.4220  203.2340  144.8820 C   0  0  0  0  0  2  0  0  0  0  0  0
  1  9  1  0  0  0  0
  2 12  1  0  0  0  0
  3 10  1  0  0  0  0
  3  8  1  0  0  0  0
  4 24  1  6  0  0  0
  4 15  1  0  0  0  0
  5  6  1  0  0  0  0
  8  2  1  1  0  0  0
  8  1  1  0  0  0  0
  9  5  1  0  0  0  0
 10 16  2  0  0  0  0
 11  1  2  0  0  0  0
 12  6  1  0  0  0  0
 13  4  1  0  0  0  0
 13 14  2  0  0  0  0
 14 10  1  0  0  0  0
 15  7  1  1  0  0  0
 15  3  1  0  0  0  0
 16 11  1  0  0  0  0
 17 21  2  0  0  0  0
 17 18  1  0  0  0  0
 18 20  2  0  0  0  0
 19 14  1  0  0  0  0
 19 22  2  0  0  0  0
 20 22  1  0  0  0  0
 21 19  1  0  0  0  0
 23 17  1  0  0  0  0
 25 24  1  0  0  0  0
 26 25  1  0  0  0  0
 27 26  1  0  0  0  0
 28 30  2  0  0  0  0
 29 27  1  0  0  0  0
 29 33  1  0  0  0  0
 30 29  1  0  0  0  0
 31 32  2  0  0  0  0
 32 33  1  0  0  0  0
 34 30  1  0  0  0  0
 34 31  1  0  0  0  0
M  END
>  <MODEL>
8

>  <REMARK>
 VINA RESULT:      -7.7      3.471      5.176
  Name = 
  6 active torsions:
  status: ('A' for Active; 'I' for Inactive)
    1  A    between atoms: C_3  and  N_13
    2  A    between atoms: C_3  and  C_17
    3  A    between atoms: C_5  and  N_18
    4  A    between atoms: C_12  and  C_28
    5  A    between atoms: C_17  and  C_29
    6  A    between atoms: N_18  and  C_29
                            x       y       z     vdW  Elec       q    Type
                         _______ _______ _______ _____ _____    ______ ____

>  <TORSDO>
F 6

$$$$
=
 OpenBabel11062407583D

 34 38  0  0  1  0  0  0  0  0999 V2000
  161.5270  204.6720  148.5050 C   0  0  0  0  0  0  0  0  0  0  0  0
  160.4550  206.5440  147.2500 C   0  0  0  0  0  2  0  0  0  0  0  0
  161.9670  207.0310  149.1160 N   0  0  0  0  0  0  0  0  0  0  0  0
  161.9110  209.4490  149.5430 C   0  0  2  0  0  3  0  0  0  0  0  0
  161.7830  203.8640  146.1170 C   0  0  0  0  0  2  0  0  0  0  0  0
  160.1840  204.4490  145.4730 S   0  0  0  0  0  0  0  0  0  0  0  0
  162.8270  208.5450  147.5110 O   0  0  0  0  0  1  0  0  0  0  0  0
  161.6980  206.0960  148.0110 C   0  0  1  0  0  3  0  0  0  0  0  0
  161.6490  203.4910  147.5870 C   0  0  0  0  0  2  0  0  0  0  0  0
  161.4490  206.7700  150.4380 C   0  0  0  0  0  0  0  0  0  0  0  0
  161.1860  204.4380  149.7740 C   0  0  0  0  0  3  0  0  0  0  0  0
  160.5770  206.2000  145.7750 C   0  0  0  0  0  2  0  0  0  0  0  0
  161.5810  209.1390  150.9780 C   0  0  0  0  0  3  0  0  0  0  0  0
  161.3360  207.8950  151.4140 C   0  0  0  0  0  0  0  0  0  0  0  0
  162.6750  208.2960  148.8790 C   0  0  2  0  0  3  0  0  0  0  0  0
  161.0660  205.5290  150.7510 C   0  0  0  0  0  3  0  0  0  0  0  0
  160.4260  208.6030  155.0390 C   0  0  0  0  0  0  0  0  0  0  0  0
  160.3190  207.3100  155.5550 C   0  0  0  0  0  3  0  0  0  0  0  0
  161.0100  207.7000  152.8550 C   0  0  0  0  0  0  0  0  0  0  0  0
  160.5540  206.2090  154.7290 C   0  0  0  0  0  3  0  0  0  0  0  0
  160.7670  208.7960  153.6980 C   0  0  0  0  0  3  0  0  0  0  0  0
  160.8950  206.4030  153.3880 C   0  0  0  0  0  3  0  0  0  0  0  0
  160.1210  209.9850  156.0680 Cl  0  0  0  0  0  0  0  0  0  0  0  0
  162.5990  210.7400  149.4190 N   0  0  0  0  0  2  0  0  0  0  0  0
  161.9750  211.5710  148.3920 C   0  0  0  0  0  2  0  0  0  0  0  0
  161.3930  212.8290  149.0100 C   0  0  0  0  0  2  0  0  0  0  0  0
  161.1500  213.8660  147.9250 C   0  0  0  0  0  2  0  0  0  0  0  0
  161.1030  213.2020  144.9030 S   0  0  0  0  0  0  0  0  0  0  0  0
  159.8730  213.6200  147.2640 N   0  0  0  0  0  0  0  0  0  0  0  0
  159.7830  213.2420  145.8750 C   0  0  0  0  0  0  0  0  0  0  0  0
  157.4560  212.5510  146.3090 C   0  0  0  0  0  3  0  0  0  0  0  0
  157.5530  212.9530  147.5840 C   0  0  0  0  0  3  0  0  0  0  0  0
  158.6440  213.9040  148.0010 C   0  0  0  0  0  2  0  0  0  0  0  0
  158.4260  213.0400  145.2660 C   0  0  0  0  0  2  0  0  0  0  0  0
  1 11  2  0  0  0  0
  3 10  1  0  0  0  0
  4 24  1  1  0  0  0
  4 13  1  0  0  0  0
  5  9  1  0  0  0  0
  6 12  1  0  0  0  0
  6  5  1  0  0  0  0
  8  2  1  1  0  0  0
  8  1  1  0  0  0  0
  8  3  1  0  0  0  0
  9  1  1  0  0  0  0
 10 16  2  0  0  0  0
 10 14  1  0  0  0  0
 11 16  1  0  0  0  0
 12  2  1  0  0  0  0
 13 14  2  0  0  0  0
 14 19  1  0  0  0  0
 15  7  1  6  0  0  0
 15  3  1  0  0  0  0
 15  4  1  0  0  0  0
 17 18  1  0  0  0  0
 17 23  1  0  0  0  0
 19 22  2  0  0  0  0
 19 21  1  0  0  0  0
 20 18  2  0  0  0  0
 21 17  2  0  0  0  0
 22 20  1  0  0  0  0
 25 26  1  0  0  0  0
 25 24  1  0  0  0  0
 27 26  1  0  0  0  0
 28 30  2  0  0  0  0
 29 27  1  0  0  0  0
 29 33  1  0  0  0  0
 30 29  1  0  0  0  0
 31 32  2  0  0  0  0
 32 33  1  0  0  0  0
 34 30  1  0  0  0  0
 34 31  1  0  0  0  0
M  END
>  <MODEL>
9

>  <REMARK>
 VINA RESULT:      -7.5      3.316      5.914
  Name = 
  6 active torsions:
  status: ('A' for Active; 'I' for Inactive)
    1  A    between atoms: C_3  and  N_13
    2  A    between atoms: C_3  and  C_17
    3  A    between atoms: C_5  and  N_18
    4  A    between atoms: C_12  and  C_28
    5  A    between atoms: C_17  and  C_29
    6  A    between atoms: N_18  and  C_29
                            x       y       z     vdW  Elec       q    Type
                         _______ _______ _______ _____ _____    ______ ____

>  <TORSDO>
F 6

$$$$
