=
 OpenBabel11062408123D

 34 38  0  0  1  0  0  0  0  0999 V2000
  161.2890  204.1360  151.0150 C   0  0  0  0  0  0  0  0  0  0  0  0
  160.7680  205.1630  148.8800 C   0  0  0  0  0  0  0  0  0  0  0  0
  161.2430  206.5890  150.9100 C   0  0  0  0  0  0  0  0  0  0  0  0
  161.4570  209.0320  150.9440 C   0  0  0  0  0  0  0  0  0  0  0  0
  161.3230  202.8830  150.4000 C   0  0  0  0  0  3  0  0  0  0  0  0
  160.8110  203.9010  148.2790 C   0  0  0  0  0  3  0  0  0  0  0  0
  162.2480  207.8080  148.9070 C   0  0  0  0  0  2  0  0  0  0  0  0
  161.1310  205.3210  150.2470 C   0  0  0  0  0  0  0  0  0  0  0  0
  162.0170  209.0860  148.1130 C   0  0  0  0  0  2  0  0  0  0  0  0
  161.5880  210.3630  150.2580 C   0  0  0  0  0  2  0  0  0  0  0  0
  161.1150  202.7680  149.0290 C   0  0  0  0  0  3  0  0  0  0  0  0
  161.1620  206.6150  152.3360 C   0  0  0  0  0  0  0  0  0  0  0  0
  161.3520  204.1940  152.4010 C   0  0  0  0  0  3  0  0  0  0  0  0
  160.2600  206.2140  148.1250 O   0  0  0  0  0  1  0  0  0  0  0  0
  161.2000  209.0360  152.3080 C   0  0  0  0  0  3  0  0  0  0  0  0
  161.0750  207.8480  153.0300 C   0  0  0  0  0  0  0  0  0  0  0  0
  162.4220  210.2810  148.9750 C   0  0  2  0  0  3  0  0  0  0  0  0
  161.5270  207.8120  150.2360 C   0  0  0  0  0  0  0  0  0  0  0  0
  161.2510  205.4150  153.0520 C   0  0  0  0  0  3  0  0  0  0  0  0
  161.0930  209.1940  156.5770 C   0  0  0  0  0  0  0  0  0  0  0  0
  160.3920  208.1990  157.2610 C   0  0  0  0  0  3  0  0  0  0  0  0
  160.8540  207.9500  154.4980 C   0  0  0  0  0  0  0  0  0  0  0  0
  159.9140  207.0840  156.5700 C   0  0  0  0  0  3  0  0  0  0  0  0
  161.3190  209.0730  155.2030 C   0  0  0  0  0  3  0  0  0  0  0  0
  160.1400  206.9620  155.1960 C   0  0  0  0  0  3  0  0  0  0  0  0
  161.5530  210.2800  157.2450 F   0  0  0  0  0  0  0  0  0  0  0  0
  162.4550  211.4970  148.2570 O   0  0  0  0  0  0  0  0  0  0  0  0
  161.5960  212.4230  148.8750 C   0  0  0  0  0  2  0  0  0  0  0  0
  159.6130  213.6710  148.4010 O   0  0  0  0  0  1  0  0  0  0  0  0
  160.7710  213.1480  147.8220 C   0  0  2  0  0  3  0  0  0  0  0  0
  160.4200  212.2420  146.6410 C   0  0  0  0  0  2  0  0  0  0  0  0
  162.1090  213.3320  145.1580 O   0  0  0  0  0  1  0  0  0  0  0  0
  160.8280  212.8240  145.3270 C   0  0  0  0  0  0  0  0  0  0  0  0
  160.0180  212.8350  144.3640 O   0  0  0  0  0  0  0  0  0  0  0  0
  1 13  1  0  0  0  0
  2  8  1  0  0  0  0
  3 12  1  0  0  0  0
  4 15  2  0  0  0  0
  5  1  1  0  0  0  0
  6  2  2  0  0  0  0
  6 11  1  0  0  0  0
  7 18  1  0  0  0  0
  8  3  1  0  0  0  0
  8  1  2  0  0  0  0
  9  7  1  0  0  0  0
  9 17  1  0  0  0  0
 10  4  1  0  0  0  0
 11  5  2  0  0  0  0
 12 16  2  0  0  0  0
 12 19  1  0  0  0  0
 13 19  2  0  0  0  0
 14  2  1  0  0  0  0
 15 16  1  0  0  0  0
 16 22  1  0  0  0  0
 17 27  1  6  0  0  0
 17 10  1  0  0  0  0
 18  3  2  0  0  0  0
 18  4  1  0  0  0  0
 20 26  1  0  0  0  0
 20 21  1  0  0  0  0
 22 25  2  0  0  0  0
 22 24  1  0  0  0  0
 23 21  2  0  0  0  0
 24 20  2  0  0  0  0
 25 23  1  0  0  0  0
 27 28  1  0  0  0  0
 30 29  1  1  0  0  0
 30 28  1  0  0  0  0
 31 30  1  0  0  0  0
 32 33  1  0  0  0  0
 33 31  1  0  0  0  0
 34 33  2  0  0  0  0
M  END
>  <MODEL>
1

>  <REMARK>
 VINA RESULT:      -9.7      0.000      0.000
  Name = 
  6 active torsions:
  status: ('A' for Active; 'I' for Inactive)
    1  A    between atoms: O_3  and  C_13
    2  A    between atoms: O_3  and  C_29
    3  A    between atoms: C_12  and  C_28
    4  A    between atoms: C_13  and  C_33
    5  A    between atoms: C_20  and  C_22
    6  A    between atoms: C_22  and  C_33
                            x       y       z     vdW  Elec       q    Type
                         _______ _______ _______ _____ _____    ______ ____

>  <TORSDO>
F 6

$$$$
=
 OpenBabel11062408123D

 34 38  0  0  1  0  0  0  0  0999 V2000
  161.2490  204.1390  151.0180 C   0  0  0  0  0  0  0  0  0  0  0  0
  160.7860  205.1830  148.8780 C   0  0  0  0  0  0  0  0  0  0  0  0
  161.2630  206.5920  150.9200 C   0  0  0  0  0  0  0  0  0  0  0  0
  161.5350  209.0290  150.9640 C   0  0  0  0  0  0  0  0  0  0  0  0
  161.2630  202.8870  150.4000 C   0  0  0  0  0  3  0  0  0  0  0  0
  160.8090  203.9230  148.2750 C   0  0  0  0  0  3  0  0  0  0  0  0
  162.3280  207.7920  148.9370 C   0  0  0  0  0  2  0  0  0  0  0  0
  161.1310  205.3300  150.2510 C   0  0  0  0  0  0  0  0  0  0  0  0
  162.1400  209.0770  148.1430 C   0  0  0  0  0  2  0  0  0  0  0  0
  161.7070  210.3590  150.2840 C   0  0  0  0  0  2  0  0  0  0  0  0
  161.0740  202.7810  149.0260 C   0  0  0  0  0  3  0  0  0  0  0  0
  161.1600  206.6170  152.3450 C   0  0  0  0  0  0  0  0  0  0  0  0
  161.2920  204.1920  152.4060 C   0  0  0  0  0  3  0  0  0  0  0  0
  160.3150  206.2480  148.1190 O   0  0  0  0  0  1  0  0  0  0  0  0
  161.2560  209.0360  152.3240 C   0  0  0  0  0  3  0  0  0  0  0  0
  161.0910  207.8500  153.0400 C   0  0  0  0  0  0  0  0  0  0  0  0
  162.5590  210.2610  149.0140 C   0  0  2  0  0  3  0  0  0  0  0  0
  161.5860  207.8100  150.2540 C   0  0  0  0  0  0  0  0  0  0  0  0
  161.2100  205.4130  153.0580 C   0  0  0  0  0  3  0  0  0  0  0  0
  161.0360  209.2120  156.5810 C   0  0  0  0  0  0  0  0  0  0  0  0
  160.3480  208.2040  157.2610 C   0  0  0  0  0  3  0  0  0  0  0  0
  160.8510  207.9530  154.5050 C   0  0  0  0  0  0  0  0  0  0  0  0
  159.9040  207.0750  156.5690 C   0  0  0  0  0  3  0  0  0  0  0  0
  161.2820  209.0890  155.2110 C   0  0  0  0  0  3  0  0  0  0  0  0
  160.1500  206.9530  155.1990 C   0  0  0  0  0  3  0  0  0  0  0  0
  161.4640  210.3100  157.2500 F   0  0  0  0  0  0  0  0  0  0  0  0
  162.6320  211.4770  148.3000 O   0  0  0  0  0  0  0  0  0  0  0  0
  161.3310  211.9240  148.0120 C   0  0  0  0  0  2  0  0  0  0  0  0
  162.5640  213.8460  147.3090 O   0  0  0  0  0  1  0  0  0  0  0  0
  161.3310  213.4320  147.8130 C   0  0  2  0  0  3  0  0  0  0  0  0
  160.9970  214.1810  149.1030 C   0  0  0  0  0  2  0  0  0  0  0  0
  159.6580  213.3450  151.0390 O   0  0  0  0  0  1  0  0  0  0  0  0
  159.7040  213.7390  149.7090 C   0  0  0  0  0  0  0  0  0  0  0  0
  158.6510  213.7460  149.0210 O   0  0  0  0  0  0  0  0  0  0  0  0
  1 13  1  0  0  0  0
  2  8  1  0  0  0  0
  3 12  1  0  0  0  0
  4 15  2  0  0  0  0
  5  1  1  0  0  0  0
  6  2  2  0  0  0  0
  6 11  1  0  0  0  0
  7 18  1  0  0  0  0
  8  3  1  0  0  0  0
  8  1  2  0  0  0  0
  9  7  1  0  0  0  0
  9 17  1  0  0  0  0
 10  4  1  0  0  0  0
 11  5  2  0  0  0  0
 12 16  2  0  0  0  0
 12 19  1  0  0  0  0
 13 19  2  0  0  0  0
 14  2  1  0  0  0  0
 15 16  1  0  0  0  0
 16 22  1  0  0  0  0
 17 27  1  6  0  0  0
 17 10  1  0  0  0  0
 18  3  2  0  0  0  0
 18  4  1  0  0  0  0
 20 26  1  0  0  0  0
 20 21  1  0  0  0  0
 22 25  2  0  0  0  0
 22 24  1  0  0  0  0
 23 21  2  0  0  0  0
 24 20  2  0  0  0  0
 25 23  1  0  0  0  0
 28 27  1  0  0  0  0
 30 29  1  1  0  0  0
 30 28  1  0  0  0  0
 30 31  1  0  0  0  0
 31 33  1  0  0  0  0
 33 32  1  0  0  0  0
 34 33  2  0  0  0  0
M  END
>  <MODEL>
2

>  <REMARK>
 VINA RESULT:      -9.7      0.997      1.782
  Name = 
  6 active torsions:
  status: ('A' for Active; 'I' for Inactive)
    1  A    between atoms: O_3  and  C_13
    2  A    between atoms: O_3  and  C_29
    3  A    between atoms: C_12  and  C_28
    4  A    between atoms: C_13  and  C_33
    5  A    between atoms: C_20  and  C_22
    6  A    between atoms: C_22  and  C_33
                            x       y       z     vdW  Elec       q    Type
                         _______ _______ _______ _____ _____    ______ ____

>  <TORSDO>
F 6

$$$$
=
 OpenBabel11062408123D

 34 38  0  0  1  0  0  0  0  0999 V2000
  160.7910  207.9470  154.8630 C   0  0  0  0  0  0  0  0  0  0  0  0
  162.0550  209.9240  154.2430 C   0  0  0  0  0  0  0  0  0  0  0  0
  161.4230  208.2030  152.5040 C   0  0  0  0  0  0  0  0  0  0  0  0
  161.7740  208.3970  150.0840 C   0  0  0  0  0  0  0  0  0  0  0  0
  160.6270  208.4600  156.1510 C   0  0  0  0  0  3  0  0  0  0  0  0
  161.8750  210.4250  155.5350 C   0  0  0  0  0  3  0  0  0  0  0  0
  161.2620  210.4830  151.3710 C   0  0  0  0  0  2  0  0  0  0  0  0
  161.4050  208.7220  153.8410 C   0  0  0  0  0  0  0  0  0  0  0  0
  161.9720  211.2700  150.2780 C   0  0  0  0  0  2  0  0  0  0  0  0
  162.1290  209.1820  148.8520 C   0  0  0  0  0  2  0  0  0  0  0  0
  161.1410  209.7110  156.4780 C   0  0  0  0  0  3  0  0  0  0  0  0
  161.1470  206.8150  152.3130 C   0  0  0  0  0  0  0  0  0  0  0  0
  160.3970  206.6380  154.6170 C   0  0  0  0  0  3  0  0  0  0  0  0
  162.9630  210.5810  153.4210 O   0  0  0  0  0  1  0  0  0  0  0  0
  161.6730  207.0180  149.9590 C   0  0  0  0  0  3  0  0  0  0  0  0
  161.3370  206.2100  151.0450 C   0  0  0  0  0  0  0  0  0  0  0  0
  161.6490  210.6350  148.9260 C   0  0  2  0  0  3  0  0  0  0  0  0
  161.6070  209.0120  151.3450 C   0  0  0  0  0  0  0  0  0  0  0  0
  160.6080  206.0700  153.3690 C   0  0  0  0  0  3  0  0  0  0  0  0
  160.8270  202.8980  149.2660 C   0  0  0  0  0  0  0  0  0  0  0  0
  160.9980  201.9870  150.3100 C   0  0  0  0  0  3  0  0  0  0  0  0
  161.1980  204.7480  150.8050 C   0  0  0  0  0  0  0  0  0  0  0  0
  161.2760  202.4480  151.5990 C   0  0  0  0  0  3  0  0  0  0  0  0
  160.9310  204.2700  149.5110 C   0  0  0  0  0  3  0  0  0  0  0  0
  161.3800  203.8200  151.8430 C   0  0  0  0  0  3  0  0  0  0  0  0
  160.5620  202.4530  148.0140 F   0  0  0  0  0  0  0  0  0  0  0  0
  162.0770  211.4170  147.8300 O   0  0  0  0  0  0  0  0  0  0  0  0
  161.3790  212.6370  147.8310 C   0  0  0  0  0  2  0  0  0  0  0  0
  160.4430  212.7740  145.6360 O   0  0  0  0  0  1  0  0  0  0  0  0
  160.1280  212.5220  146.9720 C   0  0  2  0  0  3  0  0  0  0  0  0
  159.0160  213.4560  147.4490 C   0  0  0  0  0  2  0  0  0  0  0  0
  157.1970  212.1820  146.3040 O   0  0  0  0  0  0  0  0  0  0  0  0
  157.6730  212.7990  147.4530 C   0  0  0  0  0  0  0  0  0  0  0  0
  156.9830  212.7840  148.5040 O   0  0  0  0  0  1  0  0  0  0  0  0
  1  5  2  0  0  0  0
  2  6  1  0  0  0  0
  3  8  1  0  0  0  0
  4 18  1  0  0  0  0
  5 11  1  0  0  0  0
  6 11  2  0  0  0  0
  8  2  2  0  0  0  0
  8  1  1  0  0  0  0
  9  7  1  0  0  0  0
 10 17  1  0  0  0  0
 10  4  1  0  0  0  0
 12  3  1  0  0  0  0
 12 19  1  0  0  0  0
 13  1  1  0  0  0  0
 14  2  1  0  0  0  0
 15  4  2  0  0  0  0
 15 16  1  0  0  0  0
 16 12  2  0  0  0  0
 17 27  1  6  0  0  0
 17  9  1  0  0  0  0
 18  7  1  0  0  0  0
 18  3  2  0  0  0  0
 19 13  2  0  0  0  0
 20 24  2  0  0  0  0
 20 21  1  0  0  0  0
 21 23  2  0  0  0  0
 22 16  1  0  0  0  0
 22 25  2  0  0  0  0
 23 25  1  0  0  0  0
 24 22  1  0  0  0  0
 26 20  1  0  0  0  0
 27 28  1  0  0  0  0
 30 29  1  6  0  0  0
 30 31  1  0  0  0  0
 30 28  1  0  0  0  0
 31 33  1  0  0  0  0
 32 33  2  0  0  0  0
 33 34  1  0  0  0  0
M  END
>  <MODEL>
3

>  <REMARK>
 VINA RESULT:      -8.7      2.595      5.570
  Name = 
  6 active torsions:
  status: ('A' for Active; 'I' for Inactive)
    1  A    between atoms: O_3  and  C_13
    2  A    between atoms: O_3  and  C_29
    3  A    between atoms: C_12  and  C_28
    4  A    between atoms: C_13  and  C_33
    5  A    between atoms: C_20  and  C_22
    6  A    between atoms: C_22  and  C_33
                            x       y       z     vdW  Elec       q    Type
                         _______ _______ _______ _____ _____    ______ ____

>  <TORSDO>
F 6

$$$$
=
 OpenBabel11062408123D

 34 38  0  0  1  0  0  0  0  0999 V2000
  160.7750  207.8960  154.9110 C   0  0  0  0  0  0  0  0  0  0  0  0
  162.0250  209.8820  154.2950 C   0  0  0  0  0  0  0  0  0  0  0  0
  161.4040  208.1610  152.5530 C   0  0  0  0  0  0  0  0  0  0  0  0
  161.7520  208.3630  150.1330 C   0  0  0  0  0  0  0  0  0  0  0  0
  160.6080  208.4050  156.2000 C   0  0  0  0  0  3  0  0  0  0  0  0
  161.8440  210.3790  155.5890 C   0  0  0  0  0  3  0  0  0  0  0  0
  161.2280  210.4430  151.4250 C   0  0  0  0  0  2  0  0  0  0  0  0
  161.3830  208.6770  153.8910 C   0  0  0  0  0  0  0  0  0  0  0  0
  161.9320  211.2360  150.3340 C   0  0  0  0  0  2  0  0  0  0  0  0
  162.1020  209.1530  148.9030 C   0  0  0  0  0  2  0  0  0  0  0  0
  161.1140  209.6580  156.5310 C   0  0  0  0  0  3  0  0  0  0  0  0
  161.1360  206.7710  152.3590 C   0  0  0  0  0  0  0  0  0  0  0  0
  160.3880  206.5850  154.6630 C   0  0  0  0  0  3  0  0  0  0  0  0
  162.9290  210.5460  153.4740 O   0  0  0  0  0  1  0  0  0  0  0  0
  161.6600  206.9840  150.0050 C   0  0  0  0  0  3  0  0  0  0  0  0
  161.3300  206.1710  151.0900 C   0  0  0  0  0  0  0  0  0  0  0  0
  161.6130  210.6030  148.9800 C   0  0  2  0  0  3  0  0  0  0  0  0
  161.5820  208.9730  151.3950 C   0  0  0  0  0  0  0  0  0  0  0  0
  160.6020  206.0210  153.4140 C   0  0  0  0  0  3  0  0  0  0  0  0
  160.8310  202.8600  149.3040 C   0  0  0  0  0  0  0  0  0  0  0  0
  161.0170  201.9470  150.3440 C   0  0  0  0  0  3  0  0  0  0  0  0
  161.2000  204.7090  150.8460 C   0  0  0  0  0  0  0  0  0  0  0  0
  161.3010  202.4070  151.6320 C   0  0  0  0  0  3  0  0  0  0  0  0
  160.9270  204.2330  149.5520 C   0  0  0  0  0  3  0  0  0  0  0  0
  161.3960  203.7790  151.8800 C   0  0  0  0  0  3  0  0  0  0  0  0
  160.5610  202.4170  148.0530 F   0  0  0  0  0  0  0  0  0  0  0  0
  162.0350  211.3890  147.8860 O   0  0  0  0  0  0  0  0  0  0  0  0
  161.8950  212.7500  148.2120 C   0  0  0  0  0  2  0  0  0  0  0  0
  159.5890  213.3700  148.1090 O   0  0  0  0  0  1  0  0  0  0  0  0
  160.7810  213.3710  147.3830 C   0  0  2  0  0  3  0  0  0  0  0  0
  160.5960  212.6570  146.0430 C   0  0  0  0  0  2  0  0  0  0  0  0
  162.6740  213.2580  144.7930 O   0  0  0  0  0  1  0  0  0  0  0  0
  161.2940  213.3520  144.9190 C   0  0  0  0  0  0  0  0  0  0  0  0
  160.6310  214.0030  144.0710 O   0  0  0  0  0  0  0  0  0  0  0  0
  1  5  2  0  0  0  0
  2  6  1  0  0  0  0
  3  8  1  0  0  0  0
  4 18  1  0  0  0  0
  5 11  1  0  0  0  0
  6 11  2  0  0  0  0
  8  2  2  0  0  0  0
  8  1  1  0  0  0  0
  9  7  1  0  0  0  0
 10 17  1  0  0  0  0
 10  4  1  0  0  0  0
 12  3  1  0  0  0  0
 12 19  1  0  0  0  0
 13  1  1  0  0  0  0
 14  2  1  0  0  0  0
 15  4  2  0  0  0  0
 15 16  1  0  0  0  0
 16 12  2  0  0  0  0
 17 27  1  6  0  0  0
 17  9  1  0  0  0  0
 18  7  1  0  0  0  0
 18  3  2  0  0  0  0
 19 13  2  0  0  0  0
 20 24  2  0  0  0  0
 20 21  1  0  0  0  0
 21 23  2  0  0  0  0
 22 16  1  0  0  0  0
 22 25  2  0  0  0  0
 23 25  1  0  0  0  0
 24 22  1  0  0  0  0
 26 20  1  0  0  0  0
 27 28  1  0  0  0  0
 30 29  1  1  0  0  0
 30 28  1  0  0  0  0
 31 30  1  0  0  0  0
 32 33  1  0  0  0  0
 33 31  1  0  0  0  0
 34 33  2  0  0  0  0
M  END
>  <MODEL>
4

>  <REMARK>
 VINA RESULT:      -8.5      2.433      5.358
  Name = 
  6 active torsions:
  status: ('A' for Active; 'I' for Inactive)
    1  A    between atoms: O_3  and  C_13
    2  A    between atoms: O_3  and  C_29
    3  A    between atoms: C_12  and  C_28
    4  A    between atoms: C_13  and  C_33
    5  A    between atoms: C_20  and  C_22
    6  A    between atoms: C_22  and  C_33
                            x       y       z     vdW  Elec       q    Type
                         _______ _______ _______ _____ _____    ______ ____

>  <TORSDO>
F 6

$$$$
=
 OpenBabel11062408123D

 34 38  0  0  1  0  0  0  0  0999 V2000
  161.2010  205.9840  149.1750 C   0  0  0  0  0  0  0  0  0  0  0  0
  161.8150  205.3660  151.4390 C   0  0  0  0  0  0  0  0  0  0  0  0
  161.5770  207.7950  150.7900 C   0  0  0  0  0  0  0  0  0  0  0  0
  161.6960  209.7170  152.3090 C   0  0  0  0  0  0  0  0  0  0  0  0
  160.9860  204.6390  148.8700 C   0  0  0  0  0  3  0  0  0  0  0  0
  161.5890  204.0240  151.1180 C   0  0  0  0  0  3  0  0  0  0  0  0
  160.7080  207.5870  153.1790 C   0  0  0  0  0  2  0  0  0  0  0  0
  161.5030  206.3920  150.5030 C   0  0  0  0  0  0  0  0  0  0  0  0
  161.0940  208.0410  154.5800 C   0  0  0  0  0  2  0  0  0  0  0  0
  161.7340  210.3220  153.6850 C   0  0  0  0  0  2  0  0  0  0  0  0
  161.1490  203.6630  149.8470 C   0  0  0  0  0  3  0  0  0  0  0  0
  161.6890  208.7050  149.6930 C   0  0  0  0  0  0  0  0  0  0  0  0
  161.1740  206.9100  148.1390 C   0  0  0  0  0  3  0  0  0  0  0  0
  162.4450  205.6380  152.6480 O   0  0  0  0  0  1  0  0  0  0  0  0
  161.9790  210.5500  151.2350 C   0  0  0  0  0  3  0  0  0  0  0  0
  161.9560  210.0780  149.9220 C   0  0  0  0  0  0  0  0  0  0  0  0
  160.8720  209.5490  154.6880 C   0  0  2  0  0  3  0  0  0  0  0  0
  161.4480  208.3430  152.0990 C   0  0  0  0  0  0  0  0  0  0  0  0
  161.4520  208.2450  148.3920 C   0  0  0  0  0  3  0  0  0  0  0  0
  161.3730  212.5760  147.1260 C   0  0  0  0  0  0  0  0  0  0  0  0
  162.6790  212.9560  146.8090 C   0  0  0  0  0  3  0  0  0  0  0  0
  162.2170  211.0550  148.8300 C   0  0  0  0  0  0  0  0  0  0  0  0
  163.7550  212.3960  147.5010 C   0  0  0  0  0  3  0  0  0  0  0  0
  161.1430  211.6350  148.1340 C   0  0  0  0  0  3  0  0  0  0  0  0
  163.5240  211.4550  148.5090 C   0  0  0  0  0  3  0  0  0  0  0  0
  160.3280  213.1220  146.4590 F   0  0  0  0  0  0  0  0  0  0  0  0
  160.9900  210.0340  156.0090 O   0  0  0  0  0  0  0  0  0  0  0  0
  159.7060  210.1790  156.5650 C   0  0  0  0  0  2  0  0  0  0  0  0
  158.7090  212.2830  157.1020 O   0  0  0  0  0  1  0  0  0  0  0  0
  159.0520  211.4470  156.0390 C   0  0  2  0  0  3  0  0  0  0  0  0
  157.8270  211.1460  155.1740 C   0  0  0  0  0  2  0  0  0  0  0  0
  158.5670  211.4360  152.8050 O   0  0  0  0  0  0  0  0  0  0  0  0
  157.8310  211.9050  153.8860 C   0  0  0  0  0  0  0  0  0  0  0  0
  157.1490  212.9550  153.7710 O   0  0  0  0  0  1  0  0  0  0  0  0
  1  8  1  0  0  0  0
  2 14  1  0  0  0  0
  3 18  1  0  0  0  0
  4 10  1  0  0  0  0
  5  1  2  0  0  0  0
  5 11  1  0  0  0  0
  6  2  1  0  0  0  0
  7  9  1  0  0  0  0
  8  3  1  0  0  0  0
  8  2  2  0  0  0  0
  9 17  1  0  0  0  0
 10 17  1  0  0  0  0
 11  6  2  0  0  0  0
 12 16  1  0  0  0  0
 12  3  2  0  0  0  0
 13 19  2  0  0  0  0
 13  1  1  0  0  0  0
 15  4  1  0  0  0  0
 16 15  2  0  0  0  0
 17 27  1  1  0  0  0
 18  4  2  0  0  0  0
 18  7  1  0  0  0  0
 19 12  1  0  0  0  0
 20 24  1  0  0  0  0
 21 20  2  0  0  0  0
 21 23  1  0  0  0  0
 22 16  1  0  0  0  0
 23 25  2  0  0  0  0
 24 22  2  0  0  0  0
 25 22  1  0  0  0  0
 26 20  1  0  0  0  0
 27 28  1  0  0  0  0
 30 28  1  0  0  0  0
 30 29  1  1  0  0  0
 31 30  1  0  0  0  0
 32 33  2  0  0  0  0
 33 31  1  0  0  0  0
 34 33  1  0  0  0  0
M  END
>  <MODEL>
5

>  <REMARK>
 VINA RESULT:      -8.3      3.599      6.747
  Name = 
  6 active torsions:
  status: ('A' for Active; 'I' for Inactive)
    1  A    between atoms: O_3  and  C_13
    2  A    between atoms: O_3  and  C_29
    3  A    between atoms: C_12  and  C_28
    4  A    between atoms: C_13  and  C_33
    5  A    between atoms: C_20  and  C_22
    6  A    between atoms: C_22  and  C_33
                            x       y       z     vdW  Elec       q    Type
                         _______ _______ _______ _____ _____    ______ ____

>  <TORSDO>
F 6

$$$$
=
 OpenBabel11062408123D

 34 38  0  0  1  0  0  0  0  0999 V2000
  161.2260  210.9920  150.4930 C   0  0  0  0  0  0  0  0  0  0  0  0
  162.2950  209.7360  148.7140 C   0  0  0  0  0  0  0  0  0  0  0  0
  161.3760  208.5540  150.7480 C   0  0  0  0  0  0  0  0  0  0  0  0
  161.2400  206.1270  151.0710 C   0  0  0  0  0  0  0  0  0  0  0  0
  161.3050  212.1500  149.7190 C   0  0  0  0  0  3  0  0  0  0  0  0
  162.3620  210.9050  147.9500 C   0  0  0  0  0  3  0  0  0  0  0  0
  160.9420  207.0240  148.7540 C   0  0  0  0  0  2  0  0  0  0  0  0
  161.6080  209.7300  149.9600 C   0  0  0  0  0  0  0  0  0  0  0  0
  161.4040  205.6730  148.2260 C   0  0  0  0  0  2  0  0  0  0  0  0
  161.3270  204.7130  150.5690 C   0  0  0  0  0  2  0  0  0  0  0  0
  161.8430  212.1020  148.4370 C   0  0  0  0  0  3  0  0  0  0  0  0
  161.1000  208.7160  152.1410 C   0  0  0  0  0  0  0  0  0  0  0  0
  160.8210  211.1080  151.8170 C   0  0  0  0  0  3  0  0  0  0  0  0
  163.0090  208.6330  148.2600 O   0  0  0  0  0  1  0  0  0  0  0  0
  161.1490  206.3140  152.4440 C   0  0  0  0  0  3  0  0  0  0  0  0
  161.0520  207.5900  153.0010 C   0  0  0  0  0  0  0  0  0  0  0  0
  160.8370  204.5740  149.1240 C   0  0  2  0  0  3  0  0  0  0  0  0
  161.3090  207.2390  150.2040 C   0  0  0  0  0  0  0  0  0  0  0  0
  160.7970  209.9890  152.6380 C   0  0  0  0  0  3  0  0  0  0  0  0
  161.4300  208.8230  156.5690 C   0  0  0  0  0  0  0  0  0  0  0  0
  160.5860  207.9510  157.2600 C   0  0  0  0  0  3  0  0  0  0  0  0
  160.9030  207.6920  154.4780 C   0  0  0  0  0  0  0  0  0  0  0  0
  159.8950  206.9550  156.5670 C   0  0  0  0  0  3  0  0  0  0  0  0
  161.5840  208.6970  155.1860 C   0  0  0  0  0  3  0  0  0  0  0  0
  160.0490  206.8300  155.1840 C   0  0  0  0  0  3  0  0  0  0  0  0
  162.0980  209.7930  157.2390 F   0  0  0  0  0  0  0  0  0  0  0  0
  161.0230  203.2770  148.5970 O   0  0  0  0  0  0  0  0  0  0  0  0
  161.5830  203.3750  147.3110 C   0  0  0  0  0  2  0  0  0  0  0  0
  160.8320  201.3550  146.2800 O   0  0  0  0  0  1  0  0  0  0  0  0
  160.6540  202.7390  146.2890 C   0  0  2  0  0  3  0  0  0  0  0  0
  160.8590  203.3170  144.8880 C   0  0  0  0  0  2  0  0  0  0  0  0
  160.0840  205.6880  145.0200 O   0  0  0  0  0  1  0  0  0  0  0  0
  161.1330  204.7860  144.9050 C   0  0  0  0  0  0  0  0  0  0  0  0
  162.3170  205.2070  144.8390 O   0  0  0  0  0  0  0  0  0  0  0  0
  1 13  1  0  0  0  0
  2  8  1  0  0  0  0
  3 12  1  0  0  0  0
  4 15  2  0  0  0  0
  5  1  1  0  0  0  0
  6 11  1  0  0  0  0
  6  2  2  0  0  0  0
  7 18  1  0  0  0  0
  8  1  2  0  0  0  0
  8  3  1  0  0  0  0
  9  7  1  0  0  0  0
  9 17  1  0  0  0  0
 10  4  1  0  0  0  0
 11  5  2  0  0  0  0
 12 19  1  0  0  0  0
 12 16  2  0  0  0  0
 13 19  2  0  0  0  0
 14  2  1  0  0  0  0
 15 16  1  0  0  0  0
 16 22  1  0  0  0  0
 17 27  1  6  0  0  0
 17 10  1  0  0  0  0
 18  3  2  0  0  0  0
 18  4  1  0  0  0  0
 20 26  1  0  0  0  0
 20 21  1  0  0  0  0
 22 25  2  0  0  0  0
 22 24  1  0  0  0  0
 23 21  2  0  0  0  0
 24 20  2  0  0  0  0
 25 23  1  0  0  0  0
 28 27  1  0  0  0  0
 30 29  1  6  0  0  0
 30 28  1  0  0  0  0
 31 33  1  0  0  0  0
 31 30  1  0  0  0  0
 33 32  1  0  0  0  0
 34 33  2  0  0  0  0
M  END
>  <MODEL>
6

>  <REMARK>
 VINA RESULT:      -8.1      2.231      5.949
  Name = 
  6 active torsions:
  status: ('A' for Active; 'I' for Inactive)
    1  A    between atoms: O_3  and  C_13
    2  A    between atoms: O_3  and  C_29
    3  A    between atoms: C_12  and  C_28
    4  A    between atoms: C_13  and  C_33
    5  A    between atoms: C_20  and  C_22
    6  A    between atoms: C_22  and  C_33
                            x       y       z     vdW  Elec       q    Type
                         _______ _______ _______ _____ _____    ______ ____

>  <TORSDO>
F 6

$$$$
=
 OpenBabel11062408123D

 34 38  0  0  1  0  0  0  0  0999 V2000
  161.5080  209.5040  155.0670 C   0  0  0  0  0  0  0  0  0  0  0  0
  160.3800  207.3670  155.2840 C   0  0  0  0  0  0  0  0  0  0  0  0
  161.2040  208.1630  153.0330 C   0  0  0  0  0  0  0  0  0  0  0  0
  161.1860  206.8710  150.9480 C   0  0  0  0  0  0  0  0  0  0  0  0
  161.5080  209.6420  156.4560 C   0  0  0  0  0  3  0  0  0  0  0  0
  160.3940  207.5180  156.6740 C   0  0  0  0  0  3  0  0  0  0  0  0
  161.5620  205.6380  153.0930 C   0  0  0  0  0  2  0  0  0  0  0  0
  161.0530  208.3060  154.4520 C   0  0  0  0  0  0  0  0  0  0  0  0
  161.0220  204.3890  152.4100 C   0  0  0  0  0  2  0  0  0  0  0  0
  161.0150  205.5900  150.1800 C   0  0  0  0  0  2  0  0  0  0  0  0
  160.9800  208.6360  157.2610 C   0  0  0  0  0  3  0  0  0  0  0  0
  161.4750  209.3330  152.2600 C   0  0  0  0  0  0  0  0  0  0  0  0
  161.9050  210.5890  154.2950 C   0  0  0  0  0  3  0  0  0  0  0  0
  159.6040  206.3400  154.7600 O   0  0  0  0  0  1  0  0  0  0  0  0
  161.2740  208.0490  150.2170 C   0  0  0  0  0  3  0  0  0  0  0  0
  161.4440  209.2840  150.8440 C   0  0  0  0  0  0  0  0  0  0  0  0
  161.5100  204.3690  150.9630 C   0  0  2  0  0  3  0  0  0  0  0  0
  161.1940  206.9070  152.3590 C   0  0  0  0  0  0  0  0  0  0  0  0
  161.8520  210.5150  152.9110 C   0  0  0  0  0  3  0  0  0  0  0  0
  161.1270  212.8420  149.5640 C   0  0  0  0  0  0  0  0  0  0  0  0
  161.8900  212.7910  148.3960 C   0  0  0  0  0  3  0  0  0  0  0  0
  161.5840  210.4870  149.9780 C   0  0  0  0  0  0  0  0  0  0  0  0
  162.5070  211.5970  148.0180 C   0  0  0  0  0  3  0  0  0  0  0  0
  160.9790  211.6980  150.3530 C   0  0  0  0  0  3  0  0  0  0  0  0
  162.3580  210.4530  148.8070 C   0  0  0  0  0  3  0  0  0  0  0  0
  160.5330  214.0010  149.9360 F   0  0  0  0  0  0  0  0  0  0  0  0
  161.2500  203.1470  150.3060 O   0  0  0  0  0  0  0  0  0  0  0  0
  161.0270  203.3940  148.9390 C   0  0  0  0  0  2  0  0  0  0  0  0
  159.9510  201.2900  149.2940 O   0  0  0  0  0  1  0  0  0  0  0  0
  160.2980  202.2160  148.3100 C   0  0  2  0  0  3  0  0  0  0  0  0
  161.1270  201.5480  147.2110 C   0  0  0  0  0  2  0  0  0  0  0  0
  159.8700  201.2760  145.0700 O   0  0  0  0  0  0  0  0  0  0  0  0
  160.7540  202.0180  145.8420 C   0  0  0  0  0  0  0  0  0  0  0  0
  161.2210  203.0970  145.3970 O   0  0  0  0  0  1  0  0  0  0  0  0
  1  5  2  0  0  0  0
  2  6  1  0  0  0  0
  3  8  1  0  0  0  0
  4 18  2  0  0  0  0
  5 11  1  0  0  0  0
  6 11  2  0  0  0  0
  8  1  1  0  0  0  0
  8  2  2  0  0  0  0
  9  7  1  0  0  0  0
 10  4  1  0  0  0  0
 10 17  1  0  0  0  0
 12 19  1  0  0  0  0
 12  3  2  0  0  0  0
 13  1  1  0  0  0  0
 14  2  1  0  0  0  0
 15 16  2  0  0  0  0
 15  4  1  0  0  0  0
 16 12  1  0  0  0  0
 17 27  1  6  0  0  0
 17  9  1  0  0  0  0
 18  3  1  0  0  0  0
 18  7  1  0  0  0  0
 19 13  2  0  0  0  0
 20 26  1  0  0  0  0
 20 24  1  0  0  0  0
 21 20  2  0  0  0  0
 22 24  2  0  0  0  0
 22 16  1  0  0  0  0
 23 21  1  0  0  0  0
 23 25  2  0  0  0  0
 25 22  1  0  0  0  0
 28 27  1  0  0  0  0
 30 28  1  0  0  0  0
 30 29  1  1  0  0  0
 31 30  1  0  0  0  0
 32 33  2  0  0  0  0
 33 31  1  0  0  0  0
 34 33  1  0  0  0  0
M  END
>  <MODEL>
7

>  <REMARK>
 VINA RESULT:      -8.1      3.789      7.719
  Name = 
  6 active torsions:
  status: ('A' for Active; 'I' for Inactive)
    1  A    between atoms: O_3  and  C_13
    2  A    between atoms: O_3  and  C_29
    3  A    between atoms: C_12  and  C_28
    4  A    between atoms: C_13  and  C_33
    5  A    between atoms: C_20  and  C_22
    6  A    between atoms: C_22  and  C_33
                            x       y       z     vdW  Elec       q    Type
                         _______ _______ _______ _____ _____    ______ ____

>  <TORSDO>
F 6

$$$$
=
 OpenBabel11062408123D

 34 38  0  0  1  0  0  0  0  0999 V2000
  161.5660  209.4150  155.1220 C   0  0  0  0  0  0  0  0  0  0  0  0
  160.4570  207.2590  155.2130 C   0  0  0  0  0  0  0  0  0  0  0  0
  161.2490  208.2040  153.0090 C   0  0  0  0  0  0  0  0  0  0  0  0
  161.2170  207.0500  150.8450 C   0  0  0  0  0  0  0  0  0  0  0  0
  161.5810  209.4630  156.5170 C   0  0  0  0  0  3  0  0  0  0  0  0
  160.4860  207.3200  156.6100 C   0  0  0  0  0  3  0  0  0  0  0  0
  161.6270  205.6840  152.9030 C   0  0  0  0  0  2  0  0  0  0  0  0
  161.1130  208.2540  154.4360 C   0  0  0  0  0  0  0  0  0  0  0  0
  161.0890  204.4770  152.1470 C   0  0  0  0  0  2  0  0  0  0  0  0
  161.0470  205.8190  149.9990 C   0  0  0  0  0  2  0  0  0  0  0  0
  161.0710  208.4030  157.2610 C   0  0  0  0  0  3  0  0  0  0  0  0
  161.5020  209.4250  152.3100 C   0  0  0  0  0  0  0  0  0  0  0  0
  161.9460  210.5500  154.4170 C   0  0  0  0  0  3  0  0  0  0  0  0
  159.6830  206.2610  154.6320 O   0  0  0  0  0  1  0  0  0  0  0  0
  161.2880  208.2720  150.1910 C   0  0  0  0  0  3  0  0  0  0  0  0
  161.4560  209.4660  150.8940 C   0  0  0  0  0  0  0  0  0  0  0  0
  161.5610  204.5550  150.6960 C   0  0  2  0  0  3  0  0  0  0  0  0
  161.2420  206.9940  152.2560 C   0  0  0  0  0  0  0  0  0  0  0  0
  161.8780  210.5650  153.0310 C   0  0  0  0  0  3  0  0  0  0  0  0
  162.5890  211.9630  148.2710 C   0  0  0  0  0  0  0  0  0  0  0  0
  161.7770  213.0620  148.5580 C   0  0  0  0  0  3  0  0  0  0  0  0
  161.5770  210.7230  150.1060 C   0  0  0  0  0  0  0  0  0  0  0  0
  160.8610  212.9960  149.6100 C   0  0  0  0  0  3  0  0  0  0  0  0
  162.4860  210.7990  149.0380 C   0  0  0  0  0  3  0  0  0  0  0  0
  160.7590  211.8320  150.3760 C   0  0  0  0  0  3  0  0  0  0  0  0
  163.4750  212.0230  147.2480 F   0  0  0  0  0  0  0  0  0  0  0  0
  161.3020  203.3750  149.9640 O   0  0  0  0  0  0  0  0  0  0  0  0
  160.7420  203.7150  148.7200 C   0  0  0  0  0  2  0  0  0  0  0  0
  161.8880  204.1260  146.6640 O   0  0  0  0  0  1  0  0  0  0  0  0
  161.5840  203.1320  147.5950 C   0  0  2  0  0  3  0  0  0  0  0  0
  160.8930  201.9500  146.9130 C   0  0  0  0  0  2  0  0  0  0  0  0
  161.5810  199.5750  146.5580 O   0  0  0  0  0  0  0  0  0  0  0  0
  161.3630  200.6300  147.4340 C   0  0  0  0  0  0  0  0  0  0  0  0
  161.5840  200.4800  148.6620 O   0  0  0  0  0  1  0  0  0  0  0  0
  1  5  2  0  0  0  0
  2  6  1  0  0  0  0
  3  8  1  0  0  0  0
  4 18  1  0  0  0  0
  5 11  1  0  0  0  0
  6 11  2  0  0  0  0
  8  1  1  0  0  0  0
  8  2  2  0  0  0  0
  9  7  1  0  0  0  0
 10 17  1  0  0  0  0
 10  4  1  0  0  0  0
 12  3  1  0  0  0  0
 12 19  1  0  0  0  0
 13  1  1  0  0  0  0
 14  2  1  0  0  0  0
 15  4  2  0  0  0  0
 15 16  1  0  0  0  0
 16 12  2  0  0  0  0
 17 27  1  6  0  0  0
 17  9  1  0  0  0  0
 18  7  1  0  0  0  0
 18  3  2  0  0  0  0
 19 13  2  0  0  0  0
 20 21  2  0  0  0  0
 20 24  1  0  0  0  0
 21 23  1  0  0  0  0
 22 25  1  0  0  0  0
 22 16  1  0  0  0  0
 23 25  2  0  0  0  0
 24 22  2  0  0  0  0
 26 20  1  0  0  0  0
 28 27  1  0  0  0  0
 30 29  1  6  0  0  0
 30 28  1  0  0  0  0
 31 33  1  0  0  0  0
 31 30  1  0  0  0  0
 32 33  2  0  0  0  0
 33 34  1  0  0  0  0
M  END
>  <MODEL>
8

>  <REMARK>
 VINA RESULT:      -7.8      3.740      7.868
  Name = 
  6 active torsions:
  status: ('A' for Active; 'I' for Inactive)
    1  A    between atoms: O_3  and  C_13
    2  A    between atoms: O_3  and  C_29
    3  A    between atoms: C_12  and  C_28
    4  A    between atoms: C_13  and  C_33
    5  A    between atoms: C_20  and  C_22
    6  A    between atoms: C_22  and  C_33
                            x       y       z     vdW  Elec       q    Type
                         _______ _______ _______ _____ _____    ______ ____

>  <TORSDO>
F 6

$$$$
=
 OpenBabel11062408123D

 34 38  0  0  1  0  0  0  0  0999 V2000
  162.1530  209.6630  149.0360 C   0  0  0  0  0  0  0  0  0  0  0  0
  161.2100  211.3070  150.5510 C   0  0  0  0  0  0  0  0  0  0  0  0
  161.4950  208.9040  151.2770 C   0  0  0  0  0  0  0  0  0  0  0  0
  161.1020  208.0180  153.5300 C   0  0  0  0  0  0  0  0  0  0  0  0
  162.4400  210.6760  148.1200 C   0  0  0  0  0  3  0  0  0  0  0  0
  161.5110  212.3100  149.6250 C   0  0  0  0  0  3  0  0  0  0  0  0
  161.9890  210.3500  153.3190 C   0  0  0  0  0  2  0  0  0  0  0  0
  161.6410  209.9690  150.3260 C   0  0  0  0  0  0  0  0  0  0  0  0
  161.3830  210.6490  154.6830 C   0  0  0  0  0  2  0  0  0  0  0  0
  160.8400  208.1950  154.9990 C   0  0  0  0  0  2  0  0  0  0  0  0
  162.1500  212.0020  148.4260 C   0  0  0  0  0  3  0  0  0  0  0  0
  161.5330  207.5590  150.7970 C   0  0  0  0  0  0  0  0  0  0  0  0
  162.3200  208.3430  148.6360 C   0  0  0  0  0  3  0  0  0  0  0  0
  160.3960  211.6490  151.6240 O   0  0  0  0  0  1  0  0  0  0  0  0
  160.9710  206.7400  153.0050 C   0  0  0  0  0  3  0  0  0  0  0  0
  161.2050  206.4790  151.6540 C   0  0  0  0  0  0  0  0  0  0  0  0
  161.5530  209.4220  155.5780 C   0  0  2  0  0  3  0  0  0  0  0  0
  161.4080  209.1070  152.6850 C   0  0  0  0  0  0  0  0  0  0  0  0
  161.9780  207.3070  149.4930 C   0  0  0  0  0  3  0  0  0  0  0  0
  160.8310  203.4680  149.3760 C   0  0  0  0  0  0  0  0  0  0  0  0
  160.9520  202.4120  150.2810 C   0  0  0  0  0  3  0  0  0  0  0  0
  161.0950  205.0690  151.1920 C   0  0  0  0  0  0  0  0  0  0  0  0
  161.1520  202.6760  151.6380 C   0  0  0  0  0  3  0  0  0  0  0  0
  160.9070  204.7890  149.8280 C   0  0  0  0  0  3  0  0  0  0  0  0
  161.2270  203.9970  152.0890 C   0  0  0  0  0  3  0  0  0  0  0  0
  160.6430  203.2140  148.0580 F   0  0  0  0  0  0  0  0  0  0  0  0
  161.2240  209.6690  156.9280 O   0  0  0  0  0  0  0  0  0  0  0  0
  160.7950  211.0020  157.0630 C   0  0  0  0  0  2  0  0  0  0  0  0
  158.6570  210.2740  156.2820 O   0  0  0  0  0  1  0  0  0  0  0  0
  159.2870  211.0460  157.2590 C   0  0  2  0  0  3  0  0  0  0  0  0
  158.7480  212.4770  157.2440 C   0  0  0  0  0  2  0  0  0  0  0  0
  156.7470  212.7770  155.7790 O   0  0  0  0  0  1  0  0  0  0  0  0
  158.1250  212.8450  155.9360 C   0  0  0  0  0  0  0  0  0  0  0  0
  158.8450  213.2390  154.9840 O   0  0  0  0  0  0  0  0  0  0  0  0
  1  8  1  0  0  0  0
  2 14  1  0  0  0  0
  3 18  1  0  0  0  0
  4 10  1  0  0  0  0
  5 11  2  0  0  0  0
  5  1  1  0  0  0  0
  6  2  2  0  0  0  0
  7  9  1  0  0  0  0
  8  2  1  0  0  0  0
  8  3  2  0  0  0  0
  9 17  1  0  0  0  0
 10 17  1  0  0  0  0
 11  6  1  0  0  0  0
 12  3  1  0  0  0  0
 12 16  1  0  0  0  0
 13  1  2  0  0  0  0
 13 19  1  0  0  0  0
 15  4  1  0  0  0  0
 16 15  2  0  0  0  0
 17 27  1  1  0  0  0
 18  7  1  0  0  0  0
 18  4  2  0  0  0  0
 19 12  2  0  0  0  0
 20 24  2  0  0  0  0
 20 21  1  0  0  0  0
 21 23  2  0  0  0  0
 22 16  1  0  0  0  0
 22 25  2  0  0  0  0
 23 25  1  0  0  0  0
 24 22  1  0  0  0  0
 26 20  1  0  0  0  0
 27 28  1  0  0  0  0
 28 30  1  0  0  0  0
 30 29  1  6  0  0  0
 31 30  1  0  0  0  0
 32 33  1  0  0  0  0
 33 31  1  0  0  0  0
 34 33  2  0  0  0  0
M  END
>  <MODEL>
9

>  <REMARK>
 VINA RESULT:      -7.7      3.759      7.356
  Name = 
  6 active torsions:
  status: ('A' for Active; 'I' for Inactive)
    1  A    between atoms: O_3  and  C_13
    2  A    between atoms: O_3  and  C_29
    3  A    between atoms: C_12  and  C_28
    4  A    between atoms: C_13  and  C_33
    5  A    between atoms: C_20  and  C_22
    6  A    between atoms: C_22  and  C_33
                            x       y       z     vdW  Elec       q    Type
                         _______ _______ _______ _____ _____    ______ ____

>  <TORSDO>
F 6

$$$$
