=
 OpenBabel11062407553D

 34 39  0  0  1  0  0  0  0  0999 V2000
  161.1240  213.6760  149.3640 C   0  0  1  0  0  3  0  0  0  0  0  0
  162.7920  212.2020  148.2300 C   0  0  1  0  0  3  0  0  0  0  0  0
  161.6670  211.5270  150.4440 C   0  0  1  0  0  3  0  0  0  0  0  0
  162.4930  209.4230  151.6860 C   0  0  2  0  0  3  0  0  0  0  0  0
  162.1880  214.4400  147.2530 C   0  0  0  0  0  2  0  0  0  0  0  0
  162.5950  213.0030  146.9430 C   0  0  0  0  0  2  0  0  0  0  0  0
  161.3960  209.0990  149.5940 C   0  0  0  0  0  2  0  0  0  0  0  0
  161.5030  212.2160  149.0780 C   0  0  1  0  0  3  0  0  0  0  0  0
  162.6430  207.9800  151.2440 C   0  0  0  0  0  2  0  0  0  0  0  0
  160.9050  214.4530  148.0730 C   0  0  0  0  0  2  0  0  0  0  0  0
  160.3650  211.5790  151.2490 C   0  0  1  0  0  3  0  0  0  0  0  0
  159.9590  213.7860  150.2160 N   0  0  0  0  0  0  0  0  0  0  0  0
  163.1410  210.9120  147.8780 F   0  0  0  0  0  0  0  0  0  0  0  0
  161.0770  209.4660  152.8550 S   0  0  0  0  0  0  0  0  0  0  0  0
  160.6770  211.2390  152.7100 C   0  0  2  0  0  3  0  0  0  0  0  0
  161.8530  207.7790  150.0210 N   0  0  0  0  0  0  0  0  0  0  0  0
  162.2210  210.1000  150.3650 C   0  0  1  0  0  3  0  0  0  0  0  0
  159.6340  212.8980  151.0920 C   0  0  0  0  0  3  0  0  0  0  0  0
  158.8070  212.6410  155.6960 C   0  0  0  0  0  0  0  0  0  0  0  0
  157.5030  212.2000  155.4530 C   0  0  0  0  0  3  0  0  0  0  0  0
  159.5580  211.5660  153.6560 C   0  0  0  0  0  0  0  0  0  0  0  0
  157.2230  211.4410  154.3120 C   0  0  0  0  0  3  0  0  0  0  0  0
  159.8310  212.3240  154.8000 C   0  0  0  0  0  3  0  0  0  0  0  0
  158.2470  211.1240  153.4160 C   0  0  0  0  0  3  0  0  0  0  0  0
  159.0780  213.3750  156.8020 F   0  0  0  0  0  0  0  0  0  0  0  0
  160.6670  207.0180  150.3790 C   0  0  0  0  0  2  0  0  0  0  0  0
  161.0650  205.7610  151.1340 C   0  0  0  0  0  2  0  0  0  0  0  0
  161.4740  202.7740  151.7020 C   0  0  0  0  0  1  0  0  0  0  0  0
  161.3670  204.6970  150.1900 N   0  0  0  0  0  0  0  0  0  0  0  0
  160.6520  203.4910  150.6440 C   0  0  1  0  0  3  0  0  0  0  0  0
  161.2900  202.6940  148.3300 C   0  0  0  0  0  2  0  0  0  0  0  0
  161.2130  204.1270  147.7980 C   0  0  0  0  0  2  0  0  0  0  0  0
  160.8450  205.1330  148.8930 C   0  0  0  0  0  2  0  0  0  0  0  0
  160.3380  202.5010  149.5070 C   0  0  0  0  0  2  0  0  0  0  0  0
  1 10  1  6  0  0  0
  1 12  1  0  0  0  0
  2 13  1  6  0  0  0
  2  8  1  0  0  0  0
  3 11  1  0  0  0  0
  4 14  1  0  0  0  0
  5 10  1  0  0  0  0
  6  5  1  0  0  0  0
  6  2  1  0  0  0  0
  7 16  1  0  0  0  0
  7 17  1  0  0  0  0
  8  1  1  0  0  0  0
  8  3  1  0  0  0  0
  9  4  1  0  0  0  0
 11 15  1  0  0  0  0
 12 18  2  0  0  0  0
 15 14  1  0  0  0  0
 15 21  1  0  0  0  0
 16 26  1  0  0  0  0
 16  9  1  0  0  0  0
 17  3  1  0  0  0  0
 17  4  1  0  0  0  0
 18 11  1  0  0  0  0
 19 25  1  0  0  0  0
 20 19  1  0  0  0  0
 21 23  1  0  0  0  0
 22 20  2  0  0  0  0
 23 19  2  0  0  0  0
 24 21  2  0  0  0  0
 24 22  1  0  0  0  0
 26 27  1  0  0  0  0
 29 30  1  0  0  0  0
 29 27  1  0  0  0  0
 30 28  1  0  0  0  0
 31 34  1  0  0  0  0
 32 31  1  0  0  0  0
 32 33  1  0  0  0  0
 33 29  1  0  0  0  0
 34 30  1  0  0  0  0
M  END
>  <MODEL>
1

>  <REMARK>
 VINA RESULT:      -6.8      0.000      0.000
  Name = 
  4 active torsions:
  status: ('A' for Active; 'I' for Inactive)
    1  A    between atoms: C_3  and  N_13
    2  A    between atoms: C_3  and  C_17
    3  A    between atoms: C_12  and  C_28
    4  A    between atoms: C_17  and  N_29
                            x       y       z     vdW  Elec       q    Type
                         _______ _______ _______ _____ _____    ______ ____

>  <TORSDO>
F 4

$$$$
=
 OpenBabel11062407553D

 34 39  0  0  1  0  0  0  0  0999 V2000
  161.3800  205.9360  150.3770 C   0  0  1  0  0  3  0  0  0  0  0  0
  161.5190  204.8900  152.6400 C   0  0  1  0  0  3  0  0  0  0  0  0
  161.5660  207.4430  152.3200 C   0  0  1  0  0  3  0  0  0  0  0  0
  162.0720  208.9570  154.3460 C   0  0  2  0  0  3  0  0  0  0  0  0
  161.3720  203.4600  150.5760 C   0  0  0  0  0  2  0  0  0  0  0  0
  160.9900  203.5840  152.0470 C   0  0  0  0  0  2  0  0  0  0  0  0
  160.0130  207.7530  154.3660 C   0  0  0  0  0  2  0  0  0  0  0  0
  160.9800  206.1000  151.8500 C   0  0  1  0  0  3  0  0  0  0  0  0
  161.4200  209.0720  155.7100 C   0  0  0  0  0  2  0  0  0  0  0  0
  160.8240  204.6460  149.7930 C   0  0  0  0  0  2  0  0  0  0  0  0
  161.0100  208.6080  151.4970 C   0  0  1  0  0  3  0  0  0  0  0  0
  160.9750  207.0660  149.5670 N   0  0  0  0  0  0  0  0  0  0  0  0
  161.1240  204.9450  153.9630 F   0  0  0  0  0  0  0  0  0  0  0  0
  161.6150  210.4760  153.4190 S   0  0  0  0  0  0  0  0  0  0  0  0
  161.8900  209.8400  151.7330 C   0  0  2  0  0  3  0  0  0  0  0  0
  160.0980  208.4310  155.6560 N   0  0  0  0  0  0  0  0  0  0  0  0
  161.4210  207.6990  153.8240 C   0  0  1  0  0  3  0  0  0  0  0  0
  160.8560  208.2640  150.0280 C   0  0  0  0  0  3  0  0  0  0  0  0
  162.1770  211.9960  148.6260 C   0  0  0  0  0  0  0  0  0  0  0  0
  161.2370  212.9970  148.8820 C   0  0  0  0  0  3  0  0  0  0  0  0
  161.6480  210.9490  150.7490 C   0  0  0  0  0  0  0  0  0  0  0  0
  160.5000  212.9780  150.0710 C   0  0  0  0  0  3  0  0  0  0  0  0
  162.3830  210.9750  149.5580 C   0  0  0  0  0  3  0  0  0  0  0  0
  160.7050  211.9570  151.0030 C   0  0  0  0  0  3  0  0  0  0  0  0
  162.8910  212.0160  147.4750 F   0  0  0  0  0  0  0  0  0  0  0  0
  159.0950  209.4830  155.6460 C   0  0  0  0  0  2  0  0  0  0  0  0
  159.5000  210.5950  156.5990 C   0  0  0  0  0  2  0  0  0  0  0  0
  160.2350  213.5340  157.0810 C   0  0  0  0  0  1  0  0  0  0  0  0
  158.6960  211.7790  156.3400 N   0  0  0  0  0  0  0  0  0  0  0  0
  159.6120  212.8400  155.8810 C   0  0  1  0  0  3  0  0  0  0  0  0
  157.4240  213.9410  155.2520 C   0  0  0  0  0  2  0  0  0  0  0  0
  156.7890  212.5710  154.9960 C   0  0  0  0  0  2  0  0  0  0  0  0
  157.7640  211.4210  155.2690 C   0  0  0  0  0  2  0  0  0  0  0  0
  158.9280  213.8980  154.9960 C   0  0  0  0  0  2  0  0  0  0  0  0
  1 10  1  6  0  0  0
  1  8  1  0  0  0  0
  2 13  1  1  0  0  0
  3 17  1  0  0  0  0
  4  9  1  0  0  0  0
  5  6  1  0  0  0  0
  6  2  1  0  0  0  0
  7 16  1  0  0  0  0
  8  3  1  0  0  0  0
  8  2  1  0  0  0  0
 10  5  1  0  0  0  0
 11 15  1  0  0  0  0
 11  3  1  0  0  0  0
 12 18  2  0  0  0  0
 12  1  1  0  0  0  0
 14  4  1  0  0  0  0
 15 14  1  0  0  0  0
 16  9  1  0  0  0  0
 17  4  1  0  0  0  0
 17  7  1  0  0  0  0
 18 11  1  0  0  0  0
 19 20  2  0  0  0  0
 19 23  1  0  0  0  0
 20 22  1  0  0  0  0
 21 24  1  0  0  0  0
 21 15  1  0  0  0  0
 22 24  2  0  0  0  0
 23 21  2  0  0  0  0
 25 19  1  0  0  0  0
 26 16  1  0  0  0  0
 26 27  1  0  0  0  0
 29 27  1  0  0  0  0
 30 29  1  0  0  0  0
 30 28  1  0  0  0  0
 32 31  1  0  0  0  0
 32 33  1  0  0  0  0
 33 29  1  0  0  0  0
 34 31  1  0  0  0  0
 34 30  1  0  0  0  0
M  END
>  <MODEL>
2

>  <REMARK>
 VINA RESULT:      -6.5      2.711      7.991
  Name = 
  4 active torsions:
  status: ('A' for Active; 'I' for Inactive)
    1  A    between atoms: C_3  and  N_13
    2  A    between atoms: C_3  and  C_17
    3  A    between atoms: C_12  and  C_28
    4  A    between atoms: C_17  and  N_29
                            x       y       z     vdW  Elec       q    Type
                         _______ _______ _______ _____ _____    ______ ____

>  <TORSDO>
F 4

$$$$
=
 OpenBabel11062407553D

 34 39  0  0  1  0  0  0  0  0999 V2000
  161.2640  207.7070  154.2090 C   0  0  1  0  0  3  0  0  0  0  0  0
  161.4470  210.1140  154.8500 C   0  0  1  0  0  3  0  0  0  0  0  0
  161.5820  209.3490  152.3960 C   0  0  1  0  0  3  0  0  0  0  0  0
  162.2220  211.0600  150.5760 C   0  0  2  0  0  3  0  0  0  0  0  0
  161.1680  208.3390  156.6100 C   0  0  0  0  0  2  0  0  0  0  0  0
  160.8460  209.7760  156.2140 C   0  0  0  0  0  2  0  0  0  0  0  0
  160.1210  211.3540  151.6650 C   0  0  0  0  0  2  0  0  0  0  0  0
  160.9260  209.1400  153.7730 C   0  0  1  0  0  3  0  0  0  0  0  0
  161.6270  212.4030  150.1960 C   0  0  0  0  0  2  0  0  0  0  0  0
  160.6360  207.3770  155.5550 C   0  0  0  0  0  2  0  0  0  0  0  0
  161.0400  208.3500  151.3690 C   0  0  1  0  0  3  0  0  0  0  0  0
  160.8720  206.7240  153.2210 N   0  0  0  0  0  0  0  0  0  0  0  0
  161.1060  211.4190  154.5470 F   0  0  0  0  0  0  0  0  0  0  0  0
  161.7900  209.8950  149.2240 S   0  0  0  0  0  0  0  0  0  0  0  0
  161.9750  208.3390  150.1550 C   0  0  2  0  0  3  0  0  0  0  0  0
  160.2810  212.5020  150.7770 N   0  0  0  0  0  0  0  0  0  0  0  0
  161.5040  210.7880  151.8760 C   0  0  1  0  0  3  0  0  0  0  0  0
  160.8180  206.9710  151.9570 C   0  0  0  0  0  3  0  0  0  0  0  0
  162.0270  206.1860  147.0340 C   0  0  0  0  0  0  0  0  0  0  0  0
  161.3250  205.0540  147.4530 C   0  0  0  0  0  3  0  0  0  0  0  0
  161.7400  207.1830  149.2260 C   0  0  0  0  0  0  0  0  0  0  0  0
  160.8270  204.9820  148.7580 C   0  0  0  0  0  3  0  0  0  0  0  0
  162.2340  207.2490  147.9180 C   0  0  0  0  0  3  0  0  0  0  0  0
  161.0330  206.0440  149.6420 C   0  0  0  0  0  3  0  0  0  0  0  0
  162.5090  206.2550  145.7690 F   0  0  0  0  0  0  0  0  0  0  0  0
  159.3200  212.3380  149.6990 C   0  0  0  0  0  2  0  0  0  0  0  0
  158.9490  213.6950  149.1240 C   0  0  0  0  0  2  0  0  0  0  0  0
  160.9700  214.1730  146.8660 C   0  0  0  0  0  1  0  0  0  0  0  0
  158.7410  213.5800  147.6890 N   0  0  0  0  0  0  0  0  0  0  0  0
  159.9850  213.0410  147.1080 C   0  0  1  0  0  3  0  0  0  0  0  0
  158.4730  212.7350  145.1040 C   0  0  0  0  0  2  0  0  0  0  0  0
  157.2690  212.5180  146.0230 C   0  0  0  0  0  2  0  0  0  0  0  0
  157.6450  212.6270  147.5050 C   0  0  0  0  0  2  0  0  0  0  0  0
  159.7640  212.2860  145.7840 C   0  0  0  0  0  2  0  0  0  0  0  0
  1 10  1  1  0  0  0
  2 13  1  6  0  0  0
  2  6  1  0  0  0  0
  3  8  1  0  0  0  0
  4 17  1  0  0  0  0
  6  5  1  0  0  0  0
  7 17  1  0  0  0  0
  8  1  1  0  0  0  0
  8  2  1  0  0  0  0
  9  4  1  0  0  0  0
  9 16  1  0  0  0  0
 10  5  1  0  0  0  0
 11 18  1  0  0  0  0
 11  3  1  0  0  0  0
 12  1  1  0  0  0  0
 14 15  1  0  0  0  0
 14  4  1  0  0  0  0
 15 11  1  0  0  0  0
 16  7  1  0  0  0  0
 17  3  1  0  0  0  0
 18 12  2  0  0  0  0
 19 20  2  0  0  0  0
 19 23  1  0  0  0  0
 20 22  1  0  0  0  0
 21 24  1  0  0  0  0
 21 15  1  0  0  0  0
 22 24  2  0  0  0  0
 23 21  2  0  0  0  0
 25 19  1  0  0  0  0
 26 16  1  0  0  0  0
 27 26  1  0  0  0  0
 28 30  1  0  0  0  0
 29 27  1  0  0  0  0
 30 29  1  0  0  0  0
 31 34  1  0  0  0  0
 31 32  1  0  0  0  0
 32 33  1  0  0  0  0
 33 29  1  0  0  0  0
 34 30  1  0  0  0  0
M  END
>  <MODEL>
3

>  <REMARK>
 VINA RESULT:      -5.5      2.738      8.168
  Name = 
  4 active torsions:
  status: ('A' for Active; 'I' for Inactive)
    1  A    between atoms: C_3  and  N_13
    2  A    between atoms: C_3  and  C_17
    3  A    between atoms: C_12  and  C_28
    4  A    between atoms: C_17  and  N_29
                            x       y       z     vdW  Elec       q    Type
                         _______ _______ _______ _____ _____    ______ ____

>  <TORSDO>
F 4

$$$$
=
 OpenBabel11062407553D

 34 39  0  0  1  0  0  0  0  0999 V2000
  161.2150  207.9490  153.7580 C   0  0  1  0  0  3  0  0  0  0  0  0
  161.5060  210.3940  154.1800 C   0  0  1  0  0  3  0  0  0  0  0  0
  161.7430  209.3850  151.8240 C   0  0  1  0  0  3  0  0  0  0  0  0
  162.5980  210.8730  149.8980 C   0  0  2  0  0  3  0  0  0  0  0  0
  161.0110  208.8170  156.0770 C   0  0  0  0  0  2  0  0  0  0  0  0
  160.8030  210.2240  155.5270 C   0  0  0  0  0  2  0  0  0  0  0  0
  160.4560  211.3880  150.8120 C   0  0  0  0  0  2  0  0  0  0  0  0
  160.9930  209.3490  153.1670 C   0  0  1  0  0  3  0  0  0  0  0  0
  162.1110  212.2020  149.3550 C   0  0  0  0  0  2  0  0  0  0  0  0
  160.4870  207.7870  155.0840 C   0  0  0  0  0  2  0  0  0  0  0  0
  161.2050  208.3230  150.8610 C   0  0  1  0  0  3  0  0  0  0  0  0
  160.8250  206.8970  152.8420 N   0  0  0  0  0  0  0  0  0  0  0  0
  161.2640  211.6790  153.7340 F   0  0  0  0  0  0  0  0  0  0  0  0
  162.1780  209.6070  148.6350 S   0  0  0  0  0  0  0  0  0  0  0  0
  162.2110  208.1420  149.7190 C   0  0  2  0  0  3  0  0  0  0  0  0
  160.7400  212.4320  149.8320 N   0  0  0  0  0  0  0  0  0  0  0  0
  161.7860  210.7690  151.1670 C   0  0  1  0  0  3  0  0  0  0  0  0
  160.8630  207.0220  151.5600 C   0  0  0  0  0  3  0  0  0  0  0  0
  162.1100  205.7910  146.7450 C   0  0  0  0  0  0  0  0  0  0  0  0
  161.5180  204.6520  147.2970 C   0  0  0  0  0  3  0  0  0  0  0  0
  161.9630  206.9150  148.8890 C   0  0  0  0  0  0  0  0  0  0  0  0
  161.1460  204.6410  148.6460 C   0  0  0  0  0  3  0  0  0  0  0  0
  162.3310  206.9200  147.5390 C   0  0  0  0  0  3  0  0  0  0  0  0
  161.3660  205.7700  149.4400 C   0  0  0  0  0  3  0  0  0  0  0  0
  162.4700  205.8010  145.4390 F   0  0  0  0  0  0  0  0  0  0  0  0
  159.8380  212.2170  148.7130 C   0  0  0  0  0  2  0  0  0  0  0  0
  159.9550  213.3650  147.7240 C   0  0  0  0  0  2  0  0  0  0  0  0
  157.5330  212.5800  146.0140 C   0  0  0  0  0  1  0  0  0  0  0  0
  159.9410  212.8460  146.3660 N   0  0  0  0  0  0  0  0  0  0  0  0
  158.7600  213.4150  145.6910 C   0  0  1  0  0  3  0  0  0  0  0  0
  159.9480  212.5010  143.6540 C   0  0  0  0  0  2  0  0  0  0  0  0
  161.3060  212.7410  144.3170 C   0  0  0  0  0  2  0  0  0  0  0  0
  161.1670  213.3280  145.7260 C   0  0  0  0  0  2  0  0  0  0  0  0
  158.9120  213.5010  144.1610 C   0  0  0  0  0  2  0  0  0  0  0  0
  1 10  1  1  0  0  0
  2 13  1  6  0  0  0
  2  6  1  0  0  0  0
  3  8  1  0  0  0  0
  4 17  1  0  0  0  0
  6  5  1  0  0  0  0
  7 17  1  0  0  0  0
  8  1  1  0  0  0  0
  8  2  1  0  0  0  0
  9 16  1  0  0  0  0
  9  4  1  0  0  0  0
 10  5  1  0  0  0  0
 11 18  1  0  0  0  0
 11  3  1  0  0  0  0
 12  1  1  0  0  0  0
 14 15  1  0  0  0  0
 14  4  1  0  0  0  0
 15 11  1  0  0  0  0
 16  7  1  0  0  0  0
 17  3  1  0  0  0  0
 18 12  2  0  0  0  0
 19 20  2  0  0  0  0
 19 23  1  0  0  0  0
 20 22  1  0  0  0  0
 21 24  1  0  0  0  0
 21 15  1  0  0  0  0
 22 24  2  0  0  0  0
 23 21  2  0  0  0  0
 25 19  1  0  0  0  0
 26 16  1  0  0  0  0
 27 26  1  0  0  0  0
 29 27  1  0  0  0  0
 30 28  1  0  0  0  0
 30 29  1  0  0  0  0
 31 34  1  0  0  0  0
 31 32  1  0  0  0  0
 32 33  1  0  0  0  0
 33 29  1  0  0  0  0
 34 30  1  0  0  0  0
M  END
>  <MODEL>
4

>  <REMARK>
 VINA RESULT:      -5.4      2.782      8.234
  Name = 
  4 active torsions:
  status: ('A' for Active; 'I' for Inactive)
    1  A    between atoms: C_3  and  N_13
    2  A    between atoms: C_3  and  C_17
    3  A    between atoms: C_12  and  C_28
    4  A    between atoms: C_17  and  N_29
                            x       y       z     vdW  Elec       q    Type
                         _______ _______ _______ _____ _____    ______ ____

>  <TORSDO>
F 4

$$$$
=
 OpenBabel11062407553D

 34 39  0  0  1  0  0  0  0  0999 V2000
  161.2160  207.7480  153.7850 C   0  0  1  0  0  3  0  0  0  0  0  0
  161.5650  210.1700  154.2900 C   0  0  1  0  0  3  0  0  0  0  0  0
  161.7670  209.2390  151.8990 C   0  0  1  0  0  3  0  0  0  0  0  0
  162.6440  210.7730  150.0200 C   0  0  2  0  0  3  0  0  0  0  0  0
  161.0440  208.5390  156.1340 C   0  0  0  0  0  2  0  0  0  0  0  0
  160.8650  209.9690  155.6340 C   0  0  0  0  0  2  0  0  0  0  0  0
  160.5190  211.3030  150.9640 C   0  0  0  0  0  2  0  0  0  0  0  0
  161.0230  209.1730  153.2440 C   0  0  1  0  0  3  0  0  0  0  0  0
  162.1840  212.1300  149.5260 C   0  0  0  0  0  2  0  0  0  0  0  0
  160.4910  207.5570  155.1100 C   0  0  0  0  0  2  0  0  0  0  0  0
  161.1990  208.2220  150.9030 C   0  0  1  0  0  3  0  0  0  0  0  0
  160.7970  206.7380  152.8360 N   0  0  0  0  0  0  0  0  0  0  0  0
  161.3500  211.4750  153.8900 F   0  0  0  0  0  0  0  0  0  0  0  0
  162.1890  209.5610  148.7170 S   0  0  0  0  0  0  0  0  0  0  0  0
  162.1940  208.0580  149.7500 C   0  0  2  0  0  3  0  0  0  0  0  0
  160.8220  212.3740  150.0190 N   0  0  0  0  0  0  0  0  0  0  0  0
  161.8370  210.6430  151.2890 C   0  0  1  0  0  3  0  0  0  0  0  0
  160.8320  206.9060  151.5590 C   0  0  0  0  0  3  0  0  0  0  0  0
  161.9980  205.8250  146.6900 C   0  0  0  0  0  0  0  0  0  0  0  0
  161.4080  204.6720  147.2120 C   0  0  0  0  0  3  0  0  0  0  0  0
  161.9140  206.8670  148.8790 C   0  0  0  0  0  0  0  0  0  0  0  0
  161.0680  204.6120  148.5680 C   0  0  0  0  0  3  0  0  0  0  0  0
  162.2500  206.9210  147.5220 C   0  0  0  0  0  3  0  0  0  0  0  0
  161.3190  205.7070  149.3990 C   0  0  0  0  0  3  0  0  0  0  0  0
  162.3270  205.8830  145.3770 F   0  0  0  0  0  0  0  0  0  0  0  0
  159.9090  212.2180  148.8990 C   0  0  0  0  0  2  0  0  0  0  0  0
  160.2820  213.1860  147.7870 C   0  0  0  0  0  2  0  0  0  0  0  0
  159.4220  212.4640  144.9320 C   0  0  0  0  0  1  0  0  0  0  0  0
  159.0840  213.6000  147.0750 N   0  0  0  0  0  0  0  0  0  0  0  0
  158.6520  212.4620  146.2430 C   0  0  1  0  0  3  0  0  0  0  0  0
  156.5650  213.8760  146.0510 C   0  0  0  0  0  2  0  0  0  0  0  0
  156.8010  214.4450  147.4520 C   0  0  0  0  0  2  0  0  0  0  0  0
  158.0750  213.8880  148.0960 C   0  0  0  0  0  2  0  0  0  0  0  0
  157.1440  212.4700  145.9310 C   0  0  0  0  0  2  0  0  0  0  0  0
  1 10  1  1  0  0  0
  2 13  1  6  0  0  0
  2  6  1  0  0  0  0
  3  8  1  0  0  0  0
  4 17  1  0  0  0  0
  6  5  1  0  0  0  0
  7 17  1  0  0  0  0
  8  1  1  0  0  0  0
  8  2  1  0  0  0  0
  9 16  1  0  0  0  0
  9  4  1  0  0  0  0
 10  5  1  0  0  0  0
 11 18  1  0  0  0  0
 11  3  1  0  0  0  0
 12  1  1  0  0  0  0
 14 15  1  0  0  0  0
 14  4  1  0  0  0  0
 15 11  1  0  0  0  0
 16  7  1  0  0  0  0
 17  3  1  0  0  0  0
 18 12  2  0  0  0  0
 19 20  2  0  0  0  0
 19 23  1  0  0  0  0
 20 22  1  0  0  0  0
 21 24  1  0  0  0  0
 21 15  1  0  0  0  0
 22 24  2  0  0  0  0
 23 21  2  0  0  0  0
 25 19  1  0  0  0  0
 26 16  1  0  0  0  0
 27 26  1  0  0  0  0
 28 30  1  0  0  0  0
 29 27  1  0  0  0  0
 29 33  1  0  0  0  0
 30 29  1  0  0  0  0
 31 32  1  0  0  0  0
 32 33  1  0  0  0  0
 34 31  1  0  0  0  0
 34 30  1  0  0  0  0
M  END
>  <MODEL>
5

>  <REMARK>
 VINA RESULT:      -5.4      2.880      8.332
  Name = 
  4 active torsions:
  status: ('A' for Active; 'I' for Inactive)
    1  A    between atoms: C_3  and  N_13
    2  A    between atoms: C_3  and  C_17
    3  A    between atoms: C_12  and  C_28
    4  A    between atoms: C_17  and  N_29
                            x       y       z     vdW  Elec       q    Type
                         _______ _______ _______ _____ _____    ______ ____

>  <TORSDO>
F 4

$$$$
=
 OpenBabel11062407553D

 34 39  0  0  1  0  0  0  0  0999 V2000
  161.3670  205.9890  150.4460 C   0  0  1  0  0  3  0  0  0  0  0  0
  161.4470  205.2150  152.8200 C   0  0  1  0  0  3  0  0  0  0  0  0
  161.6550  207.7030  152.1950 C   0  0  1  0  0  3  0  0  0  0  0  0
  162.2630  209.4150  154.0270 C   0  0  2  0  0  3  0  0  0  0  0  0
  161.2030  203.5600  150.9420 C   0  0  0  0  0  2  0  0  0  0  0  0
  160.8340  203.8840  152.3860 C   0  0  0  0  0  2  0  0  0  0  0  0
  160.1330  208.3550  154.1830 C   0  0  0  0  0  2  0  0  0  0  0  0
  160.9830  206.3530  151.8880 C   0  0  1  0  0  3  0  0  0  0  0  0
  161.6250  209.7340  155.3650 C   0  0  0  0  0  2  0  0  0  0  0  0
  160.7280  204.6750  150.0200 C   0  0  0  0  0  2  0  0  0  0  0  0
  161.1710  208.7940  151.2350 C   0  0  1  0  0  3  0  0  0  0  0  0
  161.0310  207.0360  149.5050 N   0  0  0  0  0  0  0  0  0  0  0  0
  161.0610  205.4540  154.1250 F   0  0  0  0  0  0  0  0  0  0  0  0
  161.9000  210.8370  152.9220 S   0  0  0  0  0  0  0  0  0  0  0  0
  162.1280  209.9870  151.3250 C   0  0  2  0  0  3  0  0  0  0  0  0
  160.2650  209.1760  155.3820 N   0  0  0  0  0  0  0  0  0  0  0  0
  161.5320  208.1470  153.6570 C   0  0  1  0  0  3  0  0  0  0  0  0
  160.9910  208.2860  149.8180 C   0  0  0  0  0  3  0  0  0  0  0  0
  160.8400  212.9520  149.3430 C   0  0  0  0  0  0  0  0  0  0  0  0
  161.5910  212.8620  148.1690 C   0  0  0  0  0  3  0  0  0  0  0  0
  161.9540  210.9820  150.2140 C   0  0  0  0  0  0  0  0  0  0  0  0
  162.5250  211.8330  148.0130 C   0  0  0  0  0  3  0  0  0  0  0  0
  161.0210  212.0140  150.3630 C   0  0  0  0  0  3  0  0  0  0  0  0
  162.7060  210.8940  149.0320 C   0  0  0  0  0  3  0  0  0  0  0  0
  159.9350  213.9490  149.4940 F   0  0  0  0  0  0  0  0  0  0  0  0
  159.3300  210.2800  155.2420 C   0  0  0  0  0  2  0  0  0  0  0  0
  158.7220  210.2720  153.8490 C   0  0  0  0  0  2  0  0  0  0  0  0
  155.9160  210.7030  155.0110 C   0  0  0  0  0  1  0  0  0  0  0  0
  157.8470  211.4230  153.6890 N   0  0  0  0  0  0  0  0  0  0  0  0
  157.1330  211.6120  154.9650 C   0  0  1  0  0  3  0  0  0  0  0  0
  156.5520  213.8220  153.8820 C   0  0  0  0  0  2  0  0  0  0  0  0
  157.8830  213.8210  153.1260 C   0  0  0  0  0  2  0  0  0  0  0  0
  158.7170  212.5710  153.4240 C   0  0  0  0  0  2  0  0  0  0  0  0
  156.6760  213.0630  155.2010 C   0  0  0  0  0  2  0  0  0  0  0  0
  1 10  1  6  0  0  0
  1  8  1  0  0  0  0
  2 13  1  1  0  0  0
  3 17  1  0  0  0  0
  4  9  1  0  0  0  0
  5  6  1  0  0  0  0
  6  2  1  0  0  0  0
  7 16  1  0  0  0  0
  8  3  1  0  0  0  0
  8  2  1  0  0  0  0
  9 16  1  0  0  0  0
 10  5  1  0  0  0  0
 11 15  1  0  0  0  0
 11  3  1  0  0  0  0
 12 18  2  0  0  0  0
 12  1  1  0  0  0  0
 14  4  1  0  0  0  0
 15 14  1  0  0  0  0
 17  4  1  0  0  0  0
 17  7  1  0  0  0  0
 18 11  1  0  0  0  0
 19 25  1  0  0  0  0
 19 23  1  0  0  0  0
 20 19  2  0  0  0  0
 21 23  2  0  0  0  0
 21 15  1  0  0  0  0
 22 20  1  0  0  0  0
 22 24  2  0  0  0  0
 24 21  1  0  0  0  0
 26 16  1  0  0  0  0
 27 26  1  0  0  0  0
 29 27  1  0  0  0  0
 29 30  1  0  0  0  0
 30 28  1  0  0  0  0
 30 34  1  0  0  0  0
 31 34  1  0  0  0  0
 32 33  1  0  0  0  0
 32 31  1  0  0  0  0
 33 29  1  0  0  0  0
M  END
>  <MODEL>
6

>  <REMARK>
 VINA RESULT:      -5.4      2.618      7.679
  Name = 
  4 active torsions:
  status: ('A' for Active; 'I' for Inactive)
    1  A    between atoms: C_3  and  N_13
    2  A    between atoms: C_3  and  C_17
    3  A    between atoms: C_12  and  C_28
    4  A    between atoms: C_17  and  N_29
                            x       y       z     vdW  Elec       q    Type
                         _______ _______ _______ _____ _____    ______ ____

>  <TORSDO>
F 4

$$$$
=
 OpenBabel11062407553D

 34 39  0  0  1  0  0  0  0  0999 V2000
  161.6440  206.5770  148.4550 C   0  0  1  0  0  3  0  0  0  0  0  0
  161.6910  205.4790  150.6980 C   0  0  1  0  0  3  0  0  0  0  0  0
  161.8700  208.0330  150.4320 C   0  0  1  0  0  3  0  0  0  0  0  0
  162.4140  209.4790  152.4980 C   0  0  2  0  0  3  0  0  0  0  0  0
  161.5110  204.1010  148.6010 C   0  0  0  0  0  2  0  0  0  0  0  0
  161.1090  204.2140  150.0690 C   0  0  0  0  0  2  0  0  0  0  0  0
  160.2990  208.3780  152.4590 C   0  0  0  0  0  2  0  0  0  0  0  0
  161.2260  206.7310  149.9250 C   0  0  1  0  0  3  0  0  0  0  0  0
  161.7450  209.5980  153.8530 C   0  0  0  0  0  2  0  0  0  0  0  0
  161.0350  205.3280  147.8350 C   0  0  0  0  0  2  0  0  0  0  0  0
  161.3850  209.2410  149.6250 C   0  0  1  0  0  3  0  0  0  0  0  0
  161.3080  207.7420  147.6620 N   0  0  0  0  0  0  0  0  0  0  0  0
  161.2770  205.5270  152.0150 F   0  0  0  0  0  0  0  0  0  0  0  0
  162.0480  211.0370  151.5960 S   0  0  0  0  0  0  0  0  0  0  0  0
  162.3200  210.4230  149.9010 C   0  0  2  0  0  3  0  0  0  0  0  0
  160.3950  209.0250  153.7640 N   0  0  0  0  0  0  0  0  0  0  0  0
  161.7110  208.2650  151.9390 C   0  0  1  0  0  3  0  0  0  0  0  0
  161.2410  208.9340  148.1470 C   0  0  0  0  0  3  0  0  0  0  0  0
  162.8420  212.6810  146.8990 C   0  0  0  0  0  0  0  0  0  0  0  0
  161.8760  213.6680  147.1090 C   0  0  0  0  0  3  0  0  0  0  0  0
  162.1510  211.5620  148.9370 C   0  0  0  0  0  0  0  0  0  0  0  0
  161.0450  213.6060  148.2330 C   0  0  0  0  0  3  0  0  0  0  0  0
  162.9800  211.6300  147.8110 C   0  0  0  0  0  3  0  0  0  0  0  0
  161.1820  212.5560  149.1450 C   0  0  0  0  0  3  0  0  0  0  0  0
  163.6470  212.7420  145.8110 F   0  0  0  0  0  0  0  0  0  0  0  0
  159.4440  210.1250  153.7600 C   0  0  0  0  0  2  0  0  0  0  0  0
  159.4610  210.8290  155.1060 C   0  0  0  0  0  2  0  0  0  0  0  0
  156.4000  211.0370  155.1120 C   0  0  0  0  0  1  0  0  0  0  0  0
  158.6390  212.0270  155.0430 N   0  0  0  0  0  0  0  0  0  0  0  0
  157.4580  211.7950  155.8960 C   0  0  1  0  0  3  0  0  0  0  0  0
  157.1950  214.2880  155.5670 C   0  0  0  0  0  2  0  0  0  0  0  0
  158.7130  214.4530  155.4670 C   0  0  0  0  0  2  0  0  0  0  0  0
  159.4500  213.1150  155.5920 C   0  0  0  0  0  2  0  0  0  0  0  0
  156.8350  213.0920  156.4440 C   0  0  0  0  0  2  0  0  0  0  0  0
  1 10  1  6  0  0  0
  1  8  1  0  0  0  0
  2 13  1  1  0  0  0
  3 17  1  0  0  0  0
  4  9  1  0  0  0  0
  5  6  1  0  0  0  0
  6  2  1  0  0  0  0
  7 16  1  0  0  0  0
  8  3  1  0  0  0  0
  8  2  1  0  0  0  0
 10  5  1  0  0  0  0
 11 15  1  0  0  0  0
 11  3  1  0  0  0  0
 12 18  2  0  0  0  0
 12  1  1  0  0  0  0
 14  4  1  0  0  0  0
 15 14  1  0  0  0  0
 16  9  1  0  0  0  0
 17  7  1  0  0  0  0
 17  4  1  0  0  0  0
 18 11  1  0  0  0  0
 19 20  2  0  0  0  0
 19 23  1  0  0  0  0
 20 22  1  0  0  0  0
 21 24  1  0  0  0  0
 21 15  1  0  0  0  0
 22 24  2  0  0  0  0
 23 21  2  0  0  0  0
 25 19  1  0  0  0  0
 26 16  1  0  0  0  0
 26 27  1  0  0  0  0
 28 30  1  0  0  0  0
 29 27  1  0  0  0  0
 29 33  1  0  0  0  0
 29 30  1  0  0  0  0
 30 34  1  0  0  0  0
 31 34  1  0  0  0  0
 32 31  1  0  0  0  0
 32 33  1  0  0  0  0
M  END
>  <MODEL>
7

>  <REMARK>
 VINA RESULT:      -4.3      2.423      7.938
  Name = 
  4 active torsions:
  status: ('A' for Active; 'I' for Inactive)
    1  A    between atoms: C_3  and  N_13
    2  A    between atoms: C_3  and  C_17
    3  A    between atoms: C_12  and  C_28
    4  A    between atoms: C_17  and  N_29
                            x       y       z     vdW  Elec       q    Type
                         _______ _______ _______ _____ _____    ______ ____

>  <TORSDO>
F 4

$$$$
=
 OpenBabel11062407553D

 34 39  0  0  1  0  0  0  0  0999 V2000
  161.3310  205.4950  146.6070 C   0  0  1  0  0  3  0  0  0  0  0  0
  161.8900  203.5150  148.0240 C   0  0  1  0  0  3  0  0  0  0  0  0
  162.0070  205.9170  148.9410 C   0  0  1  0  0  3  0  0  0  0  0  0
  163.0130  206.3240  151.2810 C   0  0  2  0  0  3  0  0  0  0  0  0
  161.2310  203.2190  145.6150 C   0  0  0  0  0  2  0  0  0  0  0  0
  161.1770  202.6160  147.0140 C   0  0  0  0  0  2  0  0  0  0  0  0
  160.9440  205.1450  151.1690 C   0  0  0  0  0  2  0  0  0  0  0  0
  161.2630  204.9240  148.0310 C   0  0  1  0  0  3  0  0  0  0  0  0
  162.6740  205.7490  152.6420 C   0  0  0  0  0  2  0  0  0  0  0  0
  160.5940  204.6020  145.6190 C   0  0  0  0  0  2  0  0  0  0  0  0
  161.3520  207.3010  148.9020 C   0  0  1  0  0  3  0  0  0  0  0  0
  160.8240  206.8490  146.5310 N   0  0  0  0  0  0  0  0  0  0  0  0
  161.7900  202.9200  149.2670 F   0  0  0  0  0  0  0  0  0  0  0  0
  162.4530  208.0740  151.2980 S   0  0  0  0  0  0  0  0  0  0  0  0
  162.3280  208.3220  149.4960 C   0  0  2  0  0  3  0  0  0  0  0  0
  161.3380  205.1400  152.5740 N   0  0  0  0  0  0  0  0  0  0  0  0
  162.1990  205.4270  150.3800 C   0  0  1  0  0  3  0  0  0  0  0  0
  160.8720  207.6800  147.5150 C   0  0  0  0  0  3  0  0  0  0  0  0
  161.2480  211.4510  147.6450 C   0  0  0  0  0  0  0  0  0  0  0  0
  161.2220  212.3990  148.6710 C   0  0  0  0  0  3  0  0  0  0  0  0
  161.9440  209.7490  149.2260 C   0  0  0  0  0  0  0  0  0  0  0  0
  161.5570  212.0250  149.9770 C   0  0  0  0  0  3  0  0  0  0  0  0
  161.6090  210.1290  147.9220 C   0  0  0  0  0  3  0  0  0  0  0  0
  161.9180  210.7040  150.2540 C   0  0  0  0  0  3  0  0  0  0  0  0
  160.9240  211.8130  146.3800 F   0  0  0  0  0  0  0  0  0  0  0  0
  160.4140  206.0170  153.2750 C   0  0  0  0  0  2  0  0  0  0  0  0
  161.1760  206.9090  154.2400 C   0  0  0  0  0  2  0  0  0  0  0  0
  159.8010  207.0170  156.9800 C   0  0  0  0  0  1  0  0  0  0  0  0
  160.2890  207.9360  154.7640 N   0  0  0  0  0  0  0  0  0  0  0  0
  160.5750  208.0700  156.2040 C   0  0  1  0  0  3  0  0  0  0  0  0
  159.1800  210.1580  155.9050 C   0  0  0  0  0  2  0  0  0  0  0  0
  159.6750  210.3020  154.4640 C   0  0  0  0  0  2  0  0  0  0  0  0
  160.6330  209.1750  154.0650 C   0  0  0  0  0  2  0  0  0  0  0  0
  160.2260  209.4580  156.7700 C   0  0  0  0  0  2  0  0  0  0  0  0
  1 10  1  6  0  0  0
  1  8  1  0  0  0  0
  2  8  1  0  0  0  0
  2 13  1  1  0  0  0
  3 17  1  0  0  0  0
  4 14  1  0  0  0  0
  4  9  1  0  0  0  0
  5 10  1  0  0  0  0
  5  6  1  0  0  0  0
  6  2  1  0  0  0  0
  7 16  1  0  0  0  0
  8  3  1  0  0  0  0
 11  3  1  0  0  0  0
 11 15  1  0  0  0  0
 12  1  1  0  0  0  0
 12 18  2  0  0  0  0
 15 14  1  0  0  0  0
 16  9  1  0  0  0  0
 16 26  1  0  0  0  0
 17  7  1  0  0  0  0
 17  4  1  0  0  0  0
 18 11  1  0  0  0  0
 19 23  2  0  0  0  0
 19 20  1  0  0  0  0
 20 22  2  0  0  0  0
 21 15  1  0  0  0  0
 21 24  2  0  0  0  0
 22 24  1  0  0  0  0
 23 21  1  0  0  0  0
 25 19  1  0  0  0  0
 26 27  1  0  0  0  0
 27 29  1  0  0  0  0
 29 30  1  0  0  0  0
 30 34  1  0  0  0  0
 30 28  1  0  0  0  0
 31 34  1  0  0  0  0
 32 31  1  0  0  0  0
 33 32  1  0  0  0  0
 33 29  1  0  0  0  0
M  END
>  <MODEL>
8

>  <REMARK>
 VINA RESULT:      -3.9      2.968      7.213
  Name = 
  4 active torsions:
  status: ('A' for Active; 'I' for Inactive)
    1  A    between atoms: C_3  and  N_13
    2  A    between atoms: C_3  and  C_17
    3  A    between atoms: C_12  and  C_28
    4  A    between atoms: C_17  and  N_29
                            x       y       z     vdW  Elec       q    Type
                         _______ _______ _______ _____ _____    ______ ____

>  <TORSDO>
F 4

$$$$
