=
 OpenBabel11062408033D

 34 41  0  0  1  0  0  0  0  0999 V2000
  161.0870  212.2770  150.1370 C   0  0  0  0  0  0  0  0  0  0  0  0
  161.6920  209.9660  149.5120 C   0  0  0  0  0  0  0  0  0  0  0  0
  160.8120  210.4700  151.7030 C   0  0  0  0  0  0  0  0  0  0  0  0
  160.5830  208.5950  153.0980 C   0  0  0  0  0  0  0  0  0  0  0  0
  161.9680  211.7840  147.9270 C   0  0  0  0  0  3  0  0  0  0  0  0
  158.3050  213.1140  156.3070 C   0  0  1  0  0  0  0  0  0  0  0  0
  157.6020  212.2190  157.1280 O   0  0  0  0  0  0  0  0  0  0  0  0
  162.0720  210.4180  148.2450 C   0  0  0  0  0  3  0  0  0  0  0  0
  161.3900  208.2690  151.1110 C   0  0  0  0  0  0  0  0  0  0  0  0
  159.4190  211.4960  155.0330 N   0  0  0  0  0  0  0  0  0  0  0  0
  161.2030  210.9170  150.4480 C   0  0  0  0  0  0  0  0  0  0  0  0
  159.0110  212.2380  157.2610 C   0  0  1  0  0  3  0  0  0  0  0  0
  160.7960  207.2170  153.0240 C   0  0  0  0  0  3  0  0  0  0  0  0
  161.4790  212.7100  148.8660 C   0  0  0  0  0  3  0  0  0  0  0  0
  160.2910  211.3130  152.6890 C   0  0  0  0  0  0  0  0  0  0  0  0
  158.6190  212.6950  154.8880 C   0  0  0  0  0  2  0  0  0  0  0  0
  160.5850  213.1630  151.1090 C   0  0  0  0  0  3  0  0  0  0  0  0
  161.7770  208.6340  149.8540 N   0  0  0  0  0  0  0  0  0  0  0  0
  160.0830  209.3480  154.1150 N   0  0  0  0  0  2  0  0  0  0  0  0
  159.6250  211.1220  156.4230 C   0  0  0  0  0  2  0  0  0  0  0  0
  159.9250  210.7110  153.9400 C   0  0  0  0  0  0  0  0  0  0  0  0
  161.3200  207.0240  151.7160 C   0  0  0  0  0  0  0  0  0  0  0  0
  158.2380  214.4530  156.6830 O   0  0  0  0  0  1  0  0  0  0  0  0
  160.9370  209.1710  151.9630 N   0  0  0  0  0  0  0  0  0  0  0  0
  160.1910  212.6860  152.3800 C   0  0  0  0  0  3  0  0  0  0  0  0
  160.7830  204.9140  150.5810 C   0  0  0  0  0  3  0  0  0  0  0  0
  161.6830  205.7550  151.0780 C   0  0  0  0  0  3  0  0  0  0  0  0
  161.5020  202.0200  151.6100 C   0  0  0  0  0  1  0  0  0  0  0  0
  161.2250  203.6480  149.9230 C   0  0  1  0  0  3  0  0  0  0  0  0
  160.5910  202.4870  150.5770 N   0  0  0  0  0  0  0  0  0  0  0  0
  161.4170  201.2220  148.5860 C   0  0  0  0  0  2  0  0  0  0  0  0
  161.4740  202.4770  147.7130 C   0  0  0  0  0  2  0  0  0  0  0  0
  160.9220  203.7100  148.4230 C   0  0  0  0  0  2  0  0  0  0  0  0
  160.3460  201.3510  149.6720 C   0  0  0  0  0  2  0  0  0  0  0  0
  1 11  1  0  0  0  0
  1 17  1  0  0  0  0
  2 18  2  0  0  0  0
  2 11  1  0  0  0  0
  3 24  1  0  0  0  0
  3 15  1  0  0  0  0
  4 19  1  0  0  0  0
  5  8  2  0  0  0  0
  5 14  1  0  0  0  0
  6 23  1  1  0  0  0
  6  7  1  0  0  0  0
  6 12  1  0  0  0  0
  7 12  1  0  0  0  0
  8  2  1  0  0  0  0
  9 22  2  0  0  0  0
  9 24  1  0  0  0  0
 10 20  1  0  0  0  0
 11  3  2  0  0  0  0
 12 20  1  6  0  0  0
 13  4  2  0  0  0  0
 14  1  2  0  0  0  0
 15 21  2  0  0  0  0
 16 10  1  0  0  0  0
 16  6  1  0  0  0  0
 17 25  2  0  0  0  0
 18  9  1  0  0  0  0
 21 19  1  0  0  0  0
 21 10  1  0  0  0  0
 22 13  1  0  0  0  0
 24  4  1  0  0  0  0
 25 15  1  0  0  0  0
 26 27  2  0  0  0  0
 27 22  1  0  0  0  0
 29 30  1  0  0  0  0
 29 26  1  1  0  0  0
 30 28  1  0  0  0  0
 31 34  1  0  0  0  0
 32 33  1  0  0  0  0
 32 31  1  0  0  0  0
 33 29  1  0  0  0  0
 34 30  1  0  0  0  0
M  END
>  <MODEL>
1

>  <REMARK>
 VINA RESULT:      -7.3      0.000      0.000
  Name = 
  2 active torsions:
  status: ('A' for Active; 'I' for Inactive)
    1  A    between atoms: C_3  and  C_13
    2  A    between atoms: C_17  and  C_29
                            x       y       z     vdW  Elec       q    Type
                         _______ _______ _______ _____ _____    ______ ____

>  <TORSDO>
F 2

$$$$
=
 OpenBabel11062408033D

 34 41  0  0  1  0  0  0  0  0999 V2000
  160.7100  213.7610  149.7830 C   0  0  0  0  0  0  0  0  0  0  0  0
  161.5870  211.6890  148.7680 C   0  0  0  0  0  0  0  0  0  0  0  0
  160.7380  211.7010  151.0270 C   0  0  0  0  0  0  0  0  0  0  0  0
  160.8140  209.6090  152.0910 C   0  0  0  0  0  0  0  0  0  0  0  0
  161.5580  213.7630  147.5060 C   0  0  0  0  0  3  0  0  0  0  0  0
  158.0930  213.1860  156.0540 C   0  0  1  0  0  0  0  0  0  0  0  0
  157.5470  212.0810  156.7250 O   0  0  0  0  0  0  0  0  0  0  0  0
  161.8540  212.3900  147.5890 C   0  0  0  0  0  3  0  0  0  0  0  0
  161.5770  209.7270  150.0640 C   0  0  0  0  0  0  0  0  0  0  0  0
  159.3580  211.9670  154.5070 N   0  0  0  0  0  0  0  0  0  0  0  0
  161.0160  212.3980  149.8590 C   0  0  0  0  0  0  0  0  0  0  0  0
  158.9450  212.2700  156.8350 C   0  0  1  0  0  3  0  0  0  0  0  0
  161.2040  208.3040  151.7820 C   0  0  0  0  0  3  0  0  0  0  0  0
  160.9900  214.4460  148.5970 C   0  0  0  0  0  3  0  0  0  0  0  0
  160.1510  212.2920  152.1510 C   0  0  0  0  0  0  0  0  0  0  0  0
  158.4010  213.0520  154.5800 C   0  0  0  0  0  2  0  0  0  0  0  0
  160.1350  214.3990  150.8990 C   0  0  0  0  0  3  0  0  0  0  0  0
  161.8610  210.3430  148.8800 N   0  0  0  0  0  0  0  0  0  0  0  0
  160.2600  210.1090  153.2290 N   0  0  0  0  0  2  0  0  0  0  0  0
  159.6660  211.4010  155.8100 C   0  0  0  0  0  2  0  0  0  0  0  0
  159.9180  211.4480  153.2890 C   0  0  0  0  0  0  0  0  0  0  0  0
  161.6950  208.4020  150.4520 C   0  0  0  0  0  0  0  0  0  0  0  0
  157.8650  214.4230  156.6510 O   0  0  0  0  0  1  0  0  0  0  0  0
  161.0440  210.4070  151.0640 N   0  0  0  0  0  0  0  0  0  0  0  0
  159.8590  213.6700  152.0780 C   0  0  0  0  0  3  0  0  0  0  0  0
  161.3950  206.5070  148.9190 C   0  0  0  0  0  3  0  0  0  0  0  0
  162.1960  207.3160  149.6030 C   0  0  0  0  0  3  0  0  0  0  0  0
  161.4110  203.3540  149.0140 C   0  0  0  0  0  1  0  0  0  0  0  0
  161.9750  205.4360  148.0550 C   0  0  1  0  0  3  0  0  0  0  0  0
  161.0440  204.2930  147.9670 N   0  0  0  0  0  0  0  0  0  0  0  0
  162.5230  203.5450  146.0960 C   0  0  0  0  0  2  0  0  0  0  0  0
  163.0270  204.9630  145.8220 C   0  0  0  0  0  2  0  0  0  0  0  0
  162.3230  206.0120  146.6790 C   0  0  0  0  0  2  0  0  0  0  0  0
  161.1110  203.5640  146.6890 C   0  0  0  0  0  2  0  0  0  0  0  0
  1 11  1  0  0  0  0
  1 17  1  0  0  0  0
  2 18  2  0  0  0  0
  2 11  1  0  0  0  0
  3 24  1  0  0  0  0
  3 15  1  0  0  0  0
  4 19  1  0  0  0  0
  5  8  2  0  0  0  0
  5 14  1  0  0  0  0
  6 23  1  1  0  0  0
  6  7  1  0  0  0  0
  6 12  1  0  0  0  0
  7 12  1  0  0  0  0
  8  2  1  0  0  0  0
  9 22  2  0  0  0  0
  9 24  1  0  0  0  0
 10 16  1  0  0  0  0
 10 20  1  0  0  0  0
 11  3  2  0  0  0  0
 12 20  1  6  0  0  0
 13  4  2  0  0  0  0
 14  1  2  0  0  0  0
 15 21  2  0  0  0  0
 16  6  1  0  0  0  0
 17 25  2  0  0  0  0
 18  9  1  0  0  0  0
 19 21  1  0  0  0  0
 21 10  1  0  0  0  0
 22 13  1  0  0  0  0
 24  4  1  0  0  0  0
 25 15  1  0  0  0  0
 26 27  2  0  0  0  0
 27 22  1  0  0  0  0
 29 26  1  1  0  0  0
 30 29  1  0  0  0  0
 30 28  1  0  0  0  0
 31 34  1  0  0  0  0
 32 31  1  0  0  0  0
 32 33  1  0  0  0  0
 33 29  1  0  0  0  0
 34 30  1  0  0  0  0
M  END
>  <MODEL>
2

>  <REMARK>
 VINA RESULT:      -6.4      1.539      1.995
  Name = 
  2 active torsions:
  status: ('A' for Active; 'I' for Inactive)
    1  A    between atoms: C_3  and  C_13
    2  A    between atoms: C_17  and  C_29
                            x       y       z     vdW  Elec       q    Type
                         _______ _______ _______ _____ _____    ______ ____

>  <TORSDO>
F 2

$$$$
=
 OpenBabel11062408033D

 34 41  0  0  1  0  0  0  0  0999 V2000
  161.4060  208.1640  152.8240 C   0  0  0  0  0  0  0  0  0  0  0  0
  161.2090  205.8830  151.9010 C   0  0  0  0  0  0  0  0  0  0  0  0
  161.4120  207.7980  150.4450 C   0  0  0  0  0  0  0  0  0  0  0  0
  161.4270  207.2670  148.1570 C   0  0  0  0  0  0  0  0  0  0  0  0
  161.2060  206.2450  154.3010 C   0  0  0  0  0  3  0  0  0  0  0  0
  162.3230  213.1890  148.3060 C   0  0  1  0  0  0  0  0  0  0  0  0
  162.8570  213.1730  147.0090 O   0  0  0  0  0  0  0  0  0  0  0  0
  161.1460  205.3720  153.2000 C   0  0  0  0  0  3  0  0  0  0  0  0
  161.2210  205.6270  149.5630 C   0  0  0  0  0  0  0  0  0  0  0  0
  161.7500  210.9220  148.3920 N   0  0  0  0  0  0  0  0  0  0  0  0
  161.3360  207.2880  151.7340 C   0  0  2  0  0  3  0  0  0  0  0  0
  161.4700  212.9250  147.1330 C   0  0  1  0  0  3  0  0  0  0  0  0
  161.3700  206.1210  147.3600 C   0  0  0  0  0  3  0  0  0  0  0  0
  161.3350  207.6340  154.1160 C   0  0  0  0  0  3  0  0  0  0  0  0
  161.5660  209.1600  150.1670 C   0  0  0  0  0  0  0  0  0  0  0  0
  162.4460  211.9410  149.1500 C   0  0  0  0  0  2  0  0  0  0  0  0
  161.5420  209.5460  152.5870 C   0  0  0  0  0  3  0  0  0  0  0  0
  161.1570  205.0550  150.8000 N   0  0  0  0  0  0  0  0  0  0  0  0
  161.5610  208.5730  147.8020 N   0  0  0  0  0  0  0  0  0  0  0  0
  161.2120  211.4230  147.1390 C   0  0  0  0  0  2  0  0  0  0  0  0
  161.6340  209.5440  148.7850 C   0  0  0  0  0  0  0  0  0  0  0  0
  161.2400  205.0610  148.2980 C   0  0  0  0  0  0  0  0  0  0  0  0
  162.1630  214.4510  148.8730 O   0  0  0  0  0  1  0  0  0  0  0  0
  161.3410  206.9360  149.4340 N   0  0  0  0  0  0  0  0  0  0  0  0
  161.6190  210.0420  151.2660 C   0  0  0  0  0  3  0  0  0  0  0  0
  160.4570  203.1090  147.0290 C   0  0  0  0  0  3  0  0  0  0  0  0
  161.1820  203.6230  148.0170 C   0  0  0  0  0  3  0  0  0  0  0  0
  159.1270  201.2160  144.8860 C   0  0  0  0  0  1  0  0  0  0  0  0
  160.4630  201.6360  146.7860 C   0  0  1  0  0  3  0  0  0  0  0  0
  160.5010  201.3600  145.3360 N   0  0  0  0  0  0  0  0  0  0  0  0
  161.0360  199.0230  146.0420 C   0  0  0  0  0  2  0  0  0  0  0  0
  161.5880  199.4730  147.3960 C   0  0  0  0  0  2  0  0  0  0  0  0
  161.6340  200.9920  147.5340 C   0  0  0  0  0  2  0  0  0  0  0  0
  161.2060  200.1150  144.9830 C   0  0  0  0  0  2  0  0  0  0  0  0
  1 14  2  0  0  0  0
  2  8  1  0  0  0  0
  4 24  1  0  0  0  0
  6 23  1  1  0  0  0
  6 16  1  0  0  0  0
  7 12  1  0  0  0  0
  7  6  1  0  0  0  0
  8  5  2  0  0  0  0
  9 18  1  0  0  0  0
 10 21  1  0  0  0  0
 10 16  1  0  0  0  0
 11  3  1  1  0  0  0
 11  2  1  0  0  0  0
 11  1  1  0  0  0  0
 12 20  1  1  0  0  0
 12  6  1  0  0  0  0
 13  4  2  0  0  0  0
 13 22  1  0  0  0  0
 14  5  1  0  0  0  0
 15  3  2  0  0  0  0
 15 25  1  0  0  0  0
 17  1  1  0  0  0  0
 18  2  2  0  0  0  0
 19  4  1  0  0  0  0
 19 21  2  0  0  0  0
 20 10  1  0  0  0  0
 21 15  1  0  0  0  0
 22  9  2  0  0  0  0
 24  9  1  0  0  0  0
 24  3  1  0  0  0  0
 25 17  2  0  0  0  0
 26 27  2  0  0  0  0
 27 22  1  0  0  0  0
 28 30  1  0  0  0  0
 29 26  1  6  0  0  0
 29 33  1  0  0  0  0
 30 29  1  0  0  0  0
 31 32  1  0  0  0  0
 32 33  1  0  0  0  0
 34 30  1  0  0  0  0
 34 31  1  0  0  0  0
M  END
>  <MODEL>
3

>  <REMARK>
 VINA RESULT:      -6.0      3.679      6.020
  Name = 
  2 active torsions:
  status: ('A' for Active; 'I' for Inactive)
    1  A    between atoms: C_3  and  C_13
    2  A    between atoms: C_17  and  C_29
                            x       y       z     vdW  Elec       q    Type
                         _______ _______ _______ _____ _____    ______ ____

>  <TORSDO>
F 2

$$$$
=
 OpenBabel11062408033D

 34 41  0  0  1  0  0  0  0  0999 V2000
  161.9700  209.0390  149.8440 C   0  0  0  0  0  0  0  0  0  0  0  0
  161.8760  206.8250  148.7550 C   0  0  0  0  0  0  0  0  0  0  0  0
  161.4730  207.0630  151.1240 C   0  0  0  0  0  0  0  0  0  0  0  0
  160.9770  205.0450  152.2190 C   0  0  0  0  0  0  0  0  0  0  0  0
  162.3740  208.8150  147.4590 C   0  0  0  0  0  3  0  0  0  0  0  0
  160.3960  209.2200  156.4770 C   0  0  1  0  0  0  0  0  0  0  0  0
  159.6130  208.3580  157.2600 O   0  0  0  0  0  0  0  0  0  0  0  0
  162.1750  207.4250  147.5290 C   0  0  0  0  0  3  0  0  0  0  0  0
  161.3860  204.9520  150.0910 C   0  0  0  0  0  0  0  0  0  0  0  0
  160.8720  207.6840  154.7760 N   0  0  0  0  0  0  0  0  0  0  0  0
  161.7810  207.6540  149.9060 C   0  0  0  0  0  0  0  0  0  0  0  0
  160.9850  208.0370  157.1300 C   0  0  1  0  0  3  0  0  0  0  0  0
  160.8230  203.6970  151.8870 C   0  0  0  0  0  3  0  0  0  0  0  0
  162.2740  209.6190  148.6090 C   0  0  0  0  0  3  0  0  0  0  0  0
  161.3270  207.7850  152.3120 C   0  0  0  0  0  0  0  0  0  0  0  0
  160.3880  209.0350  154.9760 C   0  0  0  0  0  2  0  0  0  0  0  0
  161.8510  209.8020  151.0220 C   0  0  0  0  0  3  0  0  0  0  0  0
  161.6700  205.4660  148.8580 N   0  0  0  0  0  0  0  0  0  0  0  0
  160.8340  205.6710  153.4190 N   0  0  0  0  0  2  0  0  0  0  0  0
  161.1710  207.0040  156.0250 C   0  0  0  0  0  2  0  0  0  0  0  0
  161.0030  207.0420  153.4970 C   0  0  0  0  0  0  0  0  0  0  0  0
  161.0900  203.6590  150.4910 C   0  0  0  0  0  0  0  0  0  0  0  0
  160.7230  210.4380  157.0680 O   0  0  0  0  0  1  0  0  0  0  0  0
  161.3010  205.7430  151.1450 N   0  0  0  0  0  0  0  0  0  0  0  0
  161.5350  209.1790  152.2500 C   0  0  0  0  0  3  0  0  0  0  0  0
  160.4650  202.5360  148.3980 C   0  0  0  0  0  3  0  0  0  0  0  0
  161.0260  202.4940  149.6010 C   0  0  0  0  0  3  0  0  0  0  0  0
  159.0770  201.7640  145.6730 C   0  0  0  0  0  1  0  0  0  0  0  0
  160.4550  201.3170  147.5360 C   0  0  1  0  0  3  0  0  0  0  0  0
  160.4610  201.7020  146.1100 N   0  0  0  0  0  0  0  0  0  0  0  0
  160.9950  199.2930  145.7120 C   0  0  0  0  0  2  0  0  0  0  0  0
  161.5790  199.1080  147.1140 C   0  0  0  0  0  2  0  0  0  0  0  0
  161.6380  200.4140  147.9010 C   0  0  0  0  0  2  0  0  0  0  0  0
  161.1490  200.7380  145.2330 C   0  0  0  0  0  2  0  0  0  0  0  0
  1 11  1  0  0  0  0
  1 17  1  0  0  0  0
  2 18  2  0  0  0  0
  2 11  1  0  0  0  0
  3 24  1  0  0  0  0
  3 15  1  0  0  0  0
  4 19  1  0  0  0  0
  5  8  2  0  0  0  0
  5 14  1  0  0  0  0
  6 23  1  1  0  0  0
  6 12  1  0  0  0  0
  6  7  1  0  0  0  0
  8  2  1  0  0  0  0
  9 22  2  0  0  0  0
  9 24  1  0  0  0  0
 10 16  1  0  0  0  0
 10 20  1  0  0  0  0
 11  3  2  0  0  0  0
 12 20  1  6  0  0  0
 12  7  1  0  0  0  0
 13  4  2  0  0  0  0
 14  1  2  0  0  0  0
 15 21  2  0  0  0  0
 16  6  1  0  0  0  0
 17 25  2  0  0  0  0
 18  9  1  0  0  0  0
 19 21  1  0  0  0  0
 21 10  1  0  0  0  0
 22 13  1  0  0  0  0
 24  4  1  0  0  0  0
 25 15  1  0  0  0  0
 26 27  2  0  0  0  0
 27 22  1  0  0  0  0
 28 30  1  0  0  0  0
 29 33  1  0  0  0  0
 29 26  1  1  0  0  0
 30 29  1  0  0  0  0
 31 32  1  0  0  0  0
 32 33  1  0  0  0  0
 34 31  1  0  0  0  0
 34 30  1  0  0  0  0
M  END
>  <MODEL>
4

>  <REMARK>
 VINA RESULT:      -5.0      2.548      3.869
  Name = 
  2 active torsions:
  status: ('A' for Active; 'I' for Inactive)
    1  A    between atoms: C_3  and  C_13
    2  A    between atoms: C_17  and  C_29
                            x       y       z     vdW  Elec       q    Type
                         _______ _______ _______ _____ _____    ______ ____

>  <TORSDO>
F 2

$$$$
=
 OpenBabel11062408033D

 34 41  0  0  1  0  0  0  0  0999 V2000
  161.1910  206.9450  153.4310 C   0  0  0  0  0  0  0  0  0  0  0  0
  161.5290  208.9130  151.9790 C   0  0  0  0  0  0  0  0  0  0  0  0
  161.3310  206.6970  151.0410 C   0  0  0  0  0  0  0  0  0  0  0  0
  161.4640  206.6330  148.6970 C   0  0  0  0  0  0  0  0  0  0  0  0
  161.3850  209.1690  154.3890 C   0  0  0  0  0  3  0  0  0  0  0  0
  160.3260  200.9650  150.2700 C   0  0  1  0  0  0  0  0  0  0  0  0
  159.8660  200.6650  148.9780 O   0  0  0  0  0  0  0  0  0  0  0  0
  161.5410  209.7340  153.1100 C   0  0  0  0  0  3  0  0  0  0  0  0
  161.6570  208.5690  149.6560 C   0  0  0  0  0  0  0  0  0  0  0  0
  160.9840  203.1650  149.8200 N   0  0  0  0  0  0  0  0  0  0  0  0
  161.3560  207.5150  152.1630 C   0  0  2  0  0  3  0  0  0  0  0  0
  161.2530  200.9020  149.1240 C   0  0  1  0  0  3  0  0  0  0  0  0
  161.6110  207.5380  147.6430 C   0  0  0  0  0  3  0  0  0  0  0  0
  161.2120  207.7830  154.5500 C   0  0  0  0  0  3  0  0  0  0  0  0
  161.1390  205.3140  151.1040 C   0  0  0  0  0  0  0  0  0  0  0  0
  160.2070  202.3890  150.7640 C   0  0  0  0  0  2  0  0  0  0  0  0
  161.0130  205.5520  153.5400 C   0  0  0  0  0  3  0  0  0  0  0  0
  161.6750  209.4350  150.7120 N   0  0  0  0  0  0  0  0  0  0  0  0
  161.2980  205.2830  148.6730 N   0  0  0  0  0  0  0  0  0  0  0  0
  161.5700  202.3500  148.7690 C   0  0  0  0  0  2  0  0  0  0  0  0
  161.1320  204.5950  149.8610 C   0  0  0  0  0  0  0  0  0  0  0  0
  161.7310  208.7980  148.2910 C   0  0  0  0  0  0  0  0  0  0  0  0
  160.4040  199.8840  151.1440 O   0  0  0  0  0  1  0  0  0  0  0  0
  161.4920  207.2730  149.8530 N   0  0  0  0  0  0  0  0  0  0  0  0
  160.9900  204.7400  152.3840 C   0  0  0  0  0  3  0  0  0  0  0  0
  160.8460  210.9650  147.5480 C   0  0  0  0  0  3  0  0  0  0  0  0
  161.8610  210.1160  147.6630 C   0  0  0  0  0  3  0  0  0  0  0  0
  162.8110  213.3750  148.0720 C   0  0  0  0  0  1  0  0  0  0  0  0
  161.0560  212.3010  146.9170 C   0  0  1  0  0  3  0  0  0  0  0  0
  162.4960  212.6210  146.8710 N   0  0  0  0  0  0  0  0  0  0  0  0
  161.7930  214.4470  145.3150 C   0  0  0  0  0  2  0  0  0  0  0  0
  160.5070  213.7200  144.9150 C   0  0  0  0  0  2  0  0  0  0  0  0
  160.4080  212.3260  145.5280 C   0  0  0  0  0  2  0  0  0  0  0  0
  162.8870  213.4560  145.7210 C   0  0  0  0  0  2  0  0  0  0  0  0
  1 17  1  0  0  0  0
  1 14  2  0  0  0  0
  2 11  1  0  0  0  0
  2  8  1  0  0  0  0
  3 15  2  0  0  0  0
  4 24  1  0  0  0  0
  5 14  1  0  0  0  0
  6 16  1  0  0  0  0
  6 23  1  1  0  0  0
  7 12  1  0  0  0  0
  7  6  1  0  0  0  0
  8  5  2  0  0  0  0
  9 24  1  0  0  0  0
  9 18  1  0  0  0  0
 10 21  1  0  0  0  0
 10 16  1  0  0  0  0
 11  3  1  6  0  0  0
 11  1  1  0  0  0  0
 12 20  1  6  0  0  0
 12  6  1  0  0  0  0
 13 22  1  0  0  0  0
 13  4  2  0  0  0  0
 15 25  1  0  0  0  0
 18  2  2  0  0  0  0
 19  4  1  0  0  0  0
 19 21  2  0  0  0  0
 20 10  1  0  0  0  0
 21 15  1  0  0  0  0
 22  9  2  0  0  0  0
 24  3  1  0  0  0  0
 25 17  2  0  0  0  0
 26 27  2  0  0  0  0
 27 22  1  0  0  0  0
 29 26  1  6  0  0  0
 30 29  1  0  0  0  0
 30 28  1  0  0  0  0
 31 34  1  0  0  0  0
 32 31  1  0  0  0  0
 32 33  1  0  0  0  0
 33 29  1  0  0  0  0
 34 30  1  0  0  0  0
M  END
>  <MODEL>
5

>  <REMARK>
 VINA RESULT:      -4.8      4.358      9.006
  Name = 
  2 active torsions:
  status: ('A' for Active; 'I' for Inactive)
    1  A    between atoms: C_3  and  C_13
    2  A    between atoms: C_17  and  C_29
                            x       y       z     vdW  Elec       q    Type
                         _______ _______ _______ _____ _____    ______ ____

>  <TORSDO>
F 2

$$$$
=
 OpenBabel11062408033D

 34 41  0  0  1  0  0  0  0  0999 V2000
  156.2320  214.2170  147.2260 C   0  0  0  0  0  0  0  0  0  0  0  0
  156.8910  213.6930  149.5470 C   0  0  0  0  0  0  0  0  0  0  0  0
  158.4990  213.6020  147.7490 C   0  0  0  0  0  0  0  0  0  0  0  0
  160.6680  213.0120  148.4320 C   0  0  0  0  0  0  0  0  0  0  0  0
  154.6040  214.3150  149.0260 C   0  0  0  0  0  3  0  0  0  0  0  0
  161.2240  214.1750  142.5800 C   0  0  1  0  0  0  0  0  0  0  0  0
  162.6080  214.3610  142.7160 O   0  0  0  0  0  0  0  0  0  0  0  0
  155.5800  213.9390  149.9650 C   0  0  0  0  0  3  0  0  0  0  0  0
  159.1290  213.0990  149.9580 C   0  0  0  0  0  0  0  0  0  0  0  0
  160.8160  213.5440  144.7960 N   0  0  0  0  0  0  0  0  0  0  0  0
  157.1960  213.8350  148.1660 C   0  0  2  0  0  3  0  0  0  0  0  0
  162.1220  213.0400  142.8680 C   0  0  1  0  0  3  0  0  0  0  0  0
  161.3310  212.7040  149.6220 C   0  0  0  0  0  3  0  0  0  0  0  0
  154.9260  214.4530  147.6640 C   0  0  0  0  0  3  0  0  0  0  0  0
  158.9160  213.7400  146.4210 C   0  0  0  0  0  0  0  0  0  0  0  0
  160.3400  214.4530  143.7750 C   0  0  0  0  0  2  0  0  0  0  0  0
  156.6060  214.3490  145.8740 C   0  0  0  0  0  3  0  0  0  0  0  0
  157.8730  213.3270  150.4420 N   0  0  0  0  0  0  0  0  0  0  0  0
  161.1500  213.1090  147.1630 N   0  0  0  0  0  0  0  0  0  0  0  0
  161.9310  212.7270  144.3470 C   0  0  0  0  0  2  0  0  0  0  0  0
  160.2970  213.4710  146.1350 C   0  0  0  0  0  0  0  0  0  0  0  0
  160.3090  212.7710  150.6070 C   0  0  0  0  0  0  0  0  0  0  0  0
  160.7380  214.2190  141.2760 O   0  0  0  0  0  1  0  0  0  0  0  0
  159.3890  213.2390  148.6700 N   0  0  0  0  0  0  0  0  0  0  0  0
  157.9390  214.1090  145.4730 C   0  0  0  0  0  3  0  0  0  0  0  0
  160.3780  211.3880  152.6360 C   0  0  0  0  0  3  0  0  0  0  0  0
  160.4500  212.5810  152.0540 C   0  0  0  0  0  3  0  0  0  0  0  0
  158.4320  211.5150  155.1140 C   0  0  0  0  0  1  0  0  0  0  0  0
  160.5550  211.2660  154.1130 C   0  0  1  0  0  3  0  0  0  0  0  0
  159.4180  210.5300  154.7020 N   0  0  0  0  0  0  0  0  0  0  0  0
  160.8670  210.4040  156.7350 C   0  0  0  0  0  2  0  0  0  0  0  0
  162.1540  210.5770  155.9260 C   0  0  0  0  0  2  0  0  0  0  0  0
  161.9010  210.6030  154.4210 C   0  0  0  0  0  2  0  0  0  0  0  0
  159.7700  209.7430  155.8970 C   0  0  0  0  0  2  0  0  0  0  0  0
  1 14  2  0  0  0  0
  2  8  1  0  0  0  0
  2 18  2  0  0  0  0
  3 11  1  0  0  0  0
  3 24  1  0  0  0  0
  4 24  1  0  0  0  0
  4 13  2  0  0  0  0
  5  8  2  0  0  0  0
  6 23  1  6  0  0  0
  6  7  1  0  0  0  0
  6 12  1  0  0  0  0
  6 16  1  0  0  0  0
  7 12  1  0  0  0  0
  9 18  1  0  0  0  0
  9 22  2  0  0  0  0
 10 21  1  0  0  0  0
 11  1  1  1  0  0  0
 11  2  1  0  0  0  0
 12 20  1  1  0  0  0
 13 22  1  0  0  0  0
 14  5  1  0  0  0  0
 15  3  2  0  0  0  0
 16 10  1  0  0  0  0
 17  1  1  0  0  0  0
 19  4  1  0  0  0  0
 20 10  1  0  0  0  0
 21 15  1  0  0  0  0
 21 19  2  0  0  0  0
 22 27  1  0  0  0  0
 24  9  1  0  0  0  0
 25 17  2  0  0  0  0
 25 15  1  0  0  0  0
 27 26  2  0  0  0  0
 29 26  1  6  0  0  0
 29 33  1  0  0  0  0
 29 30  1  0  0  0  0
 30 28  1  0  0  0  0
 30 34  1  0  0  0  0
 32 31  1  0  0  0  0
 33 32  1  0  0  0  0
 34 31  1  0  0  0  0
M  END
>  <MODEL>
6

>  <REMARK>
 VINA RESULT:      -4.3      6.220      9.284
  Name = 
  2 active torsions:
  status: ('A' for Active; 'I' for Inactive)
    1  A    between atoms: C_3  and  C_13
    2  A    between atoms: C_17  and  C_29
                            x       y       z     vdW  Elec       q    Type
                         _______ _______ _______ _____ _____    ______ ____

>  <TORSDO>
F 2

$$$$
