=
 OpenBabel11052422323D

 31 34  0  0  0  0  0  0  0  0999 V2000
  160.9410  204.1420  152.3410 C   0  0  0  0  0  0  0  0  0  0  0  0
  161.4760  205.3240  148.7980 C   0  0  0  0  0  0  0  0  0  0  0  0
  161.2850  204.1770  147.9550 C   0  0  0  0  0  0  0  0  0  0  0  0
  160.7670  201.7710  147.7330 C   0  0  0  0  0  3  0  0  0  0  0  0
  161.3610  205.3020  150.2280 C   0  0  0  0  0  0  0  0  0  0  0  0
  161.1430  205.3250  153.0490 C   0  0  0  0  0  3  0  0  0  0  0  0
  160.9470  202.8420  148.5000 C   0  0  0  0  0  3  0  0  0  0  0  0
  161.9990  207.7320  148.9450 C   0  0  0  0  0  0  0  0  0  0  0  0
  160.6390  203.0000  153.0030 F   0  0  0  0  0  0  0  0  0  0  0  0
  161.7320  205.5340  145.9850 C   0  0  0  0  0  3  0  0  0  0  0  0
  160.8940  201.8560  146.2780 C   0  0  0  0  0  0  0  0  0  0  0  0
  161.8740  207.6840  150.3270 C   0  0  0  0  0  3  0  0  0  0  0  0
  161.7990  206.5690  148.1750 C   0  0  0  0  0  0  0  0  0  0  0  0
  161.0480  204.1350  150.9490 C   0  0  0  0  0  3  0  0  0  0  0  0
  160.7170  200.8230  145.5810 O   0  0  0  0  0  0  0  0  0  0  0  0
  161.5640  206.4950  150.9700 C   0  0  0  0  0  0  0  0  0  0  0  0
  161.4540  206.4980  152.3640 C   0  0  0  0  0  3  0  0  0  0  0  0
  161.9200  206.6480  146.7840 C   0  0  0  0  0  3  0  0  0  0  0  0
  161.4170  204.3050  146.5500 C   0  0  0  0  0  0  0  0  0  0  0  0
  161.2310  203.1500  145.6020 C   0  0  0  0  0  2  0  0  0  0  0  0
  162.3130  209.0530  148.3180 C   0  0  0  0  0  2  0  0  0  0  0  0
  161.8020  210.1260  149.1530 N   0  0  0  0  0  2  0  0  0  0  0  0
  162.4570  211.3450  148.7130 C   0  0  0  0  0  2  0  0  0  0  0  0
  161.4180  212.3950  148.3550 C   0  0  0  0  0  2  0  0  0  0  0  0
  160.6780  212.0340  147.0720 C   0  0  0  0  0  2  0  0  0  0  0  0
  160.7040  214.3450  146.5230 O   0  0  0  0  0  0  0  0  0  0  0  0
  160.7170  213.1600  146.0960 C   0  0  0  0  0  0  0  0  0  0  0  0
  161.8640  212.8710  143.9420 C   0  0  0  0  0  0  0  0  0  0  0  0
  163.2230  213.2080  144.4600 C   0  0  0  0  0  1  0  0  0  0  0  0
  161.7280  212.5280  142.5030 C   0  0  0  0  0  1  0  0  0  0  0  0
  160.8010  212.8640  144.6920 N   0  0  0  0  0  0  0  0  0  0  0  0
  1  9  1  0  0  0  0
  1  6  1  0  0  0  0
  2  5  1  0  0  0  0
  3  7  1  0  0  0  0
  3  2  1  0  0  0  0
  4  7  2  0  0  0  0
  5 14  1  0  0  0  0
  5 16  2  0  0  0  0
  8 12  2  0  0  0  0
 10 19  1  0  0  0  0
 10 18  2  0  0  0  0
 11  4  1  0  0  0  0
 12 16  1  0  0  0  0
 13  2  2  0  0  0  0
 13  8  1  0  0  0  0
 14  1  2  0  0  0  0
 15 11  2  0  0  0  0
 16 17  1  0  0  0  0
 17  6  2  0  0  0  0
 18 13  1  0  0  0  0
 19  3  2  0  0  0  0
 20 11  1  0  0  0  0
 20 19  1  0  0  0  0
 21  8  1  0  0  0  0
 21 22  1  0  0  0  0
 23 22  1  0  0  0  0
 24 23  1  0  0  0  0
 25 24  1  0  0  0  0
 27 26  2  0  0  0  0
 27 25  1  0  0  0  0
 28 29  1  0  0  0  0
 28 31  2  0  0  0  0
 30 28  1  0  0  0  0
 31 27  1  0  0  0  0
M  END
>  <MODEL>
1

>  <REMARK>
 VINA RESULT:      -9.9      0.000      0.000
  Name = 
  7 active torsions:
  status: ('A' for Active; 'I' for Inactive)
    1  A    between atoms: C_3  and  C_19
    2  A    between atoms: C_3  and  C_22
    3  A    between atoms: C_7  and  N_9
    4  A    between atoms: C_7  and  C_22
    5  A    between atoms: N_9  and  C_23
    6  A    between atoms: C_15  and  C_23
    7  A    between atoms: C_19  and  N_24
                            x       y       z     vdW  Elec       q    Type
                         _______ _______ _______ _____ _____    ______ ____

>  <TORSDO>
F 7

$$$$
=
 OpenBabel11052422323D

 31 34  0  0  0  0  0  0  0  0999 V2000
  161.9570  209.0430  148.6810 C   0  0  0  0  0  0  0  0  0  0  0  0
  161.3510  207.0510  151.8280 C   0  0  0  0  0  0  0  0  0  0  0  0
  161.3490  207.9950  152.9100 C   0  0  0  0  0  0  0  0  0  0  0  0
  161.5600  210.3310  153.6880 C   0  0  0  0  0  3  0  0  0  0  0  0
  161.5500  207.4040  150.4510 C   0  0  0  0  0  0  0  0  0  0  0  0
  161.9300  208.0360  147.7190 C   0  0  0  0  0  3  0  0  0  0  0  0
  161.5590  209.4450  152.6970 C   0  0  0  0  0  3  0  0  0  0  0  0
  161.1280  204.6960  151.1220 C   0  0  0  0  0  0  0  0  0  0  0  0
  162.1660  210.3290  148.3090 F   0  0  0  0  0  0  0  0  0  0  0  0
  160.9360  206.1950  154.4960 C   0  0  0  0  0  3  0  0  0  0  0  0
  161.3480  209.9110  155.0740 C   0  0  0  0  0  0  0  0  0  0  0  0
  161.3160  205.0670  149.7970 C   0  0  0  0  0  3  0  0  0  0  0  0
  161.1380  205.6730  152.1370 C   0  0  0  0  0  0  0  0  0  0  0  0
  161.7680  208.7280  150.0280 C   0  0  0  0  0  3  0  0  0  0  0  0
  161.3550  210.7760  155.9890 O   0  0  0  0  0  0  0  0  0  0  0  0
  161.5270  206.3940  149.4540 C   0  0  0  0  0  0  0  0  0  0  0  0
  161.7150  206.7140  148.1060 C   0  0  0  0  0  3  0  0  0  0  0  0
  160.9360  205.2730  153.4630 C   0  0  0  0  0  3  0  0  0  0  0  0
  161.1380  207.5450  154.2370 C   0  0  0  0  0  0  0  0  0  0  0  0
  161.1220  208.4720  155.4230 C   0  0  0  0  0  2  0  0  0  0  0  0
  160.8840  203.2500  151.4150 C   0  0  0  0  0  2  0  0  0  0  0  0
  160.2630  202.6160  150.2660 N   0  0  0  0  0  2  0  0  0  0  0  0
  160.9310  201.3400  150.0810 C   0  0  0  0  0  2  0  0  0  0  0  0
  161.1900  201.0960  148.6020 C   0  0  0  0  0  2  0  0  0  0  0  0
  161.2560  202.4050  147.8240 C   0  0  0  0  0  2  0  0  0  0  0  0
  160.9210  201.0000  145.9380 O   0  0  0  0  0  0  0  0  0  0  0  0
  160.9950  202.1790  146.3740 C   0  0  0  0  0  0  0  0  0  0  0  0
  161.6660  204.2460  145.2260 C   0  0  0  0  0  0  0  0  0  0  0  0
  163.0520  204.2700  145.7800 C   0  0  0  0  0  1  0  0  0  0  0  0
  161.2610  205.3380  144.3030 C   0  0  0  0  0  1  0  0  0  0  0  0
  160.8030  203.3150  145.5140 N   0  0  0  0  0  0  0  0  0  0  0  0
  1 14  1  0  0  0  0
  2 13  2  0  0  0  0
  2  3  1  0  0  0  0
  3 19  2  0  0  0  0
  4 11  1  0  0  0  0
  5  2  1  0  0  0  0
  6 17  1  0  0  0  0
  6  1  2  0  0  0  0
  7  3  1  0  0  0  0
  7  4  2  0  0  0  0
  8 21  1  0  0  0  0
  8 13  1  0  0  0  0
  9  1  1  0  0  0  0
 11 20  1  0  0  0  0
 11 15  2  0  0  0  0
 12  8  2  0  0  0  0
 13 18  1  0  0  0  0
 14  5  2  0  0  0  0
 16 12  1  0  0  0  0
 16  5  1  0  0  0  0
 17 16  2  0  0  0  0
 18 10  2  0  0  0  0
 19 10  1  0  0  0  0
 19 20  1  0  0  0  0
 22 21  1  0  0  0  0
 23 22  1  0  0  0  0
 24 23  1  0  0  0  0
 25 24  1  0  0  0  0
 26 27  2  0  0  0  0
 27 25  1  0  0  0  0
 28 31  2  0  0  0  0
 28 29  1  0  0  0  0
 30 28  1  0  0  0  0
 31 27  1  0  0  0  0
M  END
>  <MODEL>
2

>  <REMARK>
 VINA RESULT:      -9.9      4.132      8.352
  Name = 
  7 active torsions:
  status: ('A' for Active; 'I' for Inactive)
    1  A    between atoms: C_3  and  C_19
    2  A    between atoms: C_3  and  C_22
    3  A    between atoms: C_7  and  N_9
    4  A    between atoms: C_7  and  C_22
    5  A    between atoms: N_9  and  C_23
    6  A    between atoms: C_15  and  C_23
    7  A    between atoms: C_19  and  N_24
                            x       y       z     vdW  Elec       q    Type
                         _______ _______ _______ _____ _____    ______ ____

>  <TORSDO>
F 7

$$$$
=
 OpenBabel11052422323D

 31 34  0  0  0  0  0  0  0  0999 V2000
  161.9540  209.4530  149.1400 C   0  0  0  0  0  0  0  0  0  0  0  0
  161.2560  206.1930  150.9070 C   0  0  0  0  0  0  0  0  0  0  0  0
  161.2260  205.1790  149.8910 C   0  0  0  0  0  0  0  0  0  0  0  0
  161.4160  204.5610  147.5060 C   0  0  0  0  0  3  0  0  0  0  0  0
  161.4950  207.5840  150.6520 C   0  0  0  0  0  0  0  0  0  0  0  0
  161.9650  210.3410  150.2130 C   0  0  0  0  0  3  0  0  0  0  0  0
  161.4410  205.4880  148.4580 C   0  0  0  0  0  3  0  0  0  0  0  0
  161.0540  206.7390  153.3070 C   0  0  0  0  0  0  0  0  0  0  0  0
  162.1690  209.9090  147.8820 F   0  0  0  0  0  0  0  0  0  0  0  0
  160.7770  203.4830  151.5770 C   0  0  0  0  0  3  0  0  0  0  0  0
  161.1710  203.1550  147.8290 C   0  0  0  0  0  0  0  0  0  0  0  0
  161.2950  208.0780  153.0310 C   0  0  0  0  0  3  0  0  0  0  0  0
  161.0370  205.7940  152.2620 C   0  0  0  0  0  0  0  0  0  0  0  0
  161.7220  208.0940  149.3600 C   0  0  0  0  0  3  0  0  0  0  0  0
  161.1540  202.3030  146.9030 O   0  0  0  0  0  0  0  0  0  0  0  0
  161.5100  208.5070  151.7300 C   0  0  0  0  0  0  0  0  0  0  0  0
  161.7440  209.8670  151.5060 C   0  0  0  0  0  3  0  0  0  0  0  0
  160.8020  204.4490  152.5690 C   0  0  0  0  0  3  0  0  0  0  0  0
  160.9860  203.8300  150.2490 C   0  0  0  0  0  0  0  0  0  0  0  0
  160.9400  202.7120  149.2410 C   0  0  0  0  0  2  0  0  0  0  0  0
  160.8520  206.3450  154.7350 C   0  0  0  0  0  2  0  0  0  0  0  0
  160.1150  207.3840  155.4310 N   0  0  0  0  0  2  0  0  0  0  0  0
  160.5740  207.3710  156.8090 C   0  0  0  0  0  2  0  0  0  0  0  0
  160.9100  208.7830  157.2610 C   0  0  0  0  0  2  0  0  0  0  0  0
  161.7760  209.5060  156.2360 C   0  0  0  0  0  2  0  0  0  0  0  0
  161.3940  211.7780  156.8180 O   0  0  0  0  0  0  0  0  0  0  0  0
  161.2470  210.8710  155.9550 C   0  0  0  0  0  0  0  0  0  0  0  0
  159.3340  211.1160  154.4320 C   0  0  0  0  0  0  0  0  0  0  0  0
  158.2950  210.8180  155.4630 C   0  0  0  0  0  1  0  0  0  0  0  0
  158.8820  211.4130  153.0490 C   0  0  0  0  0  1  0  0  0  0  0  0
  160.6090  211.1270  154.6930 N   0  0  0  0  0  0  0  0  0  0  0  0
  1 14  2  0  0  0  0
  1  6  1  0  0  0  0
  2 13  1  0  0  0  0
  3 19  2  0  0  0  0
  3  2  1  0  0  0  0
  4 11  1  0  0  0  0
  4  7  2  0  0  0  0
  5  2  2  0  0  0  0
  5 16  1  0  0  0  0
  6 17  2  0  0  0  0
  7  3  1  0  0  0  0
  8 21  1  0  0  0  0
  9  1  1  0  0  0  0
 10 18  2  0  0  0  0
 11 20  1  0  0  0  0
 12  8  1  0  0  0  0
 13 18  1  0  0  0  0
 13  8  2  0  0  0  0
 14  5  1  0  0  0  0
 15 11  2  0  0  0  0
 16 12  2  0  0  0  0
 17 16  1  0  0  0  0
 19 10  1  0  0  0  0
 20 19  1  0  0  0  0
 21 22  1  0  0  0  0
 22 23  1  0  0  0  0
 23 24  1  0  0  0  0
 25 24  1  0  0  0  0
 27 25  1  0  0  0  0
 27 26  2  0  0  0  0
 28 31  2  0  0  0  0
 28 29  1  0  0  0  0
 30 28  1  0  0  0  0
 31 27  1  0  0  0  0
M  END
>  <MODEL>
3

>  <REMARK>
 VINA RESULT:      -9.6      4.153      6.848
  Name = 
  7 active torsions:
  status: ('A' for Active; 'I' for Inactive)
    1  A    between atoms: C_3  and  C_19
    2  A    between atoms: C_3  and  C_22
    3  A    between atoms: C_7  and  N_9
    4  A    between atoms: C_7  and  C_22
    5  A    between atoms: N_9  and  C_23
    6  A    between atoms: C_15  and  C_23
    7  A    between atoms: C_19  and  N_24
                            x       y       z     vdW  Elec       q    Type
                         _______ _______ _______ _____ _____    ______ ____

>  <TORSDO>
F 7

$$$$
=
 OpenBabel11052422323D

 31 34  0  0  0  0  0  0  0  0999 V2000
  160.8390  207.0990  154.2430 C   0  0  0  0  0  0  0  0  0  0  0  0
  161.3340  206.7130  150.5220 C   0  0  0  0  0  0  0  0  0  0  0  0
  161.1560  205.3180  150.2330 C   0  0  0  0  0  0  0  0  0  0  0  0
  160.6750  203.0290  151.0330 C   0  0  0  0  0  3  0  0  0  0  0  0
  161.2280  207.2830  151.8340 C   0  0  0  0  0  0  0  0  0  0  0  0
  161.0270  208.4710  154.3960 C   0  0  0  0  0  3  0  0  0  0  0  0
  160.8430  204.3240  151.2850 C   0  0  0  0  0  3  0  0  0  0  0  0
  161.8200  208.9710  149.6530 C   0  0  0  0  0  0  0  0  0  0  0  0
  160.5590  206.3300  155.3230 F   0  0  0  0  0  0  0  0  0  0  0  0
  161.5700  205.7410  147.8720 C   0  0  0  0  0  3  0  0  0  0  0  0
  160.7920  202.5050  149.6720 C   0  0  0  0  0  0  0  0  0  0  0  0
  161.7050  209.4980  150.9320 C   0  0  0  0  0  3  0  0  0  0  0  0
  161.6340  207.5920  149.4360 C   0  0  0  0  0  0  0  0  0  0  0  0
  160.9380  206.5170  152.9780 C   0  0  0  0  0  3  0  0  0  0  0  0
  160.6270  201.2750  149.4680 O   0  0  0  0  0  0  0  0  0  0  0  0
  161.4170  208.6790  152.0130 C   0  0  0  0  0  0  0  0  0  0  0  0
  161.3150  209.2580  153.2820 C   0  0  0  0  0  3  0  0  0  0  0  0
  161.7460  207.0890  148.1360 C   0  0  0  0  0  3  0  0  0  0  0  0
  161.2780  204.8530  148.8990 C   0  0  0  0  0  0  0  0  0  0  0  0
  161.1040  203.4080  148.5170 C   0  0  0  0  0  2  0  0  0  0  0  0
  162.1100  209.9180  148.5310 C   0  0  0  0  0  2  0  0  0  0  0  0
  162.0080  211.2860  149.0060 N   0  0  0  0  0  2  0  0  0  0  0  0
  161.6860  212.1050  147.8510 C   0  0  0  0  0  2  0  0  0  0  0  0
  160.6410  213.1450  148.2250 C   0  0  0  0  0  2  0  0  0  0  0  0
  160.5910  213.3700  149.7320 C   0  0  0  0  0  2  0  0  0  0  0  0
  158.2480  213.5250  149.3690 O   0  0  0  0  0  0  0  0  0  0  0  0
  159.1990  213.6540  150.1850 C   0  0  0  0  0  0  0  0  0  0  0  0
  158.7970  213.2590  152.5770 C   0  0  0  0  0  0  0  0  0  0  0  0
  158.7980  211.7690  152.4740 C   0  0  0  0  0  1  0  0  0  0  0  0
  158.5820  213.8690  153.9140 C   0  0  0  0  0  1  0  0  0  0  0  0
  158.9750  214.0400  151.5510 N   0  0  0  0  0  0  0  0  0  0  0  0
  1  6  1  0  0  0  0
  1  9  1  0  0  0  0
  2  5  1  0  0  0  0
  3  2  1  0  0  0  0
  3  7  1  0  0  0  0
  4  7  2  0  0  0  0
  5 16  2  0  0  0  0
  5 14  1  0  0  0  0
  8 12  2  0  0  0  0
 10 18  2  0  0  0  0
 10 19  1  0  0  0  0
 11  4  1  0  0  0  0
 12 16  1  0  0  0  0
 13  8  1  0  0  0  0
 13  2  2  0  0  0  0
 14  1  2  0  0  0  0
 15 11  2  0  0  0  0
 16 17  1  0  0  0  0
 17  6  2  0  0  0  0
 18 13  1  0  0  0  0
 19  3  2  0  0  0  0
 20 19  1  0  0  0  0
 20 11  1  0  0  0  0
 21 22  1  0  0  0  0
 21  8  1  0  0  0  0
 23 24  1  0  0  0  0
 23 22  1  0  0  0  0
 24 25  1  0  0  0  0
 25 27  1  0  0  0  0
 26 27  2  0  0  0  0
 27 31  1  0  0  0  0
 28 30  1  0  0  0  0
 29 28  1  0  0  0  0
 31 28  2  0  0  0  0
M  END
>  <MODEL>
4

>  <REMARK>
 VINA RESULT:      -9.6      2.673      4.299
  Name = 
  7 active torsions:
  status: ('A' for Active; 'I' for Inactive)
    1  A    between atoms: C_3  and  C_19
    2  A    between atoms: C_3  and  C_22
    3  A    between atoms: C_7  and  N_9
    4  A    between atoms: C_7  and  C_22
    5  A    between atoms: N_9  and  C_23
    6  A    between atoms: C_15  and  C_23
    7  A    between atoms: C_19  and  N_24
                            x       y       z     vdW  Elec       q    Type
                         _______ _______ _______ _____ _____    ______ ____

>  <TORSDO>
F 7

$$$$
=
 OpenBabel11052422323D

 31 34  0  0  0  0  0  0  0  0999 V2000
  160.6700  203.2710  151.8750 C   0  0  0  0  0  0  0  0  0  0  0  0
  161.4340  206.5270  150.1270 C   0  0  0  0  0  0  0  0  0  0  0  0
  161.4450  207.5400  151.1450 C   0  0  0  0  0  0  0  0  0  0  0  0
  161.1940  208.1590  153.5240 C   0  0  0  0  0  3  0  0  0  0  0  0
  161.1800  205.1370  150.3760 C   0  0  0  0  0  0  0  0  0  0  0  0
  160.6940  202.3820  150.8030 C   0  0  0  0  0  3  0  0  0  0  0  0
  161.1870  207.2330  152.5710 C   0  0  0  0  0  3  0  0  0  0  0  0
  161.6990  205.9800  147.7350 C   0  0  0  0  0  0  0  0  0  0  0  0
  160.4140  202.8170  153.1250 F   0  0  0  0  0  0  0  0  0  0  0  0
  161.9590  209.2320  149.4730 C   0  0  0  0  0  3  0  0  0  0  0  0
  161.4630  209.5630  153.2090 C   0  0  0  0  0  0  0  0  0  0  0  0
  161.4570  204.6400  148.0050 C   0  0  0  0  0  3  0  0  0  0  0  0
  161.6950  206.9240  148.7800 C   0  0  0  0  0  0  0  0  0  0  0  0
  160.9110  204.6290  151.6610 C   0  0  0  0  0  3  0  0  0  0  0  0
  161.4620  210.4150  154.1360 O   0  0  0  0  0  0  0  0  0  0  0  0
  161.1980  204.2130  149.2990 C   0  0  0  0  0  0  0  0  0  0  0  0
  160.9580  202.8530  149.5180 C   0  0  0  0  0  3  0  0  0  0  0  0
  161.9510  208.2670  148.4810 C   0  0  0  0  0  3  0  0  0  0  0  0
  161.7110  208.8870  150.7950 C   0  0  0  0  0  0  0  0  0  0  0  0
  161.7400  210.0040  151.8040 C   0  0  0  0  0  2  0  0  0  0  0  0
  161.9930  206.3650  146.3190 C   0  0  0  0  0  2  0  0  0  0  0  0
  162.4180  205.1950  145.5720 N   0  0  0  0  0  2  0  0  0  0  0  0
  161.5600  205.1110  144.4030 C   0  0  0  0  0  2  0  0  0  0  0  0
  160.4710  204.0750  144.6300 C   0  0  0  0  0  2  0  0  0  0  0  0
  161.0290  202.8070  145.2640 C   0  0  0  0  0  2  0  0  0  0  0  0
  158.8110  201.9580  145.2050 O   0  0  0  0  0  0  0  0  0  0  0  0
  160.0420  201.6920  145.1910 C   0  0  0  0  0  0  0  0  0  0  0  0
  161.1820  199.6560  145.9640 C   0  0  0  0  0  0  0  0  0  0  0  0
  161.5600  200.2060  147.3000 C   0  0  0  0  0  1  0  0  0  0  0  0
  161.5820  198.2620  145.6410 C   0  0  0  0  0  1  0  0  0  0  0  0
  160.5210  200.3420  145.0770 N   0  0  0  0  0  0  0  0  0  0  0  0
  1  9  1  0  0  0  0
  2  5  1  0  0  0  0
  2  3  1  0  0  0  0
  3  7  1  0  0  0  0
  5 14  2  0  0  0  0
  6  1  2  0  0  0  0
  7  4  2  0  0  0  0
  8 12  2  0  0  0  0
  8 13  1  0  0  0  0
 10 19  1  0  0  0  0
 11  4  1  0  0  0  0
 11 15  2  0  0  0  0
 12 16  1  0  0  0  0
 13  2  2  0  0  0  0
 14  1  1  0  0  0  0
 16 17  2  0  0  0  0
 16  5  1  0  0  0  0
 17  6  1  0  0  0  0
 18 13  1  0  0  0  0
 18 10  2  0  0  0  0
 19  3  2  0  0  0  0
 19 20  1  0  0  0  0
 20 11  1  0  0  0  0
 21  8  1  0  0  0  0
 22 21  1  0  0  0  0
 23 24  1  0  0  0  0
 23 22  1  0  0  0  0
 24 25  1  0  0  0  0
 27 26  2  0  0  0  0
 27 25  1  0  0  0  0
 28 29  1  0  0  0  0
 30 28  1  0  0  0  0
 31 27  1  0  0  0  0
 31 28  2  0  0  0  0
M  END
>  <MODEL>
5

>  <REMARK>
 VINA RESULT:      -9.5      3.571      7.893
  Name = 
  7 active torsions:
  status: ('A' for Active; 'I' for Inactive)
    1  A    between atoms: C_3  and  C_19
    2  A    between atoms: C_3  and  C_22
    3  A    between atoms: C_7  and  N_9
    4  A    between atoms: C_7  and  C_22
    5  A    between atoms: N_9  and  C_23
    6  A    between atoms: C_15  and  C_23
    7  A    between atoms: C_19  and  N_24
                            x       y       z     vdW  Elec       q    Type
                         _______ _______ _______ _____ _____    ______ ____

>  <TORSDO>
F 7

$$$$
=
 OpenBabel11052422323D

 31 34  0  0  0  0  0  0  0  0999 V2000
  161.2040  200.9380  149.1020 C   0  0  0  0  0  0  0  0  0  0  0  0
  161.2070  204.6910  148.7100 C   0  0  0  0  0  0  0  0  0  0  0  0
  161.2070  204.9510  147.2980 C   0  0  0  0  0  0  0  0  0  0  0  0
  161.2080  204.0870  144.9820 C   0  0  0  0  0  3  0  0  0  0  0  0
  161.2060  203.3780  149.2880 C   0  0  0  0  0  0  0  0  0  0  0  0
  161.1970  200.8150  150.4900 C   0  0  0  0  0  3  0  0  0  0  0  0
  161.2080  203.8630  146.2930 C   0  0  0  0  0  3  0  0  0  0  0  0
  161.2060  205.6230  150.9960 C   0  0  0  0  0  0  0  0  0  0  0  0
  161.2060  199.8290  148.3250 F   0  0  0  0  0  0  0  0  0  0  0  0
  161.2040  207.3470  147.7250 C   0  0  0  0  0  3  0  0  0  0  0  0
  161.2060  205.4510  144.4510 C   0  0  0  0  0  0  0  0  0  0  0  0
  161.1970  204.3410  151.5280 C   0  0  0  0  0  3  0  0  0  0  0  0
  161.2060  205.8090  149.5990 C   0  0  0  0  0  0  0  0  0  0  0  0
  161.2070  202.2040  148.5130 C   0  0  0  0  0  3  0  0  0  0  0  0
  161.2060  205.6280  143.2050 O   0  0  0  0  0  0  0  0  0  0  0  0
  161.2000  203.2290  150.7000 C   0  0  0  0  0  0  0  0  0  0  0  0
  161.1940  201.9600  151.2860 C   0  0  0  0  0  3  0  0  0  0  0  0
  161.2040  207.1120  149.0900 C   0  0  0  0  0  3  0  0  0  0  0  0
  161.2040  206.2870  146.8270 C   0  0  0  0  0  0  0  0  0  0  0  0
  161.2040  206.6390  145.3630 C   0  0  0  0  0  2  0  0  0  0  0  0
  161.1790  206.7760  151.9490 C   0  0  0  0  0  2  0  0  0  0  0  0
  161.6190  206.3360  153.2610 N   0  0  0  0  0  2  0  0  0  0  0  0
  160.6700  206.8720  154.2210 C   0  0  0  0  0  2  0  0  0  0  0  0
  161.3900  207.7520  155.2310 C   0  0  0  0  0  2  0  0  0  0  0  0
  160.6170  209.0370  155.5040 C   0  0  0  0  0  2  0  0  0  0  0  0
  161.4270  211.2690  155.5690 O   0  0  0  0  0  0  0  0  0  0  0  0
  161.3000  210.2130  154.8940 C   0  0  0  0  0  0  0  0  0  0  0  0
  161.2240  210.3990  152.4440 C   0  0  0  0  0  0  0  0  0  0  0  0
  159.8280  210.9250  152.3870 C   0  0  0  0  0  1  0  0  0  0  0  0
  161.9550  210.2110  151.1650 C   0  0  0  0  0  1  0  0  0  0  0  0
  161.8250  210.1020  153.5600 N   0  0  0  0  0  0  0  0  0  0  0  0
  1  6  1  0  0  0  0
  2  5  2  0  0  0  0
  2 13  1  0  0  0  0
  3  2  1  0  0  0  0
  4  7  2  0  0  0  0
  5 16  1  0  0  0  0
  6 17  2  0  0  0  0
  7  3  1  0  0  0  0
  8 12  1  0  0  0  0
  8 21  1  0  0  0  0
  9  1  1  0  0  0  0
 10 18  2  0  0  0  0
 11  4  1  0  0  0  0
 11 20  1  0  0  0  0
 13  8  2  0  0  0  0
 14  1  2  0  0  0  0
 14  5  1  0  0  0  0
 15 11  2  0  0  0  0
 16 17  1  0  0  0  0
 16 12  2  0  0  0  0
 18 13  1  0  0  0  0
 19  3  2  0  0  0  0
 19 10  1  0  0  0  0
 20 19  1  0  0  0  0
 21 22  1  0  0  0  0
 22 23  1  0  0  0  0
 23 24  1  0  0  0  0
 24 25  1  0  0  0  0
 27 25  1  0  0  0  0
 27 26  2  0  0  0  0
 28 31  2  0  0  0  0
 29 28  1  0  0  0  0
 30 28  1  0  0  0  0
 31 27  1  0  0  0  0
M  END
>  <MODEL>
6

>  <REMARK>
 VINA RESULT:      -9.4      3.982      5.694
  Name = 
  7 active torsions:
  status: ('A' for Active; 'I' for Inactive)
    1  A    between atoms: C_3  and  C_19
    2  A    between atoms: C_3  and  C_22
    3  A    between atoms: C_7  and  N_9
    4  A    between atoms: C_7  and  C_22
    5  A    between atoms: N_9  and  C_23
    6  A    between atoms: C_15  and  C_23
    7  A    between atoms: C_19  and  N_24
                            x       y       z     vdW  Elec       q    Type
                         _______ _______ _______ _____ _____    ______ ____

>  <TORSDO>
F 7

$$$$
=
 OpenBabel11052422323D

 31 34  0  0  0  0  0  0  0  0999 V2000
  160.8530  203.6620  152.2540 C   0  0  0  0  0  0  0  0  0  0  0  0
  161.2990  205.0770  148.7850 C   0  0  0  0  0  0  0  0  0  0  0  0
  161.1430  203.9770  147.8750 C   0  0  0  0  0  0  0  0  0  0  0  0
  160.7170  201.5700  147.5110 C   0  0  0  0  0  3  0  0  0  0  0  0
  161.2020  204.9640  150.2120 C   0  0  0  0  0  0  0  0  0  0  0  0
  161.0180  204.8060  153.0310 C   0  0  0  0  0  3  0  0  0  0  0  0
  160.8640  202.5990  148.3400 C   0  0  0  0  0  3  0  0  0  0  0  0
  161.7300  207.4910  149.0740 C   0  0  0  0  0  0  0  0  0  0  0  0
  160.6040  202.4700  152.8480 F   0  0  0  0  0  0  0  0  0  0  0  0
  161.5140  205.4680  145.9880 C   0  0  0  0  0  3  0  0  0  0  0  0
  160.8230  201.7490  146.0620 C   0  0  0  0  0  0  0  0  0  0  0  0
  161.6240  207.3540  150.4520 C   0  0  0  0  0  3  0  0  0  0  0  0
  161.5660  206.3700  148.2370 C   0  0  0  0  0  0  0  0  0  0  0  0
  160.9440  203.7440  150.8630 C   0  0  0  0  0  3  0  0  0  0  0  0
  160.6780  200.7540  145.3060 O   0  0  0  0  0  0  0  0  0  0  0  0
  161.3680  206.1160  151.0240 C   0  0  0  0  0  0  0  0  0  0  0  0
  161.2740  206.0310  152.4160 C   0  0  0  0  0  3  0  0  0  0  0  0
  161.6680  206.5390  146.8520 C   0  0  0  0  0  3  0  0  0  0  0  0
  161.2530  204.1960  146.4800 C   0  0  0  0  0  0  0  0  0  0  0  0
  161.1010  203.0940  145.4650 C   0  0  0  0  0  2  0  0  0  0  0  0
  161.9850  208.8590  148.5270 C   0  0  0  0  0  2  0  0  0  0  0  0
  162.4310  209.7380  149.5930 N   0  0  0  0  0  2  0  0  0  0  0  0
  161.7910  211.0230  149.3690 C   0  0  0  0  0  2  0  0  0  0  0  0
  161.1480  211.5160  150.6560 C   0  0  0  0  0  2  0  0  0  0  0  0
  161.5260  210.6360  151.8420 C   0  0  0  0  0  2  0  0  0  0  0  0
  159.2820  210.9900  152.5350 O   0  0  0  0  0  0  0  0  0  0  0  0
  160.3290  210.3020  152.6640 C   0  0  0  0  0  0  0  0  0  0  0  0
  160.6030  209.2080  154.8480 C   0  0  0  0  0  0  0  0  0  0  0  0
  160.8300  210.4720  155.6100 C   0  0  0  0  0  1  0  0  0  0  0  0
  160.6230  207.9250  155.5960 C   0  0  0  0  0  1  0  0  0  0  0  0
  160.3900  209.1830  153.5640 N   0  0  0  0  0  0  0  0  0  0  0  0
  1  9  1  0  0  0  0
  1  6  1  0  0  0  0
  2  5  1  0  0  0  0
  3  7  1  0  0  0  0
  3  2  1  0  0  0  0
  4  7  2  0  0  0  0
  5 14  1  0  0  0  0
  5 16  2  0  0  0  0
  8 12  2  0  0  0  0
 10 19  1  0  0  0  0
 10 18  2  0  0  0  0
 11  4  1  0  0  0  0
 12 16  1  0  0  0  0
 13  2  2  0  0  0  0
 13  8  1  0  0  0  0
 14  1  2  0  0  0  0
 15 11  2  0  0  0  0
 16 17  1  0  0  0  0
 17  6  2  0  0  0  0
 18 13  1  0  0  0  0
 19  3  2  0  0  0  0
 20 11  1  0  0  0  0
 20 19  1  0  0  0  0
 21  8  1  0  0  0  0
 21 22  1  0  0  0  0
 23 22  1  0  0  0  0
 23 24  1  0  0  0  0
 24 25  1  0  0  0  0
 25 27  1  0  0  0  0
 26 27  2  0  0  0  0
 27 31  1  0  0  0  0
 28 30  1  0  0  0  0
 28 29  1  0  0  0  0
 31 28  2  0  0  0  0
M  END
>  <MODEL>
7

>  <REMARK>
 VINA RESULT:      -9.4      2.728      4.734
  Name = 
  7 active torsions:
  status: ('A' for Active; 'I' for Inactive)
    1  A    between atoms: C_3  and  C_19
    2  A    between atoms: C_3  and  C_22
    3  A    between atoms: C_7  and  N_9
    4  A    between atoms: C_7  and  C_22
    5  A    between atoms: N_9  and  C_23
    6  A    between atoms: C_15  and  C_23
    7  A    between atoms: C_19  and  N_24
                            x       y       z     vdW  Elec       q    Type
                         _______ _______ _______ _____ _____    ______ ____

>  <TORSDO>
F 7

$$$$
=
 OpenBabel11052422323D

 31 34  0  0  0  0  0  0  0  0999 V2000
  160.8150  207.2690  154.2560 C   0  0  0  0  0  0  0  0  0  0  0  0
  161.3760  206.9820  150.5360 C   0  0  0  0  0  0  0  0  0  0  0  0
  161.1840  205.5980  150.2020 C   0  0  0  0  0  0  0  0  0  0  0  0
  160.6550  203.2950  150.9280 C   0  0  0  0  0  3  0  0  0  0  0  0
  161.2530  207.5160  151.8610 C   0  0  0  0  0  0  0  0  0  0  0  0
  161.0200  208.6330  154.4510 C   0  0  0  0  0  3  0  0  0  0  0  0
  160.8360  204.5800  151.2200 C   0  0  0  0  0  3  0  0  0  0  0  0
  161.9110  209.2570  149.7400 C   0  0  0  0  0  0  0  0  0  0  0  0
  160.5040  206.4740  155.3070 F   0  0  0  0  0  0  0  0  0  0  0  0
  161.6490  206.0830  147.8630 C   0  0  0  0  0  3  0  0  0  0  0  0
  160.7900  202.8090  149.5540 C   0  0  0  0  0  0  0  0  0  0  0  0
  161.7780  209.7480  151.0320 C   0  0  0  0  0  3  0  0  0  0  0  0
  161.7090  207.8870  149.4810 C   0  0  0  0  0  0  0  0  0  0  0  0
  160.9310  206.7220  152.9760 C   0  0  0  0  0  3  0  0  0  0  0  0
  160.6120  201.5870  149.3120 O   0  0  0  0  0  0  0  0  0  0  0  0
  161.4580  208.9030  152.0840 C   0  0  0  0  0  0  0  0  0  0  0  0
  161.3400  209.4480  153.3660 C   0  0  0  0  0  3  0  0  0  0  0  0
  161.8390  207.4200  148.1690 C   0  0  0  0  0  3  0  0  0  0  0  0
  161.3240  205.1710  148.8590 C   0  0  0  0  0  0  0  0  0  0  0  0
  161.1380  203.7390  148.4320 C   0  0  0  0  0  2  0  0  0  0  0  0
  162.2350  210.2300  148.6520 C   0  0  0  0  0  2  0  0  0  0  0  0
  161.9050  211.5760  149.0850 N   0  0  0  0  0  2  0  0  0  0  0  0
  162.6540  212.4840  148.2340 C   0  0  0  0  0  2  0  0  0  0  0  0
  161.8430  213.7440  147.9740 C   0  0  0  0  0  2  0  0  0  0  0  0
  161.8990  214.1520  146.5060 C   0  0  0  0  0  2  0  0  0  0  0  0
  160.1150  212.6690  145.9960 O   0  0  0  0  0  0  0  0  0  0  0  0
  161.2300  213.1380  145.6430 C   0  0  0  0  0  0  0  0  0  0  0  0
  161.3350  212.7320  143.2220 C   0  0  0  0  0  0  0  0  0  0  0  0
  159.9270  213.1480  142.9490 C   0  0  0  0  0  1  0  0  0  0  0  0
  162.1690  212.2870  142.0750 C   0  0  0  0  0  1  0  0  0  0  0  0
  161.8590  212.7430  144.4130 N   0  0  0  0  0  0  0  0  0  0  0  0
  1  6  1  0  0  0  0
  1  9  1  0  0  0  0
  2  5  1  0  0  0  0
  3  2  1  0  0  0  0
  3  7  1  0  0  0  0
  4  7  2  0  0  0  0
  5 16  2  0  0  0  0
  5 14  1  0  0  0  0
  8 12  2  0  0  0  0
 10 18  2  0  0  0  0
 10 19  1  0  0  0  0
 11  4  1  0  0  0  0
 12 16  1  0  0  0  0
 13  8  1  0  0  0  0
 13  2  2  0  0  0  0
 14  1  2  0  0  0  0
 15 11  2  0  0  0  0
 16 17  1  0  0  0  0
 17  6  2  0  0  0  0
 18 13  1  0  0  0  0
 19  3  2  0  0  0  0
 20 19  1  0  0  0  0
 20 11  1  0  0  0  0
 21 22  1  0  0  0  0
 21  8  1  0  0  0  0
 23 22  1  0  0  0  0
 24 23  1  0  0  0  0
 25 24  1  0  0  0  0
 27 26  2  0  0  0  0
 27 25  1  0  0  0  0
 28 31  2  0  0  0  0
 29 28  1  0  0  0  0
 30 28  1  0  0  0  0
 31 27  1  0  0  0  0
M  END
>  <MODEL>
8

>  <REMARK>
 VINA RESULT:      -9.3      1.738      2.578
  Name = 
  7 active torsions:
  status: ('A' for Active; 'I' for Inactive)
    1  A    between atoms: C_3  and  C_19
    2  A    between atoms: C_3  and  C_22
    3  A    between atoms: C_7  and  N_9
    4  A    between atoms: C_7  and  C_22
    5  A    between atoms: N_9  and  C_23
    6  A    between atoms: C_15  and  C_23
    7  A    between atoms: C_19  and  N_24
                            x       y       z     vdW  Elec       q    Type
                         _______ _______ _______ _____ _____    ______ ____

>  <TORSDO>
F 7

$$$$
=
 OpenBabel11052422323D

 31 34  0  0  0  0  0  0  0  0999 V2000
  160.5360  209.1360  155.0830 C   0  0  0  0  0  0  0  0  0  0  0  0
  161.4100  207.5850  151.7560 C   0  0  0  0  0  0  0  0  0  0  0  0
  161.6060  208.6730  150.8410 C   0  0  0  0  0  0  0  0  0  0  0  0
  161.6400  211.1080  150.4160 C   0  0  0  0  0  3  0  0  0  0  0  0
  161.0610  207.7460  153.1380 C   0  0  0  0  0  0  0  0  0  0  0  0
  160.3790  207.9990  155.8730 C   0  0  0  0  0  3  0  0  0  0  0  0
  161.4610  210.0890  151.2510 C   0  0  0  0  0  3  0  0  0  0  0  0
  161.3950  205.1410  152.1080 C   0  0  0  0  0  0  0  0  0  0  0  0
  160.3620  210.3650  155.6240 F   0  0  0  0  0  0  0  0  0  0  0  0
  162.1030  207.0980  149.0530 C   0  0  0  0  0  3  0  0  0  0  0  0
  161.9990  210.8800  149.0150 C   0  0  0  0  0  0  0  0  0  0  0  0
  161.0650  205.3270  153.4440 C   0  0  0  0  0  3  0  0  0  0  0  0
  161.5740  206.2540  151.2620 C   0  0  0  0  0  0  0  0  0  0  0  0
  160.8730  209.0070  153.7340 C   0  0  0  0  0  3  0  0  0  0  0  0
  162.1610  211.8670  148.2510 O   0  0  0  0  0  0  0  0  0  0  0  0
  160.8950  206.6030  153.9620 C   0  0  0  0  0  0  0  0  0  0  0  0
  160.5590  206.7350  155.3130 C   0  0  0  0  0  3  0  0  0  0  0  0
  161.9160  206.0380  149.9230 C   0  0  0  0  0  3  0  0  0  0  0  0
  161.9540  208.4070  149.4930 C   0  0  0  0  0  0  0  0  0  0  0  0
  162.1770  209.4940  148.4750 C   0  0  0  0  0  2  0  0  0  0  0  0
  161.5840  203.7390  151.6240 C   0  0  0  0  0  2  0  0  0  0  0  0
  160.5160  203.3890  150.7060 N   0  0  0  0  0  2  0  0  0  0  0  0
  160.6930  201.9860  150.3740 C   0  0  0  0  0  2  0  0  0  0  0  0
  160.4450  201.7660  148.8900 C   0  0  0  0  0  2  0  0  0  0  0  0
  161.1860  202.7940  148.0420 C   0  0  0  0  0  2  0  0  0  0  0  0
  161.2050  201.2350  146.2490 O   0  0  0  0  0  0  0  0  0  0  0  0
  161.1170  202.4430  146.5950 C   0  0  0  0  0  0  0  0  0  0  0  0
  161.7290  204.4730  145.3520 C   0  0  0  0  0  0  0  0  0  0  0  0
  163.0450  204.6620  146.0310 C   0  0  0  0  0  1  0  0  0  0  0  0
  161.3310  205.4540  144.3090 C   0  0  0  0  0  1  0  0  0  0  0  0
  160.9220  203.4920  145.6310 N   0  0  0  0  0  0  0  0  0  0  0  0
  1  9  1  0  0  0  0
  1  6  1  0  0  0  0
  2  5  1  0  0  0  0
  3  7  1  0  0  0  0
  3  2  1  0  0  0  0
  4  7  2  0  0  0  0
  5 14  1  0  0  0  0
  5 16  2  0  0  0  0
  8 12  2  0  0  0  0
 10 19  1  0  0  0  0
 10 18  2  0  0  0  0
 11  4  1  0  0  0  0
 12 16  1  0  0  0  0
 13  2  2  0  0  0  0
 13  8  1  0  0  0  0
 14  1  2  0  0  0  0
 15 11  2  0  0  0  0
 16 17  1  0  0  0  0
 17  6  2  0  0  0  0
 18 13  1  0  0  0  0
 19  3  2  0  0  0  0
 20 11  1  0  0  0  0
 20 19  1  0  0  0  0
 21  8  1  0  0  0  0
 22 21  1  0  0  0  0
 23 22  1  0  0  0  0
 24 23  1  0  0  0  0
 25 24  1  0  0  0  0
 26 27  2  0  0  0  0
 27 25  1  0  0  0  0
 28 31  2  0  0  0  0
 28 29  1  0  0  0  0
 30 28  1  0  0  0  0
 31 27  1  0  0  0  0
M  END
>  <MODEL>
9

>  <REMARK>
 VINA RESULT:      -9.2      3.423      7.395
  Name = 
  7 active torsions:
  status: ('A' for Active; 'I' for Inactive)
    1  A    between atoms: C_3  and  C_19
    2  A    between atoms: C_3  and  C_22
    3  A    between atoms: C_7  and  N_9
    4  A    between atoms: C_7  and  C_22
    5  A    between atoms: N_9  and  C_23
    6  A    between atoms: C_15  and  C_23
    7  A    between atoms: C_19  and  N_24
                            x       y       z     vdW  Elec       q    Type
                         _______ _______ _______ _____ _____    ______ ____

>  <TORSDO>
F 7

$$$$
