=
 OpenBabel11052422103D

 25 26  0  0  1  0  0  0  0  0999 V2000
  160.9070  209.7060  153.6600 N   0  0  0  0  0  0  0  0  0  0  0  0
  161.0340  208.4460  153.2090 C   0  0  0  0  0  0  0  0  0  0  0  0
  162.0390  210.3950  150.5030 C   0  0  0  0  0  1  0  0  0  0  0  0
  161.6310  209.8280  151.6320 C   0  0  0  0  0  0  0  0  0  0  0  0
  161.7650  207.4020  151.0890 C   0  0  2  0  0  3  0  0  0  0  0  0
  162.3270  207.5800  149.7170 C   0  0  0  0  0  1  0  0  0  0  0  0
  160.7990  207.3990  153.9320 N   0  0  0  0  0  1  0  0  0  0  0  0
  161.2640  210.5540  152.7090 N   0  0  0  0  0  0  0  0  0  0  0  0
  161.5010  208.4580  151.8960 C   0  0  0  0  0  0  0  0  0  0  0  0
  160.4540  210.1030  154.9900 C   0  0  1  0  0  3  0  0  0  0  0  0
  159.5570  212.1570  156.8850 C   0  0  0  0  0  2  0  0  0  0  0  0
  161.4450  211.0820  155.6330 C   0  0  1  0  0  3  0  0  0  0  0  0
  160.9410  211.5260  157.0040 C   0  0  0  0  0  2  0  0  0  0  0  0
  158.5780  211.1560  156.2810 C   0  0  0  0  0  2  0  0  0  0  0  0
  162.7420  210.4450  155.7880 N   0  0  0  0  0  1  0  0  0  0  0  0
  159.0590  210.7240  154.9000 C   0  0  0  0  0  2  0  0  0  0  0  0
  161.5330  205.9900  151.5240 C   0  0  0  0  0  2  0  0  0  0  0  0
  160.5690  205.2980  150.5720 C   0  0  0  0  0  2  0  0  0  0  0  0
  161.0710  203.9080  150.2180 C   0  0  0  0  0  2  0  0  0  0  0  0
  161.4210  204.8960  147.9210 N   0  0  0  0  0  2  0  0  0  0  0  0
  161.1880  203.7490  148.7400 C   0  0  0  0  0  0  0  0  0  0  0  0
  161.0510  202.6080  148.2250 O   0  0  0  0  0  0  0  0  0  0  0  0
  160.7900  205.9930  145.8550 C   0  0  0  0  0  1  0  0  0  0  0  0
  162.9740  204.8550  146.0470 C   0  0  0  0  0  1  0  0  0  0  0  0
  161.5190  204.8180  146.4700 C   0  0  0  0  0  3  0  0  0  0  0  0
  2  1  1  0  0  0  0
  2  7  1  0  0  0  0
  3  4  1  0  0  0  0
  4  9  1  0  0  0  0
  4  8  2  0  0  0  0
  5  6  1  1  0  0  0
  5 17  1  0  0  0  0
  5  9  1  0  0  0  0
  8  1  1  0  0  0  0
  9  2  2  0  0  0  0
 10  1  1  6  0  0  0
 10 12  1  0  0  0  0
 11 13  1  0  0  0  0
 12 15  1  1  0  0  0
 12 13  1  0  0  0  0
 14 11  1  0  0  0  0
 16 10  1  0  0  0  0
 16 14  1  0  0  0  0
 18 17  1  0  0  0  0
 19 18  1  0  0  0  0
 20 21  1  0  0  0  0
 21 19  1  0  0  0  0
 22 21  2  0  0  0  0
 23 25  1  0  0  0  0
 24 25  1  0  0  0  0
 25 20  1  0  0  0  0
M  END
>  <MODEL>
1

>  <REMARK>
 VINA RESULT:      -7.5      0.000      0.000
  Name = 
  6 active torsions:
  status: ('A' for Active; 'I' for Inactive)
    1  A    between atoms: N_1  and  C_5
    2  A    between atoms: N_2  and  C_21
    3  A    between atoms: C_6  and  C_15
    4  A    between atoms: C_6  and  C_23
    5  A    between atoms: C_13  and  C_20
    6  A    between atoms: C_20  and  C_23
                            x       y       z     vdW  Elec       q    Type
                         _______ _______ _______ _____ _____    ______ ____

>  <TORSDO>
F 6

$$$$
=
 OpenBabel11052422103D

 25 26  0  0  1  0  0  0  0  0999 V2000
  161.4000  205.7790  148.4560 N   0  0  0  0  0  0  0  0  0  0  0  0
  161.6230  206.7330  149.3770 C   0  0  0  0  0  0  0  0  0  0  0  0
  160.7770  203.9400  151.2780 C   0  0  0  0  0  1  0  0  0  0  0  0
  161.0770  204.8830  150.3920 C   0  0  0  0  0  0  0  0  0  0  0  0
  161.5590  206.8460  151.8470 C   0  0  2  0  0  3  0  0  0  0  0  0
  161.3800  206.1270  153.1430 C   0  0  0  0  0  1  0  0  0  0  0  0
  162.0110  207.9330  149.0840 N   0  0  0  0  0  1  0  0  0  0  0  0
  161.0650  204.6510  149.0630 N   0  0  0  0  0  0  0  0  0  0  0  0
  161.4300  206.2140  150.6540 C   0  0  0  0  0  0  0  0  0  0  0  0
  161.5100  205.9350  147.0090 C   0  0  1  0  0  3  0  0  0  0  0  0
  160.9410  205.0120  144.2810 C   0  0  0  0  0  2  0  0  0  0  0  0
  162.2720  204.7560  146.3910 C   0  0  1  0  0  3  0  0  0  0  0  0
  162.3430  204.9040  144.8730 C   0  0  0  0  0  2  0  0  0  0  0  0
  160.2140  206.2120  144.8790 C   0  0  0  0  0  2  0  0  0  0  0  0
  163.6220  204.7020  146.9260 N   0  0  0  0  0  1  0  0  0  0  0  0
  160.1150  206.0620  146.3930 C   0  0  0  0  0  2  0  0  0  0  0  0
  161.9130  208.2960  151.9440 C   0  0  0  0  0  2  0  0  0  0  0  0
  160.6490  209.1380  152.0410 C   0  0  0  0  0  2  0  0  0  0  0  0
  160.9120  210.4070  152.8360 C   0  0  0  0  0  2  0  0  0  0  0  0
  160.4240  209.1560  154.9750 N   0  0  0  0  0  2  0  0  0  0  0  0
  161.2390  210.0830  154.2550 C   0  0  0  0  0  0  0  0  0  0  0  0
  162.2140  210.6510  154.8140 O   0  0  0  0  0  0  0  0  0  0  0  0
  159.9160  209.7780  157.2610 C   0  0  0  0  0  1  0  0  0  0  0  0
  160.1950  207.4010  156.6470 C   0  0  0  0  0  1  0  0  0  0  0  0
  160.6700  208.8140  156.3690 C   0  0  0  0  0  3  0  0  0  0  0  0
  1  8  1  0  0  0  0
  1  2  1  0  0  0  0
  2  9  2  0  0  0  0
  4  9  1  0  0  0  0
  4  3  1  0  0  0  0
  5 17  1  0  0  0  0
  5  6  1  1  0  0  0
  7  2  1  0  0  0  0
  8  4  2  0  0  0  0
  9  5  1  0  0  0  0
 10 16  1  6  0  0  0
 10  1  1  0  0  0  0
 11 13  1  0  0  0  0
 11 14  1  0  0  0  0
 12 15  1  1  0  0  0
 12 10  1  0  0  0  0
 13 12  1  0  0  0  0
 14 16  1  0  0  0  0
 17 18  1  0  0  0  0
 18 19  1  0  0  0  0
 19 21  1  0  0  0  0
 20 25  1  0  0  0  0
 21 22  2  0  0  0  0
 21 20  1  0  0  0  0
 25 24  1  0  0  0  0
 25 23  1  0  0  0  0
M  END
>  <MODEL>
2

>  <REMARK>
 VINA RESULT:      -7.2      2.662      8.744
  Name = 
  6 active torsions:
  status: ('A' for Active; 'I' for Inactive)
    1  A    between atoms: N_1  and  C_5
    2  A    between atoms: N_2  and  C_21
    3  A    between atoms: C_6  and  C_15
    4  A    between atoms: C_6  and  C_23
    5  A    between atoms: C_13  and  C_20
    6  A    between atoms: C_20  and  C_23
                            x       y       z     vdW  Elec       q    Type
                         _______ _______ _______ _____ _____    ______ ____

>  <TORSDO>
F 6

$$$$
=
 OpenBabel11052422103D

 25 26  0  0  1  0  0  0  0  0999 V2000
  161.3130  208.7600  153.5370 N   0  0  0  0  0  0  0  0  0  0  0  0
  161.5320  208.5450  152.2280 C   0  0  0  0  0  0  0  0  0  0  0  0
  160.9700  205.3530  153.5020 C   0  0  0  0  0  1  0  0  0  0  0  0
  161.1510  206.6340  153.2060 C   0  0  0  0  0  0  0  0  0  0  0  0
  161.5890  206.5580  150.7560 C   0  0  2  0  0  3  0  0  0  0  0  0
  161.3940  205.0860  150.6090 C   0  0  0  0  0  1  0  0  0  0  0  0
  161.7410  209.4930  151.3720 N   0  0  0  0  0  1  0  0  0  0  0  0
  161.0840  207.6050  154.1420 N   0  0  0  0  0  0  0  0  0  0  0  0
  161.4400  207.1840  151.9490 C   0  0  0  0  0  0  0  0  0  0  0  0
  161.3160  210.0550  154.2100 C   0  0  1  0  0  3  0  0  0  0  0  0
  160.5380  211.7800  156.4540 C   0  0  0  0  0  2  0  0  0  0  0  0
  159.8910  210.6080  154.3330 C   0  0  1  0  0  3  0  0  0  0  0  0
  159.8980  211.9420  155.0780 C   0  0  0  0  0  2  0  0  0  0  0  0
  161.9660  211.2680  156.3080 C   0  0  0  0  0  2  0  0  0  0  0  0
  159.3190  210.8060  153.0120 N   0  0  0  0  0  1  0  0  0  0  0  0
  161.9680  209.9240  155.5880 C   0  0  0  0  0  2  0  0  0  0  0  0
  161.9350  207.3020  149.5060 C   0  0  0  0  0  2  0  0  0  0  0  0
  161.0950  206.7950  148.3440 C   0  0  0  0  0  2  0  0  0  0  0  0
  161.9560  206.5900  147.1090 C   0  0  0  0  0  2  0  0  0  0  0  0
  161.2630  204.1710  147.3130 N   0  0  0  0  0  2  0  0  0  0  0  0
  162.2210  205.1400  146.8840 C   0  0  0  0  0  0  0  0  0  0  0  0
  163.3010  204.7820  146.3430 O   0  0  0  0  0  0  0  0  0  0  0  0
  160.8230  202.0050  148.3050 C   0  0  0  0  0  1  0  0  0  0  0  0
  160.8450  202.2710  145.8490 C   0  0  0  0  0  1  0  0  0  0  0  0
  161.4690  202.7390  147.1490 C   0  0  0  0  0  3  0  0  0  0  0  0
  1  8  1  0  0  0  0
  2  1  1  0  0  0  0
  4  3  1  0  0  0  0
  4  8  2  0  0  0  0
  5  6  1  6  0  0  0
  5  9  1  0  0  0  0
  7  2  1  0  0  0  0
  9  2  2  0  0  0  0
  9  4  1  0  0  0  0
 10  1  1  1  0  0  0
 10 12  1  0  0  0  0
 10 16  1  0  0  0  0
 12 15  1  6  0  0  0
 12 13  1  0  0  0  0
 13 11  1  0  0  0  0
 14 11  1  0  0  0  0
 16 14  1  0  0  0  0
 17  5  1  0  0  0  0
 18 17  1  0  0  0  0
 19 18  1  0  0  0  0
 21 19  1  0  0  0  0
 21 20  1  0  0  0  0
 22 21  2  0  0  0  0
 24 25  1  0  0  0  0
 25 20  1  0  0  0  0
 25 23  1  0  0  0  0
M  END
>  <MODEL>
3

>  <REMARK>
 VINA RESULT:      -7.2      1.591      3.007
  Name = 
  6 active torsions:
  status: ('A' for Active; 'I' for Inactive)
    1  A    between atoms: N_1  and  C_5
    2  A    between atoms: N_2  and  C_21
    3  A    between atoms: C_6  and  C_15
    4  A    between atoms: C_6  and  C_23
    5  A    between atoms: C_13  and  C_20
    6  A    between atoms: C_20  and  C_23
                            x       y       z     vdW  Elec       q    Type
                         _______ _______ _______ _____ _____    ______ ____

>  <TORSDO>
F 6

$$$$
=
 OpenBabel11052422103D

 25 26  0  0  1  0  0  0  0  0999 V2000
  161.4040  205.6810  148.4800 N   0  0  0  0  0  0  0  0  0  0  0  0
  161.6280  206.5950  149.4400 C   0  0  0  0  0  0  0  0  0  0  0  0
  160.7120  203.7440  151.2170 C   0  0  0  0  0  1  0  0  0  0  0  0
  161.0390  204.7160  150.3740 C   0  0  0  0  0  0  0  0  0  0  0  0
  161.5300  206.6120  151.9110 C   0  0  2  0  0  3  0  0  0  0  0  0
  161.3200  205.8460  153.1750 C   0  0  0  0  0  1  0  0  0  0  0  0
  162.0380  207.7990  149.2000 N   0  0  0  0  0  1  0  0  0  0  0  0
  161.0430  204.5360  149.0360 N   0  0  0  0  0  0  0  0  0  0  0  0
  161.4080  206.0300  150.6930 C   0  0  0  0  0  0  0  0  0  0  0  0
  161.5370  205.8920  147.0420 C   0  0  1  0  0  3  0  0  0  0  0  0
  161.0280  205.0650  144.2720 C   0  0  0  0  0  2  0  0  0  0  0  0
  162.3250  204.7460  146.3940 C   0  0  1  0  0  3  0  0  0  0  0  0
  162.4210  204.9520  144.8840 C   0  0  0  0  0  2  0  0  0  0  0  0
  160.2760  206.2330  144.9000 C   0  0  0  0  0  2  0  0  0  0  0  0
  163.6660  204.6890  146.9510 N   0  0  0  0  0  1  0  0  0  0  0  0
  160.1530  206.0250  146.4050 C   0  0  0  0  0  2  0  0  0  0  0  0
  161.9030  208.0520  152.0710 C   0  0  0  0  0  2  0  0  0  0  0  0
  160.6900  208.8650  152.4970 C   0  0  0  0  0  2  0  0  0  0  0  0
  160.9930  209.6580  153.7580 C   0  0  0  0  0  2  0  0  0  0  0  0
  160.0650  211.5370  152.3490 N   0  0  0  0  0  2  0  0  0  0  0  0
  160.5400  211.0710  153.6140 C   0  0  0  0  0  0  0  0  0  0  0  0
  160.6070  211.8500  154.6030 O   0  0  0  0  0  0  0  0  0  0  0  0
  159.9330  213.3090  150.7020 C   0  0  0  0  0  1  0  0  0  0  0  0
  158.1430  213.0300  152.3820 C   0  0  0  0  0  1  0  0  0  0  0  0
  159.6330  212.9110  152.1310 C   0  0  0  0  0  3  0  0  0  0  0  0
  1  8  1  0  0  0  0
  1  2  1  0  0  0  0
  2  9  2  0  0  0  0
  4  9  1  0  0  0  0
  4  3  1  0  0  0  0
  5 17  1  0  0  0  0
  5  6  1  1  0  0  0
  7  2  1  0  0  0  0
  8  4  2  0  0  0  0
  9  5  1  0  0  0  0
 10 16  1  6  0  0  0
 10  1  1  0  0  0  0
 11 13  1  0  0  0  0
 11 14  1  0  0  0  0
 12 15  1  1  0  0  0
 12 10  1  0  0  0  0
 13 12  1  0  0  0  0
 14 16  1  0  0  0  0
 17 18  1  0  0  0  0
 18 19  1  0  0  0  0
 20 21  1  0  0  0  0
 21 19  1  0  0  0  0
 21 22  2  0  0  0  0
 23 25  1  0  0  0  0
 25 20  1  0  0  0  0
 25 24  1  0  0  0  0
M  END
>  <MODEL>
4

>  <REMARK>
 VINA RESULT:      -7.1      3.127      8.617
  Name = 
  6 active torsions:
  status: ('A' for Active; 'I' for Inactive)
    1  A    between atoms: N_1  and  C_5
    2  A    between atoms: N_2  and  C_21
    3  A    between atoms: C_6  and  C_15
    4  A    between atoms: C_6  and  C_23
    5  A    between atoms: C_13  and  C_20
    6  A    between atoms: C_20  and  C_23
                            x       y       z     vdW  Elec       q    Type
                         _______ _______ _______ _____ _____    ______ ____

>  <TORSDO>
F 6

$$$$
=
 OpenBabel11052422103D

 25 26  0  0  1  0  0  0  0  0999 V2000
  161.3500  203.8490  149.0230 N   0  0  0  0  0  0  0  0  0  0  0  0
  161.4120  205.1780  149.2200 C   0  0  0  0  0  0  0  0  0  0  0  0
  160.8300  203.9020  152.4070 C   0  0  0  0  0  1  0  0  0  0  0  0
  161.0530  204.1940  151.1320 C   0  0  0  0  0  0  0  0  0  0  0  0
  161.2230  206.6780  151.1770 C   0  0  2  0  0  3  0  0  0  0  0  0
  161.0740  206.8170  152.6560 C   0  0  0  0  0  1  0  0  0  0  0  0
  161.6620  206.0300  148.2780 N   0  0  0  0  0  1  0  0  0  0  0  0
  161.1290  203.2420  150.1780 N   0  0  0  0  0  0  0  0  0  0  0  0
  161.2270  205.4670  150.5690 C   0  0  0  0  0  0  0  0  0  0  0  0
  161.5060  203.1590  147.7460 C   0  0  1  0  0  3  0  0  0  0  0  0
  160.3760  202.0820  145.2610 C   0  0  0  0  0  2  0  0  0  0  0  0
  160.7090  201.8490  147.7350 C   0  0  1  0  0  3  0  0  0  0  0  0
  160.8410  201.1560  146.3800 C   0  0  0  0  0  2  0  0  0  0  0  0
  161.2060  203.3620  145.2640 C   0  0  0  0  0  2  0  0  0  0  0  0
  161.2030  200.9590  148.7720 N   0  0  0  0  0  1  0  0  0  0  0  0
  161.0610  204.0740  146.6040 C   0  0  0  0  0  2  0  0  0  0  0  0
  161.3900  207.9530  150.4120 C   0  0  0  0  0  2  0  0  0  0  0  0
  162.3280  208.8920  151.1550 C   0  0  0  0  0  2  0  0  0  0  0  0
  161.7000  210.2670  151.3060 C   0  0  0  0  0  2  0  0  0  0  0  0
  161.9440  210.2010  153.8190 N   0  0  0  0  0  2  0  0  0  0  0  0
  161.1260  210.4390  152.6710 C   0  0  0  0  0  0  0  0  0  0  0  0
  159.9150  210.7640  152.8010 O   0  0  0  0  0  0  0  0  0  0  0  0
  160.8550  208.9990  155.6180 C   0  0  0  0  0  1  0  0  0  0  0  0
  162.5720  210.7030  156.1160 C   0  0  0  0  0  1  0  0  0  0  0  0
  161.4410  210.3240  155.1800 C   0  0  0  0  0  3  0  0  0  0  0  0
  1  2  1  0  0  0  0
  1  8  1  0  0  0  0
  2  9  2  0  0  0  0
  4  3  1  0  0  0  0
  5  6  1  1  0  0  0
  7  2  1  0  0  0  0
  8  4  2  0  0  0  0
  9  4  1  0  0  0  0
  9  5  1  0  0  0  0
 10 16  1  6  0  0  0
 10  1  1  0  0  0  0
 11 14  1  0  0  0  0
 11 13  1  0  0  0  0
 12 10  1  0  0  0  0
 12 15  1  1  0  0  0
 13 12  1  0  0  0  0
 14 16  1  0  0  0  0
 17 18  1  0  0  0  0
 17  5  1  0  0  0  0
 18 19  1  0  0  0  0
 19 21  1  0  0  0  0
 20 25  1  0  0  0  0
 21 22  2  0  0  0  0
 21 20  1  0  0  0  0
 25 23  1  0  0  0  0
 25 24  1  0  0  0  0
M  END
>  <MODEL>
5

>  <REMARK>
 VINA RESULT:      -6.9      2.619      9.070
  Name = 
  6 active torsions:
  status: ('A' for Active; 'I' for Inactive)
    1  A    between atoms: N_1  and  C_5
    2  A    between atoms: N_2  and  C_21
    3  A    between atoms: C_6  and  C_15
    4  A    between atoms: C_6  and  C_23
    5  A    between atoms: C_13  and  C_20
    6  A    between atoms: C_20  and  C_23
                            x       y       z     vdW  Elec       q    Type
                         _______ _______ _______ _____ _____    ______ ____

>  <TORSDO>
F 6

$$$$
=
 OpenBabel11052422103D

 25 26  0  0  1  0  0  0  0  0999 V2000
  161.4100  205.7760  148.6180 N   0  0  0  0  0  0  0  0  0  0  0  0
  161.4700  206.7540  149.5390 C   0  0  0  0  0  0  0  0  0  0  0  0
  161.0080  203.8670  151.4320 C   0  0  0  0  0  1  0  0  0  0  0  0
  161.1840  204.8430  150.5500 C   0  0  0  0  0  0  0  0  0  0  0  0
  161.3380  206.8570  152.0070 C   0  0  2  0  0  3  0  0  0  0  0  0
  161.2410  206.1200  153.3010 C   0  0  0  0  0  1  0  0  0  0  0  0
  161.6810  207.9970  149.2500 N   0  0  0  0  0  1  0  0  0  0  0  0
  161.2330  204.6110  149.2210 N   0  0  0  0  0  0  0  0  0  0  0  0
  161.3290  206.2120  150.8140 C   0  0  0  0  0  0  0  0  0  0  0  0
  161.5260  205.9460  147.1730 C   0  0  1  0  0  3  0  0  0  0  0  0
  160.9720  205.0470  144.4340 C   0  0  0  0  0  2  0  0  0  0  0  0
  162.2950  204.7760  146.5470 C   0  0  1  0  0  3  0  0  0  0  0  0
  162.3720  204.9390  145.0300 C   0  0  0  0  0  2  0  0  0  0  0  0
  160.2380  206.2390  145.0400 C   0  0  0  0  0  2  0  0  0  0  0  0
  163.6430  204.7220  147.0870 N   0  0  0  0  0  1  0  0  0  0  0  0
  160.1330  206.0730  146.5520 C   0  0  0  0  0  2  0  0  0  0  0  0
  161.4700  208.3440  152.1060 C   0  0  0  0  0  2  0  0  0  0  0  0
  160.9090  208.8320  153.4330 C   0  0  0  0  0  2  0  0  0  0  0  0
  161.5770  210.1320  153.8510 C   0  0  0  0  0  2  0  0  0  0  0  0
  159.3400  211.2800  153.6170 N   0  0  0  0  0  2  0  0  0  0  0  0
  160.5650  211.1140  154.3350 C   0  0  0  0  0  0  0  0  0  0  0  0
  160.8110  211.8090  155.3570 O   0  0  0  0  0  0  0  0  0  0  0  0
  157.9150  213.0690  152.8180 C   0  0  0  0  0  1  0  0  0  0  0  0
  157.1050  211.5080  154.5540 C   0  0  0  0  0  1  0  0  0  0  0  0
  158.3200  212.2390  154.0180 C   0  0  0  0  0  3  0  0  0  0  0  0
  1  8  1  0  0  0  0
  1  2  1  0  0  0  0
  2  9  2  0  0  0  0
  4  9  1  0  0  0  0
  4  3  1  0  0  0  0
  5 17  1  0  0  0  0
  5  6  1  1  0  0  0
  7  2  1  0  0  0  0
  8  4  2  0  0  0  0
  9  5  1  0  0  0  0
 10 16  1  6  0  0  0
 10  1  1  0  0  0  0
 11 13  1  0  0  0  0
 11 14  1  0  0  0  0
 12 15  1  1  0  0  0
 12 10  1  0  0  0  0
 13 12  1  0  0  0  0
 14 16  1  0  0  0  0
 17 18  1  0  0  0  0
 18 19  1  0  0  0  0
 19 21  1  0  0  0  0
 20 25  1  0  0  0  0
 20 21  1  0  0  0  0
 21 22  2  0  0  0  0
 23 25  1  0  0  0  0
 25 24  1  0  0  0  0
M  END
>  <MODEL>
6

>  <REMARK>
 VINA RESULT:      -6.9      3.037      8.797
  Name = 
  6 active torsions:
  status: ('A' for Active; 'I' for Inactive)
    1  A    between atoms: N_1  and  C_5
    2  A    between atoms: N_2  and  C_21
    3  A    between atoms: C_6  and  C_15
    4  A    between atoms: C_6  and  C_23
    5  A    between atoms: C_13  and  C_20
    6  A    between atoms: C_20  and  C_23
                            x       y       z     vdW  Elec       q    Type
                         _______ _______ _______ _____ _____    ______ ____

>  <TORSDO>
F 6

$$$$
=
 OpenBabel11052422103D

 25 26  0  0  1  0  0  0  0  0999 V2000
  161.3330  205.0890  148.3130 N   0  0  0  0  0  0  0  0  0  0  0  0
  161.3390  205.7790  149.4670 C   0  0  0  0  0  0  0  0  0  0  0  0
  160.8310  202.4870  150.4810 C   0  0  0  0  0  1  0  0  0  0  0  0
  161.0330  203.6660  149.9060 C   0  0  0  0  0  0  0  0  0  0  0  0
  161.0960  205.2080  151.8610 C   0  0  2  0  0  3  0  0  0  0  0  0
  160.9510  204.1470  152.9010 C   0  0  0  0  0  1  0  0  0  0  0  0
  161.5460  207.0550  149.5370 N   0  0  0  0  0  1  0  0  0  0  0  0
  161.1440  203.8040  148.5680 N   0  0  0  0  0  0  0  0  0  0  0  0
  161.1490  204.9120  150.5390 C   0  0  0  0  0  0  0  0  0  0  0  0
  161.5100  205.6460  146.9750 C   0  0  1  0  0  3  0  0  0  0  0  0
  161.2240  205.4530  144.0600 C   0  0  0  0  0  2  0  0  0  0  0  0
  162.4460  204.7640  146.1390 C   0  0  1  0  0  3  0  0  0  0  0  0
  162.5900  205.3290  144.7270 C   0  0  0  0  0  2  0  0  0  0  0  0
  160.3210  206.3640  144.8860 C   0  0  0  0  0  2  0  0  0  0  0  0
  163.7580  204.7020  146.7610 N   0  0  0  0  0  1  0  0  0  0  0  0
  160.1500  205.7950  146.2900 C   0  0  0  0  0  2  0  0  0  0  0  0
  161.2050  206.6110  152.3670 C   0  0  0  0  0  2  0  0  0  0  0  0
  161.5620  206.6100  153.8460 C   0  0  0  0  0  2  0  0  0  0  0  0
  160.4960  207.3320  154.6540 C   0  0  0  0  0  2  0  0  0  0  0  0
  160.1870  209.7410  153.9590 N   0  0  0  0  0  2  0  0  0  0  0  0
  160.8320  208.7780  154.7960 C   0  0  0  0  0  0  0  0  0  0  0  0
  161.7030  209.1360  155.6340 O   0  0  0  0  0  0  0  0  0  0  0  0
  160.1230  211.8140  152.7070 C   0  0  0  0  0  1  0  0  0  0  0  0
  159.6850  211.8090  155.1390 C   0  0  0  0  0  1  0  0  0  0  0  0
  160.4860  211.1640  154.0250 C   0  0  0  0  0  3  0  0  0  0  0  0
  1  8  1  0  0  0  0
  1  2  1  0  0  0  0
  2  7  1  0  0  0  0
  2  9  2  0  0  0  0
  4  3  1  0  0  0  0
  4  9  1  0  0  0  0
  5 17  1  0  0  0  0
  5  6  1  1  0  0  0
  8  4  2  0  0  0  0
  9  5  1  0  0  0  0
 10 16  1  6  0  0  0
 10  1  1  0  0  0  0
 11 13  1  0  0  0  0
 11 14  1  0  0  0  0
 12 15  1  1  0  0  0
 12 10  1  0  0  0  0
 13 12  1  0  0  0  0
 14 16  1  0  0  0  0
 17 18  1  0  0  0  0
 18 19  1  0  0  0  0
 19 21  1  0  0  0  0
 20 25  1  0  0  0  0
 20 21  1  0  0  0  0
 21 22  2  0  0  0  0
 23 25  1  0  0  0  0
 25 24  1  0  0  0  0
M  END
>  <MODEL>
7

>  <REMARK>
 VINA RESULT:      -6.9      2.628      8.681
  Name = 
  6 active torsions:
  status: ('A' for Active; 'I' for Inactive)
    1  A    between atoms: N_1  and  C_5
    2  A    between atoms: N_2  and  C_21
    3  A    between atoms: C_6  and  C_15
    4  A    between atoms: C_6  and  C_23
    5  A    between atoms: C_13  and  C_20
    6  A    between atoms: C_20  and  C_23
                            x       y       z     vdW  Elec       q    Type
                         _______ _______ _______ _____ _____    ______ ____

>  <TORSDO>
F 6

$$$$
=
 OpenBabel11052422103D

 25 26  0  0  1  0  0  0  0  0999 V2000
  160.0300  210.2570  154.8790 N   0  0  0  0  0  0  0  0  0  0  0  0
  160.4530  209.7270  153.7180 C   0  0  0  0  0  0  0  0  0  0  0  0
  160.4700  207.0210  155.9120 C   0  0  0  0  0  1  0  0  0  0  0  0
  160.3930  208.1600  155.2330 C   0  0  0  0  0  0  0  0  0  0  0  0
  161.1390  207.4750  152.9580 C   0  0  2  0  0  3  0  0  0  0  0  0
  161.3010  206.0260  153.2770 C   0  0  0  0  0  1  0  0  0  0  0  0
  160.5480  210.4000  152.6170 N   0  0  0  0  0  1  0  0  0  0  0  0
  159.9930  209.3140  155.8080 N   0  0  0  0  0  0  0  0  0  0  0  0
  160.7060  208.3670  153.8820 C   0  0  0  0  0  0  0  0  0  0  0  0
  159.6570  211.6500  155.1050 C   0  0  1  0  0  3  0  0  0  0  0  0
  158.5820  213.7680  156.8290 C   0  0  0  0  0  2  0  0  0  0  0  0
  158.1510  211.7750  155.3700 C   0  0  1  0  0  3  0  0  0  0  0  0
  157.7780  213.2290  155.6500 C   0  0  0  0  0  2  0  0  0  0  0  0
  160.0740  213.6720  156.5310 C   0  0  0  0  0  2  0  0  0  0  0  0
  157.4040  211.3070  154.2150 N   0  0  0  0  0  1  0  0  0  0  0  0
  160.4620  212.2200  156.2750 C   0  0  0  0  0  2  0  0  0  0  0  0
  161.4620  207.8780  151.5540 C   0  0  0  0  0  2  0  0  0  0  0  0
  161.6530  206.6440  150.6850 C   0  0  0  0  0  2  0  0  0  0  0  0
  160.7740  206.7210  149.4470 C   0  0  0  0  0  2  0  0  0  0  0  0
  161.2350  205.8940  147.1060 N   0  0  0  0  0  2  0  0  0  0  0  0
  161.6060  206.7220  148.2090 C   0  0  0  0  0  0  0  0  0  0  0  0
  162.6450  207.4340  148.1590 O   0  0  0  0  0  0  0  0  0  0  0  0
  163.0630  204.7420  146.0100 C   0  0  0  0  0  1  0  0  0  0  0  0
  161.1090  205.5050  144.7060 C   0  0  0  0  0  1  0  0  0  0  0  0
  162.0150  205.8260  145.8780 C   0  0  0  0  0  3  0  0  0  0  0  0
  1  8  1  0  0  0  0
  2  9  2  0  0  0  0
  2  1  1  0  0  0  0
  4  8  2  0  0  0  0
  4  3  1  0  0  0  0
  5  6  1  6  0  0  0
  5  9  1  0  0  0  0
  7  2  1  0  0  0  0
  9  4  1  0  0  0  0
 10  1  1  1  0  0  0
 10 12  1  0  0  0  0
 10 16  1  0  0  0  0
 12 15  1  6  0  0  0
 12 13  1  0  0  0  0
 13 11  1  0  0  0  0
 14 11  1  0  0  0  0
 16 14  1  0  0  0  0
 17  5  1  0  0  0  0
 18 17  1  0  0  0  0
 19 18  1  0  0  0  0
 20 21  1  0  0  0  0
 21 19  1  0  0  0  0
 22 21  2  0  0  0  0
 24 25  1  0  0  0  0
 25 23  1  0  0  0  0
 25 20  1  0  0  0  0
M  END
>  <MODEL>
8

>  <REMARK>
 VINA RESULT:      -6.8      1.979      3.216
  Name = 
  6 active torsions:
  status: ('A' for Active; 'I' for Inactive)
    1  A    between atoms: N_1  and  C_5
    2  A    between atoms: N_2  and  C_21
    3  A    between atoms: C_6  and  C_15
    4  A    between atoms: C_6  and  C_23
    5  A    between atoms: C_13  and  C_20
    6  A    between atoms: C_20  and  C_23
                            x       y       z     vdW  Elec       q    Type
                         _______ _______ _______ _____ _____    ______ ____

>  <TORSDO>
F 6

$$$$
=
 OpenBabel11052422103D

 25 26  0  0  1  0  0  0  0  0999 V2000
  160.9030  209.4410  153.9390 N   0  0  0  0  0  0  0  0  0  0  0  0
  160.9750  208.1630  153.5290 C   0  0  0  0  0  0  0  0  0  0  0  0
  162.0170  209.9770  150.7440 C   0  0  0  0  0  1  0  0  0  0  0  0
  161.6020  209.4660  151.8980 C   0  0  0  0  0  0  0  0  0  0  0  0
  161.6340  207.0180  151.4380 C   0  0  2  0  0  3  0  0  0  0  0  0
  162.1830  207.1270  150.0540 C   0  0  0  0  0  1  0  0  0  0  0  0
  160.7090  207.1510  154.2910 N   0  0  0  0  0  1  0  0  0  0  0  0
  161.2800  210.2420  152.9540 N   0  0  0  0  0  0  0  0  0  0  0  0
  161.4220  208.1110  152.2110 C   0  0  0  0  0  0  0  0  0  0  0  0
  160.4850  209.9010  155.2590 C   0  0  1  0  0  3  0  0  0  0  0  0
  159.6840  212.0510  157.0900 C   0  0  0  0  0  2  0  0  0  0  0  0
  161.5170  210.8710  155.8500 C   0  0  1  0  0  3  0  0  0  0  0  0
  161.0500  211.3820  157.2110 C   0  0  0  0  0  2  0  0  0  0  0  0
  158.6650  211.0600  156.5390 C   0  0  0  0  0  2  0  0  0  0  0  0
  162.7960  210.2000  156.0080 N   0  0  0  0  0  1  0  0  0  0  0  0
  159.1090  210.5630  155.1670 C   0  0  0  0  0  2  0  0  0  0  0  0
  161.3530  205.6320  151.9250 C   0  0  0  0  0  2  0  0  0  0  0  0
  160.7190  204.8050  150.8170 C   0  0  0  0  0  2  0  0  0  0  0  0
  161.3280  203.4130  150.7730 C   0  0  0  0  0  2  0  0  0  0  0  0
  161.2640  202.8010  148.3240 N   0  0  0  0  0  2  0  0  0  0  0  0
  160.7540  202.6220  149.6470 C   0  0  0  0  0  0  0  0  0  0  0  0
  159.8060  201.8220  149.8680 O   0  0  0  0  0  0  0  0  0  0  0  0
  161.1630  202.7830  145.9030 C   0  0  0  0  0  1  0  0  0  0  0  0
  161.2620  200.6610  147.1640 C   0  0  0  0  0  1  0  0  0  0  0  0
  160.7330  202.0820  147.1740 C   0  0  0  0  0  3  0  0  0  0  0  0
  2  1  1  0  0  0  0
  2  7  1  0  0  0  0
  3  4  1  0  0  0  0
  4  9  1  0  0  0  0
  4  8  2  0  0  0  0
  5  6  1  1  0  0  0
  5 17  1  0  0  0  0
  5  9  1  0  0  0  0
  8  1  1  0  0  0  0
  9  2  2  0  0  0  0
 10  1  1  6  0  0  0
 10 12  1  0  0  0  0
 11 13  1  0  0  0  0
 12 15  1  1  0  0  0
 12 13  1  0  0  0  0
 14 11  1  0  0  0  0
 16 10  1  0  0  0  0
 16 14  1  0  0  0  0
 18 17  1  0  0  0  0
 19 18  1  0  0  0  0
 20 21  1  0  0  0  0
 21 22  2  0  0  0  0
 21 19  1  0  0  0  0
 23 25  1  0  0  0  0
 24 25  1  0  0  0  0
 25 20  1  0  0  0  0
M  END
>  <MODEL>
9

>  <REMARK>
 VINA RESULT:      -6.8      1.237      1.502
  Name = 
  6 active torsions:
  status: ('A' for Active; 'I' for Inactive)
    1  A    between atoms: N_1  and  C_5
    2  A    between atoms: N_2  and  C_21
    3  A    between atoms: C_6  and  C_15
    4  A    between atoms: C_6  and  C_23
    5  A    between atoms: C_13  and  C_20
    6  A    between atoms: C_20  and  C_23
                            x       y       z     vdW  Elec       q    Type
                         _______ _______ _______ _____ _____    ______ ____

>  <TORSDO>
F 6

$$$$
