=
 OpenBabel11052422313D

 31 34  0  0  1  0  0  0  0  0999 V2000
  162.3290  210.2980  149.3070 C   0  0  0  0  0  0  0  0  0  0  0  0
  161.6860  208.6870  152.8540 C   0  0  2  0  0  3  0  0  0  0  0  0
  160.5780  209.3720  153.7640 C   0  0  0  0  0  0  0  0  0  0  0  0
  159.8570  211.0310  152.1650 O   0  0  0  0  0  1  0  0  0  0  0  0
  161.8060  208.8910  151.2740 C   0  0  0  0  0  0  0  0  0  0  0  0
  161.9910  209.2170  148.4820 C   0  0  0  0  0  3  0  0  0  0  0  0
  159.7360  210.4980  153.4380 C   0  0  0  0  0  0  0  0  0  0  0  0
  160.9140  206.4030  152.1950 C   0  0  2  0  0  3  0  0  0  0  0  0
  162.7460  211.6680  148.2870 Cl  0  0  0  0  0  0  0  0  0  0  0  0
  161.2580  207.9090  155.5370 C   0  0  0  0  0  2  0  0  0  0  0  0
  158.8350  211.0390  154.3350 C   0  0  0  0  0  3  0  0  0  0  0  0
  160.8670  206.6570  150.7500 C   0  0  0  0  0  2  0  0  0  0  0  0
  161.8080  207.1530  153.1540 C   0  0  2  0  0  3  0  0  0  0  0  0
  162.2600  210.1620  150.7240 C   0  0  0  0  0  3  0  0  0  0  0  0
  158.7300  210.5390  155.6430 C   0  0  0  0  0  3  0  0  0  0  0  0
  161.3740  207.9310  150.3850 C   0  0  0  0  0  0  0  0  0  0  0  0
  161.5030  208.0730  148.9410 C   0  0  0  0  0  3  0  0  0  0  0  0
  161.2960  206.7600  154.5590 C   0  0  0  0  0  2  0  0  0  0  0  0
  160.4360  208.9700  155.0460 C   0  0  0  0  0  0  0  0  0  0  0  0
  159.5540  209.5310  156.0260 C   0  0  0  0  0  3  0  0  0  0  0  0
  162.3200  202.4810  151.4600 C   0  0  0  0  0  1  0  0  0  0  0  0
  159.6420  204.6500  150.4080 O   0  0  0  0  0  0  0  0  0  0  0  0
  160.5620  204.1990  151.1340 C   0  0  0  0  0  0  0  0  0  0  0  0
  160.9390  202.8800  151.0680 N   0  0  0  0  0  0  0  0  0  0  0  0
  161.0690  205.0160  152.1980 N   0  0  0  0  0  2  0  0  0  0  0  0
  160.4870  202.0670  150.0010 C   0  0  0  0  0  2  0  0  0  0  0  0
  161.4530  202.2710  148.7860 C   0  0  0  0  0  2  0  0  0  0  0  0
  161.6590  203.7680  146.7090 C   0  0  0  0  0  0  0  0  0  0  0  0
  162.1570  205.0840  146.9750 C   0  0  0  0  0  1  0  0  0  0  0  0
  161.5840  203.2150  145.5450 O   0  0  0  0  0  0  0  0  0  0  0  0
  160.8530  203.0900  147.7880 N   0  0  0  0  0  2  0  0  0  0  0  0
  1 14  1  0  0  0  0
  2  5  1  6  0  0  0
  2 13  1  0  0  0  0
  2  3  1  0  0  0  0
  3 19  1  0  0  0  0
  4  7  1  0  0  0  0
  6 17  1  0  0  0  0
  6  1  2  0  0  0  0
  7  3  2  0  0  0  0
  7 11  1  0  0  0  0
  8 25  1  6  0  0  0
  8 13  1  0  0  0  0
  9  1  1  0  0  0  0
 11 15  2  0  0  0  0
 12  8  1  0  0  0  0
 13 18  1  1  0  0  0
 14  5  2  0  0  0  0
 15 20  1  0  0  0  0
 16 12  1  0  0  0  0
 16  5  1  0  0  0  0
 17 16  2  0  0  0  0
 18 10  1  0  0  0  0
 19 10  1  0  0  0  0
 19 20  2  0  0  0  0
 22 23  2  0  0  0  0
 23 25  1  0  0  0  0
 24 23  1  0  0  0  0
 24 21  1  0  0  0  0
 26 24  1  0  0  0  0
 27 26  1  0  0  0  0
 28 29  1  0  0  0  0
 28 31  1  0  0  0  0
 30 28  2  0  0  0  0
 31 27  1  0  0  0  0
M  END
>  <MODEL>
1

>  <REMARK>
 VINA RESULT:      -7.4      0.000      0.000
  Name = 
  4 active torsions:
  status: ('A' for Active; 'I' for Inactive)
    1  A    between atoms: C_6  and  C_19
    2  A    between atoms: C_6  and  N_22
    3  A    between atoms: C_15  and  N_23
    4  A    between atoms: C_19  and  N_24
                            x       y       z     vdW  Elec       q    Type
                         _______ _______ _______ _____ _____    ______ ____

>  <TORSDO>
F 4

$$$$
=
 OpenBabel11052422313D

 31 34  0  0  1  0  0  0  0  0999 V2000
  162.4630  210.1550  149.1830 C   0  0  0  0  0  0  0  0  0  0  0  0
  161.8450  207.6340  152.1590 C   0  0  2  0  0  3  0  0  0  0  0  0
  161.0190  208.1780  153.4020 C   0  0  0  0  0  0  0  0  0  0  0  0
  160.5270  210.3640  152.5040 O   0  0  0  0  0  1  0  0  0  0  0  0
  161.8440  208.3080  150.7110 C   0  0  0  0  0  0  0  0  0  0  0  0
  161.8070  209.4760  148.1480 C   0  0  0  0  0  3  0  0  0  0  0  0
  160.4210  209.4810  153.5670 C   0  0  0  0  0  0  0  0  0  0  0  0
  160.5160  205.8610  151.0000 C   0  0  2  0  0  3  0  0  0  0  0  0
  163.0680  211.6800  148.5540 Cl  0  0  0  0  0  0  0  0  0  0  0  0
  161.5340  206.1250  154.5290 C   0  0  0  0  0  2  0  0  0  0  0  0
  159.7620  209.8590  154.7210 C   0  0  0  0  0  3  0  0  0  0  0  0
  160.3790  206.5710  149.7220 C   0  0  0  0  0  2  0  0  0  0  0  0
  161.6510  206.0890  151.9720 C   0  0  2  0  0  3  0  0  0  0  0  0
  162.5120  209.5850  150.4900 C   0  0  0  0  0  3  0  0  0  0  0  0
  159.6840  208.9930  155.8230 C   0  0  0  0  0  3  0  0  0  0  0  0
  161.1190  207.7800  149.6660 C   0  0  0  0  0  0  0  0  0  0  0  0
  161.1260  208.3530  148.3260 C   0  0  0  0  0  3  0  0  0  0  0  0
  161.2120  205.3650  153.2660 C   0  0  0  0  0  2  0  0  0  0  0  0
  160.9240  207.4180  154.5160 C   0  0  0  0  0  0  0  0  0  0  0  0
  160.2960  207.7840  155.7500 C   0  0  0  0  0  3  0  0  0  0  0  0
  161.1070  201.7360  150.2740 C   0  0  0  0  0  1  0  0  0  0  0  0
  161.3930  204.8720  148.5230 O   0  0  0  0  0  0  0  0  0  0  0  0
  161.0080  204.0510  149.3920 C   0  0  0  0  0  0  0  0  0  0  0  0
  161.0040  202.7000  149.1420 N   0  0  0  0  0  0  0  0  0  0  0  0
  160.3570  204.5430  150.5700 N   0  0  0  0  0  2  0  0  0  0  0  0
  161.6800  202.1880  148.0090 C   0  0  0  0  0  2  0  0  0  0  0  0
  160.6460  202.0550  146.8410 C   0  0  0  0  0  2  0  0  0  0  0  0
  161.5620  203.9090  145.3160 C   0  0  0  0  0  0  0  0  0  0  0  0
  160.5550  204.7310  144.7150 C   0  0  0  0  0  1  0  0  0  0  0  0
  162.8200  204.1890  145.3810 O   0  0  0  0  0  0  0  0  0  0  0  0
  161.2160  202.4700  145.6040 N   0  0  0  0  0  2  0  0  0  0  0  0
  1 14  1  0  0  0  0
  2  5  1  6  0  0  0
  2  3  1  0  0  0  0
  3  7  2  0  0  0  0
  3 19  1  0  0  0  0
  4  7  1  0  0  0  0
  6 17  1  0  0  0  0
  6  1  2  0  0  0  0
  7 11  1  0  0  0  0
  8 25  1  6  0  0  0
  8 13  1  0  0  0  0
  9  1  1  0  0  0  0
 11 15  2  0  0  0  0
 12  8  1  0  0  0  0
 13  2  1  0  0  0  0
 13 18  1  1  0  0  0
 14  5  2  0  0  0  0
 16 12  1  0  0  0  0
 16  5  1  0  0  0  0
 17 16  2  0  0  0  0
 18 10  1  0  0  0  0
 19 10  1  0  0  0  0
 19 20  2  0  0  0  0
 20 15  1  0  0  0  0
 22 23  2  0  0  0  0
 23 25  1  0  0  0  0
 24 23  1  0  0  0  0
 24 21  1  0  0  0  0
 26 24  1  0  0  0  0
 27 26  1  0  0  0  0
 28 30  2  0  0  0  0
 28 31  1  0  0  0  0
 29 28  1  0  0  0  0
 31 27  1  0  0  0  0
M  END
>  <MODEL>
2

>  <REMARK>
 VINA RESULT:      -6.9      1.284      1.632
  Name = 
  4 active torsions:
  status: ('A' for Active; 'I' for Inactive)
    1  A    between atoms: C_6  and  C_19
    2  A    between atoms: C_6  and  N_22
    3  A    between atoms: C_15  and  N_23
    4  A    between atoms: C_19  and  N_24
                            x       y       z     vdW  Elec       q    Type
                         _______ _______ _______ _____ _____    ______ ____

>  <TORSDO>
F 4

$$$$
=
 OpenBabel11052422313D

 31 34  0  0  1  0  0  0  0  0999 V2000
  160.9300  205.2500  150.2130 C   0  0  0  0  0  0  0  0  0  0  0  0
  160.4250  208.6050  152.2320 C   0  0  2  0  0  3  0  0  0  0  0  0
  160.8380  208.5900  153.7660 C   0  0  0  0  0  0  0  0  0  0  0  0
  161.7070  206.3390  153.8220 O   0  0  0  0  0  1  0  0  0  0  0  0
  160.9260  207.5390  151.1530 C   0  0  0  0  0  0  0  0  0  0  0  0
  161.8450  205.6820  149.2450 C   0  0  0  0  0  3  0  0  0  0  0  0
  161.4200  207.5030  154.5160 C   0  0  0  0  0  0  0  0  0  0  0  0
  161.9580  210.1360  150.9830 C   0  0  2  0  0  3  0  0  0  0  0  0
  160.6410  203.5320  149.9780 Cl  0  0  0  0  0  0  0  0  0  0  0  0
  159.8790  210.7800  153.9530 C   0  0  0  0  0  2  0  0  0  0  0  0
  161.6930  207.5920  155.8670 C   0  0  0  0  0  3  0  0  0  0  0  0
  162.5360  209.1080  150.1080 C   0  0  0  0  0  2  0  0  0  0  0  0
  160.5860  210.0350  151.6080 C   0  0  2  0  0  3  0  0  0  0  0  0
  160.4340  206.1670  151.1850 C   0  0  0  0  0  3  0  0  0  0  0  0
  161.3680  208.7480  156.5950 C   0  0  0  0  0  3  0  0  0  0  0  0
  161.9190  207.8380  150.2460 C   0  0  0  0  0  0  0  0  0  0  0  0
  162.3720  206.8990  149.2280 C   0  0  0  0  0  3  0  0  0  0  0  0
  160.5480  211.1700  152.6570 C   0  0  0  0  0  2  0  0  0  0  0  0
  160.5290  209.6520  154.5430 C   0  0  0  0  0  0  0  0  0  0  0  0
  160.7470  209.7710  155.9540 C   0  0  0  0  0  3  0  0  0  0  0  0
  161.4600  213.8160  148.9570 C   0  0  0  0  0  1  0  0  0  0  0  0
  161.5120  210.2910  148.2150 O   0  0  0  0  0  0  0  0  0  0  0  0
  161.7320  211.3540  148.8450 C   0  0  0  0  0  0  0  0  0  0  0  0
  161.7650  212.5670  148.2020 N   0  0  0  0  0  0  0  0  0  0  0  0
  162.1760  211.2750  150.2060 N   0  0  0  0  0  2  0  0  0  0  0  0
  161.2900  212.6780  146.8740 C   0  0  0  0  0  2  0  0  0  0  0  0
  162.1180  213.7910  146.1480 C   0  0  0  0  0  2  0  0  0  0  0  0
  163.0620  213.4770  143.7790 C   0  0  0  0  0  0  0  0  0  0  0  0
  162.3050  212.5820  142.9560 C   0  0  0  0  0  1  0  0  0  0  0  0
  163.9550  214.3090  143.3610 O   0  0  0  0  0  0  0  0  0  0  0  0
  163.0780  213.2210  145.2650 N   0  0  0  0  0  2  0  0  0  0  0  0
  1 14  1  0  0  0  0
  2  5  1  6  0  0  0
  2  3  1  0  0  0  0
  3  7  2  0  0  0  0
  3 19  1  0  0  0  0
  4  7  1  0  0  0  0
  5 14  2  0  0  0  0
  6  1  2  0  0  0  0
  7 11  1  0  0  0  0
  8 25  1  6  0  0  0
  8 13  1  0  0  0  0
  9  1  1  0  0  0  0
 10 19  1  0  0  0  0
 11 15  2  0  0  0  0
 12 16  1  0  0  0  0
 12  8  1  0  0  0  0
 13  2  1  0  0  0  0
 13 18  1  1  0  0  0
 16  5  1  0  0  0  0
 17  6  1  0  0  0  0
 17 16  2  0  0  0  0
 18 10  1  0  0  0  0
 19 20  2  0  0  0  0
 20 15  1  0  0  0  0
 22 23  2  0  0  0  0
 23 25  1  0  0  0  0
 24 23  1  0  0  0  0
 24 21  1  0  0  0  0
 26 24  1  0  0  0  0
 27 26  1  0  0  0  0
 28 31  1  0  0  0  0
 29 28  1  0  0  0  0
 30 28  2  0  0  0  0
 31 27  1  0  0  0  0
M  END
>  <MODEL>
3

>  <REMARK>
 VINA RESULT:      -6.2      4.420      6.627
  Name = 
  4 active torsions:
  status: ('A' for Active; 'I' for Inactive)
    1  A    between atoms: C_6  and  C_19
    2  A    between atoms: C_6  and  N_22
    3  A    between atoms: C_15  and  N_23
    4  A    between atoms: C_19  and  N_24
                            x       y       z     vdW  Elec       q    Type
                         _______ _______ _______ _____ _____    ______ ____

>  <TORSDO>
F 4

$$$$
=
 OpenBabel11052422313D

 31 34  0  0  1  0  0  0  0  0999 V2000
  160.9540  205.1570  150.2440 C   0  0  0  0  0  0  0  0  0  0  0  0
  160.4430  208.5290  152.2330 C   0  0  2  0  0  3  0  0  0  0  0  0
  160.8330  208.5210  153.7730 C   0  0  0  0  0  0  0  0  0  0  0  0
  161.6870  206.2650  153.8570 O   0  0  0  0  0  1  0  0  0  0  0  0
  160.9530  207.4520  151.1680 C   0  0  0  0  0  0  0  0  0  0  0  0
  161.8860  205.5770  149.2860 C   0  0  0  0  0  3  0  0  0  0  0  0
  161.3970  207.4360  154.5390 C   0  0  0  0  0  0  0  0  0  0  0  0
  162.0040  210.0410  150.9970 C   0  0  2  0  0  3  0  0  0  0  0  0
  160.6560  203.4390  150.0160 Cl  0  0  0  0  0  0  0  0  0  0  0  0
  159.8870  210.7190  153.9320 C   0  0  0  0  0  2  0  0  0  0  0  0
  161.6520  207.5320  155.8930 C   0  0  0  0  0  3  0  0  0  0  0  0
  162.5870  209.0040  150.1360 C   0  0  0  0  0  2  0  0  0  0  0  0
  160.6230  209.9540  151.6020 C   0  0  2  0  0  3  0  0  0  0  0  0
  160.4510  206.0840  151.2030 C   0  0  0  0  0  3  0  0  0  0  0  0
  161.3240  208.6950  156.6080 C   0  0  0  0  0  3  0  0  0  0  0  0
  161.9600  207.7380  150.2740 C   0  0  0  0  0  0  0  0  0  0  0  0
  162.4210  206.7890  149.2690 C   0  0  0  0  0  3  0  0  0  0  0  0
  160.5770  211.0960  152.6430 C   0  0  0  0  0  2  0  0  0  0  0  0
  160.5210  209.5900  154.5390 C   0  0  0  0  0  0  0  0  0  0  0  0
  160.7200  209.7170  155.9520 C   0  0  0  0  0  3  0  0  0  0  0  0
  161.5670  213.7200  148.9550 C   0  0  0  0  0  1  0  0  0  0  0  0
  161.5640  210.1920  148.2280 O   0  0  0  0  0  0  0  0  0  0  0  0
  161.8010  211.2540  148.8530 C   0  0  0  0  0  0  0  0  0  0  0  0
  161.8540  212.4640  148.2060 N   0  0  0  0  0  0  0  0  0  0  0  0
  162.2410  211.1730  150.2150 N   0  0  0  0  0  2  0  0  0  0  0  0
  161.3820  212.5770  146.8760 C   0  0  0  0  0  2  0  0  0  0  0  0
  160.0650  213.4240  146.8940 C   0  0  0  0  0  2  0  0  0  0  0  0
  157.5300  213.0930  147.1440 C   0  0  0  0  0  0  0  0  0  0  0  0
  157.0740  213.0190  148.5000 C   0  0  0  0  0  1  0  0  0  0  0  0
  156.7820  213.2850  146.1110 O   0  0  0  0  0  0  0  0  0  0  0  0
  158.9160  212.5840  146.8410 N   0  0  0  0  0  2  0  0  0  0  0  0
  1 14  1  0  0  0  0
  2  5  1  6  0  0  0
  2  3  1  0  0  0  0
  3 19  2  0  0  0  0
  3  7  1  0  0  0  0
  4  7  1  0  0  0  0
  5 14  2  0  0  0  0
  6  1  2  0  0  0  0
  7 11  2  0  0  0  0
  8 25  1  6  0  0  0
  8 13  1  0  0  0  0
  9  1  1  0  0  0  0
 10 19  1  0  0  0  0
 11 15  1  0  0  0  0
 12 16  1  0  0  0  0
 12  8  1  0  0  0  0
 13  2  1  0  0  0  0
 13 18  1  1  0  0  0
 16  5  1  0  0  0  0
 17  6  1  0  0  0  0
 17 16  2  0  0  0  0
 18 10  1  0  0  0  0
 19 20  1  0  0  0  0
 20 15  2  0  0  0  0
 22 23  2  0  0  0  0
 23 25  1  0  0  0  0
 24 23  1  0  0  0  0
 24 21  1  0  0  0  0
 26 27  1  0  0  0  0
 26 24  1  0  0  0  0
 28 29  1  0  0  0  0
 30 28  2  0  0  0  0
 31 27  1  0  0  0  0
 31 28  1  0  0  0  0
M  END
>  <MODEL>
4

>  <REMARK>
 VINA RESULT:      -6.1      4.066      6.563
  Name = 
  4 active torsions:
  status: ('A' for Active; 'I' for Inactive)
    1  A    between atoms: C_6  and  C_19
    2  A    between atoms: C_6  and  N_22
    3  A    between atoms: C_15  and  N_23
    4  A    between atoms: C_19  and  N_24
                            x       y       z     vdW  Elec       q    Type
                         _______ _______ _______ _____ _____    ______ ____

>  <TORSDO>
F 4

$$$$
=
 OpenBabel11052422313D

 31 34  0  0  1  0  0  0  0  0999 V2000
  161.2910  206.8200  152.4300 C   0  0  0  0  0  0  0  0  0  0  0  0
  159.9040  210.4140  153.2920 C   0  0  2  0  0  3  0  0  0  0  0  0
  160.4090  211.0740  154.6470 C   0  0  0  0  0  0  0  0  0  0  0  0
  161.9440  209.3220  155.2810 O   0  0  0  0  0  1  0  0  0  0  0  0
  160.6360  209.2030  152.5510 C   0  0  0  0  0  0  0  0  0  0  0  0
  161.9520  207.0950  151.2250 C   0  0  0  0  0  3  0  0  0  0  0  0
  161.3560  210.5370  155.5940 C   0  0  0  0  0  0  0  0  0  0  0  0
  160.7840  211.7300  151.3570 C   0  0  2  0  0  3  0  0  0  0  0  0
  161.5410  205.1260  152.8270 Cl  0  0  0  0  0  0  0  0  0  0  0  0
  158.8270  212.8370  154.2730 C   0  0  0  0  0  2  0  0  0  0  0  0
  161.6840  211.1850  156.7690 C   0  0  0  0  0  3  0  0  0  0  0  0
  161.5910  210.6490  150.7790 C   0  0  0  0  0  2  0  0  0  0  0  0
  159.5610  211.5020  152.2160 C   0  0  2  0  0  3  0  0  0  0  0  0
  160.6030  207.8610  153.1200 C   0  0  0  0  0  3  0  0  0  0  0  0
  161.0650  212.3940  157.1230 C   0  0  0  0  0  3  0  0  0  0  0  0
  161.4160  209.4020  151.4340 C   0  0  0  0  0  0  0  0  0  0  0  0
  162.0670  208.3140  150.7170 C   0  0  0  0  0  3  0  0  0  0  0  0
  159.2440  212.8880  152.8240 C   0  0  0  0  0  2  0  0  0  0  0  0
  159.8390  212.2220  155.0740 C   0  0  0  0  0  0  0  0  0  0  0  0
  160.1100  212.9040  156.3050 C   0  0  0  0  0  3  0  0  0  0  0  0
  159.5920  213.1000  147.5370 C   0  0  0  0  0  1  0  0  0  0  0  0
  162.5630  211.9160  149.1940 O   0  0  0  0  0  0  0  0  0  0  0  0
  161.4160  212.4090  149.0670 C   0  0  0  0  0  0  0  0  0  0  0  0
  161.0340  213.0330  147.9050 N   0  0  0  0  0  0  0  0  0  0  0  0
  160.5760  212.5180  150.2240 N   0  0  0  0  0  2  0  0  0  0  0  0
  161.8240  212.9010  146.7370 C   0  0  0  0  0  2  0  0  0  0  0  0
  162.0350  214.3270  146.1250 C   0  0  0  0  0  2  0  0  0  0  0  0
  162.8840  213.6490  143.7970 C   0  0  0  0  0  0  0  0  0  0  0  0
  163.9620  214.4530  143.3030 C   0  0  0  0  0  1  0  0  0  0  0  0
  162.5230  212.5040  143.3230 O   0  0  0  0  0  0  0  0  0  0  0  0
  161.8790  214.3040  144.7100 N   0  0  0  0  0  2  0  0  0  0  0  0
  1  9  1  0  0  0  0
  1 14  1  0  0  0  0
  2  5  1  6  0  0  0
  2  3  1  0  0  0  0
  3 19  2  0  0  0  0
  3  7  1  0  0  0  0
  4  7  1  0  0  0  0
  5 14  2  0  0  0  0
  6  1  2  0  0  0  0
  7 11  2  0  0  0  0
  8 25  1  6  0  0  0
  8 13  1  0  0  0  0
 10 19  1  0  0  0  0
 11 15  1  0  0  0  0
 12  8  1  0  0  0  0
 12 16  1  0  0  0  0
 13 18  1  1  0  0  0
 13  2  1  0  0  0  0
 16  5  1  0  0  0  0
 17  6  1  0  0  0  0
 17 16  2  0  0  0  0
 18 10  1  0  0  0  0
 19 20  1  0  0  0  0
 20 15  2  0  0  0  0
 21 24  1  0  0  0  0
 23 22  2  0  0  0  0
 23 25  1  0  0  0  0
 24 23  1  0  0  0  0
 26 24  1  0  0  0  0
 27 26  1  0  0  0  0
 28 31  1  0  0  0  0
 29 28  1  0  0  0  0
 30 28  2  0  0  0  0
 31 27  1  0  0  0  0
M  END
>  <MODEL>
5

>  <REMARK>
 VINA RESULT:      -5.9      4.708      7.003
  Name = 
  4 active torsions:
  status: ('A' for Active; 'I' for Inactive)
    1  A    between atoms: C_6  and  C_19
    2  A    between atoms: C_6  and  N_22
    3  A    between atoms: C_15  and  N_23
    4  A    between atoms: C_19  and  N_24
                            x       y       z     vdW  Elec       q    Type
                         _______ _______ _______ _____ _____    ______ ____

>  <TORSDO>
F 4

$$$$
=
 OpenBabel11052422313D

 31 34  0  0  1  0  0  0  0  0999 V2000
  161.2060  205.0480  148.3360 C   0  0  0  0  0  0  0  0  0  0  0  0
  160.6720  208.0450  150.8510 C   0  0  2  0  0  3  0  0  0  0  0  0
  161.0730  207.7910  152.3670 C   0  0  0  0  0  0  0  0  0  0  0  0
  161.9520  205.5620  152.0780 O   0  0  0  0  0  1  0  0  0  0  0  0
  161.1860  207.1620  149.6230 C   0  0  0  0  0  0  0  0  0  0  0  0
  162.1260  205.6290  147.4550 C   0  0  0  0  0  3  0  0  0  0  0  0
  161.6540  206.6030  152.9430 C   0  0  0  0  0  0  0  0  0  0  0  0
  162.2070  209.7570  149.8690 C   0  0  2  0  0  3  0  0  0  0  0  0
  160.9260  203.3870  147.8340 Cl  0  0  0  0  0  0  0  0  0  0  0  0
  160.1040  209.9220  152.8860 C   0  0  0  0  0  2  0  0  0  0  0  0
  161.9180  206.4800  154.2930 C   0  0  0  0  0  3  0  0  0  0  0  0
  162.7960  208.8800  148.8480 C   0  0  0  0  0  2  0  0  0  0  0  0
  160.8310  209.5560  150.4590 C   0  0  2  0  0  3  0  0  0  0  0  0
  160.6990  205.8000  149.4360 C   0  0  0  0  0  3  0  0  0  0  0  0
  161.5820  207.5070  155.1900 C   0  0  0  0  0  3  0  0  0  0  0  0
  162.1840  207.6020  148.7810 C   0  0  0  0  0  0  0  0  0  0  0  0
  162.6480  206.8350  147.6330 C   0  0  0  0  0  3  0  0  0  0  0  0
  160.7800  210.5120  151.6730 C   0  0  0  0  0  2  0  0  0  0  0  0
  160.7540  208.7180  153.2980 C   0  0  0  0  0  0  0  0  0  0  0  0
  160.9620  208.6150  154.7120 C   0  0  0  0  0  3  0  0  0  0  0  0
  161.9560  213.8530  148.8420 C   0  0  0  0  0  1  0  0  0  0  0  0
  160.9670  210.6530  147.5150 O   0  0  0  0  0  0  0  0  0  0  0  0
  161.6100  211.4820  148.2040 C   0  0  0  0  0  0  0  0  0  0  0  0
  161.7170  212.7960  147.8180 N   0  0  0  0  0  0  0  0  0  0  0  0
  162.4260  211.0040  149.2810 N   0  0  0  0  0  2  0  0  0  0  0  0
  160.8890  213.3020  146.7870 C   0  0  0  0  0  2  0  0  0  0  0  0
  161.7390  214.2860  145.9150 C   0  0  0  0  0  2  0  0  0  0  0  0
  162.9750  213.6140  143.7660 C   0  0  0  0  0  0  0  0  0  0  0  0
  162.3310  212.5780  143.0130 C   0  0  0  0  0  1  0  0  0  0  0  0
  163.9110  214.3870  143.3300 O   0  0  0  0  0  0  0  0  0  0  0  0
  162.8040  213.6020  145.2640 N   0  0  0  0  0  2  0  0  0  0  0  0
  1 14  1  0  0  0  0
  2  5  1  6  0  0  0
  2  3  1  0  0  0  0
  3  7  2  0  0  0  0
  3 19  1  0  0  0  0
  4  7  1  0  0  0  0
  6 17  1  0  0  0  0
  6  1  2  0  0  0  0
  7 11  1  0  0  0  0
  8 25  1  6  0  0  0
  8 13  1  0  0  0  0
  9  1  1  0  0  0  0
 10 19  1  0  0  0  0
 11 15  2  0  0  0  0
 12  8  1  0  0  0  0
 13  2  1  0  0  0  0
 13 18  1  1  0  0  0
 14  5  2  0  0  0  0
 16 12  1  0  0  0  0
 16  5  1  0  0  0  0
 17 16  2  0  0  0  0
 18 10  1  0  0  0  0
 19 20  2  0  0  0  0
 20 15  1  0  0  0  0
 22 23  2  0  0  0  0
 23 25  1  0  0  0  0
 24 23  1  0  0  0  0
 24 21  1  0  0  0  0
 26 24  1  0  0  0  0
 27 26  1  0  0  0  0
 28 31  1  0  0  0  0
 29 28  1  0  0  0  0
 30 28  2  0  0  0  0
 31 27  1  0  0  0  0
M  END
>  <MODEL>
6

>  <REMARK>
 VINA RESULT:      -5.5      4.491      6.903
  Name = 
  4 active torsions:
  status: ('A' for Active; 'I' for Inactive)
    1  A    between atoms: C_6  and  C_19
    2  A    between atoms: C_6  and  N_22
    3  A    between atoms: C_15  and  N_23
    4  A    between atoms: C_19  and  N_24
                            x       y       z     vdW  Elec       q    Type
                         _______ _______ _______ _____ _____    ______ ____

>  <TORSDO>
F 4

$$$$
=
 OpenBabel11052422313D

 31 34  0  0  1  0  0  0  0  0999 V2000
  160.4890  204.5640  145.1910 C   0  0  0  0  0  0  0  0  0  0  0  0
  160.5440  205.1160  149.1010 C   0  0  2  0  0  3  0  0  0  0  0  0
  160.9500  203.8680  149.9970 C   0  0  0  0  0  0  0  0  0  0  0  0
  161.4390  202.3440  148.1900 O   0  0  0  0  0  1  0  0  0  0  0  0
  160.8620  205.2470  147.5400 C   0  0  0  0  0  0  0  0  0  0  0  0
  161.4620  205.4930  144.8000 C   0  0  0  0  0  3  0  0  0  0  0  0
  161.3470  202.5530  149.5570 C   0  0  0  0  0  0  0  0  0  0  0  0
  162.3050  206.8790  149.2980 C   0  0  2  0  0  3  0  0  0  0  0  0
  159.9220  203.7140  143.7610 Cl  0  0  0  0  0  0  0  0  0  0  0  0
  160.3630  205.1750  151.9210 C   0  0  0  0  0  2  0  0  0  0  0  0
  161.6330  201.5270  150.4360 C   0  0  0  0  0  3  0  0  0  0  0  0
  162.7060  206.8670  147.8850 C   0  0  0  0  0  2  0  0  0  0  0  0
  160.9360  206.4700  149.7880 C   0  0  2  0  0  3  0  0  0  0  0  0
  160.1520  204.4230  146.5690 C   0  0  0  0  0  3  0  0  0  0  0  0
  161.5020  201.7080  151.8220 C   0  0  0  0  0  3  0  0  0  0  0  0
  161.8890  206.0370  147.0740 C   0  0  0  0  0  0  0  0  0  0  0  0
  162.1810  206.2040  145.6570 C   0  0  0  0  0  3  0  0  0  0  0  0
  161.0850  206.3570  151.3230 C   0  0  0  0  0  2  0  0  0  0  0  0
  160.8200  203.9510  151.3400 C   0  0  0  0  0  0  0  0  0  0  0  0
  161.0570  202.9020  152.2870 C   0  0  0  0  0  3  0  0  0  0  0  0
  162.5720  210.6680  151.1600 C   0  0  0  0  0  1  0  0  0  0  0  0
  161.4030  209.2360  148.0670 O   0  0  0  0  0  0  0  0  0  0  0  0
  162.0540  209.3320  149.1370 C   0  0  0  0  0  0  0  0  0  0  0  0
  162.3310  210.5570  149.6940 N   0  0  0  0  0  0  0  0  0  0  0  0
  162.7060  208.1670  149.6580 N   0  0  0  0  0  2  0  0  0  0  0  0
  161.6660  211.7150  149.2250 C   0  0  0  0  0  2  0  0  0  0  0  0
  162.6340  212.4790  148.2610 C   0  0  0  0  0  2  0  0  0  0  0  0
  161.6130  212.9540  145.9510 C   0  0  0  0  0  0  0  0  0  0  0  0
  162.5650  213.3280  144.9490 C   0  0  0  0  0  1  0  0  0  0  0  0
  160.3980  212.5790  145.7300 O   0  0  0  0  0  0  0  0  0  0  0  0
  161.9100  213.3330  147.3800 N   0  0  0  0  0  2  0  0  0  0  0  0
  1 14  1  0  0  0  0
  2  5  1  6  0  0  0
  2 13  1  0  0  0  0
  2  3  1  0  0  0  0
  3 19  1  0  0  0  0
  4  7  1  0  0  0  0
  6  1  2  0  0  0  0
  6 17  1  0  0  0  0
  7  3  2  0  0  0  0
  7 11  1  0  0  0  0
  8 25  1  6  0  0  0
  8 13  1  0  0  0  0
  9  1  1  0  0  0  0
 11 15  2  0  0  0  0
 12  8  1  0  0  0  0
 13 18  1  1  0  0  0
 14  5  2  0  0  0  0
 15 20  1  0  0  0  0
 16  5  1  0  0  0  0
 16 12  1  0  0  0  0
 17 16  2  0  0  0  0
 18 10  1  0  0  0  0
 19 10  1  0  0  0  0
 19 20  2  0  0  0  0
 22 23  2  0  0  0  0
 23 25  1  0  0  0  0
 23 24  1  0  0  0  0
 24 21  1  0  0  0  0
 26 24  1  0  0  0  0
 27 26  1  0  0  0  0
 28 31  1  0  0  0  0
 29 28  1  0  0  0  0
 30 28  2  0  0  0  0
 31 27  1  0  0  0  0
M  END
>  <MODEL>
7

>  <REMARK>
 VINA RESULT:      -5.0      3.688      7.355
  Name = 
  4 active torsions:
  status: ('A' for Active; 'I' for Inactive)
    1  A    between atoms: C_6  and  C_19
    2  A    between atoms: C_6  and  N_22
    3  A    between atoms: C_15  and  N_23
    4  A    between atoms: C_19  and  N_24
                            x       y       z     vdW  Elec       q    Type
                         _______ _______ _______ _____ _____    ______ ____

>  <TORSDO>
F 4

$$$$
=
 OpenBabel11052422313D

 31 34  0  0  1  0  0  0  0  0999 V2000
  161.6630  210.8400  148.2760 C   0  0  0  0  0  0  0  0  0  0  0  0
  160.8150  207.2030  149.5590 C   0  0  2  0  0  3  0  0  0  0  0  0
  161.3970  205.9890  148.7140 C   0  0  0  0  0  0  0  0  0  0  0  0
  162.6470  207.3020  147.1200 O   0  0  0  0  0  1  0  0  0  0  0  0
  161.3680  208.7000  149.4840 C   0  0  0  0  0  0  0  0  0  0  0  0
  162.3710  211.3290  149.3810 C   0  0  0  0  0  3  0  0  0  0  0  0
  162.2420  206.0470  147.5460 C   0  0  0  0  0  0  0  0  0  0  0  0
  161.9040  207.2360  151.8090 C   0  0  2  0  0  3  0  0  0  0  0  0
  161.6530  212.0770  147.0270 Cl  0  0  0  0  0  0  0  0  0  0  0  0
  160.0990  204.5220  150.0970 C   0  0  0  0  0  2  0  0  0  0  0  0
  162.6490  204.9180  146.8630 C   0  0  0  0  0  3  0  0  0  0  0  0
  162.5480  208.5470  151.6580 C   0  0  0  0  0  2  0  0  0  0  0  0
  160.6510  206.8240  151.0720 C   0  0  2  0  0  3  0  0  0  0  0  0
  161.1300  209.5180  148.3010 C   0  0  0  0  0  3  0  0  0  0  0  0
  162.2130  203.6420  147.2540 C   0  0  0  0  0  3  0  0  0  0  0  0
  162.1820  209.2220  150.4640 C   0  0  0  0  0  0  0  0  0  0  0  0
  162.6720  210.5930  150.4410 C   0  0  0  0  0  3  0  0  0  0  0  0
  160.5360  205.3010  151.3130 C   0  0  0  0  0  2  0  0  0  0  0  0
  161.0000  204.7310  149.0060 C   0  0  0  0  0  0  0  0  0  0  0  0
  161.3540  203.5360  148.3000 C   0  0  0  0  0  3  0  0  0  0  0  0
  160.7240  206.2690  155.7550 C   0  0  0  0  0  1  0  0  0  0  0  0
  160.4680  209.0160  153.4380 O   0  0  0  0  0  0  0  0  0  0  0  0
  160.9150  207.9630  153.9540 C   0  0  0  0  0  0  0  0  0  0  0  0
  160.7180  207.6830  155.2840 N   0  0  0  0  0  0  0  0  0  0  0  0
  161.8290  207.1550  153.2000 N   0  0  0  0  0  2  0  0  0  0  0  0
  159.7870  208.4380  156.0370 C   0  0  0  0  0  2  0  0  0  0  0  0
  160.5420  209.0820  157.2470 C   0  0  0  0  0  2  0  0  0  0  0  0
  162.4510  210.5420  156.3370 C   0  0  0  0  0  0  0  0  0  0  0  0
  163.5250  210.7520  157.2610 C   0  0  0  0  0  1  0  0  0  0  0  0
  162.4950  210.7700  155.0680 O   0  0  0  0  0  0  0  0  0  0  0  0
  161.0640  210.3610  156.9020 N   0  0  0  0  0  2  0  0  0  0  0  0
  1 14  2  0  0  0  0
  1  6  1  0  0  0  0
  2  3  1  1  0  0  0
  2 13  1  0  0  0  0
  3 19  1  0  0  0  0
  4  7  1  0  0  0  0
  5  2  1  0  0  0  0
  5 16  2  0  0  0  0
  6 17  2  0  0  0  0
  7  3  2  0  0  0  0
  8 25  1  1  0  0  0
  9  1  1  0  0  0  0
 10 18  1  0  0  0  0
 11 15  2  0  0  0  0
 11  7  1  0  0  0  0
 12  8  1  0  0  0  0
 13 18  1  6  0  0  0
 13  8  1  0  0  0  0
 14  5  1  0  0  0  0
 15 20  1  0  0  0  0
 16 12  1  0  0  0  0
 17 16  1  0  0  0  0
 19 10  1  0  0  0  0
 20 19  2  0  0  0  0
 22 23  2  0  0  0  0
 23 24  1  0  0  0  0
 24 21  1  0  0  0  0
 24 26  1  0  0  0  0
 25 23  1  0  0  0  0
 26 27  1  0  0  0  0
 28 31  1  0  0  0  0
 28 29  1  0  0  0  0
 30 28  2  0  0  0  0
 31 27  1  0  0  0  0
M  END
>  <MODEL>
8

>  <REMARK>
 VINA RESULT:      -4.8      2.530      7.067
  Name = 
  4 active torsions:
  status: ('A' for Active; 'I' for Inactive)
    1  A    between atoms: C_6  and  C_19
    2  A    between atoms: C_6  and  N_22
    3  A    between atoms: C_15  and  N_23
    4  A    between atoms: C_19  and  N_24
                            x       y       z     vdW  Elec       q    Type
                         _______ _______ _______ _____ _____    ______ ____

>  <TORSDO>
F 4

$$$$
=
 OpenBabel11052422313D

 31 34  0  0  1  0  0  0  0  0999 V2000
  160.7770  206.6890  146.5300 C   0  0  0  0  0  0  0  0  0  0  0  0
  160.3700  204.5780  149.8420 C   0  0  2  0  0  3  0  0  0  0  0  0
  160.8350  203.0590  149.7880 C   0  0  0  0  0  0  0  0  0  0  0  0
  161.6880  203.0850  147.5300 O   0  0  0  0  0  1  0  0  0  0  0  0
  160.8250  205.6970  148.7970 C   0  0  0  0  0  0  0  0  0  0  0  0
  161.6610  207.6780  146.9780 C   0  0  0  0  0  3  0  0  0  0  0  0
  161.4340  202.3550  148.6800 C   0  0  0  0  0  0  0  0  0  0  0  0
  161.8710  205.8440  151.3890 C   0  0  2  0  0  3  0  0  0  0  0  0
  160.4650  206.9520  144.8200 Cl  0  0  0  0  0  0  0  0  0  0  0  0
  159.9020  202.7890  151.9810 C   0  0  0  0  0  2  0  0  0  0  0  0
  161.7550  201.0130  148.7360 C   0  0  0  0  0  3  0  0  0  0  0  0
  162.4100  206.7620  150.3780 C   0  0  0  0  0  2  0  0  0  0  0  0
  160.5210  205.1740  151.2850 C   0  0  2  0  0  3  0  0  0  0  0  0
  160.3230  205.6790  147.4290 C   0  0  0  0  0  3  0  0  0  0  0  0
  161.4650  200.2480  149.8770 C   0  0  0  0  0  3  0  0  0  0  0  0
  161.7880  206.6310  149.1090 C   0  0  0  0  0  0  0  0  0  0  0  0
  162.1970  207.6850  148.1910 C   0  0  0  0  0  3  0  0  0  0  0  0
  160.5280  204.0980  152.3950 C   0  0  0  0  0  2  0  0  0  0  0  0
  160.5630  202.2480  150.8340 C   0  0  0  0  0  0  0  0  0  0  0  0
  160.8310  200.8430  150.9190 C   0  0  0  0  0  3  0  0  0  0  0  0
  161.5810  207.4170  155.3060 C   0  0  0  0  0  1  0  0  0  0  0  0
  160.5730  208.2690  151.9540 O   0  0  0  0  0  0  0  0  0  0  0  0
  161.2290  207.7150  152.8700 C   0  0  0  0  0  0  0  0  0  0  0  0
  161.3220  208.2790  154.1190 N   0  0  0  0  0  0  0  0  0  0  0  0
  162.0710  206.6020  152.5440 N   0  0  0  0  0  2  0  0  0  0  0  0
  160.4680  209.3500  154.4780 C   0  0  0  0  0  2  0  0  0  0  0  0
  161.2960  210.6780  154.4160 C   0  0  0  0  0  2  0  0  0  0  0  0
  159.3620  211.9430  153.2920 C   0  0  0  0  0  0  0  0  0  0  0  0
  159.7100  212.5740  152.0540 C   0  0  0  0  0  1  0  0  0  0  0  0
  158.1620  211.7280  153.7140 O   0  0  0  0  0  0  0  0  0  0  0  0
  160.4380  211.8120  154.3400 N   0  0  0  0  0  2  0  0  0  0  0  0
  1  6  2  0  0  0  0
  1 14  1  0  0  0  0
  2  5  1  6  0  0  0
  2 13  1  0  0  0  0
  3  2  1  0  0  0  0
  3 19  1  0  0  0  0
  4  7  1  0  0  0  0
  5 16  1  0  0  0  0
  6 17  1  0  0  0  0
  7 11  1  0  0  0  0
  7  3  2  0  0  0  0
  8 25  1  1  0  0  0
  9  1  1  0  0  0  0
 10 18  1  0  0  0  0
 11 15  2  0  0  0  0
 12  8  1  0  0  0  0
 13  8  1  0  0  0  0
 13 18  1  1  0  0  0
 14  5  2  0  0  0  0
 15 20  1  0  0  0  0
 16 12  1  0  0  0  0
 17 16  2  0  0  0  0
 19 20  2  0  0  0  0
 19 10  1  0  0  0  0
 22 23  2  0  0  0  0
 23 24  1  0  0  0  0
 24 26  1  0  0  0  0
 24 21  1  0  0  0  0
 25 23  1  0  0  0  0
 27 26  1  0  0  0  0
 28 30  2  0  0  0  0
 28 31  1  0  0  0  0
 29 28  1  0  0  0  0
 31 27  1  0  0  0  0
M  END
>  <MODEL>
9

>  <REMARK>
 VINA RESULT:      -4.5      2.466      7.340
  Name = 
  4 active torsions:
  status: ('A' for Active; 'I' for Inactive)
    1  A    between atoms: C_6  and  C_19
    2  A    between atoms: C_6  and  N_22
    3  A    between atoms: C_15  and  N_23
    4  A    between atoms: C_19  and  N_24
                            x       y       z     vdW  Elec       q    Type
                         _______ _______ _______ _____ _____    ______ ____

>  <TORSDO>
F 4

$$$$
