=
 OpenBabel11062408473D

 55 59  0  0  1  0  0  0  0  0999 V2000
  163.2230  212.5260  148.2600 C   0  0  0  0  0  2  0  0  0  0  0  0
  160.8420  212.9210  146.7680 C   0  0  0  0  0  0  0  0  0  0  0  0
  160.7370  211.8940  147.8650 C   0  0  0  0  0  2  0  0  0  0  0  0
  163.2740  212.5660  146.7410 C   0  0  0  0  0  2  0  0  0  0  0  0
  161.9950  211.7510  148.7550 C   0  0  2  0  0  3  0  0  0  0  0  0
  162.0330  213.2300  146.2410 C   0  0  0  0  0  3  0  0  0  0  0  0
  159.6630  213.5030  146.2930 O   0  0  0  0  0  0  0  0  0  0  0  0
  158.7480  212.8170  145.4460 C   0  0  0  0  0  2  0  0  0  0  0  0
  159.0780  213.1100  143.9990 C   0  0  0  0  0  2  0  0  0  0  0  0
  160.0210  212.0450  143.4680 C   0  0  0  0  0  2  0  0  0  0  0  0
  160.7320  212.5150  142.2040 C   0  0  1  0  0  3  0  0  0  0  0  0
  159.8240  212.4070  140.9790 C   0  0  0  0  0  2  0  0  0  0  0  0
  159.0730  211.4170  138.0830 C   0  0  0  0  0  0  0  0  0  0  0  0
  161.9770  210.7750  140.7310 F   0  0  0  0  0  0  0  0  0  0  0  0
  160.6170  212.4800  139.6740 C   0  0  1  0  0  3  0  0  0  0  0  0
  160.2770  208.1630  137.0110 N   0  0  0  0  0  2  0  0  0  0  0  0
  162.7880  211.8520  138.9450 F   0  0  0  0  0  0  0  0  0  0  0  0
  161.6400  211.3190  139.5000 C   0  0  0  0  0  0  0  0  0  0  0  0
  158.0740  211.5280  137.3240 O   0  0  0  0  0  0  0  0  0  0  0  0
  161.0750  207.6960  138.1410 C   0  0  0  0  0  2  0  0  0  0  0  0
  161.8450  208.8580  138.7760 C   0  0  0  0  0  2  0  0  0  0  0  0
  159.6070  210.0790  138.4870 C   0  0  2  0  0  3  0  0  0  0  0  0
  161.1360  210.2040  138.5570 C   0  0  1  0  0  3  0  0  0  0  0  0
  159.1570  208.9580  137.5280 C   0  0  0  0  0  2  0  0  0  0  0  0
  159.7020  212.5600  138.5790 O   0  0  0  0  0  0  0  0  0  0  0  0
  161.2930  213.9290  142.3820 C   0  0  0  0  0  2  0  0  0  0  0  0
  163.4150  213.9650  141.0630 O   0  0  0  0  0  0  0  0  0  0  0  0
  162.7870  213.9790  142.3020 C   0  0  0  0  0  0  0  0  0  0  0  0
  163.4780  214.0020  143.3530 O   0  0  0  0  0  1  0  0  0  0  0  0
  161.6930  212.1800  150.1810 C   0  0  0  0  0  2  0  0  0  0  0  0
  160.3980  211.5660  150.6780 C   0  0  0  0  0  2  0  0  0  0  0  0
  160.5990  211.0640  152.0920 C   0  0  0  0  0  2  0  0  0  0  0  0
  160.3030  209.5780  152.1620 C   0  0  0  0  0  2  0  0  0  0  0  0
  161.3620  208.8720  153.0240 C   0  0  1  0  0  3  0  0  0  0  0  0
  162.0850  210.1240  154.9270 C   0  0  0  0  0  2  0  0  0  0  0  0
  159.9180  210.5540  155.8770 C   0  0  1  0  0  3  0  0  0  0  0  0
  161.1720  209.0790  154.4660 N   0  0  0  0  0  0  0  0  0  0  0  0
  159.8120  209.5210  154.7780 C   0  0  0  0  0  2  0  0  0  0  0  0
  161.2830  211.1670  155.6810 C   0  0  0  0  0  2  0  0  0  0  0  0
  158.8220  211.5730  155.7720 C   0  0  0  0  0  0  0  0  0  0  0  0
  158.9620  212.6870  154.9510 O   0  0  0  0  0  0  0  0  0  0  0  0
  157.7860  211.4550  156.4790 O   0  0  0  0  0  1  0  0  0  0  0  0
  161.4370  207.3780  152.7140 C   0  0  0  0  0  2  0  0  0  0  0  0
  162.0960  207.7190  148.1810 C   0  0  0  0  0  2  0  0  0  0  0  0
  163.0330  208.0610  149.3330 C   0  0  0  0  0  2  0  0  0  0  0  0
  160.3800  206.7740  150.5780 C   0  0  0  0  0  3  0  0  0  0  0  0
  161.6800  207.1330  151.2360 C   0  0  1  0  0  3  0  0  0  0  0  0
  162.2700  208.3900  150.6090 C   0  0  0  0  0  2  0  0  0  0  0  0
  160.2860  206.4200  149.2900 C   0  0  0  0  0  3  0  0  0  0  0  0
  161.4710  206.3410  148.3690 C   0  0  1  0  0  3  0  0  0  0  0  0
  161.0300  205.8090  147.0100 C   0  0  0  0  0  2  0  0  0  0  0  0
  161.8010  203.5740  147.7130 C   0  0  0  0  0  1  0  0  0  0  0  0
  163.2180  204.8810  146.1860 C   0  0  0  0  0  1  0  0  0  0  0  0
  161.0870  203.8990  145.3840 C   0  0  0  0  0  1  0  0  0  0  0  0
  161.7840  204.5550  146.5610 C   0  0  0  0  0  0  0  0  0  0  0  0
  1  5  1  0  0  0  0
  2  3  1  0  0  0  0
  3  5  1  0  0  0  0
  4  1  1  0  0  0  0
  5 30  1  1  0  0  0
  6  4  1  0  0  0  0
  6  2  2  0  0  0  0
  7  2  1  0  0  0  0
  8  7  1  0  0  0  0
  9  8  1  0  0  0  0
 10  9  1  0  0  0  0
 11 12  1  6  0  0  0
 11 26  1  0  0  0  0
 11 10  1  0  0  0  0
 13 22  1  0  0  0  0
 13 25  1  0  0  0  0
 15 12  1  1  0  0  0
 16 24  1  0  0  0  0
 16 20  1  0  0  0  0
 17 18  1  0  0  0  0
 18 15  1  0  0  0  0
 18 14  1  0  0  0  0
 19 13  2  0  0  0  0
 20 21  1  0  0  0  0
 22 24  1  6  0  0  0
 22 23  1  0  0  0  0
 23 21  1  1  0  0  0
 23 18  1  0  0  0  0
 25 15  1  0  0  0  0
 27 28  2  0  0  0  0
 28 26  1  0  0  0  0
 28 29  1  0  0  0  0
 30 31  1  0  0  0  0
 31 32  1  0  0  0  0
 32 33  1  0  0  0  0
 34 33  1  6  0  0  0
 34 37  1  0  0  0  0
 35 39  1  0  0  0  0
 36 40  1  6  0  0  0
 37 38  1  0  0  0  0
 37 35  1  0  0  0  0
 38 36  1  0  0  0  0
 39 36  1  0  0  0  0
 40 42  1  0  0  0  0
 41 40  2  0  0  0  0
 43 34  1  0  0  0  0
 44 50  1  0  0  0  0
 44 45  1  0  0  0  0
 45 48  1  0  0  0  0
 46 47  1  0  0  0  0
 47 43  1  1  0  0  0
 48 47  1  0  0  0  0
 49 46  2  0  0  0  0
 50 51  1  6  0  0  0
 50 49  1  0  0  0  0
 53 55  1  0  0  0  0
 54 55  1  0  0  0  0
 55 51  1  0  0  0  0
 55 52  1  0  0  0  0
M  END
>  <MODEL>
1

>  <REMARK>
 VINA RESULT:      -5.7      0.000      0.000
  Name = 
  20 active torsions:
  status: ('A' for Active; 'I' for Inactive)
    1  A    between atoms: C_2  and  C_28
    2  A    between atoms: C_2  and  C_44
    3  A    between atoms: C_6  and  C_46
    4  A    between atoms: C_8  and  C_20
    5  A    between atoms: C_8  and  C_22
    6  A    between atoms: C_10  and  C_32
    7  A    between atoms: C_17  and  C_36
    8  A    between atoms: C_19  and  C_40
    9  A    between atoms: C_19  and  C_45
   10  A    between atoms: C_22  and  C_35
   11  A    between atoms: C_22  and  C_46
   12  A    between atoms: C_27  and  O_54
   13  A    between atoms: C_28  and  C_49
   14  A    between atoms: C_33  and  C_49
   15  A    between atoms: C_33  and  C_52
   16  A    between atoms: N_34  and  C_52
   17  A    between atoms: C_35  and  C_43
   18  A    between atoms: C_36  and  C_52
   19  A    between atoms: C_43  and  C_51
   20  A    between atoms: C_51  and  O_54
                            x       y       z     vdW  Elec       q    Type
                         _______ _______ _______ _____ _____    ______ ____

>  <TORSDO>
F 20

$$$$
=
 OpenBabel11062408473D

 55 59  0  0  1  0  0  0  0  0999 V2000
  161.5820  211.3140  149.9210 C   0  0  0  0  0  2  0  0  0  0  0  0
  160.6900  212.7200  147.6230 C   0  0  0  0  0  0  0  0  0  0  0  0
  161.9810  211.9650  147.4410 C   0  0  0  0  0  2  0  0  0  0  0  0
  161.1150  212.7560  150.0440 C   0  0  0  0  0  2  0  0  0  0  0  0
  162.4180  211.1070  148.6520 C   0  0  2  0  0  3  0  0  0  0  0  0
  160.2900  213.0930  148.8450 C   0  0  0  0  0  3  0  0  0  0  0  0
  159.9530  213.0540  146.4840 O   0  0  0  0  0  0  0  0  0  0  0  0
  158.9850  212.1860  145.9060 C   0  0  0  0  0  2  0  0  0  0  0  0
  158.4140  212.8210  144.6570 C   0  0  0  0  0  2  0  0  0  0  0  0
  159.3500  213.9130  144.1700 C   0  0  0  0  0  2  0  0  0  0  0  0
  160.6610  213.3300  143.6580 C   0  0  1  0  0  3  0  0  0  0  0  0
  160.4200  212.2590  142.5950 C   0  0  0  0  0  2  0  0  0  0  0  0
  158.4260  212.2210  140.1540 C   0  0  0  0  0  0  0  0  0  0  0  0
  162.1250  210.9620  140.9290 F   0  0  0  0  0  0  0  0  0  0  0  0
  160.5810  212.8150  141.1790 C   0  0  1  0  0  3  0  0  0  0  0  0
  158.7960  209.5970  137.6720 N   0  0  0  0  0  2  0  0  0  0  0  0
  162.1740  212.6220  139.4290 F   0  0  0  0  0  0  0  0  0  0  0  0
  161.3360  211.8530  140.2150 C   0  0  0  0  0  0  0  0  0  0  0  0
  157.2100  212.5010  139.9790 O   0  0  0  0  0  0  0  0  0  0  0  0
  159.9620  208.8450  138.1280 C   0  0  0  0  0  2  0  0  0  0  0  0
  161.0170  209.7880  138.7120 C   0  0  0  0  0  2  0  0  0  0  0  0
  158.9750  210.8670  139.8280 C   0  0  2  0  0  3  0  0  0  0  0  0
  160.3920  211.0750  139.2720 C   0  0  1  0  0  3  0  0  0  0  0  0
  158.0720  210.0930  138.8470 C   0  0  0  0  0  2  0  0  0  0  0  0
  159.2940  213.1810  140.6760 O   0  0  0  0  0  0  0  0  0  0  0  0
  161.5970  214.4360  143.1580 C   0  0  0  0  0  2  0  0  0  0  0  0
  163.6250  213.2470  144.0030 O   0  0  0  0  0  1  0  0  0  0  0  0
  163.0110  213.9750  142.9920 C   0  0  0  0  0  0  0  0  0  0  0  0
  163.6560  214.2710  141.9530 O   0  0  0  0  0  0  0  0  0  0  0  0
  162.3990  209.6300  148.2950 C   0  0  0  0  0  2  0  0  0  0  0  0
  161.4260  208.8640  149.1710 C   0  0  0  0  0  2  0  0  0  0  0  0
  161.4480  207.4020  148.7760 C   0  0  0  0  0  2  0  0  0  0  0  0
  160.3130  206.6630  149.4580 C   0  0  0  0  0  2  0  0  0  0  0  0
  160.7340  205.2150  149.7540 C   0  0  1  0  0  3  0  0  0  0  0  0
  161.3580  203.2230  148.5890 C   0  0  0  0  0  2  0  0  0  0  0  0
  161.5610  204.1810  146.3920 C   0  0  1  0  0  3  0  0  0  0  0  0
  161.6360  204.6510  148.7390 N   0  0  0  0  0  0  0  0  0  0  0  0
  161.4390  205.2730  147.4300 C   0  0  0  0  0  2  0  0  0  0  0  0
  161.1350  202.9290  147.1180 C   0  0  0  0  0  2  0  0  0  0  0  0
  160.6940  204.4640  145.2000 C   0  0  0  0  0  0  0  0  0  0  0  0
  160.0640  205.6950  145.0550 O   0  0  0  0  0  1  0  0  0  0  0  0
  160.4820  203.5600  144.3490 O   0  0  0  0  0  0  0  0  0  0  0  0
  161.3600  205.0820  151.1420 C   0  0  0  0  0  2  0  0  0  0  0  0
  161.9120  208.8800  153.6660 C   0  0  0  0  0  2  0  0  0  0  0  0
  162.2210  208.6310  152.1950 C   0  0  0  0  0  2  0  0  0  0  0  0
  160.8300  205.9960  153.3620 C   0  0  0  0  0  3  0  0  0  0  0  0
  161.1840  206.3550  151.9490 C   0  0  1  0  0  3  0  0  0  0  0  0
  162.4800  207.1580  151.9080 C   0  0  0  0  0  2  0  0  0  0  0  0
  160.5310  206.9080  154.2960 C   0  0  0  0  0  3  0  0  0  0  0  0
  160.5150  208.3860  154.0270 C   0  0  1  0  0  3  0  0  0  0  0  0
  160.0350  209.1280  155.2700 C   0  0  0  0  0  2  0  0  0  0  0  0
  158.2250  210.7480  155.7000 C   0  0  0  0  0  1  0  0  0  0  0  0
  159.3330  210.7770  153.5050 C   0  0  0  0  0  1  0  0  0  0  0  0
  160.5330  211.5750  155.5230 C   0  0  0  0  0  1  0  0  0  0  0  0
  159.5460  210.5520  154.9900 C   0  0  0  0  0  0  0  0  0  0  0  0
  1  4  1  0  0  0  0
  2  6  2  0  0  0  0
  3  2  1  0  0  0  0
  3  5  1  0  0  0  0
  5 30  1  6  0  0  0
  5  1  1  0  0  0  0
  6  4  1  0  0  0  0
  7  2  1  0  0  0  0
  8  7  1  0  0  0  0
  9  8  1  0  0  0  0
 10  9  1  0  0  0  0
 11 12  1  6  0  0  0
 11 10  1  0  0  0  0
 13 25  1  0  0  0  0
 15 12  1  1  0  0  0
 16 20  1  0  0  0  0
 16 24  1  0  0  0  0
 17 18  1  0  0  0  0
 18 14  1  0  0  0  0
 18 15  1  0  0  0  0
 19 13  2  0  0  0  0
 20 21  1  0  0  0  0
 22 24  1  6  0  0  0
 22 13  1  0  0  0  0
 23 21  1  1  0  0  0
 23 22  1  0  0  0  0
 23 18  1  0  0  0  0
 25 15  1  0  0  0  0
 26 11  1  0  0  0  0
 28 26  1  0  0  0  0
 28 27  1  0  0  0  0
 29 28  2  0  0  0  0
 30 31  1  0  0  0  0
 32 31  1  0  0  0  0
 32 33  1  0  0  0  0
 34 33  1  6  0  0  0
 34 43  1  0  0  0  0
 35 37  1  0  0  0  0
 36 40  1  6  0  0  0
 36 39  1  0  0  0  0
 36 38  1  0  0  0  0
 37 34  1  0  0  0  0
 38 37  1  0  0  0  0
 39 35  1  0  0  0  0
 41 40  1  0  0  0  0
 42 40  2  0  0  0  0
 44 50  1  0  0  0  0
 45 44  1  0  0  0  0
 46 49  2  0  0  0  0
 47 43  1  6  0  0  0
 47 46  1  0  0  0  0
 48 47  1  0  0  0  0
 48 45  1  0  0  0  0
 50 49  1  0  0  0  0
 50 51  1  1  0  0  0
 53 55  1  0  0  0  0
 55 51  1  0  0  0  0
 55 54  1  0  0  0  0
 55 52  1  0  0  0  0
M  END
>  <MODEL>
2

>  <REMARK>
 VINA RESULT:      -5.4      2.403      5.906
  Name = 
  20 active torsions:
  status: ('A' for Active; 'I' for Inactive)
    1  A    between atoms: C_2  and  C_28
    2  A    between atoms: C_2  and  C_44
    3  A    between atoms: C_6  and  C_46
    4  A    between atoms: C_8  and  C_20
    5  A    between atoms: C_8  and  C_22
    6  A    between atoms: C_10  and  C_32
    7  A    between atoms: C_17  and  C_36
    8  A    between atoms: C_19  and  C_40
    9  A    between atoms: C_19  and  C_45
   10  A    between atoms: C_22  and  C_35
   11  A    between atoms: C_22  and  C_46
   12  A    between atoms: C_27  and  O_54
   13  A    between atoms: C_28  and  C_49
   14  A    between atoms: C_33  and  C_49
   15  A    between atoms: C_33  and  C_52
   16  A    between atoms: N_34  and  C_52
   17  A    between atoms: C_35  and  C_43
   18  A    between atoms: C_36  and  C_52
   19  A    between atoms: C_43  and  C_51
   20  A    between atoms: C_51  and  O_54
                            x       y       z     vdW  Elec       q    Type
                         _______ _______ _______ _____ _____    ______ ____

>  <TORSDO>
F 20

$$$$
=
 OpenBabel11062408473D

 55 59  0  0  1  0  0  0  0  0999 V2000
  163.2670  212.3710  148.2410 C   0  0  0  0  0  2  0  0  0  0  0  0
  160.8890  213.5110  147.1940 C   0  0  0  0  0  0  0  0  0  0  0  0
  160.6750  212.3400  148.1170 C   0  0  0  0  0  2  0  0  0  0  0  0
  163.1620  212.6830  146.7570 C   0  0  0  0  0  2  0  0  0  0  0  0
  161.9570  211.7810  148.7800 C   0  0  2  0  0  3  0  0  0  0  0  0
  162.0550  213.6660  146.5550 C   0  0  0  0  0  3  0  0  0  0  0  0
  159.8270  214.3970  146.9950 O   0  0  0  0  0  0  0  0  0  0  0  0
  158.6690  214.0610  146.2390 C   0  0  0  0  0  2  0  0  0  0  0  0
  158.9390  214.2880  144.7680 C   0  0  0  0  0  2  0  0  0  0  0  0
  159.4560  213.0050  144.1430 C   0  0  0  0  0  2  0  0  0  0  0  0
  159.7980  213.2040  142.6710 C   0  0  1  0  0  3  0  0  0  0  0  0
  158.5590  213.5650  141.8530 C   0  0  0  0  0  2  0  0  0  0  0  0
  156.5940  213.6880  139.3920 C   0  0  0  0  0  0  0  0  0  0  0  0
  159.4730  211.2770  140.7160 F   0  0  0  0  0  0  0  0  0  0  0  0
  158.8550  213.5920  140.3520 C   0  0  1  0  0  3  0  0  0  0  0  0
  155.6980  210.5770  137.7480 N   0  0  0  0  0  2  0  0  0  0  0  0
  160.1210  212.2850  138.8270 F   0  0  0  0  0  0  0  0  0  0  0  0
  159.0870  212.1810  139.7370 C   0  0  0  0  0  0  0  0  0  0  0  0
  155.5960  214.3870  139.0700 O   0  0  0  0  0  0  0  0  0  0  0  0
  156.4700  209.5660  138.4660 C   0  0  0  0  0  2  0  0  0  0  0  0
  157.8540  210.1080  138.8380 C   0  0  0  0  0  2  0  0  0  0  0  0
  156.5120  212.1970  139.4830 C   0  0  2  0  0  3  0  0  0  0  0  0
  157.8520  211.6380  138.9840 C   0  0  1  0  0  3  0  0  0  0  0  0
  155.3140  211.6300  138.6940 C   0  0  0  0  0  2  0  0  0  0  0  0
  157.8100  214.3050  139.6870 O   0  0  0  0  0  0  0  0  0  0  0  0
  160.9200  214.2330  142.5020 C   0  0  0  0  0  2  0  0  0  0  0  0
  163.0180  213.0650  143.1930 O   0  0  0  0  0  1  0  0  0  0  0  0
  162.2420  213.6090  142.1780 C   0  0  0  0  0  0  0  0  0  0  0  0
  162.6670  213.6040  140.9940 O   0  0  0  0  0  0  0  0  0  0  0  0
  161.9150  211.9880  150.2840 C   0  0  0  0  0  2  0  0  0  0  0  0
  160.5450  211.6570  150.8470 C   0  0  0  0  0  2  0  0  0  0  0  0
  160.7090  211.0560  152.2280 C   0  0  0  0  0  2  0  0  0  0  0  0
  160.3570  209.5810  152.1970 C   0  0  0  0  0  2  0  0  0  0  0  0
  161.2900  208.8000  153.1360 C   0  0  1  0  0  3  0  0  0  0  0  0
  161.9500  209.9130  155.1460 C   0  0  0  0  0  2  0  0  0  0  0  0
  159.7580  210.5620  155.8930 C   0  0  1  0  0  3  0  0  0  0  0  0
  160.9780  208.9910  154.5590 N   0  0  0  0  0  0  0  0  0  0  0  0
  159.6510  209.5750  154.7520 C   0  0  0  0  0  2  0  0  0  0  0  0
  161.1950  211.0200  155.8540 C   0  0  0  0  0  2  0  0  0  0  0  0
  158.7970  211.7010  155.7180 C   0  0  0  0  0  0  0  0  0  0  0  0
  157.4360  211.4650  155.5530 O   0  0  0  0  0  0  0  0  0  0  0  0
  159.2290  212.8820  155.6570 O   0  0  0  0  0  1  0  0  0  0  0  0
  161.3100  207.3090  152.7990 C   0  0  0  0  0  2  0  0  0  0  0  0
  162.0330  207.7000  148.2790 C   0  0  0  0  0  2  0  0  0  0  0  0
  162.9390  208.0660  149.4490 C   0  0  0  0  0  2  0  0  0  0  0  0
  160.3090  206.6850  150.6410 C   0  0  0  0  0  3  0  0  0  0  0  0
  161.5860  207.0820  151.3240 C   0  0  1  0  0  3  0  0  0  0  0  0
  162.1440  208.3620  150.7140 C   0  0  0  0  0  2  0  0  0  0  0  0
  160.2480  206.3360  149.3500 C   0  0  0  0  0  3  0  0  0  0  0  0
  161.4500  206.3020  148.4490 C   0  0  1  0  0  3  0  0  0  0  0  0
  161.0500  205.7640  147.0790 C   0  0  0  0  0  2  0  0  0  0  0  0
  163.2250  204.7600  146.4920 C   0  0  0  0  0  1  0  0  0  0  0  0
  161.1970  203.8940  145.4030 C   0  0  0  0  0  1  0  0  0  0  0  0
  161.6250  203.4310  147.8020 C   0  0  0  0  0  1  0  0  0  0  0  0
  161.7560  204.4620  146.6950 C   0  0  0  0  0  0  0  0  0  0  0  0
  1  5  1  0  0  0  0
  2  3  1  0  0  0  0
  3  5  1  0  0  0  0
  4  1  1  0  0  0  0
  5 30  1  1  0  0  0
  6  4  1  0  0  0  0
  6  2  2  0  0  0  0
  7  2  1  0  0  0  0
  8  7  1  0  0  0  0
  9  8  1  0  0  0  0
 10  9  1  0  0  0  0
 11 12  1  6  0  0  0
 11 10  1  0  0  0  0
 13 22  1  0  0  0  0
 13 25  1  0  0  0  0
 15 12  1  1  0  0  0
 16 20  1  0  0  0  0
 16 24  1  0  0  0  0
 17 18  1  0  0  0  0
 18 15  1  0  0  0  0
 18 14  1  0  0  0  0
 19 13  2  0  0  0  0
 20 21  1  0  0  0  0
 22 24  1  6  0  0  0
 23 21  1  1  0  0  0
 23 22  1  0  0  0  0
 23 18  1  0  0  0  0
 25 15  1  0  0  0  0
 26 11  1  0  0  0  0
 28 26  1  0  0  0  0
 28 27  1  0  0  0  0
 29 28  2  0  0  0  0
 30 31  1  0  0  0  0
 31 32  1  0  0  0  0
 33 32  1  0  0  0  0
 34 33  1  6  0  0  0
 34 37  1  0  0  0  0
 35 39  1  0  0  0  0
 36 40  1  6  0  0  0
 37 38  1  0  0  0  0
 37 35  1  0  0  0  0
 38 36  1  0  0  0  0
 39 36  1  0  0  0  0
 41 40  2  0  0  0  0
 42 40  1  0  0  0  0
 43 34  1  0  0  0  0
 44 50  1  0  0  0  0
 44 45  1  0  0  0  0
 45 48  1  0  0  0  0
 46 47  1  0  0  0  0
 47 43  1  1  0  0  0
 48 47  1  0  0  0  0
 49 46  2  0  0  0  0
 50 51  1  6  0  0  0
 50 49  1  0  0  0  0
 52 55  1  0  0  0  0
 53 55  1  0  0  0  0
 55 51  1  0  0  0  0
 55 54  1  0  0  0  0
M  END
>  <MODEL>
3

>  <REMARK>
 VINA RESULT:      -5.1      1.603      2.080
  Name = 
  20 active torsions:
  status: ('A' for Active; 'I' for Inactive)
    1  A    between atoms: C_2  and  C_28
    2  A    between atoms: C_2  and  C_44
    3  A    between atoms: C_6  and  C_46
    4  A    between atoms: C_8  and  C_20
    5  A    between atoms: C_8  and  C_22
    6  A    between atoms: C_10  and  C_32
    7  A    between atoms: C_17  and  C_36
    8  A    between atoms: C_19  and  C_40
    9  A    between atoms: C_19  and  C_45
   10  A    between atoms: C_22  and  C_35
   11  A    between atoms: C_22  and  C_46
   12  A    between atoms: C_27  and  O_54
   13  A    between atoms: C_28  and  C_49
   14  A    between atoms: C_33  and  C_49
   15  A    between atoms: C_33  and  C_52
   16  A    between atoms: N_34  and  C_52
   17  A    between atoms: C_35  and  C_43
   18  A    between atoms: C_36  and  C_52
   19  A    between atoms: C_43  and  C_51
   20  A    between atoms: C_51  and  O_54
                            x       y       z     vdW  Elec       q    Type
                         _______ _______ _______ _____ _____    ______ ____

>  <TORSDO>
F 20

$$$$
=
 OpenBabel11062408473D

 55 59  0  0  1  0  0  0  0  0999 V2000
  162.4710  204.7120  146.5710 C   0  0  0  0  0  2  0  0  0  0  0  0
  161.4070  205.7440  144.1510 C   0  0  0  0  0  0  0  0  0  0  0  0
  160.8380  206.3570  145.4040 C   0  0  0  0  0  2  0  0  0  0  0  0
  162.0300  203.7630  145.4670 C   0  0  0  0  0  2  0  0  0  0  0  0
  161.4890  205.8800  146.7250 C   0  0  2  0  0  3  0  0  0  0  0  0
  161.9610  204.5260  144.1840 C   0  0  0  0  0  3  0  0  0  0  0  0
  161.3000  206.4620  142.9570 O   0  0  0  0  0  0  0  0  0  0  0  0
  161.8510  206.0050  141.7270 C   0  0  0  0  0  2  0  0  0  0  0  0
  162.4070  207.1800  140.9520 C   0  0  0  0  0  2  0  0  0  0  0  0
  161.5540  207.4240  139.7200 C   0  0  0  0  0  2  0  0  0  0  0  0
  161.5480  208.8980  139.3330 C   0  0  1  0  0  3  0  0  0  0  0  0
  160.1600  209.5150  139.5010 C   0  0  0  0  0  2  0  0  0  0  0  0
  159.7440  212.2110  137.9230 C   0  0  0  0  0  0  0  0  0  0  0  0
  157.4580  209.3000  139.3930 F   0  0  0  0  0  0  0  0  0  0  0  0
  159.4860  209.7770  138.1540 C   0  0  1  0  0  3  0  0  0  0  0  0
  156.5700  213.9390  138.2780 N   0  0  0  0  0  2  0  0  0  0  0  0
  157.3890  209.2790  137.1570 F   0  0  0  0  0  0  0  0  0  0  0  0
  157.9390  209.9220  138.2500 C   0  0  0  0  0  0  0  0  0  0  0  0
  160.4740  213.1840  137.5930 O   0  0  0  0  0  0  0  0  0  0  0  0
  155.7900  213.0640  139.1480 C   0  0  0  0  0  2  0  0  0  0  0  0
  156.0670  211.5930  138.8230 C   0  0  0  0  0  2  0  0  0  0  0  0
  158.5000  212.4010  138.7330 C   0  0  2  0  0  3  0  0  0  0  0  0
  157.4640  211.3920  138.2160 C   0  0  1  0  0  3  0  0  0  0  0  0
  157.9800  213.8520  138.6710 C   0  0  0  0  0  2  0  0  0  0  0  0
  160.0970  210.9160  137.5430 O   0  0  0  0  0  0  0  0  0  0  0  0
  162.6210  209.6740  140.1040 C   0  0  0  0  0  2  0  0  0  0  0  0
  163.3250  211.2560  138.3030 O   0  0  0  0  0  0  0  0  0  0  0  0
  162.8260  211.0630  139.5840 C   0  0  0  0  0  0  0  0  0  0  0  0
  162.5780  212.0550  140.3150 O   0  0  0  0  0  1  0  0  0  0  0  0
  162.2080  207.0290  147.4110 C   0  0  0  0  0  2  0  0  0  0  0  0
  161.2340  207.9190  148.1610 C   0  0  0  0  0  2  0  0  0  0  0  0
  162.0130  208.9080  149.0020 C   0  0  0  0  0  2  0  0  0  0  0  0
  162.8000  208.1730  150.0710 C   0  0  0  0  0  2  0  0  0  0  0  0
  162.0910  208.3080  151.4280 C   0  0  1  0  0  3  0  0  0  0  0  0
  160.7960  210.3080  151.6170 C   0  0  0  0  0  2  0  0  0  0  0  0
  161.3090  210.8130  153.9120 C   0  0  1  0  0  3  0  0  0  0  0  0
  162.0780  209.6840  151.9450 N   0  0  0  0  0  0  0  0  0  0  0  0
  162.2210  209.7210  153.4000 C   0  0  0  0  0  2  0  0  0  0  0  0
  160.2030  210.8840  152.8880 C   0  0  0  0  0  2  0  0  0  0  0  0
  160.7900  210.4880  155.2820 C   0  0  0  0  0  0  0  0  0  0  0  0
  159.6350  209.7320  155.4440 O   0  0  0  0  0  0  0  0  0  0  0  0
  161.3680  210.9560  156.2990 O   0  0  0  0  0  1  0  0  0  0  0  0
  160.6680  207.7530  151.3790 C   0  0  0  0  0  2  0  0  0  0  0  0
  161.4650  203.3770  152.5290 C   0  0  0  0  0  2  0  0  0  0  0  0
  160.8100  204.4950  153.3320 C   0  0  0  0  0  2  0  0  0  0  0  0
  161.4400  205.6310  150.4070 C   0  0  0  0  0  3  0  0  0  0  0  0
  160.6600  206.2430  151.5330 C   0  0  1  0  0  3  0  0  0  0  0  0
  161.2750  205.8720  152.8770 C   0  0  0  0  0  2  0  0  0  0  0  0
  161.5440  204.3090  150.2230 C   0  0  0  0  0  3  0  0  0  0  0  0
  160.8870  203.2990  151.1200 C   0  0  1  0  0  3  0  0  0  0  0  0
  161.1180  201.8960  150.5700 C   0  0  0  0  0  2  0  0  0  0  0  0
  161.2910  200.6410  148.4530 C   0  0  0  0  0  1  0  0  0  0  0  0
  160.3730  202.9220  148.3970 C   0  0  0  0  0  1  0  0  0  0  0  0
  159.0610  201.0680  149.3940 C   0  0  0  0  0  1  0  0  0  0  0  0
  160.4530  201.6450  149.2140 C   0  0  0  0  0  0  0  0  0  0  0  0
  1  5  1  0  0  0  0
  2  6  2  0  0  0  0
  2  3  1  0  0  0  0
  3  5  1  0  0  0  0
  4  1  1  0  0  0  0
  5 30  1  6  0  0  0
  6  4  1  0  0  0  0
  7  2  1  0  0  0  0
  8  7  1  0  0  0  0
  9  8  1  0  0  0  0
 10  9  1  0  0  0  0
 11 12  1  1  0  0  0
 11 10  1  0  0  0  0
 11 26  1  0  0  0  0
 13 22  1  0  0  0  0
 15 18  1  0  0  0  0
 15 12  1  1  0  0  0
 16 24  1  0  0  0  0
 16 20  1  0  0  0  0
 17 18  1  0  0  0  0
 18 14  1  0  0  0  0
 19 13  2  0  0  0  0
 21 20  1  0  0  0  0
 22 24  1  6  0  0  0
 23 18  1  0  0  0  0
 23 22  1  0  0  0  0
 23 21  1  1  0  0  0
 25 13  1  0  0  0  0
 25 15  1  0  0  0  0
 27 28  2  0  0  0  0
 28 26  1  0  0  0  0
 28 29  1  0  0  0  0
 30 31  1  0  0  0  0
 31 32  1  0  0  0  0
 32 33  1  0  0  0  0
 34 33  1  6  0  0  0
 34 37  1  0  0  0  0
 35 37  1  0  0  0  0
 35 39  1  0  0  0  0
 36 40  1  1  0  0  0
 37 38  1  0  0  0  0
 38 36  1  0  0  0  0
 39 36  1  0  0  0  0
 40 41  2  0  0  0  0
 40 42  1  0  0  0  0
 43 34  1  0  0  0  0
 44 45  1  0  0  0  0
 46 47  1  0  0  0  0
 47 43  1  6  0  0  0
 47 48  1  0  0  0  0
 48 45  1  0  0  0  0
 49 46  2  0  0  0  0
 49 50  1  0  0  0  0
 50 51  1  6  0  0  0
 50 44  1  0  0  0  0
 52 55  1  0  0  0  0
 53 55  1  0  0  0  0
 55 54  1  0  0  0  0
 55 51  1  0  0  0  0
M  END
>  <MODEL>
4

>  <REMARK>
 VINA RESULT:      -5.0      3.032      4.976
  Name = 
  20 active torsions:
  status: ('A' for Active; 'I' for Inactive)
    1  A    between atoms: C_2  and  C_28
    2  A    between atoms: C_2  and  C_44
    3  A    between atoms: C_6  and  C_46
    4  A    between atoms: C_8  and  C_20
    5  A    between atoms: C_8  and  C_22
    6  A    between atoms: C_10  and  C_32
    7  A    between atoms: C_17  and  C_36
    8  A    between atoms: C_19  and  C_40
    9  A    between atoms: C_19  and  C_45
   10  A    between atoms: C_22  and  C_35
   11  A    between atoms: C_22  and  C_46
   12  A    between atoms: C_27  and  O_54
   13  A    between atoms: C_28  and  C_49
   14  A    between atoms: C_33  and  C_49
   15  A    between atoms: C_33  and  C_52
   16  A    between atoms: N_34  and  C_52
   17  A    between atoms: C_35  and  C_43
   18  A    between atoms: C_36  and  C_52
   19  A    between atoms: C_43  and  C_51
   20  A    between atoms: C_51  and  O_54
                            x       y       z     vdW  Elec       q    Type
                         _______ _______ _______ _____ _____    ______ ____

>  <TORSDO>
F 20

$$$$
=
 OpenBabel11062408473D

 55 59  0  0  1  0  0  0  0  0999 V2000
  160.7030  204.1730  144.3820 C   0  0  0  0  0  2  0  0  0  0  0  0
  162.0890  205.6920  146.3370 C   0  0  0  0  0  0  0  0  0  0  0  0
  162.6600  205.7810  144.9460 C   0  0  0  0  0  2  0  0  0  0  0  0
  161.0610  203.5450  145.7200 C   0  0  0  0  0  2  0  0  0  0  0  0
  161.8480  205.0460  143.8520 C   0  0  2  0  0  3  0  0  0  0  0  0
  161.3440  204.6400  146.6980 C   0  0  0  0  0  3  0  0  0  0  0  0
  162.3960  206.7100  147.2430 O   0  0  0  0  0  0  0  0  0  0  0  0
  161.4320  207.6450  147.7130 C   0  0  0  0  0  2  0  0  0  0  0  0
  161.1170  207.3630  149.1660 C   0  0  0  0  0  2  0  0  0  0  0  0
  162.3990  207.0280  149.9070 C   0  0  0  0  0  2  0  0  0  0  0  0
  162.1200  206.1850  151.1450 C   0  0  1  0  0  3  0  0  0  0  0  0
  162.1810  207.0260  152.4200 C   0  0  0  0  0  2  0  0  0  0  0  0
  160.7830  209.8090  152.9030 C   0  0  0  0  0  0  0  0  0  0  0  0
  161.7230  206.5960  155.0600 F   0  0  0  0  0  0  0  0  0  0  0  0
  160.7850  207.3510  152.9560 C   0  0  1  0  0  3  0  0  0  0  0  0
  160.8800  211.2260  156.2450 N   0  0  0  0  0  2  0  0  0  0  0  0
  159.5010  206.7710  154.8670 F   0  0  0  0  0  0  0  0  0  0  0  0
  160.7010  207.3560  154.5100 C   0  0  0  0  0  0  0  0  0  0  0  0
  160.6240  210.8650  152.2350 O   0  0  0  0  0  0  0  0  0  0  0  0
  161.5750  210.2130  157.0350 C   0  0  0  0  0  2  0  0  0  0  0  0
  161.1700  208.8060  156.5850 C   0  0  0  0  0  2  0  0  0  0  0  0
  161.4460  209.8200  154.2450 C   0  0  2  0  0  3  0  0  0  0  0  0
  160.7260  208.7790  155.1140 C   0  0  1  0  0  3  0  0  0  0  0  0
  161.4360  211.2220  154.8870 C   0  0  0  0  0  2  0  0  0  0  0  0
  160.3480  208.5870  152.3880 O   0  0  0  0  0  0  0  0  0  0  0  0
  160.7890  205.4370  151.0120 C   0  0  0  0  0  2  0  0  0  0  0  0
  161.7240  203.2530  151.7880 O   0  0  0  0  0  1  0  0  0  0  0  0
  160.9630  203.9570  150.8640 C   0  0  0  0  0  0  0  0  0  0  0  0
  160.4480  203.3540  149.8870 O   0  0  0  0  0  0  0  0  0  0  0  0
  161.2780  206.0370  142.8520 C   0  0  0  0  0  2  0  0  0  0  0  0
  162.3700  206.6340  141.9850 C   0  0  0  0  0  2  0  0  0  0  0  0
  161.8350  206.8340  140.5820 C   0  0  0  0  0  2  0  0  0  0  0  0
  161.3630  208.2650  140.4060 C   0  0  0  0  0  2  0  0  0  0  0  0
  162.1210  208.9280  139.2450 C   0  0  1  0  0  3  0  0  0  0  0  0
  160.5770  208.4820  137.4760 C   0  0  0  0  0  2  0  0  0  0  0  0
  158.9180  210.1180  138.0730 C   0  0  1  0  0  3  0  0  0  0  0  0
  161.2350  209.5380  138.2450 N   0  0  0  0  0  0  0  0  0  0  0  0
  160.1850  210.3440  138.8670 C   0  0  0  0  0  2  0  0  0  0  0  0
  159.0820  208.7330  137.4980 C   0  0  0  0  0  2  0  0  0  0  0  0
  157.7030  210.2260  138.9470 C   0  0  0  0  0  0  0  0  0  0  0  0
  157.4070  211.4120  139.6110 O   0  0  0  0  0  1  0  0  0  0  0  0
  156.9730  209.2170  139.1330 O   0  0  0  0  0  0  0  0  0  0  0  0
  163.1330  209.9570  139.7480 C   0  0  0  0  0  2  0  0  0  0  0  0
  162.0160  214.3170  140.6680 C   0  0  0  0  0  2  0  0  0  0  0  0
  162.1810  213.6130  139.3260 C   0  0  0  0  0  2  0  0  0  0  0  0
  162.5520  211.4250  141.6330 C   0  0  0  0  0  3  0  0  0  0  0  0
  162.4490  211.2530  140.1460 C   0  0  1  0  0  3  0  0  0  0  0  0
  163.1180  212.4160  139.4220 C   0  0  0  0  0  2  0  0  0  0  0  0
  161.9710  212.4340  142.2940 C   0  0  0  0  0  3  0  0  0  0  0  0
  161.1510  213.4960  141.6190 C   0  0  1  0  0  3  0  0  0  0  0  0
  160.5520  214.4270  142.6680 C   0  0  0  0  0  2  0  0  0  0  0  0
  160.2120  213.7650  145.0200 C   0  0  0  0  0  1  0  0  0  0  0  0
  159.3740  212.2810  143.2470 C   0  0  0  0  0  1  0  0  0  0  0  0
  158.2610  214.4530  143.6920 C   0  0  0  0  0  1  0  0  0  0  0  0
  159.5950  213.7300  143.6390 C   0  0  0  0  0  0  0  0  0  0  0  0
  1  4  1  0  0  0  0
  2  6  2  0  0  0  0
  2  7  1  0  0  0  0
  3  2  1  0  0  0  0
  4  6  1  0  0  0  0
  5 30  1  6  0  0  0
  5  1  1  0  0  0  0
  5  3  1  0  0  0  0
  7  8  1  0  0  0  0
  8  9  1  0  0  0  0
  9 10  1  0  0  0  0
 11 10  1  6  0  0  0
 11 12  1  0  0  0  0
 13 22  1  0  0  0  0
 15 12  1  1  0  0  0
 15 18  1  0  0  0  0
 16 20  1  0  0  0  0
 18 17  1  0  0  0  0
 18 14  1  0  0  0  0
 18 23  1  0  0  0  0
 19 13  2  0  0  0  0
 21 20  1  0  0  0  0
 22 24  1  1  0  0  0
 22 23  1  0  0  0  0
 23 21  1  1  0  0  0
 24 16  1  0  0  0  0
 25 13  1  0  0  0  0
 25 15  1  0  0  0  0
 26 11  1  0  0  0  0
 28 26  1  0  0  0  0
 28 27  1  0  0  0  0
 29 28  2  0  0  0  0
 31 30  1  0  0  0  0
 32 31  1  0  0  0  0
 33 32  1  0  0  0  0
 34 43  1  1  0  0  0
 34 33  1  0  0  0  0
 35 39  1  0  0  0  0
 35 37  1  0  0  0  0
 36 38  1  0  0  0  0
 36 40  1  1  0  0  0
 37 38  1  0  0  0  0
 37 34  1  0  0  0  0
 39 36  1  0  0  0  0
 40 42  2  0  0  0  0
 40 41  1  0  0  0  0
 44 50  1  0  0  0  0
 45 48  1  0  0  0  0
 45 44  1  0  0  0  0
 46 49  2  0  0  0  0
 47 43  1  6  0  0  0
 47 46  1  0  0  0  0
 48 47  1  0  0  0  0
 50 49  1  0  0  0  0
 50 51  1  1  0  0  0
 51 55  1  0  0  0  0
 53 55  1  0  0  0  0
 55 54  1  0  0  0  0
 55 52  1  0  0  0  0
M  END
>  <MODEL>
5

>  <REMARK>
 VINA RESULT:      -4.6      4.050     13.259
  Name = 
  20 active torsions:
  status: ('A' for Active; 'I' for Inactive)
    1  A    between atoms: C_2  and  C_28
    2  A    between atoms: C_2  and  C_44
    3  A    between atoms: C_6  and  C_46
    4  A    between atoms: C_8  and  C_20
    5  A    between atoms: C_8  and  C_22
    6  A    between atoms: C_10  and  C_32
    7  A    between atoms: C_17  and  C_36
    8  A    between atoms: C_19  and  C_40
    9  A    between atoms: C_19  and  C_45
   10  A    between atoms: C_22  and  C_35
   11  A    between atoms: C_22  and  C_46
   12  A    between atoms: C_27  and  O_54
   13  A    between atoms: C_28  and  C_49
   14  A    between atoms: C_33  and  C_49
   15  A    between atoms: C_33  and  C_52
   16  A    between atoms: N_34  and  C_52
   17  A    between atoms: C_35  and  C_43
   18  A    between atoms: C_36  and  C_52
   19  A    between atoms: C_43  and  C_51
   20  A    between atoms: C_51  and  O_54
                            x       y       z     vdW  Elec       q    Type
                         _______ _______ _______ _____ _____    ______ ____

>  <TORSDO>
F 20

$$$$
=
 OpenBabel11062408473D

 55 59  0  0  1  0  0  0  0  0999 V2000
  162.6300  204.9560  146.2150 C   0  0  0  0  0  2  0  0  0  0  0  0
  161.5890  205.8520  143.7320 C   0  0  0  0  0  0  0  0  0  0  0  0
  160.8500  206.3540  144.9450 C   0  0  0  0  0  2  0  0  0  0  0  0
  162.4140  203.9690  145.0790 C   0  0  0  0  0  2  0  0  0  0  0  0
  161.4750  205.9620  146.3060 C   0  0  2  0  0  3  0  0  0  0  0  0
  162.3180  204.7310  143.7980 C   0  0  0  0  0  3  0  0  0  0  0  0
  161.4560  206.5640  142.5370 O   0  0  0  0  0  0  0  0  0  0  0  0
  162.0900  206.1680  141.3260 C   0  0  0  0  0  2  0  0  0  0  0  0
  162.1710  207.3500  140.3840 C   0  0  0  0  0  2  0  0  0  0  0  0
  161.0040  208.2870  140.6450 C   0  0  0  0  0  2  0  0  0  0  0  0
  161.1710  209.6020  139.8940 C   0  0  1  0  0  3  0  0  0  0  0  0
  161.8900  210.6460  140.7490 C   0  0  0  0  0  2  0  0  0  0  0  0
  162.7530  213.5320  141.6740 C   0  0  0  0  0  0  0  0  0  0  0  0
  160.1380  210.7550  142.8180 F   0  0  0  0  0  0  0  0  0  0  0  0
  161.0610  211.9220  140.9050 C   0  0  1  0  0  3  0  0  0  0  0  0
  162.2580  214.4430  145.1540 N   0  0  0  0  0  2  0  0  0  0  0  0
  159.0600  212.5460  142.0210 F   0  0  0  0  0  0  0  0  0  0  0  0
  160.3130  212.0160  142.2670 C   0  0  0  0  0  0  0  0  0  0  0  0
  163.6810  214.3320  141.3810 O   0  0  0  0  0  0  0  0  0  0  0  0
  161.6150  213.2680  145.7360 C   0  0  0  0  0  2  0  0  0  0  0  0
  160.6290  212.6450  144.7430 C   0  0  0  0  0  2  0  0  0  0  0  0
  162.5360  213.0610  143.0780 C   0  0  2  0  0  3  0  0  0  0  0  0
  161.0200  212.9380  143.2850 C   0  0  1  0  0  3  0  0  0  0  0  0
  163.1920  213.9970  144.1140 C   0  0  0  0  0  2  0  0  0  0  0  0
  161.9050  213.0530  140.6750 O   0  0  0  0  0  0  0  0  0  0  0  0
  161.8680  209.3820  138.5470 C   0  0  0  0  0  2  0  0  0  0  0  0
  162.7280  211.1610  137.0180 O   0  0  0  0  0  0  0  0  0  0  0  0
  161.6430  210.5050  137.5830 C   0  0  0  0  0  0  0  0  0  0  0  0
  160.4730  210.8770  137.3060 O   0  0  0  0  0  1  0  0  0  0  0  0
  161.9630  207.1950  147.0450 C   0  0  0  0  0  2  0  0  0  0  0  0
  161.0440  207.5450  148.2010 C   0  0  0  0  0  2  0  0  0  0  0  0
  161.6990  208.6160  149.0480 C   0  0  0  0  0  2  0  0  0  0  0  0
  162.7050  207.9870  149.9930 C   0  0  0  0  0  2  0  0  0  0  0  0
  162.2010  208.0940  151.4410 C   0  0  1  0  0  3  0  0  0  0  0  0
  161.3280  210.3150  151.3150 C   0  0  0  0  0  2  0  0  0  0  0  0
  161.1880  210.7440  153.6780 C   0  0  1  0  0  3  0  0  0  0  0  0
  162.2960  209.4530  151.9930 N   0  0  0  0  0  0  0  0  0  0  0  0
  161.9830  209.4840  153.4210 C   0  0  0  0  0  2  0  0  0  0  0  0
  160.4930  211.0180  152.3670 C   0  0  0  0  0  2  0  0  0  0  0  0
  160.2150  210.5530  154.8040 C   0  0  0  0  0  0  0  0  0  0  0  0
  158.9640  211.1580  154.7730 O   0  0  0  0  0  0  0  0  0  0  0  0
  160.5540  209.8880  155.8190 O   0  0  0  0  0  1  0  0  0  0  0  0
  160.7720  207.5700  151.5810 C   0  0  0  0  0  2  0  0  0  0  0  0
  161.4000  203.0740  152.2830 C   0  0  0  0  0  2  0  0  0  0  0  0
  160.6630  204.1020  153.1330 C   0  0  0  0  0  2  0  0  0  0  0  0
  161.6380  205.5620  150.4570 C   0  0  0  0  0  3  0  0  0  0  0  0
  160.7360  206.0530  151.5510 C   0  0  1  0  0  3  0  0  0  0  0  0
  161.1880  205.5130  152.9030 C   0  0  0  0  0  2  0  0  0  0  0  0
  161.7530  204.2690  150.1290 C   0  0  0  0  0  3  0  0  0  0  0  0
  160.9890  203.1740  150.8180 C   0  0  1  0  0  3  0  0  0  0  0  0
  161.2730  201.8410  150.1340 C   0  0  0  0  0  2  0  0  0  0  0  0
  159.1190  201.2990  149.0610 C   0  0  0  0  0  1  0  0  0  0  0  0
  161.1960  200.5660  147.9670 C   0  0  0  0  0  1  0  0  0  0  0  0
  160.5810  202.9680  148.0010 C   0  0  0  0  0  1  0  0  0  0  0  0
  160.5610  201.6710  148.7900 C   0  0  0  0  0  0  0  0  0  0  0  0
  1  5  1  0  0  0  0
  2  6  2  0  0  0  0
  2  3  1  0  0  0  0
  3  5  1  0  0  0  0
  4  1  1  0  0  0  0
  5 30  1  6  0  0  0
  6  4  1  0  0  0  0
  7  2  1  0  0  0  0
  8  7  1  0  0  0  0
  9 10  1  0  0  0  0
  9  8  1  0  0  0  0
 11 26  1  6  0  0  0
 11 10  1  0  0  0  0
 11 12  1  0  0  0  0
 13 22  1  0  0  0  0
 15 12  1  1  0  0  0
 15 18  1  0  0  0  0
 16 20  1  0  0  0  0
 17 18  1  0  0  0  0
 18 14  1  0  0  0  0
 18 23  1  0  0  0  0
 19 13  2  0  0  0  0
 21 20  1  0  0  0  0
 22 23  1  0  0  0  0
 22 24  1  1  0  0  0
 23 21  1  1  0  0  0
 24 16  1  0  0  0  0
 25 15  1  0  0  0  0
 25 13  1  0  0  0  0
 27 28  2  0  0  0  0
 28 26  1  0  0  0  0
 29 28  1  0  0  0  0
 30 31  1  0  0  0  0
 31 32  1  0  0  0  0
 32 33  1  0  0  0  0
 34 33  1  6  0  0  0
 34 43  1  0  0  0  0
 34 37  1  0  0  0  0
 35 37  1  0  0  0  0
 35 39  1  0  0  0  0
 36 40  1  1  0  0  0
 37 38  1  0  0  0  0
 38 36  1  0  0  0  0
 39 36  1  0  0  0  0
 40 42  1  0  0  0  0
 41 40  2  0  0  0  0
 44 45  1  0  0  0  0
 46 47  1  0  0  0  0
 47 43  1  1  0  0  0
 47 48  1  0  0  0  0
 48 45  1  0  0  0  0
 49 46  2  0  0  0  0
 49 50  1  0  0  0  0
 50 51  1  6  0  0  0
 50 44  1  0  0  0  0
 53 55  1  0  0  0  0
 54 55  1  0  0  0  0
 55 52  1  0  0  0  0
 55 51  1  0  0  0  0
M  END
>  <MODEL>
6

>  <REMARK>
 VINA RESULT:      -4.3      2.686      5.479
  Name = 
  20 active torsions:
  status: ('A' for Active; 'I' for Inactive)
    1  A    between atoms: C_2  and  C_28
    2  A    between atoms: C_2  and  C_44
    3  A    between atoms: C_6  and  C_46
    4  A    between atoms: C_8  and  C_20
    5  A    between atoms: C_8  and  C_22
    6  A    between atoms: C_10  and  C_32
    7  A    between atoms: C_17  and  C_36
    8  A    between atoms: C_19  and  C_40
    9  A    between atoms: C_19  and  C_45
   10  A    between atoms: C_22  and  C_35
   11  A    between atoms: C_22  and  C_46
   12  A    between atoms: C_27  and  O_54
   13  A    between atoms: C_28  and  C_49
   14  A    between atoms: C_33  and  C_49
   15  A    between atoms: C_33  and  C_52
   16  A    between atoms: N_34  and  C_52
   17  A    between atoms: C_35  and  C_43
   18  A    between atoms: C_36  and  C_52
   19  A    between atoms: C_43  and  C_51
   20  A    between atoms: C_51  and  O_54
                            x       y       z     vdW  Elec       q    Type
                         _______ _______ _______ _____ _____    ______ ____

>  <TORSDO>
F 20

$$$$
=
 OpenBabel11062408473D

 55 59  0  0  1  0  0  0  0  0999 V2000
  161.5210  210.5370  150.5220 C   0  0  0  0  0  2  0  0  0  0  0  0
  161.0610  212.6040  148.6330 C   0  0  0  0  0  0  0  0  0  0  0  0
  162.2810  211.7620  148.3640 C   0  0  0  0  0  2  0  0  0  0  0  0
  161.1910  211.9440  150.9970 C   0  0  0  0  0  2  0  0  0  0  0  0
  162.4790  210.5650  149.3250 C   0  0  2  0  0  3  0  0  0  0  0  0
  160.5550  212.6900  149.8700 C   0  0  0  0  0  3  0  0  0  0  0  0
  160.5050  213.3200  147.5690 O   0  0  0  0  0  0  0  0  0  0  0  0
  159.3210  212.9090  146.8940 C   0  0  0  0  0  2  0  0  0  0  0  0
  158.7740  214.0620  146.0800 C   0  0  0  0  0  2  0  0  0  0  0  0
  158.4020  213.5710  144.6920 C   0  0  0  0  0  2  0  0  0  0  0  0
  159.6310  213.4540  143.7980 C   0  0  1  0  0  3  0  0  0  0  0  0
  159.2630  213.5950  142.3220 C   0  0  0  0  0  2  0  0  0  0  0  0
  161.5580  211.8450  141.0560 C   0  0  0  0  0  0  0  0  0  0  0  0
  158.1540  213.5210  139.8460 F   0  0  0  0  0  0  0  0  0  0  0  0
  159.1970  212.2380  141.6190 C   0  0  1  0  0  3  0  0  0  0  0  0
  162.1500  212.1070  137.4830 N   0  0  0  0  0  2  0  0  0  0  0  0
  157.9650  211.2920  139.8230 F   0  0  0  0  0  0  0  0  0  0  0  0
  158.8250  212.3350  140.1100 C   0  0  0  0  0  0  0  0  0  0  0  0
  162.6940  211.4450  141.4250 O   0  0  0  0  0  0  0  0  0  0  0  0
  161.1230  213.0390  137.0250 C   0  0  0  0  0  2  0  0  0  0  0  0
  159.8110  212.8100  137.7810 C   0  0  0  0  0  2  0  0  0  0  0  0
  161.3750  212.6490  139.8070 C   0  0  2  0  0  3  0  0  0  0  0  0
  160.0470  212.2080  139.1750 C   0  0  1  0  0  3  0  0  0  0  0  0
  162.5630  212.4950  138.8360 C   0  0  0  0  0  2  0  0  0  0  0  0
  160.4320  211.5490  141.8250 O   0  0  0  0  0  0  0  0  0  0  0  0
  160.7150  214.4510  144.2200 C   0  0  0  0  0  2  0  0  0  0  0  0
  162.9760  214.2880  143.1690 O   0  0  0  0  0  0  0  0  0  0  0  0
  162.0950  213.8740  144.1590 C   0  0  0  0  0  0  0  0  0  0  0  0
  162.4490  212.9920  144.9830 O   0  0  0  0  0  1  0  0  0  0  0  0
  162.3540  209.2510  148.5730 C   0  0  0  0  0  2  0  0  0  0  0  0
  161.2200  208.4060  149.1250 C   0  0  0  0  0  2  0  0  0  0  0  0
  161.8010  207.2180  149.8620 C   0  0  0  0  0  2  0  0  0  0  0  0
  160.9660  206.9100  151.0900 C   0  0  0  0  0  2  0  0  0  0  0  0
  161.4890  205.6370  151.7740 C   0  0  1  0  0  3  0  0  0  0  0  0
  162.3820  207.1480  153.3970 C   0  0  0  0  0  2  0  0  0  0  0  0
  160.7230  206.8090  155.1050 C   0  0  1  0  0  3  0  0  0  0  0  0
  161.7900  205.8250  153.2000 N   0  0  0  0  0  0  0  0  0  0  0  0
  160.5840  205.7600  154.0250 C   0  0  0  0  0  2  0  0  0  0  0  0
  161.6090  207.8630  154.4870 C   0  0  0  0  0  2  0  0  0  0  0  0
  159.3850  207.3590  155.5030 C   0  0  0  0  0  0  0  0  0  0  0  0
  158.2960  206.5150  155.6910 O   0  0  0  0  0  1  0  0  0  0  0  0
  159.2260  208.6040  155.6110 O   0  0  0  0  0  0  0  0  0  0  0  0
  160.5280  204.4630  151.5910 C   0  0  0  0  0  2  0  0  0  0  0  0
  161.1010  202.0600  147.7180 C   0  0  0  0  0  2  0  0  0  0  0  0
  160.1370  201.8310  148.8760 C   0  0  0  0  0  2  0  0  0  0  0  0
  161.7200  204.5550  149.4430 C   0  0  0  0  0  3  0  0  0  0  0  0
  160.5510  203.9500  150.1630 C   0  0  1  0  0  3  0  0  0  0  0  0
  160.6570  202.4290  150.1770 C   0  0  0  0  0  2  0  0  0  0  0  0
  161.9580  204.3580  148.1400 C   0  0  0  0  0  3  0  0  0  0  0  0
  161.0780  203.5140  147.2610 C   0  0  1  0  0  3  0  0  0  0  0  0
  161.5730  203.5860  145.8200 C   0  0  0  0  0  2  0  0  0  0  0  0
  160.7670  205.8990  146.1120 C   0  0  0  0  0  1  0  0  0  0  0  0
  161.1460  205.0640  143.8300 C   0  0  0  0  0  1  0  0  0  0  0  0
  163.0680  205.5400  145.3240 C   0  0  0  0  0  1  0  0  0  0  0  0
  161.6470  205.0090  145.2610 C   0  0  0  0  0  0  0  0  0  0  0  0
  1  4  1  0  0  0  0
  2  6  2  0  0  0  0
  3  2  1  0  0  0  0
  3  5  1  0  0  0  0
  5 30  1  6  0  0  0
  5  1  1  0  0  0  0
  6  4  1  0  0  0  0
  7  2  1  0  0  0  0
  8  7  1  0  0  0  0
  9  8  1  0  0  0  0
 10  9  1  0  0  0  0
 11 12  1  6  0  0  0
 11 26  1  0  0  0  0
 11 10  1  0  0  0  0
 13 19  2  0  0  0  0
 13 25  1  0  0  0  0
 14 18  1  0  0  0  0
 15 25  1  0  0  0  0
 15 12  1  6  0  0  0
 16 24  1  0  0  0  0
 17 18  1  0  0  0  0
 18 15  1  0  0  0  0
 20 16  1  0  0  0  0
 20 21  1  0  0  0  0
 22 24  1  6  0  0  0
 22 13  1  0  0  0  0
 23 21  1  6  0  0  0
 23 22  1  0  0  0  0
 23 18  1  0  0  0  0
 27 28  2  0  0  0  0
 28 26  1  0  0  0  0
 28 29  1  0  0  0  0
 30 31  1  0  0  0  0
 31 32  1  0  0  0  0
 32 33  1  0  0  0  0
 34 33  1  1  0  0  0
 34 37  1  0  0  0  0
 35 39  1  0  0  0  0
 36 40  1  6  0  0  0
 37 35  1  0  0  0  0
 37 38  1  0  0  0  0
 38 36  1  0  0  0  0
 39 36  1  0  0  0  0
 40 42  2  0  0  0  0
 40 41  1  0  0  0  0
 43 34  1  0  0  0  0
 44 45  1  0  0  0  0
 45 48  1  0  0  0  0
 46 47  1  0  0  0  0
 47 48  1  0  0  0  0
 47 43  1  1  0  0  0
 49 46  2  0  0  0  0
 50 51  1  6  0  0  0
 50 44  1  0  0  0  0
 50 49  1  0  0  0  0
 53 55  1  0  0  0  0
 55 54  1  0  0  0  0
 55 51  1  0  0  0  0
 55 52  1  0  0  0  0
M  END
>  <MODEL>
7

>  <REMARK>
 VINA RESULT:      -4.3      2.441      3.681
  Name = 
  20 active torsions:
  status: ('A' for Active; 'I' for Inactive)
    1  A    between atoms: C_2  and  C_28
    2  A    between atoms: C_2  and  C_44
    3  A    between atoms: C_6  and  C_46
    4  A    between atoms: C_8  and  C_20
    5  A    between atoms: C_8  and  C_22
    6  A    between atoms: C_10  and  C_32
    7  A    between atoms: C_17  and  C_36
    8  A    between atoms: C_19  and  C_40
    9  A    between atoms: C_19  and  C_45
   10  A    between atoms: C_22  and  C_35
   11  A    between atoms: C_22  and  C_46
   12  A    between atoms: C_27  and  O_54
   13  A    between atoms: C_28  and  C_49
   14  A    between atoms: C_33  and  C_49
   15  A    between atoms: C_33  and  C_52
   16  A    between atoms: N_34  and  C_52
   17  A    between atoms: C_35  and  C_43
   18  A    between atoms: C_36  and  C_52
   19  A    between atoms: C_43  and  C_51
   20  A    between atoms: C_51  and  O_54
                            x       y       z     vdW  Elec       q    Type
                         _______ _______ _______ _____ _____    ______ ____

>  <TORSDO>
F 20

$$$$
=
 OpenBabel11062408473D

 55 59  0  0  1  0  0  0  0  0999 V2000
  161.3170  204.3350  146.8660 C   0  0  0  0  0  2  0  0  0  0  0  0
  161.5920  205.2110  144.1810 C   0  0  0  0  0  0  0  0  0  0  0  0
  160.6020  205.9950  145.0030 C   0  0  0  0  0  2  0  0  0  0  0  0
  161.3050  203.3240  145.7300 C   0  0  0  0  0  2  0  0  0  0  0  0
  160.5250  205.5960  146.4970 C   0  0  2  0  0  3  0  0  0  0  0  0
  161.9160  203.9580  144.5230 C   0  0  0  0  0  3  0  0  0  0  0  0
  162.1230  205.8130  143.0370 O   0  0  0  0  0  0  0  0  0  0  0  0
  161.3160  206.2880  141.9660 C   0  0  0  0  0  2  0  0  0  0  0  0
  162.1910  206.6090  140.7740 C   0  0  0  0  0  2  0  0  0  0  0  0
  162.7630  208.0070  140.9260 C   0  0  0  0  0  2  0  0  0  0  0  0
  162.0400  209.0030  140.0260 C   0  0  1  0  0  3  0  0  0  0  0  0
  162.7410  210.3600  140.0180 C   0  0  0  0  0  2  0  0  0  0  0  0
  162.9550  213.3590  140.9640 C   0  0  0  0  0  0  0  0  0  0  0  0
  160.5010  210.2770  141.5460 F   0  0  0  0  0  0  0  0  0  0  0  0
  161.7480  211.5140  139.8750 C   0  0  1  0  0  3  0  0  0  0  0  0
  161.4360  214.2750  144.1330 N   0  0  0  0  0  2  0  0  0  0  0  0
  159.4590  211.8830  140.3880 F   0  0  0  0  0  0  0  0  0  0  0  0
  160.6560  211.5370  140.9850 C   0  0  0  0  0  0  0  0  0  0  0  0
  163.8190  214.2720  140.8770 O   0  0  0  0  0  0  0  0  0  0  0  0
  160.8140  213.0370  144.5940 C   0  0  0  0  0  2  0  0  0  0  0  0
  160.2170  212.2620  143.4150 C   0  0  0  0  0  2  0  0  0  0  0  0
  162.4310  212.8960  142.2880 C   0  0  2  0  0  3  0  0  0  0  0  0
  160.9430  212.5710  142.0970 C   0  0  1  0  0  3  0  0  0  0  0  0
  162.6620  213.9370  143.4020 C   0  0  0  0  0  2  0  0  0  0  0  0
  162.4730  212.7440  139.8080 O   0  0  0  0  0  0  0  0  0  0  0  0
  161.8600  208.4380  138.6140 C   0  0  0  0  0  2  0  0  0  0  0  0
  160.0500  207.6710  137.0710 O   0  0  0  0  0  0  0  0  0  0  0  0
  160.4340  208.4460  138.1580 C   0  0  0  0  0  0  0  0  0  0  0  0
  159.5880  209.1760  138.7360 O   0  0  0  0  0  1  0  0  0  0  0  0
  160.9960  206.7390  147.3790 C   0  0  0  0  0  2  0  0  0  0  0  0
  160.3890  206.6500  148.7670 C   0  0  0  0  0  2  0  0  0  0  0  0
  161.4190  207.0880  149.7870 C   0  0  0  0  0  2  0  0  0  0  0  0
  160.7320  207.7510  150.9660 C   0  0  0  0  0  2  0  0  0  0  0  0
  161.7560  208.0370  152.0760 C   0  0  1  0  0  3  0  0  0  0  0  0
  162.7010  209.9490  150.9960 C   0  0  0  0  0  2  0  0  0  0  0  0
  161.0420  211.5560  151.6670 C   0  0  1  0  0  3  0  0  0  0  0  0
  162.0700  209.4650  152.2240 N   0  0  0  0  0  0  0  0  0  0  0  0
  160.8670  210.2680  152.4410 C   0  0  0  0  0  2  0  0  0  0  0  0
  161.9550  211.1810  150.5250 C   0  0  0  0  0  2  0  0  0  0  0  0
  159.7230  212.0840  151.1850 C   0  0  0  0  0  0  0  0  0  0  0  0
  159.6490  212.8920  150.0560 O   0  0  0  0  0  0  0  0  0  0  0  0
  158.6750  211.8460  151.8420 O   0  0  0  0  0  1  0  0  0  0  0  0
  161.3100  207.4570  153.4180 C   0  0  0  0  0  2  0  0  0  0  0  0
  161.0360  209.9870  157.2430 C   0  0  0  0  0  2  0  0  0  0  0  0
  162.2610  209.5050  156.4760 C   0  0  0  0  0  2  0  0  0  0  0  0
  159.6650  208.6180  154.8280 C   0  0  0  0  0  3  0  0  0  0  0  0
  161.1160  208.5500  154.4530 C   0  0  1  0  0  3  0  0  0  0  0  0
  161.9730  208.2410  155.6760 C   0  0  0  0  0  2  0  0  0  0  0  0
  159.1670  209.5410  155.6610 C   0  0  0  0  0  3  0  0  0  0  0  0
  160.0080  210.6080  156.3040 C   0  0  1  0  0  3  0  0  0  0  0  0
  159.1160  211.5510  157.1040 C   0  0  0  0  0  2  0  0  0  0  0  0
  158.2190  213.8470  157.0050 C   0  0  0  0  0  1  0  0  0  0  0  0
  156.9380  212.0370  155.9420 C   0  0  0  0  0  1  0  0  0  0  0  0
  159.0680  212.8200  154.9400 C   0  0  0  0  0  1  0  0  0  0  0  0
  158.3360  212.5470  156.2410 C   0  0  0  0  0  0  0  0  0  0  0  0
  2  6  2  0  0  0  0
  2  3  1  0  0  0  0
  3  5  1  0  0  0  0
  4  1  1  0  0  0  0
  5  1  1  0  0  0  0
  5 30  1  1  0  0  0
  6  4  1  0  0  0  0
  7  2  1  0  0  0  0
  8  7  1  0  0  0  0
  9 10  1  0  0  0  0
  9  8  1  0  0  0  0
 11 26  1  6  0  0  0
 11 10  1  0  0  0  0
 12 11  1  0  0  0  0
 13 22  1  0  0  0  0
 15 12  1  1  0  0  0
 15 18  1  0  0  0  0
 16 20  1  0  0  0  0
 17 18  1  0  0  0  0
 18 14  1  0  0  0  0
 18 23  1  0  0  0  0
 19 13  2  0  0  0  0
 21 20  1  0  0  0  0
 22 24  1  1  0  0  0
 23 22  1  0  0  0  0
 23 21  1  1  0  0  0
 24 16  1  0  0  0  0
 25 15  1  0  0  0  0
 25 13  1  0  0  0  0
 27 28  2  0  0  0  0
 28 26  1  0  0  0  0
 28 29  1  0  0  0  0
 30 31  1  0  0  0  0
 31 32  1  0  0  0  0
 32 33  1  0  0  0  0
 34 33  1  6  0  0  0
 34 37  1  0  0  0  0
 34 43  1  0  0  0  0
 35 37  1  0  0  0  0
 36 40  1  6  0  0  0
 36 38  1  0  0  0  0
 37 38  1  0  0  0  0
 39 35  1  0  0  0  0
 39 36  1  0  0  0  0
 40 42  1  0  0  0  0
 41 40  2  0  0  0  0
 45 44  1  0  0  0  0
 46 49  2  0  0  0  0
 47 43  1  6  0  0  0
 47 46  1  0  0  0  0
 47 48  1  0  0  0  0
 48 45  1  0  0  0  0
 49 50  1  0  0  0  0
 50 51  1  1  0  0  0
 50 44  1  0  0  0  0
 53 55  1  0  0  0  0
 54 55  1  0  0  0  0
 55 52  1  0  0  0  0
 55 51  1  0  0  0  0
M  END
>  <MODEL>
8

>  <REMARK>
 VINA RESULT:      -3.1      2.463      7.098
  Name = 
  20 active torsions:
  status: ('A' for Active; 'I' for Inactive)
    1  A    between atoms: C_2  and  C_28
    2  A    between atoms: C_2  and  C_44
    3  A    between atoms: C_6  and  C_46
    4  A    between atoms: C_8  and  C_20
    5  A    between atoms: C_8  and  C_22
    6  A    between atoms: C_10  and  C_32
    7  A    between atoms: C_17  and  C_36
    8  A    between atoms: C_19  and  C_40
    9  A    between atoms: C_19  and  C_45
   10  A    between atoms: C_22  and  C_35
   11  A    between atoms: C_22  and  C_46
   12  A    between atoms: C_27  and  O_54
   13  A    between atoms: C_28  and  C_49
   14  A    between atoms: C_33  and  C_49
   15  A    between atoms: C_33  and  C_52
   16  A    between atoms: N_34  and  C_52
   17  A    between atoms: C_35  and  C_43
   18  A    between atoms: C_36  and  C_52
   19  A    between atoms: C_43  and  C_51
   20  A    between atoms: C_51  and  O_54
                            x       y       z     vdW  Elec       q    Type
                         _______ _______ _______ _____ _____    ______ ____

>  <TORSDO>
F 20

$$$$
=
 OpenBabel11062408473D

 55 59  0  0  1  0  0  0  0  0999 V2000
  160.2460  213.1660  147.5290 C   0  0  0  0  0  2  0  0  0  0  0  0
  161.6870  210.9220  148.4980 C   0  0  0  0  0  0  0  0  0  0  0  0
  161.8780  212.1870  149.2930 C   0  0  0  0  0  2  0  0  0  0  0  0
  161.0400  212.2970  146.5660 C   0  0  0  0  0  2  0  0  0  0  0  0
  161.0120  213.3870  148.8390 C   0  0  2  0  0  3  0  0  0  0  0  0
  161.2980  210.9780  147.2180 C   0  0  0  0  0  3  0  0  0  0  0  0
  161.9680  209.7020  149.1200 O   0  0  0  0  0  0  0  0  0  0  0  0
  162.4270  208.5590  148.4080 C   0  0  0  0  0  2  0  0  0  0  0  0
  161.2510  207.6740  148.0560 C   0  0  0  0  0  2  0  0  0  0  0  0
  161.6090  206.2230  148.3280 C   0  0  0  0  0  2  0  0  0  0  0  0
  162.0040  205.5000  147.0460 C   0  0  1  0  0  3  0  0  0  0  0  0
  162.0800  203.9880  147.2580 C   0  0  0  0  0  2  0  0  0  0  0  0
  161.0300  201.3360  148.5970 C   0  0  0  0  0  0  0  0  0  0  0  0
  161.3230  202.8370  144.9200 F   0  0  0  0  0  0  0  0  0  0  0  0
  160.6970  203.3370  147.2080 C   0  0  1  0  0  3  0  0  0  0  0  0
  161.0030  198.2980  146.6070 N   0  0  0  0  0  2  0  0  0  0  0  0
  159.1730  202.6690  145.5140 F   0  0  0  0  0  0  0  0  0  0  0  0
  160.4680  202.4560  145.9440 C   0  0  0  0  0  0  0  0  0  0  0  0
  161.0780  200.8280  149.7490 O   0  0  0  0  0  0  0  0  0  0  0  0
  161.4780  198.7340  145.2970 C   0  0  0  0  0  2  0  0  0  0  0  0
  160.9320  200.1240  144.9590 C   0  0  0  0  0  2  0  0  0  0  0  0
  161.5600  200.6140  147.3970 C   0  0  2  0  0  3  0  0  0  0  0  0
  160.6280  200.9450  146.2220 C   0  0  1  0  0  3  0  0  0  0  0  0
  161.6790  199.0950  147.6370 C   0  0  0  0  0  2  0  0  0  0  0  0
  160.4840  202.6070  148.4180 O   0  0  0  0  0  0  0  0  0  0  0  0
  161.0690  205.8750  145.8920 C   0  0  0  0  0  2  0  0  0  0  0  0
  163.0690  205.7960  144.3970 O   0  0  0  0  0  1  0  0  0  0  0  0
  161.6940  205.6780  144.5460 C   0  0  0  0  0  0  0  0  0  0  0  0
  160.9740  205.4390  143.5430 O   0  0  0  0  0  0  0  0  0  0  0  0
  160.0190  213.7690  149.9230 C   0  0  0  0  0  2  0  0  0  0  0  0
  160.1380  212.8540  151.1270 C   0  0  0  0  0  2  0  0  0  0  0  0
  159.0360  213.1850  152.1120 C   0  0  0  0  0  2  0  0  0  0  0  0
  159.6260  213.4350  153.4860 C   0  0  0  0  0  2  0  0  0  0  0  0
  159.6360  212.1300  154.2980 C   0  0  1  0  0  3  0  0  0  0  0  0
  159.0060  213.7370  155.9520 C   0  0  0  0  0  2  0  0  0  0  0  0
  157.2240  212.4800  156.9650 C   0  0  1  0  0  3  0  0  0  0  0  0
  159.2540  212.3170  155.7050 N   0  0  0  0  0  0  0  0  0  0  0  0
  158.0240  211.5960  156.0350 C   0  0  0  0  0  2  0  0  0  0  0  0
  157.6420  213.8820  156.5970 C   0  0  0  0  0  2  0  0  0  0  0  0
  155.7500  212.2640  156.7840 C   0  0  0  0  0  0  0  0  0  0  0  0
  155.2600  211.0490  156.3190 O   0  0  0  0  0  0  0  0  0  0  0  0
  154.9470  213.2120  156.9960 O   0  0  0  0  0  1  0  0  0  0  0  0
  158.7560  211.0590  153.6540 C   0  0  0  0  0  2  0  0  0  0  0  0
  161.4940  207.4340  154.3360 C   0  0  0  0  0  2  0  0  0  0  0  0
  160.3570  207.9750  155.1940 C   0  0  0  0  0  2  0  0  0  0  0  0
  160.4810  209.7250  152.5180 C   0  0  0  0  0  3  0  0  0  0  0  0
  159.4620  209.7150  153.6190 C   0  0  1  0  0  3  0  0  0  0  0  0
  160.1280  209.4630  154.9660 C   0  0  0  0  0  2  0  0  0  0  0  0
  161.2080  208.6510  152.1840 C   0  0  0  0  0  3  0  0  0  0  0  0
  161.0770  207.3230  152.8740 C   0  0  1  0  0  3  0  0  0  0  0  0
  161.9680  206.2960  152.1830 C   0  0  0  0  0  2  0  0  0  0  0  0
  162.2160  204.1080  151.0710 C   0  0  0  0  0  1  0  0  0  0  0  0
  160.0410  205.2490  150.9510 C   0  0  0  0  0  1  0  0  0  0  0  0
  160.8180  204.2570  153.0880 C   0  0  0  0  0  1  0  0  0  0  0  0
  161.2500  204.9910  151.8310 C   0  0  0  0  0  0  0  0  0  0  0  0
  1  5  1  0  0  0  0
  2  7  1  0  0  0  0
  2  3  1  0  0  0  0
  4  6  1  0  0  0  0
  4  1  1  0  0  0  0
  5  3  1  0  0  0  0
  5 30  1  1  0  0  0
  6  2  2  0  0  0  0
  8  7  1  0  0  0  0
  9 10  1  0  0  0  0
  9  8  1  0  0  0  0
 11 26  1  6  0  0  0
 11 12  1  0  0  0  0
 11 10  1  0  0  0  0
 13 19  2  0  0  0  0
 14 18  1  0  0  0  0
 15 12  1  1  0  0  0
 15 25  1  0  0  0  0
 16 24  1  0  0  0  0
 17 18  1  0  0  0  0
 18 23  1  0  0  0  0
 18 15  1  0  0  0  0
 20 16  1  0  0  0  0
 21 20  1  0  0  0  0
 22 24  1  1  0  0  0
 22 13  1  0  0  0  0
 23 21  1  6  0  0  0
 23 22  1  0  0  0  0
 25 13  1  0  0  0  0
 27 28  1  0  0  0  0
 28 26  1  0  0  0  0
 29 28  2  0  0  0  0
 30 31  1  0  0  0  0
 31 32  1  0  0  0  0
 32 33  1  0  0  0  0
 34 33  1  6  0  0  0
 34 37  1  0  0  0  0
 35 39  1  0  0  0  0
 36 40  1  6  0  0  0
 37 35  1  0  0  0  0
 37 38  1  0  0  0  0
 38 36  1  0  0  0  0
 39 36  1  0  0  0  0
 40 42  1  0  0  0  0
 41 40  2  0  0  0  0
 43 34  1  0  0  0  0
 44 45  1  0  0  0  0
 46 47  1  0  0  0  0
 47 43  1  1  0  0  0
 47 48  1  0  0  0  0
 48 45  1  0  0  0  0
 49 46  2  0  0  0  0
 49 50  1  0  0  0  0
 50 51  1  6  0  0  0
 50 44  1  0  0  0  0
 52 55  1  0  0  0  0
 53 55  1  0  0  0  0
 55 51  1  0  0  0  0
 55 54  1  0  0  0  0
M  END
>  <MODEL>
9

>  <REMARK>
 VINA RESULT:      -3.0      5.000      7.828
  Name = 
  20 active torsions:
  status: ('A' for Active; 'I' for Inactive)
    1  A    between atoms: C_2  and  C_28
    2  A    between atoms: C_2  and  C_44
    3  A    between atoms: C_6  and  C_46
    4  A    between atoms: C_8  and  C_20
    5  A    between atoms: C_8  and  C_22
    6  A    between atoms: C_10  and  C_32
    7  A    between atoms: C_17  and  C_36
    8  A    between atoms: C_19  and  C_40
    9  A    between atoms: C_19  and  C_45
   10  A    between atoms: C_22  and  C_35
   11  A    between atoms: C_22  and  C_46
   12  A    between atoms: C_27  and  O_54
   13  A    between atoms: C_28  and  C_49
   14  A    between atoms: C_33  and  C_49
   15  A    between atoms: C_33  and  C_52
   16  A    between atoms: N_34  and  C_52
   17  A    between atoms: C_35  and  C_43
   18  A    between atoms: C_36  and  C_52
   19  A    between atoms: C_43  and  C_51
   20  A    between atoms: C_51  and  O_54
                            x       y       z     vdW  Elec       q    Type
                         _______ _______ _______ _____ _____    ______ ____

>  <TORSDO>
F 20

$$$$
