=
 OpenBabel11062409513D

 34 39  0  0  1  0  0  0  0  0999 V2000
  159.9770  210.0830  155.0830 C   0  0  1  0  0  3  0  0  0  0  0  0
  161.5680  207.2080  153.1320 C   0  0  0  0  0  0  0  0  0  0  0  0
  161.7900  207.5870  155.5730 C   0  0  1  0  0  3  0  0  0  0  0  0
  158.5780  208.1160  155.7600 C   0  0  0  0  0  2  0  0  0  0  0  0
  159.4340  207.8880  156.9890 C   0  0  0  0  0  2  0  0  0  0  0  0
  161.7640  208.5210  156.7510 C   0  0  0  0  0  2  0  0  0  0  0  0
  158.5680  209.6040  155.4270 C   0  0  0  0  0  2  0  0  0  0  0  0
  160.8360  207.3060  156.7530 C   0  0  2  0  0  3  0  0  0  0  0  0
  162.2530  206.0180  153.3700 O   0  0  0  0  0  1  0  0  0  0  0  0
  161.2250  207.5690  151.8110 C   0  0  0  0  0  0  0  0  0  0  0  0
  160.5440  208.7680  151.5910 C   0  0  0  0  0  3  0  0  0  0  0  0
  161.2370  208.0430  154.2250 C   0  0  0  0  0  0  0  0  0  0  0  0
  160.2010  209.5930  152.6540 C   0  0  0  0  0  3  0  0  0  0  0  0
  160.5540  209.2640  153.9680 C   0  0  0  0  0  0  0  0  0  0  0  0
  159.0070  212.2650  154.0500 C   0  0  1  0  0  3  0  0  0  0  0  0
  158.5810  213.9240  156.6820 C   0  0  0  0  0  2  0  0  0  0  0  0
  155.4070  212.9740  153.7550 C   0  0  0  0  0  2  0  0  0  0  0  0
  160.5040  212.2870  156.2350 C   0  0  1  0  0  3  0  0  0  0  0  0
  160.1130  211.6020  154.9080 C   0  0  1  0  0  3  0  0  0  0  0  0
  155.3350  213.5680  156.1610 C   0  0  0  0  0  0  0  0  0  0  0  0
  156.7830  213.5570  154.0150 C   0  0  2  0  0  3  0  0  0  0  0  0
  154.2760  213.8330  156.7100 O   0  0  0  0  0  0  0  0  0  0  0  0
  157.6430  212.5140  154.7450 C   0  0  2  0  0  3  0  0  0  0  0  0
  161.8850  212.1760  156.4090 O   0  0  0  0  0  1  0  0  0  0  0  0
  160.8300  214.4530  157.2610 O   0  0  0  0  0  1  0  0  0  0  0  0
  155.5590  214.0920  154.7650 C   0  0  1  0  0  3  0  0  0  0  0  0
  156.3500  212.7560  156.9180 C   0  0  2  0  0  3  0  0  0  0  0  0
  157.7210  212.7330  156.2600 C   0  0  2  0  0  3  0  0  0  0  0  0
  155.8470  211.3370  157.1160 C   0  0  0  0  0  1  0  0  0  0  0  0
  160.0630  213.7610  156.3220 C   0  0  2  0  0  3  0  0  0  0  0  0
  159.5710  213.4730  153.3100 C   0  0  0  0  0  1  0  0  0  0  0  0
  161.5620  206.7230  150.6410 C   0  0  0  0  0  0  0  0  0  0  0  0
  160.9770  205.4750  150.4620 O   0  0  0  0  0  1  0  0  0  0  0  0
  162.3910  207.1320  149.7840 O   0  0  0  0  0  0  0  0  0  0  0  0
  1  7  1  6  0  0  0
  2  9  1  0  0  0  0
  2 12  1  0  0  0  0
  3  6  1  1  0  0  0
  3  8  1  0  0  0  0
  4  5  1  0  0  0  0
  7  4  1  0  0  0  0
  8  6  1  1  0  0  0
  8  5  1  0  0  0  0
 10  2  2  0  0  0  0
 11 10  1  0  0  0  0
 11 13  2  0  0  0  0
 12  3  1  0  0  0  0
 13 14  1  0  0  0  0
 14 12  2  0  0  0  0
 14  1  1  0  0  0  0
 15 31  1  1  0  0  0
 15 23  1  0  0  0  0
 15 19  1  0  0  0  0
 17 26  1  0  0  0  0
 18 30  1  0  0  0  0
 18 24  1  6  0  0  0
 19  1  1  1  0  0  0
 19 18  1  0  0  0  0
 20 22  2  0  0  0  0
 20 27  1  0  0  0  0
 21 17  1  6  0  0  0
 21 23  1  0  0  0  0
 21 26  1  0  0  0  0
 23 28  1  0  0  0  0
 26 20  1  0  0  0  0
 27 29  1  0  0  0  0
 28 16  1  0  0  0  0
 28 27  1  0  0  0  0
 30 16  1  0  0  0  0
 30 25  1  0  0  0  0
 32 10  1  0  0  0  0
 33 32  1  0  0  0  0
 34 32  2  0  0  0  0
M  END
>  <MODEL>
1

>  <REMARK>
 VINA RESULT:      -2.8      0.000      0.000
  Name = 
  2 active torsions:
  status: ('A' for Active; 'I' for Inactive)
    1  A    between atoms: C_1  and  C_9
    2  A    between atoms: C_3  and  C_25
                            x       y       z     vdW  Elec       q    Type
                         _______ _______ _______ _____ _____    ______ ____

>  <TORSDO>
F 2

$$$$
=
 OpenBabel11062409513D

 34 39  0  0  1  0  0  0  0  0999 V2000
  158.8700  211.4080  156.0900 C   0  0  1  0  0  3  0  0  0  0  0  0
  157.7920  212.6180  152.6300 C   0  0  0  0  0  0  0  0  0  0  0  0
  156.5060  211.0690  154.0770 C   0  0  1  0  0  3  0  0  0  0  0  0
  157.0410  213.0370  156.6210 C   0  0  0  0  0  2  0  0  0  0  0  0
  156.0150  211.9230  156.6610 C   0  0  0  0  0  2  0  0  0  0  0  0
  156.4710  210.0520  155.1850 C   0  0  0  0  0  2  0  0  0  0  0  0
  158.3930  212.4870  157.0600 C   0  0  0  0  0  2  0  0  0  0  0  0
  155.6110  211.3100  155.3120 C   0  0  2  0  0  3  0  0  0  0  0  0
  156.6760  212.5850  151.7960 O   0  0  0  0  0  1  0  0  0  0  0  0
  158.9390  213.3440  152.2390 C   0  0  0  0  0  0  0  0  0  0  0  0
  160.0500  213.3620  153.0840 C   0  0  0  0  0  3  0  0  0  0  0  0
  157.7590  211.9130  153.8550 C   0  0  0  0  0  0  0  0  0  0  0  0
  160.0290  212.6840  154.2960 C   0  0  0  0  0  3  0  0  0  0  0  0
  158.9100  211.9400  154.6890 C   0  0  0  0  0  0  0  0  0  0  0  0
  160.1540  209.1470  156.2010 C   0  0  1  0  0  3  0  0  0  0  0  0
  162.7680  209.9750  154.6700 C   0  0  0  0  0  2  0  0  0  0  0  0
  160.1170  206.6320  153.5140 C   0  0  0  0  0  2  0  0  0  0  0  0
  161.4070  211.4790  156.2380 C   0  0  1  0  0  3  0  0  0  0  0  0
  160.1340  210.6590  156.5350 C   0  0  1  0  0  3  0  0  0  0  0  0
  161.7480  207.9880  152.2310 C   0  0  0  0  0  0  0  0  0  0  0  0
  160.9450  207.3000  154.5950 C   0  0  2  0  0  3  0  0  0  0  0  0
  162.0820  207.6640  151.1010 O   0  0  0  0  0  0  0  0  0  0  0  0
  160.4990  208.7630  154.7380 C   0  0  2  0  0  3  0  0  0  0  0  0
  161.5900  212.4130  157.2610 O   0  0  0  0  0  1  0  0  0  0  0  0
  163.8230  211.3720  156.2850 O   0  0  0  0  0  1  0  0  0  0  0  0
  161.5860  206.9000  153.2610 C   0  0  1  0  0  3  0  0  0  0  0  0
  161.5380  209.4490  152.5230 C   0  0  2  0  0  3  0  0  0  0  0  0
  161.4080  209.7580  154.0070 C   0  0  2  0  0  3  0  0  0  0  0  0
  160.3200  209.9650  151.7780 C   0  0  0  0  0  1  0  0  0  0  0  0
  162.6710  210.6170  156.0600 C   0  0  2  0  0  3  0  0  0  0  0  0
  160.9440  208.3850  157.2590 C   0  0  0  0  0  1  0  0  0  0  0  0
  159.0120  214.0890  150.9600 C   0  0  0  0  0  0  0  0  0  0  0  0
  157.8630  214.4170  150.2500 O   0  0  0  0  0  0  0  0  0  0  0  0
  160.1310  214.4390  150.4970 O   0  0  0  0  0  1  0  0  0  0  0  0
  1  7  1  1  0  0  0
  2 12  1  0  0  0  0
  3  6  1  1  0  0  0
  3  8  1  0  0  0  0
  4  5  1  0  0  0  0
  4  7  1  0  0  0  0
  8  6  1  1  0  0  0
  8  5  1  0  0  0  0
  9  2  1  0  0  0  0
 10  2  2  0  0  0  0
 10 11  1  0  0  0  0
 11 13  2  0  0  0  0
 12  3  1  0  0  0  0
 12 14  2  0  0  0  0
 13 14  1  0  0  0  0
 14  1  1  0  0  0  0
 15 19  1  0  0  0  0
 15 31  1  1  0  0  0
 16 30  1  0  0  0  0
 18 19  1  0  0  0  0
 18 24  1  1  0  0  0
 19  1  1  6  0  0  0
 20 27  1  0  0  0  0
 20 26  1  0  0  0  0
 21 17  1  6  0  0  0
 21 23  1  0  0  0  0
 22 20  2  0  0  0  0
 23 15  1  0  0  0  0
 26 17  1  0  0  0  0
 26 21  1  0  0  0  0
 27 28  1  0  0  0  0
 28 16  1  0  0  0  0
 28 23  1  0  0  0  0
 29 27  1  0  0  0  0
 30 18  1  0  0  0  0
 30 25  1  0  0  0  0
 32 10  1  0  0  0  0
 33 32  2  0  0  0  0
 34 32  1  0  0  0  0
M  END
>  <MODEL>
2

>  <REMARK>
 VINA RESULT:      -0.8      2.401      6.316
  Name = 
  2 active torsions:
  status: ('A' for Active; 'I' for Inactive)
    1  A    between atoms: C_1  and  C_9
    2  A    between atoms: C_3  and  C_25
                            x       y       z     vdW  Elec       q    Type
                         _______ _______ _______ _____ _____    ______ ____

>  <TORSDO>
F 2

$$$$
=
 OpenBabel11062409513D

 34 39  0  0  1  0  0  0  0  0999 V2000
  160.1000  209.9960  154.8430 C   0  0  1  0  0  3  0  0  0  0  0  0
  161.5840  207.2300  152.6630 C   0  0  0  0  0  0  0  0  0  0  0  0
  161.8430  207.4200  155.1220 C   0  0  1  0  0  3  0  0  0  0  0  0
  158.6500  208.0260  155.3900 C   0  0  0  0  0  2  0  0  0  0  0  0
  159.5120  207.6820  156.5880 C   0  0  0  0  0  2  0  0  0  0  0  0
  161.8570  208.2640  156.3670 C   0  0  0  0  0  2  0  0  0  0  0  0
  158.6810  209.5340  155.1690 C   0  0  0  0  0  2  0  0  0  0  0  0
  160.8940  207.0790  156.2910 C   0  0  2  0  0  3  0  0  0  0  0  0
  162.2350  206.0060  152.8030 O   0  0  0  0  0  1  0  0  0  0  0  0
  161.2370  207.6990  151.3770 C   0  0  0  0  0  0  0  0  0  0  0  0
  160.5900  208.9300  151.2550 C   0  0  0  0  0  3  0  0  0  0  0  0
  161.2890  207.9900  153.8190 C   0  0  0  0  0  0  0  0  0  0  0  0
  160.2830  209.6830  152.3810 C   0  0  0  0  0  3  0  0  0  0  0  0
  160.6400  209.2460  153.6620 C   0  0  0  0  0  0  0  0  0  0  0  0
  159.7560  212.1890  153.4840 C   0  0  1  0  0  3  0  0  0  0  0  0
  158.0140  213.7930  155.5470 C   0  0  0  0  0  2  0  0  0  0  0  0
  156.8010  212.8690  151.3980 C   0  0  0  0  0  2  0  0  0  0  0  0
  159.9240  212.1840  156.1270 C   0  0  1  0  0  3  0  0  0  0  0  0
  160.2790  211.5200  154.7790 C   0  0  1  0  0  3  0  0  0  0  0  0
  155.4980  213.4170  153.4350 C   0  0  0  0  0  0  0  0  0  0  0  0
  157.8400  213.4600  152.3310 C   0  0  2  0  0  3  0  0  0  0  0  0
  154.3030  213.6610  153.3670 O   0  0  0  0  0  0  0  0  0  0  0  0
  158.2240  212.4120  153.3860 C   0  0  2  0  0  3  0  0  0  0  0  0
  161.0240  212.0820  156.9810 O   0  0  0  0  0  1  0  0  0  0  0  0
  159.6420  214.3320  157.2010 O   0  0  0  0  0  1  0  0  0  0  0  0
  156.3950  213.9700  152.3560 C   0  0  1  0  0  3  0  0  0  0  0  0
  155.9980  212.6000  154.5950 C   0  0  2  0  0  3  0  0  0  0  0  0
  157.5130  212.6030  154.7300 C   0  0  2  0  0  3  0  0  0  0  0  0
  155.4890  211.1730  154.4910 C   0  0  0  0  0  1  0  0  0  0  0  0
  159.4750  213.6510  155.9940 C   0  0  2  0  0  3  0  0  0  0  0  0
  160.5970  213.4160  153.1500 C   0  0  0  0  0  1  0  0  0  0  0  0
  161.5360  206.9330  150.1430 C   0  0  0  0  0  0  0  0  0  0  0  0
  160.8070  205.7980  149.8050 O   0  0  0  0  0  1  0  0  0  0  0  0
  162.4640  207.3080  149.3770 O   0  0  0  0  0  0  0  0  0  0  0  0
  1  7  1  6  0  0  0
  2  9  1  0  0  0  0
  2 12  1  0  0  0  0
  3  8  1  0  0  0  0
  3  6  1  1  0  0  0
  4  5  1  0  0  0  0
  7  4  1  0  0  0  0
  8  6  1  1  0  0  0
  8  5  1  0  0  0  0
 10  2  2  0  0  0  0
 11 10  1  0  0  0  0
 11 13  2  0  0  0  0
 12  3  1  0  0  0  0
 13 14  1  0  0  0  0
 14 12  2  0  0  0  0
 14  1  1  0  0  0  0
 15 31  1  1  0  0  0
 15 19  1  0  0  0  0
 16 30  1  0  0  0  0
 17 26  1  0  0  0  0
 18 24  1  1  0  0  0
 19  1  1  1  0  0  0
 19 18  1  0  0  0  0
 20 27  1  0  0  0  0
 21 17  1  6  0  0  0
 21 26  1  0  0  0  0
 21 23  1  0  0  0  0
 22 20  2  0  0  0  0
 23 15  1  0  0  0  0
 23 28  1  0  0  0  0
 26 20  1  0  0  0  0
 27 28  1  0  0  0  0
 28 16  1  0  0  0  0
 29 27  1  0  0  0  0
 30 18  1  0  0  0  0
 30 25  1  0  0  0  0
 32 10  1  0  0  0  0
 33 32  1  0  0  0  0
 34 32  2  0  0  0  0
M  END
>  <MODEL>
3

>  <REMARK>
 VINA RESULT:      -0.1      1.138      1.376
  Name = 
  2 active torsions:
  status: ('A' for Active; 'I' for Inactive)
    1  A    between atoms: C_1  and  C_9
    2  A    between atoms: C_3  and  C_25
                            x       y       z     vdW  Elec       q    Type
                         _______ _______ _______ _____ _____    ______ ____

>  <TORSDO>
F 2

$$$$
