=
 OpenBabel11062409013D

 37 44  0  0  1  0  0  0  0  0999 V2000
  161.9950  210.4590  149.8840 C   0  0  0  0  0  2  0  0  0  0  0  0
  158.5730  213.0350  149.8740 C   0  0  0  0  0  0  0  0  0  0  0  0
  162.1160  208.9500  149.8420 C   0  0  1  0  0  3  0  0  0  0  0  0
  159.3610  211.8370  153.3800 C   0  0  0  0  0  2  0  0  0  0  0  0
  158.9860  213.4350  147.5000 C   0  0  0  0  0  0  0  0  0  0  0  0
  159.2290  212.6960  150.9840 C   0  0  0  0  0  0  0  0  0  0  0  0
  162.2780  210.3810  152.7920 C   0  0  1  0  0  3  0  0  0  0  0  0
  159.4610  213.2030  148.7430 C   0  0  2  0  0  3  0  0  0  0  0  0
  158.6200  212.6360  152.3470 C   0  0  0  0  0  0  0  0  0  0  0  0
  157.5210  213.5330  147.3150 C   0  0  0  0  0  3  0  0  0  0  0  0
  162.5210  208.4780  151.2230 C   0  0  0  0  0  2  0  0  0  0  0  0
  160.8270  212.9330  149.2720 C   0  0  0  0  0  0  0  0  0  0  0  0
  161.5740  214.2530  149.3960 C   0  0  0  0  0  2  0  0  0  0  0  0
  156.7130  214.4140  150.5980 C   0  0  0  0  0  3  0  0  0  0  0  0
  156.6600  213.4480  148.3400 C   0  0  0  0  0  3  0  0  0  0  0  0
  162.1580  213.1380  148.5650 C   0  0  0  0  0  2  0  0  0  0  0  0
  161.6590  209.0500  152.3520 C   0  0  2  0  0  3  0  0  0  0  0  0
  159.6240  210.4210  152.9090 C   0  0  0  0  0  2  0  0  0  0  0  0
  157.0970  213.2430  149.7710 C   0  0  0  0  0  0  0  0  0  0  0  0
  160.6800  212.3410  150.6870 C   0  0  2  0  0  3  0  0  0  0  0  0
  157.5650  213.4100  152.7500 C   0  0  0  0  0  0  0  0  0  0  0  0
  160.9150  210.3700  152.0970 C   0  0  1  0  0  0  0  0  0  0  0  0
  162.1860  210.4990  154.3040 C   0  0  0  0  0  1  0  0  0  0  0  0
  160.8370  210.8640  150.6940 N   0  0  2  0  0  0  0  0  0  0  0  0
  156.9160  214.4530  151.9140 C   0  0  0  0  0  3  0  0  0  0  0  0
  157.4130  214.2780  155.0450 C   0  0  0  0  0  3  0  0  0  0  0  0
  157.0550  213.3500  154.1440 C   0  0  0  0  0  0  0  0  0  0  0  0
  156.2260  212.2030  154.5780 C   0  0  0  0  0  3  0  0  0  0  0  0
  155.2160  210.8890  156.2540 O   0  0  0  0  0  1  0  0  0  0  0  0
  156.6800  212.8040  156.9280 C   0  0  0  0  0  2  0  0  0  0  0  0
  156.0110  211.9620  155.8760 C   0  0  0  0  0  0  0  0  0  0  0  0
  156.8660  214.2440  156.4440 C   0  0  0  0  0  2  0  0  0  0  0  0
  159.8430  212.6340  145.3350 C   0  0  0  0  0  3  0  0  0  0  0  0
  159.8100  213.5560  146.2880 C   0  0  0  0  0  3  0  0  0  0  0  0
  160.6450  212.8190  144.2190 O   0  0  0  0  0  1  0  0  0  0  0  0
  161.2680  207.3250  148.6010 C   0  0  0  0  0  1  0  0  0  0  0  0
  160.9060  208.3660  149.4570 O   0  0  0  0  0  0  0  0  0  0  0  0
  2  6  2  0  0  0  0
  3 37  1  1  0  0  0
  3  1  1  0  0  0  0
  3 11  1  0  0  0  0
  6  9  1  0  0  0  0
  7 23  1  1  0  0  0
  8  5  1  6  0  0  0
  8 12  1  0  0  0  0
  8  2  1  0  0  0  0
  9 21  2  0  0  0  0
  9  4  1  0  0  0  0
 10  5  2  0  0  0  0
 10 15  1  0  0  0  0
 12 13  1  0  0  0  0
 12 20  1  0  0  0  0
 14 25  2  0  0  0  0
 15 19  2  0  0  0  0
 16 12  1  0  0  0  0
 16 13  1  0  0  0  0
 17 11  1  6  0  0  0
 17  7  1  0  0  0  0
 18  4  1  0  0  0  0
 19  2  1  0  0  0  0
 19 14  1  0  0  0  0
 20 24  1  0  0  0  0
 20  6  1  6  0  0  0
 21 27  1  0  0  0  0
 22 17  1  0  0  0  0
 22  7  1  0  0  0  0
 22 18  1  1  0  0  0
 24  1  1  6  0  0  0
 24 22  1  0  0  0  0
 25 21  1  0  0  0  0
 26 32  1  0  0  0  0
 27 28  1  0  0  0  0
 27 26  2  0  0  0  0
 28 31  2  0  0  0  0
 31 29  1  0  0  0  0
 31 30  1  0  0  0  0
 32 30  1  0  0  0  0
 33 34  2  0  0  0  0
 34  5  1  0  0  0  0
 35 33  1  0  0  0  0
 36 37  1  0  0  0  0
M  END
>  <MODEL>
1

>  <REMARK>
 VINA RESULT:      -4.5      0.000      0.000
  Name = 
  3 active torsions:
  status: ('A' for Active; 'I' for Inactive)
    1  A    between atoms: C_5  and  O_23
    2  A    between atoms: C_6  and  C_31
    3  A    between atoms: C_9  and  C_30
                            x       y       z     vdW  Elec       q    Type
                         _______ _______ _______ _____ _____    ______ ____

>  <TORSDO>
F 3

$$$$
=
 OpenBabel11062409013D

 37 44  0  0  1  0  0  0  0  0999 V2000
  160.9900  210.3210  155.0740 C   0  0  0  0  0  2  0  0  0  0  0  0
  161.3100  208.8480  151.0640 C   0  0  0  0  0  0  0  0  0  0  0  0
  162.0220  210.4840  156.1690 C   0  0  1  0  0  3  0  0  0  0  0  0
  160.8530  206.0040  153.5240 C   0  0  0  0  0  2  0  0  0  0  0  0
  161.3130  211.1690  150.3020 C   0  0  0  0  0  0  0  0  0  0  0  0
  160.8750  208.1070  152.0830 C   0  0  0  0  0  0  0  0  0  0  0  0
  160.1800  207.7690  156.2440 C   0  0  1  0  0  3  0  0  0  0  0  0
  160.8840  210.2280  151.1710 C   0  0  2  0  0  3  0  0  0  0  0  0
  160.9890  206.6190  152.1600 C   0  0  0  0  0  0  0  0  0  0  0  0
  162.2260  210.7560  149.2130 C   0  0  0  0  0  3  0  0  0  0  0  0
  161.7810  209.4010  157.2000 C   0  0  0  0  0  2  0  0  0  0  0  0
  160.0790  210.2950  152.4220 C   0  0  0  0  0  0  0  0  0  0  0  0
  158.6070  210.4090  152.0530 C   0  0  0  0  0  2  0  0  0  0  0  0
  161.3280  207.3810  149.1330 C   0  0  0  0  0  3  0  0  0  0  0  0
  162.5990  209.4800  149.0330 C   0  0  0  0  0  3  0  0  0  0  0  0
  159.2410  211.4590  152.9310 C   0  0  0  0  0  2  0  0  0  0  0  0
  161.6520  207.9960  156.6050 C   0  0  2  0  0  3  0  0  0  0  0  0
  161.8280  206.6120  154.5120 C   0  0  0  0  0  2  0  0  0  0  0  0
  162.1310  208.3500  149.9190 C   0  0  0  0  0  0  0  0  0  0  0  0
  160.2720  208.9690  153.1830 C   0  0  2  0  0  3  0  0  0  0  0  0
  161.0080  205.7930  151.0680 C   0  0  0  0  0  0  0  0  0  0  0  0
  161.2260  207.8700  155.1340 C   0  0  1  0  0  0  0  0  0  0  0  0
  159.7970  206.3390  156.5890 C   0  0  0  0  0  1  0  0  0  0  0  0
  161.2460  209.1000  154.2960 N   0  0  2  0  0  0  0  0  0  0  0  0
  160.8600  206.2510  149.6610 C   0  0  0  0  0  3  0  0  0  0  0  0
  161.9460  203.7360  152.0330 C   0  0  0  0  0  3  0  0  0  0  0  0
  161.0500  204.3160  151.2200 C   0  0  0  0  0  0  0  0  0  0  0  0
  160.1670  203.4630  150.3920 C   0  0  0  0  0  3  0  0  0  0  0  0
  159.5360  201.3710  149.5090 O   0  0  0  0  0  1  0  0  0  0  0  0
  161.5950  201.5220  150.9230 C   0  0  0  0  0  2  0  0  0  0  0  0
  160.3890  202.1500  150.2780 C   0  0  0  0  0  0  0  0  0  0  0  0
  161.9630  202.2450  152.2220 C   0  0  0  0  0  2  0  0  0  0  0  0
  159.7960  213.0900  150.0380 C   0  0  0  0  0  3  0  0  0  0  0  0
  160.9810  212.6000  150.3720 C   0  0  0  0  0  3  0  0  0  0  0  0
  159.5570  214.4530  150.1320 O   0  0  0  0  0  1  0  0  0  0  0  0
  164.1030  211.1600  156.5070 C   0  0  0  0  0  1  0  0  0  0  0  0
  163.3160  210.3900  155.6490 O   0  0  0  0  0  0  0  0  0  0  0  0
  1  3  1  0  0  0  0
  2  8  1  0  0  0  0
  2  6  2  0  0  0  0
  3 37  1  6  0  0  0
  3 11  1  0  0  0  0
  4 18  1  0  0  0  0
  5 34  1  0  0  0  0
  6  9  1  0  0  0  0
  7 23  1  1  0  0  0
  7 17  1  0  0  0  0
  8  5  1  1  0  0  0
  8 12  1  0  0  0  0
  9  4  1  0  0  0  0
 10  5  2  0  0  0  0
 12 16  1  0  0  0  0
 12 20  1  0  0  0  0
 13 12  1  0  0  0  0
 13 16  1  0  0  0  0
 14 25  2  0  0  0  0
 14 19  1  0  0  0  0
 15 10  1  0  0  0  0
 15 19  2  0  0  0  0
 17 11  1  6  0  0  0
 19  2  1  0  0  0  0
 20  6  1  6  0  0  0
 20 24  1  0  0  0  0
 21 27  1  0  0  0  0
 21  9  2  0  0  0  0
 22 18  1  6  0  0  0
 22  7  1  0  0  0  0
 22 17  1  0  0  0  0
 24  1  1  1  0  0  0
 24 22  1  0  0  0  0
 25 21  1  0  0  0  0
 26 32  1  0  0  0  0
 27 26  2  0  0  0  0
 28 27  1  0  0  0  0
 29 31  1  0  0  0  0
 30 32  1  0  0  0  0
 31 28  2  0  0  0  0
 31 30  1  0  0  0  0
 33 35  1  0  0  0  0
 33 34  2  0  0  0  0
 37 36  1  0  0  0  0
M  END
>  <MODEL>
2

>  <REMARK>
 VINA RESULT:      -2.7      3.540      7.547
  Name = 
  3 active torsions:
  status: ('A' for Active; 'I' for Inactive)
    1  A    between atoms: C_5  and  O_23
    2  A    between atoms: C_6  and  C_31
    3  A    between atoms: C_9  and  C_30
                            x       y       z     vdW  Elec       q    Type
                         _______ _______ _______ _____ _____    ______ ____

>  <TORSDO>
F 3

$$$$
