=
 OpenBabel11062410473D

 32 37  0  0  1  0  0  0  0  0999 V2000
  161.1920  204.3710  146.1560 C   0  0  0  0  0  0  0  0  0  0  0  0
  161.1040  204.2900  149.6530 O   0  0  0  0  0  0  0  0  0  0  0  0
  161.1560  208.7070  151.8860 C   0  0  0  0  0  0  0  0  0  0  0  0
  160.0440  207.0370  156.3030 C   0  0  0  0  0  3  0  0  0  0  0  0
  159.7610  208.3410  156.7150 C   0  0  0  0  0  3  0  0  0  0  0  0
  161.8580  207.1880  150.1410 C   0  0  0  0  0  0  0  0  0  0  0  0
  161.3140  206.3580  152.3260 N   0  0  0  0  0  0  0  0  0  0  0  0
  161.2660  203.6910  147.3950 N   0  0  0  0  0  2  0  0  0  0  0  0
  162.0080  204.7010  150.6430 C   0  0  0  0  0  2  0  0  0  0  0  0
  160.4640  206.7910  154.9940 C   0  0  0  0  0  3  0  0  0  0  0  0
  161.0280  207.6150  152.7650 C   0  0  0  0  0  0  0  0  0  0  0  0
  160.6060  207.8480  154.0830 C   0  0  0  0  0  0  0  0  0  0  0  0
  160.4660  210.2280  153.5810 C   0  0  0  0  0  0  0  0  0  0  0  0
  161.6620  206.0860  146.1890 S   0  0  0  0  0  0  0  0  0  0  0  0
  161.4120  206.0050  147.9950 C   0  0  2  0  0  3  0  0  0  0  0  0
  160.7420  203.8140  145.1220 O   0  0  0  0  0  0  0  0  0  0  0  0
  161.7250  206.1150  151.0520 C   0  0  0  0  0  0  0  0  0  0  0  0
  162.3110  206.9940  148.7220 C   0  0  0  0  0  2  0  0  0  0  0  0
  161.7370  204.5780  148.4390 C   0  0  1  0  0  3  0  0  0  0  0  0
  159.8980  209.4030  155.8190 C   0  0  0  0  0  3  0  0  0  0  0  0
  160.3200  209.1720  154.5000 C   0  0  0  0  0  0  0  0  0  0  0  0
  161.5720  208.4840  150.5750 C   0  0  0  0  0  3  0  0  0  0  0  0
  160.8750  209.9670  152.3090 N   0  0  0  0  0  0  0  0  0  0  0  0
  160.0300  213.2150  155.9070 C   0  0  2  0  0  3  0  0  0  0  0  0
  158.5970  213.2960  155.6540 N   0  0  0  0  0  2  0  0  0  0  0  0
  158.7100  212.0350  153.6820 C   0  0  1  0  0  3  0  0  0  0  0  0
  156.9790  213.6150  154.0770 C   0  0  0  0  0  1  0  0  0  0  0  0
  158.4010  213.3550  154.2600 N   0  0  0  0  0  0  0  0  0  0  0  0
  160.5230  211.8540  155.4510 C   0  0  0  0  0  2  0  0  0  0  0  0
  160.2680  213.3590  157.2600 F   0  0  0  0  0  0  0  0  0  0  0  0
  158.5150  212.0620  152.1680 C   0  0  0  0  0  1  0  0  0  0  0  0
  160.1720  211.6490  153.9810 C   0  0  1  0  0  3  0  0  0  0  0  0
  1 14  1  0  0  0  0
  1  8  1  0  0  0  0
  2  9  1  0  0  0  0
  3 23  2  0  0  0  0
  3 11  1  0  0  0  0
  4  5  1  0  0  0  0
  6 22  2  0  0  0  0
  6 17  1  0  0  0  0
  7 11  1  0  0  0  0
  9 17  1  0  0  0  0
 10  4  2  0  0  0  0
 11 12  2  0  0  0  0
 12 21  1  0  0  0  0
 12 10  1  0  0  0  0
 13 21  2  0  0  0  0
 14 15  1  0  0  0  0
 15 19  1  0  0  0  0
 15 18  1  1  0  0  0
 16  1  2  0  0  0  0
 17  7  2  0  0  0  0
 18  6  1  0  0  0  0
 19  8  1  6  0  0  0
 19  2  1  0  0  0  0
 20  5  2  0  0  0  0
 21 20  1  0  0  0  0
 22  3  1  0  0  0  0
 23 13  1  0  0  0  0
 24 30  1  1  0  0  0
 25 24  1  0  0  0  0
 26 31  1  6  0  0  0
 26 32  1  0  0  0  0
 26 28  1  0  0  0  0
 27 28  1  0  0  0  0
 28 25  1  0  0  0  0
 29 24  1  0  0  0  0
 32 13  1  1  0  0  0
 32 29  1  0  0  0  0
M  END
>  <MODEL>
1

>  <REMARK>
 VINA RESULT:      -9.1      0.000      0.000
  Name = 
  1 active torsions:
  status: ('A' for Active; 'I' for Inactive)
    1  A    between atoms: C_16  and  C_32
                            x       y       z     vdW  Elec       q    Type
                         _______ _______ _______ _____ _____    ______ ____

>  <TORSDO>
F 1

$$$$
=
 OpenBabel11062410473D

 32 37  0  0  1  0  0  0  0  0999 V2000
  160.7640  202.6920  149.8040 C   0  0  0  0  0  0  0  0  0  0  0  0
  161.0940  204.4570  152.8070 O   0  0  0  0  0  0  0  0  0  0  0  0
  160.4780  209.3570  152.4720 C   0  0  0  0  0  0  0  0  0  0  0  0
  160.2480  210.1500  157.2530 C   0  0  0  0  0  3  0  0  0  0  0  0
  159.7480  211.4310  157.0070 C   0  0  0  0  0  3  0  0  0  0  0  0
  161.2790  207.2420  151.6160 C   0  0  0  0  0  0  0  0  0  0  0  0
  161.1710  207.6320  153.9820 N   0  0  0  0  0  0  0  0  0  0  0  0
  161.1190  202.7820  151.1710 N   0  0  0  0  0  2  0  0  0  0  0  0
  161.9990  205.4320  153.2490 C   0  0  0  0  0  2  0  0  0  0  0  0
  160.5580  209.3030  156.1870 C   0  0  0  0  0  3  0  0  0  0  0  0
  160.6810  208.8870  153.7830 C   0  0  0  0  0  0  0  0  0  0  0  0
  160.3730  209.7280  154.8640 C   0  0  0  0  0  0  0  0  0  0  0  0
  159.6840  211.4500  153.2820 C   0  0  0  0  0  0  0  0  0  0  0  0
  160.8680  204.2080  148.8790 S   0  0  0  0  0  0  0  0  0  0  0  0
  160.8480  205.0620  150.4910 C   0  0  2  0  0  3  0  0  0  0  0  0
  160.3260  201.6240  149.3030 O   0  0  0  0  0  0  0  0  0  0  0  0
  161.4760  206.8040  152.9450 C   0  0  0  0  0  0  0  0  0  0  0  0
  161.5980  206.3840  150.4250 C   0  0  0  0  0  2  0  0  0  0  0  0
  161.5110  204.1340  151.5100 C   0  0  1  0  0  3  0  0  0  0  0  0
  159.5590  211.8680  155.6940 C   0  0  0  0  0  3  0  0  0  0  0  0
  159.8670  211.0270  154.6130 C   0  0  0  0  0  0  0  0  0  0  0  0
  160.7810  208.5280  151.3940 C   0  0  0  0  0  3  0  0  0  0  0  0
  159.9920  210.6070  152.2570 N   0  0  0  0  0  0  0  0  0  0  0  0
  157.1690  214.3100  153.1820 C   0  0  2  0  0  3  0  0  0  0  0  0
  157.0470  214.2490  151.7310 N   0  0  0  0  0  2  0  0  0  0  0  0
  159.0470  213.0600  151.4500 C   0  0  1  0  0  3  0  0  0  0  0  0
  158.1440  214.4410  149.7400 C   0  0  0  0  0  1  0  0  0  0  0  0
  158.3400  214.3250  151.1780 N   0  0  0  0  0  0  0  0  0  0  0  0
  157.8070  213.0200  153.6660 C   0  0  0  0  0  2  0  0  0  0  0  0
  155.9140  214.4410  153.7450 F   0  0  0  0  0  0  0  0  0  0  0  0
  160.4600  213.1090  150.8710 C   0  0  0  0  0  1  0  0  0  0  0  0
  159.1490  212.8200  152.9700 C   0  0  1  0  0  3  0  0  0  0  0  0
  1  8  1  0  0  0  0
  2  9  1  0  0  0  0
  3 11  1  0  0  0  0
  5  4  1  0  0  0  0
  6 17  1  0  0  0  0
 10  4  2  0  0  0  0
 11  7  1  0  0  0  0
 11 12  2  0  0  0  0
 12 10  1  0  0  0  0
 13 21  2  0  0  0  0
 14  1  1  0  0  0  0
 14 15  1  0  0  0  0
 15 18  1  6  0  0  0
 15 19  1  0  0  0  0
 16  1  2  0  0  0  0
 17  9  1  0  0  0  0
 17  7  2  0  0  0  0
 18  6  1  0  0  0  0
 19  8  1  6  0  0  0
 19  2  1  0  0  0  0
 20  5  2  0  0  0  0
 21 12  1  0  0  0  0
 21 20  1  0  0  0  0
 22  6  2  0  0  0  0
 22  3  1  0  0  0  0
 23  3  2  0  0  0  0
 23 13  1  0  0  0  0
 24 29  1  0  0  0  0
 24 30  1  1  0  0  0
 25 24  1  0  0  0  0
 26 31  1  1  0  0  0
 26 32  1  0  0  0  0
 27 28  1  0  0  0  0
 28 26  1  0  0  0  0
 28 25  1  0  0  0  0
 32 13  1  6  0  0  0
 32 29  1  0  0  0  0
M  END
>  <MODEL>
2

>  <REMARK>
 VINA RESULT:      -8.6      2.396      3.024
  Name = 
  1 active torsions:
  status: ('A' for Active; 'I' for Inactive)
    1  A    between atoms: C_16  and  C_32
                            x       y       z     vdW  Elec       q    Type
                         _______ _______ _______ _____ _____    ______ ____

>  <TORSDO>
F 1

$$$$
=
 OpenBabel11062410473D

 32 37  0  0  1  0  0  0  0  0999 V2000
  160.3790  201.8630  145.7280 C   0  0  0  0  0  0  0  0  0  0  0  0
  160.5940  202.6070  149.1400 O   0  0  0  0  0  0  0  0  0  0  0  0
  161.4500  207.3590  150.2320 C   0  0  0  0  0  0  0  0  0  0  0  0
  160.5180  206.9470  154.9750 C   0  0  0  0  0  3  0  0  0  0  0  0
  160.4550  208.3390  155.0740 C   0  0  0  0  0  3  0  0  0  0  0  0
  161.7790  205.3870  148.8700 C   0  0  0  0  0  0  0  0  0  0  0  0
  161.3230  205.1800  151.2180 N   0  0  0  0  0  0  0  0  0  0  0  0
  160.4690  201.4850  147.0890 N   0  0  0  0  0  2  0  0  0  0  0  0
  161.6300  203.0910  149.9500 C   0  0  0  0  0  2  0  0  0  0  0  0
  160.7820  206.3440  153.7440 C   0  0  0  0  0  3  0  0  0  0  0  0
  161.2530  206.5320  151.3550 C   0  0  0  0  0  0  0  0  0  0  0  0
  160.9870  207.1260  152.5980 C   0  0  0  0  0  0  0  0  0  0  0  0
  161.1300  209.3180  151.5440 C   0  0  0  0  0  0  0  0  0  0  0  0
  161.0810  203.4460  145.3190 S   0  0  0  0  0  0  0  0  0  0  0  0
  160.9850  203.8230  147.1020 C   0  0  2  0  0  3  0  0  0  0  0  0
  159.7660  201.1580  144.8850 O   0  0  0  0  0  0  0  0  0  0  0  0
  161.5820  204.5880  150.0200 C   0  0  0  0  0  0  0  0  0  0  0  0
  162.0730  204.8030  147.5180 C   0  0  0  0  0  2  0  0  0  0  0  0
  161.1490  202.5050  147.8600 C   0  0  1  0  0  3  0  0  0  0  0  0
  160.6560  209.1310  153.9410 C   0  0  0  0  0  3  0  0  0  0  0  0
  160.9230  208.5380  152.6970 C   0  0  0  0  0  0  0  0  0  0  0  0
  161.7140  206.7770  148.9930 C   0  0  0  0  0  3  0  0  0  0  0  0
  161.3840  208.7090  150.3520 N   0  0  0  0  0  0  0  0  0  0  0  0
  159.7070  212.7580  152.3570 C   0  0  2  0  0  3  0  0  0  0  0  0
  159.5230  213.0960  150.9520 N   0  0  0  0  0  2  0  0  0  0  0  0
  161.0040  211.4440  150.1940 C   0  0  1  0  0  3  0  0  0  0  0  0
  160.5550  213.4130  148.9410 C   0  0  0  0  0  1  0  0  0  0  0  0
  160.7500  212.8930  150.2880 N   0  0  0  0  0  0  0  0  0  0  0  0
  159.8960  211.2560  152.4710 C   0  0  0  0  0  2  0  0  0  0  0  0
  158.5880  213.1360  153.0720 F   0  0  0  0  0  0  0  0  0  0  0  0
  162.3320  211.1850  149.4860 C   0  0  0  0  0  1  0  0  0  0  0  0
  161.0710  210.8200  151.6030 C   0  0  1  0  0  3  0  0  0  0  0  0
  1  8  1  0  0  0  0
  2  9  1  0  0  0  0
  3 23  2  0  0  0  0
  3 11  1  0  0  0  0
  4  5  1  0  0  0  0
  6 22  2  0  0  0  0
  6 17  1  0  0  0  0
  7 11  1  0  0  0  0
  9 17  1  0  0  0  0
 10  4  2  0  0  0  0
 11 12  2  0  0  0  0
 12 21  1  0  0  0  0
 12 10  1  0  0  0  0
 13 21  2  0  0  0  0
 14  1  1  0  0  0  0
 14 15  1  0  0  0  0
 15 18  1  1  0  0  0
 15 19  1  0  0  0  0
 16  1  2  0  0  0  0
 17  7  2  0  0  0  0
 18  6  1  0  0  0  0
 19  8  1  6  0  0  0
 19  2  1  0  0  0  0
 20  5  2  0  0  0  0
 21 20  1  0  0  0  0
 22  3  1  0  0  0  0
 23 13  1  0  0  0  0
 24 29  1  0  0  0  0
 24 30  1  1  0  0  0
 25 24  1  0  0  0  0
 26 31  1  1  0  0  0
 26 28  1  0  0  0  0
 26 32  1  0  0  0  0
 27 28  1  0  0  0  0
 28 25  1  0  0  0  0
 32 13  1  6  0  0  0
 32 29  1  0  0  0  0
M  END
>  <MODEL>
3

>  <REMARK>
 VINA RESULT:      -8.6      2.151      2.958
  Name = 
  1 active torsions:
  status: ('A' for Active; 'I' for Inactive)
    1  A    between atoms: C_16  and  C_32
                            x       y       z     vdW  Elec       q    Type
                         _______ _______ _______ _____ _____    ______ ____

>  <TORSDO>
F 1

$$$$
=
 OpenBabel11062410473D

 32 37  0  0  1  0  0  0  0  0999 V2000
  155.3480  213.3860  156.8490 C   0  0  0  0  0  0  0  0  0  0  0  0
  157.6340  213.8850  154.2470 O   0  0  0  0  0  0  0  0  0  0  0  0
  160.2370  209.8940  152.9070 C   0  0  0  0  0  0  0  0  0  0  0  0
  162.0510  211.8330  148.8470 C   0  0  0  0  0  3  0  0  0  0  0  0
  162.4450  210.5600  148.4260 C   0  0  0  0  0  3  0  0  0  0  0  0
  159.1820  211.2950  154.5710 C   0  0  0  0  0  0  0  0  0  0  0  0
  160.0830  212.2590  152.5660 N   0  0  0  0  0  0  0  0  0  0  0  0
  156.0760  214.2160  155.9630 N   0  0  0  0  0  2  0  0  0  0  0  0
  159.0310  213.8010  154.1720 C   0  0  0  0  0  2  0  0  0  0  0  0
  161.4000  211.9950  150.0710 C   0  0  0  0  0  3  0  0  0  0  0  0
  160.4810  211.0360  152.1210 C   0  0  0  0  0  0  0  0  0  0  0  0
  161.1350  210.8870  150.8880 C   0  0  0  0  0  0  0  0  0  0  0  0
  161.2670  208.4860  151.2880 C   0  0  0  0  0  0  0  0  0  0  0  0
  156.1080  211.8260  157.2430 S   0  0  0  0  0  0  0  0  0  0  0  0
  157.1370  212.0790  155.7570 C   0  0  2  0  0  3  0  0  0  0  0  0
  154.2020  213.7010  157.2600 O   0  0  0  0  0  0  0  0  0  0  0  0
  159.4490  212.4220  153.7600 C   0  0  0  0  0  0  0  0  0  0  0  0
  158.4910  211.4010  155.9010 C   0  0  0  0  0  2  0  0  0  0  0  0
  157.3220  213.5870  155.5790 C   0  0  1  0  0  3  0  0  0  0  0  0
  162.1880  209.4470  149.2290 C   0  0  0  0  0  3  0  0  0  0  0  0
  161.5340  209.5950  150.4620 C   0  0  0  0  0  0  0  0  0  0  0  0
  159.5870  210.0330  154.1320 C   0  0  0  0  0  3  0  0  0  0  0  0
  160.6290  208.6670  152.4780 N   0  0  0  0  0  0  0  0  0  0  0  0
  161.3760  205.3400  149.1410 C   0  0  2  0  0  3  0  0  0  0  0  0
  160.7200  204.5320  150.1620 N   0  0  0  0  0  2  0  0  0  0  0  0
  161.1980  206.0390  151.8920 C   0  0  1  0  0  3  0  0  0  0  0  0
  160.8470  203.7230  152.2910 C   0  0  0  0  0  1  0  0  0  0  0  0
  161.4350  204.6830  151.3660 N   0  0  0  0  0  0  0  0  0  0  0  0
  161.1550  206.8050  149.4710 C   0  0  0  0  0  2  0  0  0  0  0  0
  160.8250  205.0590  147.9060 F   0  0  0  0  0  0  0  0  0  0  0  0
  161.9650  206.2420  153.1970 C   0  0  0  0  0  1  0  0  0  0  0  0
  161.6730  207.0970  150.8750 C   0  0  1  0  0  3  0  0  0  0  0  0
  1 14  1  0  0  0  0
  1 16  2  0  0  0  0
  3 22  1  0  0  0  0
  4 10  1  0  0  0  0
  5  4  2  0  0  0  0
  5 20  1  0  0  0  0
  6 18  1  0  0  0  0
  7 17  2  0  0  0  0
  8  1  1  0  0  0  0
  9  2  1  0  0  0  0
 10 12  2  0  0  0  0
 11  7  1  0  0  0  0
 11  3  2  0  0  0  0
 12 11  1  0  0  0  0
 13 23  2  0  0  0  0
 15 18  1  1  0  0  0
 15 14  1  0  0  0  0
 17  9  1  0  0  0  0
 17  6  1  0  0  0  0
 19  2  1  6  0  0  0
 19 15  1  0  0  0  0
 19  8  1  0  0  0  0
 20 21  2  0  0  0  0
 21 12  1  0  0  0  0
 21 13  1  0  0  0  0
 22  6  2  0  0  0  0
 23  3  1  0  0  0  0
 24 30  1  6  0  0  0
 24 29  1  0  0  0  0
 24 25  1  0  0  0  0
 25 28  1  0  0  0  0
 26 31  1  1  0  0  0
 28 26  1  0  0  0  0
 28 27  1  0  0  0  0
 29 32  1  0  0  0  0
 32 13  1  1  0  0  0
 32 26  1  0  0  0  0
M  END
>  <MODEL>
4

>  <REMARK>
 VINA RESULT:      -7.3      4.940      9.269
  Name = 
  1 active torsions:
  status: ('A' for Active; 'I' for Inactive)
    1  A    between atoms: C_16  and  C_32
                            x       y       z     vdW  Elec       q    Type
                         _______ _______ _______ _____ _____    ______ ____

>  <TORSDO>
F 1

$$$$
=
 OpenBabel11062410473D

 32 37  0  0  1  0  0  0  0  0999 V2000
  161.5770  200.4500  147.3240 C   0  0  0  0  0  0  0  0  0  0  0  0
  161.7030  203.9020  146.7660 O   0  0  0  0  0  0  0  0  0  0  0  0
  160.9030  206.7310  150.7480 C   0  0  0  0  0  0  0  0  0  0  0  0
  162.3190  210.8890  148.6880 C   0  0  0  0  0  3  0  0  0  0  0  0
  162.3750  211.4850  149.9500 C   0  0  0  0  0  3  0  0  0  0  0  0
  160.4620  204.7780  149.3930 C   0  0  0  0  0  0  0  0  0  0  0  0
  161.1570  206.8350  148.3690 N   0  0  0  0  0  0  0  0  0  0  0  0
  161.6310  201.5800  146.4730 N   0  0  0  0  0  2  0  0  0  0  0  0
  160.7480  204.9230  146.8710 C   0  0  0  0  0  2  0  0  0  0  0  0
  161.9390  209.5520  148.5610 C   0  0  0  0  0  3  0  0  0  0  0  0
  161.2240  207.4510  149.5820 C   0  0  0  0  0  0  0  0  0  0  0  0
  161.6090  208.7950  149.6950 C   0  0  0  0  0  0  0  0  0  0  0  0
  161.3310  208.6350  152.1110 C   0  0  0  0  0  0  0  0  0  0  0  0
  160.8180  200.7150  148.9100 S   0  0  0  0  0  0  0  0  0  0  0  0
  161.0900  202.4960  148.6190 C   0  0  2  0  0  3  0  0  0  0  0  0
  162.1100  199.3560  147.0040 O   0  0  0  0  0  0  0  0  0  0  0  0
  160.7850  205.5320  148.2410 C   0  0  0  0  0  0  0  0  0  0  0  0
  160.0390  203.3380  149.3260 C   0  0  0  0  0  2  0  0  0  0  0  0
  161.0210  202.7290  147.1090 C   0  0  1  0  0  3  0  0  0  0  0  0
  162.0490  210.7440  151.0880 C   0  0  0  0  0  3  0  0  0  0  0  0
  161.6650  209.3990  150.9760 C   0  0  0  0  0  0  0  0  0  0  0  0
  160.5220  205.3950  150.6440 C   0  0  0  0  0  3  0  0  0  0  0  0
  160.9640  207.3310  151.9650 N   0  0  0  0  0  0  0  0  0  0  0  0
  161.6470  208.7170  155.9070 C   0  0  2  0  0  3  0  0  0  0  0  0
  160.2620  209.1350  156.0870 N   0  0  0  0  0  2  0  0  0  0  0  0
  160.0310  209.8790  153.8760 C   0  0  1  0  0  3  0  0  0  0  0  0
  158.7120  210.7520  155.6510 C   0  0  0  0  0  1  0  0  0  0  0  0
  160.0440  210.2800  155.2950 N   0  0  0  0  0  0  0  0  0  0  0  0
  161.8070  208.1750  154.4980 C   0  0  0  0  0  2  0  0  0  0  0  0
  161.9500  207.7240  156.8190 F   0  0  0  0  0  0  0  0  0  0  0  0
  159.8040  211.0980  152.9850 C   0  0  0  0  0  1  0  0  0  0  0  0
  161.3770  209.2350  153.4900 C   0  0  1  0  0  3  0  0  0  0  0  0
  1 14  1  0  0  0  0
  2  9  1  0  0  0  0
  2 19  1  0  0  0  0
  3 23  1  0  0  0  0
  4  5  1  0  0  0  0
  5 20  2  0  0  0  0
  6 22  1  0  0  0  0
  7 11  2  0  0  0  0
  8  1  1  0  0  0  0
  9 17  1  0  0  0  0
 10  4  2  0  0  0  0
 10 12  1  0  0  0  0
 11 12  1  0  0  0  0
 11  3  1  0  0  0  0
 12 21  2  0  0  0  0
 15 14  1  0  0  0  0
 15 18  1  1  0  0  0
 16  1  2  0  0  0  0
 17  7  1  0  0  0  0
 17  6  2  0  0  0  0
 18  6  1  0  0  0  0
 19  8  1  6  0  0  0
 19 15  1  0  0  0  0
 21 20  1  0  0  0  0
 21 13  1  0  0  0  0
 22  3  2  0  0  0  0
 23 13  2  0  0  0  0
 24 25  1  0  0  0  0
 24 30  1  1  0  0  0
 26 31  1  6  0  0  0
 26 28  1  0  0  0  0
 28 27  1  0  0  0  0
 28 25  1  0  0  0  0
 29 24  1  0  0  0  0
 32 13  1  6  0  0  0
 32 26  1  0  0  0  0
 32 29  1  0  0  0  0
M  END
>  <MODEL>
5

>  <REMARK>
 VINA RESULT:      -6.4      2.663      4.376
  Name = 
  1 active torsions:
  status: ('A' for Active; 'I' for Inactive)
    1  A    between atoms: C_16  and  C_32
                            x       y       z     vdW  Elec       q    Type
                         _______ _______ _______ _____ _____    ______ ____

>  <TORSDO>
F 1

$$$$
=
 OpenBabel11062410473D

 32 37  0  0  1  0  0  0  0  0999 V2000
  162.6020  210.6500  156.4000 C   0  0  0  0  0  0  0  0  0  0  0  0
  161.9930  207.2760  155.7010 O   0  0  0  0  0  0  0  0  0  0  0  0
  160.7790  206.2590  151.0120 C   0  0  0  0  0  0  0  0  0  0  0  0
  161.2300  201.4460  151.4210 C   0  0  0  0  0  3  0  0  0  0  0  0
  161.2090  201.3350  150.0290 C   0  0  0  0  0  3  0  0  0  0  0  0
  160.6980  207.6560  152.9830 C   0  0  0  0  0  0  0  0  0  0  0  0
  160.9160  205.2750  153.1910 N   0  0  0  0  0  0  0  0  0  0  0  0
  162.3900  209.3080  156.7950 N   0  0  0  0  0  2  0  0  0  0  0  0
  160.8540  206.5770  155.2800 C   0  0  0  0  0  2  0  0  0  0  0  0
  161.1280  202.7010  152.0250 C   0  0  0  0  0  3  0  0  0  0  0  0
  160.9010  205.1260  151.8370 C   0  0  0  0  0  0  0  0  0  0  0  0
  161.0040  203.8590  151.2430 C   0  0  0  0  0  0  0  0  0  0  0  0
  160.8570  204.9130  149.0510 C   0  0  0  0  0  0  0  0  0  0  0  0
  161.8640  211.1230  154.8510 S   0  0  0  0  0  0  0  0  0  0  0  0
  161.7530  209.3390  154.4870 C   0  0  2  0  0  3  0  0  0  0  0  0
  163.3360  211.4270  157.0630 O   0  0  0  0  0  0  0  0  0  0  0  0
  160.8160  206.4960  153.7830 C   0  0  0  0  0  0  0  0  0  0  0  0
  160.5780  209.0340  153.5690 C   0  0  0  0  0  2  0  0  0  0  0  0
  161.5810  208.6080  155.8190 C   0  0  1  0  0  3  0  0  0  0  0  0
  161.0860  202.4790  149.2370 C   0  0  0  0  0  3  0  0  0  0  0  0
  160.9830  203.7470  149.8310 C   0  0  0  0  0  0  0  0  0  0  0  0
  160.6770  207.5210  151.5940 C   0  0  0  0  0  3  0  0  0  0  0  0
  160.7600  206.1270  149.6600 N   0  0  0  0  0  0  0  0  0  0  0  0
  160.9010  203.2970  145.6000 C   0  0  2  0  0  3  0  0  0  0  0  0
  162.1890  203.8870  145.2600 N   0  0  0  0  0  2  0  0  0  0  0  0
  162.0570  205.5330  146.9230 C   0  0  1  0  0  3  0  0  0  0  0  0
  163.3470  205.8280  144.9480 C   0  0  0  0  0  1  0  0  0  0  0  0
  162.1040  205.2770  145.4710 N   0  0  0  0  0  0  0  0  0  0  0  0
  160.7120  203.3870  147.1040 C   0  0  0  0  0  2  0  0  0  0  0  0
  160.8850  201.9710  145.2140 F   0  0  0  0  0  0  0  0  0  0  0  0
  161.9570  207.0340  147.1910 C   0  0  0  0  0  1  0  0  0  0  0  0
  160.8300  204.8410  147.5480 C   0  0  1  0  0  3  0  0  0  0  0  0
  1  8  1  0  0  0  0
  1 16  2  0  0  0  0
  3 22  2  0  0  0  0
  3 11  1  0  0  0  0
  4 10  1  0  0  0  0
  5  4  2  0  0  0  0
  6 18  1  0  0  0  0
  6 17  2  0  0  0  0
  7 17  1  0  0  0  0
  9  2  1  0  0  0  0
 11  7  2  0  0  0  0
 12 11  1  0  0  0  0
 12 10  2  0  0  0  0
 13 23  2  0  0  0  0
 13 21  1  0  0  0  0
 14  1  1  0  0  0  0
 15 18  1  6  0  0  0
 15 14  1  0  0  0  0
 15 19  1  0  0  0  0
 17  9  1  0  0  0  0
 19  2  1  6  0  0  0
 19  8  1  0  0  0  0
 20 21  2  0  0  0  0
 20  5  1  0  0  0  0
 21 12  1  0  0  0  0
 22  6  1  0  0  0  0
 23  3  1  0  0  0  0
 24 30  1  1  0  0  0
 24 29  1  0  0  0  0
 25 28  1  0  0  0  0
 25 24  1  0  0  0  0
 26 31  1  6  0  0  0
 26 32  1  0  0  0  0
 27 28  1  0  0  0  0
 28 26  1  0  0  0  0
 29 32  1  0  0  0  0
 32 13  1  1  0  0  0
M  END
>  <MODEL>
6

>  <REMARK>
 VINA RESULT:      -6.4      4.897      9.149
  Name = 
  1 active torsions:
  status: ('A' for Active; 'I' for Inactive)
    1  A    between atoms: C_16  and  C_32
                            x       y       z     vdW  Elec       q    Type
                         _______ _______ _______ _____ _____    ______ ____

>  <TORSDO>
F 1

$$$$
=
 OpenBabel11062410473D

 32 37  0  0  1  0  0  0  0  0999 V2000
  159.7590  213.4290  145.3250 C   0  0  0  0  0  0  0  0  0  0  0  0
  161.2490  211.4590  147.8040 O   0  0  0  0  0  0  0  0  0  0  0  0
  159.4640  212.0860  152.3780 C   0  0  0  0  0  0  0  0  0  0  0  0
  161.6780  208.2220  154.3020 C   0  0  0  0  0  3  0  0  0  0  0  0
  160.8510  208.3180  155.4240 C   0  0  0  0  0  3  0  0  0  0  0  0
  160.1280  212.9280  150.2110 C   0  0  0  0  0  0  0  0  0  0  0  0
  161.2290  211.0190  151.1610 N   0  0  0  0  0  0  0  0  0  0  0  0
  160.7640  212.5460  145.7870 N   0  0  0  0  0  2  0  0  0  0  0  0
  162.0010  211.7660  148.9460 C   0  0  0  0  0  2  0  0  0  0  0  0
  161.5460  209.1350  153.2540 C   0  0  0  0  0  3  0  0  0  0  0  0
  160.4420  211.0790  152.2710 C   0  0  0  0  0  0  0  0  0  0  0  0
  160.5860  210.1550  153.3170 C   0  0  0  0  0  0  0  0  0  0  0  0
  158.7850  211.2810  154.5120 C   0  0  0  0  0  0  0  0  0  0  0  0
  159.0020  214.4530  146.5680 S   0  0  0  0  0  0  0  0  0  0  0  0
  159.6630  213.2680  147.7880 C   0  0  2  0  0  3  0  0  0  0  0  0
  159.3740  213.4240  144.1280 O   0  0  0  0  0  0  0  0  0  0  0  0
  161.1050  211.9080  150.1390 C   0  0  0  0  0  0  0  0  0  0  0  0
  159.9380  213.9460  149.1220 C   0  0  0  0  0  2  0  0  0  0  0  0
  160.9600  212.6950  147.2150 C   0  0  1  0  0  3  0  0  0  0  0  0
  159.8910  209.3290  155.5000 C   0  0  0  0  0  3  0  0  0  0  0  0
  159.7470  210.2540  154.4540 C   0  0  0  0  0  0  0  0  0  0  0  0
  159.3140  213.0070  151.3430 C   0  0  0  0  0  3  0  0  0  0  0  0
  158.6720  212.1600  153.4780 N   0  0  0  0  0  0  0  0  0  0  0  0
  155.5810  210.9690  156.5500 C   0  0  2  0  0  3  0  0  0  0  0  0
  155.3770  212.4120  156.5870 N   0  0  0  0  0  2  0  0  0  0  0  0
  157.6010  212.9030  156.0360 C   0  0  1  0  0  3  0  0  0  0  0  0
  156.2340  214.4180  157.2550 C   0  0  0  0  0  1  0  0  0  0  0  0
  156.5570  213.0090  157.0710 N   0  0  0  0  0  0  0  0  0  0  0  0
  156.5810  210.6520  155.4540 C   0  0  0  0  0  2  0  0  0  0  0  0
  154.3820  210.3410  156.2740 F   0  0  0  0  0  0  0  0  0  0  0  0
  158.9010  213.5350  156.5300 C   0  0  0  0  0  1  0  0  0  0  0  0
  157.8740  211.4230  155.7010 C   0  0  1  0  0  3  0  0  0  0  0  0
  1  8  1  0  0  0  0
  1 14  1  0  0  0  0
  2  9  1  0  0  0  0
  3 23  1  0  0  0  0
  4  5  1  0  0  0  0
  5 20  2  0  0  0  0
  6 22  1  0  0  0  0
  7 11  2  0  0  0  0
  9 17  1  0  0  0  0
 10 12  1  0  0  0  0
 10  4  2  0  0  0  0
 11  3  1  0  0  0  0
 11 12  1  0  0  0  0
 12 21  2  0  0  0  0
 14 15  1  0  0  0  0
 15 18  1  1  0  0  0
 16  1  2  0  0  0  0
 17  6  2  0  0  0  0
 17  7  1  0  0  0  0
 18  6  1  0  0  0  0
 19  8  1  6  0  0  0
 19 15  1  0  0  0  0
 19  2  1  0  0  0  0
 21 13  1  0  0  0  0
 21 20  1  0  0  0  0
 22  3  2  0  0  0  0
 23 13  2  0  0  0  0
 24 30  1  6  0  0  0
 24 25  1  0  0  0  0
 25 28  1  0  0  0  0
 26 31  1  1  0  0  0
 26 28  1  0  0  0  0
 28 27  1  0  0  0  0
 29 32  1  0  0  0  0
 29 24  1  0  0  0  0
 32 13  1  6  0  0  0
 32 26  1  0  0  0  0
M  END
>  <MODEL>
7

>  <REMARK>
 VINA RESULT:      -6.3      4.334      5.517
  Name = 
  1 active torsions:
  status: ('A' for Active; 'I' for Inactive)
    1  A    between atoms: C_16  and  C_32
                            x       y       z     vdW  Elec       q    Type
                         _______ _______ _______ _____ _____    ______ ____

>  <TORSDO>
F 1

$$$$
=
 OpenBabel11062410473D

 32 37  0  0  1  0  0  0  0  0999 V2000
  158.9180  211.2950  156.5100 C   0  0  0  0  0  0  0  0  0  0  0  0
  160.0450  211.1110  153.2030 O   0  0  0  0  0  0  0  0  0  0  0  0
  161.3380  206.5940  151.6450 C   0  0  0  0  0  0  0  0  0  0  0  0
  161.6650  207.7700  146.9490 C   0  0  0  0  0  3  0  0  0  0  0  0
  161.6820  206.4130  146.6200 C   0  0  0  0  0  3  0  0  0  0  0  0
  161.2240  208.3180  153.3360 C   0  0  0  0  0  0  0  0  0  0  0  0
  161.3910  208.9040  151.0150 N   0  0  0  0  0  0  0  0  0  0  0  0
  159.3460  211.8880  155.2980 N   0  0  0  0  0  2  0  0  0  0  0  0
  161.2750  210.7590  152.6300 C   0  0  0  0  0  2  0  0  0  0  0  0
  161.5740  208.1660  148.2850 C   0  0  0  0  0  3  0  0  0  0  0  0
  161.4100  207.5910  150.6540 C   0  0  0  0  0  0  0  0  0  0  0  0
  161.5010  207.2080  149.3070 C   0  0  0  0  0  0  0  0  0  0  0  0
  161.4470  204.8730  150.0040 C   0  0  0  0  0  0  0  0  0  0  0  0
  159.5490  209.6640  156.8360 S   0  0  0  0  0  0  0  0  0  0  0  0
  159.9370  209.5790  155.0550 C   0  0  2  0  0  3  0  0  0  0  0  0
  158.0800  211.8570  157.2610 O   0  0  0  0  0  0  0  0  0  0  0  0
  161.3040  209.2930  152.3160 C   0  0  0  0  0  0  0  0  0  0  0  0
  161.1320  208.6750  154.7920 C   0  0  0  0  0  2  0  0  0  0  0  0
  160.2430  211.0020  154.5840 C   0  0  1  0  0  3  0  0  0  0  0  0
  161.6110  205.4480  147.6270 C   0  0  0  0  0  3  0  0  0  0  0  0
  161.5190  205.8310  148.9740 C   0  0  0  0  0  0  0  0  0  0  0  0
  161.2470  206.9670  152.9840 C   0  0  0  0  0  3  0  0  0  0  0  0
  161.3580  205.2800  151.3010 N   0  0  0  0  0  0  0  0  0  0  0  0
  160.9980  201.7010  147.9420 C   0  0  2  0  0  3  0  0  0  0  0  0
  159.9140  201.2170  148.7880 N   0  0  0  0  0  2  0  0  0  0  0  0
  160.4670  202.6230  150.5790 C   0  0  1  0  0  3  0  0  0  0  0  0
  159.3130  200.5690  150.8910 C   0  0  0  0  0  1  0  0  0  0  0  0
  160.3620  201.2250  150.1230 N   0  0  0  0  0  0  0  0  0  0  0  0
  161.1940  203.1820  148.2120 C   0  0  0  0  0  2  0  0  0  0  0  0
  160.6650  201.5160  146.6140 F   0  0  0  0  0  0  0  0  0  0  0  0
  160.9590  202.6720  152.0240 C   0  0  0  0  0  1  0  0  0  0  0  0
  161.4630  203.4010  149.6960 C   0  0  1  0  0  3  0  0  0  0  0  0
  1 14  1  0  0  0  0
  1 16  2  0  0  0  0
  3 22  1  0  0  0  0
  4 10  1  0  0  0  0
  5  4  2  0  0  0  0
  5 20  1  0  0  0  0
  6 18  1  0  0  0  0
  7 17  2  0  0  0  0
  8  1  1  0  0  0  0
  9  2  1  0  0  0  0
 10 12  2  0  0  0  0
 11  7  1  0  0  0  0
 11  3  2  0  0  0  0
 12 11  1  0  0  0  0
 13 23  2  0  0  0  0
 15 18  1  1  0  0  0
 15 14  1  0  0  0  0
 17  9  1  0  0  0  0
 17  6  1  0  0  0  0
 19  2  1  6  0  0  0
 19 15  1  0  0  0  0
 19  8  1  0  0  0  0
 20 21  2  0  0  0  0
 21 12  1  0  0  0  0
 21 13  1  0  0  0  0
 22  6  2  0  0  0  0
 23  3  1  0  0  0  0
 24 30  1  6  0  0  0
 24 29  1  0  0  0  0
 24 25  1  0  0  0  0
 25 28  1  0  0  0  0
 26 31  1  1  0  0  0
 28 26  1  0  0  0  0
 28 27  1  0  0  0  0
 29 32  1  0  0  0  0
 32 13  1  6  0  0  0
 32 26  1  0  0  0  0
M  END
>  <MODEL>
8

>  <REMARK>
 VINA RESULT:      -6.3      4.598      9.452
  Name = 
  1 active torsions:
  status: ('A' for Active; 'I' for Inactive)
    1  A    between atoms: C_16  and  C_32
                            x       y       z     vdW  Elec       q    Type
                         _______ _______ _______ _____ _____    ______ ____

>  <TORSDO>
F 1

$$$$
