=
 OpenBabel11062408343D

 32 37  0  0  1  0  0  0  0  0999 V2000
  161.2400  207.0240  153.0860 C   0  0  2  0  0  3  0  0  0  0  0  0
  161.4330  207.7390  151.7870 C   0  0  0  0  0  0  0  0  0  0  0  0
  161.2950  207.0180  150.5790 C   0  0  0  0  0  3  0  0  0  0  0  0
  162.2390  211.0100  148.8940 C   0  0  0  0  0  0  0  0  0  0  0  0
  161.7480  209.1160  151.7590 C   0  0  0  0  0  3  0  0  0  0  0  0
  161.9780  209.8170  148.2990 N   0  0  0  0  0  2  0  0  0  0  0  0
  161.7750  209.0140  149.3520 C   0  0  0  0  0  0  0  0  0  0  0  0
  161.4670  207.6560  149.3370 C   0  0  0  0  0  3  0  0  0  0  0  0
  162.2070  210.9940  150.2520 N   0  0  0  0  0  2  0  0  0  0  0  0
  162.5610  212.3640  148.0420 S   0  0  0  0  0  0  0  0  0  0  0  0
  161.9100  209.7130  150.5130 C   0  0  0  0  0  0  0  0  0  0  0  0
  161.7590  207.7900  154.1370 O   0  0  0  0  0  0  0  0  0  0  0  0
  160.6500  208.2810  154.8320 C   0  0  1  0  0  3  0  0  0  0  0  0
  160.0110  207.2170  155.4730 O   0  0  0  0  0  1  0  0  0  0  0  0
  160.2260  210.6130  155.8740 C   0  0  2  0  0  3  0  0  0  0  0  0
  161.1110  209.3500  155.8380 C   0  0  1  0  0  3  0  0  0  0  0  0
  160.1170  209.5610  156.9660 C   0  0  0  0  0  2  0  0  0  0  0  0
  159.0760  210.5410  154.9680 N   0  0  0  0  0  0  0  0  0  0  0  0
  159.0800  211.7690  154.1780 C   0  0  1  0  0  3  0  0  0  0  0  0
  160.3510  211.8620  153.3570 C   0  0  0  0  0  2  0  0  0  0  0  0
  159.0640  211.4290  152.6950 C   0  0  2  0  0  3  0  0  0  0  0  0
  158.4790  212.5980  151.9310 C   0  0  0  0  0  1  0  0  0  0  0  0
  157.8720  210.5880  155.7910 C   0  0  0  0  0  2  0  0  0  0  0  0
  157.0820  211.6710  155.4040 O   0  0  0  0  0  0  0  0  0  0  0  0
  155.2620  210.1750  155.1070 C   0  0  0  0  0  1  0  0  0  0  0  0
  155.8070  211.3600  155.8750 C   0  0  0  0  0  2  0  0  0  0  0  0
  161.9040  205.6550  153.0440 C   0  0  0  0  0  2  0  0  0  0  0  0
  160.9250  204.6140  152.5370 C   0  0  0  0  0  2  0  0  0  0  0  0
  161.6190  203.7090  151.5410 C   0  0  1  0  0  3  0  0  0  0  0  0
  160.8770  202.3890  151.4540 C   0  0  2  0  0  3  0  0  0  0  0  0
  160.8280  201.9640  150.0000 C   0  0  0  0  0  2  0  0  0  0  0  0
  160.6850  203.4260  150.3800 C   0  0  2  0  0  3  0  0  0  0  0  0
  1 27  1  6  0  0  0
  1 12  1  0  0  0  0
  2  1  1  0  0  0  0
  3  2  2  0  0  0  0
  4  9  1  0  0  0  0
  5  2  1  0  0  0  0
  6  4  1  0  0  0  0
  6  7  1  0  0  0  0
  7 11  1  0  0  0  0
  8  7  2  0  0  0  0
  8  3  1  0  0  0  0
  9 11  1  0  0  0  0
 10  4  2  0  0  0  0
 11  5  2  0  0  0  0
 12 13  1  0  0  0  0
 13 14  1  1  0  0  0
 15 18  1  6  0  0  0
 15 17  1  0  0  0  0
 16 13  1  6  0  0  0
 16 15  1  0  0  0  0
 16 17  1  0  0  0  0
 18 23  1  0  0  0  0
 19 18  1  1  0  0  0
 20 19  1  0  0  0  0
 21 22  1  6  0  0  0
 21 20  1  0  0  0  0
 21 19  1  0  0  0  0
 24 23  1  0  0  0  0
 24 26  1  0  0  0  0
 25 26  1  0  0  0  0
 28 27  1  0  0  0  0
 29 28  1  1  0  0  0
 30 31  1  6  0  0  0
 30 29  1  0  0  0  0
 32 31  1  6  0  0  0
 32 30  1  0  0  0  0
 32 29  1  0  0  0  0
M  END
>  <MODEL>
1

>  <REMARK>
 VINA RESULT:      -6.6      0.000      0.000
  Name = 
  12 active torsions:
  status: ('A' for Active; 'I' for Inactive)
    1  A    between atoms: O_1  and  C_4
    2  A    between atoms: O_1  and  C_5
    3  A    between atoms: C_2  and  C_5
    4  A    between atoms: C_3  and  N_20
    5  A    between atoms: C_4  and  C_24
    6  A    between atoms: C_5  and  C_14
    7  A    between atoms: C_13  and  C_30
    8  A    between atoms: C_14  and  C_30
    9  A    between atoms: C_15  and  N_20
   10  A    between atoms: C_15  and  O_26
   11  A    between atoms: C_16  and  N_20
   12  A    between atoms: C_19  and  O_26
                            x       y       z     vdW  Elec       q    Type
                         _______ _______ _______ _____ _____    ______ ____

>  <TORSDO>
F 12

$$$$
=
 OpenBabel11062408343D

 32 37  0  0  1  0  0  0  0  0999 V2000
  161.7060  207.5080  151.6760 C   0  0  2  0  0  3  0  0  0  0  0  0
  161.1590  208.0220  152.9690 C   0  0  0  0  0  0  0  0  0  0  0  0
  160.9790  207.1230  154.0450 C   0  0  0  0  0  3  0  0  0  0  0  0
  159.5550  210.8370  156.0050 C   0  0  0  0  0  0  0  0  0  0  0  0
  160.8280  209.3870  153.1220 C   0  0  0  0  0  3  0  0  0  0  0  0
  159.6640  209.5610  156.4580 N   0  0  0  0  0  2  0  0  0  0  0  0
  160.1560  208.9220  155.3890 C   0  0  0  0  0  0  0  0  0  0  0  0
  160.4690  207.5700  155.2770 C   0  0  0  0  0  3  0  0  0  0  0  0
  159.9510  211.0260  154.7200 N   0  0  0  0  0  2  0  0  0  0  0  0
  158.9950  212.0550  156.9370 S   0  0  0  0  0  0  0  0  0  0  0  0
  160.3270  209.7920  154.3550 C   0  0  0  0  0  0  0  0  0  0  0  0
  162.6300  206.4850  151.9170 O   0  0  0  0  0  0  0  0  0  0  0  0
  162.1990  205.3960  151.1540 C   0  0  1  0  0  3  0  0  0  0  0  0
  162.4090  204.2220  151.8840 O   0  0  0  0  0  1  0  0  0  0  0  0
  160.3370  205.1040  149.3790 C   0  0  2  0  0  3  0  0  0  0  0  0
  160.7140  205.5800  150.7970 C   0  0  1  0  0  3  0  0  0  0  0  0
  159.9920  204.2600  150.5960 C   0  0  0  0  0  2  0  0  0  0  0  0
  161.4640  204.5200  148.6460 N   0  0  0  0  0  0  0  0  0  0  0  0
  161.2670  204.8430  147.2350 C   0  0  1  0  0  3  0  0  0  0  0  0
  160.8950  206.3040  147.0790 C   0  0  0  0  0  2  0  0  0  0  0  0
  162.3080  205.8570  146.7870 C   0  0  2  0  0  3  0  0  0  0  0  0
  162.4950  205.7380  145.2900 C   0  0  0  0  0  1  0  0  0  0  0  0
  161.3460  203.0690  148.7530 C   0  0  0  0  0  2  0  0  0  0  0  0
  161.1260  202.5220  147.4880 O   0  0  0  0  0  0  0  0  0  0  0  0
  161.0440  200.8860  149.2080 C   0  0  0  0  0  1  0  0  0  0  0  0
  160.9790  201.1550  147.7200 C   0  0  0  0  0  2  0  0  0  0  0  0
  162.3540  208.6370  150.8850 C   0  0  0  0  0  2  0  0  0  0  0  0
  161.6600  208.8040  149.5480 C   0  0  0  0  0  2  0  0  0  0  0  0
  162.3590  209.8810  148.7460 C   0  0  1  0  0  3  0  0  0  0  0  0
  161.3380  210.8910  148.2560 C   0  0  2  0  0  3  0  0  0  0  0  0
  161.9350  212.2780  148.3960 C   0  0  0  0  0  2  0  0  0  0  0  0
  162.2000  211.2170  149.4470 C   0  0  2  0  0  3  0  0  0  0  0  0
  1 27  1  1  0  0  0
  1 12  1  0  0  0  0
  1  2  1  0  0  0  0
  2  5  2  0  0  0  0
  2  3  1  0  0  0  0
  3  8  2  0  0  0  0
  4  6  1  0  0  0  0
  4 10  2  0  0  0  0
  5 11  1  0  0  0  0
  7  6  1  0  0  0  0
  8  7  1  0  0  0  0
  9  4  1  0  0  0  0
 11  9  1  0  0  0  0
 11  7  2  0  0  0  0
 13 14  1  1  0  0  0
 13 12  1  0  0  0  0
 15 18  1  6  0  0  0
 15 17  1  0  0  0  0
 15 16  1  0  0  0  0
 16 13  1  6  0  0  0
 17 16  1  0  0  0  0
 18 23  1  0  0  0  0
 19 18  1  1  0  0  0
 20 19  1  0  0  0  0
 21 22  1  6  0  0  0
 21 20  1  0  0  0  0
 21 19  1  0  0  0  0
 24 26  1  0  0  0  0
 24 23  1  0  0  0  0
 26 25  1  0  0  0  0
 28 27  1  0  0  0  0
 29 32  1  0  0  0  0
 29 28  1  1  0  0  0
 30 31  1  6  0  0  0
 30 29  1  0  0  0  0
 30 32  1  0  0  0  0
 32 31  1  6  0  0  0
M  END
>  <MODEL>
2

>  <REMARK>
 VINA RESULT:      -6.6      3.291      7.931
  Name = 
  12 active torsions:
  status: ('A' for Active; 'I' for Inactive)
    1  A    between atoms: O_1  and  C_4
    2  A    between atoms: O_1  and  C_5
    3  A    between atoms: C_2  and  C_5
    4  A    between atoms: C_3  and  N_20
    5  A    between atoms: C_4  and  C_24
    6  A    between atoms: C_5  and  C_14
    7  A    between atoms: C_13  and  C_30
    8  A    between atoms: C_14  and  C_30
    9  A    between atoms: C_15  and  N_20
   10  A    between atoms: C_15  and  O_26
   11  A    between atoms: C_16  and  N_20
   12  A    between atoms: C_19  and  O_26
                            x       y       z     vdW  Elec       q    Type
                         _______ _______ _______ _____ _____    ______ ____

>  <TORSDO>
F 12

$$$$
=
 OpenBabel11062408343D

 32 37  0  0  1  0  0  0  0  0999 V2000
  161.6010  208.9500  151.2880 C   0  0  2  0  0  3  0  0  0  0  0  0
  160.8560  209.4670  152.4770 C   0  0  0  0  0  0  0  0  0  0  0  0
  161.0300  208.8310  153.7270 C   0  0  0  0  0  3  0  0  0  0  0  0
  158.1560  211.9780  154.9500 C   0  0  0  0  0  0  0  0  0  0  0  0
  159.9900  210.5770  152.3600 C   0  0  0  0  0  3  0  0  0  0  0  0
  158.7660  210.9890  155.6540 N   0  0  0  0  0  2  0  0  0  0  0  0
  159.5060  210.3870  154.7130 C   0  0  0  0  0  0  0  0  0  0  0  0
  160.3490  209.2900  154.8690 C   0  0  0  0  0  3  0  0  0  0  0  0
  158.4750  212.0260  153.6310 N   0  0  0  0  0  2  0  0  0  0  0  0
  157.1200  213.0350  155.6400 S   0  0  0  0  0  0  0  0  0  0  0  0
  159.3340  211.0030  153.5110 C   0  0  0  0  0  0  0  0  0  0  0  0
  162.5810  208.0360  151.6950 O   0  0  0  0  0  0  0  0  0  0  0  0
  162.3090  206.8540  150.9990 C   0  0  1  0  0  3  0  0  0  0  0  0
  162.9250  205.7890  151.6620 O   0  0  0  0  0  1  0  0  0  0  0  0
  160.3370  205.6910  149.7920 C   0  0  2  0  0  3  0  0  0  0  0  0
  160.7850  206.6550  150.9080 C   0  0  1  0  0  3  0  0  0  0  0  0
  160.3590  205.2370  151.2420 C   0  0  0  0  0  2  0  0  0  0  0  0
  161.4550  205.1040  149.0480 N   0  0  0  0  0  0  0  0  0  0  0  0
  161.1710  205.3000  147.6280 C   0  0  1  0  0  3  0  0  0  0  0  0
  161.1020  206.7800  147.3070 C   0  0  0  0  0  2  0  0  0  0  0  0
  162.3460  205.9970  146.9590 C   0  0  2  0  0  3  0  0  0  0  0  0
  162.3320  205.6690  145.4810 C   0  0  0  0  0  1  0  0  0  0  0  0
  161.4200  203.6630  149.2760 C   0  0  0  0  0  2  0  0  0  0  0  0
  161.0200  203.0130  148.1080 O   0  0  0  0  0  0  0  0  0  0  0  0
  160.7670  201.5960  149.9960 C   0  0  0  0  0  1  0  0  0  0  0  0
  160.8550  201.6820  148.4880 C   0  0  0  0  0  2  0  0  0  0  0  0
  162.2330  210.0990  150.5140 C   0  0  0  0  0  2  0  0  0  0  0  0
  161.8690  210.0020  149.0450 C   0  0  0  0  0  2  0  0  0  0  0  0
  162.2450  211.2900  148.3450 C   0  0  1  0  0  3  0  0  0  0  0  0
  161.0250  211.8630  147.6480 C   0  0  2  0  0  3  0  0  0  0  0  0
  161.0250  213.3660  147.8450 C   0  0  0  0  0  2  0  0  0  0  0  0
  161.4760  212.4440  148.9610 C   0  0  2  0  0  3  0  0  0  0  0  0
  1 27  1  1  0  0  0
  1 12  1  0  0  0  0
  1  2  1  0  0  0  0
  2  3  1  0  0  0  0
  3  8  2  0  0  0  0
  4 10  2  0  0  0  0
  4  6  1  0  0  0  0
  5  2  2  0  0  0  0
  5 11  1  0  0  0  0
  7  8  1  0  0  0  0
  7  6  1  0  0  0  0
  9  4  1  0  0  0  0
 11  9  1  0  0  0  0
 11  7  2  0  0  0  0
 13 14  1  1  0  0  0
 13 12  1  0  0  0  0
 15 18  1  6  0  0  0
 15 16  1  0  0  0  0
 15 17  1  0  0  0  0
 16 13  1  6  0  0  0
 16 17  1  0  0  0  0
 18 23  1  0  0  0  0
 19 18  1  1  0  0  0
 20 19  1  0  0  0  0
 21 22  1  6  0  0  0
 21 20  1  0  0  0  0
 21 19  1  0  0  0  0
 24 26  1  0  0  0  0
 24 23  1  0  0  0  0
 26 25  1  0  0  0  0
 28 27  1  0  0  0  0
 29 32  1  0  0  0  0
 29 28  1  1  0  0  0
 30 31  1  6  0  0  0
 30 29  1  0  0  0  0
 30 32  1  0  0  0  0
 32 31  1  6  0  0  0
M  END
>  <MODEL>
3

>  <REMARK>
 VINA RESULT:      -6.4      3.021      7.820
  Name = 
  12 active torsions:
  status: ('A' for Active; 'I' for Inactive)
    1  A    between atoms: O_1  and  C_4
    2  A    between atoms: O_1  and  C_5
    3  A    between atoms: C_2  and  C_5
    4  A    between atoms: C_3  and  N_20
    5  A    between atoms: C_4  and  C_24
    6  A    between atoms: C_5  and  C_14
    7  A    between atoms: C_13  and  C_30
    8  A    between atoms: C_14  and  C_30
    9  A    between atoms: C_15  and  N_20
   10  A    between atoms: C_15  and  O_26
   11  A    between atoms: C_16  and  N_20
   12  A    between atoms: C_19  and  O_26
                            x       y       z     vdW  Elec       q    Type
                         _______ _______ _______ _____ _____    ______ ____

>  <TORSDO>
F 12

$$$$
=
 OpenBabel11062408343D

 32 37  0  0  1  0  0  0  0  0999 V2000
  161.7070  208.4820  151.5400 C   0  0  2  0  0  3  0  0  0  0  0  0
  161.4230  207.2210  150.7890 C   0  0  0  0  0  0  0  0  0  0  0  0
  161.0830  207.2980  149.4190 C   0  0  0  0  0  3  0  0  0  0  0  0
  160.8950  202.8970  149.9280 C   0  0  0  0  0  0  0  0  0  0  0  0
  161.4950  205.9650  151.4320 C   0  0  0  0  0  3  0  0  0  0  0  0
  160.6800  203.6910  148.8470 N   0  0  0  0  0  2  0  0  0  0  0  0
  160.8940  204.9150  149.3480 C   0  0  0  0  0  0  0  0  0  0  0  0
  160.8110  206.1330  148.6790 C   0  0  0  0  0  3  0  0  0  0  0  0
  161.2290  203.5550  151.0680 N   0  0  0  0  0  2  0  0  0  0  0  0
  160.7650  201.2710  149.8620 S   0  0  0  0  0  0  0  0  0  0  0  0
  161.2200  204.8350  150.6680 C   0  0  0  0  0  0  0  0  0  0  0  0
  160.5070  209.1090  151.8970 O   0  0  0  0  0  0  0  0  0  0  0  0
  160.5010  209.1480  153.2950 C   0  0  1  0  0  3  0  0  0  0  0  0
  160.7570  207.8640  153.7830 O   0  0  0  0  0  1  0  0  0  0  0  0
  160.9780  211.5050  154.2530 C   0  0  2  0  0  3  0  0  0  0  0  0
  161.5570  210.1570  153.7810 C   0  0  1  0  0  3  0  0  0  0  0  0
  161.4350  210.4640  155.2620 C   0  0  0  0  0  2  0  0  0  0  0  0
  159.5140  211.5600  154.1920 N   0  0  0  0  0  0  0  0  0  0  0  0
  159.1630  212.8090  153.5200 C   0  0  1  0  0  3  0  0  0  0  0  0
  159.7420  212.8320  152.1190 C   0  0  0  0  0  2  0  0  0  0  0  0
  158.2780  212.5170  152.3180 C   0  0  2  0  0  3  0  0  0  0  0  0
  157.4560  213.7490  152.0050 C   0  0  0  0  0  1  0  0  0  0  0  0
  159.0270  211.6830  155.5630 C   0  0  0  0  0  2  0  0  0  0  0  0
  158.0260  210.7370  155.7910 O   0  0  0  0  0  0  0  0  0  0  0  0
  155.8670  211.1630  154.8990 C   0  0  0  0  0  1  0  0  0  0  0  0
  156.8710  211.4920  155.9840 C   0  0  0  0  0  2  0  0  0  0  0  0
  162.5690  209.4170  150.7030 C   0  0  0  0  0  2  0  0  0  0  0  0
  161.7310  210.5620  150.1670 C   0  0  0  0  0  2  0  0  0  0  0  0
  162.0030  210.7410  148.6890 C   0  0  1  0  0  3  0  0  0  0  0  0
  161.3010  211.9910  148.1930 C   0  0  2  0  0  3  0  0  0  0  0  0
  162.2310  212.7110  147.2340 C   0  0  0  0  0  2  0  0  0  0  0  0
  162.7810  212.0250  148.4700 C   0  0  2  0  0  3  0  0  0  0  0  0
  1 27  1  6  0  0  0
  1 12  1  0  0  0  0
  2  5  1  0  0  0  0
  2  1  1  0  0  0  0
  3  2  2  0  0  0  0
  4  9  1  0  0  0  0
  6  7  1  0  0  0  0
  6  4  1  0  0  0  0
  7 11  1  0  0  0  0
  8  7  2  0  0  0  0
  8  3  1  0  0  0  0
 10  4  2  0  0  0  0
 11  9  1  0  0  0  0
 11  5  2  0  0  0  0
 12 13  1  0  0  0  0
 13 14  1  1  0  0  0
 15 18  1  1  0  0  0
 15 17  1  0  0  0  0
 16 13  1  1  0  0  0
 16 15  1  0  0  0  0
 16 17  1  0  0  0  0
 18 23  1  0  0  0  0
 19 18  1  1  0  0  0
 20 21  1  0  0  0  0
 20 19  1  0  0  0  0
 21 22  1  6  0  0  0
 21 19  1  0  0  0  0
 23 24  1  0  0  0  0
 24 26  1  0  0  0  0
 25 26  1  0  0  0  0
 28 27  1  0  0  0  0
 29 28  1  1  0  0  0
 30 31  1  6  0  0  0
 30 32  1  0  0  0  0
 30 29  1  0  0  0  0
 32 31  1  6  0  0  0
 32 29  1  0  0  0  0
M  END
>  <MODEL>
4

>  <REMARK>
 VINA RESULT:      -6.2      2.923      5.106
  Name = 
  12 active torsions:
  status: ('A' for Active; 'I' for Inactive)
    1  A    between atoms: O_1  and  C_4
    2  A    between atoms: O_1  and  C_5
    3  A    between atoms: C_2  and  C_5
    4  A    between atoms: C_3  and  N_20
    5  A    between atoms: C_4  and  C_24
    6  A    between atoms: C_5  and  C_14
    7  A    between atoms: C_13  and  C_30
    8  A    between atoms: C_14  and  C_30
    9  A    between atoms: C_15  and  N_20
   10  A    between atoms: C_15  and  O_26
   11  A    between atoms: C_16  and  N_20
   12  A    between atoms: C_19  and  O_26
                            x       y       z     vdW  Elec       q    Type
                         _______ _______ _______ _____ _____    ______ ____

>  <TORSDO>
F 12

$$$$
=
 OpenBabel11062408343D

 32 37  0  0  1  0  0  0  0  0999 V2000
  160.9400  206.6530  152.7020 C   0  0  2  0  0  3  0  0  0  0  0  0
  161.2480  206.8170  151.2480 C   0  0  0  0  0  0  0  0  0  0  0  0
  162.3690  207.5890  150.8650 C   0  0  0  0  0  3  0  0  0  0  0  0
  160.9300  206.4220  146.8370 C   0  0  0  0  0  0  0  0  0  0  0  0
  160.4360  206.2090  150.2640 C   0  0  0  0  0  3  0  0  0  0  0  0
  161.9860  207.1770  147.2350 N   0  0  0  0  0  2  0  0  0  0  0  0
  161.8690  207.1480  148.5690 C   0  0  0  0  0  0  0  0  0  0  0  0
  162.6920  207.7640  149.5080 C   0  0  0  0  0  3  0  0  0  0  0  0
  160.1660  205.9260  147.8440 N   0  0  0  0  0  2  0  0  0  0  0  0
  160.6050  206.1270  145.2640 S   0  0  0  0  0  0  0  0  0  0  0  0
  160.7870  206.4040  148.9320 C   0  0  0  0  0  0  0  0  0  0  0  0
  161.6990  207.5540  153.4590 O   0  0  0  0  0  0  0  0  0  0  0  0
  160.8020  208.1500  154.3510 C   0  0  1  0  0  3  0  0  0  0  0  0
  160.1840  207.1490  155.1040 O   0  0  0  0  0  1  0  0  0  0  0  0
  160.8400  210.4910  155.4530 C   0  0  2  0  0  3  0  0  0  0  0  0
  161.5610  209.1440  155.2480 C   0  0  1  0  0  3  0  0  0  0  0  0
  160.8310  209.4350  156.5460 C   0  0  0  0  0  2  0  0  0  0  0  0
  159.5360  210.5590  154.7860 N   0  0  0  0  0  0  0  0  0  0  0  0
  159.5490  211.7550  153.9490 C   0  0  1  0  0  3  0  0  0  0  0  0
  160.4560  211.5480  152.7520 C   0  0  0  0  0  2  0  0  0  0  0  0
  158.9590  211.4350  152.5840 C   0  0  2  0  0  3  0  0  0  0  0  0
  158.4280  212.7120  151.9680 C   0  0  0  0  0  1  0  0  0  0  0  0
  158.5320  210.7940  155.8200 C   0  0  0  0  0  2  0  0  0  0  0  0
  158.0860  212.1150  155.7480 O   0  0  0  0  0  0  0  0  0  0  0  0
  155.9080  211.8100  154.8520 C   0  0  0  0  0  1  0  0  0  0  0  0
  156.7380  212.0470  156.0960 C   0  0  0  0  0  2  0  0  0  0  0  0
  161.2110  205.2220  153.1450 C   0  0  0  0  0  2  0  0  0  0  0  0
  161.7250  204.4010  151.9790 C   0  0  0  0  0  2  0  0  0  0  0  0
  160.8830  203.1530  151.8280 C   0  0  1  0  0  3  0  0  0  0  0  0
  160.7270  202.8210  150.3550 C   0  0  2  0  0  3  0  0  0  0  0  0
  160.8480  201.3190  150.1890 C   0  0  0  0  0  2  0  0  0  0  0  0
  161.7150  202.0550  151.1930 C   0  0  2  0  0  3  0  0  0  0  0  0
  1 27  1  1  0  0  0
  1 12  1  0  0  0  0
  2  1  1  0  0  0  0
  3  2  1  0  0  0  0
  4  6  1  0  0  0  0
  4  9  1  0  0  0  0
  5  2  2  0  0  0  0
  6  7  1  0  0  0  0
  7 11  2  0  0  0  0
  7  8  1  0  0  0  0
  8  3  2  0  0  0  0
  9 11  1  0  0  0  0
 10  4  2  0  0  0  0
 11  5  1  0  0  0  0
 12 13  1  0  0  0  0
 13 14  1  1  0  0  0
 15 18  1  6  0  0  0
 15 17  1  0  0  0  0
 16 13  1  6  0  0  0
 16 15  1  0  0  0  0
 16 17  1  0  0  0  0
 18 23  1  0  0  0  0
 19 18  1  1  0  0  0
 20 19  1  0  0  0  0
 21 22  1  6  0  0  0
 21 20  1  0  0  0  0
 21 19  1  0  0  0  0
 24 23  1  0  0  0  0
 24 26  1  0  0  0  0
 25 26  1  0  0  0  0
 28 27  1  0  0  0  0
 29 28  1  6  0  0  0
 30 31  1  1  0  0  0
 30 32  1  0  0  0  0
 30 29  1  0  0  0  0
 32 31  1  1  0  0  0
 32 29  1  0  0  0  0
M  END
>  <MODEL>
5

>  <REMARK>
 VINA RESULT:      -6.2      1.945      2.341
  Name = 
  12 active torsions:
  status: ('A' for Active; 'I' for Inactive)
    1  A    between atoms: O_1  and  C_4
    2  A    between atoms: O_1  and  C_5
    3  A    between atoms: C_2  and  C_5
    4  A    between atoms: C_3  and  N_20
    5  A    between atoms: C_4  and  C_24
    6  A    between atoms: C_5  and  C_14
    7  A    between atoms: C_13  and  C_30
    8  A    between atoms: C_14  and  C_30
    9  A    between atoms: C_15  and  N_20
   10  A    between atoms: C_15  and  O_26
   11  A    between atoms: C_16  and  N_20
   12  A    between atoms: C_19  and  O_26
                            x       y       z     vdW  Elec       q    Type
                         _______ _______ _______ _____ _____    ______ ____

>  <TORSDO>
F 12

$$$$
=
 OpenBabel11062408343D

 32 37  0  0  1  0  0  0  0  0999 V2000
  161.5120  207.3600  150.5990 C   0  0  2  0  0  3  0  0  0  0  0  0
  161.5640  206.5740  149.3280 C   0  0  0  0  0  0  0  0  0  0  0  0
  162.0630  207.1920  148.1580 C   0  0  0  0  0  3  0  0  0  0  0  0
  161.1410  203.1900  146.4850 C   0  0  0  0  0  0  0  0  0  0  0  0
  161.1230  205.2330  149.2890 C   0  0  0  0  0  3  0  0  0  0  0  0
  161.6600  204.3090  145.9160 N   0  0  0  0  0  2  0  0  0  0  0  0
  161.6870  205.1640  146.9470 C   0  0  0  0  0  0  0  0  0  0  0  0
  162.1290  206.4840  146.9440 C   0  0  0  0  0  3  0  0  0  0  0  0
  160.8470  203.3000  147.8060 N   0  0  0  0  0  2  0  0  0  0  0  0
  160.8950  201.8120  145.6450 S   0  0  0  0  0  0  0  0  0  0  0  0
  161.2050  204.5650  148.0710 C   0  0  0  0  0  0  0  0  0  0  0  0
  162.3100  208.5050  150.4890 O   0  0  0  0  0  0  0  0  0  0  0  0
  162.1470  209.1980  151.6920 C   0  0  1  0  0  3  0  0  0  0  0  0
  163.0980  210.2210  151.7560 O   0  0  0  0  0  1  0  0  0  0  0  0
  160.1600  209.8850  153.2030 C   0  0  2  0  0  3  0  0  0  0  0  0
  160.7150  209.7550  151.7690 C   0  0  1  0  0  3  0  0  0  0  0  0
  160.6490  211.1110  152.4480 C   0  0  0  0  0  2  0  0  0  0  0  0
  161.1240  209.4930  154.2350 N   0  0  0  0  0  0  0  0  0  0  0  0
  160.3900  208.7150  155.2290 C   0  0  1  0  0  3  0  0  0  0  0  0
  160.3390  207.2560  154.8210 C   0  0  0  0  0  2  0  0  0  0  0  0
  161.3180  207.7020  155.8800 C   0  0  2  0  0  3  0  0  0  0  0  0
  160.7730  207.3450  157.2470 C   0  0  0  0  0  1  0  0  0  0  0  0
  161.5590  210.7130  154.9090 C   0  0  0  0  0  2  0  0  0  0  0  0
  162.9290  210.6440  155.1660 O   0  0  0  0  0  0  0  0  0  0  0  0
  161.7240  211.5460  157.0020 C   0  0  0  0  0  1  0  0  0  0  0  0
  163.0540  211.0240  156.5010 C   0  0  0  0  0  2  0  0  0  0  0  0
  161.9670  206.5030  151.7730 C   0  0  0  0  0  2  0  0  0  0  0  0
  160.7830  205.7730  152.3770 C   0  0  0  0  0  2  0  0  0  0  0  0
  161.2170  204.3980  152.8360 C   0  0  1  0  0  3  0  0  0  0  0  0
  160.5090  203.3410  152.0080 C   0  0  2  0  0  3  0  0  0  0  0  0
  161.5020  202.2410  151.6890 C   0  0  0  0  0  2  0  0  0  0  0  0
  161.9410  203.6930  151.7040 C   0  0  2  0  0  3  0  0  0  0  0  0
  1 27  1  1  0  0  0
  2  1  1  0  0  0  0
  3  2  2  0  0  0  0
  4  9  1  0  0  0  0
  5  2  1  0  0  0  0
  6  4  1  0  0  0  0
  6  7  1  0  0  0  0
  7 11  1  0  0  0  0
  8  7  2  0  0  0  0
  8  3  1  0  0  0  0
  9 11  1  0  0  0  0
 10  4  2  0  0  0  0
 11  5  2  0  0  0  0
 12  1  1  0  0  0  0
 12 13  1  0  0  0  0
 13 14  1  6  0  0  0
 15 18  1  1  0  0  0
 16 13  1  1  0  0  0
 16 17  1  0  0  0  0
 16 15  1  0  0  0  0
 17 15  1  0  0  0  0
 18 23  1  0  0  0  0
 19 18  1  6  0  0  0
 19 21  1  0  0  0  0
 20 19  1  0  0  0  0
 20 21  1  0  0  0  0
 21 22  1  1  0  0  0
 23 24  1  0  0  0  0
 24 26  1  0  0  0  0
 26 25  1  0  0  0  0
 27 28  1  0  0  0  0
 29 28  1  6  0  0  0
 30 31  1  1  0  0  0
 30 29  1  0  0  0  0
 32 31  1  1  0  0  0
 32 30  1  0  0  0  0
 32 29  1  0  0  0  0
M  END
>  <MODEL>
6

>  <REMARK>
 VINA RESULT:      -6.1      3.400      4.990
  Name = 
  12 active torsions:
  status: ('A' for Active; 'I' for Inactive)
    1  A    between atoms: O_1  and  C_4
    2  A    between atoms: O_1  and  C_5
    3  A    between atoms: C_2  and  C_5
    4  A    between atoms: C_3  and  N_20
    5  A    between atoms: C_4  and  C_24
    6  A    between atoms: C_5  and  C_14
    7  A    between atoms: C_13  and  C_30
    8  A    between atoms: C_14  and  C_30
    9  A    between atoms: C_15  and  N_20
   10  A    between atoms: C_15  and  O_26
   11  A    between atoms: C_16  and  N_20
   12  A    between atoms: C_19  and  O_26
                            x       y       z     vdW  Elec       q    Type
                         _______ _______ _______ _____ _____    ______ ____

>  <TORSDO>
F 12

$$$$
=
 OpenBabel11062408343D

 32 37  0  0  1  0  0  0  0  0999 V2000
  161.6510  208.6980  149.4220 C   0  0  2  0  0  3  0  0  0  0  0  0
  161.6220  207.3200  148.8430 C   0  0  0  0  0  0  0  0  0  0  0  0
  162.0310  207.1280  147.5040 C   0  0  0  0  0  3  0  0  0  0  0  0
  161.0360  202.9300  148.5290 C   0  0  0  0  0  0  0  0  0  0  0  0
  161.1930  206.2190  149.6190 C   0  0  0  0  0  3  0  0  0  0  0  0
  161.5020  203.4940  147.3850 N   0  0  0  0  0  2  0  0  0  0  0  0
  161.5920  204.7870  147.7230 C   0  0  0  0  0  0  0  0  0  0  0  0
  162.0190  205.8460  146.9250 C   0  0  0  0  0  3  0  0  0  0  0  0
  160.8340  203.7950  149.5560 N   0  0  0  0  0  2  0  0  0  0  0  0
  160.7450  201.3290  148.6630 S   0  0  0  0  0  0  0  0  0  0  0  0
  161.1960  204.9670  149.0130 C   0  0  0  0  0  0  0  0  0  0  0  0
  162.4320  209.5400  148.6200 O   0  0  0  0  0  0  0  0  0  0  0  0
  161.8560  210.8090  148.7280 C   0  0  1  0  0  3  0  0  0  0  0  0
  162.0000  211.2580  150.0440 O   0  0  0  0  0  1  0  0  0  0  0  0
  161.6210  212.8900  147.2070 C   0  0  2  0  0  3  0  0  0  0  0  0
  162.5350  211.7630  147.7300 C   0  0  1  0  0  3  0  0  0  0  0  0
  162.6710  213.1750  148.2690 C   0  0  0  0  0  2  0  0  0  0  0  0
  160.2790  212.8690  147.7980 N   0  0  0  0  0  0  0  0  0  0  0  0
  159.3450  213.2530  146.7430 C   0  0  1  0  0  3  0  0  0  0  0  0
  159.3810  212.2410  145.6150 C   0  0  0  0  0  2  0  0  0  0  0  0
  158.2510  212.2040  146.6160 C   0  0  2  0  0  3  0  0  0  0  0  0
  157.0230  212.8480  146.0070 C   0  0  0  0  0  1  0  0  0  0  0  0
  160.2280  213.9320  148.7970 C   0  0  0  0  0  2  0  0  0  0  0  0
  159.5990  213.4610  149.9500 O   0  0  0  0  0  0  0  0  0  0  0  0
  157.2440  213.7420  149.8320 C   0  0  0  0  0  1  0  0  0  0  0  0
  158.5730  214.3740  150.1860 C   0  0  0  0  0  2  0  0  0  0  0  0
  162.1900  208.6660  150.8460 C   0  0  0  0  0  2  0  0  0  0  0  0
  161.0550  208.8280  151.8380 C   0  0  0  0  0  2  0  0  0  0  0  0
  161.4730  208.2680  153.1810 C   0  0  1  0  0  3  0  0  0  0  0  0
  160.4570  207.2390  153.6390 C   0  0  2  0  0  3  0  0  0  0  0  0
  161.2040  206.0750  154.2610 C   0  0  0  0  0  2  0  0  0  0  0  0
  161.7620  206.7850  153.0430 C   0  0  2  0  0  3  0  0  0  0  0  0
  1 27  1  1  0  0  0
  2  1  1  0  0  0  0
  2  5  1  0  0  0  0
  3  2  2  0  0  0  0
  4 10  2  0  0  0  0
  4  9  1  0  0  0  0
  6  7  1  0  0  0  0
  6  4  1  0  0  0  0
  7 11  1  0  0  0  0
  8  3  1  0  0  0  0
  8  7  2  0  0  0  0
 11  9  1  0  0  0  0
 11  5  2  0  0  0  0
 12 13  1  0  0  0  0
 12  1  1  0  0  0  0
 13 14  1  1  0  0  0
 15 16  1  0  0  0  0
 15 18  1  1  0  0  0
 15 17  1  0  0  0  0
 16 17  1  0  0  0  0
 16 13  1  1  0  0  0
 18 23  1  0  0  0  0
 19 18  1  1  0  0  0
 20 21  1  0  0  0  0
 20 19  1  0  0  0  0
 21 22  1  6  0  0  0
 21 19  1  0  0  0  0
 23 24  1  0  0  0  0
 24 26  1  0  0  0  0
 25 26  1  0  0  0  0
 27 28  1  0  0  0  0
 29 28  1  6  0  0  0
 29 30  1  0  0  0  0
 30 31  1  1  0  0  0
 32 29  1  0  0  0  0
 32 30  1  0  0  0  0
 32 31  1  1  0  0  0
M  END
>  <MODEL>
7

>  <REMARK>
 VINA RESULT:      -6.1      4.172      6.522
  Name = 
  12 active torsions:
  status: ('A' for Active; 'I' for Inactive)
    1  A    between atoms: O_1  and  C_4
    2  A    between atoms: O_1  and  C_5
    3  A    between atoms: C_2  and  C_5
    4  A    between atoms: C_3  and  N_20
    5  A    between atoms: C_4  and  C_24
    6  A    between atoms: C_5  and  C_14
    7  A    between atoms: C_13  and  C_30
    8  A    between atoms: C_14  and  C_30
    9  A    between atoms: C_15  and  N_20
   10  A    between atoms: C_15  and  O_26
   11  A    between atoms: C_16  and  N_20
   12  A    between atoms: C_19  and  O_26
                            x       y       z     vdW  Elec       q    Type
                         _______ _______ _______ _____ _____    ______ ____

>  <TORSDO>
F 12

$$$$
=
 OpenBabel11062408343D

 32 37  0  0  1  0  0  0  0  0999 V2000
  161.4590  206.3360  153.0920 C   0  0  2  0  0  3  0  0  0  0  0  0
  161.2450  205.1650  152.1880 C   0  0  0  0  0  0  0  0  0  0  0  0
  160.9200  203.9100  152.7530 C   0  0  0  0  0  3  0  0  0  0  0  0
  160.9100  202.7580  148.4710 C   0  0  0  0  0  0  0  0  0  0  0  0
  161.3610  205.3020  150.7870 C   0  0  0  0  0  3  0  0  0  0  0  0
  160.6740  202.0410  149.6000 N   0  0  0  0  0  2  0  0  0  0  0  0
  160.8320  202.9620  150.5600 C   0  0  0  0  0  0  0  0  0  0  0  0
  160.7090  202.7860  151.9350 C   0  0  0  0  0  3  0  0  0  0  0  0
  161.2020  204.0690  148.6740 N   0  0  0  0  0  2  0  0  0  0  0  0
  160.8410  202.0960  146.9810 S   0  0  0  0  0  0  0  0  0  0  0  0
  161.1450  204.1680  150.0100 C   0  0  0  0  0  0  0  0  0  0  0  0
  160.8890  206.0860  154.3460 O   0  0  0  0  0  0  0  0  0  0  0  0
  160.4560  207.3280  154.8210 C   0  0  1  0  0  3  0  0  0  0  0  0
  159.3030  207.1410  155.5870 O   0  0  0  0  0  1  0  0  0  0  0  0
  161.3510  209.4690  155.9690 C   0  0  2  0  0  3  0  0  0  0  0  0
  161.5810  207.9790  155.6450 C   0  0  1  0  0  3  0  0  0  0  0  0
  161.1230  208.4030  157.0290 C   0  0  0  0  0  2  0  0  0  0  0  0
  160.0730  209.9800  155.4650 N   0  0  0  0  0  0  0  0  0  0  0  0
  160.3660  211.2110  154.7350 C   0  0  1  0  0  3  0  0  0  0  0  0
  161.4230  210.9560  153.6790 C   0  0  0  0  0  2  0  0  0  0  0  0
  159.9710  211.0510  153.2750 C   0  0  2  0  0  3  0  0  0  0  0  0
  159.7050  212.4200  152.6860 C   0  0  0  0  0  1  0  0  0  0  0  0
  159.2760  210.3730  156.6240 C   0  0  0  0  0  2  0  0  0  0  0  0
  158.9070  211.7130  156.5060 O   0  0  0  0  0  0  0  0  0  0  0  0
  156.7830  212.0610  155.5030 C   0  0  0  0  0  1  0  0  0  0  0  0
  157.5380  211.7230  156.7710 C   0  0  0  0  0  2  0  0  0  0  0  0
  160.8670  207.5970  152.4780 C   0  0  0  0  0  2  0  0  0  0  0  0
  161.9000  208.2930  151.6130 C   0  0  0  0  0  2  0  0  0  0  0  0
  161.2060  209.0150  150.4780 C   0  0  1  0  0  3  0  0  0  0  0  0
  161.9680  210.2840  150.1450 C   0  0  2  0  0  3  0  0  0  0  0  0
  162.0030  210.4370  148.6360 C   0  0  0  0  0  2  0  0  0  0  0  0
  162.1270  209.0670  149.2740 C   0  0  2  0  0  3  0  0  0  0  0  0
  1 27  1  6  0  0  0
  1 12  1  0  0  0  0
  2  3  1  0  0  0  0
  2  1  1  0  0  0  0
  4  9  1  0  0  0  0
  4  6  1  0  0  0  0
  5  2  2  0  0  0  0
  6  7  1  0  0  0  0
  7  8  1  0  0  0  0
  8  3  2  0  0  0  0
  9 11  1  0  0  0  0
 10  4  2  0  0  0  0
 11  7  2  0  0  0  0
 11  5  1  0  0  0  0
 12 13  1  0  0  0  0
 13 14  1  1  0  0  0
 15 18  1  6  0  0  0
 15 17  1  0  0  0  0
 16 13  1  6  0  0  0
 16 15  1  0  0  0  0
 16 17  1  0  0  0  0
 18 23  1  0  0  0  0
 19 18  1  1  0  0  0
 20 19  1  0  0  0  0
 21 22  1  6  0  0  0
 21 20  1  0  0  0  0
 21 19  1  0  0  0  0
 24 23  1  0  0  0  0
 24 26  1  0  0  0  0
 25 26  1  0  0  0  0
 28 27  1  0  0  0  0
 29 28  1  1  0  0  0
 30 31  1  6  0  0  0
 30 29  1  0  0  0  0
 32 31  1  6  0  0  0
 32 30  1  0  0  0  0
 32 29  1  0  0  0  0
M  END
>  <MODEL>
8

>  <REMARK>
 VINA RESULT:      -6.1      2.771      4.671
  Name = 
  12 active torsions:
  status: ('A' for Active; 'I' for Inactive)
    1  A    between atoms: O_1  and  C_4
    2  A    between atoms: O_1  and  C_5
    3  A    between atoms: C_2  and  C_5
    4  A    between atoms: C_3  and  N_20
    5  A    between atoms: C_4  and  C_24
    6  A    between atoms: C_5  and  C_14
    7  A    between atoms: C_13  and  C_30
    8  A    between atoms: C_14  and  C_30
    9  A    between atoms: C_15  and  N_20
   10  A    between atoms: C_15  and  O_26
   11  A    between atoms: C_16  and  N_20
   12  A    between atoms: C_19  and  O_26
                            x       y       z     vdW  Elec       q    Type
                         _______ _______ _______ _____ _____    ______ ____

>  <TORSDO>
F 12

$$$$
=
 OpenBabel11062408343D

 32 37  0  0  1  0  0  0  0  0999 V2000
  161.6810  208.5890  151.4250 C   0  0  2  0  0  3  0  0  0  0  0  0
  161.4610  207.3520  150.6140 C   0  0  0  0  0  0  0  0  0  0  0  0
  161.4250  207.4510  149.2040 C   0  0  0  0  0  3  0  0  0  0  0  0
  160.7780  203.0820  149.6030 C   0  0  0  0  0  0  0  0  0  0  0  0
  161.2930  206.0970  151.2410 C   0  0  0  0  0  3  0  0  0  0  0  0
  160.8620  203.8870  148.5130 N   0  0  0  0  0  2  0  0  0  0  0  0
  161.0630  205.0910  149.0630 C   0  0  0  0  0  0  0  0  0  0  0  0
  161.2230  206.3100  148.4080 C   0  0  0  0  0  3  0  0  0  0  0  0
  160.9170  203.7160  150.7970 N   0  0  0  0  0  2  0  0  0  0  0  0
  160.5350  201.4720  149.4900 S   0  0  0  0  0  0  0  0  0  0  0  0
  161.0960  204.9900  150.4210 C   0  0  0  0  0  0  0  0  0  0  0  0
  160.4510  209.1320  151.8170 O   0  0  0  0  0  0  0  0  0  0  0  0
  160.5340  209.2970  153.2020 C   0  0  1  0  0  3  0  0  0  0  0  0
  161.1860  208.1900  153.7510 O   0  0  0  0  0  1  0  0  0  0  0  0
  160.6880  211.4120  154.6880 C   0  0  2  0  0  3  0  0  0  0  0  0
  161.2820  210.6050  153.5150 C   0  0  1  0  0  3  0  0  0  0  0  0
  161.9500  210.5850  154.8790 C   0  0  0  0  0  2  0  0  0  0  0  0
  159.5380  210.7560  155.3190 N   0  0  0  0  0  0  0  0  0  0  0  0
  158.4780  211.7560  155.4120 C   0  0  1  0  0  3  0  0  0  0  0  0
  157.9740  212.1170  154.0290 C   0  0  0  0  0  2  0  0  0  0  0  0
  157.1720  211.1720  154.8930 C   0  0  2  0  0  3  0  0  0  0  0  0
  156.0170  211.9260  155.5170 C   0  0  0  0  0  1  0  0  0  0  0  0
  159.9210  210.4360  156.6910 C   0  0  0  0  0  2  0  0  0  0  0  0
  159.3550  209.2160  157.0630 O   0  0  0  0  0  0  0  0  0  0  0  0
  160.0740  206.9640  156.8380 C   0  0  0  0  0  1  0  0  0  0  0  0
  160.4460  208.3700  157.2560 C   0  0  0  0  0  2  0  0  0  0  0  0
  162.4860  209.6090  150.6320 C   0  0  0  0  0  2  0  0  0  0  0  0
  161.5790  210.7150  150.1300 C   0  0  0  0  0  2  0  0  0  0  0  0
  162.2710  211.4720  149.0170 C   0  0  1  0  0  3  0  0  0  0  0  0
  161.2950  211.7040  147.8790 C   0  0  2  0  0  3  0  0  0  0  0  0
  161.5050  213.1090  147.3490 C   0  0  0  0  0  2  0  0  0  0  0  0
  161.6060  212.8240  148.8350 C   0  0  2  0  0  3  0  0  0  0  0  0
  1 27  1  6  0  0  0
  1 12  1  0  0  0  0
  2  5  1  0  0  0  0
  2  1  1  0  0  0  0
  3  2  2  0  0  0  0
  4  9  1  0  0  0  0
  6  7  1  0  0  0  0
  6  4  1  0  0  0  0
  7 11  1  0  0  0  0
  8  7  2  0  0  0  0
  8  3  1  0  0  0  0
 10  4  2  0  0  0  0
 11  9  1  0  0  0  0
 11  5  2  0  0  0  0
 12 13  1  0  0  0  0
 13 14  1  1  0  0  0
 15 17  1  0  0  0  0
 15 18  1  1  0  0  0
 16 13  1  1  0  0  0
 16 15  1  0  0  0  0
 16 17  1  0  0  0  0
 18 23  1  0  0  0  0
 19 18  1  6  0  0  0
 20 21  1  0  0  0  0
 20 19  1  0  0  0  0
 21 19  1  0  0  0  0
 21 22  1  1  0  0  0
 23 24  1  0  0  0  0
 24 26  1  0  0  0  0
 25 26  1  0  0  0  0
 28 27  1  0  0  0  0
 29 28  1  1  0  0  0
 30 31  1  6  0  0  0
 30 32  1  0  0  0  0
 30 29  1  0  0  0  0
 32 31  1  6  0  0  0
 32 29  1  0  0  0  0
M  END
>  <MODEL>
9

>  <REMARK>
 VINA RESULT:      -6.0      2.936      5.470
  Name = 
  12 active torsions:
  status: ('A' for Active; 'I' for Inactive)
    1  A    between atoms: O_1  and  C_4
    2  A    between atoms: O_1  and  C_5
    3  A    between atoms: C_2  and  C_5
    4  A    between atoms: C_3  and  N_20
    5  A    between atoms: C_4  and  C_24
    6  A    between atoms: C_5  and  C_14
    7  A    between atoms: C_13  and  C_30
    8  A    between atoms: C_14  and  C_30
    9  A    between atoms: C_15  and  N_20
   10  A    between atoms: C_15  and  O_26
   11  A    between atoms: C_16  and  N_20
   12  A    between atoms: C_19  and  O_26
                            x       y       z     vdW  Elec       q    Type
                         _______ _______ _______ _____ _____    ______ ____

>  <TORSDO>
F 12

$$$$
