=
 OpenBabel11062409423D

 34 39  0  0  1  0  0  0  0  0999 V2000
  161.1280  208.4720  151.5760 C   0  0  0  0  0  0  0  0  0  0  0  0
  160.9530  210.9800  151.0860 C   0  0  0  0  0  0  0  0  0  0  0  0
  160.4830  210.7510  153.4920 C   0  0  0  0  0  3  0  0  0  0  0  0
  161.2680  205.8470  152.7500 C   0  0  0  0  0  2  0  0  0  0  0  0
  161.0740  207.2610  150.7960 N   0  0  0  0  0  0  0  0  0  0  0  0
  161.1390  207.1110  153.5400 C   0  0  0  0  0  0  0  0  0  0  0  0
  161.1480  208.0720  155.7550 C   0  0  0  0  0  3  0  0  0  0  0  0
  161.2150  206.9670  154.9240 C   0  0  0  0  0  3  0  0  0  0  0  0
  161.0930  206.0580  151.2810 C   0  0  0  0  0  0  0  0  0  0  0  0
  160.8800  209.5200  153.8180 C   0  0  0  0  0  0  0  0  0  0  0  0
  161.0390  208.4030  152.9370 C   0  0  0  0  0  0  0  0  0  0  0  0
  160.9670  209.3310  155.2020 C   0  0  0  0  0  3  0  0  0  0  0  0
  161.1840  212.0360  150.1950 C   0  0  0  0  0  3  0  0  0  0  0  0
  161.9170  211.8420  149.0230 C   0  0  0  0  0  0  0  0  0  0  0  0
  162.4170  210.5760  148.7310 C   0  0  0  0  0  3  0  0  0  0  0  0
  160.2370  211.2780  152.2320 O   0  0  0  0  0  0  0  0  0  0  0  0
  162.1690  209.5160  149.6030 C   0  0  0  0  0  3  0  0  0  0  0  0
  161.4340  209.6940  150.7900 C   0  0  0  0  0  0  0  0  0  0  0  0
  160.5110  202.5300  149.9910 C   0  0  0  0  0  3  0  0  0  0  0  0
  161.3870  205.0310  149.0140 C   0  0  0  0  0  3  0  0  0  0  0  0
  161.4380  202.4660  146.3550 C   0  0  2  0  0  3  0  0  0  0  0  0
  160.9020  201.6790  147.5740 C   0  0  0  0  0  2  0  0  0  0  0  0
  160.8810  202.7000  148.6580 C   0  0  0  0  0  0  0  0  0  0  0  0
  161.6250  203.8420  146.8140 N   0  0  0  0  0  0  0  0  0  0  0  0
  161.3030  203.9100  148.1880 C   0  0  0  0  0  0  0  0  0  0  0  0
  162.3450  204.8650  146.0750 C   0  0  0  0  0  1  0  0  0  0  0  0
  161.0200  204.8980  150.3680 C   0  0  0  0  0  0  0  0  0  0  0  0
  160.5820  203.6410  150.8470 C   0  0  0  0  0  3  0  0  0  0  0  0
  160.4490  202.4180  145.2370 C   0  0  0  0  0  0  0  0  0  0  0  0
  159.8880  201.3310  144.9470 O   0  0  0  0  0  1  0  0  0  0  0  0
  160.1390  203.5670  144.5190 O   0  0  0  0  0  0  0  0  0  0  0  0
  162.1610  212.9230  148.1210 N   0  0  0  0  0  2  0  0  0  0  0  0
  162.0200  212.7810  146.7790 O   0  0  0  0  0  0  0  0  0  0  0  0
  160.6640  213.0080  146.5340 C   0  0  0  0  0  1  0  0  0  0  0  0
  1 11  2  0  0  0  0
  2 16  1  0  0  0  0
  3 10  2  0  0  0  0
  4  6  1  0  0  0  0
  5  9  2  0  0  0  0
  5  1  1  0  0  0  0
  6  8  2  0  0  0  0
  8  7  1  0  0  0  0
  9  4  1  0  0  0  0
 10 12  1  0  0  0  0
 11  6  1  0  0  0  0
 11 10  1  0  0  0  0
 12  7  2  0  0  0  0
 13  2  2  0  0  0  0
 14 13  1  0  0  0  0
 15 14  2  0  0  0  0
 15 17  1  0  0  0  0
 16  3  1  0  0  0  0
 17 18  2  0  0  0  0
 18  2  1  0  0  0  0
 18  1  1  0  0  0  0
 19 28  1  0  0  0  0
 20 27  1  0  0  0  0
 21 29  1  6  0  0  0
 21 24  1  0  0  0  0
 21 22  1  0  0  0  0
 22 23  1  0  0  0  0
 23 19  2  0  0  0  0
 24 25  1  0  0  0  0
 25 23  1  0  0  0  0
 25 20  2  0  0  0  0
 26 24  1  0  0  0  0
 27 28  2  0  0  0  0
 27  9  1  0  0  0  0
 30 29  1  0  0  0  0
 31 29  2  0  0  0  0
 32 14  1  0  0  0  0
 33 32  1  0  0  0  0
 34 33  1  0  0  0  0
M  END
>  <MODEL>
1

>  <REMARK>
 VINA RESULT:     -10.5      0.000      0.000
  Name = 
  4 active torsions:
  status: ('A' for Active; 'I' for Inactive)
    1  A    between atoms: N_3  and  O_13
    2  A    between atoms: N_3  and  C_25
    3  A    between atoms: C_7  and  C_11
    4  A    between atoms: C_18  and  C_30
                            x       y       z     vdW  Elec       q    Type
                         _______ _______ _______ _____ _____    ______ ____

>  <TORSDO>
F 4

$$$$
=
 OpenBabel11062409423D

 34 39  0  0  1  0  0  0  0  0999 V2000
  161.4100  208.1980  150.8070 C   0  0  0  0  0  0  0  0  0  0  0  0
  161.5810  205.6520  151.0320 C   0  0  0  0  0  0  0  0  0  0  0  0
  161.5210  206.5090  153.3390 C   0  0  0  0  0  3  0  0  0  0  0  0
  161.1270  211.0360  151.2020 C   0  0  0  0  0  2  0  0  0  0  0  0
  161.6860  209.1640  149.7730 N   0  0  0  0  0  0  0  0  0  0  0  0
  161.0260  210.0240  152.2990 C   0  0  0  0  0  0  0  0  0  0  0  0
  160.4900  209.6740  154.6270 C   0  0  0  0  0  3  0  0  0  0  0  0
  160.6530  210.5230  153.5460 C   0  0  0  0  0  3  0  0  0  0  0  0
  161.6120  210.4520  149.9150 C   0  0  0  0  0  0  0  0  0  0  0  0
  161.1150  207.7760  153.2400 C   0  0  0  0  0  0  0  0  0  0  0  0
  161.2010  208.6220  152.0880 C   0  0  0  0  0  0  0  0  0  0  0  0
  160.7340  208.3180  154.4720 C   0  0  0  0  0  3  0  0  0  0  0  0
  161.5080  204.3970  150.4150 C   0  0  0  0  0  3  0  0  0  0  0  0
  161.0590  204.2660  149.0990 C   0  0  0  0  0  0  0  0  0  0  0  0
  160.6890  205.4040  148.3870 C   0  0  0  0  0  3  0  0  0  0  0  0
  162.0150  205.6760  152.3450 O   0  0  0  0  0  0  0  0  0  0  0  0
  160.7850  206.6590  148.9880 C   0  0  0  0  0  3  0  0  0  0  0  0
  161.2320  206.8090  150.3140 C   0  0  0  0  0  0  0  0  0  0  0  0
  163.5470  212.7280  147.5640 C   0  0  0  0  0  3  0  0  0  0  0  0
  160.9530  211.6390  147.8090 C   0  0  0  0  0  3  0  0  0  0  0  0
  161.2170  213.8070  144.8280 C   0  0  2  0  0  3  0  0  0  0  0  0
  162.6440  213.8710  145.4210 C   0  0  0  0  0  2  0  0  0  0  0  0
  162.5520  213.0050  146.6280 C   0  0  0  0  0  0  0  0  0  0  0  0
  160.4640  212.8970  145.6890 N   0  0  0  0  0  0  0  0  0  0  0  0
  161.2990  212.4770  146.7480 C   0  0  0  0  0  0  0  0  0  0  0  0
  159.0190  212.7370  145.6540 C   0  0  0  0  0  1  0  0  0  0  0  0
  161.9330  211.3350  148.7740 C   0  0  0  0  0  0  0  0  0  0  0  0
  163.2300  211.8850  148.6410 C   0  0  0  0  0  3  0  0  0  0  0  0
  161.2640  213.2850  143.4300 C   0  0  0  0  0  0  0  0  0  0  0  0
  162.1230  212.4220  143.1140 O   0  0  0  0  0  1  0  0  0  0  0  0
  160.3590  213.7380  142.4770 O   0  0  0  0  0  0  0  0  0  0  0  0
  160.9730  202.9840  148.4750 N   0  0  0  0  0  2  0  0  0  0  0  0
  160.3750  201.9300  149.0840 O   0  0  0  0  0  0  0  0  0  0  0  0
  161.1640  200.8270  148.7530 C   0  0  0  0  0  1  0  0  0  0  0  0
  1 11  2  0  0  0  0
  2 16  1  0  0  0  0
  4  6  1  0  0  0  0
  5  9  2  0  0  0  0
  5  1  1  0  0  0  0
  6  8  2  0  0  0  0
  8  7  1  0  0  0  0
  9  4  1  0  0  0  0
 10  3  2  0  0  0  0
 10 12  1  0  0  0  0
 11  6  1  0  0  0  0
 11 10  1  0  0  0  0
 12  7  2  0  0  0  0
 13  2  1  0  0  0  0
 14 13  2  0  0  0  0
 15 17  2  0  0  0  0
 15 14  1  0  0  0  0
 16  3  1  0  0  0  0
 17 18  1  0  0  0  0
 18  1  1  0  0  0  0
 18  2  2  0  0  0  0
 19 28  1  0  0  0  0
 20 27  1  0  0  0  0
 21 29  1  6  0  0  0
 21 22  1  0  0  0  0
 21 24  1  0  0  0  0
 22 23  1  0  0  0  0
 23 25  1  0  0  0  0
 23 19  2  0  0  0  0
 24 25  1  0  0  0  0
 25 20  2  0  0  0  0
 26 24  1  0  0  0  0
 27  9  1  0  0  0  0
 28 27  2  0  0  0  0
 30 29  1  0  0  0  0
 31 29  2  0  0  0  0
 32 33  1  0  0  0  0
 32 14  1  0  0  0  0
 34 33  1  0  0  0  0
M  END
>  <MODEL>
2

>  <REMARK>
 VINA RESULT:      -9.1      2.218      7.675
  Name = 
  4 active torsions:
  status: ('A' for Active; 'I' for Inactive)
    1  A    between atoms: N_3  and  O_13
    2  A    between atoms: N_3  and  C_25
    3  A    between atoms: C_7  and  C_11
    4  A    between atoms: C_18  and  C_30
                            x       y       z     vdW  Elec       q    Type
                         _______ _______ _______ _____ _____    ______ ____

>  <TORSDO>
F 4

$$$$
=
 OpenBabel11062409423D

 34 39  0  0  1  0  0  0  0  0999 V2000
  160.8240  209.5990  152.2640 C   0  0  0  0  0  0  0  0  0  0  0  0
  160.5410  211.8620  151.0990 C   0  0  0  0  0  0  0  0  0  0  0  0
  159.8650  212.2410  153.4360 C   0  0  0  0  0  3  0  0  0  0  0  0
  161.0160  207.4010  154.1150 C   0  0  0  0  0  3  0  0  0  0  0  0
  160.9170  208.2240  151.8410 N   0  0  0  0  0  0  0  0  0  0  0  0
  160.7360  208.8140  154.5190 C   0  0  0  0  0  0  0  0  0  0  0  0
  160.4810  210.3260  156.3850 C   0  0  0  0  0  3  0  0  0  0  0  0
  160.6930  209.0500  155.8920 C   0  0  0  0  0  3  0  0  0  0  0  0
  160.9650  207.1990  152.6350 C   0  0  0  0  0  0  0  0  0  0  0  0
  160.3050  211.1800  154.1130 C   0  0  0  0  0  0  0  0  0  0  0  0
  160.6130  209.8860  153.5820 C   0  0  1  0  0  3  0  0  0  0  0  0
  160.2750  211.3730  155.4980 C   0  0  0  0  0  3  0  0  0  0  0  0
  160.7870  212.6580  149.9730 C   0  0  0  0  0  3  0  0  0  0  0  0
  161.6360  212.2220  148.9550 C   0  0  0  0  0  0  0  0  0  0  0  0
  162.2380  210.9720  149.0550 C   0  0  0  0  0  3  0  0  0  0  0  0
  159.7040  212.3920  152.0650 O   0  0  0  0  0  0  0  0  0  0  0  0
  161.9760  210.1640  150.1620 C   0  0  0  0  0  3  0  0  0  0  0  0
  161.1250  210.5880  151.1990 C   0  0  0  0  0  0  0  0  0  0  0  0
  161.1270  203.4080  152.3990 C   0  0  0  0  0  3  0  0  0  0  0  0
  161.1330  205.6460  150.6760 C   0  0  0  0  0  3  0  0  0  0  0  0
  161.4120  202.4920  148.7710 C   0  0  2  0  0  3  0  0  0  0  0  0
  161.3160  201.9970  150.2330 C   0  0  0  0  0  2  0  0  0  0  0  0
  161.2090  203.2590  151.0150 C   0  0  0  0  0  0  0  0  0  0  0  0
  161.3030  203.9480  148.8310 N   0  0  0  0  0  0  0  0  0  0  0  0
  161.2110  204.3420  150.1840 C   0  0  0  0  0  0  0  0  0  0  0  0
  161.5920  204.8420  147.7210 C   0  0  0  0  0  1  0  0  0  0  0  0
  161.0480  205.8360  152.0690 C   0  0  0  0  0  0  0  0  0  0  0  0
  161.0450  204.7080  152.9230 C   0  0  0  0  0  3  0  0  0  0  0  0
  160.2980  201.9170  147.9590 C   0  0  0  0  0  0  0  0  0  0  0  0
  159.2170  201.6000  148.5190 O   0  0  0  0  0  1  0  0  0  0  0  0
  160.4430  201.7390  146.5880 O   0  0  0  0  0  0  0  0  0  0  0  0
  161.8960  213.0410  147.8130 N   0  0  0  0  0  2  0  0  0  0  0  0
  161.5780  212.6390  146.5570 O   0  0  0  0  0  0  0  0  0  0  0  0
  162.4680  213.3210  145.7240 C   0  0  0  0  0  1  0  0  0  0  0  0
  2 18  1  0  0  0  0
  2 16  1  0  0  0  0
  3 10  2  0  0  0  0
  4  6  1  0  0  0  0
  5  1  2  0  0  0  0
  5  9  1  0  0  0  0
  6  8  2  0  0  0  0
  8  7  1  0  0  0  0
  9  4  2  0  0  0  0
 10 12  1  0  0  0  0
 11  1  1  1  0  0  0
 11 10  1  0  0  0  0
 11  6  1  0  0  0  0
 12  7  2  0  0  0  0
 13  2  2  0  0  0  0
 14 15  2  0  0  0  0
 14 13  1  0  0  0  0
 15 17  1  0  0  0  0
 16  3  1  0  0  0  0
 17 18  2  0  0  0  0
 18  1  1  0  0  0  0
 19 28  1  0  0  0  0
 20 27  1  0  0  0  0
 21 29  1  6  0  0  0
 21 24  1  0  0  0  0
 21 22  1  0  0  0  0
 22 23  1  0  0  0  0
 23 19  2  0  0  0  0
 24 25  1  0  0  0  0
 25 20  2  0  0  0  0
 25 23  1  0  0  0  0
 26 24  1  0  0  0  0
 27  9  1  0  0  0  0
 27 28  2  0  0  0  0
 29 30  1  0  0  0  0
 31 29  2  0  0  0  0
 32 14  1  0  0  0  0
 33 32  1  0  0  0  0
 34 33  1  0  0  0  0
M  END
>  <MODEL>
3

>  <REMARK>
 VINA RESULT:      -9.1      1.283      1.949
  Name = 
  4 active torsions:
  status: ('A' for Active; 'I' for Inactive)
    1  A    between atoms: N_3  and  O_13
    2  A    between atoms: N_3  and  C_25
    3  A    between atoms: C_7  and  C_11
    4  A    between atoms: C_18  and  C_30
                            x       y       z     vdW  Elec       q    Type
                         _______ _______ _______ _____ _____    ______ ____

>  <TORSDO>
F 4

$$$$
=
 OpenBabel11062409423D

 34 39  0  0  1  0  0  0  0  0999 V2000
  161.2610  204.6170  148.3570 C   0  0  0  0  0  0  0  0  0  0  0  0
  161.7110  204.0740  145.8950 C   0  0  0  0  0  0  0  0  0  0  0  0
  161.7240  201.9030  147.0570 C   0  0  0  0  0  3  0  0  0  0  0  0
  160.7130  204.5780  151.1840 C   0  0  0  0  0  3  0  0  0  0  0  0
  161.3610  205.7890  149.1910 N   0  0  0  0  0  0  0  0  0  0  0  0
  160.7950  203.3520  150.3300 C   0  0  0  0  0  0  0  0  0  0  0  0
  160.4620  200.9620  150.2600 C   0  0  0  0  0  3  0  0  0  0  0  0
  160.4610  202.1550  150.9610 C   0  0  0  0  0  3  0  0  0  0  0  0
  161.1640  205.8130  150.4730 C   0  0  0  0  0  0  0  0  0  0  0  0
  161.1830  202.1340  148.2540 C   0  0  0  0  0  0  0  0  0  0  0  0
  161.0990  203.3910  148.9340 C   0  0  1  0  0  3  0  0  0  0  0  0
  160.8350  200.9560  148.9240 C   0  0  0  0  0  3  0  0  0  0  0  0
  161.7260  204.5110  144.5650 C   0  0  0  0  0  3  0  0  0  0  0  0
  161.2010  205.7560  144.2100 C   0  0  0  0  0  0  0  0  0  0  0  0
  160.6670  206.5780  145.1970 C   0  0  0  0  0  3  0  0  0  0  0  0
  162.2320  202.8160  146.1430 O   0  0  0  0  0  0  0  0  0  0  0  0
  160.6730  206.1580  146.5280 C   0  0  0  0  0  3  0  0  0  0  0  0
  161.1950  204.9060  146.9030 C   0  0  0  0  0  0  0  0  0  0  0  0
  161.9550  209.4480  151.2540 C   0  0  0  0  0  3  0  0  0  0  0  0
  160.9610  207.1600  152.5770 C   0  0  0  0  0  3  0  0  0  0  0  0
  161.1810  210.0430  154.8770 C   0  0  2  0  0  3  0  0  0  0  0  0
  161.6750  210.6400  153.5380 C   0  0  0  0  0  2  0  0  0  0  0  0
  161.5970  209.4860  152.6000 C   0  0  0  0  0  0  0  0  0  0  0  0
  160.8240  208.6540  154.5920 N   0  0  0  0  0  0  0  0  0  0  0  0
  161.1160  208.3790  153.2380 C   0  0  0  0  0  0  0  0  0  0  0  0
  160.5520  207.6500  155.6060 C   0  0  0  0  0  1  0  0  0  0  0  0
  161.3110  207.0840  151.2140 C   0  0  0  0  0  0  0  0  0  0  0  0
  161.8070  208.2360  150.5610 C   0  0  0  0  0  3  0  0  0  0  0  0
  159.9910  210.7990  155.3690 C   0  0  0  0  0  0  0  0  0  0  0  0
  159.9480  211.1870  156.5650 O   0  0  0  0  0  1  0  0  0  0  0  0
  158.9330  211.0830  154.5130 O   0  0  0  0  0  0  0  0  0  0  0  0
  161.2060  206.1950  142.8510 N   0  0  0  0  0  2  0  0  0  0  0  0
  162.1820  205.8280  141.9830 O   0  0  0  0  0  0  0  0  0  0  0  0
  161.9560  206.5980  140.8400 C   0  0  0  0  0  1  0  0  0  0  0  0
  1 11  1  0  0  0  0
  1  5  2  0  0  0  0
  2 16  1  0  0  0  0
  2 18  1  0  0  0  0
  3 10  2  0  0  0  0
  5  9  1  0  0  0  0
  6  8  2  0  0  0  0
  6  4  1  0  0  0  0
  7  8  1  0  0  0  0
  9  4  2  0  0  0  0
  9 27  1  0  0  0  0
 10 12  1  0  0  0  0
 11 10  1  6  0  0  0
 11  6  1  0  0  0  0
 12  7  2  0  0  0  0
 13  2  2  0  0  0  0
 14 13  1  0  0  0  0
 14 15  2  0  0  0  0
 15 17  1  0  0  0  0
 16  3  1  0  0  0  0
 17 18  2  0  0  0  0
 18  1  1  0  0  0  0
 19 23  1  0  0  0  0
 20 25  1  0  0  0  0
 21 29  1  6  0  0  0
 22 21  1  0  0  0  0
 23 25  2  0  0  0  0
 23 22  1  0  0  0  0
 24 21  1  0  0  0  0
 24 26  1  0  0  0  0
 25 24  1  0  0  0  0
 27 20  2  0  0  0  0
 28 27  1  0  0  0  0
 28 19  2  0  0  0  0
 29 30  1  0  0  0  0
 31 29  2  0  0  0  0
 32 14  1  0  0  0  0
 33 32  1  0  0  0  0
 34 33  1  0  0  0  0
M  END
>  <MODEL>
4

>  <REMARK>
 VINA RESULT:      -9.0      2.734      8.382
  Name = 
  4 active torsions:
  status: ('A' for Active; 'I' for Inactive)
    1  A    between atoms: N_3  and  O_13
    2  A    between atoms: N_3  and  C_25
    3  A    between atoms: C_7  and  C_11
    4  A    between atoms: C_18  and  C_30
                            x       y       z     vdW  Elec       q    Type
                         _______ _______ _______ _____ _____    ______ ____

>  <TORSDO>
F 4

$$$$
=
 OpenBabel11062409423D

 34 39  0  0  1  0  0  0  0  0999 V2000
  161.2050  208.8320  150.9250 C   0  0  0  0  0  0  0  0  0  0  0  0
  160.9210  211.3760  150.8560 C   0  0  0  0  0  0  0  0  0  0  0  0
  160.4060  210.7240  153.1740 C   0  0  0  0  0  3  0  0  0  0  0  0
  161.4440  206.0540  151.6460 C   0  0  0  0  0  2  0  0  0  0  0  0
  161.2280  207.7680  149.9520 N   0  0  0  0  0  0  0  0  0  0  0  0
  161.2350  207.1600  152.6320 C   0  0  0  0  0  0  0  0  0  0  0  0
  161.1460  207.7330  154.9760 C   0  0  0  0  0  3  0  0  0  0  0  0
  161.2860  206.7880  153.9740 C   0  0  0  0  0  3  0  0  0  0  0  0
  161.2930  206.5030  150.2290 C   0  0  0  0  0  0  0  0  0  0  0  0
  160.8540  209.4740  153.3020 C   0  0  0  0  0  0  0  0  0  0  0  0
  161.0870  208.5300  152.2510 C   0  0  0  0  0  0  0  0  0  0  0  0
  160.9170  209.0580  154.6360 C   0  0  0  0  0  3  0  0  0  0  0  0
  161.1200  212.5760  150.1620 C   0  0  0  0  0  3  0  0  0  0  0  0
  161.8900  212.6150  148.9970 C   0  0  0  0  0  0  0  0  0  0  0  0
  162.4570  211.4390  148.5140 C   0  0  0  0  0  3  0  0  0  0  0  0
  160.1640  211.4440  152.0120 O   0  0  0  0  0  0  0  0  0  0  0  0
  162.2400  210.2370  149.1870 C   0  0  0  0  0  3  0  0  0  0  0  0
  161.4700  210.1800  150.3640 C   0  0  0  0  0  0  0  0  0  0  0  0
  161.7700  204.9410  146.7960 C   0  0  0  0  0  3  0  0  0  0  0  0
  160.8370  204.1990  149.3560 C   0  0  0  0  0  3  0  0  0  0  0  0
  160.5890  201.3840  146.9740 C   0  0  2  0  0  3  0  0  0  0  0  0
  161.2070  202.5070  146.1080 C   0  0  0  0  0  2  0  0  0  0  0  0
  161.3080  203.6520  147.0540 C   0  0  0  0  0  0  0  0  0  0  0  0
  160.4400  201.9460  148.3160 N   0  0  0  0  0  0  0  0  0  0  0  0
  160.8580  203.2950  148.2920 C   0  0  0  0  0  0  0  0  0  0  0  0
  159.6730  201.3300  149.3850 C   0  0  0  0  0  1  0  0  0  0  0  0
  161.2980  205.5110  149.1330 C   0  0  0  0  0  0  0  0  0  0  0  0
  161.7640  205.8720  147.8470 C   0  0  0  0  0  3  0  0  0  0  0  0
  161.4960  200.1980  147.0020 C   0  0  0  0  0  0  0  0  0  0  0  0
  162.3280  200.0700  147.9360 O   0  0  0  0  0  1  0  0  0  0  0  0
  161.4220  199.2300  146.0070 O   0  0  0  0  0  0  0  0  0  0  0  0
  162.1020  213.8420  148.2970 N   0  0  0  0  0  2  0  0  0  0  0  0
  162.6950  213.8760  147.0770 O   0  0  0  0  0  0  0  0  0  0  0  0
  161.7100  214.3570  146.2120 C   0  0  0  0  0  1  0  0  0  0  0  0
  1 11  2  0  0  0  0
  2 16  1  0  0  0  0
  3 10  2  0  0  0  0
  4  6  1  0  0  0  0
  5  9  2  0  0  0  0
  5  1  1  0  0  0  0
  6  8  2  0  0  0  0
  8  7  1  0  0  0  0
  9  4  1  0  0  0  0
 10 12  1  0  0  0  0
 11  6  1  0  0  0  0
 11 10  1  0  0  0  0
 12  7  2  0  0  0  0
 13  2  2  0  0  0  0
 14 13  1  0  0  0  0
 15 14  2  0  0  0  0
 15 17  1  0  0  0  0
 16  3  1  0  0  0  0
 17 18  2  0  0  0  0
 18  2  1  0  0  0  0
 18  1  1  0  0  0  0
 19 23  2  0  0  0  0
 19 28  1  0  0  0  0
 21 29  1  1  0  0  0
 21 24  1  0  0  0  0
 22 21  1  0  0  0  0
 22 23  1  0  0  0  0
 23 25  1  0  0  0  0
 24 26  1  0  0  0  0
 25 24  1  0  0  0  0
 25 20  2  0  0  0  0
 27 20  1  0  0  0  0
 27  9  1  0  0  0  0
 28 27  2  0  0  0  0
 29 30  1  0  0  0  0
 31 29  2  0  0  0  0
 32 14  1  0  0  0  0
 33 32  1  0  0  0  0
 34 33  1  0  0  0  0
M  END
>  <MODEL>
5

>  <REMARK>
 VINA RESULT:      -8.7      1.360      2.089
  Name = 
  4 active torsions:
  status: ('A' for Active; 'I' for Inactive)
    1  A    between atoms: N_3  and  O_13
    2  A    between atoms: N_3  and  C_25
    3  A    between atoms: C_7  and  C_11
    4  A    between atoms: C_18  and  C_30
                            x       y       z     vdW  Elec       q    Type
                         _______ _______ _______ _____ _____    ______ ____

>  <TORSDO>
F 4

$$$$
