=
 OpenBabel11062409333D

 34 37  0  0  1  0  0  0  0  0999 V2000
  161.8730  207.4980  149.5480 C   0  0  0  0  0  0  0  0  0  0  0  0
  161.5690  205.5530  152.6190 C   0  0  0  0  0  3  0  0  0  0  0  0
  160.6690  205.0330  150.4100 C   0  0  0  0  0  3  0  0  0  0  0  0
  162.2900  206.4770  147.3350 C   0  0  0  0  0  3  0  0  0  0  0  0
  162.0660  204.0130  147.1820 C   0  0  0  0  0  2  0  0  0  0  0  0
  162.3880  205.3640  146.6020 C   0  0  0  0  0  3  0  0  0  0  0  0
  161.1310  205.1780  149.1690 C   0  0  0  0  0  0  0  0  0  0  0  0
  161.7700  206.4390  148.7180 C   0  0  0  0  0  0  0  0  0  0  0  0
  160.9000  204.0860  148.1680 C   0  0  0  0  0  2  0  0  0  0  0  0
  161.6720  206.1970  153.7800 C   0  0  0  0  0  2  0  0  0  0  0  0
  161.1210  207.5440  154.0780 C   0  0  0  0  0  0  0  0  0  0  0  0
  161.0830  208.5290  153.1610 C   0  0  0  0  0  3  0  0  0  0  0  0
  160.8050  206.0960  151.4610 C   0  0  0  0  0  0  0  0  0  0  0  0
  161.4680  208.4610  151.7380 C   0  0  0  0  0  3  0  0  0  0  0  0
  161.4180  207.3790  150.9540 C   0  0  0  0  0  0  0  0  0  0  0  0
  160.7330  207.8410  155.4360 N   0  0  0  0  0  0  0  0  0  0  0  0
  161.4290  208.8450  156.2300 C   0  0  0  0  0  1  0  0  0  0  0  0
  159.5970  207.1750  156.0560 C   0  0  0  0  0  1  0  0  0  0  0  0
  162.4060  208.7280  149.1330 O   0  0  0  0  0  0  0  0  0  0  0  0
  161.6440  209.7100  148.4420 C   0  0  0  0  0  2  0  0  0  0  0  0
  162.0490  211.1030  148.9090 C   0  0  0  0  0  2  0  0  0  0  0  0
  160.5490  214.3020  147.6960 C   0  0  0  0  0  2  0  0  0  0  0  0
  162.9160  212.8940  147.6230 C   0  0  0  0  0  2  0  0  0  0  0  0
  161.2020  214.2360  146.3140 C   0  0  0  0  0  2  0  0  0  0  0  0
  162.6690  213.7850  146.3990 C   0  0  2  0  0  3  0  0  0  0  0  0
  161.7220  212.0960  147.8940 N   0  0  0  0  0  0  0  0  0  0  0  0
  160.6820  212.9680  148.4540 C   0  0  0  0  0  2  0  0  0  0  0  0
  162.9910  213.0750  145.2410 O   0  0  0  0  0  0  0  0  0  0  0  0
  162.2060  213.6430  144.2320 C   0  0  0  0  0  2  0  0  0  0  0  0
  162.1830  212.7480  142.9910 C   0  0  2  0  0  3  0  0  0  0  0  0
  162.6000  213.5260  141.7540 C   0  0  0  0  0  1  0  0  0  0  0  0
  160.8760  212.0270  142.7680 C   0  0  0  0  0  0  0  0  0  0  0  0
  160.7760  211.2520  141.8310 O   0  0  0  0  0  0  0  0  0  0  0  0
  159.7030  212.2000  143.6780 C   0  0  0  0  0  1  0  0  0  0  0  0
  1 15  1  0  0  0  0
  2 10  1  0  0  0  0
  3 13  1  0  0  0  0
  4  8  1  0  0  0  0
  5  9  1  0  0  0  0
  6  5  1  0  0  0  0
  6  4  2  0  0  0  0
  7  3  2  0  0  0  0
  8  7  1  0  0  0  0
  8  1  2  0  0  0  0
  9  7  1  0  0  0  0
 10 11  1  0  0  0  0
 11 16  1  0  0  0  0
 12 11  2  0  0  0  0
 13  2  2  0  0  0  0
 14 12  1  0  0  0  0
 15 13  1  0  0  0  0
 15 14  2  0  0  0  0
 16 18  1  0  0  0  0
 16 17  1  0  0  0  0
 19  1  1  0  0  0  0
 20 21  1  0  0  0  0
 20 19  1  0  0  0  0
 22 27  1  0  0  0  0
 23 26  1  0  0  0  0
 24 25  1  0  0  0  0
 24 22  1  0  0  0  0
 25 28  1  6  0  0  0
 25 23  1  0  0  0  0
 26 27  1  0  0  0  0
 26 21  1  0  0  0  0
 29 28  1  0  0  0  0
 30 31  1  6  0  0  0
 30 29  1  0  0  0  0
 32 30  1  0  0  0  0
 32 34  1  0  0  0  0
 33 32  2  0  0  0  0
M  END
>  <MODEL>
1

>  <REMARK>
 VINA RESULT:      -8.7      0.000      0.000
  Name = 
  9 active torsions:
  status: ('A' for Active; 'I' for Inactive)
    1  A    between atoms: C_1  and  O_9
    2  A    between atoms: N_3  and  C_25
    3  A    between atoms: C_7  and  C_11
    4  A    between atoms: C_7  and  C_29
    5  A    between atoms: C_8  and  O_9
    6  A    between atoms: C_8  and  C_18
    7  A    between atoms: C_18  and  N_30
    8  A    between atoms: O_26  and  C_28
    9  A    between atoms: O_26  and  C_29
                            x       y       z     vdW  Elec       q    Type
                         _______ _______ _______ _____ _____    ______ ____

>  <TORSDO>
F 9

$$$$
=
 OpenBabel11062409333D

 34 37  0  0  1  0  0  0  0  0999 V2000
  161.1020  206.9000  150.2700 C   0  0  0  0  0  0  0  0  0  0  0  0
  160.3950  203.3380  150.6140 C   0  0  0  0  0  3  0  0  0  0  0  0
  161.5920  204.7940  152.1660 C   0  0  0  0  0  3  0  0  0  0  0  0
  160.9350  208.5000  152.1480 C   0  0  0  0  0  3  0  0  0  0  0  0
  160.6870  207.5360  154.4180 C   0  0  0  0  0  2  0  0  0  0  0  0
  160.7630  208.6930  153.4580 C   0  0  0  0  0  3  0  0  0  0  0  0
  161.4240  206.0540  152.5630 C   0  0  0  0  0  0  0  0  0  0  0  0
  161.1530  207.1460  151.5960 C   0  0  1  0  0  3  0  0  0  0  0  0
  161.6250  206.4010  154.0080 C   0  0  0  0  0  2  0  0  0  0  0  0
  160.1950  202.6290  149.5040 C   0  0  0  0  0  3  0  0  0  0  0  0
  160.9350  202.7900  148.2270 C   0  0  0  0  0  0  0  0  0  0  0  0
  161.3500  203.9900  147.7770 C   0  0  0  0  0  3  0  0  0  0  0  0
  161.4660  204.3660  150.7330 C   0  0  0  0  0  0  0  0  0  0  0  0
  161.2490  205.2980  148.4530 C   0  0  0  0  0  3  0  0  0  0  0  0
  161.2350  205.5090  149.7740 C   0  0  0  0  0  0  0  0  0  0  0  0
  161.0970  201.6350  147.3780 N   0  0  0  0  0  0  0  0  0  0  0  0
  161.5290  200.3480  147.9090 C   0  0  0  0  0  1  0  0  0  0  0  0
  160.7960  201.6990  145.9560 C   0  0  0  0  0  1  0  0  0  0  0  0
  160.9190  207.9200  149.3230 O   0  0  0  0  0  0  0  0  0  0  0  0
  162.0000  208.6000  148.6980 C   0  0  0  0  0  2  0  0  0  0  0  0
  162.3370  209.8630  149.4800 C   0  0  0  0  0  2  0  0  0  0  0  0
  160.6830  213.2090  149.6590 C   0  0  0  0  0  2  0  0  0  0  0  0
  162.6080  211.8560  148.2260 C   0  0  0  0  0  2  0  0  0  0  0  0
  160.5820  213.3850  148.1420 C   0  0  0  0  0  2  0  0  0  0  0  0
  161.8690  212.9390  147.4310 C   0  0  2  0  0  3  0  0  0  0  0  0
  161.6370  211.0120  148.9200 N   0  0  0  0  0  0  0  0  0  0  0  0
  161.0660  211.7670  150.0420 C   0  0  0  0  0  2  0  0  0  0  0  0
  161.5380  212.4400  146.1700 O   0  0  0  0  0  0  0  0  0  0  0  0
  160.9050  213.4990  145.5100 C   0  0  0  0  0  2  0  0  0  0  0  0
  160.9000  213.2720  143.9970 C   0  0  2  0  0  3  0  0  0  0  0  0
  159.9260  212.1690  143.6170 C   0  0  0  0  0  1  0  0  0  0  0  0
  162.2650  213.0230  143.4010 C   0  0  0  0  0  0  0  0  0  0  0  0
  162.4000  212.1370  142.5730 O   0  0  0  0  0  0  0  0  0  0  0  0
  163.4570  213.8500  143.7620 C   0  0  0  0  0  1  0  0  0  0  0  0
  1  8  1  0  0  0  0
  2 13  2  0  0  0  0
  3  7  2  0  0  0  0
  4  6  2  0  0  0  0
  6  5  1  0  0  0  0
  7  9  1  0  0  0  0
  8  4  1  1  0  0  0
  8  7  1  0  0  0  0
  9  5  1  0  0  0  0
 10  2  1  0  0  0  0
 11 10  2  0  0  0  0
 12 11  1  0  0  0  0
 12 14  2  0  0  0  0
 13  3  1  0  0  0  0
 14 15  1  0  0  0  0
 15  1  2  0  0  0  0
 15 13  1  0  0  0  0
 16 17  1  0  0  0  0
 16 11  1  0  0  0  0
 18 16  1  0  0  0  0
 19  1  1  0  0  0  0
 20 19  1  0  0  0  0
 20 21  1  0  0  0  0
 22 27  1  0  0  0  0
 23 26  1  0  0  0  0
 24 22  1  0  0  0  0
 25 28  1  6  0  0  0
 25 24  1  0  0  0  0
 25 23  1  0  0  0  0
 26 21  1  0  0  0  0
 26 27  1  0  0  0  0
 29 28  1  0  0  0  0
 30 31  1  1  0  0  0
 30 29  1  0  0  0  0
 32 34  1  0  0  0  0
 32 30  1  0  0  0  0
 33 32  2  0  0  0  0
M  END
>  <MODEL>
2

>  <REMARK>
 VINA RESULT:      -8.5      2.231      5.012
  Name = 
  9 active torsions:
  status: ('A' for Active; 'I' for Inactive)
    1  A    between atoms: C_1  and  O_9
    2  A    between atoms: N_3  and  C_25
    3  A    between atoms: C_7  and  C_11
    4  A    between atoms: C_7  and  C_29
    5  A    between atoms: C_8  and  O_9
    6  A    between atoms: C_8  and  C_18
    7  A    between atoms: C_18  and  N_30
    8  A    between atoms: O_26  and  C_28
    9  A    between atoms: O_26  and  C_29
                            x       y       z     vdW  Elec       q    Type
                         _______ _______ _______ _____ _____    ______ ____

>  <TORSDO>
F 9

$$$$
=
 OpenBabel11062409333D

 34 37  0  0  1  0  0  0  0  0999 V2000
  161.2030  207.0460  150.6530 C   0  0  0  0  0  0  0  0  0  0  0  0
  160.3680  203.5030  150.8850 C   0  0  0  0  0  3  0  0  0  0  0  0
  161.5560  204.8810  152.5130 C   0  0  0  0  0  3  0  0  0  0  0  0
  161.0220  208.6060  152.5630 C   0  0  0  0  0  3  0  0  0  0  0  0
  160.6610  207.5980  154.7980 C   0  0  0  0  0  2  0  0  0  0  0  0
  160.8090  208.7740  153.8710 C   0  0  0  0  0  3  0  0  0  0  0  0
  161.4150  206.1360  152.9350 C   0  0  0  0  0  0  0  0  0  0  0  0
  161.2140  207.2590  151.9850 C   0  0  1  0  0  3  0  0  0  0  0  0
  161.5760  206.4410  154.3930 C   0  0  0  0  0  2  0  0  0  0  0  0
  160.1850  202.8270  149.7510 C   0  0  0  0  0  3  0  0  0  0  0  0
  160.9750  202.9930  148.5040 C   0  0  0  0  0  0  0  0  0  0  0  0
  161.4440  204.1890  148.0990 C   0  0  0  0  0  3  0  0  0  0  0  0
  161.4670  204.4910  151.0650 C   0  0  0  0  0  0  0  0  0  0  0  0
  161.3620  205.4830  148.8040 C   0  0  0  0  0  3  0  0  0  0  0  0
  161.3080  205.6630  150.1280 C   0  0  0  0  0  0  0  0  0  0  0  0
  161.1290  201.8530  147.6340 N   0  0  0  0  0  0  0  0  0  0  0  0
  161.0390  201.9770  146.1850 C   0  0  0  0  0  1  0  0  0  0  0  0
  161.4260  200.5330  148.1700 C   0  0  0  0  0  1  0  0  0  0  0  0
  161.0870  208.0930  149.7260 O   0  0  0  0  0  0  0  0  0  0  0  0
  161.9540  209.2200  149.7170 C   0  0  0  0  0  2  0  0  0  0  0  0
  161.9020  209.9030  148.3560 C   0  0  0  0  0  2  0  0  0  0  0  0
  163.1530  213.3990  147.9410 C   0  0  0  0  0  2  0  0  0  0  0  0
  160.8940  211.8780  147.5210 C   0  0  0  0  0  2  0  0  0  0  0  0
  161.8520  214.0580  148.4050 C   0  0  0  0  0  2  0  0  0  0  0  0
  160.6170  213.3570  147.8160 C   0  0  2  0  0  3  0  0  0  0  0  0
  161.8280  211.3500  148.5140 N   0  0  0  0  0  0  0  0  0  0  0  0
  163.1660  211.8890  148.2440 C   0  0  0  0  0  2  0  0  0  0  0  0
  159.5640  213.4570  148.7260 O   0  0  0  0  0  0  0  0  0  0  0  0
  158.7270  214.4530  148.2130 C   0  0  0  0  0  2  0  0  0  0  0  0
  157.3450  213.8870  147.8850 C   0  0  2  0  0  3  0  0  0  0  0  0
  156.9380  212.8290  148.8980 C   0  0  0  0  0  1  0  0  0  0  0  0
  157.2010  213.3730  146.4730 C   0  0  0  0  0  0  0  0  0  0  0  0
  157.1520  212.1690  146.2800 O   0  0  0  0  0  0  0  0  0  0  0  0
  157.0780  214.2890  145.2980 C   0  0  0  0  0  1  0  0  0  0  0  0
  1  8  1  0  0  0  0
  2 13  2  0  0  0  0
  3  7  2  0  0  0  0
  4  6  2  0  0  0  0
  6  5  1  0  0  0  0
  7  9  1  0  0  0  0
  8  4  1  1  0  0  0
  8  7  1  0  0  0  0
  9  5  1  0  0  0  0
 10  2  1  0  0  0  0
 11 10  2  0  0  0  0
 12 11  1  0  0  0  0
 12 14  2  0  0  0  0
 13  3  1  0  0  0  0
 14 15  1  0  0  0  0
 15  1  2  0  0  0  0
 15 13  1  0  0  0  0
 16 18  1  0  0  0  0
 16 11  1  0  0  0  0
 17 16  1  0  0  0  0
 19  1  1  0  0  0  0
 20 19  1  0  0  0  0
 21 26  1  0  0  0  0
 21 20  1  0  0  0  0
 22 27  1  0  0  0  0
 22 24  1  0  0  0  0
 23 25  1  0  0  0  0
 23 26  1  0  0  0  0
 25 24  1  0  0  0  0
 25 28  1  1  0  0  0
 27 26  1  0  0  0  0
 29 28  1  0  0  0  0
 30 29  1  0  0  0  0
 30 31  1  1  0  0  0
 32 30  1  0  0  0  0
 33 32  2  0  0  0  0
 34 32  1  0  0  0  0
M  END
>  <MODEL>
3

>  <REMARK>
 VINA RESULT:      -8.4      2.826      5.599
  Name = 
  9 active torsions:
  status: ('A' for Active; 'I' for Inactive)
    1  A    between atoms: C_1  and  O_9
    2  A    between atoms: N_3  and  C_25
    3  A    between atoms: C_7  and  C_11
    4  A    between atoms: C_7  and  C_29
    5  A    between atoms: C_8  and  O_9
    6  A    between atoms: C_8  and  C_18
    7  A    between atoms: C_18  and  N_30
    8  A    between atoms: O_26  and  C_28
    9  A    between atoms: O_26  and  C_29
                            x       y       z     vdW  Elec       q    Type
                         _______ _______ _______ _____ _____    ______ ____

>  <TORSDO>
F 9

$$$$
=
 OpenBabel11062409333D

 34 37  0  0  1  0  0  0  0  0999 V2000
  161.2520  207.1560  150.4790 C   0  0  0  0  0  0  0  0  0  0  0  0
  160.2880  203.6570  150.8450 C   0  0  0  0  0  3  0  0  0  0  0  0
  161.4560  205.0740  152.4530 C   0  0  0  0  0  3  0  0  0  0  0  0
  161.0470  208.8130  152.3020 C   0  0  0  0  0  3  0  0  0  0  0  0
  160.5630  207.9290  154.5670 C   0  0  0  0  0  2  0  0  0  0  0  0
  160.7880  209.0520  153.5910 C   0  0  0  0  0  3  0  0  0  0  0  0
  161.3410  206.3530  152.8090 C   0  0  0  0  0  0  0  0  0  0  0  0
  161.2170  207.4340  151.7990 C   0  0  1  0  0  3  0  0  0  0  0  0
  161.4530  206.7250  154.2570 C   0  0  0  0  0  2  0  0  0  0  0  0
  160.1280  202.9330  149.7390 C   0  0  0  0  0  3  0  0  0  0  0  0
  160.9720  203.0110  148.5200 C   0  0  0  0  0  0  0  0  0  0  0  0
  161.4980  204.1690  148.0780 C   0  0  0  0  0  3  0  0  0  0  0  0
  161.4120  204.6170  151.0240 C   0  0  0  0  0  0  0  0  0  0  0  0
  161.4320  205.4990  148.7150 C   0  0  0  0  0  3  0  0  0  0  0  0
  161.3310  205.7460  150.0250 C   0  0  0  0  0  0  0  0  0  0  0  0
  161.1230  201.8250  147.7120 N   0  0  0  0  0  0  0  0  0  0  0  0
  161.5070  200.5460  148.2930 C   0  0  0  0  0  1  0  0  0  0  0  0
  160.8560  201.8510  146.2820 C   0  0  0  0  0  1  0  0  0  0  0  0
  161.2100  208.1590  149.4990 O   0  0  0  0  0  0  0  0  0  0  0  0
  161.9540  209.3670  149.5930 C   0  0  0  0  0  2  0  0  0  0  0  0
  161.9830  210.0630  148.2380 C   0  0  0  0  0  2  0  0  0  0  0  0
  162.3900  213.7770  148.1590 C   0  0  0  0  0  2  0  0  0  0  0  0
  160.7760  211.7860  147.1480 C   0  0  0  0  0  2  0  0  0  0  0  0
  160.8910  214.0730  148.2470 C   0  0  0  0  0  2  0  0  0  0  0  0
  160.0720  213.1340  147.3480 C   0  0  2  0  0  3  0  0  0  0  0  0
  161.5130  211.4370  148.3610 N   0  0  0  0  0  0  0  0  0  0  0  0
  162.6970  212.2990  148.4630 C   0  0  0  0  0  2  0  0  0  0  0  0
  158.8240  212.9200  147.9360 O   0  0  0  0  0  0  0  0  0  0  0  0
  158.7590  213.8260  149.0000 C   0  0  0  0  0  2  0  0  0  0  0  0
  157.7880  213.3340  150.0750 C   0  0  2  0  0  3  0  0  0  0  0  0
  156.4960  214.1340  150.0450 C   0  0  0  0  0  1  0  0  0  0  0  0
  158.3710  213.2900  151.4670 C   0  0  0  0  0  0  0  0  0  0  0  0
  157.7240  213.7440  152.3970 O   0  0  0  0  0  0  0  0  0  0  0  0
  159.7030  212.6760  151.7560 C   0  0  0  0  0  1  0  0  0  0  0  0
  1  8  1  0  0  0  0
  2 13  2  0  0  0  0
  3  7  2  0  0  0  0
  4  6  2  0  0  0  0
  6  5  1  0  0  0  0
  7  9  1  0  0  0  0
  8  4  1  6  0  0  0
  8  7  1  0  0  0  0
  9  5  1  0  0  0  0
 10  2  1  0  0  0  0
 11 10  2  0  0  0  0
 12 11  1  0  0  0  0
 12 14  2  0  0  0  0
 13  3  1  0  0  0  0
 14 15  1  0  0  0  0
 15  1  2  0  0  0  0
 15 13  1  0  0  0  0
 16 17  1  0  0  0  0
 16 11  1  0  0  0  0
 18 16  1  0  0  0  0
 19 20  1  0  0  0  0
 19  1  1  0  0  0  0
 21 26  1  0  0  0  0
 21 20  1  0  0  0  0
 22 24  1  0  0  0  0
 22 27  1  0  0  0  0
 23 25  1  0  0  0  0
 23 26  1  0  0  0  0
 25 28  1  1  0  0  0
 25 24  1  0  0  0  0
 26 27  1  0  0  0  0
 28 29  1  0  0  0  0
 29 30  1  0  0  0  0
 30 31  1  1  0  0  0
 30 32  1  0  0  0  0
 32 34  1  0  0  0  0
 32 33  2  0  0  0  0
M  END
>  <MODEL>
4

>  <REMARK>
 VINA RESULT:      -8.3      2.918      6.184
  Name = 
  9 active torsions:
  status: ('A' for Active; 'I' for Inactive)
    1  A    between atoms: C_1  and  O_9
    2  A    between atoms: N_3  and  C_25
    3  A    between atoms: C_7  and  C_11
    4  A    between atoms: C_7  and  C_29
    5  A    between atoms: C_8  and  O_9
    6  A    between atoms: C_8  and  C_18
    7  A    between atoms: C_18  and  N_30
    8  A    between atoms: O_26  and  C_28
    9  A    between atoms: O_26  and  C_29
                            x       y       z     vdW  Elec       q    Type
                         _______ _______ _______ _____ _____    ______ ____

>  <TORSDO>
F 9

$$$$
=
 OpenBabel11062409333D

 34 37  0  0  1  0  0  0  0  0999 V2000
  161.9660  208.8360  151.2320 C   0  0  0  0  0  0  0  0  0  0  0  0
  160.4100  205.9360  149.6580 C   0  0  0  0  0  3  0  0  0  0  0  0
  161.2600  206.1390  151.9370 C   0  0  0  0  0  3  0  0  0  0  0  0
  161.4950  209.5270  153.5580 C   0  0  0  0  0  3  0  0  0  0  0  0
  160.2400  207.9220  154.9690 C   0  0  0  0  0  2  0  0  0  0  0  0
  160.9110  209.2470  154.7260 C   0  0  0  0  0  3  0  0  0  0  0  0
  161.2450  207.1150  152.8430 C   0  0  0  0  0  0  0  0  0  0  0  0
  161.5900  208.5140  152.4870 C   0  0  1  0  0  3  0  0  0  0  0  0
  160.9850  206.7780  154.2810 C   0  0  0  0  0  2  0  0  0  0  0  0
  160.4700  205.8370  148.3310 C   0  0  0  0  0  3  0  0  0  0  0  0
  161.6360  206.1990  147.4860 C   0  0  0  0  0  0  0  0  0  0  0  0
  162.4400  207.2410  147.7710 C   0  0  0  0  0  3  0  0  0  0  0  0
  161.5660  206.3750  150.4870 C   0  0  0  0  0  0  0  0  0  0  0  0
  162.3970  208.1260  148.9520 C   0  0  0  0  0  3  0  0  0  0  0  0
  161.9560  207.7990  150.1710 C   0  0  0  0  0  0  0  0  0  0  0  0
  161.8320  205.4880  146.2460 N   0  0  0  0  0  0  0  0  0  0  0  0
  160.8770  205.5820  145.1490 C   0  0  0  0  0  1  0  0  0  0  0  0
  163.0190  204.6770  146.0240 C   0  0  0  0  0  1  0  0  0  0  0  0
  162.3680  210.1330  150.8770 O   0  0  0  0  0  0  0  0  0  0  0  0
  161.5060  211.0640  150.2350 C   0  0  0  0  0  2  0  0  0  0  0  0
  162.1640  211.5880  148.9660 C   0  0  0  0  0  2  0  0  0  0  0  0
  159.9170  214.4280  148.0450 C   0  0  0  0  0  2  0  0  0  0  0  0
  161.8760  212.8210  146.9630 C   0  0  0  0  0  2  0  0  0  0  0  0
  159.5930  213.8900  146.6500 C   0  0  0  0  0  2  0  0  0  0  0  0
  160.8430  213.3320  145.9510 C   0  0  2  0  0  3  0  0  0  0  0  0
  161.1860  212.2670  148.1260 N   0  0  0  0  0  0  0  0  0  0  0  0
  160.6220  213.3700  148.9150 C   0  0  0  0  0  2  0  0  0  0  0  0
  160.4620  212.2840  145.1120 O   0  0  0  0  0  0  0  0  0  0  0  0
  160.4320  212.8340  143.8260 C   0  0  0  0  0  2  0  0  0  0  0  0
  161.6160  212.3400  142.9950 C   0  0  2  0  0  3  0  0  0  0  0  0
  162.6710  213.4250  142.8550 C   0  0  0  0  0  1  0  0  0  0  0  0
  161.2380  211.7700  141.6490 C   0  0  0  0  0  0  0  0  0  0  0  0
  160.0830  211.8670  141.2650 O   0  0  0  0  0  0  0  0  0  0  0  0
  162.2370  211.1180  140.7480 C   0  0  0  0  0  1  0  0  0  0  0  0
  1  8  1  0  0  0  0
  2 13  2  0  0  0  0
  3  7  2  0  0  0  0
  4  6  2  0  0  0  0
  6  5  1  0  0  0  0
  7  9  1  0  0  0  0
  8  7  1  0  0  0  0
  8  4  1  6  0  0  0
  9  5  1  0  0  0  0
 10  2  1  0  0  0  0
 11 12  1  0  0  0  0
 11 10  2  0  0  0  0
 12 14  2  0  0  0  0
 13  3  1  0  0  0  0
 14 15  1  0  0  0  0
 15 13  1  0  0  0  0
 15  1  2  0  0  0  0
 16 11  1  0  0  0  0
 17 16  1  0  0  0  0
 18 16  1  0  0  0  0
 19  1  1  0  0  0  0
 20 19  1  0  0  0  0
 21 20  1  0  0  0  0
 22 27  1  0  0  0  0
 23 26  1  0  0  0  0
 24 22  1  0  0  0  0
 25 28  1  6  0  0  0
 25 24  1  0  0  0  0
 25 23  1  0  0  0  0
 26 27  1  0  0  0  0
 26 21  1  0  0  0  0
 29 28  1  0  0  0  0
 30 31  1  6  0  0  0
 30 29  1  0  0  0  0
 32 30  1  0  0  0  0
 33 32  2  0  0  0  0
 34 32  1  0  0  0  0
M  END
>  <MODEL>
5

>  <REMARK>
 VINA RESULT:      -7.9      1.911      4.929
  Name = 
  9 active torsions:
  status: ('A' for Active; 'I' for Inactive)
    1  A    between atoms: C_1  and  O_9
    2  A    between atoms: N_3  and  C_25
    3  A    between atoms: C_7  and  C_11
    4  A    between atoms: C_7  and  C_29
    5  A    between atoms: C_8  and  O_9
    6  A    between atoms: C_8  and  C_18
    7  A    between atoms: C_18  and  N_30
    8  A    between atoms: O_26  and  C_28
    9  A    between atoms: O_26  and  C_29
                            x       y       z     vdW  Elec       q    Type
                         _______ _______ _______ _____ _____    ______ ____

>  <TORSDO>
F 9

$$$$
=
 OpenBabel11062409333D

 34 37  0  0  1  0  0  0  0  0999 V2000
  161.3740  207.6260  152.2380 C   0  0  0  0  0  0  0  0  0  0  0  0
  159.9120  210.8890  152.9540 C   0  0  0  0  0  3  0  0  0  0  0  0
  161.6080  210.3300  151.2890 C   0  0  0  0  0  3  0  0  0  0  0  0
  161.8330  206.8220  149.9450 C   0  0  0  0  0  3  0  0  0  0  0  0
  161.6680  208.4930  148.1220 C   0  0  0  0  0  2  0  0  0  0  0  0
  161.8840  207.0960  148.6390 C   0  0  0  0  0  3  0  0  0  0  0  0
  161.7900  209.2950  150.4720 C   0  0  0  0  0  0  0  0  0  0  0  0
  161.6550  207.8950  150.9460 C   0  0  0  0  0  0  0  0  0  0  0  0
  162.2550  209.5410  149.0680 C   0  0  0  0  0  2  0  0  0  0  0  0
  159.4080  211.0960  154.1700 C   0  0  0  0  0  2  0  0  0  0  0  0
  159.9900  210.6070  155.4450 C   0  0  0  0  0  0  0  0  0  0  0  0
  160.6090  209.4160  155.5480 C   0  0  0  0  0  3  0  0  0  0  0  0
  161.1980  210.1750  152.7250 C   0  0  0  0  0  0  0  0  0  0  0  0
  160.9050  208.4500  154.4710 C   0  0  0  0  0  3  0  0  0  0  0  0
  161.1150  208.7380  153.1830 C   0  0  0  0  0  0  0  0  0  0  0  0
  159.7670  211.3810  156.6420 N   0  0  0  0  0  0  0  0  0  0  0  0
  160.8300  212.1610  157.2610 C   0  0  0  0  0  1  0  0  0  0  0  0
  158.4510  211.4450  157.2610 C   0  0  0  0  0  1  0  0  0  0  0  0
  161.3110  206.3150  152.7350 O   0  0  0  0  0  0  0  0  0  0  0  0
  161.9930  205.2220  152.1330 C   0  0  0  0  0  2  0  0  0  0  0  0
  161.1110  203.9810  152.1640 C   0  0  0  0  0  2  0  0  0  0  0  0
  160.9020  200.8560  150.1260 C   0  0  0  0  0  2  0  0  0  0  0  0
  160.2610  203.5320  149.9990 C   0  0  0  0  0  2  0  0  0  0  0  0
  161.2830  201.5350  148.8090 C   0  0  0  0  0  2  0  0  0  0  0  0
  160.5780  202.8900  148.6430 C   0  0  2  0  0  3  0  0  0  0  0  0
  161.3070  203.1850  150.9590 N   0  0  0  0  0  0  0  0  0  0  0  0
  161.1580  201.7740  151.3360 C   0  0  0  0  0  2  0  0  0  0  0  0
  161.4060  203.7440  147.9110 O   0  0  0  0  0  0  0  0  0  0  0  0
  161.6670  203.0660  146.7150 C   0  0  0  0  0  2  0  0  0  0  0  0
  162.0040  204.0520  145.5950 C   0  0  2  0  0  3  0  0  0  0  0  0
  163.0520  205.0540  146.0510 C   0  0  0  0  0  1  0  0  0  0  0  0
  160.8060  204.7500  144.9980 C   0  0  0  0  0  0  0  0  0  0  0  0
  160.1000  204.1470  144.2050 O   0  0  0  0  0  0  0  0  0  0  0  0
  160.4280  206.1470  145.3710 C   0  0  0  0  0  1  0  0  0  0  0  0
  1 19  1  0  0  0  0
  1 15  1  0  0  0  0
  2 10  1  0  0  0  0
  3 13  1  0  0  0  0
  4  8  1  0  0  0  0
  5  6  1  0  0  0  0
  5  9  1  0  0  0  0
  6  4  2  0  0  0  0
  7  8  1  0  0  0  0
  7  3  2  0  0  0  0
  8  1  2  0  0  0  0
  9  7  1  0  0  0  0
 10 11  1  0  0  0  0
 11 12  2  0  0  0  0
 11 16  1  0  0  0  0
 13  2  2  0  0  0  0
 13 15  1  0  0  0  0
 14 12  1  0  0  0  0
 15 14  2  0  0  0  0
 16 18  1  0  0  0  0
 16 17  1  0  0  0  0
 20 21  1  0  0  0  0
 20 19  1  0  0  0  0
 22 27  1  0  0  0  0
 23 26  1  0  0  0  0
 24 22  1  0  0  0  0
 25 28  1  6  0  0  0
 25 24  1  0  0  0  0
 25 23  1  0  0  0  0
 26 27  1  0  0  0  0
 26 21  1  0  0  0  0
 29 28  1  0  0  0  0
 30 31  1  1  0  0  0
 30 29  1  0  0  0  0
 32 34  1  0  0  0  0
 32 30  1  0  0  0  0
 33 32  2  0  0  0  0
M  END
>  <MODEL>
6

>  <REMARK>
 VINA RESULT:      -7.6      4.330      7.189
  Name = 
  9 active torsions:
  status: ('A' for Active; 'I' for Inactive)
    1  A    between atoms: C_1  and  O_9
    2  A    between atoms: N_3  and  C_25
    3  A    between atoms: C_7  and  C_11
    4  A    between atoms: C_7  and  C_29
    5  A    between atoms: C_8  and  O_9
    6  A    between atoms: C_8  and  C_18
    7  A    between atoms: C_18  and  N_30
    8  A    between atoms: O_26  and  C_28
    9  A    between atoms: O_26  and  C_29
                            x       y       z     vdW  Elec       q    Type
                         _______ _______ _______ _____ _____    ______ ____

>  <TORSDO>
F 9

$$$$
=
 OpenBabel11062409333D

 34 37  0  0  1  0  0  0  0  0999 V2000
  161.4540  211.0230  150.9600 C   0  0  0  0  0  0  0  0  0  0  0  0
  158.3410  212.2660  152.4000 C   0  0  0  0  0  3  0  0  0  0  0  0
  159.8990  213.4420  150.9340 C   0  0  0  0  0  3  0  0  0  0  0  0
  162.1490  211.4900  148.6340 C   0  0  0  0  0  3  0  0  0  0  0  0
  160.8610  213.2160  147.4080 C   0  0  0  0  0  2  0  0  0  0  0  0
  161.9290  212.1600  147.5000 C   0  0  0  0  0  3  0  0  0  0  0  0
  160.6250  213.0780  149.8790 C   0  0  0  0  0  0  0  0  0  0  0  0
  161.4170  211.8230  149.8740 C   0  0  0  0  0  0  0  0  0  0  0  0
  160.7390  214.0090  148.7100 C   0  0  0  0  0  2  0  0  0  0  0  0
  157.9040  211.7030  153.5250 C   0  0  0  0  0  2  0  0  0  0  0  0
  158.7510  211.2690  154.6650 C   0  0  0  0  0  0  0  0  0  0  0  0
  159.9790  210.7440  154.4950 C   0  0  0  0  0  3  0  0  0  0  0  0
  159.7740  212.5990  152.1700 C   0  0  0  0  0  0  0  0  0  0  0  0
  160.7330  210.5850  153.2350 C   0  0  0  0  0  3  0  0  0  0  0  0
  160.6290  211.3550  152.1470 C   0  0  0  0  0  0  0  0  0  0  0  0
  158.1820  211.2910  155.9910 N   0  0  0  0  0  0  0  0  0  0  0  0
  156.7530  211.4780  156.2090 C   0  0  0  0  0  1  0  0  0  0  0  0
  159.0110  211.0860  157.1680 C   0  0  0  0  0  1  0  0  0  0  0  0
  162.2480  209.8680  151.0160 O   0  0  0  0  0  0  0  0  0  0  0  0
  161.8100  208.6010  150.5410 C   0  0  0  0  0  2  0  0  0  0  0  0
  162.0630  207.5360  151.6000 C   0  0  0  0  0  2  0  0  0  0  0  0
  160.8920  203.9870  151.6250 C   0  0  0  0  0  2  0  0  0  0  0  0
  160.8200  206.2460  150.0490 C   0  0  0  0  0  2  0  0  0  0  0  0
  161.2050  203.7370  150.1480 C   0  0  0  0  0  2  0  0  0  0  0  0
  160.7860  204.9260  149.2690 C   0  0  2  0  0  3  0  0  0  0  0  0
  161.9010  206.2040  151.0310 N   0  0  0  0  0  0  0  0  0  0  0  0
  161.5160  205.3040  152.1250 C   0  0  0  0  0  2  0  0  0  0  0  0
  161.6550  205.0110  148.1800 O   0  0  0  0  0  0  0  0  0  0  0  0
  161.5200  203.7930  147.5050 C   0  0  0  0  0  2  0  0  0  0  0  0
  161.9520  203.9300  146.0450 C   0  0  2  0  0  3  0  0  0  0  0  0
  163.1790  204.8180  145.9230 C   0  0  0  0  0  1  0  0  0  0  0  0
  160.8550  204.3830  145.1110 C   0  0  0  0  0  0  0  0  0  0  0  0
  160.2000  203.5460  144.5120 O   0  0  0  0  0  0  0  0  0  0  0  0
  160.5160  205.8270  144.9190 C   0  0  0  0  0  1  0  0  0  0  0  0
  1 19  1  0  0  0  0
  1 15  1  0  0  0  0
  2 10  1  0  0  0  0
  3 13  1  0  0  0  0
  4  8  1  0  0  0  0
  5  6  1  0  0  0  0
  5  9  1  0  0  0  0
  6  4  2  0  0  0  0
  7  3  2  0  0  0  0
  8  7  1  0  0  0  0
  8  1  2  0  0  0  0
  9  7  1  0  0  0  0
 10 11  1  0  0  0  0
 11 16  1  0  0  0  0
 12 11  2  0  0  0  0
 13  2  2  0  0  0  0
 14 12  1  0  0  0  0
 15 13  1  0  0  0  0
 15 14  2  0  0  0  0
 16 17  1  0  0  0  0
 16 18  1  0  0  0  0
 20 19  1  0  0  0  0
 20 21  1  0  0  0  0
 22 27  1  0  0  0  0
 23 26  1  0  0  0  0
 24 22  1  0  0  0  0
 25 28  1  6  0  0  0
 25 23  1  0  0  0  0
 25 24  1  0  0  0  0
 26 21  1  0  0  0  0
 26 27  1  0  0  0  0
 29 28  1  0  0  0  0
 30 31  1  1  0  0  0
 30 29  1  0  0  0  0
 32 30  1  0  0  0  0
 33 32  2  0  0  0  0
 34 32  1  0  0  0  0
M  END
>  <MODEL>
7

>  <REMARK>
 VINA RESULT:      -7.5      3.246      7.231
  Name = 
  9 active torsions:
  status: ('A' for Active; 'I' for Inactive)
    1  A    between atoms: C_1  and  O_9
    2  A    between atoms: N_3  and  C_25
    3  A    between atoms: C_7  and  C_11
    4  A    between atoms: C_7  and  C_29
    5  A    between atoms: C_8  and  O_9
    6  A    between atoms: C_8  and  C_18
    7  A    between atoms: C_18  and  N_30
    8  A    between atoms: O_26  and  C_28
    9  A    between atoms: O_26  and  C_29
                            x       y       z     vdW  Elec       q    Type
                         _______ _______ _______ _____ _____    ______ ____

>  <TORSDO>
F 9

$$$$
=
 OpenBabel11062409333D

 34 37  0  0  1  0  0  0  0  0999 V2000
  161.9460  209.2820  150.8460 C   0  0  0  0  0  0  0  0  0  0  0  0
  160.3970  206.0860  150.0120 C   0  0  0  0  0  3  0  0  0  0  0  0
  161.2550  206.8260  152.1740 C   0  0  0  0  0  3  0  0  0  0  0  0
  161.4800  210.5040  152.9440 C   0  0  0  0  0  3  0  0  0  0  0  0
  160.2380  209.2740  154.7010 C   0  0  0  0  0  2  0  0  0  0  0  0
  160.9020  210.5060  154.1480 C   0  0  0  0  0  3  0  0  0  0  0  0
  161.2390  207.9900  152.8230 C   0  0  0  0  0  0  0  0  0  0  0  0
  161.5760  209.2650  152.1430 C   0  0  1  0  0  3  0  0  0  0  0  0
  160.9860  208.0020  154.3000 C   0  0  0  0  0  2  0  0  0  0  0  0
  160.4530  205.6750  148.7460 C   0  0  0  0  0  3  0  0  0  0  0  0
  161.6140  205.8310  147.8330 C   0  0  0  0  0  0  0  0  0  0  0  0
  162.4150  206.9140  147.8590 C   0  0  0  0  0  3  0  0  0  0  0  0
  161.5550  206.7130  150.7070 C   0  0  0  0  0  0  0  0  0  0  0  0
  162.3710  208.0540  148.7970 C   0  0  0  0  0  3  0  0  0  0  0  0
  161.9370  208.0240  150.0610 C   0  0  0  0  0  0  0  0  0  0  0  0
  161.8080  204.8470  146.7960 N   0  0  0  0  0  0  0  0  0  0  0  0
  162.6650  205.1040  145.6460 C   0  0  0  0  0  1  0  0  0  0  0  0
  161.1850  203.5350  146.8790 C   0  0  0  0  0  1  0  0  0  0  0  0
  162.3400  210.4600  150.1920 O   0  0  0  0  0  0  0  0  0  0  0  0
  161.5330  211.1160  149.2220 C   0  0  0  0  0  2  0  0  0  0  0  0
  162.4070  211.9790  148.3210 C   0  0  0  0  0  2  0  0  0  0  0  0
  161.4540  213.9550  145.2960 C   0  0  0  0  0  2  0  0  0  0  0  0
  160.3530  212.2680  147.1760 C   0  0  0  0  0  2  0  0  0  0  0  0
  160.1180  214.4340  145.8700 C   0  0  0  0  0  2  0  0  0  0  0  0
  159.3780  213.3060  146.6060 C   0  0  2  0  0  3  0  0  0  0  0  0
  161.5900  212.9320  147.5810 N   0  0  0  0  0  0  0  0  0  0  0  0
  162.3420  213.3130  146.3790 C   0  0  0  0  0  2  0  0  0  0  0  0
  158.6330  213.8600  147.6480 O   0  0  0  0  0  0  0  0  0  0  0  0
  157.8400  212.8120  148.1300 C   0  0  0  0  0  2  0  0  0  0  0  0
  157.0310  213.2580  149.3490 C   0  0  2  0  0  3  0  0  0  0  0  0
  156.1340  214.4360  149.0030 C   0  0  0  0  0  1  0  0  0  0  0  0
  157.8630  213.5480  150.5750 C   0  0  0  0  0  0  0  0  0  0  0  0
  159.0780  213.4590  150.5050 O   0  0  0  0  0  0  0  0  0  0  0  0
  157.2520  213.9760  151.8710 C   0  0  0  0  0  1  0  0  0  0  0  0
  1  8  1  0  0  0  0
  2 13  2  0  0  0  0
  3  7  2  0  0  0  0
  4  6  2  0  0  0  0
  6  5  1  0  0  0  0
  7  9  1  0  0  0  0
  8  7  1  0  0  0  0
  8  4  1  6  0  0  0
  9  5  1  0  0  0  0
 10  2  1  0  0  0  0
 11 12  1  0  0  0  0
 11 10  2  0  0  0  0
 12 14  2  0  0  0  0
 13  3  1  0  0  0  0
 14 15  1  0  0  0  0
 15 13  1  0  0  0  0
 15  1  2  0  0  0  0
 16 18  1  0  0  0  0
 16 11  1  0  0  0  0
 17 16  1  0  0  0  0
 19  1  1  0  0  0  0
 20 19  1  0  0  0  0
 21 20  1  0  0  0  0
 22 24  1  0  0  0  0
 22 27  1  0  0  0  0
 23 26  1  0  0  0  0
 24 25  1  0  0  0  0
 25 23  1  0  0  0  0
 25 28  1  1  0  0  0
 26 21  1  0  0  0  0
 27 26  1  0  0  0  0
 28 29  1  0  0  0  0
 29 30  1  0  0  0  0
 30 31  1  6  0  0  0
 30 32  1  0  0  0  0
 32 34  1  0  0  0  0
 33 32  2  0  0  0  0
M  END
>  <MODEL>
8

>  <REMARK>
 VINA RESULT:      -7.5      2.663      6.085
  Name = 
  9 active torsions:
  status: ('A' for Active; 'I' for Inactive)
    1  A    between atoms: C_1  and  O_9
    2  A    between atoms: N_3  and  C_25
    3  A    between atoms: C_7  and  C_11
    4  A    between atoms: C_7  and  C_29
    5  A    between atoms: C_8  and  O_9
    6  A    between atoms: C_8  and  C_18
    7  A    between atoms: C_18  and  N_30
    8  A    between atoms: O_26  and  C_28
    9  A    between atoms: O_26  and  C_29
                            x       y       z     vdW  Elec       q    Type
                         _______ _______ _______ _____ _____    ______ ____

>  <TORSDO>
F 9

$$$$
=
 OpenBabel11062409333D

 34 37  0  0  1  0  0  0  0  0999 V2000
  160.9460  208.9180  152.5770 C   0  0  0  0  0  0  0  0  0  0  0  0
  160.4670  205.5300  151.3130 C   0  0  0  0  0  3  0  0  0  0  0  0
  161.3660  206.2190  153.4760 C   0  0  0  0  0  3  0  0  0  0  0  0
  160.4460  209.5760  154.9070 C   0  0  0  0  0  3  0  0  0  0  0  0
  160.0070  207.7420  156.5160 C   0  0  0  0  0  2  0  0  0  0  0  0
  160.1090  209.1970  156.1430 C   0  0  0  0  0  3  0  0  0  0  0  0
  161.0610  207.1920  154.3330 C   0  0  0  0  0  0  0  0  0  0  0  0
  160.8240  208.5840  153.8790 C   0  0  1  0  0  3  0  0  0  0  0  0
  161.0670  206.9010  155.8040 C   0  0  0  0  0  2  0  0  0  0  0  0
  160.4490  205.3510  149.9930 C   0  0  0  0  0  3  0  0  0  0  0  0
  161.3190  206.0480  149.0110 C   0  0  0  0  0  0  0  0  0  0  0  0
  161.6940  207.3330  149.1610 C   0  0  0  0  0  3  0  0  0  0  0  0
  161.4390  206.4320  151.9910 C   0  0  0  0  0  0  0  0  0  0  0  0
  161.4200  208.2330  150.2980 C   0  0  0  0  0  3  0  0  0  0  0  0
  161.2370  207.8680  151.5720 C   0  0  0  0  0  0  0  0  0  0  0  0
  161.6630  205.3600  147.7910 N   0  0  0  0  0  0  0  0  0  0  0  0
  162.1460  206.0750  146.6170 C   0  0  0  0  0  1  0  0  0  0  0  0
  161.5800  203.9100  147.6960 C   0  0  0  0  0  1  0  0  0  0  0  0
  160.8000  210.2380  152.1230 O   0  0  0  0  0  0  0  0  0  0  0  0
  159.6530  211.0310  152.4000 C   0  0  0  0  0  2  0  0  0  0  0  0
  159.9040  212.4720  151.9740 C   0  0  0  0  0  2  0  0  0  0  0  0
  156.7030  214.1400  151.0080 C   0  0  0  0  0  2  0  0  0  0  0  0
  159.3750  214.1010  150.3370 C   0  0  0  0  0  2  0  0  0  0  0  0
  156.9760  214.0820  149.5030 C   0  0  0  0  0  2  0  0  0  0  0  0
  158.4340  214.4420  149.1750 C   0  0  2  0  0  3  0  0  0  0  0  0
  158.8860  212.9090  151.0260 N   0  0  0  0  0  0  0  0  0  0  0  0
  157.6900  213.2620  151.8000 C   0  0  0  0  0  2  0  0  0  0  0  0
  158.8290  213.7340  148.0390 O   0  0  0  0  0  0  0  0  0  0  0  0
  160.0500  214.3010  147.6590 C   0  0  0  0  0  2  0  0  0  0  0  0
  160.9260  213.2750  146.9380 C   0  0  2  0  0  3  0  0  0  0  0  0
  160.0820  212.1450  146.3710 C   0  0  0  0  0  1  0  0  0  0  0  0
  162.0680  212.7390  147.7680 C   0  0  0  0  0  0  0  0  0  0  0  0
  163.1010  213.3840  147.8460 O   0  0  0  0  0  0  0  0  0  0  0  0
  161.9670  211.4580  148.5320 C   0  0  0  0  0  1  0  0  0  0  0  0
  1  8  1  0  0  0  0
  2 13  2  0  0  0  0
  3  7  2  0  0  0  0
  4  6  2  0  0  0  0
  6  5  1  0  0  0  0
  7  9  1  0  0  0  0
  8  7  1  0  0  0  0
  8  4  1  6  0  0  0
  9  5  1  0  0  0  0
 10  2  1  0  0  0  0
 11 12  1  0  0  0  0
 11 10  2  0  0  0  0
 12 14  2  0  0  0  0
 13  3  1  0  0  0  0
 14 15  1  0  0  0  0
 15 13  1  0  0  0  0
 15  1  2  0  0  0  0
 16 11  1  0  0  0  0
 17 16  1  0  0  0  0
 18 16  1  0  0  0  0
 19 20  1  0  0  0  0
 19  1  1  0  0  0  0
 21 20  1  0  0  0  0
 22 27  1  0  0  0  0
 23 26  1  0  0  0  0
 24 22  1  0  0  0  0
 25 28  1  6  0  0  0
 25 24  1  0  0  0  0
 25 23  1  0  0  0  0
 26 27  1  0  0  0  0
 26 21  1  0  0  0  0
 29 28  1  0  0  0  0
 30 31  1  1  0  0  0
 30 29  1  0  0  0  0
 30 32  1  0  0  0  0
 32 33  2  0  0  0  0
 32 34  1  0  0  0  0
M  END
>  <MODEL>
9

>  <REMARK>
 VINA RESULT:      -7.4      2.611      5.793
  Name = 
  9 active torsions:
  status: ('A' for Active; 'I' for Inactive)
    1  A    between atoms: C_1  and  O_9
    2  A    between atoms: N_3  and  C_25
    3  A    between atoms: C_7  and  C_11
    4  A    between atoms: C_7  and  C_29
    5  A    between atoms: C_8  and  O_9
    6  A    between atoms: C_8  and  C_18
    7  A    between atoms: C_18  and  N_30
    8  A    between atoms: O_26  and  C_28
    9  A    between atoms: O_26  and  C_29
                            x       y       z     vdW  Elec       q    Type
                         _______ _______ _______ _____ _____    ______ ____

>  <TORSDO>
F 9

$$$$
