=
 OpenBabel11052422593D

 28 32  0  0  0  0  0  0  0  0999 V2000
  161.5690  207.2590  152.7110 N   0  0  0  0  0  0  0  0  0  0  0  0
  162.1240  211.1630  148.9680 S   0  0  0  0  0  0  0  0  0  0  0  0
  159.3100  211.0810  154.8430 C   0  0  0  0  0  1  0  0  0  0  0  0
  160.6210  212.8080  150.1170 C   0  0  0  0  0  0  0  0  0  0  0  0
  160.9120  210.7500  151.4890 C   0  0  0  0  0  0  0  0  0  0  0  0
  161.1720  211.5540  150.2940 C   0  0  0  0  0  0  0  0  0  0  0  0
  159.9190  212.7900  152.5190 C   0  0  0  0  0  2  0  0  0  0  0  0
  160.9620  213.4170  148.9060 C   0  0  0  0  0  3  0  0  0  0  0  0
  160.4500  209.1320  153.7380 C   0  0  0  0  0  0  0  0  0  0  0  0
  161.3280  209.4150  151.5500 O   0  0  0  0  0  0  0  0  0  0  0  0
  159.6450  213.3570  151.1130 C   0  0  0  0  0  2  0  0  0  0  0  0
  160.5860  207.0100  154.9560 C   0  0  0  0  0  3  0  0  0  0  0  0
  160.0080  210.5040  153.7000 N   0  0  0  0  0  0  0  0  0  0  0  0
  160.2590  208.3020  154.9440 C   0  0  0  0  0  3  0  0  0  0  0  0
  161.8100  212.6080  148.1520 C   0  0  0  0  0  0  0  0  0  0  0  0
  160.2550  211.3050  152.5280 C   0  0  0  0  0  0  0  0  0  0  0  0
  161.0970  206.3130  153.7250 C   0  0  0  0  0  2  0  0  0  0  0  0
  161.0960  208.6170  152.6780 C   0  0  0  0  0  0  0  0  0  0  0  0
  162.3970  212.9850  146.8390 C   0  0  0  0  0  2  0  0  0  0  0  0
  161.4030  212.9710  145.8610 O   0  0  0  0  0  1  0  0  0  0  0  0
  162.4040  206.7480  151.6330 C   0  0  0  0  0  2  0  0  0  0  0  0
  161.8000  205.5130  151.0530 C   0  0  0  0  0  0  0  0  0  0  0  0
  160.7150  203.1860  149.9400 C   0  0  0  0  0  0  0  0  0  0  0  0
  161.7850  204.3240  151.7910 C   0  0  0  0  0  3  0  0  0  0  0  0
  161.2770  205.5350  149.7540 C   0  0  0  0  0  3  0  0  0  0  0  0
  160.7330  204.3730  149.2000 C   0  0  0  0  0  3  0  0  0  0  0  0
  160.1360  201.9520  149.3500 C   0  0  0  0  0  1  0  0  0  0  0  0
  161.2420  203.1620  151.2360 C   0  0  0  0  0  3  0  0  0  0  0  0
  1 17  1  0  0  0  0
  2  6  1  0  0  0  0
  4  6  2  0  0  0  0
  4 11  1  0  0  0  0
  5 10  1  0  0  0  0
  5 16  2  0  0  0  0
  6  5  1  0  0  0  0
  7 16  1  0  0  0  0
  8  4  1  0  0  0  0
  9 14  1  0  0  0  0
 10 18  1  0  0  0  0
 11  7  1  0  0  0  0
 13  9  1  0  0  0  0
 13  3  1  0  0  0  0
 14 12  2  0  0  0  0
 15  8  2  0  0  0  0
 15  2  1  0  0  0  0
 16 13  1  0  0  0  0
 17 12  1  0  0  0  0
 18  1  1  0  0  0  0
 18  9  2  0  0  0  0
 19 15  1  0  0  0  0
 20 19  1  0  0  0  0
 21  1  1  0  0  0  0
 22 21  1  0  0  0  0
 22 24  1  0  0  0  0
 23 28  1  0  0  0  0
 25 22  2  0  0  0  0
 26 25  1  0  0  0  0
 26 23  2  0  0  0  0
 27 23  1  0  0  0  0
 28 24  2  0  0  0  0
M  END
>  <MODEL>
1

>  <REMARK>
 VINA RESULT:      -8.3      0.000      0.000
  Name = 
  3 active torsions:
  status: ('A' for Active; 'I' for Inactive)
    1  A    between atoms: N_1  and  C_2
    2  A    between atoms: C_2  and  C_3
    3  A    between atoms: C_12  and  C_24
                            x       y       z     vdW  Elec       q    Type
                         _______ _______ _______ _____ _____    ______ ____

>  <TORSDO>
F 3

$$$$
=
 OpenBabel11052422593D

 28 32  0  0  0  0  0  0  0  0999 V2000
  161.3290  208.8150  152.4540 N   0  0  0  0  0  0  0  0  0  0  0  0
  161.1950  206.8750  147.3770 S   0  0  0  0  0  0  0  0  0  0  0  0
  160.8040  203.9750  153.1980 C   0  0  0  0  0  1  0  0  0  0  0  0
  161.2940  204.4600  148.0440 C   0  0  0  0  0  0  0  0  0  0  0  0
  161.1670  205.9370  150.0450 C   0  0  0  0  0  0  0  0  0  0  0  0
  161.2170  205.7230  148.5970 C   0  0  0  0  0  0  0  0  0  0  0  0
  160.7640  203.4910  150.2890 C   0  0  0  0  0  2  0  0  0  0  0  0
  161.3550  204.4510  146.6470 C   0  0  0  0  0  3  0  0  0  0  0  0
  161.0900  206.4420  152.8070 C   0  0  0  0  0  0  0  0  0  0  0  0
  161.2830  207.2280  150.5740 O   0  0  0  0  0  0  0  0  0  0  0  0
  161.4300  203.2520  148.9200 C   0  0  0  0  0  2  0  0  0  0  0  0
  161.1830  207.9320  154.7500 C   0  0  0  0  0  3  0  0  0  0  0  0
  160.9710  205.1010  152.2870 N   0  0  0  0  0  0  0  0  0  0  0  0
  160.9880  206.7090  154.2550 C   0  0  0  0  0  3  0  0  0  0  0  0
  161.3050  205.7430  146.1280 C   0  0  0  0  0  0  0  0  0  0  0  0
  161.0220  204.8770  150.8650 C   0  0  0  0  0  0  0  0  0  0  0  0
  161.5850  209.0850  153.8710 C   0  0  0  0  0  2  0  0  0  0  0  0
  161.2390  207.4690  151.9540 C   0  0  0  0  0  0  0  0  0  0  0  0
  161.2980  206.0770  144.6790 C   0  0  0  0  0  2  0  0  0  0  0  0
  161.2430  204.9020  143.9290 O   0  0  0  0  0  1  0  0  0  0  0  0
  161.3320  209.9410  151.5310 C   0  0  0  0  0  2  0  0  0  0  0  0
  160.3550  210.9770  151.9760 C   0  0  0  0  0  0  0  0  0  0  0  0
  158.4940  212.9110  152.7660 C   0  0  0  0  0  0  0  0  0  0  0  0
  159.3220  210.6360  152.8560 C   0  0  0  0  0  3  0  0  0  0  0  0
  160.4530  212.2840  151.4860 C   0  0  0  0  0  3  0  0  0  0  0  0
  159.5240  213.2510  151.8830 C   0  0  0  0  0  3  0  0  0  0  0  0
  157.5080  213.9380  153.1880 C   0  0  0  0  0  1  0  0  0  0  0  0
  158.3930  211.6030  153.2520 C   0  0  0  0  0  3  0  0  0  0  0  0
  1 17  1  0  0  0  0
  2  6  1  0  0  0  0
  4  6  2  0  0  0  0
  4 11  1  0  0  0  0
  5 10  1  0  0  0  0
  5 16  2  0  0  0  0
  6  5  1  0  0  0  0
  7 16  1  0  0  0  0
  8  4  1  0  0  0  0
  9 14  1  0  0  0  0
 10 18  1  0  0  0  0
 11  7  1  0  0  0  0
 13  9  1  0  0  0  0
 13  3  1  0  0  0  0
 14 12  2  0  0  0  0
 15  8  2  0  0  0  0
 15  2  1  0  0  0  0
 16 13  1  0  0  0  0
 17 12  1  0  0  0  0
 18  1  1  0  0  0  0
 18  9  2  0  0  0  0
 19 15  1  0  0  0  0
 20 19  1  0  0  0  0
 21 22  1  0  0  0  0
 21  1  1  0  0  0  0
 22 24  1  0  0  0  0
 23 27  1  0  0  0  0
 23 28  1  0  0  0  0
 24 28  2  0  0  0  0
 25 26  1  0  0  0  0
 25 22  2  0  0  0  0
 26 23  2  0  0  0  0
M  END
>  <MODEL>
2

>  <REMARK>
 VINA RESULT:      -7.8      2.530      6.990
  Name = 
  3 active torsions:
  status: ('A' for Active; 'I' for Inactive)
    1  A    between atoms: N_1  and  C_2
    2  A    between atoms: C_2  and  C_3
    3  A    between atoms: C_12  and  C_24
                            x       y       z     vdW  Elec       q    Type
                         _______ _______ _______ _____ _____    ______ ____

>  <TORSDO>
F 3

$$$$
=
 OpenBabel11052422593D

 28 32  0  0  0  0  0  0  0  0999 V2000
  161.1040  204.1900  149.7380 N   0  0  0  0  0  0  0  0  0  0  0  0
  162.0680  209.4060  148.5450 S   0  0  0  0  0  0  0  0  0  0  0  0
  161.1260  206.2950  154.1910 C   0  0  0  0  0  1  0  0  0  0  0  0
  161.6690  210.2580  150.8700 C   0  0  0  0  0  0  0  0  0  0  0  0
  161.5170  207.7730  150.7870 C   0  0  0  0  0  0  0  0  0  0  0  0
  161.7300  209.0770  150.1560 C   0  0  0  0  0  0  0  0  0  0  0  0
  161.6870  208.9280  152.9890 C   0  0  0  0  0  2  0  0  0  0  0  0
  161.8760  211.4040  150.0960 C   0  0  0  0  0  3  0  0  0  0  0  0
  161.1000  205.2340  151.9120 C   0  0  0  0  0  0  0  0  0  0  0  0
  161.3950  206.6180  150.0060 O   0  0  0  0  0  0  0  0  0  0  0  0
  161.2810  210.2530  152.3160 C   0  0  0  0  0  2  0  0  0  0  0  0
  160.7440  202.8150  151.7500 C   0  0  0  0  0  3  0  0  0  0  0  0
  161.2190  206.4090  152.7400 N   0  0  0  0  0  0  0  0  0  0  0  0
  160.9410  203.8930  152.5090 C   0  0  0  0  0  3  0  0  0  0  0  0
  162.1180  211.0800  148.7630 C   0  0  0  0  0  0  0  0  0  0  0  0
  161.4250  207.6980  152.1300 C   0  0  0  0  0  0  0  0  0  0  0  0
  160.6020  202.9150  150.2560 C   0  0  0  0  0  2  0  0  0  0  0  0
  161.1920  205.3550  150.5770 C   0  0  0  0  0  0  0  0  0  0  0  0
  162.4270  212.0650  147.6920 C   0  0  0  0  0  2  0  0  0  0  0  0
  162.4420  213.3520  148.2300 O   0  0  0  0  0  1  0  0  0  0  0  0
  161.3600  204.2950  148.3090 C   0  0  0  0  0  2  0  0  0  0  0  0
  161.2670  202.9520  147.6670 C   0  0  0  0  0  0  0  0  0  0  0  0
  161.1430  200.4390  146.4440 C   0  0  0  0  0  0  0  0  0  0  0  0
  161.5520  201.7990  148.4060 C   0  0  0  0  0  3  0  0  0  0  0  0
  160.9260  202.8480  146.3130 C   0  0  0  0  0  3  0  0  0  0  0  0
  160.8620  201.5910  145.7030 C   0  0  0  0  0  3  0  0  0  0  0  0
  161.0740  199.1040  145.7950 C   0  0  0  0  0  1  0  0  0  0  0  0
  161.4890  200.5430  147.7950 C   0  0  0  0  0  3  0  0  0  0  0  0
  1 17  1  0  0  0  0
  1 18  1  0  0  0  0
  2 15  1  0  0  0  0
  2  6  1  0  0  0  0
  4 11  1  0  0  0  0
  5 16  2  0  0  0  0
  6  5  1  0  0  0  0
  6  4  2  0  0  0  0
  8  4  1  0  0  0  0
  9 14  1  0  0  0  0
  9 13  1  0  0  0  0
 10 18  1  0  0  0  0
 10  5  1  0  0  0  0
 11  7  1  0  0  0  0
 12 14  2  0  0  0  0
 13  3  1  0  0  0  0
 15  8  2  0  0  0  0
 16 13  1  0  0  0  0
 16  7  1  0  0  0  0
 17 12  1  0  0  0  0
 18  9  2  0  0  0  0
 19 20  1  0  0  0  0
 19 15  1  0  0  0  0
 21  1  1  0  0  0  0
 22 21  1  0  0  0  0
 22 24  1  0  0  0  0
 23 28  1  0  0  0  0
 25 22  2  0  0  0  0
 26 25  1  0  0  0  0
 26 23  2  0  0  0  0
 27 23  1  0  0  0  0
 28 24  2  0  0  0  0
M  END
>  <MODEL>
3

>  <REMARK>
 VINA RESULT:      -7.8      2.180      3.926
  Name = 
  3 active torsions:
  status: ('A' for Active; 'I' for Inactive)
    1  A    between atoms: N_1  and  C_2
    2  A    between atoms: C_2  and  C_3
    3  A    between atoms: C_12  and  C_24
                            x       y       z     vdW  Elec       q    Type
                         _______ _______ _______ _____ _____    ______ ____

>  <TORSDO>
F 3

$$$$
=
 OpenBabel11052422593D

 28 32  0  0  0  0  0  0  0  0999 V2000
  161.5150  204.9650  148.5690 N   0  0  0  0  0  0  0  0  0  0  0  0
  160.6960  206.4090  153.7460 S   0  0  0  0  0  0  0  0  0  0  0  0
  162.0870  209.8530  148.3940 C   0  0  0  0  0  1  0  0  0  0  0  0
  161.3900  208.7990  153.4370 C   0  0  0  0  0  0  0  0  0  0  0  0
  161.4040  207.5740  151.2690 C   0  0  0  0  0  0  0  0  0  0  0  0
  161.1910  207.6380  152.7160 C   0  0  0  0  0  0  0  0  0  0  0  0
  161.5350  210.0620  151.2820 C   0  0  0  0  0  2  0  0  0  0  0  0
  161.1590  208.6640  154.8090 C   0  0  0  0  0  3  0  0  0  0  0  0
  161.8100  207.3560  148.4980 C   0  0  0  0  0  0  0  0  0  0  0  0
  161.3800  206.3430  150.6020 O   0  0  0  0  0  0  0  0  0  0  0  0
  161.9330  210.0250  152.7710 C   0  0  0  0  0  2  0  0  0  0  0  0
  162.0210  206.0670  146.4250 C   0  0  0  0  0  3  0  0  0  0  0  0
  161.8430  208.6370  149.1610 N   0  0  0  0  0  0  0  0  0  0  0  0
  161.9630  207.2520  147.0340 C   0  0  0  0  0  3  0  0  0  0  0  0
  160.7570  207.3700  155.1330 C   0  0  0  0  0  0  0  0  0  0  0  0
  161.6380  208.7130  150.5850 C   0  0  0  0  0  0  0  0  0  0  0  0
  162.0050  204.7790  147.2000 C   0  0  0  0  0  2  0  0  0  0  0  0
  161.5800  206.2460  149.2180 C   0  0  0  0  0  0  0  0  0  0  0  0
  160.3840  206.9130  156.4980 C   0  0  0  0  0  2  0  0  0  0  0  0
  159.9710  208.0060  157.2610 O   0  0  0  0  0  1  0  0  0  0  0  0
  161.1110  203.7830  149.3180 C   0  0  0  0  0  2  0  0  0  0  0  0
  161.1730  202.5730  148.4480 C   0  0  0  0  0  0  0  0  0  0  0  0
  161.2410  200.2890  146.8320 C   0  0  0  0  0  0  0  0  0  0  0  0
  160.8150  202.6590  147.0980 C   0  0  0  0  0  3  0  0  0  0  0  0
  161.5590  201.3420  148.9910 C   0  0  0  0  0  3  0  0  0  0  0  0
  161.5960  200.2020  148.1820 C   0  0  0  0  0  3  0  0  0  0  0  0
  161.2800  199.0770  145.9740 C   0  0  0  0  0  1  0  0  0  0  0  0
  160.8500  201.5180  146.2900 C   0  0  0  0  0  3  0  0  0  0  0  0
  1 18  1  0  0  0  0
  1 21  1  0  0  0  0
  2 15  1  0  0  0  0
  3 13  1  0  0  0  0
  4  8  1  0  0  0  0
  5  6  1  0  0  0  0
  6  4  2  0  0  0  0
  6  2  1  0  0  0  0
  7 11  1  0  0  0  0
  8 15  2  0  0  0  0
  9 13  1  0  0  0  0
  9 18  2  0  0  0  0
 10  5  1  0  0  0  0
 11  4  1  0  0  0  0
 12 14  2  0  0  0  0
 12 17  1  0  0  0  0
 13 16  1  0  0  0  0
 14  9  1  0  0  0  0
 15 19  1  0  0  0  0
 16  5  2  0  0  0  0
 16  7  1  0  0  0  0
 17  1  1  0  0  0  0
 18 10  1  0  0  0  0
 19 20  1  0  0  0  0
 22 25  1  0  0  0  0
 22 21  1  0  0  0  0
 23 26  1  0  0  0  0
 24 22  2  0  0  0  0
 26 25  2  0  0  0  0
 27 23  1  0  0  0  0
 28 23  2  0  0  0  0
 28 24  1  0  0  0  0
M  END
>  <MODEL>
4

>  <REMARK>
 VINA RESULT:      -7.8      3.169      6.228
  Name = 
  3 active torsions:
  status: ('A' for Active; 'I' for Inactive)
    1  A    between atoms: N_1  and  C_2
    2  A    between atoms: C_2  and  C_3
    3  A    between atoms: C_12  and  C_24
                            x       y       z     vdW  Elec       q    Type
                         _______ _______ _______ _____ _____    ______ ____

>  <TORSDO>
F 3

$$$$
=
 OpenBabel11052422593D

 28 32  0  0  0  0  0  0  0  0999 V2000
  161.0930  207.8940  152.4500 N   0  0  0  0  0  0  0  0  0  0  0  0
  160.9900  206.6780  147.1520 S   0  0  0  0  0  0  0  0  0  0  0  0
  160.9310  202.9720  152.5100 C   0  0  0  0  0  1  0  0  0  0  0  0
  161.2750  204.2070  147.4710 C   0  0  0  0  0  0  0  0  0  0  0  0
  161.0860  205.3780  149.6610 C   0  0  0  0  0  0  0  0  0  0  0  0
  161.1200  205.3720  148.1980 C   0  0  0  0  0  0  0  0  0  0  0  0
  160.8650  202.8980  149.5630 C   0  0  0  0  0  2  0  0  0  0  0  0
  161.3070  204.3990  146.0870 C   0  0  0  0  0  3  0  0  0  0  0  0
  161.0320  205.4840  152.4670 C   0  0  0  0  0  0  0  0  0  0  0  0
  161.1200  206.5870  150.3660 O   0  0  0  0  0  0  0  0  0  0  0  0
  161.5160  202.9030  148.1670 C   0  0  0  0  0  2  0  0  0  0  0  0
  161.0590  206.6910  154.6000 C   0  0  0  0  0  3  0  0  0  0  0  0
  160.9980  204.2240  151.7650 N   0  0  0  0  0  0  0  0  0  0  0  0
  160.9420  205.5390  153.9400 C   0  0  0  0  0  3  0  0  0  0  0  0
  161.1540  205.7430  145.7550 C   0  0  0  0  0  0  0  0  0  0  0  0
  161.0350  204.2050  150.3250 C   0  0  0  0  0  0  0  0  0  0  0  0
  161.3590  207.9820  153.8880 C   0  0  0  0  0  2  0  0  0  0  0  0
  161.0890  206.6280  151.7670 C   0  0  0  0  0  0  0  0  0  0  0  0
  161.0920  206.2740  144.3680 C   0  0  0  0  0  2  0  0  0  0  0  0
  161.3120  205.2380  143.4600 O   0  0  0  0  0  1  0  0  0  0  0  0
  160.9960  209.1350  151.6950 C   0  0  0  0  0  2  0  0  0  0  0  0
  160.4900  210.2340  152.5680 C   0  0  0  0  0  0  0  0  0  0  0  0
  159.5160  212.2570  154.2370 C   0  0  0  0  0  0  0  0  0  0  0  0
  161.2720  210.7030  153.6300 C   0  0  0  0  0  3  0  0  0  0  0  0
  159.2180  210.7730  152.3460 C   0  0  0  0  0  3  0  0  0  0  0  0
  158.7320  211.7850  153.1790 C   0  0  0  0  0  3  0  0  0  0  0  0
  158.9990  213.3330  155.1210 C   0  0  0  0  0  1  0  0  0  0  0  0
  160.7850  211.7150  154.4630 C   0  0  0  0  0  3  0  0  0  0  0  0
  1 17  1  0  0  0  0
  2  6  1  0  0  0  0
  4 11  1  0  0  0  0
  4  6  2  0  0  0  0
  5 16  2  0  0  0  0
  5 10  1  0  0  0  0
  6  5  1  0  0  0  0
  7 16  1  0  0  0  0
  8  4  1  0  0  0  0
  9 14  1  0  0  0  0
 10 18  1  0  0  0  0
 11  7  1  0  0  0  0
 13  9  1  0  0  0  0
 13  3  1  0  0  0  0
 14 12  2  0  0  0  0
 15  8  2  0  0  0  0
 15  2  1  0  0  0  0
 16 13  1  0  0  0  0
 17 12  1  0  0  0  0
 18  1  1  0  0  0  0
 18  9  2  0  0  0  0
 19 15  1  0  0  0  0
 20 19  1  0  0  0  0
 21  1  1  0  0  0  0
 21 22  1  0  0  0  0
 22 24  1  0  0  0  0
 23 28  1  0  0  0  0
 23 27  1  0  0  0  0
 24 28  2  0  0  0  0
 25 22  2  0  0  0  0
 25 26  1  0  0  0  0
 26 23  2  0  0  0  0
M  END
>  <MODEL>
5

>  <REMARK>
 VINA RESULT:      -7.7      2.957      7.144
  Name = 
  3 active torsions:
  status: ('A' for Active; 'I' for Inactive)
    1  A    between atoms: N_1  and  C_2
    2  A    between atoms: C_2  and  C_3
    3  A    between atoms: C_12  and  C_24
                            x       y       z     vdW  Elec       q    Type
                         _______ _______ _______ _____ _____    ______ ____

>  <TORSDO>
F 3

$$$$
=
 OpenBabel11052422593D

 28 32  0  0  0  0  0  0  0  0999 V2000
  161.8440  208.7670  150.0960 N   0  0  0  0  0  0  0  0  0  0  0  0
  161.0590  203.8370  147.9420 S   0  0  0  0  0  0  0  0  0  0  0  0
  161.0960  205.9860  154.0920 C   0  0  0  0  0  1  0  0  0  0  0  0
  161.0750  202.6160  150.1320 C   0  0  0  0  0  0  0  0  0  0  0  0
  161.2500  205.0770  150.4760 C   0  0  0  0  0  0  0  0  0  0  0  0
  161.1360  203.8970  149.6170 C   0  0  0  0  0  0  0  0  0  0  0  0
  160.7230  203.5950  152.4080 C   0  0  0  0  0  2  0  0  0  0  0  0
  160.9890  201.6140  149.1610 C   0  0  0  0  0  3  0  0  0  0  0  0
  161.4940  207.3930  152.0460 C   0  0  0  0  0  0  0  0  0  0  0  0
  161.5020  206.3370  149.9200 O   0  0  0  0  0  0  0  0  0  0  0  0
  161.2250  202.3800  151.6040 C   0  0  0  0  0  2  0  0  0  0  0  0
  161.8830  209.7950  152.3340 C   0  0  0  0  0  3  0  0  0  0  0  0
  161.2370  206.1060  152.6460 N   0  0  0  0  0  0  0  0  0  0  0  0
  161.5610  208.6170  152.8690 C   0  0  0  0  0  3  0  0  0  0  0  0
  160.9670  202.1520  147.8760 C   0  0  0  0  0  0  0  0  0  0  0  0
  161.1260  204.9360  151.8110 C   0  0  0  0  0  0  0  0  0  0  0  0
  162.2630  209.9280  150.8850 C   0  0  0  0  0  2  0  0  0  0  0  0
  161.6170  207.4870  150.7120 C   0  0  0  0  0  0  0  0  0  0  0  0
  160.8290  201.3590  146.6260 C   0  0  0  0  0  2  0  0  0  0  0  0
  160.8200  202.2170  145.5260 O   0  0  0  0  0  1  0  0  0  0  0  0
  161.8210  208.8960  148.6460 C   0  0  0  0  0  2  0  0  0  0  0  0
  161.9840  210.3260  148.2520 C   0  0  0  0  0  0  0  0  0  0  0  0
  162.2750  213.0220  147.5650 C   0  0  0  0  0  0  0  0  0  0  0  0
  163.2500  210.9220  148.2760 C   0  0  0  0  0  3  0  0  0  0  0  0
  160.8620  211.0820  147.8910 C   0  0  0  0  0  3  0  0  0  0  0  0
  161.0090  212.4280  147.5450 C   0  0  0  0  0  3  0  0  0  0  0  0
  162.4300  214.4530  147.1970 C   0  0  0  0  0  1  0  0  0  0  0  0
  163.3950  212.2690  147.9310 C   0  0  0  0  0  3  0  0  0  0  0  0
  1 18  1  0  0  0  0
  1 17  1  0  0  0  0
  2  6  1  0  0  0  0
  4 11  1  0  0  0  0
  5 16  2  0  0  0  0
  6  4  2  0  0  0  0
  6  5  1  0  0  0  0
  8  4  1  0  0  0  0
  9 13  1  0  0  0  0
  9 14  1  0  0  0  0
 10  5  1  0  0  0  0
 10 18  1  0  0  0  0
 11  7  1  0  0  0  0
 12 14  2  0  0  0  0
 13  3  1  0  0  0  0
 15  2  1  0  0  0  0
 15  8  2  0  0  0  0
 16  7  1  0  0  0  0
 16 13  1  0  0  0  0
 17 12  1  0  0  0  0
 18  9  2  0  0  0  0
 19 15  1  0  0  0  0
 20 19  1  0  0  0  0
 21  1  1  0  0  0  0
 22 24  1  0  0  0  0
 22 21  1  0  0  0  0
 23 28  1  0  0  0  0
 25 22  2  0  0  0  0
 26 23  2  0  0  0  0
 26 25  1  0  0  0  0
 27 23  1  0  0  0  0
 28 24  2  0  0  0  0
M  END
>  <MODEL>
6

>  <REMARK>
 VINA RESULT:      -7.6      2.881      7.817
  Name = 
  3 active torsions:
  status: ('A' for Active; 'I' for Inactive)
    1  A    between atoms: N_1  and  C_2
    2  A    between atoms: C_2  and  C_3
    3  A    between atoms: C_12  and  C_24
                            x       y       z     vdW  Elec       q    Type
                         _______ _______ _______ _____ _____    ______ ____

>  <TORSDO>
F 3

$$$$
=
 OpenBabel11052422593D

 28 32  0  0  0  0  0  0  0  0999 V2000
  160.9020  209.7280  155.7840 N   0  0  0  0  0  0  0  0  0  0  0  0
  161.6050  211.1430  150.5810 S   0  0  0  0  0  0  0  0  0  0  0  0
  160.9600  205.3590  153.5110 C   0  0  0  0  0  1  0  0  0  0  0  0
  161.9560  208.8040  149.7460 C   0  0  0  0  0  0  0  0  0  0  0  0
  161.4050  208.8150  152.1750 C   0  0  0  0  0  0  0  0  0  0  0  0
  161.6460  209.4960  150.9010 C   0  0  0  0  0  0  0  0  0  0  0  0
  161.3140  206.6780  150.8980 C   0  0  0  0  0  2  0  0  0  0  0  0
  162.1740  209.6220  148.6330 C   0  0  0  0  0  3  0  0  0  0  0  0
  160.9500  207.5940  154.6630 C   0  0  0  0  0  0  0  0  0  0  0  0
  161.2840  209.5510  153.3600 O   0  0  0  0  0  0  0  0  0  0  0  0
  162.1560  207.3200  149.7780 C   0  0  0  0  0  2  0  0  0  0  0  0
  160.6200  207.6590  157.0900 C   0  0  0  0  0  3  0  0  0  0  0  0
  161.0740  206.8120  153.4570 N   0  0  0  0  0  0  0  0  0  0  0  0
  160.6500  206.9540  155.9590 C   0  0  0  0  0  3  0  0  0  0  0  0
  162.0080  210.9680  148.9510 C   0  0  0  0  0  0  0  0  0  0  0  0
  161.3140  207.4700  152.1980 C   0  0  0  0  0  0  0  0  0  0  0  0
  160.9580  209.1240  157.1170 C   0  0  0  0  0  2  0  0  0  0  0  0
  161.0520  208.9320  154.5960 C   0  0  0  0  0  0  0  0  0  0  0  0
  162.1180  212.0890  147.9800 C   0  0  0  0  0  2  0  0  0  0  0  0
  163.4450  212.5130  147.9040 O   0  0  0  0  0  1  0  0  0  0  0  0
  160.8560  211.1810  155.6920 C   0  0  0  0  0  2  0  0  0  0  0  0
  159.4920  211.6290  155.2860 C   0  0  0  0  0  0  0  0  0  0  0  0
  156.9380  212.5120  154.5590 C   0  0  0  0  0  0  0  0  0  0  0  0
  159.3260  212.4410  154.1580 C   0  0  0  0  0  3  0  0  0  0  0  0
  158.3800  211.2660  156.0540 C   0  0  0  0  0  3  0  0  0  0  0  0
  157.1040  211.7050  155.6890 C   0  0  0  0  0  3  0  0  0  0  0  0
  155.5820  212.9790  154.1720 C   0  0  0  0  0  1  0  0  0  0  0  0
  158.0500  212.8810  153.7940 C   0  0  0  0  0  3  0  0  0  0  0  0
  1 17  1  0  0  0  0
  2  6  1  0  0  0  0
  4 11  1  0  0  0  0
  4  6  2  0  0  0  0
  5 16  2  0  0  0  0
  5 10  1  0  0  0  0
  6  5  1  0  0  0  0
  7 16  1  0  0  0  0
  8 15  2  0  0  0  0
  8  4  1  0  0  0  0
  9 14  1  0  0  0  0
 10 18  1  0  0  0  0
 11  7  1  0  0  0  0
 12 17  1  0  0  0  0
 13  3  1  0  0  0  0
 13  9  1  0  0  0  0
 14 12  2  0  0  0  0
 15  2  1  0  0  0  0
 16 13  1  0  0  0  0
 18  9  2  0  0  0  0
 18  1  1  0  0  0  0
 19 15  1  0  0  0  0
 20 19  1  0  0  0  0
 21  1  1  0  0  0  0
 22 21  1  0  0  0  0
 22 25  1  0  0  0  0
 23 26  1  0  0  0  0
 24 22  2  0  0  0  0
 26 25  2  0  0  0  0
 27 23  1  0  0  0  0
 28 24  1  0  0  0  0
 28 23  2  0  0  0  0
M  END
>  <MODEL>
7

>  <REMARK>
 VINA RESULT:      -7.3      2.166      6.079
  Name = 
  3 active torsions:
  status: ('A' for Active; 'I' for Inactive)
    1  A    between atoms: N_1  and  C_2
    2  A    between atoms: C_2  and  C_3
    3  A    between atoms: C_12  and  C_24
                            x       y       z     vdW  Elec       q    Type
                         _______ _______ _______ _____ _____    ______ ____

>  <TORSDO>
F 3

$$$$
=
 OpenBabel11052422593D

 28 32  0  0  0  0  0  0  0  0999 V2000
  161.9610  209.7500  149.5750 N   0  0  0  0  0  0  0  0  0  0  0  0
  160.8210  211.1370  154.7070 S   0  0  0  0  0  0  0  0  0  0  0  0
  161.5550  205.3640  151.7790 C   0  0  0  0  0  1  0  0  0  0  0  0
  160.3210  208.8040  155.4770 C   0  0  0  0  0  0  0  0  0  0  0  0
  161.0960  208.8200  153.1110 C   0  0  0  0  0  0  0  0  0  0  0  0
  160.7580  209.4960  154.3640 C   0  0  0  0  0  0  0  0  0  0  0  0
  161.0000  206.6680  154.3640 C   0  0  0  0  0  2  0  0  0  0  0  0
  160.0250  209.6180  156.5750 C   0  0  0  0  0  3  0  0  0  0  0  0
  161.7420  207.6080  150.6600 C   0  0  0  0  0  0  0  0  0  0  0  0
  161.3500  209.5620  151.9510 O   0  0  0  0  0  0  0  0  0  0  0  0
  160.0780  207.3270  155.4090 C   0  0  0  0  0  2  0  0  0  0  0  0
  162.2990  207.6850  148.2750 C   0  0  0  0  0  3  0  0  0  0  0  0
  161.4820  206.8190  151.8400 N   0  0  0  0  0  0  0  0  0  0  0  0
  162.1410  206.9710  149.3900 C   0  0  0  0  0  3  0  0  0  0  0  0
  160.2630  210.9600  156.2910 C   0  0  0  0  0  0  0  0  0  0  0  0
  161.1460  207.4720  153.0790 C   0  0  0  0  0  0  0  0  0  0  0  0
  162.0110  209.1600  148.2350 C   0  0  0  0  0  2  0  0  0  0  0  0
  161.6760  208.9470  150.7350 C   0  0  0  0  0  0  0  0  0  0  0  0
  160.0980  212.0760  157.2610 C   0  0  0  0  0  2  0  0  0  0  0  0
  160.1800  213.2960  156.5890 O   0  0  0  0  0  1  0  0  0  0  0  0
  162.0450  211.1990  149.6900 C   0  0  0  0  0  2  0  0  0  0  0  0
  161.9420  211.8300  148.3420 C   0  0  0  0  0  0  0  0  0  0  0  0
  161.7370  213.0620  145.8380 C   0  0  0  0  0  0  0  0  0  0  0  0
  163.0860  212.3360  147.7140 C   0  0  0  0  0  3  0  0  0  0  0  0
  160.6940  211.9480  147.7190 C   0  0  0  0  0  3  0  0  0  0  0  0
  160.5920  212.5610  146.4670 C   0  0  0  0  0  3  0  0  0  0  0  0
  161.6270  213.7130  144.5070 C   0  0  0  0  0  1  0  0  0  0  0  0
  162.9840  212.9490  146.4620 C   0  0  0  0  0  3  0  0  0  0  0  0
  1 21  1  0  0  0  0
  1 18  1  0  0  0  0
  2 15  1  0  0  0  0
  3 13  1  0  0  0  0
  4  8  1  0  0  0  0
  5  6  1  0  0  0  0
  6  2  1  0  0  0  0
  6  4  2  0  0  0  0
  7 11  1  0  0  0  0
  9 18  2  0  0  0  0
  9 13  1  0  0  0  0
 10  5  1  0  0  0  0
 11  4  1  0  0  0  0
 12 14  2  0  0  0  0
 13 16  1  0  0  0  0
 14  9  1  0  0  0  0
 15  8  2  0  0  0  0
 15 19  1  0  0  0  0
 16  5  2  0  0  0  0
 16  7  1  0  0  0  0
 17 12  1  0  0  0  0
 17  1  1  0  0  0  0
 18 10  1  0  0  0  0
 20 19  1  0  0  0  0
 22 21  1  0  0  0  0
 23 28  2  0  0  0  0
 23 26  1  0  0  0  0
 24 22  2  0  0  0  0
 25 22  1  0  0  0  0
 26 25  2  0  0  0  0
 27 23  1  0  0  0  0
 28 24  1  0  0  0  0
M  END
>  <MODEL>
8

>  <REMARK>
 VINA RESULT:      -7.3      2.722      7.307
  Name = 
  3 active torsions:
  status: ('A' for Active; 'I' for Inactive)
    1  A    between atoms: N_1  and  C_2
    2  A    between atoms: C_2  and  C_3
    3  A    between atoms: C_12  and  C_24
                            x       y       z     vdW  Elec       q    Type
                         _______ _______ _______ _____ _____    ______ ____

>  <TORSDO>
F 3

$$$$
=
 OpenBabel11052422593D

 28 32  0  0  0  0  0  0  0  0999 V2000
  162.2080  210.0200  150.3570 N   0  0  0  0  0  0  0  0  0  0  0  0
  161.5290  206.1490  146.5990 S   0  0  0  0  0  0  0  0  0  0  0  0
  160.8310  206.1520  153.0770 C   0  0  0  0  0  1  0  0  0  0  0  0
  161.2080  204.2810  148.2400 C   0  0  0  0  0  0  0  0  0  0  0  0
  161.4290  206.4700  149.4070 C   0  0  0  0  0  0  0  0  0  0  0  0
  161.3850  205.6500  148.1950 C   0  0  0  0  0  0  0  0  0  0  0  0
  160.5940  204.4830  150.6570 C   0  0  0  0  0  2  0  0  0  0  0  0
  161.2140  203.6630  146.9860 C   0  0  0  0  0  3  0  0  0  0  0  0
  161.5500  208.1150  151.6800 C   0  0  0  0  0  0  0  0  0  0  0  0
  161.8000  207.8180  149.3380 O   0  0  0  0  0  0  0  0  0  0  0  0
  161.1530  203.5640  149.5540 C   0  0  0  0  0  2  0  0  0  0  0  0
  161.9880  210.2500  152.8000 C   0  0  0  0  0  3  0  0  0  0  0  0
  161.1680  206.7280  151.7800 N   0  0  0  0  0  0  0  0  0  0  0  0
  161.5540  208.9920  152.8680 C   0  0  0  0  0  3  0  0  0  0  0  0
  161.3830  204.5920  145.9620 C   0  0  0  0  0  0  0  0  0  0  0  0
  161.1240  205.9090  150.5950 C   0  0  0  0  0  0  0  0  0  0  0  0
  162.5620  210.8200  151.5320 C   0  0  0  0  0  2  0  0  0  0  0  0
  161.8530  208.6310  150.4780 C   0  0  0  0  0  0  0  0  0  0  0  0
  161.3820  204.2670  144.5110 C   0  0  0  0  0  2  0  0  0  0  0  0
  161.5670  205.4340  143.7700 O   0  0  0  0  0  1  0  0  0  0  0  0
  162.3830  210.6200  149.0410 C   0  0  0  0  0  2  0  0  0  0  0  0
  161.3090  211.6230  148.7840 C   0  0  0  0  0  0  0  0  0  0  0  0
  159.2590  213.4650  148.3060 C   0  0  0  0  0  0  0  0  0  0  0  0
  160.8050  212.3980  149.8340 C   0  0  0  0  0  3  0  0  0  0  0  0
  160.7820  211.7660  147.4950 C   0  0  0  0  0  3  0  0  0  0  0  0
  159.7590  212.6880  147.2560 C   0  0  0  0  0  3  0  0  0  0  0  0
  158.1720  214.4450  148.0510 C   0  0  0  0  0  1  0  0  0  0  0  0
  159.7810  213.3190  149.5950 C   0  0  0  0  0  3  0  0  0  0  0  0
  1 18  1  0  0  0  0
  1 17  1  0  0  0  0
  2  6  1  0  0  0  0
  4 11  1  0  0  0  0
  5 16  2  0  0  0  0
  6  4  2  0  0  0  0
  6  5  1  0  0  0  0
  8  4  1  0  0  0  0
  9 13  1  0  0  0  0
  9 14  1  0  0  0  0
 10  5  1  0  0  0  0
 10 18  1  0  0  0  0
 11  7  1  0  0  0  0
 12 14  2  0  0  0  0
 13  3  1  0  0  0  0
 15  2  1  0  0  0  0
 15  8  2  0  0  0  0
 16  7  1  0  0  0  0
 16 13  1  0  0  0  0
 17 12  1  0  0  0  0
 18  9  2  0  0  0  0
 19 15  1  0  0  0  0
 20 19  1  0  0  0  0
 21  1  1  0  0  0  0
 22 21  1  0  0  0  0
 22 24  1  0  0  0  0
 23 28  1  0  0  0  0
 25 22  2  0  0  0  0
 26 25  1  0  0  0  0
 26 23  2  0  0  0  0
 27 23  1  0  0  0  0
 28 24  2  0  0  0  0
M  END
>  <MODEL>
9

>  <REMARK>
 VINA RESULT:      -7.0      2.687      7.207
  Name = 
  3 active torsions:
  status: ('A' for Active; 'I' for Inactive)
    1  A    between atoms: N_1  and  C_2
    2  A    between atoms: C_2  and  C_3
    3  A    between atoms: C_12  and  C_24
                            x       y       z     vdW  Elec       q    Type
                         _______ _______ _______ _____ _____    ______ ____

>  <TORSDO>
F 3

$$$$
