=
 OpenBabel11062407573D

 34 38  0  0  1  0  0  0  0  0999 V2000
  160.9530  203.1200  150.6500 C   0  0  0  0  0  0  0  0  0  0  0  0
  161.2290  203.6130  148.2680 C   0  0  0  0  0  0  0  0  0  0  0  0
  161.6690  205.4330  150.1030 C   0  0  2  0  0  3  0  0  0  0  0  0
  161.8590  207.7330  149.5930 C   0  0  1  0  0  3  0  0  0  0  0  0
  160.6310  201.3380  148.8730 C   0  0  0  0  0  3  0  0  0  0  0  0
  160.9620  202.2130  147.9270 C   0  0  0  0  0  3  0  0  0  0  0  0
  161.2160  204.0400  149.6900 C   0  0  0  0  0  0  0  0  0  0  0  0
  160.4610  201.7320  150.3150 C   0  0  0  0  0  2  0  0  0  0  0  0
  161.0880  205.8260  151.4630 C   0  0  2  0  0  3  0  0  0  0  0  0
  161.0240  203.4790  152.0400 N   0  0  0  0  0  2  0  0  0  0  0  0
  161.5060  204.4220  147.3450 O   0  0  0  0  0  0  0  0  0  0  0  0
  161.2010  208.1320  150.7740 O   0  0  0  0  0  0  0  0  0  0  0  0
  161.5860  207.2380  151.7950 C   0  0  1  0  0  3  0  0  0  0  0  0
  161.3220  206.4530  149.1180 N   0  0  0  0  0  2  0  0  0  0  0  0
  161.5200  204.7800  152.4780 C   0  0  0  0  0  2  0  0  0  0  0  0
  160.2640  209.5240  154.5190 C   0  0  0  0  0  0  0  0  0  0  0  0
  160.0250  208.6180  155.5980 N   0  0  0  0  0  0  0  0  0  0  0  0
  161.0420  207.7170  153.1040 C   0  0  0  0  0  0  0  0  0  0  0  0
  160.2520  207.3440  155.4860 C   0  0  0  0  0  3  0  0  0  0  0  0
  160.7940  209.0190  153.2520 C   0  0  0  0  0  3  0  0  0  0  0  0
  160.7780  206.7240  154.2140 C   0  0  0  0  0  2  0  0  0  0  0  0
  160.0250  210.7510  154.6600 O   0  0  0  0  0  0  0  0  0  0  0  0
  161.7050  208.8050  148.5160 C   0  0  0  0  0  2  0  0  0  0  0  0
  162.3450  210.3180  150.2460 O   0  0  0  0  0  0  0  0  0  0  0  0
  161.9160  211.2960  148.1670 N   0  0  0  0  0  2  0  0  0  0  0  0
  162.0250  210.1690  149.0370 C   0  0  0  0  0  0  0  0  0  0  0  0
  162.0940  212.6610  148.6310 C   0  0  0  0  0  2  0  0  0  0  0  0
  160.6390  213.7910  146.4140 O   0  0  0  0  0  1  0  0  0  0  0  0
  160.7590  213.3050  148.7900 C   0  0  0  0  0  0  0  0  0  0  0  0
  160.0720  213.8280  147.6820 C   0  0  0  0  0  0  0  0  0  0  0  0
  158.2160  214.4300  149.1200 C   0  0  0  0  0  3  0  0  0  0  0  0
  158.8940  213.9020  150.2210 C   0  0  0  0  0  3  0  0  0  0  0  0
  160.1620  213.3380  150.0560 C   0  0  0  0  0  3  0  0  0  0  0  0
  158.8040  214.3920  147.8520 C   0  0  0  0  0  3  0  0  0  0  0  0
  1 10  1  0  0  0  0
  2  7  1  0  0  0  0
  3 14  1  6  0  0  0
  3  9  1  0  0  0  0
  4 23  1  6  0  0  0
  4 12  1  0  0  0  0
  5  8  1  0  0  0  0
  6  2  1  0  0  0  0
  6  5  2  0  0  0  0
  7  3  1  0  0  0  0
  7  1  2  0  0  0  0
  8  1  1  0  0  0  0
  9 13  1  0  0  0  0
  9 15  1  1  0  0  0
 10 15  1  0  0  0  0
 11  2  2  0  0  0  0
 12 13  1  0  0  0  0
 13 18  1  1  0  0  0
 14  4  1  0  0  0  0
 16 22  2  0  0  0  0
 16 17  1  0  0  0  0
 18 20  2  0  0  0  0
 18 21  1  0  0  0  0
 19 17  2  0  0  0  0
 20 16  1  0  0  0  0
 21 19  1  0  0  0  0
 23 26  1  0  0  0  0
 25 27  1  0  0  0  0
 25 26  1  0  0  0  0
 26 24  2  0  0  0  0
 27 29  1  0  0  0  0
 28 30  1  0  0  0  0
 29 33  1  0  0  0  0
 30 34  1  0  0  0  0
 30 29  2  0  0  0  0
 31 32  1  0  0  0  0
 33 32  2  0  0  0  0
 34 31  2  0  0  0  0
M  END
>  <MODEL>
1

>  <REMARK>
 VINA RESULT:     -10.2      0.000      0.000
  Name = 
  5 active torsions:
  status: ('A' for Active; 'I' for Inactive)
    1  A    between atoms: C_3  and  C_13
    2  A    between atoms: C_3  and  N_17
    3  A    between atoms: C_5  and  C_18
    4  A    between atoms: C_12  and  C_28
    5  A    between atoms: C_18  and  C_29
                            x       y       z     vdW  Elec       q    Type
                         _______ _______ _______ _____ _____    ______ ____

>  <TORSDO>
F 5

$$$$
=
 OpenBabel11062407573D

 34 38  0  0  1  0  0  0  0  0999 V2000
  160.9340  203.4020  150.8470 C   0  0  0  0  0  0  0  0  0  0  0  0
  161.2910  203.8130  148.4600 C   0  0  0  0  0  0  0  0  0  0  0  0
  161.7070  205.6840  150.2480 C   0  0  2  0  0  3  0  0  0  0  0  0
  161.9530  207.9620  149.6690 C   0  0  1  0  0  3  0  0  0  0  0  0
  160.6360  201.5690  149.1190 C   0  0  0  0  0  3  0  0  0  0  0  0
  161.0100  202.4070  148.1560 C   0  0  0  0  0  3  0  0  0  0  0  0
  161.2420  204.2870  149.8660 C   0  0  0  0  0  0  0  0  0  0  0  0
  160.4280  202.0120  150.5410 C   0  0  0  0  0  2  0  0  0  0  0  0
  161.0920  206.1310  151.5750 C   0  0  2  0  0  3  0  0  0  0  0  0
  160.9690  203.8060  152.2250 N   0  0  0  0  0  2  0  0  0  0  0  0
  161.6110  204.5860  147.5190 O   0  0  0  0  0  0  0  0  0  0  0  0
  161.2660  208.4110  150.8160 O   0  0  0  0  0  0  0  0  0  0  0  0
  161.6040  207.5450  151.8770 C   0  0  1  0  0  3  0  0  0  0  0  0
  161.4080  206.6770  149.2200 N   0  0  0  0  0  2  0  0  0  0  0  0
  161.4740  205.1120  152.6360 C   0  0  0  0  0  2  0  0  0  0  0  0
  160.2970  207.7150  155.4340 C   0  0  0  0  0  0  0  0  0  0  0  0
  159.9230  209.0890  155.5650 N   0  0  0  0  0  0  0  0  0  0  0  0
  161.0290  208.0750  153.1520 C   0  0  0  0  0  0  0  0  0  0  0  0
  160.0800  209.9360  154.5930 C   0  0  0  0  0  3  0  0  0  0  0  0
  160.8580  207.2330  154.1720 C   0  0  0  0  0  3  0  0  0  0  0  0
  160.6690  209.5410  153.2600 C   0  0  0  0  0  2  0  0  0  0  0  0
  160.1390  206.9240  156.3990 O   0  0  0  0  0  0  0  0  0  0  0  0
  161.8510  209.0010  148.5540 C   0  0  0  0  0  2  0  0  0  0  0  0
  162.3520  210.5820  150.2700 O   0  0  0  0  0  0  0  0  0  0  0  0
  161.7110  211.4990  148.2180 N   0  0  0  0  0  2  0  0  0  0  0  0
  162.0050  210.3940  149.0740 C   0  0  0  0  0  0  0  0  0  0  0  0
  161.7230  212.8740  148.6850 C   0  0  0  0  0  2  0  0  0  0  0  0
  159.6660  213.5750  146.7930 O   0  0  0  0  0  1  0  0  0  0  0  0
  160.3460  213.2650  149.1030 C   0  0  0  0  0  0  0  0  0  0  0  0
  159.3650  213.5820  148.1490 C   0  0  0  0  0  0  0  0  0  0  0  0
  157.7490  213.9100  149.9250 C   0  0  0  0  0  3  0  0  0  0  0  0
  158.7210  213.5860  150.8740 C   0  0  0  0  0  3  0  0  0  0  0  0
  160.0170  213.2610  150.4630 C   0  0  0  0  0  3  0  0  0  0  0  0
  158.0700  213.9070  148.5650 C   0  0  0  0  0  3  0  0  0  0  0  0
  1 10  1  0  0  0  0
  2  7  1  0  0  0  0
  3 14  1  6  0  0  0
  3  9  1  0  0  0  0
  4 23  1  6  0  0  0
  4 12  1  0  0  0  0
  5  8  1  0  0  0  0
  6  2  1  0  0  0  0
  6  5  2  0  0  0  0
  7  3  1  0  0  0  0
  7  1  2  0  0  0  0
  8  1  1  0  0  0  0
  9 13  1  0  0  0  0
  9 15  1  1  0  0  0
 10 15  1  0  0  0  0
 11  2  2  0  0  0  0
 12 13  1  0  0  0  0
 13 18  1  1  0  0  0
 14  4  1  0  0  0  0
 16 17  1  0  0  0  0
 16 22  2  0  0  0  0
 18 21  1  0  0  0  0
 18 20  2  0  0  0  0
 19 17  2  0  0  0  0
 20 16  1  0  0  0  0
 21 19  1  0  0  0  0
 23 26  1  0  0  0  0
 25 27  1  0  0  0  0
 25 26  1  0  0  0  0
 26 24  2  0  0  0  0
 27 29  1  0  0  0  0
 28 30  1  0  0  0  0
 29 33  1  0  0  0  0
 30 34  1  0  0  0  0
 30 29  2  0  0  0  0
 31 32  1  0  0  0  0
 33 32  2  0  0  0  0
 34 31  2  0  0  0  0
M  END
>  <MODEL>
2

>  <REMARK>
 VINA RESULT:     -10.1      0.867      1.212
  Name = 
  5 active torsions:
  status: ('A' for Active; 'I' for Inactive)
    1  A    between atoms: C_3  and  C_13
    2  A    between atoms: C_3  and  N_17
    3  A    between atoms: C_5  and  C_18
    4  A    between atoms: C_12  and  C_28
    5  A    between atoms: C_18  and  C_29
                            x       y       z     vdW  Elec       q    Type
                         _______ _______ _______ _____ _____    ______ ____

>  <TORSDO>
F 5

$$$$
=
 OpenBabel11062407573D

 34 38  0  0  1  0  0  0  0  0999 V2000
  160.9510  206.5270  152.4280 C   0  0  0  0  0  0  0  0  0  0  0  0
  161.4330  208.8070  153.1800 C   0  0  0  0  0  0  0  0  0  0  0  0
  161.1510  208.2350  150.6370 C   0  0  2  0  0  3  0  0  0  0  0  0
  161.8200  209.7140  148.9200 C   0  0  1  0  0  3  0  0  0  0  0  0
  161.1230  207.1110  154.8910 C   0  0  0  0  0  3  0  0  0  0  0  0
  161.3230  208.3890  154.5800 C   0  0  0  0  0  3  0  0  0  0  0  0
  161.2330  207.8120  152.0970 C   0  0  0  0  0  0  0  0  0  0  0  0
  161.0510  206.0280  153.8500 C   0  0  0  0  0  2  0  0  0  0  0  0
  161.4760  207.0690  149.7010 C   0  0  2  0  0  3  0  0  0  0  0  0
  160.6610  205.5610  151.4060 N   0  0  0  0  0  2  0  0  0  0  0  0
  161.6560  210.0180  152.9230 O   0  0  0  0  0  0  0  0  0  0  0  0
  162.2610  208.6700  148.0810 O   0  0  0  0  0  0  0  0  0  0  0  0
  161.3800  207.5840  148.2600 C   0  0  1  0  0  3  0  0  0  0  0  0
  162.0290  209.3600  150.3270 N   0  0  0  0  0  2  0  0  0  0  0  0
  160.5050  205.9390  150.0050 C   0  0  0  0  0  2  0  0  0  0  0  0
  161.1090  205.1840  145.3340 C   0  0  0  0  0  0  0  0  0  0  0  0
  162.3390  204.4590  145.4100 N   0  0  0  0  0  0  0  0  0  0  0  0
  161.7100  206.5100  147.2720 C   0  0  0  0  0  0  0  0  0  0  0  0
  163.2260  204.7090  146.3240 C   0  0  0  0  0  3  0  0  0  0  0  0
  160.8220  206.2300  146.3170 C   0  0  0  0  0  3  0  0  0  0  0  0
  163.0320  205.7810  147.3690 C   0  0  0  0  0  2  0  0  0  0  0  0
  160.2750  204.9210  144.4300 O   0  0  0  0  0  0  0  0  0  0  0  0
  162.5590  211.0080  148.5830 C   0  0  0  0  0  2  0  0  0  0  0  0
  160.4620  211.9560  147.9520 O   0  0  0  0  0  0  0  0  0  0  0  0
  162.3210  212.7810  146.8030 N   0  0  0  0  0  2  0  0  0  0  0  0
  161.7100  211.9430  147.7840 C   0  0  0  0  0  0  0  0  0  0  0  0
  161.5510  213.6260  145.9070 C   0  0  0  0  0  2  0  0  0  0  0  0
  159.1600  212.3220  144.9640 O   0  0  0  0  0  1  0  0  0  0  0  0
  161.4650  212.9770  144.5680 C   0  0  0  0  0  0  0  0  0  0  0  0
  160.2760  212.3660  144.1370 C   0  0  0  0  0  0  0  0  0  0  0  0
  161.3190  211.8430  142.0120 C   0  0  0  0  0  3  0  0  0  0  0  0
  162.4990  212.4570  142.4370 C   0  0  0  0  0  3  0  0  0  0  0  0
  162.5710  213.0260  143.7120 C   0  0  0  0  0  3  0  0  0  0  0  0
  160.2080  211.7980  142.8600 C   0  0  0  0  0  3  0  0  0  0  0  0
  1  8  1  0  0  0  0
  2  6  1  0  0  0  0
  3 14  1  1  0  0  0
  3  7  1  0  0  0  0
  4 23  1  6  0  0  0
  4 14  1  0  0  0  0
  6  5  2  0  0  0  0
  7  1  2  0  0  0  0
  7  2  1  0  0  0  0
  8  5  1  0  0  0  0
  9 15  1  6  0  0  0
  9  3  1  0  0  0  0
 10  1  1  0  0  0  0
 11  2  2  0  0  0  0
 12 13  1  0  0  0  0
 12  4  1  0  0  0  0
 13 18  1  6  0  0  0
 13  9  1  0  0  0  0
 15 10  1  0  0  0  0
 16 17  1  0  0  0  0
 16 20  1  0  0  0  0
 17 19  2  0  0  0  0
 18 21  1  0  0  0  0
 19 21  1  0  0  0  0
 20 18  2  0  0  0  0
 22 16  2  0  0  0  0
 25 26  1  0  0  0  0
 26 24  2  0  0  0  0
 26 23  1  0  0  0  0
 27 25  1  0  0  0  0
 29 27  1  0  0  0  0
 30 29  1  0  0  0  0
 30 28  1  0  0  0  0
 31 32  2  0  0  0  0
 31 34  1  0  0  0  0
 32 33  1  0  0  0  0
 33 29  2  0  0  0  0
 34 30  2  0  0  0  0
M  END
>  <MODEL>
3

>  <REMARK>
 VINA RESULT:      -9.9      2.916      6.195
  Name = 
  5 active torsions:
  status: ('A' for Active; 'I' for Inactive)
    1  A    between atoms: C_3  and  C_13
    2  A    between atoms: C_3  and  N_17
    3  A    between atoms: C_5  and  C_18
    4  A    between atoms: C_12  and  C_28
    5  A    between atoms: C_18  and  C_29
                            x       y       z     vdW  Elec       q    Type
                         _______ _______ _______ _____ _____    ______ ____

>  <TORSDO>
F 5

$$$$
=
 OpenBabel11062407573D

 34 38  0  0  1  0  0  0  0  0999 V2000
  161.6380  208.7520  153.0500 C   0  0  0  0  0  0  0  0  0  0  0  0
  161.1310  206.4880  152.2710 C   0  0  0  0  0  0  0  0  0  0  0  0
  161.9950  208.3390  150.6280 C   0  0  2  0  0  3  0  0  0  0  0  0
  161.8660  208.1150  148.2790 C   0  0  1  0  0  3  0  0  0  0  0  0
  160.9020  206.9260  154.6490 C   0  0  0  0  0  3  0  0  0  0  0  0
  160.8650  206.0530  153.6450 C   0  0  0  0  0  3  0  0  0  0  0  0
  161.5290  207.8930  152.0070 C   0  0  0  0  0  0  0  0  0  0  0  0
  161.1600  208.3920  154.4360 C   0  0  0  0  0  2  0  0  0  0  0  0
  161.8380  209.8510  150.4500 C   0  0  2  0  0  3  0  0  0  0  0  0
  162.1110  210.0930  152.8400 N   0  0  0  0  0  2  0  0  0  0  0  0
  161.0550  205.6430  151.3400 O   0  0  0  0  0  0  0  0  0  0  0  0
  161.5800  209.4830  148.0830 O   0  0  0  0  0  0  0  0  0  0  0  0
  162.3200  210.2090  149.0390 C   0  0  1  0  0  3  0  0  0  0  0  0
  161.2940  207.6520  149.5470 N   0  0  0  0  0  2  0  0  0  0  0  0
  162.6310  210.5370  151.5510 C   0  0  0  0  0  2  0  0  0  0  0  0
  160.9890  213.7620  149.0860 C   0  0  0  0  0  0  0  0  0  0  0  0
  161.9060  214.4510  148.2340 N   0  0  0  0  0  0  0  0  0  0  0  0
  162.1770  211.6740  148.7680 C   0  0  0  0  0  0  0  0  0  0  0  0
  162.9080  213.8430  147.6720 C   0  0  0  0  0  3  0  0  0  0  0  0
  161.1610  212.3290  149.3310 C   0  0  0  0  0  3  0  0  0  0  0  0
  163.1830  212.3730  147.8800 C   0  0  0  0  0  2  0  0  0  0  0  0
  160.0350  214.3840  149.6200 O   0  0  0  0  0  0  0  0  0  0  0  0
  161.3160  207.2910  147.1170 C   0  0  0  0  0  2  0  0  0  0  0  0
  163.0850  205.7100  147.3710 O   0  0  0  0  0  0  0  0  0  0  0  0
  161.0180  204.8120  146.7520 N   0  0  0  0  0  2  0  0  0  0  0  0
  161.8680  205.9020  147.1070 C   0  0  0  0  0  0  0  0  0  0  0  0
  161.5100  203.4530  146.6050 C   0  0  0  0  0  2  0  0  0  0  0  0
  161.2150  200.5860  146.6170 O   0  0  0  0  0  1  0  0  0  0  0  0
  161.2030  202.6810  147.8440 C   0  0  0  0  0  0  0  0  0  0  0  0
  161.0850  201.2820  147.8120 C   0  0  0  0  0  0  0  0  0  0  0  0
  160.7100  201.2630  150.2070 C   0  0  0  0  0  3  0  0  0  0  0  0
  160.8360  202.6540  150.2410 C   0  0  0  0  0  3  0  0  0  0  0  0
  161.0850  203.3610  149.0620 C   0  0  0  0  0  3  0  0  0  0  0  0
  160.8350  200.5780  148.9950 C   0  0  0  0  0  3  0  0  0  0  0  0
  1  8  1  0  0  0  0
  2  6  1  0  0  0  0
  3 14  1  6  0  0  0
  3  7  1  0  0  0  0
  4 23  1  6  0  0  0
  4 14  1  0  0  0  0
  6  5  2  0  0  0  0
  7  2  1  0  0  0  0
  7  1  2  0  0  0  0
  8  5  1  0  0  0  0
  9  3  1  0  0  0  0
  9 15  1  1  0  0  0
 10  1  1  0  0  0  0
 11  2  2  0  0  0  0
 12  4  1  0  0  0  0
 12 13  1  0  0  0  0
 13 18  1  6  0  0  0
 13  9  1  0  0  0  0
 15 10  1  0  0  0  0
 16 20  1  0  0  0  0
 16 22  2  0  0  0  0
 17 16  1  0  0  0  0
 18 20  2  0  0  0  0
 19 21  1  0  0  0  0
 19 17  2  0  0  0  0
 21 18  1  0  0  0  0
 25 26  1  0  0  0  0
 26 23  1  0  0  0  0
 26 24  2  0  0  0  0
 27 25  1  0  0  0  0
 27 29  1  0  0  0  0
 28 30  1  0  0  0  0
 29 33  1  0  0  0  0
 30 29  2  0  0  0  0
 30 34  1  0  0  0  0
 31 32  1  0  0  0  0
 33 32  2  0  0  0  0
 34 31  2  0  0  0  0
M  END
>  <MODEL>
4

>  <REMARK>
 VINA RESULT:      -9.7      2.192      7.834
  Name = 
  5 active torsions:
  status: ('A' for Active; 'I' for Inactive)
    1  A    between atoms: C_3  and  C_13
    2  A    between atoms: C_3  and  N_17
    3  A    between atoms: C_5  and  C_18
    4  A    between atoms: C_12  and  C_28
    5  A    between atoms: C_18  and  C_29
                            x       y       z     vdW  Elec       q    Type
                         _______ _______ _______ _____ _____    ______ ____

>  <TORSDO>
F 5

$$$$
=
 OpenBabel11062407573D

 34 38  0  0  1  0  0  0  0  0999 V2000
  161.0950  205.0400  151.2670 C   0  0  0  0  0  0  0  0  0  0  0  0
  161.3740  205.0950  148.8360 C   0  0  0  0  0  0  0  0  0  0  0  0
  161.8480  207.2060  150.3160 C   0  0  2  0  0  3  0  0  0  0  0  0
  162.0740  209.3740  149.4020 C   0  0  1  0  0  3  0  0  0  0  0  0
  160.7410  202.9750  149.8370 C   0  0  0  0  0  3  0  0  0  0  0  0
  161.0830  203.6610  148.7500 C   0  0  0  0  0  3  0  0  0  0  0  0
  161.3700  205.7700  150.1580 C   0  0  0  0  0  0  0  0  0  0  0  0
  160.5800  203.6230  151.1850 C   0  0  0  0  0  2  0  0  0  0  0  0
  161.2760  207.8460  151.5820 C   0  0  2  0  0  3  0  0  0  0  0  0
  161.1750  205.6410  152.5700 N   0  0  0  0  0  2  0  0  0  0  0  0
  161.6620  205.7210  147.7820 O   0  0  0  0  0  0  0  0  0  0  0  0
  161.4250  209.9890  150.4930 O   0  0  0  0  0  0  0  0  0  0  0  0
  161.7970  209.2860  151.6570 C   0  0  1  0  0  3  0  0  0  0  0  0
  161.5150  208.0400  149.1640 N   0  0  0  0  0  2  0  0  0  0  0  0
  161.6930  206.9910  152.7690 C   0  0  0  0  0  2  0  0  0  0  0  0
  161.5900  210.8780  155.0950 C   0  0  0  0  0  0  0  0  0  0  0  0
  160.2390  211.3430  155.1420 N   0  0  0  0  0  0  0  0  0  0  0  0
  161.2640  210.0000  152.8590 C   0  0  0  0  0  0  0  0  0  0  0  0
  159.4230  211.1820  154.1440 C   0  0  0  0  0  3  0  0  0  0  0  0
  162.0760  210.1860  153.9010 C   0  0  0  0  0  3  0  0  0  0  0  0
  159.8360  210.5000  152.8630 C   0  0  0  0  0  2  0  0  0  0  0  0
  162.3550  211.0590  156.0760 O   0  0  0  0  0  0  0  0  0  0  0  0
  161.9350  210.2390  148.1510 C   0  0  0  0  0  2  0  0  0  0  0  0
  163.1060  212.2570  148.6490 O   0  0  0  0  0  0  0  0  0  0  0  0
  160.7760  212.4310  148.6210 N   0  0  0  0  0  2  0  0  0  0  0  0
  161.9920  211.6980  148.4720 C   0  0  0  0  0  0  0  0  0  0  0  0
  160.7480  213.8190  149.0480 C   0  0  0  0  0  2  0  0  0  0  0  0
  158.1220  214.3630  147.9940 O   0  0  0  0  0  1  0  0  0  0  0  0
  159.5610  214.0420  149.9230 C   0  0  0  0  0  0  0  0  0  0  0  0
  158.2930  214.2870  149.3700 C   0  0  0  0  0  0  0  0  0  0  0  0
  157.3420  214.3710  151.5980 C   0  0  0  0  0  3  0  0  0  0  0  0
  158.6010  214.1190  152.1480 C   0  0  0  0  0  3  0  0  0  0  0  0
  159.7080  213.9520  151.3120 C   0  0  0  0  0  3  0  0  0  0  0  0
  157.1880  214.4530  150.2110 C   0  0  0  0  0  3  0  0  0  0  0  0
  1 10  1  0  0  0  0
  2  7  1  0  0  0  0
  3 14  1  6  0  0  0
  3  9  1  0  0  0  0
  4 23  1  6  0  0  0
  4 12  1  0  0  0  0
  5  8  1  0  0  0  0
  6  2  1  0  0  0  0
  6  5  2  0  0  0  0
  7  3  1  0  0  0  0
  7  1  2  0  0  0  0
  8  1  1  0  0  0  0
  9 13  1  0  0  0  0
  9 15  1  1  0  0  0
 10 15  1  0  0  0  0
 11  2  2  0  0  0  0
 12 13  1  0  0  0  0
 13 18  1  1  0  0  0
 14  4  1  0  0  0  0
 16 17  1  0  0  0  0
 16 22  2  0  0  0  0
 18 21  1  0  0  0  0
 18 20  2  0  0  0  0
 19 17  2  0  0  0  0
 20 16  1  0  0  0  0
 21 19  1  0  0  0  0
 23 26  1  0  0  0  0
 25 27  1  0  0  0  0
 26 25  1  0  0  0  0
 26 24  2  0  0  0  0
 27 29  1  0  0  0  0
 28 30  1  0  0  0  0
 29 33  1  0  0  0  0
 30 29  2  0  0  0  0
 30 34  1  0  0  0  0
 31 32  1  0  0  0  0
 33 32  2  0  0  0  0
 34 31  2  0  0  0  0
M  END
>  <MODEL>
5

>  <REMARK>
 VINA RESULT:      -9.5      1.593      2.254
  Name = 
  5 active torsions:
  status: ('A' for Active; 'I' for Inactive)
    1  A    between atoms: C_3  and  C_13
    2  A    between atoms: C_3  and  N_17
    3  A    between atoms: C_5  and  C_18
    4  A    between atoms: C_12  and  C_28
    5  A    between atoms: C_18  and  C_29
                            x       y       z     vdW  Elec       q    Type
                         _______ _______ _______ _____ _____    ______ ____

>  <TORSDO>
F 5

$$$$
=
 OpenBabel11062407573D

 34 38  0  0  1  0  0  0  0  0999 V2000
  160.9750  206.4010  152.4430 C   0  0  0  0  0  0  0  0  0  0  0  0
  161.3680  208.6880  153.2220 C   0  0  0  0  0  0  0  0  0  0  0  0
  161.1190  208.1340  150.6720 C   0  0  2  0  0  3  0  0  0  0  0  0
  161.7410  209.6560  148.9740 C   0  0  1  0  0  3  0  0  0  0  0  0
  161.1130  206.9630  154.9130 C   0  0  0  0  0  3  0  0  0  0  0  0
  161.2670  208.2510  154.6170 C   0  0  0  0  0  3  0  0  0  0  0  0
  161.2100  207.6980  152.1260 C   0  0  0  0  0  0  0  0  0  0  0  0
  161.0860  205.8890  153.8590 C   0  0  0  0  0  2  0  0  0  0  0  0
  161.4920  206.9920  149.7250 C   0  0  2  0  0  3  0  0  0  0  0  0
  160.7240  205.4360  151.4080 N   0  0  0  0  0  2  0  0  0  0  0  0
  161.5480  209.9100  152.9790 O   0  0  0  0  0  0  0  0  0  0  0  0
  162.2250  208.6380  148.1260 O   0  0  0  0  0  0  0  0  0  0  0  0
  161.3830  207.5190  148.2890 C   0  0  1  0  0  3  0  0  0  0  0  0
  161.9560  209.2940  150.3780 N   0  0  0  0  0  2  0  0  0  0  0  0
  160.5620  205.8240  150.0110 C   0  0  0  0  0  2  0  0  0  0  0  0
  161.2380  205.1820  145.3030 C   0  0  0  0  0  0  0  0  0  0  0  0
  162.4690  204.4630  145.4090 N   0  0  0  0  0  0  0  0  0  0  0  0
  161.7570  206.4690  147.2900 C   0  0  0  0  0  0  0  0  0  0  0  0
  163.3210  204.6990  146.3610 C   0  0  0  0  0  3  0  0  0  0  0  0
  160.9070  206.2040  146.2970 C   0  0  0  0  0  3  0  0  0  0  0  0
  163.0810  205.7470  147.4210 C   0  0  0  0  0  2  0  0  0  0  0  0
  160.4400  204.9330  144.3640 O   0  0  0  0  0  0  0  0  0  0  0  0
  162.4340  210.9800  148.6550 C   0  0  0  0  0  2  0  0  0  0  0  0
  160.8320  211.8160  147.0960 O   0  0  0  0  0  0  0  0  0  0  0  0
  161.3130  213.2290  148.8930 N   0  0  0  0  0  2  0  0  0  0  0  0
  161.4680  212.0110  148.1650 C   0  0  0  0  0  0  0  0  0  0  0  0
  160.4860  214.3240  148.4170 C   0  0  0  0  0  2  0  0  0  0  0  0
  158.2930  213.9970  146.5760 O   0  0  0  0  0  1  0  0  0  0  0  0
  159.0810  214.1130  148.8700 C   0  0  0  0  0  0  0  0  0  0  0  0
  158.0420  213.9400  147.9410 C   0  0  0  0  0  0  0  0  0  0  0  0
  156.4700  213.6350  149.7610 C   0  0  0  0  0  3  0  0  0  0  0  0
  157.5050  213.7990  150.6860 C   0  0  0  0  0  3  0  0  0  0  0  0
  158.8090  214.0350  150.2400 C   0  0  0  0  0  3  0  0  0  0  0  0
  156.7390  213.7040  148.3910 C   0  0  0  0  0  3  0  0  0  0  0  0
  1  8  1  0  0  0  0
  2  6  1  0  0  0  0
  3 14  1  1  0  0  0
  3  7  1  0  0  0  0
  4 23  1  6  0  0  0
  4 14  1  0  0  0  0
  6  5  2  0  0  0  0
  7  1  2  0  0  0  0
  7  2  1  0  0  0  0
  8  5  1  0  0  0  0
  9 15  1  6  0  0  0
  9  3  1  0  0  0  0
 10  1  1  0  0  0  0
 11  2  2  0  0  0  0
 12 13  1  0  0  0  0
 12  4  1  0  0  0  0
 13 18  1  6  0  0  0
 13  9  1  0  0  0  0
 15 10  1  0  0  0  0
 16 17  1  0  0  0  0
 16 20  1  0  0  0  0
 17 19  2  0  0  0  0
 18 21  1  0  0  0  0
 19 21  1  0  0  0  0
 20 18  2  0  0  0  0
 22 16  2  0  0  0  0
 24 26  2  0  0  0  0
 26 23  1  0  0  0  0
 26 25  1  0  0  0  0
 27 29  1  0  0  0  0
 27 25  1  0  0  0  0
 28 30  1  0  0  0  0
 29 33  1  0  0  0  0
 30 34  1  0  0  0  0
 30 29  2  0  0  0  0
 31 32  1  0  0  0  0
 33 32  2  0  0  0  0
 34 31  2  0  0  0  0
M  END
>  <MODEL>
6

>  <REMARK>
 VINA RESULT:      -9.4      2.259      5.590
  Name = 
  5 active torsions:
  status: ('A' for Active; 'I' for Inactive)
    1  A    between atoms: C_3  and  C_13
    2  A    between atoms: C_3  and  N_17
    3  A    between atoms: C_5  and  C_18
    4  A    between atoms: C_12  and  C_28
    5  A    between atoms: C_18  and  C_29
                            x       y       z     vdW  Elec       q    Type
                         _______ _______ _______ _____ _____    ______ ____

>  <TORSDO>
F 5

$$$$
=
 OpenBabel11062407573D

 34 38  0  0  1  0  0  0  0  0999 V2000
  160.8360  202.9620  150.6440 C   0  0  0  0  0  0  0  0  0  0  0  0
  161.2860  203.3380  148.2670 C   0  0  0  0  0  0  0  0  0  0  0  0
  161.7280  205.2020  150.0550 C   0  0  2  0  0  3  0  0  0  0  0  0
  162.0940  207.4630  149.4710 C   0  0  1  0  0  3  0  0  0  0  0  0
  160.5100  201.1300  148.9190 C   0  0  0  0  0  3  0  0  0  0  0  0
  160.9520  201.9430  147.9630 C   0  0  0  0  0  3  0  0  0  0  0  0
  161.2140  203.8240  149.6680 C   0  0  0  0  0  0  0  0  0  0  0  0
  160.2790  201.5940  150.3310 C   0  0  0  0  0  2  0  0  0  0  0  0
  161.0920  205.6870  151.3600 C   0  0  2  0  0  3  0  0  0  0  0  0
  160.8450  203.3740  152.0200 N   0  0  0  0  0  2  0  0  0  0  0  0
  161.6690  204.0890  147.3320 O   0  0  0  0  0  0  0  0  0  0  0  0
  161.3920  207.9510  150.5920 O   0  0  0  0  0  0  0  0  0  0  0  0
  161.6570  207.0790  151.6680 C   0  0  1  0  0  3  0  0  0  0  0  0
  161.5060  206.2000  149.0120 N   0  0  0  0  0  2  0  0  0  0  0  0
  161.3950  204.6600  152.4390 C   0  0  0  0  0  2  0  0  0  0  0  0
  160.5810  207.4470  155.2880 C   0  0  0  0  0  0  0  0  0  0  0  0
  159.9290  208.7190  155.2920 N   0  0  0  0  0  0  0  0  0  0  0  0
  161.0670  207.6440  152.9210 C   0  0  0  0  0  0  0  0  0  0  0  0
  159.8350  209.4440  154.2190 C   0  0  0  0  0  3  0  0  0  0  0  0
  161.1490  206.9270  154.0430 C   0  0  0  0  0  3  0  0  0  0  0  0
  160.4060  209.0050  152.8920 C   0  0  0  0  0  2  0  0  0  0  0  0
  160.6620  206.7750  156.3480 O   0  0  0  0  0  0  0  0  0  0  0  0
  162.0730  208.4970  148.3460 C   0  0  0  0  0  2  0  0  0  0  0  0
  161.9530  210.0920  150.1170 O   0  0  0  0  0  0  0  0  0  0  0  0
  161.8820  210.9830  147.9580 N   0  0  0  0  0  2  0  0  0  0  0  0
  161.9830  209.8930  148.8740 C   0  0  0  0  0  0  0  0  0  0  0  0
  161.6720  212.3530  148.3930 C   0  0  0  0  0  2  0  0  0  0  0  0
  162.7270  214.0040  146.2800 O   0  0  0  0  0  1  0  0  0  0  0  0
  160.7980  213.0540  147.4090 C   0  0  0  0  0  0  0  0  0  0  0  0
  161.3510  213.8360  146.3820 C   0  0  0  0  0  0  0  0  0  0  0  0
  159.1260  214.2850  145.5310 C   0  0  0  0  0  3  0  0  0  0  0  0
  158.5760  213.5010  146.5470 C   0  0  0  0  0  3  0  0  0  0  0  0
  159.4110  212.8840  147.4830 C   0  0  0  0  0  3  0  0  0  0  0  0
  160.5120  214.4520  145.4470 C   0  0  0  0  0  3  0  0  0  0  0  0
  1 10  1  0  0  0  0
  2  7  1  0  0  0  0
  3 14  1  6  0  0  0
  3  9  1  0  0  0  0
  4 23  1  6  0  0  0
  4 12  1  0  0  0  0
  5  8  1  0  0  0  0
  6  2  1  0  0  0  0
  6  5  2  0  0  0  0
  7  3  1  0  0  0  0
  7  1  2  0  0  0  0
  8  1  1  0  0  0  0
  9 13  1  0  0  0  0
  9 15  1  1  0  0  0
 10 15  1  0  0  0  0
 11  2  2  0  0  0  0
 12 13  1  0  0  0  0
 13 18  1  1  0  0  0
 14  4  1  0  0  0  0
 16 17  1  0  0  0  0
 16 22  2  0  0  0  0
 18 20  2  0  0  0  0
 19 17  2  0  0  0  0
 20 16  1  0  0  0  0
 21 18  1  0  0  0  0
 21 19  1  0  0  0  0
 23 26  1  0  0  0  0
 25 27  1  0  0  0  0
 25 26  1  0  0  0  0
 26 24  2  0  0  0  0
 28 30  1  0  0  0  0
 29 33  1  0  0  0  0
 29 27  1  0  0  0  0
 30 29  2  0  0  0  0
 31 32  1  0  0  0  0
 32 33  2  0  0  0  0
 34 31  2  0  0  0  0
 34 30  1  0  0  0  0
M  END
>  <MODEL>
7

>  <REMARK>
 VINA RESULT:      -9.0      1.256      1.698
  Name = 
  5 active torsions:
  status: ('A' for Active; 'I' for Inactive)
    1  A    between atoms: C_3  and  C_13
    2  A    between atoms: C_3  and  N_17
    3  A    between atoms: C_5  and  C_18
    4  A    between atoms: C_12  and  C_28
    5  A    between atoms: C_18  and  C_29
                            x       y       z     vdW  Elec       q    Type
                         _______ _______ _______ _____ _____    ______ ____

>  <TORSDO>
F 5

$$$$
=
 OpenBabel11062407573D

 34 38  0  0  1  0  0  0  0  0999 V2000
  158.4080  213.1690  152.5980 C   0  0  0  0  0  0  0  0  0  0  0  0
  158.8480  211.2490  154.0520 C   0  0  0  0  0  0  0  0  0  0  0  0
  160.4240  211.8330  152.0400 C   0  0  2  0  0  3  0  0  0  0  0  0
  162.0320  210.3160  151.2030 C   0  0  1  0  0  3  0  0  0  0  0  0
  156.9480  212.6560  154.6090 C   0  0  0  0  0  3  0  0  0  0  0  0
  157.7290  211.6250  154.9200 C   0  0  0  0  0  3  0  0  0  0  0  0
  159.1660  212.0760  152.8600 C   0  0  0  0  0  0  0  0  0  0  0  0
  157.1250  213.4520  153.3440 C   0  0  0  0  0  2  0  0  0  0  0  0
  160.2850  212.3990  150.6260 C   0  0  2  0  0  3  0  0  0  0  0  0
  158.7450  214.0420  151.5080 N   0  0  0  0  0  2  0  0  0  0  0  0
  159.5460  210.2480  154.3580 O   0  0  0  0  0  0  0  0  0  0  0  0
  161.8300  210.7150  149.8650 O   0  0  0  0  0  0  0  0  0  0  0  0
  161.5860  212.1040  149.8720 C   0  0  1  0  0  3  0  0  0  0  0  0
  160.7800  210.4190  151.9590 N   0  0  0  0  0  2  0  0  0  0  0  0
  159.9780  213.8840  150.7440 C   0  0  0  0  0  2  0  0  0  0  0  0
  160.5380  212.5370  146.2510 C   0  0  0  0  0  0  0  0  0  0  0  0
  161.4360  213.5480  145.7850 N   0  0  0  0  0  0  0  0  0  0  0  0
  161.5280  212.6040  148.4620 C   0  0  0  0  0  0  0  0  0  0  0  0
  162.3260  214.0850  146.5630 C   0  0  0  0  0  3  0  0  0  0  0  0
  160.6230  212.0760  147.6370 C   0  0  0  0  0  3  0  0  0  0  0  0
  162.4780  213.6920  148.0120 C   0  0  0  0  0  2  0  0  0  0  0  0
  159.6830  212.0440  145.4720 O   0  0  0  0  0  0  0  0  0  0  0  0
  162.5650  208.8860  151.2510 C   0  0  0  0  0  2  0  0  0  0  0  0
  160.8110  207.3610  151.7920 O   0  0  0  0  0  0  0  0  0  0  0  0
  161.3520  207.5020  149.5230 N   0  0  0  0  0  2  0  0  0  0  0  0
  161.5140  207.8860  150.8890 C   0  0  0  0  0  0  0  0  0  0  0  0
  160.4370  206.4530  149.1100 C   0  0  0  0  0  2  0  0  0  0  0  0
  160.8700  203.6050  149.2120 O   0  0  0  0  0  1  0  0  0  0  0  0
  161.0400  205.6900  147.9800 C   0  0  0  0  0  0  0  0  0  0  0  0
  161.2190  204.2990  148.0600 C   0  0  0  0  0  0  0  0  0  0  0  0
  162.0980  204.2840  145.8010 C   0  0  0  0  0  3  0  0  0  0  0  0
  161.9130  205.6660  145.7170 C   0  0  0  0  0  3  0  0  0  0  0  0
  161.3820  206.3670  146.8030 C   0  0  0  0  0  3  0  0  0  0  0  0
  161.7500  203.6010  146.9710 C   0  0  0  0  0  3  0  0  0  0  0  0
  1  7  2  0  0  0  0
  1  8  1  0  0  0  0
  2 11  2  0  0  0  0
  2  6  1  0  0  0  0
  3 14  1  6  0  0  0
  3  7  1  0  0  0  0
  4 23  1  6  0  0  0
  4 14  1  0  0  0  0
  5  6  2  0  0  0  0
  7  2  1  0  0  0  0
  8  5  1  0  0  0  0
  9 15  1  1  0  0  0
  9  3  1  0  0  0  0
 10  1  1  0  0  0  0
 12 13  1  0  0  0  0
 12  4  1  0  0  0  0
 13 18  1  6  0  0  0
 13  9  1  0  0  0  0
 15 10  1  0  0  0  0
 16 20  1  0  0  0  0
 17 16  1  0  0  0  0
 17 19  2  0  0  0  0
 19 21  1  0  0  0  0
 20 18  2  0  0  0  0
 21 18  1  0  0  0  0
 22 16  2  0  0  0  0
 25 26  1  0  0  0  0
 26 23  1  0  0  0  0
 26 24  2  0  0  0  0
 27 25  1  0  0  0  0
 29 30  1  0  0  0  0
 29 27  1  0  0  0  0
 30 28  1  0  0  0  0
 31 34  1  0  0  0  0
 32 31  2  0  0  0  0
 32 33  1  0  0  0  0
 33 29  2  0  0  0  0
 34 30  2  0  0  0  0
M  END
>  <MODEL>
8

>  <REMARK>
 VINA RESULT:      -8.8      2.485      8.704
  Name = 
  5 active torsions:
  status: ('A' for Active; 'I' for Inactive)
    1  A    between atoms: C_3  and  C_13
    2  A    between atoms: C_3  and  N_17
    3  A    between atoms: C_5  and  C_18
    4  A    between atoms: C_12  and  C_28
    5  A    between atoms: C_18  and  C_29
                            x       y       z     vdW  Elec       q    Type
                         _______ _______ _______ _____ _____    ______ ____

>  <TORSDO>
F 5

$$$$
=
 OpenBabel11062407573D

 34 38  0  0  1  0  0  0  0  0999 V2000
  160.9650  203.8580  148.7620 C   0  0  0  0  0  0  0  0  0  0  0  0
  161.1280  202.4510  150.7590 C   0  0  0  0  0  0  0  0  0  0  0  0
  160.7710  205.0420  150.9350 C   0  0  2  0  0  3  0  0  0  0  0  0
  161.0810  206.2330  152.9520 C   0  0  1  0  0  3  0  0  0  0  0  0
  161.2060  201.3380  148.6010 C   0  0  0  0  0  3  0  0  0  0  0  0
  161.1800  201.2450  149.9290 C   0  0  0  0  0  3  0  0  0  0  0  0
  161.0160  203.7840  150.1150 C   0  0  0  0  0  0  0  0  0  0  0  0
  161.2370  202.6590  147.8840 C   0  0  0  0  0  2  0  0  0  0  0  0
  161.2130  206.2950  150.1770 C   0  0  2  0  0  3  0  0  0  0  0  0
  160.7630  205.1230  148.1110 N   0  0  0  0  0  2  0  0  0  0  0  0
  161.1390  202.3280  152.0110 O   0  0  0  0  0  0  0  0  0  0  0  0
  161.6250  207.3590  152.2990 O   0  0  0  0  0  0  0  0  0  0  0  0
  160.9410  207.5080  151.0750 C   0  0  1  0  0  3  0  0  0  0  0  0
  161.4370  205.0060  152.2340 N   0  0  0  0  0  2  0  0  0  0  0  0
  160.4560  206.3380  148.8590 C   0  0  0  0  0  2  0  0  0  0  0  0
  161.4780  211.2040  150.4070 C   0  0  0  0  0  0  0  0  0  0  0  0
  162.1750  211.1980  149.1590 N   0  0  0  0  0  0  0  0  0  0  0  0
  161.3690  208.7820  150.4190 C   0  0  0  0  0  0  0  0  0  0  0  0
  162.4790  210.0910  148.5500 C   0  0  0  0  0  3  0  0  0  0  0  0
  161.0760  209.9370  151.0200 C   0  0  0  0  0  3  0  0  0  0  0  0
  162.1280  208.7350  149.1110 C   0  0  0  0  0  2  0  0  0  0  0  0
  161.2060  212.2930  150.9730 O   0  0  0  0  0  0  0  0  0  0  0  0
  161.5820  206.1690  154.3940 C   0  0  0  0  0  2  0  0  0  0  0  0
  159.5690  206.9530  155.4080 O   0  0  0  0  0  0  0  0  0  0  0  0
  161.5030  208.1370  155.9720 N   0  0  0  0  0  2  0  0  0  0  0  0
  160.8160  207.0870  155.2920 C   0  0  0  0  0  0  0  0  0  0  0  0
  160.8110  209.1390  156.7650 C   0  0  0  0  0  2  0  0  0  0  0  0
  162.4120  210.7050  154.9510 O   0  0  0  0  0  1  0  0  0  0  0  0
  160.2250  210.1660  155.8580 C   0  0  0  0  0  0  0  0  0  0  0  0
  161.0360  210.8970  154.9740 C   0  0  0  0  0  0  0  0  0  0  0  0
  159.0730  212.0270  154.1110 C   0  0  0  0  0  3  0  0  0  0  0  0
  158.2640  211.2940  154.9840 C   0  0  0  0  0  3  0  0  0  0  0  0
  158.8390  210.3640  155.8530 C   0  0  0  0  0  3  0  0  0  0  0  0
  160.4560  211.8280  154.1060 C   0  0  0  0  0  3  0  0  0  0  0  0
  1  7  2  0  0  0  0
  2 11  2  0  0  0  0
  3  7  1  6  0  0  0
  3 14  1  0  0  0  0
  4 23  1  1  0  0  0
  5  6  2  0  0  0  0
  6  2  1  0  0  0  0
  7  2  1  0  0  0  0
  8  5  1  0  0  0  0
  8  1  1  0  0  0  0
  9 15  1  6  0  0  0
  9  3  1  0  0  0  0
  9 13  1  0  0  0  0
 10  1  1  0  0  0  0
 10 15  1  0  0  0  0
 12  4  1  0  0  0  0
 13 18  1  6  0  0  0
 13 12  1  0  0  0  0
 14  4  1  0  0  0  0
 16 22  2  0  0  0  0
 16 20  1  0  0  0  0
 17 16  1  0  0  0  0
 18 20  2  0  0  0  0
 19 21  1  0  0  0  0
 19 17  2  0  0  0  0
 21 18  1  0  0  0  0
 23 26  1  0  0  0  0
 25 27  1  0  0  0  0
 26 24  2  0  0  0  0
 26 25  1  0  0  0  0
 28 30  1  0  0  0  0
 29 27  1  0  0  0  0
 30 29  2  0  0  0  0
 31 32  1  0  0  0  0
 32 33  2  0  0  0  0
 33 29  1  0  0  0  0
 34 31  2  0  0  0  0
 34 30  1  0  0  0  0
M  END
>  <MODEL>
9

>  <REMARK>
 VINA RESULT:      -8.4      2.378      5.337
  Name = 
  5 active torsions:
  status: ('A' for Active; 'I' for Inactive)
    1  A    between atoms: C_3  and  C_13
    2  A    between atoms: C_3  and  N_17
    3  A    between atoms: C_5  and  C_18
    4  A    between atoms: C_12  and  C_28
    5  A    between atoms: C_18  and  C_29
                            x       y       z     vdW  Elec       q    Type
                         _______ _______ _______ _____ _____    ______ ____

>  <TORSDO>
F 5

$$$$
