=
 OpenBabel11052422053D

 25 28  0  0  1  0  0  0  0  0999 V2000
  161.3160  206.4490  152.0500 C   0  0  0  0  0  0  0  0  0  0  0  0
  161.2820  205.7690  150.8260 C   0  0  0  0  0  0  0  0  0  0  0  0
  160.8960  204.4020  153.2770 C   0  0  0  0  0  3  0  0  0  0  0  0
  161.6350  207.8800  152.3220 C   0  0  2  0  0  3  0  0  0  0  0  0
  160.9900  210.2330  153.7190 C   0  0  0  0  0  3  0  0  0  0  0  0
  160.8380  203.7020  152.0630 C   0  0  0  0  0  3  0  0  0  0  0  0
  161.4330  207.9040  153.8120 C   0  0  0  0  0  0  0  0  0  0  0  0
  161.1470  209.0010  154.4470 N   0  0  0  0  0  0  0  0  0  0  0  0
  160.9870  203.6700  149.6100 C   0  0  0  0  0  0  0  0  0  0  0  0
  160.7280  202.2020  149.5520 C   0  0  0  0  0  1  0  0  0  0  0  0
  161.4930  206.4360  149.6150 C   0  0  0  0  0  3  0  0  0  0  0  0
  160.7920  210.2070  152.3920 C   0  0  0  0  0  3  0  0  0  0  0  0
  161.1450  205.7710  153.2440 C   0  0  0  0  0  0  0  0  0  0  0  0
  161.2270  206.6150  154.3840 N   0  0  0  0  0  2  0  0  0  0  0  0
  161.1980  204.3570  148.4100 C   0  0  0  0  0  3  0  0  0  0  0  0
  160.6700  208.8810  151.6820 C   0  0  0  0  0  2  0  0  0  0  0  0
  161.4450  205.7330  148.4100 C   0  0  0  0  0  0  0  0  0  0  0  0
  161.0290  204.3690  150.8330 C   0  0  0  0  0  0  0  0  0  0  0  0
  161.6920  206.4430  147.1270 C   0  0  0  0  0  2  0  0  0  0  0  0
  162.2180  205.5060  146.1370 N   0  0  0  0  0  2  0  0  0  0  0  0
  161.2850  205.3510  145.0190 C   0  0  2  0  0  3  0  0  0  0  0  0
  160.1710  206.2860  145.1220 N   0  0  0  0  0  1  0  0  0  0  0  0
  160.8070  203.9390  144.8730 C   0  0  0  0  0  0  0  0  0  0  0  0
  159.6580  203.6780  144.1380 O   0  0  0  0  0  0  0  0  0  0  0  0
  161.4550  202.9840  145.3760 O   0  0  0  0  0  1  0  0  0  0  0  0
  1  4  1  0  0  0  0
  1 13  1  0  0  0  0
  2 18  1  0  0  0  0
  2  1  2  0  0  0  0
  4 16  1  6  0  0  0
  4  7  1  0  0  0  0
  5  8  1  0  0  0  0
  6  3  1  0  0  0  0
  7 14  1  0  0  0  0
  7  8  2  0  0  0  0
  9 18  1  0  0  0  0
 10  9  1  0  0  0  0
 11  2  1  0  0  0  0
 12  5  2  0  0  0  0
 13  3  2  0  0  0  0
 13 14  1  0  0  0  0
 15  9  2  0  0  0  0
 16 12  1  0  0  0  0
 17 15  1  0  0  0  0
 17 11  2  0  0  0  0
 18  6  2  0  0  0  0
 19 17  1  0  0  0  0
 20 19  1  0  0  0  0
 21 22  1  1  0  0  0
 21 20  1  0  0  0  0
 23 21  1  0  0  0  0
 23 25  1  0  0  0  0
 24 23  2  0  0  0  0
M  END
>  <MODEL>
1

>  <REMARK>
 VINA RESULT:      -9.5      0.000      0.000
  Name = 
  4 active torsions:
  status: ('A' for Active; 'I' for Inactive)
    1  A    between atoms: C_2  and  C_21
    2  A    between atoms: C_6  and  N_15
    3  A    between atoms: C_6  and  C_23
    4  A    between atoms: N_15  and  C_21
                            x       y       z     vdW  Elec       q    Type
                         _______ _______ _______ _____ _____    ______ ____

>  <TORSDO>
F 4

$$$$
=
 OpenBabel11052422053D

 25 28  0  0  1  0  0  0  0  0999 V2000
  161.2660  206.9040  152.3010 C   0  0  0  0  0  0  0  0  0  0  0  0
  161.1930  206.2190  151.0820 C   0  0  0  0  0  0  0  0  0  0  0  0
  160.9680  204.8500  153.5510 C   0  0  0  0  0  3  0  0  0  0  0  0
  161.5550  208.3450  152.5550 C   0  0  2  0  0  3  0  0  0  0  0  0
  160.9080  210.6820  153.9770 C   0  0  0  0  0  3  0  0  0  0  0  0
  160.8720  204.1450  152.3430 C   0  0  0  0  0  3  0  0  0  0  0  0
  161.4240  208.3680  154.0530 C   0  0  0  0  0  0  0  0  0  0  0  0
  161.1370  209.4580  154.6990 N   0  0  0  0  0  0  0  0  0  0  0  0
  160.9030  204.1080  149.8860 C   0  0  0  0  0  0  0  0  0  0  0  0
  160.6850  202.6330  149.8430 C   0  0  0  0  0  1  0  0  0  0  0  0
  161.3250  206.8880  149.8610 C   0  0  0  0  0  3  0  0  0  0  0  0
  160.6460  210.6460  152.6610 C   0  0  0  0  0  3  0  0  0  0  0  0
  161.1740  206.2260  153.5040 C   0  0  0  0  0  0  0  0  0  0  0  0
  161.2850  207.0760  154.6370 N   0  0  0  0  0  2  0  0  0  0  0  0
  161.0340  204.7970  148.6760 C   0  0  0  0  0  3  0  0  0  0  0  0
  160.5300  209.3140  151.9600 C   0  0  0  0  0  2  0  0  0  0  0  0
  161.2390  206.1800  148.6610 C   0  0  0  0  0  0  0  0  0  0  0  0
  160.9830  204.8130  151.1040 C   0  0  0  0  0  0  0  0  0  0  0  0
  161.4020  206.8920  147.3660 C   0  0  0  0  0  2  0  0  0  0  0  0
  160.7670  206.1260  146.2970 N   0  0  0  0  0  2  0  0  0  0  0  0
  161.7440  205.7570  145.2690 C   0  0  2  0  0  3  0  0  0  0  0  0
  161.1240  205.6680  143.9530 N   0  0  0  0  0  1  0  0  0  0  0  0
  162.4830  204.5010  145.6160 C   0  0  0  0  0  0  0  0  0  0  0  0
  161.8260  203.2790  145.5470 O   0  0  0  0  0  0  0  0  0  0  0  0
  163.7010  204.5370  145.9320 O   0  0  0  0  0  1  0  0  0  0  0  0
  1  4  1  0  0  0  0
  1 13  1  0  0  0  0
  2 18  1  0  0  0  0
  2  1  2  0  0  0  0
  4 16  1  6  0  0  0
  4  7  1  0  0  0  0
  5  8  1  0  0  0  0
  6  3  1  0  0  0  0
  7 14  1  0  0  0  0
  7  8  2  0  0  0  0
  9 18  1  0  0  0  0
 10  9  1  0  0  0  0
 11  2  1  0  0  0  0
 12  5  2  0  0  0  0
 13  3  2  0  0  0  0
 13 14  1  0  0  0  0
 15  9  2  0  0  0  0
 16 12  1  0  0  0  0
 17 15  1  0  0  0  0
 17 11  2  0  0  0  0
 18  6  2  0  0  0  0
 19 17  1  0  0  0  0
 20 19  1  0  0  0  0
 21 22  1  6  0  0  0
 21 23  1  0  0  0  0
 21 20  1  0  0  0  0
 23 25  1  0  0  0  0
 24 23  2  0  0  0  0
M  END
>  <MODEL>
2

>  <REMARK>
 VINA RESULT:      -9.5      0.914      1.082
  Name = 
  4 active torsions:
  status: ('A' for Active; 'I' for Inactive)
    1  A    between atoms: C_2  and  C_21
    2  A    between atoms: C_6  and  N_15
    3  A    between atoms: C_6  and  C_23
    4  A    between atoms: N_15  and  C_21
                            x       y       z     vdW  Elec       q    Type
                         _______ _______ _______ _____ _____    ______ ____

>  <TORSDO>
F 4

$$$$
=
 OpenBabel11052422053D

 25 28  0  0  1  0  0  0  0  0999 V2000
  161.1800  204.9140  149.2020 C   0  0  0  0  0  0  0  0  0  0  0  0
  161.2520  205.8390  150.2500 C   0  0  0  0  0  0  0  0  0  0  0  0
  160.9620  203.0680  150.7570 C   0  0  0  0  0  3  0  0  0  0  0  0
  161.1370  205.1590  147.7320 C   0  0  2  0  0  3  0  0  0  0  0  0
  162.0520  204.4310  145.1750 C   0  0  0  0  0  3  0  0  0  0  0  0
  161.0520  203.9730  151.8240 C   0  0  0  0  0  3  0  0  0  0  0  0
  161.1120  203.7380  147.2400 C   0  0  0  0  0  0  0  0  0  0  0  0
  161.5270  203.4170  146.0510 N   0  0  0  0  0  0  0  0  0  0  0  0
  161.2720  206.2760  152.6550 C   0  0  0  0  0  0  0  0  0  0  0  0
  161.2170  205.8330  154.0780 C   0  0  0  0  0  1  0  0  0  0  0  0
  161.3740  207.2110  150.0050 C   0  0  0  0  0  3  0  0  0  0  0  0
  162.4380  205.6160  145.6750 C   0  0  0  0  0  3  0  0  0  0  0  0
  161.0200  203.5630  149.4570 C   0  0  0  0  0  0  0  0  0  0  0  0
  160.9490  202.7750  148.2780 N   0  0  0  0  0  2  0  0  0  0  0  0
  161.3960  207.6430  152.3870 C   0  0  0  0  0  3  0  0  0  0  0  0
  162.3790  205.8510  147.1650 C   0  0  0  0  0  2  0  0  0  0  0  0
  161.4520  208.1090  151.0700 C   0  0  0  0  0  0  0  0  0  0  0  0
  161.1960  205.3590  151.5870 C   0  0  0  0  0  0  0  0  0  0  0  0
  161.5590  209.5680  150.8040 C   0  0  0  0  0  2  0  0  0  0  0  0
  161.8850  210.2740  152.0410 N   0  0  0  0  0  2  0  0  0  0  0  0
  160.6830  210.8590  152.6390 C   0  0  2  0  0  3  0  0  0  0  0  0
  160.2190  212.0140  151.8800 N   0  0  0  0  0  1  0  0  0  0  0  0
  160.8750  211.1920  154.0870 C   0  0  0  0  0  0  0  0  0  0  0  0
  161.8220  210.4980  154.8280 O   0  0  0  0  0  1  0  0  0  0  0  0
  160.2150  212.1170  154.6280 O   0  0  0  0  0  0  0  0  0  0  0  0
  1 13  2  0  0  0  0
  1  2  1  0  0  0  0
  2 18  1  0  0  0  0
  3  6  2  0  0  0  0
  4 16  1  6  0  0  0
  4  1  1  0  0  0  0
  5 12  2  0  0  0  0
  5  8  1  0  0  0  0
  7  4  1  0  0  0  0
  7 14  1  0  0  0  0
  8  7  2  0  0  0  0
  9 10  1  0  0  0  0
 11  2  2  0  0  0  0
 11 17  1  0  0  0  0
 12 16  1  0  0  0  0
 13  3  1  0  0  0  0
 14 13  1  0  0  0  0
 15  9  1  0  0  0  0
 17 15  2  0  0  0  0
 18  6  1  0  0  0  0
 18  9  2  0  0  0  0
 19 17  1  0  0  0  0
 19 20  1  0  0  0  0
 20 21  1  0  0  0  0
 21 22  1  6  0  0  0
 21 23  1  0  0  0  0
 23 25  2  0  0  0  0
 23 24  1  0  0  0  0
M  END
>  <MODEL>
3

>  <REMARK>
 VINA RESULT:      -9.3      3.885      7.223
  Name = 
  4 active torsions:
  status: ('A' for Active; 'I' for Inactive)
    1  A    between atoms: C_2  and  C_21
    2  A    between atoms: C_6  and  N_15
    3  A    between atoms: C_6  and  C_23
    4  A    between atoms: N_15  and  C_21
                            x       y       z     vdW  Elec       q    Type
                         _______ _______ _______ _____ _____    ______ ____

>  <TORSDO>
F 4

$$$$
=
 OpenBabel11052422053D

 25 28  0  0  1  0  0  0  0  0999 V2000
  161.2350  205.4970  149.2080 C   0  0  0  0  0  0  0  0  0  0  0  0
  161.3520  206.5410  150.1340 C   0  0  0  0  0  0  0  0  0  0  0  0
  160.8130  203.8900  150.9720 C   0  0  0  0  0  3  0  0  0  0  0  0
  161.2600  205.5540  147.7180 C   0  0  2  0  0  3  0  0  0  0  0  0
  162.1920  204.4320  145.3140 C   0  0  0  0  0  3  0  0  0  0  0  0
  160.9450  204.9150  151.9190 C   0  0  0  0  0  3  0  0  0  0  0  0
  161.1320  204.0880  147.4090 C   0  0  0  0  0  0  0  0  0  0  0  0
  161.5550  203.5840  146.2880 N   0  0  0  0  0  0  0  0  0  0  0  0
  161.3310  207.2810  152.4630 C   0  0  0  0  0  0  0  0  0  0  0  0
  161.1930  207.0310  153.9270 C   0  0  0  0  0  1  0  0  0  0  0  0
  161.5960  207.8560  149.7230 C   0  0  0  0  0  3  0  0  0  0  0  0
  162.6600  205.6370  145.6780 C   0  0  0  0  0  3  0  0  0  0  0  0
  160.9540  204.2070  149.6240 C   0  0  0  0  0  0  0  0  0  0  0  0
  160.8550  203.2820  148.5510 N   0  0  0  0  0  2  0  0  0  0  0  0
  161.5790  208.5880  152.0310 C   0  0  0  0  0  3  0  0  0  0  0  0
  162.5730  206.0650  147.1220 C   0  0  0  0  0  2  0  0  0  0  0  0
  161.7160  208.8750  150.6690 C   0  0  0  0  0  0  0  0  0  0  0  0
  161.2120  206.2430  151.5170 C   0  0  0  0  0  0  0  0  0  0  0  0
  161.9540  210.2740  150.2260 C   0  0  0  0  0  2  0  0  0  0  0  0
  161.9570  210.3370  148.7670 N   0  0  0  0  0  2  0  0  0  0  0  0
  161.5850  211.6750  148.3020 C   0  0  2  0  0  3  0  0  0  0  0  0
  160.6770  211.6100  147.1640 N   0  0  0  0  0  1  0  0  0  0  0  0
  162.7830  212.5240  148.0040 C   0  0  0  0  0  0  0  0  0  0  0  0
  162.6450  213.9040  147.9400 O   0  0  0  0  0  1  0  0  0  0  0  0
  163.9180  212.0030  147.8470 O   0  0  0  0  0  0  0  0  0  0  0  0
  1 13  2  0  0  0  0
  1  2  1  0  0  0  0
  2 18  1  0  0  0  0
  3  6  2  0  0  0  0
  4 16  1  1  0  0  0
  4  1  1  0  0  0  0
  5 12  2  0  0  0  0
  5  8  1  0  0  0  0
  7  4  1  0  0  0  0
  7 14  1  0  0  0  0
  8  7  2  0  0  0  0
  9 10  1  0  0  0  0
 11  2  2  0  0  0  0
 11 17  1  0  0  0  0
 12 16  1  0  0  0  0
 13  3  1  0  0  0  0
 14 13  1  0  0  0  0
 15  9  1  0  0  0  0
 17 15  2  0  0  0  0
 18  6  1  0  0  0  0
 18  9  2  0  0  0  0
 19 17  1  0  0  0  0
 20 19  1  0  0  0  0
 21 22  1  6  0  0  0
 21 20  1  0  0  0  0
 23 21  1  0  0  0  0
 24 23  1  0  0  0  0
 25 23  2  0  0  0  0
M  END
>  <MODEL>
4

>  <REMARK>
 VINA RESULT:      -9.2      3.850      6.411
  Name = 
  4 active torsions:
  status: ('A' for Active; 'I' for Inactive)
    1  A    between atoms: C_2  and  C_21
    2  A    between atoms: C_6  and  N_15
    3  A    between atoms: C_6  and  C_23
    4  A    between atoms: N_15  and  C_21
                            x       y       z     vdW  Elec       q    Type
                         _______ _______ _______ _____ _____    ______ ____

>  <TORSDO>
F 4

$$$$
=
 OpenBabel11052422053D

 25 28  0  0  1  0  0  0  0  0999 V2000
  161.1800  208.0300  152.9600 C   0  0  0  0  0  0  0  0  0  0  0  0
  161.1930  207.1340  151.8840 C   0  0  0  0  0  0  0  0  0  0  0  0
  161.2080  206.2120  154.5620 C   0  0  0  0  0  3  0  0  0  0  0  0
  161.2540  209.5200  152.9450 C   0  0  2  0  0  3  0  0  0  0  0  0
  160.2860  211.9560  153.9590 C   0  0  0  0  0  3  0  0  0  0  0  0
  161.2010  205.2950  153.5010 C   0  0  0  0  0  3  0  0  0  0  0  0
  161.1430  209.7920  154.4190 C   0  0  0  0  0  0  0  0  0  0  0  0
  160.7050  210.9270  154.8750 N   0  0  0  0  0  0  0  0  0  0  0  0
  161.2030  204.8230  151.0890 C   0  0  0  0  0  0  0  0  0  0  0  0
  161.2070  203.3480  151.3150 C   0  0  0  0  0  1  0  0  0  0  0  0
  161.2070  207.5840  150.5600 C   0  0  0  0  0  3  0  0  0  0  0  0
  160.0150  211.6470  152.6820 C   0  0  0  0  0  3  0  0  0  0  0  0
  161.2060  207.5730  154.2660 C   0  0  0  0  0  0  0  0  0  0  0  0
  161.2050  208.6190  155.2260 N   0  0  0  0  0  2  0  0  0  0  0  0
  161.2140  205.2950  149.7730 C   0  0  0  0  0  3  0  0  0  0  0  0
  160.0890  210.2080  152.2310 C   0  0  0  0  0  2  0  0  0  0  0  0
  161.2110  206.6680  149.5080 C   0  0  0  0  0  0  0  0  0  0  0  0
  161.1950  205.7390  152.1600 C   0  0  0  0  0  0  0  0  0  0  0  0
  161.2480  207.1520  148.1020 C   0  0  0  0  0  2  0  0  0  0  0  0
  160.5540  206.2030  147.2340 N   0  0  0  0  0  2  0  0  0  0  0  0
  161.3620  205.8920  146.0520 C   0  0  2  0  0  3  0  0  0  0  0  0
  160.5380  205.8000  144.8530 N   0  0  0  0  0  1  0  0  0  0  0  0
  162.1940  204.6610  146.2440 C   0  0  0  0  0  0  0  0  0  0  0  0
  161.5720  203.4520  146.5280 O   0  0  0  0  0  1  0  0  0  0  0  0
  163.4460  204.7030  146.1140 O   0  0  0  0  0  0  0  0  0  0  0  0
  1 13  1  0  0  0  0
  2 18  1  0  0  0  0
  2  1  2  0  0  0  0
  4 16  1  6  0  0  0
  4  1  1  0  0  0  0
  4  7  1  0  0  0  0
  5  8  1  0  0  0  0
  6  3  1  0  0  0  0
  7  8  2  0  0  0  0
  7 14  1  0  0  0  0
  9 10  1  0  0  0  0
  9 18  1  0  0  0  0
 11  2  1  0  0  0  0
 12  5  2  0  0  0  0
 13  3  2  0  0  0  0
 13 14  1  0  0  0  0
 15  9  2  0  0  0  0
 16 12  1  0  0  0  0
 17 15  1  0  0  0  0
 17 11  2  0  0  0  0
 18  6  2  0  0  0  0
 19 17  1  0  0  0  0
 20 19  1  0  0  0  0
 21 22  1  6  0  0  0
 21 23  1  0  0  0  0
 21 20  1  0  0  0  0
 23 24  1  0  0  0  0
 25 23  2  0  0  0  0
M  END
>  <MODEL>
5

>  <REMARK>
 VINA RESULT:      -9.0      1.406      1.932
  Name = 
  4 active torsions:
  status: ('A' for Active; 'I' for Inactive)
    1  A    between atoms: C_2  and  C_21
    2  A    between atoms: C_6  and  N_15
    3  A    between atoms: C_6  and  C_23
    4  A    between atoms: N_15  and  C_21
                            x       y       z     vdW  Elec       q    Type
                         _______ _______ _______ _____ _____    ______ ____

>  <TORSDO>
F 4

$$$$
=
 OpenBabel11052422053D

 25 28  0  0  1  0  0  0  0  0999 V2000
  161.5810  205.1970  149.1320 C   0  0  0  0  0  0  0  0  0  0  0  0
  161.5600  206.1270  150.1780 C   0  0  0  0  0  0  0  0  0  0  0  0
  161.9350  206.9470  147.4930 C   0  0  0  0  0  3  0  0  0  0  0  0
  161.5240  203.7080  149.1950 C   0  0  2  0  0  3  0  0  0  0  0  0
  160.4590  201.3260  148.1490 C   0  0  0  0  0  3  0  0  0  0  0  0
  161.8980  207.8990  148.5220 C   0  0  0  0  0  3  0  0  0  0  0  0
  161.5440  203.3930  147.7250 C   0  0  0  0  0  0  0  0  0  0  0  0
  161.0590  202.2820  147.2560 N   0  0  0  0  0  0  0  0  0  0  0  0
  161.6890  208.4560  150.9070 C   0  0  0  0  0  0  0  0  0  0  0  0
  161.8450  209.9160  150.6430 C   0  0  0  0  0  1  0  0  0  0  0  0
  161.3970  205.7250  151.5080 C   0  0  0  0  0  3  0  0  0  0  0  0
  160.0840  201.7030  149.3810 C   0  0  0  0  0  3  0  0  0  0  0  0
  161.7840  205.6030  147.8240 C   0  0  0  0  0  0  0  0  0  0  0  0
  161.7920  204.5260  146.8980 N   0  0  0  0  0  2  0  0  0  0  0  0
  161.5210  208.0320  152.2290 C   0  0  0  0  0  3  0  0  0  0  0  0
  160.2350  203.1450  149.7980 C   0  0  0  0  0  2  0  0  0  0  0  0
  161.3710  206.6760  152.5300 C   0  0  0  0  0  0  0  0  0  0  0  0
  161.7130  207.5060  149.8660 C   0  0  0  0  0  0  0  0  0  0  0  0
  161.2190  206.2410  153.9440 C   0  0  0  0  0  2  0  0  0  0  0  0
  160.4440  207.2330  154.6850 N   0  0  0  0  0  2  0  0  0  0  0  0
  161.0300  207.4690  156.0070 C   0  0  2  0  0  3  0  0  0  0  0  0
  160.0820  207.1640  157.0710 N   0  0  0  0  0  1  0  0  0  0  0  0
  161.5820  208.8550  156.1410 C   0  0  0  0  0  0  0  0  0  0  0  0
  162.4310  209.1540  157.1990 O   0  0  0  0  0  1  0  0  0  0  0  0
  161.3140  209.7410  155.2870 O   0  0  0  0  0  0  0  0  0  0  0  0
  1  4  1  0  0  0  0
  1  2  1  0  0  0  0
  2 11  1  0  0  0  0
  3 13  1  0  0  0  0
  3  6  2  0  0  0  0
  4 16  1  6  0  0  0
  5 12  2  0  0  0  0
  6 18  1  0  0  0  0
  7  4  1  0  0  0  0
  8  7  2  0  0  0  0
  8  5  1  0  0  0  0
  9 15  2  0  0  0  0
 10  9  1  0  0  0  0
 11 17  2  0  0  0  0
 12 16  1  0  0  0  0
 13  1  2  0  0  0  0
 14  7  1  0  0  0  0
 14 13  1  0  0  0  0
 15 17  1  0  0  0  0
 17 19  1  0  0  0  0
 18  2  2  0  0  0  0
 18  9  1  0  0  0  0
 19 20  1  0  0  0  0
 20 21  1  0  0  0  0
 21 23  1  0  0  0  0
 21 22  1  1  0  0  0
 23 24  1  0  0  0  0
 25 23  2  0  0  0  0
M  END
>  <MODEL>
6

>  <REMARK>
 VINA RESULT:      -8.9      3.894      8.078
  Name = 
  4 active torsions:
  status: ('A' for Active; 'I' for Inactive)
    1  A    between atoms: C_2  and  C_21
    2  A    between atoms: C_6  and  N_15
    3  A    between atoms: C_6  and  C_23
    4  A    between atoms: N_15  and  C_21
                            x       y       z     vdW  Elec       q    Type
                         _______ _______ _______ _____ _____    ______ ____

>  <TORSDO>
F 4

$$$$
=
 OpenBabel11052422053D

 25 28  0  0  1  0  0  0  0  0999 V2000
  161.2790  207.5030  150.8420 C   0  0  0  0  0  0  0  0  0  0  0  0
  161.3120  206.4410  149.9310 C   0  0  0  0  0  0  0  0  0  0  0  0
  162.1440  209.0430  149.1830 C   0  0  0  0  0  3  0  0  0  0  0  0
  160.7530  207.5290  152.2380 C   0  0  2  0  0  3  0  0  0  0  0  0
  161.1260  208.3500  154.9010 C   0  0  0  0  0  3  0  0  0  0  0  0
  162.2050  207.9910  148.2580 C   0  0  0  0  0  3  0  0  0  0  0  0
  161.0860  208.9490  152.6050 C   0  0  0  0  0  0  0  0  0  0  0  0
  161.2430  209.3180  153.8410 N   0  0  0  0  0  0  0  0  0  0  0  0
  161.8370  205.6290  147.6860 C   0  0  0  0  0  0  0  0  0  0  0  0
  162.3290  205.8260  146.2920 C   0  0  0  0  0  1  0  0  0  0  0  0
  160.8820  205.1590  150.2890 C   0  0  0  0  0  3  0  0  0  0  0  0
  161.2020  207.0390  154.6230 C   0  0  0  0  0  3  0  0  0  0  0  0
  161.6690  208.7760  150.4650 C   0  0  0  0  0  0  0  0  0  0  0  0
  161.5550  209.7310  151.5100 N   0  0  0  0  0  2  0  0  0  0  0  0
  161.4050  204.3540  148.0660 C   0  0  0  0  0  3  0  0  0  0  0  0
  161.4760  206.5920  153.2080 C   0  0  0  0  0  2  0  0  0  0  0  0
  160.9340  204.1170  149.3610 C   0  0  0  0  0  0  0  0  0  0  0  0
  161.7920  206.6880  148.6160 C   0  0  0  0  0  0  0  0  0  0  0  0
  160.4560  202.7620  149.7400 C   0  0  0  0  0  2  0  0  0  0  0  0
  159.8940  202.0910  148.5700 N   0  0  0  0  0  2  0  0  0  0  0  0
  160.6070  200.8410  148.2950 C   0  0  2  0  0  3  0  0  0  0  0  0
  161.7430  200.6680  149.1920 N   0  0  0  0  0  1  0  0  0  0  0  0
  161.0170  200.7280  146.8590 C   0  0  0  0  0  0  0  0  0  0  0  0
  161.5830  199.5460  146.3990 O   0  0  0  0  0  1  0  0  0  0  0  0
  160.8210  201.6790  146.0560 O   0  0  0  0  0  0  0  0  0  0  0  0
  1  4  1  0  0  0  0
  2 11  1  0  0  0  0
  2  1  2  0  0  0  0
  3 13  2  0  0  0  0
  4  7  1  0  0  0  0
  4 16  1  1  0  0  0
  6 18  2  0  0  0  0
  6  3  1  0  0  0  0
  7  8  2  0  0  0  0
  8  5  1  0  0  0  0
  9 15  2  0  0  0  0
  9 18  1  0  0  0  0
 10  9  1  0  0  0  0
 12  5  2  0  0  0  0
 13  1  1  0  0  0  0
 13 14  1  0  0  0  0
 14  7  1  0  0  0  0
 15 17  1  0  0  0  0
 16 12  1  0  0  0  0
 17 19  1  0  0  0  0
 17 11  2  0  0  0  0
 18  2  1  0  0  0  0
 20 19  1  0  0  0  0
 21 20  1  0  0  0  0
 21 22  1  1  0  0  0
 23 21  1  0  0  0  0
 24 23  1  0  0  0  0
 25 23  2  0  0  0  0
M  END
>  <MODEL>
7

>  <REMARK>
 VINA RESULT:      -8.9      2.202      3.834
  Name = 
  4 active torsions:
  status: ('A' for Active; 'I' for Inactive)
    1  A    between atoms: C_2  and  C_21
    2  A    between atoms: C_6  and  N_15
    3  A    between atoms: C_6  and  C_23
    4  A    between atoms: N_15  and  C_21
                            x       y       z     vdW  Elec       q    Type
                         _______ _______ _______ _____ _____    ______ ____

>  <TORSDO>
F 4

$$$$
=
 OpenBabel11052422053D

 25 28  0  0  1  0  0  0  0  0999 V2000
  161.1930  205.6400  150.3110 C   0  0  0  0  0  0  0  0  0  0  0  0
  161.1960  206.6520  151.2790 C   0  0  0  0  0  0  0  0  0  0  0  0
  161.1600  203.9170  152.0150 C   0  0  0  0  0  3  0  0  0  0  0  0
  161.1100  205.7580  148.8270 C   0  0  2  0  0  3  0  0  0  0  0  0
  162.0530  204.9050  146.3200 C   0  0  0  0  0  3  0  0  0  0  0  0
  161.1820  204.9130  153.0030 C   0  0  0  0  0  3  0  0  0  0  0  0
  161.2050  204.3050  148.4530 C   0  0  0  0  0  0  0  0  0  0  0  0
  161.6310  203.9240  147.2860 N   0  0  0  0  0  0  0  0  0  0  0  0
  161.2070  207.2860  153.6390 C   0  0  0  0  0  0  0  0  0  0  0  0
  161.2090  206.9590  155.0950 C   0  0  0  0  0  1  0  0  0  0  0  0
  161.1920  208.0040  150.9210 C   0  0  0  0  0  3  0  0  0  0  0  0
  162.3390  206.1560  146.7150 C   0  0  0  0  0  3  0  0  0  0  0  0
  161.1560  204.3060  150.6780 C   0  0  0  0  0  0  0  0  0  0  0  0
  161.1410  203.4200  149.5680 N   0  0  0  0  0  2  0  0  0  0  0  0
  161.2060  208.6320  153.2580 C   0  0  0  0  0  3  0  0  0  0  0  0
  162.2780  206.5070  148.1810 C   0  0  0  0  0  2  0  0  0  0  0  0
  161.2040  208.9910  151.9080 C   0  0  0  0  0  0  0  0  0  0  0  0
  161.1990  206.2810  152.6520 C   0  0  0  0  0  0  0  0  0  0  0  0
  161.1770  210.4270  151.5210 C   0  0  0  0  0  2  0  0  0  0  0  0
  160.7130  211.2330  152.6480 N   0  0  0  0  0  2  0  0  0  0  0  0
  159.3790  211.7770  152.3830 C   0  0  2  0  0  3  0  0  0  0  0  0
  159.4540  213.0460  151.6680 N   0  0  0  0  0  1  0  0  0  0  0  0
  158.5580  211.8960  153.6310 C   0  0  0  0  0  0  0  0  0  0  0  0
  157.7330  212.9990  153.8050 O   0  0  0  0  0  0  0  0  0  0  0  0
  158.5810  210.9890  154.5050 O   0  0  0  0  0  1  0  0  0  0  0  0
  1 13  2  0  0  0  0
  1  2  1  0  0  0  0
  2 18  1  0  0  0  0
  3  6  2  0  0  0  0
  4 16  1  6  0  0  0
  4  1  1  0  0  0  0
  5 12  2  0  0  0  0
  5  8  1  0  0  0  0
  7  4  1  0  0  0  0
  7 14  1  0  0  0  0
  8  7  2  0  0  0  0
  9 10  1  0  0  0  0
 11  2  2  0  0  0  0
 11 17  1  0  0  0  0
 12 16  1  0  0  0  0
 13  3  1  0  0  0  0
 14 13  1  0  0  0  0
 15  9  1  0  0  0  0
 17 15  2  0  0  0  0
 18  6  1  0  0  0  0
 18  9  2  0  0  0  0
 19 17  1  0  0  0  0
 19 20  1  0  0  0  0
 21 22  1  1  0  0  0
 21 20  1  0  0  0  0
 21 23  1  0  0  0  0
 23 24  2  0  0  0  0
 23 25  1  0  0  0  0
M  END
>  <MODEL>
8

>  <REMARK>
 VINA RESULT:      -8.8      4.115      7.177
  Name = 
  4 active torsions:
  status: ('A' for Active; 'I' for Inactive)
    1  A    between atoms: C_2  and  C_21
    2  A    between atoms: C_6  and  N_15
    3  A    between atoms: C_6  and  C_23
    4  A    between atoms: N_15  and  C_21
                            x       y       z     vdW  Elec       q    Type
                         _______ _______ _______ _____ _____    ______ ____

>  <TORSDO>
F 4

$$$$
=
 OpenBabel11052422053D

 25 28  0  0  1  0  0  0  0  0999 V2000
  161.1230  208.1360  152.2570 C   0  0  0  0  0  0  0  0  0  0  0  0
  161.2150  207.1460  151.2710 C   0  0  0  0  0  0  0  0  0  0  0  0
  161.9290  209.8330  150.7270 C   0  0  0  0  0  3  0  0  0  0  0  0
  160.5830  208.0340  153.6440 C   0  0  2  0  0  3  0  0  0  0  0  0
  160.8910  208.6730  156.3650 C   0  0  0  0  0  3  0  0  0  0  0  0
  162.0490  208.8560  149.7280 C   0  0  0  0  0  3  0  0  0  0  0  0
  160.8440  209.4370  154.1190 C   0  0  0  0  0  0  0  0  0  0  0  0
  160.9720  209.7210  155.3810 N   0  0  0  0  0  0  0  0  0  0  0  0
  161.7990  206.5280  148.9800 C   0  0  0  0  0  0  0  0  0  0  0  0
  162.2940  206.8500  147.6100 C   0  0  0  0  0  1  0  0  0  0  0  0
  160.8430  205.8230  151.5280 C   0  0  0  0  0  3  0  0  0  0  0  0
  161.0320  207.3910  155.9930 C   0  0  0  0  0  3  0  0  0  0  0  0
  161.4550  209.4500  151.9790 C   0  0  0  0  0  0  0  0  0  0  0  0
  161.2860  210.3190  153.0900 N   0  0  0  0  0  2  0  0  0  0  0  0
  161.4250  205.2100  149.2600 C   0  0  0  0  0  3  0  0  0  0  0  0
  161.3400  207.0620  154.5520 C   0  0  0  0  0  2  0  0  0  0  0  0
  160.9540  204.8560  150.5280 C   0  0  0  0  0  0  0  0  0  0  0  0
  161.6950  207.5120  149.9840 C   0  0  0  0  0  0  0  0  0  0  0  0
  160.5360  203.4550  150.8000 C   0  0  0  0  0  2  0  0  0  0  0  0
  159.9590  202.8680  149.5930 N   0  0  0  0  0  2  0  0  0  0  0  0
  160.4000  201.4810  149.4280 C   0  0  2  0  0  3  0  0  0  0  0  0
  161.3030  201.0780  150.4990 N   0  0  0  0  0  1  0  0  0  0  0  0
  161.0030  201.2360  148.0780 C   0  0  0  0  0  0  0  0  0  0  0  0
  161.0030  202.2540  147.1340 O   0  0  0  0  0  0  0  0  0  0  0  0
  161.5420  200.1310  147.8050 O   0  0  0  0  0  1  0  0  0  0  0  0
  1  4  1  0  0  0  0
  2 11  1  0  0  0  0
  2  1  2  0  0  0  0
  3 13  2  0  0  0  0
  4  7  1  0  0  0  0
  4 16  1  1  0  0  0
  6 18  2  0  0  0  0
  6  3  1  0  0  0  0
  7  8  2  0  0  0  0
  8  5  1  0  0  0  0
  9 15  2  0  0  0  0
  9 18  1  0  0  0  0
 10  9  1  0  0  0  0
 12  5  2  0  0  0  0
 13  1  1  0  0  0  0
 13 14  1  0  0  0  0
 14  7  1  0  0  0  0
 15 17  1  0  0  0  0
 16 12  1  0  0  0  0
 17 19  1  0  0  0  0
 17 11  2  0  0  0  0
 18  2  1  0  0  0  0
 20 19  1  0  0  0  0
 21 20  1  0  0  0  0
 21 22  1  1  0  0  0
 23 21  1  0  0  0  0
 24 23  2  0  0  0  0
 25 23  1  0  0  0  0
M  END
>  <MODEL>
9

>  <REMARK>
 VINA RESULT:      -8.4      2.316      4.000
  Name = 
  4 active torsions:
  status: ('A' for Active; 'I' for Inactive)
    1  A    between atoms: C_2  and  C_21
    2  A    between atoms: C_6  and  N_15
    3  A    between atoms: C_6  and  C_23
    4  A    between atoms: N_15  and  C_21
                            x       y       z     vdW  Elec       q    Type
                         _______ _______ _______ _____ _____    ______ ____

>  <TORSDO>
F 4

$$$$
