=
 OpenBabel11062408423D

 55 61  0  0  1  0  0  0  0  0999 V2000
  163.1220  212.9410  148.2000 C   0  0  0  0  0  3  0  0  0  0  0  0
  160.8830  212.6670  146.5460 C   0  0  0  0  0  0  0  0  0  0  0  0
  161.1360  211.7210  147.5440 C   0  0  0  0  0  3  0  0  0  0  0  0
  162.8730  213.8840  147.1980 C   0  0  0  0  0  3  0  0  0  0  0  0
  162.2520  211.8530  148.3760 C   0  0  0  0  0  0  0  0  0  0  0  0
  161.7550  213.7460  146.3690 C   0  0  0  0  0  3  0  0  0  0  0  0
  162.4720  210.8380  149.4120 C   0  0  0  0  0  3  0  0  0  0  0  0
  161.4880  210.2470  150.0840 C   0  0  0  0  0  3  0  0  0  0  0  0
  161.7440  209.2570  151.0920 N   0  0  0  0  0  0  0  0  0  0  0  0
  160.9040  210.9420  152.7230 C   0  0  0  0  0  2  0  0  0  0  0  0
  161.4250  210.3280  155.1100 N   0  0  0  0  0  0  0  0  0  0  0  0
  161.4090  208.5450  153.4190 C   0  0  0  0  0  2  0  0  0  0  0  0
  160.8330  209.0350  154.7460 C   0  0  0  0  0  2  0  0  0  0  0  0
  160.8570  211.3450  154.2080 C   0  0  0  0  0  2  0  0  0  0  0  0
  161.7770  209.7030  152.4820 C   0  0  0  0  0  3  0  0  0  0  0  0
  161.0330  210.6520  156.4940 C   0  0  0  0  0  3  0  0  0  0  0  0
  160.0310  209.6400  157.0340 C   0  0  0  0  0  1  0  0  0  0  0  0
  160.3690  212.0210  156.5730 C   0  0  0  0  0  1  0  0  0  0  0  0
  162.1780  207.9030  150.7290 C   0  0  0  0  0  2  0  0  0  0  0  0
  161.4790  207.4350  149.4570 C   0  0  0  0  0  2  0  0  0  0  0  0
  160.7780  203.6680  149.1670 C   0  0  0  0  0  2  0  0  0  0  0  0
  161.3290  203.3520  150.5460 C   0  0  0  0  0  2  0  0  0  0  0  0
  160.7540  206.1140  149.6670 C   0  0  2  0  0  3  0  0  0  0  0  0
  160.8390  205.7240  151.1220 C   0  0  0  0  0  3  0  0  0  0  0  0
  161.0520  204.4630  151.5210 C   0  0  0  0  0  3  0  0  0  0  0  0
  161.3010  205.0300  148.7330 C   0  0  2  0  0  3  0  0  0  0  0  0
  160.9150  205.2950  147.3920 O   0  0  0  0  0  0  0  0  0  0  0  0
  161.8100  205.2170  146.3220 C   0  0  0  0  0  0  0  0  0  0  0  0
  163.0430  205.1560  146.5590 O   0  0  0  0  0  0  0  0  0  0  0  0
  161.3390  205.1520  144.9040 C   0  0  0  0  0  2  0  0  0  0  0  0
  160.4480  203.9410  144.6760 C   0  0  0  0  0  2  0  0  0  0  0  0
  160.3140  201.7650  145.5540 C   0  0  0  0  0  2  0  0  0  0  0  0
  161.0450  202.7730  145.2610 N   0  0  0  0  0  0  0  0  0  0  0  0
  159.6920  212.5070  145.6680 C   0  0  0  0  0  2  0  0  0  0  0  0
  159.9030  213.2330  144.3510 C   0  0  0  0  0  2  0  0  0  0  0  0
  160.5290  212.2930  143.3340 C   0  0  0  0  0  2  0  0  0  0  0  0
  160.4050  212.8470  141.9950 N   0  0  0  0  0  2  0  0  0  0  0  0
  161.4500  212.2590  141.1750 C   0  0  0  0  0  2  0  0  0  0  0  0
  161.8100  207.7970  139.2490 C   0  0  0  0  0  0  0  0  0  0  0  0
  162.6910  211.6040  137.8780 C   0  0  0  0  0  1  0  0  0  0  0  0
  161.7890  210.4590  138.2940 C   0  0  2  0  0  0  0  0  0  0  0  0
  161.0510  210.8410  140.7660 C   0  0  2  0  0  3  0  0  0  0  0  0
  160.3410  210.8660  137.9550 C   0  0  2  0  0  3  0  0  0  0  0  0
  162.0560  210.1820  139.8160 C   0  0  1  0  0  3  0  0  0  0  0  0
  161.8370  206.5860  139.5860 O   0  0  0  0  0  0  0  0  0  0  0  0
  159.9400  208.4690  137.9890 O   0  0  0  0  0  0  0  0  0  0  0  0
  159.6110  211.5220  139.1280 C   0  0  0  0  0  2  0  0  0  0  0  0
  159.6090  209.6710  137.3290 C   0  0  1  0  0  3  0  0  0  0  0  0
  162.1830  208.7930  140.1440 O   0  0  0  0  0  0  0  0  0  0  0  0
  162.1280  209.3300  137.5050 O   0  0  0  0  0  0  0  0  0  0  0  0
  159.7250  210.7480  140.2950 O   0  0  0  0  0  0  0  0  0  0  0  0
  161.3390  208.2120  137.9060 C   0  0  1  0  0  3  0  0  0  0  0  0
  157.3100  209.3850  138.2840 C   0  0  0  0  0  2  0  0  0  0  0  0
  158.0970  209.8990  137.1640 C   0  0  2  0  0  3  0  0  0  0  0  0
  157.4020  208.6080  137.0380 N   0  0  0  0  0  2  0  0  0  0  0  0
  1  5  1  0  0  0  0
  2  3  1  0  0  0  0
  3  5  2  0  0  0  0
  4  1  2  0  0  0  0
  5  7  1  0  0  0  0
  6  2  2  0  0  0  0
  6  4  1  0  0  0  0
  7  8  2  0  0  0  0
  8  9  1  0  0  0  0
  9 15  1  0  0  0  0
 10 14  1  0  0  0  0
 11 16  1  0  0  0  0
 12 13  1  0  0  0  0
 13 11  1  0  0  0  0
 14 11  1  0  0  0  0
 15 10  1  0  0  0  0
 15 12  1  0  0  0  0
 16 18  1  0  0  0  0
 16 17  1  0  0  0  0
 19  9  1  0  0  0  0
 20 19  1  0  0  0  0
 21 22  1  0  0  0  0
 22 25  1  0  0  0  0
 23 20  1  1  0  0  0
 23 24  1  0  0  0  0
 24 25  2  0  0  0  0
 26 27  1  6  0  0  0
 26 21  1  0  0  0  0
 26 23  1  0  0  0  0
 28 29  2  0  0  0  0
 28 27  1  0  0  0  0
 30 28  1  0  0  0  0
 31 30  1  0  0  0  0
 31 33  1  0  0  0  0
 33 32  2  0  0  0  0
 34  2  1  0  0  0  0
 35 34  1  0  0  0  0
 36 35  1  0  0  0  0
 37 36  1  0  0  0  0
 38 37  1  0  0  0  0
 39 45  2  0  0  0  0
 39 49  1  0  0  0  0
 41 40  1  6  0  0  0
 41 44  1  0  0  0  0
 42 38  1  6  0  0  0
 43 41  1  0  0  0  0
 43 47  1  1  0  0  0
 44 49  1  6  0  0  0
 44 42  1  0  0  0  0
 47 51  1  0  0  0  0
 48 43  1  0  0  0  0
 48 46  1  1  0  0  0
 50 41  1  0  0  0  0
 51 42  1  0  0  0  0
 52 50  1  1  0  0  0
 52 46  1  0  0  0  0
 52 39  1  0  0  0  0
 54 48  1  0  0  0  0
 54 53  1  1  0  0  0
 55 54  1  0  0  0  0
 55 53  1  0  0  0  0
M  END
>  <MODEL>
1

>  <REMARK>
 VINA RESULT:      -8.1      0.000      0.000
  Name = 
  19 active torsions:
  status: ('A' for Active; 'I' for Inactive)
    1  A    between atoms: C_2  and  C_44
    2  A    between atoms: C_4  and  N_37
    3  A    between atoms: C_4  and  C_40
    4  A    between atoms: C_5  and  C_40
    5  A    between atoms: C_5  and  O_45
    6  A    between atoms: C_7  and  C_22
    7  A    between atoms: N_8  and  C_22
    8  A    between atoms: N_8  and  C_43
    9  A    between atoms: C_10  and  N_32
   10  A    between atoms: C_12  and  C_38
   11  A    between atoms: C_16  and  C_36
   12  A    between atoms: C_26  and  O_45
   13  A    between atoms: C_27  and  C_54
   14  A    between atoms: C_28  and  N_49
   15  A    between atoms: C_33  and  C_36
   16  A    between atoms: C_33  and  N_49
   17  A    between atoms: C_43  and  C_51
   18  A    between atoms: N_49  and  C_52
   19  A    between atoms: C_51  and  C_54
                            x       y       z     vdW  Elec       q    Type
                         _______ _______ _______ _____ _____    ______ ____

>  <TORSDO>
F 19

$$$$
=
 OpenBabel11062408423D

 55 61  0  0  1  0  0  0  0  0999 V2000
  160.9690  213.0140  149.3540 C   0  0  0  0  0  3  0  0  0  0  0  0
  161.9620  213.5630  146.7960 C   0  0  0  0  0  0  0  0  0  0  0  0
  162.3720  212.4120  147.4750 C   0  0  0  0  0  3  0  0  0  0  0  0
  160.5620  214.1690  148.6780 C   0  0  0  0  0  3  0  0  0  0  0  0
  161.8790  212.1300  148.7530 C   0  0  0  0  0  0  0  0  0  0  0  0
  161.0600  214.4450  147.4000 C   0  0  0  0  0  3  0  0  0  0  0  0
  162.3360  210.9080  149.4220 C   0  0  0  0  0  3  0  0  0  0  0  0
  161.5900  209.8130  149.5440 C   0  0  0  0  0  3  0  0  0  0  0  0
  162.0730  208.6350  150.2070 N   0  0  0  0  0  0  0  0  0  0  0  0
  160.8770  206.4780  149.8570 C   0  0  0  0  0  2  0  0  0  0  0  0
  161.6740  205.2450  147.8110 N   0  0  0  0  0  0  0  0  0  0  0  0
  162.0750  207.6650  147.9500 C   0  0  0  0  0  2  0  0  0  0  0  0
  161.4540  206.5310  147.1380 C   0  0  0  0  0  2  0  0  0  0  0  0
  160.7940  205.2080  148.9930 C   0  0  0  0  0  2  0  0  0  0  0  0
  162.0520  207.3820  149.4570 C   0  0  0  0  0  3  0  0  0  0  0  0
  161.2790  204.1600  146.8930 C   0  0  0  0  0  3  0  0  0  0  0  0
  161.3320  202.8050  147.5870 C   0  0  0  0  0  1  0  0  0  0  0  0
  162.2160  204.0840  145.6950 C   0  0  0  0  0  1  0  0  0  0  0  0
  162.3620  208.6410  151.6460 C   0  0  0  0  0  2  0  0  0  0  0  0
  161.1580  209.1450  152.4350 C   0  0  0  0  0  2  0  0  0  0  0  0
  160.1660  208.9910  156.1450 C   0  0  0  0  0  2  0  0  0  0  0  0
  159.6080  207.5830  156.0450 C   0  0  0  0  0  2  0  0  0  0  0  0
  161.2600  208.7830  153.9090 C   0  0  2  0  0  3  0  0  0  0  0  0
  161.0950  207.2930  154.0690 C   0  0  0  0  0  3  0  0  0  0  0  0
  160.3850  206.7470  155.0660 C   0  0  0  0  0  3  0  0  0  0  0  0
  160.2520  209.5810  154.7440 C   0  0  2  0  0  3  0  0  0  0  0  0
  160.6410  210.9460  154.8130 O   0  0  0  0  0  0  0  0  0  0  0  0
  160.3160  211.7660  155.8950 C   0  0  0  0  0  0  0  0  0  0  0  0
  161.1360  211.8860  156.8410 O   0  0  0  0  0  0  0  0  0  0  0  0
  159.0400  212.5460  155.9360 C   0  0  0  0  0  2  0  0  0  0  0  0
  157.8860  211.6860  156.4230 C   0  0  0  0  0  2  0  0  0  0  0  0
  156.0310  211.7620  154.9810 C   0  0  0  0  0  2  0  0  0  0  0  0
  157.1320  211.1940  155.3050 N   0  0  0  0  0  0  0  0  0  0  0  0
  162.5010  213.8470  145.4390 C   0  0  0  0  0  2  0  0  0  0  0  0
  161.7160  213.0860  144.3860 C   0  0  0  0  0  2  0  0  0  0  0  0
  162.5200  213.0000  143.0990 C   0  0  0  0  0  2  0  0  0  0  0  0
  161.6980  213.3910  141.9650 N   0  0  0  0  0  2  0  0  0  0  0  0
  162.2150  212.7130  140.7900 C   0  0  0  0  0  2  0  0  0  0  0  0
  161.7770  208.0010  139.6260 C   0  0  0  0  0  0  0  0  0  0  0  0
  162.8520  211.4000  137.5170 C   0  0  0  0  0  1  0  0  0  0  0  0
  161.9030  210.4640  138.2410 C   0  0  2  0  0  0  0  0  0  0  0  0
  161.6030  211.3160  140.6860 C   0  0  2  0  0  3  0  0  0  0  0  0
  160.4740  211.0050  138.0350 C   0  0  2  0  0  3  0  0  0  0  0  0
  162.3690  210.3900  139.7380 C   0  0  1  0  0  3  0  0  0  0  0  0
  161.7210  206.8640  140.1590 O   0  0  0  0  0  0  0  0  0  0  0  0
  159.8200  208.7180  138.5320 O   0  0  0  0  0  0  0  0  0  0  0  0
  160.0120  211.9260  139.1650 C   0  0  0  0  0  2  0  0  0  0  0  0
  159.5260  209.8380  137.7260 C   0  0  1  0  0  3  0  0  0  0  0  0
  162.3910  209.0630  140.2780 O   0  0  0  0  0  0  0  0  0  0  0  0
  161.9890  209.1920  137.6180 O   0  0  0  0  0  0  0  0  0  0  0  0
  160.2180  211.3310  140.4210 O   0  0  0  0  0  0  0  0  0  0  0  0
  161.1520  208.2650  138.3070 C   0  0  1  0  0  3  0  0  0  0  0  0
  157.2980  209.6890  138.8620 C   0  0  0  0  0  2  0  0  0  0  0  0
  158.0410  210.2390  137.7290 C   0  0  2  0  0  3  0  0  0  0  0  0
  157.1960  209.0500  137.5390 N   0  0  0  0  0  2  0  0  0  0  0  0
  2  6  2  0  0  0  0
  2  3  1  0  0  0  0
  3  5  2  0  0  0  0
  4  1  2  0  0  0  0
  5  1  1  0  0  0  0
  5  7  1  0  0  0  0
  6  4  1  0  0  0  0
  7  8  2  0  0  0  0
  8  9  1  0  0  0  0
  9 19  1  0  0  0  0
 11 14  1  0  0  0  0
 12 15  1  0  0  0  0
 13 11  1  0  0  0  0
 13 12  1  0  0  0  0
 14 10  1  0  0  0  0
 15 10  1  0  0  0  0
 15  9  1  0  0  0  0
 16 17  1  0  0  0  0
 16 11  1  0  0  0  0
 18 16  1  0  0  0  0
 19 20  1  0  0  0  0
 22 21  1  0  0  0  0
 23 20  1  6  0  0  0
 23 24  1  0  0  0  0
 23 26  1  0  0  0  0
 24 25  2  0  0  0  0
 25 22  1  0  0  0  0
 26 27  1  1  0  0  0
 26 21  1  0  0  0  0
 27 28  1  0  0  0  0
 28 30  1  0  0  0  0
 28 29  2  0  0  0  0
 30 31  1  0  0  0  0
 32 33  2  0  0  0  0
 33 31  1  0  0  0  0
 34  2  1  0  0  0  0
 35 34  1  0  0  0  0
 36 35  1  0  0  0  0
 37 36  1  0  0  0  0
 38 37  1  0  0  0  0
 39 45  2  0  0  0  0
 39 49  1  0  0  0  0
 41 40  1  6  0  0  0
 41 44  1  0  0  0  0
 42 38  1  6  0  0  0
 43 41  1  0  0  0  0
 43 47  1  1  0  0  0
 44 49  1  1  0  0  0
 44 42  1  0  0  0  0
 47 51  1  0  0  0  0
 48 54  1  0  0  0  0
 48 43  1  0  0  0  0
 48 46  1  1  0  0  0
 50 41  1  0  0  0  0
 51 42  1  0  0  0  0
 52 50  1  1  0  0  0
 52 46  1  0  0  0  0
 52 39  1  0  0  0  0
 54 53  1  1  0  0  0
 55 54  1  0  0  0  0
 55 53  1  0  0  0  0
M  END
>  <MODEL>
2

>  <REMARK>
 VINA RESULT:      -7.7      2.510      6.324
  Name = 
  19 active torsions:
  status: ('A' for Active; 'I' for Inactive)
    1  A    between atoms: C_2  and  C_44
    2  A    between atoms: C_4  and  N_37
    3  A    between atoms: C_4  and  C_40
    4  A    between atoms: C_5  and  C_40
    5  A    between atoms: C_5  and  O_45
    6  A    between atoms: C_7  and  C_22
    7  A    between atoms: N_8  and  C_22
    8  A    between atoms: N_8  and  C_43
    9  A    between atoms: C_10  and  N_32
   10  A    between atoms: C_12  and  C_38
   11  A    between atoms: C_16  and  C_36
   12  A    between atoms: C_26  and  O_45
   13  A    between atoms: C_27  and  C_54
   14  A    between atoms: C_28  and  N_49
   15  A    between atoms: C_33  and  C_36
   16  A    between atoms: C_33  and  N_49
   17  A    between atoms: C_43  and  C_51
   18  A    between atoms: N_49  and  C_52
   19  A    between atoms: C_51  and  C_54
                            x       y       z     vdW  Elec       q    Type
                         _______ _______ _______ _____ _____    ______ ____

>  <TORSDO>
F 19

$$$$
=
 OpenBabel11062408423D

 55 61  0  0  1  0  0  0  0  0999 V2000
  163.0040  212.9340  148.1940 C   0  0  0  0  0  3  0  0  0  0  0  0
  160.7370  212.9870  146.5570 C   0  0  0  0  0  0  0  0  0  0  0  0
  161.0050  211.8640  147.3450 C   0  0  0  0  0  3  0  0  0  0  0  0
  162.7410  214.0550  147.4010 C   0  0  0  0  0  3  0  0  0  0  0  0
  162.1360  211.8320  148.1680 C   0  0  0  0  0  0  0  0  0  0  0  0
  161.6070  214.0810  146.5800 C   0  0  0  0  0  3  0  0  0  0  0  0
  162.3710  210.6340  148.9800 C   0  0  0  0  0  3  0  0  0  0  0  0
  161.6380  209.5280  148.8920 C   0  0  0  0  0  3  0  0  0  0  0  0
  161.9000  208.3750  149.7050 N   0  0  0  0  0  0  0  0  0  0  0  0
  160.7490  209.5360  151.5840 C   0  0  0  0  0  2  0  0  0  0  0  0
  161.3490  208.5770  153.8340 N   0  0  0  0  0  0  0  0  0  0  0  0
  161.6770  207.1790  151.8390 C   0  0  0  0  0  2  0  0  0  0  0  0
  161.0080  207.2930  153.2070 C   0  0  0  0  0  2  0  0  0  0  0  0
  160.6130  209.6310  153.1140 C   0  0  0  0  0  2  0  0  0  0  0  0
  161.8370  208.5420  151.1540 C   0  0  0  0  0  3  0  0  0  0  0  0
  160.8900  208.5520  155.2360 C   0  0  0  0  0  3  0  0  0  0  0  0
  160.3250  207.1880  155.6060 C   0  0  0  0  0  1  0  0  0  0  0  0
  159.7830  209.5720  155.4700 C   0  0  0  0  0  1  0  0  0  0  0  0
  162.4310  207.1390  149.1170 C   0  0  0  0  0  2  0  0  0  0  0  0
  161.3610  206.4320  148.2920 C   0  0  0  0  0  2  0  0  0  0  0  0
  161.6270  203.3000  146.0800 C   0  0  0  0  0  2  0  0  0  0  0  0
  161.2500  204.0390  144.8080 C   0  0  0  0  0  2  0  0  0  0  0  0
  161.9710  205.4520  147.3010 C   0  0  2  0  0  3  0  0  0  0  0  0
  162.0570  206.1030  145.9440 C   0  0  0  0  0  3  0  0  0  0  0  0
  161.7760  205.4480  144.8090 C   0  0  0  0  0  3  0  0  0  0  0  0
  161.1870  204.1340  147.2750 C   0  0  2  0  0  3  0  0  0  0  0  0
  161.4010  203.4100  148.4790 O   0  0  0  0  0  0  0  0  0  0  0  0
  160.7810  202.1870  148.7410 C   0  0  0  0  0  0  0  0  0  0  0  0
  159.6760  201.9330  148.1980 O   0  0  0  0  0  0  0  0  0  0  0  0
  161.4190  201.1510  149.6110 C   0  0  0  0  0  2  0  0  0  0  0  0
  161.0580  201.3640  151.0730 C   0  0  0  0  0  2  0  0  0  0  0  0
  161.5250  203.5210  151.8810 C   0  0  0  0  0  2  0  0  0  0  0  0
  160.7000  202.7360  151.2970 N   0  0  0  0  0  0  0  0  0  0  0  0
  159.5310  213.0010  145.6850 C   0  0  0  0  0  2  0  0  0  0  0  0
  159.8240  213.7320  144.3860 C   0  0  0  0  0  2  0  0  0  0  0  0
  160.3630  212.7580  143.3510 C   0  0  0  0  0  2  0  0  0  0  0  0
  160.1150  213.2620  142.0100 N   0  0  0  0  0  2  0  0  0  0  0  0
  161.1410  212.7190  141.1380 C   0  0  0  0  0  2  0  0  0  0  0  0
  161.6040  208.2660  139.2130 C   0  0  0  0  0  0  0  0  0  0  0  0
  162.3130  212.0970  137.8090 C   0  0  0  0  0  1  0  0  0  0  0  0
  161.4640  210.9220  138.2530 C   0  0  2  0  0  0  0  0  0  0  0  0
  160.7810  211.2870  140.7430 C   0  0  2  0  0  3  0  0  0  0  0  0
  159.9930  211.2770  137.9530 C   0  0  2  0  0  3  0  0  0  0  0  0
  161.7810  210.6600  139.7680 C   0  0  1  0  0  3  0  0  0  0  0  0
  161.6820  207.0580  139.5530 O   0  0  0  0  0  0  0  0  0  0  0  0
  159.6770  208.8680  138.0040 O   0  0  0  0  0  0  0  0  0  0  0  0
  159.2730  211.9120  139.1440 C   0  0  0  0  0  2  0  0  0  0  0  0
  159.2860  210.0550  137.3500 C   0  0  1  0  0  3  0  0  0  0  0  0
  161.9660  209.2770  140.0950 O   0  0  0  0  0  0  0  0  0  0  0  0
  161.8200  209.8030  137.4570 O   0  0  0  0  0  0  0  0  0  0  0  0
  159.4460  211.1460  140.3090 O   0  0  0  0  0  0  0  0  0  0  0  0
  161.0820  208.6590  137.8830 C   0  0  1  0  0  3  0  0  0  0  0  0
  157.0320  209.7680  138.4050 C   0  0  0  0  0  2  0  0  0  0  0  0
  157.7630  210.2290  137.2260 C   0  0  2  0  0  3  0  0  0  0  0  0
  157.1040  208.9150  137.2080 N   0  0  0  0  0  2  0  0  0  0  0  0
  2  6  2  0  0  0  0
  2  3  1  0  0  0  0
  3  5  2  0  0  0  0
  4  1  2  0  0  0  0
  5  1  1  0  0  0  0
  5  7  1  0  0  0  0
  6  4  1  0  0  0  0
  8  7  2  0  0  0  0
  8  9  1  0  0  0  0
  9 15  1  0  0  0  0
 10 14  1  0  0  0  0
 11 16  1  0  0  0  0
 12 13  1  0  0  0  0
 13 11  1  0  0  0  0
 14 11  1  0  0  0  0
 15 10  1  0  0  0  0
 15 12  1  0  0  0  0
 16 18  1  0  0  0  0
 16 17  1  0  0  0  0
 19  9  1  0  0  0  0
 20 19  1  0  0  0  0
 21 26  1  0  0  0  0
 22 25  1  0  0  0  0
 22 21  1  0  0  0  0
 23 20  1  1  0  0  0
 24 23  1  0  0  0  0
 25 24  2  0  0  0  0
 26 23  1  0  0  0  0
 26 27  1  1  0  0  0
 27 28  1  0  0  0  0
 28 30  1  0  0  0  0
 29 28  2  0  0  0  0
 30 31  1  0  0  0  0
 31 33  1  0  0  0  0
 33 32  2  0  0  0  0
 34  2  1  0  0  0  0
 35 34  1  0  0  0  0
 36 35  1  0  0  0  0
 37 36  1  0  0  0  0
 38 37  1  0  0  0  0
 39 45  2  0  0  0  0
 39 49  1  0  0  0  0
 41 40  1  6  0  0  0
 41 44  1  0  0  0  0
 42 38  1  6  0  0  0
 43 41  1  0  0  0  0
 43 47  1  1  0  0  0
 44 49  1  6  0  0  0
 44 42  1  0  0  0  0
 47 51  1  0  0  0  0
 48 43  1  0  0  0  0
 48 46  1  1  0  0  0
 50 41  1  0  0  0  0
 51 42  1  0  0  0  0
 52 50  1  1  0  0  0
 52 46  1  0  0  0  0
 52 39  1  0  0  0  0
 54 48  1  0  0  0  0
 54 53  1  1  0  0  0
 55 54  1  0  0  0  0
 55 53  1  0  0  0  0
M  END
>  <MODEL>
3

>  <REMARK>
 VINA RESULT:      -7.3      1.430      2.717
  Name = 
  19 active torsions:
  status: ('A' for Active; 'I' for Inactive)
    1  A    between atoms: C_2  and  C_44
    2  A    between atoms: C_4  and  N_37
    3  A    between atoms: C_4  and  C_40
    4  A    between atoms: C_5  and  C_40
    5  A    between atoms: C_5  and  O_45
    6  A    between atoms: C_7  and  C_22
    7  A    between atoms: N_8  and  C_22
    8  A    between atoms: N_8  and  C_43
    9  A    between atoms: C_10  and  N_32
   10  A    between atoms: C_12  and  C_38
   11  A    between atoms: C_16  and  C_36
   12  A    between atoms: C_26  and  O_45
   13  A    between atoms: C_27  and  C_54
   14  A    between atoms: C_28  and  N_49
   15  A    between atoms: C_33  and  C_36
   16  A    between atoms: C_33  and  N_49
   17  A    between atoms: C_43  and  C_51
   18  A    between atoms: N_49  and  C_52
   19  A    between atoms: C_51  and  C_54
                            x       y       z     vdW  Elec       q    Type
                         _______ _______ _______ _____ _____    ______ ____

>  <TORSDO>
F 19

$$$$
=
 OpenBabel11062408423D

 55 61  0  0  1  0  0  0  0  0999 V2000
  161.2610  213.2800  149.0370 C   0  0  0  0  0  3  0  0  0  0  0  0
  162.2840  213.4070  146.4370 C   0  0  0  0  0  0  0  0  0  0  0  0
  162.5740  212.3080  147.2510 C   0  0  0  0  0  3  0  0  0  0  0  0
  160.9740  214.3830  148.2260 C   0  0  0  0  0  3  0  0  0  0  0  0
  162.0640  212.2370  148.5510 C   0  0  0  0  0  0  0  0  0  0  0  0
  161.4880  214.4470  146.9260 C   0  0  0  0  0  3  0  0  0  0  0  0
  162.3930  211.0620  149.3640 C   0  0  0  0  0  3  0  0  0  0  0  0
  161.6300  209.9740  149.4280 C   0  0  0  0  0  3  0  0  0  0  0  0
  161.9850  208.8420  150.2370 N   0  0  0  0  0  0  0  0  0  0  0  0
  161.2570  206.4710  150.4630 C   0  0  0  0  0  2  0  0  0  0  0  0
  161.4880  205.1740  148.3160 N   0  0  0  0  0  0  0  0  0  0  0  0
  161.3620  207.6250  148.1960 C   0  0  0  0  0  2  0  0  0  0  0  0
  160.7530  206.3040  147.7330 C   0  0  0  0  0  2  0  0  0  0  0  0
  161.1440  205.1130  149.7480 C   0  0  0  0  0  2  0  0  0  0  0  0
  161.9650  207.5270  149.6030 C   0  0  0  0  0  3  0  0  0  0  0  0
  161.0320  203.9310  147.6670 C   0  0  0  0  0  3  0  0  0  0  0  0
  161.1070  202.7500  148.6240 C   0  0  0  0  0  1  0  0  0  0  0  0
  161.9030  203.5860  146.4650 C   0  0  0  0  0  1  0  0  0  0  0  0
  162.1390  208.9700  151.6900 C   0  0  0  0  0  2  0  0  0  0  0  0
  161.8400  210.3960  152.1410 C   0  0  0  0  0  2  0  0  0  0  0  0
  159.8120  211.5260  155.2040 C   0  0  0  0  0  2  0  0  0  0  0  0
  158.8910  212.4220  154.3950 C   0  0  0  0  0  2  0  0  0  0  0  0
  160.6840  210.4430  153.1290 C   0  0  2  0  0  3  0  0  0  0  0  0
  159.4590  210.9890  152.4390 C   0  0  0  0  0  3  0  0  0  0  0  0
  158.6200  211.8490  153.0310 C   0  0  0  0  0  3  0  0  0  0  0  0
  161.0610  211.2420  154.3820 C   0  0  2  0  0  3  0  0  0  0  0  0
  162.0040  210.5200  155.1610 O   0  0  0  0  0  0  0  0  0  0  0  0
  161.6440  209.8120  156.3100 C   0  0  0  0  0  0  0  0  0  0  0  0
  161.0940  210.4250  157.2600 O   0  0  0  0  0  0  0  0  0  0  0  0
  161.8510  208.3340  156.4210 C   0  0  0  0  0  2  0  0  0  0  0  0
  161.4600  207.6260  155.1340 C   0  0  0  0  0  2  0  0  0  0  0  0
  159.5520  207.0410  156.3760 C   0  0  0  0  0  2  0  0  0  0  0  0
  160.1110  207.1410  155.2300 N   0  0  0  0  0  0  0  0  0  0  0  0
  162.8390  213.4660  145.0580 C   0  0  0  0  0  2  0  0  0  0  0  0
  161.8200  212.9550  144.0540 C   0  0  0  0  0  2  0  0  0  0  0  0
  162.5110  212.6060  142.7450 C   0  0  0  0  0  2  0  0  0  0  0  0
  162.1510  213.5680  141.7150 N   0  0  0  0  0  2  0  0  0  0  0  0
  162.3120  212.9160  140.4270 C   0  0  0  0  0  2  0  0  0  0  0  0
  161.7380  208.1320  139.7000 C   0  0  0  0  0  0  0  0  0  0  0  0
  162.8440  211.3010  137.2730 C   0  0  0  0  0  1  0  0  0  0  0  0
  161.8910  210.4570  138.0970 C   0  0  2  0  0  0  0  0  0  0  0  0
  161.6660  211.5320  140.4620 C   0  0  2  0  0  3  0  0  0  0  0  0
  160.4700  211.0140  137.8720 C   0  0  2  0  0  3  0  0  0  0  0  0
  162.3890  210.5050  139.5850 C   0  0  1  0  0  3  0  0  0  0  0  0
  161.6670  207.0480  140.3340 O   0  0  0  0  0  0  0  0  0  0  0  0
  159.7740  208.7970  138.5860 O   0  0  0  0  0  0  0  0  0  0  0  0
  160.0550  212.0430  138.9250 C   0  0  0  0  0  2  0  0  0  0  0  0
  159.4880  209.8480  137.6890 C   0  0  1  0  0  3  0  0  0  0  0  0
  162.3920  209.2320  140.2420 O   0  0  0  0  0  0  0  0  0  0  0  0
  161.9330  209.1330  137.5900 O   0  0  0  0  0  0  0  0  0  0  0  0
  160.2760  211.5580  140.2250 O   0  0  0  0  0  0  0  0  0  0  0  0
  161.0910  208.2930  138.3760 C   0  0  1  0  0  3  0  0  0  0  0  0
  157.2560  209.7660  138.8240 C   0  0  0  0  0  2  0  0  0  0  0  0
  158.0140  210.2850  137.6860 C   0  0  2  0  0  3  0  0  0  0  0  0
  157.1410  209.1150  137.5080 N   0  0  0  0  0  2  0  0  0  0  0  0
  2  6  2  0  0  0  0
  2  3  1  0  0  0  0
  3  5  2  0  0  0  0
  4  1  2  0  0  0  0
  5  1  1  0  0  0  0
  5  7  1  0  0  0  0
  6  4  1  0  0  0  0
  7  8  2  0  0  0  0
  8  9  1  0  0  0  0
  9 19  1  0  0  0  0
 11 14  1  0  0  0  0
 12 15  1  0  0  0  0
 13 12  1  0  0  0  0
 13 11  1  0  0  0  0
 14 10  1  0  0  0  0
 15  9  1  0  0  0  0
 15 10  1  0  0  0  0
 16 11  1  0  0  0  0
 16 17  1  0  0  0  0
 18 16  1  0  0  0  0
 19 20  1  0  0  0  0
 22 21  1  0  0  0  0
 23 20  1  6  0  0  0
 23 26  1  0  0  0  0
 24 25  2  0  0  0  0
 24 23  1  0  0  0  0
 25 22  1  0  0  0  0
 26 27  1  1  0  0  0
 26 21  1  0  0  0  0
 27 28  1  0  0  0  0
 28 30  1  0  0  0  0
 28 29  2  0  0  0  0
 31 33  1  0  0  0  0
 31 30  1  0  0  0  0
 33 32  2  0  0  0  0
 34  2  1  0  0  0  0
 35 34  1  0  0  0  0
 36 35  1  0  0  0  0
 37 36  1  0  0  0  0
 38 37  1  0  0  0  0
 39 49  1  0  0  0  0
 39 45  2  0  0  0  0
 41 40  1  6  0  0  0
 41 44  1  0  0  0  0
 42 38  1  6  0  0  0
 43 41  1  0  0  0  0
 43 47  1  1  0  0  0
 44 49  1  1  0  0  0
 44 42  1  0  0  0  0
 47 51  1  0  0  0  0
 48 43  1  0  0  0  0
 48 46  1  1  0  0  0
 50 41  1  0  0  0  0
 51 42  1  0  0  0  0
 52 50  1  6  0  0  0
 52 46  1  0  0  0  0
 52 39  1  0  0  0  0
 54 48  1  0  0  0  0
 54 53  1  1  0  0  0
 55 54  1  0  0  0  0
 55 53  1  0  0  0  0
M  END
>  <MODEL>
4

>  <REMARK>
 VINA RESULT:      -7.0      2.414      6.067
  Name = 
  19 active torsions:
  status: ('A' for Active; 'I' for Inactive)
    1  A    between atoms: C_2  and  C_44
    2  A    between atoms: C_4  and  N_37
    3  A    between atoms: C_4  and  C_40
    4  A    between atoms: C_5  and  C_40
    5  A    between atoms: C_5  and  O_45
    6  A    between atoms: C_7  and  C_22
    7  A    between atoms: N_8  and  C_22
    8  A    between atoms: N_8  and  C_43
    9  A    between atoms: C_10  and  N_32
   10  A    between atoms: C_12  and  C_38
   11  A    between atoms: C_16  and  C_36
   12  A    between atoms: C_26  and  O_45
   13  A    between atoms: C_27  and  C_54
   14  A    between atoms: C_28  and  N_49
   15  A    between atoms: C_33  and  C_36
   16  A    between atoms: C_33  and  N_49
   17  A    between atoms: C_43  and  C_51
   18  A    between atoms: N_49  and  C_52
   19  A    between atoms: C_51  and  C_54
                            x       y       z     vdW  Elec       q    Type
                         _______ _______ _______ _____ _____    ______ ____

>  <TORSDO>
F 19

$$$$
=
 OpenBabel11062408423D

 55 61  0  0  1  0  0  0  0  0999 V2000
  163.2310  212.3820  148.3010 C   0  0  0  0  0  3  0  0  0  0  0  0
  160.7800  213.0690  147.1390 C   0  0  0  0  0  0  0  0  0  0  0  0
  160.9470  211.8130  147.7300 C   0  0  0  0  0  3  0  0  0  0  0  0
  163.0670  213.6360  147.7040 C   0  0  0  0  0  3  0  0  0  0  0  0
  162.1690  211.4640  148.3150 C   0  0  0  0  0  0  0  0  0  0  0  0
  161.8420  213.9790  147.1210 C   0  0  0  0  0  3  0  0  0  0  0  0
  162.2940  210.1370  148.9270 C   0  0  0  0  0  3  0  0  0  0  0  0
  161.2720  209.3010  149.0860 C   0  0  0  0  0  3  0  0  0  0  0  0
  161.4340  208.0090  149.6900 N   0  0  0  0  0  0  0  0  0  0  0  0
  161.0360  205.5980  149.2070 C   0  0  0  0  0  2  0  0  0  0  0  0
  161.9710  204.8850  146.9800 N   0  0  0  0  0  0  0  0  0  0  0  0
  161.5140  207.2720  147.3490 C   0  0  0  0  0  2  0  0  0  0  0  0
  161.2390  206.0530  146.4710 C   0  0  0  0  0  2  0  0  0  0  0  0
  161.3040  204.4490  148.2180 C   0  0  0  0  0  2  0  0  0  0  0  0
  161.7650  206.8900  148.8130 C   0  0  0  0  0  3  0  0  0  0  0  0
  161.8770  203.8010  145.9840 C   0  0  0  0  0  3  0  0  0  0  0  0
  161.1740  204.2740  144.7200 C   0  0  0  0  0  1  0  0  0  0  0  0
  161.0770  202.6240  146.5260 C   0  0  0  0  0  1  0  0  0  0  0  0
  161.0600  207.7760  151.0900 C   0  0  0  0  0  2  0  0  0  0  0  0
  161.2750  209.0370  151.9220 C   0  0  0  0  0  2  0  0  0  0  0  0
  160.4840  208.8610  155.6790 C   0  0  0  0  0  2  0  0  0  0  0  0
  160.0500  207.4070  155.6260 C   0  0  0  0  0  2  0  0  0  0  0  0
  161.4810  208.7110  153.3940 C   0  0  2  0  0  3  0  0  0  0  0  0
  161.4590  207.2150  153.5820 C   0  0  0  0  0  3  0  0  0  0  0  0
  160.8510  206.6260  154.6200 C   0  0  0  0  0  3  0  0  0  0  0  0
  160.4470  209.4310  154.2680 C   0  0  2  0  0  3  0  0  0  0  0  0
  160.7150  210.8260  154.2990 O   0  0  0  0  0  0  0  0  0  0  0  0
  159.7270  211.7870  154.0740 C   0  0  0  0  0  0  0  0  0  0  0  0
  158.7810  211.8960  154.8950 O   0  0  0  0  0  0  0  0  0  0  0  0
  159.7900  212.7230  152.9090 C   0  0  0  0  0  2  0  0  0  0  0  0
  158.5650  212.5760  152.0210 C   0  0  0  0  0  2  0  0  0  0  0  0
  159.6250  214.0470  150.5250 C   0  0  0  0  0  2  0  0  0  0  0  0
  158.5340  213.6320  151.0470 N   0  0  0  0  0  0  0  0  0  0  0  0
  159.4740  213.4210  146.5190 C   0  0  0  0  0  2  0  0  0  0  0  0
  159.2490  212.6050  145.2580 C   0  0  0  0  0  2  0  0  0  0  0  0
  160.4910  212.6490  144.3820 C   0  0  0  0  0  2  0  0  0  0  0  0
  160.2820  211.8640  143.1760 N   0  0  0  0  0  2  0  0  0  0  0  0
  160.3110  212.7760  142.0460 C   0  0  0  0  0  2  0  0  0  0  0  0
  163.5630  213.2500  138.4470 C   0  0  0  0  0  0  0  0  0  0  0  0
  159.4270  213.0850  138.5860 C   0  0  0  0  0  1  0  0  0  0  0  0
  160.8360  212.5350  138.6810 C   0  0  2  0  0  0  0  0  0  0  0  0
  161.5470  212.5010  141.1890 C   0  0  2  0  0  3  0  0  0  0  0  0
  160.7240  211.0050  138.8470 C   0  0  2  0  0  3  0  0  0  0  0  0
  161.5500  213.2740  139.8680 C   0  0  1  0  0  3  0  0  0  0  0  0
  164.7640  213.5620  138.2500 O   0  0  0  0  0  0  0  0  0  0  0  0
  162.9980  211.0110  137.9880 O   0  0  0  0  0  0  0  0  0  0  0  0
  160.7320  210.5570  140.3090 C   0  0  0  0  0  2  0  0  0  0  0  0
  161.7700  210.3180  137.9570 C   0  0  1  0  0  3  0  0  0  0  0  0
  162.8820  213.7070  139.5690 O   0  0  0  0  0  0  0  0  0  0  0  0
  161.4900  212.8000  137.4500 O   0  0  0  0  0  0  0  0  0  0  0  0
  161.8080  211.1270  141.0090 O   0  0  0  0  0  0  0  0  0  0  0  0
  162.8400  212.3470  137.5180 C   0  0  1  0  0  3  0  0  0  0  0  0
  161.7320  207.9980  137.0120 C   0  0  0  0  0  2  0  0  0  0  0  0
  161.8970  208.8080  138.2180 C   0  0  2  0  0  3  0  0  0  0  0  0
  160.6120  208.1410  137.9570 N   0  0  0  0  0  2  0  0  0  0  0  0
  1  5  1  0  0  0  0
  2  3  1  0  0  0  0
  3  5  2  0  0  0  0
  4  1  2  0  0  0  0
  5  7  1  0  0  0  0
  6  2  2  0  0  0  0
  6  4  1  0  0  0  0
  7  8  2  0  0  0  0
  8  9  1  0  0  0  0
  9 19  1  0  0  0  0
 11 14  1  0  0  0  0
 12 15  1  0  0  0  0
 13 11  1  0  0  0  0
 13 12  1  0  0  0  0
 14 10  1  0  0  0  0
 15 10  1  0  0  0  0
 15  9  1  0  0  0  0
 16 18  1  0  0  0  0
 16 11  1  0  0  0  0
 17 16  1  0  0  0  0
 19 20  1  0  0  0  0
 22 21  1  0  0  0  0
 23 20  1  6  0  0  0
 23 24  1  0  0  0  0
 23 26  1  0  0  0  0
 24 25  2  0  0  0  0
 25 22  1  0  0  0  0
 26 27  1  1  0  0  0
 26 21  1  0  0  0  0
 28 27  1  0  0  0  0
 28 29  2  0  0  0  0
 30 28  1  0  0  0  0
 31 30  1  0  0  0  0
 32 33  2  0  0  0  0
 33 31  1  0  0  0  0
 34  2  1  0  0  0  0
 35 34  1  0  0  0  0
 36 35  1  0  0  0  0
 37 36  1  0  0  0  0
 38 37  1  0  0  0  0
 39 49  1  0  0  0  0
 41 40  1  6  0  0  0
 41 43  1  0  0  0  0
 41 44  1  0  0  0  0
 42 38  1  6  0  0  0
 43 47  1  1  0  0  0
 44 49  1  6  0  0  0
 44 42  1  0  0  0  0
 45 39  2  0  0  0  0
 47 51  1  0  0  0  0
 48 46  1  1  0  0  0
 48 54  1  0  0  0  0
 48 43  1  0  0  0  0
 50 41  1  0  0  0  0
 51 42  1  0  0  0  0
 52 50  1  1  0  0  0
 52 46  1  0  0  0  0
 52 39  1  0  0  0  0
 53 55  1  0  0  0  0
 54 53  1  6  0  0  0
 55 54  1  0  0  0  0
M  END
>  <MODEL>
5

>  <REMARK>
 VINA RESULT:      -6.8      2.655      6.460
  Name = 
  19 active torsions:
  status: ('A' for Active; 'I' for Inactive)
    1  A    between atoms: C_2  and  C_44
    2  A    between atoms: C_4  and  N_37
    3  A    between atoms: C_4  and  C_40
    4  A    between atoms: C_5  and  C_40
    5  A    between atoms: C_5  and  O_45
    6  A    between atoms: C_7  and  C_22
    7  A    between atoms: N_8  and  C_22
    8  A    between atoms: N_8  and  C_43
    9  A    between atoms: C_10  and  N_32
   10  A    between atoms: C_12  and  C_38
   11  A    between atoms: C_16  and  C_36
   12  A    between atoms: C_26  and  O_45
   13  A    between atoms: C_27  and  C_54
   14  A    between atoms: C_28  and  N_49
   15  A    between atoms: C_33  and  C_36
   16  A    between atoms: C_33  and  N_49
   17  A    between atoms: C_43  and  C_51
   18  A    between atoms: N_49  and  C_52
   19  A    between atoms: C_51  and  C_54
                            x       y       z     vdW  Elec       q    Type
                         _______ _______ _______ _____ _____    ______ ____

>  <TORSDO>
F 19

$$$$
=
 OpenBabel11062408423D

 55 61  0  0  1  0  0  0  0  0999 V2000
  161.3990  212.2380  149.4780 C   0  0  0  0  0  3  0  0  0  0  0  0
  161.6430  213.3270  146.9130 C   0  0  0  0  0  0  0  0  0  0  0  0
  162.0250  212.0040  147.1510 C   0  0  0  0  0  3  0  0  0  0  0  0
  161.0220  213.5640  149.2420 C   0  0  0  0  0  3  0  0  0  0  0  0
  161.9050  211.4520  148.4300 C   0  0  0  0  0  0  0  0  0  0  0  0
  161.1460  214.1100  147.9600 C   0  0  0  0  0  3  0  0  0  0  0  0
  162.3140  210.0580  148.6290 C   0  0  0  0  0  3  0  0  0  0  0  0
  161.5030  209.1110  149.0920 C   0  0  0  0  0  3  0  0  0  0  0  0
  161.9420  207.7570  149.2730 N   0  0  0  0  0  0  0  0  0  0  0  0
  162.3280  206.9130  146.9620 C   0  0  0  0  0  2  0  0  0  0  0  0
  161.1670  204.7220  146.5200 N   0  0  0  0  0  0  0  0  0  0  0  0
  161.6190  205.3590  148.8500 C   0  0  0  0  0  2  0  0  0  0  0  0
  161.8170  204.3000  147.7670 C   0  0  0  0  0  2  0  0  0  0  0  0
  161.9740  205.8130  145.9460 C   0  0  0  0  0  2  0  0  0  0  0  0
  161.5360  206.7760  148.2700 C   0  0  0  0  0  3  0  0  0  0  0  0
  161.1700  203.5850  145.5800 C   0  0  0  0  0  3  0  0  0  0  0  0
  160.0990  203.7510  144.5110 C   0  0  0  0  0  1  0  0  0  0  0  0
  160.8810  202.2750  146.3010 C   0  0  0  0  0  1  0  0  0  0  0  0
  162.5750  207.3270  150.5260 C   0  0  0  0  0  2  0  0  0  0  0  0
  162.3480  208.3600  151.6260 C   0  0  0  0  0  2  0  0  0  0  0  0
  160.5560  207.0100  154.7460 C   0  0  0  0  0  2  0  0  0  0  0  0
  160.2710  208.3910  155.3080 C   0  0  0  0  0  2  0  0  0  0  0  0
  161.1880  207.9740  152.5300 C   0  0  2  0  0  3  0  0  0  0  0  0
  160.4600  209.2200  152.9670 C   0  0  0  0  0  3  0  0  0  0  0  0
  160.0020  209.3890  154.2150 C   0  0  0  0  0  3  0  0  0  0  0  0
  161.6690  207.1260  153.7130 C   0  0  2  0  0  3  0  0  0  0  0  0
  162.0550  205.8330  153.2670 O   0  0  0  0  0  0  0  0  0  0  0  0
  161.2100  205.0130  152.5170 C   0  0  0  0  0  0  0  0  0  0  0  0
  160.0620  205.4300  152.2150 O   0  0  0  0  0  0  0  0  0  0  0  0
  161.6500  203.6730  152.0190 C   0  0  0  0  0  2  0  0  0  0  0  0
  160.5940  203.0450  151.1260 C   0  0  0  0  0  2  0  0  0  0  0  0
  160.7190  200.9420  150.0820 C   0  0  0  0  0  2  0  0  0  0  0  0
  161.2060  202.1170  150.2150 N   0  0  0  0  0  0  0  0  0  0  0  0
  161.7830  213.8980  145.5460 C   0  0  0  0  0  2  0  0  0  0  0  0
  160.8000  213.2400  144.5930 C   0  0  0  0  0  2  0  0  0  0  0  0
  161.5470  212.6020  143.4330 C   0  0  0  0  0  2  0  0  0  0  0  0
  161.4100  213.4190  142.2380 N   0  0  0  0  0  2  0  0  0  0  0  0
  162.1240  212.7510  141.1630 C   0  0  0  0  0  2  0  0  0  0  0  0
  161.7570  208.1460  139.6130 C   0  0  0  0  0  0  0  0  0  0  0  0
  162.8980  211.7030  137.8250 C   0  0  0  0  0  1  0  0  0  0  0  0
  161.9270  210.7110  138.4340 C   0  0  2  0  0  0  0  0  0  0  0  0
  161.5240  211.3660  140.9250 C   0  0  2  0  0  3  0  0  0  0  0  0
  160.5040  211.2640  138.2130 C   0  0  2  0  0  3  0  0  0  0  0  0
  162.3330  210.5190  139.9380 C   0  0  1  0  0  3  0  0  0  0  0  0
  161.6860  206.9700  140.0510 O   0  0  0  0  0  0  0  0  0  0  0  0
  159.8420  208.9430  138.5010 O   0  0  0  0  0  0  0  0  0  0  0  0
  159.9920  212.0910  139.3940 C   0  0  0  0  0  2  0  0  0  0  0  0
  159.5750  210.1230  137.7750 C   0  0  1  0  0  3  0  0  0  0  0  0
  162.3400  209.1540  140.3720 O   0  0  0  0  0  0  0  0  0  0  0  0
  162.0440  209.4920  137.7160 O   0  0  0  0  0  0  0  0  0  0  0  0
  160.1510  211.3990  140.6060 O   0  0  0  0  0  0  0  0  0  0  0  0
  161.1850  208.5120  138.2950 C   0  0  1  0  0  3  0  0  0  0  0  0
  157.3090  209.9010  138.8200 C   0  0  0  0  0  2  0  0  0  0  0  0
  158.0900  210.5200  137.7500 C   0  0  2  0  0  3  0  0  0  0  0  0
  157.2570  209.3420  137.4590 N   0  0  0  0  0  2  0  0  0  0  0  0
  2  3  2  0  0  0  0
  2  6  1  0  0  0  0
  3  5  1  0  0  0  0
  4  1  1  0  0  0  0
  5  7  1  0  0  0  0
  5  1  2  0  0  0  0
  6  4  2  0  0  0  0
  7  8  2  0  0  0  0
  8  9  1  0  0  0  0
  9 19  1  0  0  0  0
 10 15  1  0  0  0  0
 11 13  1  0  0  0  0
 13 12  1  0  0  0  0
 14 11  1  0  0  0  0
 14 10  1  0  0  0  0
 15 12  1  0  0  0  0
 15  9  1  0  0  0  0
 16 18  1  0  0  0  0
 16 11  1  0  0  0  0
 17 16  1  0  0  0  0
 19 20  1  0  0  0  0
 21 22  1  0  0  0  0
 23 20  1  1  0  0  0
 23 24  1  0  0  0  0
 23 26  1  0  0  0  0
 24 25  2  0  0  0  0
 25 22  1  0  0  0  0
 26 27  1  6  0  0  0
 26 21  1  0  0  0  0
 28 27  1  0  0  0  0
 29 28  2  0  0  0  0
 30 28  1  0  0  0  0
 31 30  1  0  0  0  0
 32 33  2  0  0  0  0
 33 31  1  0  0  0  0
 34  2  1  0  0  0  0
 35 34  1  0  0  0  0
 36 35  1  0  0  0  0
 37 36  1  0  0  0  0
 38 37  1  0  0  0  0
 39 45  2  0  0  0  0
 39 49  1  0  0  0  0
 41 40  1  6  0  0  0
 41 44  1  0  0  0  0
 42 38  1  6  0  0  0
 43 41  1  0  0  0  0
 43 47  1  1  0  0  0
 44 49  1  1  0  0  0
 44 42  1  0  0  0  0
 47 51  1  0  0  0  0
 48 43  1  0  0  0  0
 48 46  1  1  0  0  0
 50 41  1  0  0  0  0
 51 42  1  0  0  0  0
 52 50  1  1  0  0  0
 52 46  1  0  0  0  0
 52 39  1  0  0  0  0
 54 48  1  0  0  0  0
 54 53  1  1  0  0  0
 55 54  1  0  0  0  0
 55 53  1  0  0  0  0
M  END
>  <MODEL>
6

>  <REMARK>
 VINA RESULT:      -6.4      1.883      5.112
  Name = 
  19 active torsions:
  status: ('A' for Active; 'I' for Inactive)
    1  A    between atoms: C_2  and  C_44
    2  A    between atoms: C_4  and  N_37
    3  A    between atoms: C_4  and  C_40
    4  A    between atoms: C_5  and  C_40
    5  A    between atoms: C_5  and  O_45
    6  A    between atoms: C_7  and  C_22
    7  A    between atoms: N_8  and  C_22
    8  A    between atoms: N_8  and  C_43
    9  A    between atoms: C_10  and  N_32
   10  A    between atoms: C_12  and  C_38
   11  A    between atoms: C_16  and  C_36
   12  A    between atoms: C_26  and  O_45
   13  A    between atoms: C_27  and  C_54
   14  A    between atoms: C_28  and  N_49
   15  A    between atoms: C_33  and  C_36
   16  A    between atoms: C_33  and  N_49
   17  A    between atoms: C_43  and  C_51
   18  A    between atoms: N_49  and  C_52
   19  A    between atoms: C_51  and  C_54
                            x       y       z     vdW  Elec       q    Type
                         _______ _______ _______ _____ _____    ______ ____

>  <TORSDO>
F 19

$$$$
