=
 OpenBabel11062409483D

 34 39  0  0  0  0  0  0  0  0999 V2000
  161.4270  205.6750  149.7480 C   0  0  0  0  0  0  0  0  0  0  0  0
  161.5130  204.5900  146.0520 C   0  0  0  0  0  3  0  0  0  0  0  0
  161.8150  206.7110  147.1670 C   0  0  0  0  0  3  0  0  0  0  0  0
  161.3710  206.3530  152.1120 C   0  0  0  0  0  0  0  0  0  0  0  0
  161.2650  205.3420  151.1140 C   0  0  0  0  0  3  0  0  0  0  0  0
  161.7990  207.9750  150.3970 C   0  0  0  0  0  0  0  0  0  0  0  0
  162.0650  209.1480  149.7780 N   0  0  0  0  0  0  0  0  0  0  0  0
  161.6500  207.6970  151.7540 C   0  0  0  0  0  3  0  0  0  0  0  0
  161.8710  207.4890  148.2700 N   0  0  0  0  0  0  0  0  0  0  0  0
  161.6880  207.0000  149.4790 C   0  0  0  0  0  0  0  0  0  0  0  0
  162.1030  208.8110  148.4500 C   0  0  0  0  0  3  0  0  0  0  0  0
  161.3000  203.3040  145.8060 C   0  0  0  0  0  3  0  0  0  0  0  0
  161.0290  202.2000  146.7360 C   0  0  0  0  0  0  0  0  0  0  0  0
  160.9500  202.3220  148.0600 C   0  0  0  0  0  3  0  0  0  0  0  0
  161.5500  205.3260  147.3210 C   0  0  0  0  0  0  0  0  0  0  0  0
  161.0970  203.5010  148.9180 C   0  0  0  0  0  3  0  0  0  0  0  0
  161.3510  204.7860  148.6410 C   0  0  0  0  0  0  0  0  0  0  0  0
  160.8310  200.8580  146.1500 C   0  0  0  0  0  0  0  0  0  0  0  0
  160.0580  200.6950  144.9640 N   0  0  0  0  0  1  0  0  0  0  0  0
  161.3430  199.8390  146.6900 O   0  0  0  0  0  0  0  0  0  0  0  0
  161.2270  205.9870  153.5500 C   0  0  0  0  0  2  0  0  0  0  0  0
  159.6920  208.0360  156.3350 C   0  0  0  0  0  3  0  0  0  0  0  0
  160.9180  208.4500  153.8650 C   0  0  0  0  0  3  0  0  0  0  0  0
  158.4700  211.3320  156.0250 N   0  0  0  0  0  0  0  0  0  0  0  0
  158.9960  212.1860  155.0080 C   0  0  0  0  0  0  0  0  0  0  0  0
  159.3730  210.4480  156.7480 C   0  0  0  0  0  2  0  0  0  0  0  0
  158.2520  212.9980  154.3950 O   0  0  0  0  0  0  0  0  0  0  0  0
  159.8580  209.3430  155.8620 C   0  0  0  0  0  0  0  0  0  0  0  0
  157.0500  211.3140  156.3390 C   0  0  0  0  0  1  0  0  0  0  0  0
  160.7010  210.8260  154.0290 O   0  0  0  0  0  0  0  0  0  0  0  0
  160.4900  209.5590  154.6050 C   0  0  0  0  0  0  0  0  0  0  0  0
  160.4390  212.0810  154.6490 C   0  0  0  0  0  2  0  0  0  0  0  0
  160.7380  207.1510  154.3440 C   0  0  0  0  0  0  0  0  0  0  0  0
  160.1280  206.9460  155.5830 C   0  0  0  0  0  3  0  0  0  0  0  0
  1  5  1  0  0  0  0
  2 15  1  0  0  0  0
  3 15  2  0  0  0  0
  3  9  1  0  0  0  0
  4 21  1  0  0  0  0
  5  4  2  0  0  0  0
  6  8  2  0  0  0  0
  7  6  1  0  0  0  0
  8  4  1  0  0  0  0
  9 11  1  0  0  0  0
  9 10  1  0  0  0  0
 10  1  2  0  0  0  0
 10  6  1  0  0  0  0
 11  7  2  0  0  0  0
 12  2  2  0  0  0  0
 12 13  1  0  0  0  0
 13 14  2  0  0  0  0
 14 16  1  0  0  0  0
 15 17  1  0  0  0  0
 17 16  2  0  0  0  0
 17  1  1  0  0  0  0
 18 20  2  0  0  0  0
 18 13  1  0  0  0  0
 19 18  1  0  0  0  0
 21 33  1  0  0  0  0
 23 33  2  0  0  0  0
 23 31  1  0  0  0  0
 24 29  1  0  0  0  0
 24 26  1  0  0  0  0
 25 24  1  0  0  0  0
 27 25  2  0  0  0  0
 28 22  1  0  0  0  0
 28 26  1  0  0  0  0
 30 31  1  0  0  0  0
 30 32  1  0  0  0  0
 31 28  2  0  0  0  0
 32 25  1  0  0  0  0
 33 34  1  0  0  0  0
 34 22  2  0  0  0  0
M  END
>  <MODEL>
1

>  <REMARK>
 VINA RESULT:     -12.2      0.000      0.000
  Name = 
  3 active torsions:
  status: ('A' for Active; 'I' for Inactive)
    1  A    between atoms: C_3  and  C_25
    2  A    between atoms: C_8  and  C_18
    3  A    between atoms: C_18  and  C_30
                            x       y       z     vdW  Elec       q    Type
                         _______ _______ _______ _____ _____    ______ ____

>  <TORSDO>
F 3

$$$$
=
 OpenBabel11062409483D

 34 39  0  0  0  0  0  0  0  0999 V2000
  161.3850  207.2520  150.9120 C   0  0  0  0  0  0  0  0  0  0  0  0
  161.4940  204.9630  147.8150 C   0  0  0  0  0  3  0  0  0  0  0  0
  161.8620  207.3260  148.1460 C   0  0  0  0  0  3  0  0  0  0  0  0
  161.3140  208.7020  152.8990 C   0  0  0  0  0  0  0  0  0  0  0  0
  161.1840  207.4140  152.3040 C   0  0  0  0  0  3  0  0  0  0  0  0
  161.8390  209.6220  150.7460 C   0  0  0  0  0  0  0  0  0  0  0  0
  162.1640  210.5020  149.7720 N   0  0  0  0  0  0  0  0  0  0  0  0
  161.6540  209.8320  152.1110 C   0  0  0  0  0  3  0  0  0  0  0  0
  161.9300  208.4330  148.9170 N   0  0  0  0  0  0  0  0  0  0  0  0
  161.7040  208.3950  150.2140 C   0  0  0  0  0  0  0  0  0  0  0  0
  162.2130  209.7280  148.6410 C   0  0  0  0  0  3  0  0  0  0  0  0
  161.2320  203.6770  148.0180 C   0  0  0  0  0  3  0  0  0  0  0  0
  160.8990  202.9700  149.2600 C   0  0  0  0  0  0  0  0  0  0  0  0
  160.8000  203.5410  150.4600 C   0  0  0  0  0  3  0  0  0  0  0  0
  161.5380  206.0880  148.7560 C   0  0  0  0  0  0  0  0  0  0  0  0
  160.9810  204.9380  150.8660 C   0  0  0  0  0  3  0  0  0  0  0  0
  161.2920  206.0400  150.1740 C   0  0  0  0  0  0  0  0  0  0  0  0
  160.6570  201.5140  149.1640 C   0  0  0  0  0  0  0  0  0  0  0  0
  161.4630  200.7040  148.3130 N   0  0  0  0  0  1  0  0  0  0  0  0
  159.7360  200.9710  149.8320 O   0  0  0  0  0  0  0  0  0  0  0  0
  161.1280  208.8560  154.3700 C   0  0  0  0  0  2  0  0  0  0  0  0
  160.4680  212.2140  155.9830 C   0  0  0  0  0  3  0  0  0  0  0  0
  159.4120  210.6280  153.9470 C   0  0  0  0  0  3  0  0  0  0  0  0
  157.4080  213.9700  155.8920 N   0  0  0  0  0  0  0  0  0  0  0  0
  156.5000  213.7470  154.8120 C   0  0  0  0  0  0  0  0  0  0  0  0
  158.8370  214.0290  155.6180 C   0  0  0  0  0  2  0  0  0  0  0  0
  155.2550  213.7370  155.0050 O   0  0  0  0  0  0  0  0  0  0  0  0
  159.3660  212.6760  155.2550 C   0  0  0  0  0  0  0  0  0  0  0  0
  156.9370  214.1190  157.2590 C   0  0  0  0  0  1  0  0  0  0  0  0
  157.7210  212.2340  153.4200 O   0  0  0  0  0  0  0  0  0  0  0  0
  158.8290  211.8730  154.2100 C   0  0  0  0  0  0  0  0  0  0  0  0
  157.0450  213.4870  153.4490 C   0  0  0  0  0  2  0  0  0  0  0  0
  160.5060  210.1740  154.6870 C   0  0  0  0  0  0  0  0  0  0  0  0
  161.0370  210.9710  155.7030 C   0  0  0  0  0  3  0  0  0  0  0  0
  1  5  1  0  0  0  0
  2 12  2  0  0  0  0
  2 15  1  0  0  0  0
  3 15  2  0  0  0  0
  3  9  1  0  0  0  0
  4 21  1  0  0  0  0
  5  4  2  0  0  0  0
  6  8  2  0  0  0  0
  7  6  1  0  0  0  0
  8  4  1  0  0  0  0
  9 10  1  0  0  0  0
 10  6  1  0  0  0  0
 10  1  2  0  0  0  0
 11  9  1  0  0  0  0
 11  7  2  0  0  0  0
 12 13  1  0  0  0  0
 13 14  2  0  0  0  0
 14 16  1  0  0  0  0
 15 17  1  0  0  0  0
 17 16  2  0  0  0  0
 17  1  1  0  0  0  0
 18 13  1  0  0  0  0
 18 20  2  0  0  0  0
 19 18  1  0  0  0  0
 21 33  1  0  0  0  0
 23 31  2  0  0  0  0
 23 33  1  0  0  0  0
 24 29  1  0  0  0  0
 25 27  2  0  0  0  0
 25 24  1  0  0  0  0
 26 24  1  0  0  0  0
 28 26  1  0  0  0  0
 28 22  2  0  0  0  0
 30 32  1  0  0  0  0
 30 31  1  0  0  0  0
 31 28  1  0  0  0  0
 32 25  1  0  0  0  0
 33 34  2  0  0  0  0
 34 22  1  0  0  0  0
M  END
>  <MODEL>
2

>  <REMARK>
 VINA RESULT:     -12.0      1.872      2.760
  Name = 
  3 active torsions:
  status: ('A' for Active; 'I' for Inactive)
    1  A    between atoms: C_3  and  C_25
    2  A    between atoms: C_8  and  C_18
    3  A    between atoms: C_18  and  C_30
                            x       y       z     vdW  Elec       q    Type
                         _______ _______ _______ _____ _____    ______ ____

>  <TORSDO>
F 3

$$$$
=
 OpenBabel11062409483D

 34 39  0  0  0  0  0  0  0  0999 V2000
  161.3470  206.9130  150.6110 C   0  0  0  0  0  0  0  0  0  0  0  0
  161.1420  203.4080  149.0240 C   0  0  0  0  0  3  0  0  0  0  0  0
  161.1390  204.2000  151.3050 C   0  0  0  0  0  3  0  0  0  0  0  0
  161.4760  209.1570  151.6100 C   0  0  0  0  0  0  0  0  0  0  0  0
  161.4460  208.3170  150.4610 C   0  0  0  0  0  3  0  0  0  0  0  0
  161.3040  207.2160  153.0100 C   0  0  0  0  0  0  0  0  0  0  0  0
  161.2170  206.4290  154.1060 N   0  0  0  0  0  0  0  0  0  0  0  0
  161.3990  208.6030  152.9140 C   0  0  0  0  0  3  0  0  0  0  0  0
  161.1840  205.1790  152.2350 N   0  0  0  0  0  0  0  0  0  0  0  0
  161.2830  206.4500  151.9060 C   0  0  0  0  0  0  0  0  0  0  0  0
  161.1430  205.1620  153.5880 C   0  0  0  0  0  3  0  0  0  0  0  0
  161.1700  203.3550  147.6980 C   0  0  0  0  0  3  0  0  0  0  0  0
  161.2690  204.4400  146.7150 C   0  0  0  0  0  0  0  0  0  0  0  0
  161.3520  205.7350  147.0150 C   0  0  0  0  0  3  0  0  0  0  0  0
  161.1990  204.5570  149.9340 C   0  0  0  0  0  0  0  0  0  0  0  0
  161.3680  206.4110  148.3150 C   0  0  0  0  0  3  0  0  0  0  0  0
  161.3050  205.9470  149.5690 C   0  0  0  0  0  0  0  0  0  0  0  0
  161.2770  204.0580  145.2870 C   0  0  0  0  0  0  0  0  0  0  0  0
  161.6710  204.9980  144.2910 N   0  0  0  0  0  1  0  0  0  0  0  0
  160.9360  202.8970  144.9300 O   0  0  0  0  0  0  0  0  0  0  0  0
  161.5520  210.6360  151.4400 C   0  0  0  0  0  2  0  0  0  0  0  0
  159.8840  211.8330  154.6180 C   0  0  0  0  0  3  0  0  0  0  0  0
  159.5990  212.1430  151.8620 C   0  0  0  0  0  3  0  0  0  0  0  0
  156.5860  213.0620  154.8690 N   0  0  0  0  0  0  0  0  0  0  0  0
  155.9660  213.6530  153.7260 C   0  0  0  0  0  0  0  0  0  0  0  0
  157.9920  213.3310  155.1330 C   0  0  0  0  0  2  0  0  0  0  0  0
  154.7390  213.4810  153.4930 O   0  0  0  0  0  0  0  0  0  0  0  0
  158.8630  212.6510  154.1220 C   0  0  0  0  0  0  0  0  0  0  0  0
  155.8480  212.1840  155.7620 C   0  0  0  0  0  1  0  0  0  0  0  0
  157.7250  213.6080  152.1080 O   0  0  0  0  0  0  0  0  0  0  0  0
  158.7180  212.8180  152.7160 C   0  0  0  0  0  0  0  0  0  0  0  0
  156.7980  214.4530  152.7820 C   0  0  0  0  0  2  0  0  0  0  0  0
  160.6080  211.3230  152.3700 C   0  0  0  0  0  0  0  0  0  0  0  0
  160.7530  211.1720  153.7500 C   0  0  0  0  0  3  0  0  0  0  0  0
  1 10  1  0  0  0  0
  2 15  1  0  0  0  0
  3  9  1  0  0  0  0
  4  8  2  0  0  0  0
  5  1  2  0  0  0  0
  5  4  1  0  0  0  0
  6  7  1  0  0  0  0
  8  6  1  0  0  0  0
  9 11  1  0  0  0  0
 10  9  1  0  0  0  0
 10  6  2  0  0  0  0
 11  7  2  0  0  0  0
 12  2  2  0  0  0  0
 13 14  2  0  0  0  0
 13 12  1  0  0  0  0
 14 16  1  0  0  0  0
 15  3  2  0  0  0  0
 16 17  2  0  0  0  0
 17 15  1  0  0  0  0
 17  1  1  0  0  0  0
 18 13  1  0  0  0  0
 19 18  1  0  0  0  0
 20 18  2  0  0  0  0
 21  4  1  0  0  0  0
 21 33  1  0  0  0  0
 23 33  2  0  0  0  0
 23 31  1  0  0  0  0
 24 26  1  0  0  0  0
 24 29  1  0  0  0  0
 25 24  1  0  0  0  0
 27 25  2  0  0  0  0
 28 22  1  0  0  0  0
 28 26  1  0  0  0  0
 30 31  1  0  0  0  0
 30 32  1  0  0  0  0
 31 28  2  0  0  0  0
 32 25  1  0  0  0  0
 33 34  1  0  0  0  0
 34 22  2  0  0  0  0
M  END
>  <MODEL>
3

>  <REMARK>
 VINA RESULT:     -11.2      2.354      3.739
  Name = 
  3 active torsions:
  status: ('A' for Active; 'I' for Inactive)
    1  A    between atoms: C_3  and  C_25
    2  A    between atoms: C_8  and  C_18
    3  A    between atoms: C_18  and  C_30
                            x       y       z     vdW  Elec       q    Type
                         _______ _______ _______ _____ _____    ______ ____

>  <TORSDO>
F 3

$$$$
=
 OpenBabel11062409483D

 34 39  0  0  0  0  0  0  0  0999 V2000
  161.5860  206.7150  149.7920 C   0  0  0  0  0  0  0  0  0  0  0  0
  160.5760  203.0350  150.3210 C   0  0  0  0  0  3  0  0  0  0  0  0
  160.6950  204.9500  151.7870 C   0  0  0  0  0  3  0  0  0  0  0  0
  162.2300  209.0630  149.4390 C   0  0  0  0  0  0  0  0  0  0  0  0
  162.0310  207.7470  148.9320 C   0  0  0  0  0  3  0  0  0  0  0  0
  161.5430  208.3090  151.6110 C   0  0  0  0  0  0  0  0  0  0  0  0
  161.2300  208.3020  152.9260 N   0  0  0  0  0  0  0  0  0  0  0  0
  161.9780  209.3590  150.8040 C   0  0  0  0  0  3  0  0  0  0  0  0
  160.9500  206.2530  152.0410 N   0  0  0  0  0  0  0  0  0  0  0  0
  161.3690  207.0770  151.1020 C   0  0  0  0  0  0  0  0  0  0  0  0
  160.8640  207.0030  153.1640 C   0  0  0  0  0  3  0  0  0  0  0  0
  160.6320  202.2450  149.2560 C   0  0  0  0  0  3  0  0  0  0  0  0
  161.0260  202.5530  147.8760 C   0  0  0  0  0  0  0  0  0  0  0  0
  161.4150  203.7520  147.4440 C   0  0  0  0  0  3  0  0  0  0  0  0
  160.8850  204.4620  150.4690 C   0  0  0  0  0  0  0  0  0  0  0  0
  161.5550  205.0220  148.1620 C   0  0  0  0  0  3  0  0  0  0  0  0
  161.3410  205.3600  149.4400 C   0  0  0  0  0  0  0  0  0  0  0  0
  160.9850  201.4450  146.8990 C   0  0  0  0  0  0  0  0  0  0  0  0
  160.4450  201.6520  145.5960 N   0  0  0  0  0  1  0  0  0  0  0  0
  161.4260  200.3030  147.2030 O   0  0  0  0  0  0  0  0  0  0  0  0
  162.6720  210.1490  148.5180 C   0  0  0  0  0  2  0  0  0  0  0  0
  160.4290  213.0230  149.5250 C   0  0  0  0  0  3  0  0  0  0  0  0
  161.0030  211.5160  147.2500 C   0  0  0  0  0  3  0  0  0  0  0  0
  157.4910  214.0220  147.8440 N   0  0  0  0  0  0  0  0  0  0  0  0
  157.3450  213.7380  146.4520 C   0  0  0  0  0  0  0  0  0  0  0  0
  158.7890  214.4450  148.3510 C   0  0  0  0  0  2  0  0  0  0  0  0
  156.2260  213.4160  145.9700 O   0  0  0  0  0  0  0  0  0  0  0  0
  159.7650  213.3090  148.3270 C   0  0  0  0  0  0  0  0  0  0  0  0
  156.3770  213.8780  148.7670 C   0  0  0  0  0  1  0  0  0  0  0  0
  159.4500  212.7430  145.9090 O   0  0  0  0  0  0  0  0  0  0  0  0
  160.0610  212.5480  147.1620 C   0  0  0  0  0  0  0  0  0  0  0  0
  158.5470  213.7910  145.5720 C   0  0  0  0  0  2  0  0  0  0  0  0
  161.6510  211.2350  148.4550 C   0  0  0  0  0  0  0  0  0  0  0  0
  161.3670  211.9930  149.5910 C   0  0  0  0  0  3  0  0  0  0  0  0
  1 10  1  0  0  0  0
  2 15  1  0  0  0  0
  3  9  1  0  0  0  0
  4  8  2  0  0  0  0
  5  4  1  0  0  0  0
  5  1  2  0  0  0  0
  6  7  1  0  0  0  0
  7 11  2  0  0  0  0
  8  6  1  0  0  0  0
  9 11  1  0  0  0  0
 10  6  2  0  0  0  0
 10  9  1  0  0  0  0
 12  2  2  0  0  0  0
 13 12  1  0  0  0  0
 14 13  2  0  0  0  0
 14 16  1  0  0  0  0
 15  3  2  0  0  0  0
 16 17  2  0  0  0  0
 17  1  1  0  0  0  0
 17 15  1  0  0  0  0
 18 20  2  0  0  0  0
 18 13  1  0  0  0  0
 19 18  1  0  0  0  0
 21  4  1  0  0  0  0
 22 34  1  0  0  0  0
 23 33  1  0  0  0  0
 24 26  1  0  0  0  0
 24 29  1  0  0  0  0
 25 24  1  0  0  0  0
 27 25  2  0  0  0  0
 28 26  1  0  0  0  0
 28 22  2  0  0  0  0
 30 31  1  0  0  0  0
 31 23  2  0  0  0  0
 31 28  1  0  0  0  0
 32 30  1  0  0  0  0
 32 25  1  0  0  0  0
 33 21  1  0  0  0  0
 33 34  2  0  0  0  0
M  END
>  <MODEL>
4

>  <REMARK>
 VINA RESULT:     -10.6      3.930      5.778
  Name = 
  3 active torsions:
  status: ('A' for Active; 'I' for Inactive)
    1  A    between atoms: C_3  and  C_25
    2  A    between atoms: C_8  and  C_18
    3  A    between atoms: C_18  and  C_30
                            x       y       z     vdW  Elec       q    Type
                         _______ _______ _______ _____ _____    ______ ____

>  <TORSDO>
F 3

$$$$
=
 OpenBabel11062409483D

 34 39  0  0  0  0  0  0  0  0999 V2000
  160.9540  208.2380  151.9570 C   0  0  0  0  0  0  0  0  0  0  0  0
  161.2800  204.9890  149.9140 C   0  0  0  0  0  3  0  0  0  0  0  0
  161.0960  205.4520  152.2760 C   0  0  0  0  0  3  0  0  0  0  0  0
  160.7440  210.3210  153.2500 C   0  0  0  0  0  0  0  0  0  0  0  0
  160.8650  209.6500  151.9990 C   0  0  0  0  0  3  0  0  0  0  0  0
  160.7940  208.2000  154.3710 C   0  0  0  0  0  0  0  0  0  0  0  0
  160.7800  207.2650  155.3470 N   0  0  0  0  0  0  0  0  0  0  0  0
  160.7010  209.5870  154.4640 C   0  0  0  0  0  3  0  0  0  0  0  0
  160.9770  206.2910  153.3290 N   0  0  0  0  0  0  0  0  0  0  0  0
  160.9130  207.5970  153.1760 C   0  0  0  0  0  0  0  0  0  0  0  0
  160.8970  206.0830  154.6640 C   0  0  0  0  0  3  0  0  0  0  0  0
  161.3570  205.1220  148.5960 C   0  0  0  0  0  3  0  0  0  0  0  0
  161.3380  206.3350  147.7700 C   0  0  0  0  0  0  0  0  0  0  0  0
  161.2340  207.5770  148.2420 C   0  0  0  0  0  3  0  0  0  0  0  0
  161.1510  205.9990  150.9700 C   0  0  0  0  0  0  0  0  0  0  0  0
  161.1160  208.0640  149.6200 C   0  0  0  0  0  3  0  0  0  0  0  0
  161.0780  207.4270  150.7970 C   0  0  0  0  0  0  0  0  0  0  0  0
  161.4430  206.1580  146.3060 C   0  0  0  0  0  0  0  0  0  0  0  0
  160.2870  206.2720  145.4810 N   0  0  0  0  0  1  0  0  0  0  0  0
  162.5550  205.9040  145.7680 O   0  0  0  0  0  0  0  0  0  0  0  0
  160.6220  211.8070  153.2810 C   0  0  0  0  0  2  0  0  0  0  0  0
  158.0700  213.0900  150.8010 C   0  0  0  0  0  3  0  0  0  0  0  0
  160.8000  212.5330  150.8920 C   0  0  0  0  0  3  0  0  0  0  0  0
  158.4050  213.0230  147.2880 N   0  0  0  0  0  0  0  0  0  0  0  0
  159.7090  213.0170  146.7060 C   0  0  0  0  0  0  0  0  0  0  0  0
  158.1530  213.8550  148.4560 C   0  0  0  0  0  2  0  0  0  0  0  0
  159.9510  212.3460  145.6660 O   0  0  0  0  0  0  0  0  0  0  0  0
  158.8520  213.3070  149.6610 C   0  0  0  0  0  0  0  0  0  0  0  0
  157.3320  212.2020  146.7520 C   0  0  0  0  0  1  0  0  0  0  0  0
  161.1280  213.2040  148.6210 O   0  0  0  0  0  0  0  0  0  0  0  0
  160.2480  213.0300  149.7060 C   0  0  0  0  0  0  0  0  0  0  0  0
  160.8010  213.7890  147.3640 C   0  0  0  0  0  2  0  0  0  0  0  0
  160.0060  212.3120  152.0190 C   0  0  0  0  0  0  0  0  0  0  0  0
  158.6400  212.5960  151.9740 C   0  0  0  0  0  3  0  0  0  0  0  0
  1  5  2  0  0  0  0
  1 10  1  0  0  0  0
  2 15  1  0  0  0  0
  3  9  1  0  0  0  0
  4 21  1  0  0  0  0
  4  8  2  0  0  0  0
  5  4  1  0  0  0  0
  6  8  1  0  0  0  0
  6  7  1  0  0  0  0
  9 11  1  0  0  0  0
 10  9  1  0  0  0  0
 10  6  2  0  0  0  0
 11  7  2  0  0  0  0
 12  2  2  0  0  0  0
 13 14  2  0  0  0  0
 13 12  1  0  0  0  0
 14 16  1  0  0  0  0
 15  3  2  0  0  0  0
 16 17  2  0  0  0  0
 17 15  1  0  0  0  0
 17  1  1  0  0  0  0
 18 13  1  0  0  0  0
 19 18  1  0  0  0  0
 20 18  2  0  0  0  0
 22 34  1  0  0  0  0
 23 33  1  0  0  0  0
 24 26  1  0  0  0  0
 25 24  1  0  0  0  0
 25 32  1  0  0  0  0
 26 28  1  0  0  0  0
 27 25  2  0  0  0  0
 28 31  1  0  0  0  0
 28 22  2  0  0  0  0
 29 24  1  0  0  0  0
 30 31  1  0  0  0  0
 31 23  2  0  0  0  0
 32 30  1  0  0  0  0
 33 21  1  0  0  0  0
 34 33  2  0  0  0  0
M  END
>  <MODEL>
5

>  <REMARK>
 VINA RESULT:     -10.2      3.808      6.025
  Name = 
  3 active torsions:
  status: ('A' for Active; 'I' for Inactive)
    1  A    between atoms: C_3  and  C_25
    2  A    between atoms: C_8  and  C_18
    3  A    between atoms: C_18  and  C_30
                            x       y       z     vdW  Elec       q    Type
                         _______ _______ _______ _____ _____    ______ ____

>  <TORSDO>
F 3

$$$$
=
 OpenBabel11062409483D

 34 39  0  0  0  0  0  0  0  0999 V2000
  161.6430  208.8880  150.7440 C   0  0  0  0  0  0  0  0  0  0  0  0
  160.9060  206.1090  153.3080 C   0  0  0  0  0  3  0  0  0  0  0  0
  161.3580  206.1010  150.9360 C   0  0  0  0  0  3  0  0  0  0  0  0
  162.1140  210.6730  149.1170 C   0  0  0  0  0  0  0  0  0  0  0  0
  161.8240  210.2610  150.4500 C   0  0  0  0  0  3  0  0  0  0  0  0
  162.0440  208.3800  148.4130 C   0  0  0  0  0  0  0  0  0  0  0  0
  162.0980  207.2750  147.6360 N   0  0  0  0  0  0  0  0  0  0  0  0
  162.2340  209.7190  148.0740 C   0  0  0  0  0  3  0  0  0  0  0  0
  161.6360  206.7160  149.7650 N   0  0  0  0  0  0  0  0  0  0  0  0
  161.7670  208.0240  149.6790 C   0  0  0  0  0  0  0  0  0  0  0  0
  161.8390  206.2520  148.5100 C   0  0  0  0  0  3  0  0  0  0  0  0
  160.7040  206.4960  154.5610 C   0  0  0  0  0  3  0  0  0  0  0  0
  160.7150  207.8440  155.1420 C   0  0  0  0  0  0  0  0  0  0  0  0
  160.9450  208.9660  154.4620 C   0  0  0  0  0  3  0  0  0  0  0  0
  161.2060  206.8910  152.1030 C   0  0  0  0  0  0  0  0  0  0  0  0
  161.2330  209.1730  153.0400 C   0  0  0  0  0  3  0  0  0  0  0  0
  161.3510  208.3210  152.0140 C   0  0  0  0  0  0  0  0  0  0  0  0
  160.4500  207.9550  156.5930 C   0  0  0  0  0  0  0  0  0  0  0  0
  160.6090  209.2040  157.2610 N   0  0  0  0  0  1  0  0  0  0  0  0
  160.0810  206.9500  157.2580 O   0  0  0  0  0  0  0  0  0  0  0  0
  162.3320  212.1180  148.8240 C   0  0  0  0  0  2  0  0  0  0  0  0
  159.9380  212.6820  145.9490 C   0  0  0  0  0  3  0  0  0  0  0  0
  162.6590  212.9640  146.4910 C   0  0  0  0  0  3  0  0  0  0  0  0
  160.8300  212.8660  142.5400 N   0  0  0  0  0  0  0  0  0  0  0  0
  162.1500  213.2740  142.1790 C   0  0  0  0  0  0  0  0  0  0  0  0
  160.1570  213.5350  143.6440 C   0  0  0  0  0  2  0  0  0  0  0  0
  162.7450  212.7500  141.1980 O   0  0  0  0  0  0  0  0  0  0  0  0
  160.7890  213.1700  144.9520 C   0  0  0  0  0  0  0  0  0  0  0  0
  160.1540  211.7840  141.8420 C   0  0  0  0  0  1  0  0  0  0  0  0
  163.1240  213.7960  144.2990 O   0  0  0  0  0  0  0  0  0  0  0  0
  162.1770  213.3230  145.2260 C   0  0  0  0  0  0  0  0  0  0  0  0
  162.8390  214.3090  143.0000 C   0  0  0  0  0  2  0  0  0  0  0  0
  161.8000  212.4680  147.4750 C   0  0  0  0  0  0  0  0  0  0  0  0
  160.4370  212.3320  147.2040 C   0  0  0  0  0  3  0  0  0  0  0  0
  1 17  1  0  0  0  0
  2 12  2  0  0  0  0
  3 15  2  0  0  0  0
  4  5  2  0  0  0  0
  5  1  1  0  0  0  0
  6 10  1  0  0  0  0
  7  6  1  0  0  0  0
  7 11  2  0  0  0  0
  8  6  2  0  0  0  0
  8  4  1  0  0  0  0
  9  3  1  0  0  0  0
 10  9  1  0  0  0  0
 10  1  2  0  0  0  0
 11  9  1  0  0  0  0
 12 13  1  0  0  0  0
 13 18  1  0  0  0  0
 14 13  2  0  0  0  0
 15  2  1  0  0  0  0
 16 14  1  0  0  0  0
 17 15  1  0  0  0  0
 17 16  2  0  0  0  0
 18 20  2  0  0  0  0
 18 19  1  0  0  0  0
 21  4  1  0  0  0  0
 22 34  1  0  0  0  0
 23 33  1  0  0  0  0
 24 26  1  0  0  0  0
 25 24  1  0  0  0  0
 25 32  1  0  0  0  0
 26 28  1  0  0  0  0
 27 25  2  0  0  0  0
 28 31  1  0  0  0  0
 28 22  2  0  0  0  0
 29 24  1  0  0  0  0
 30 31  1  0  0  0  0
 31 23  2  0  0  0  0
 32 30  1  0  0  0  0
 33 21  1  0  0  0  0
 34 33  2  0  0  0  0
M  END
>  <MODEL>
6

>  <REMARK>
 VINA RESULT:     -10.0      4.797      9.390
  Name = 
  3 active torsions:
  status: ('A' for Active; 'I' for Inactive)
    1  A    between atoms: C_3  and  C_25
    2  A    between atoms: C_8  and  C_18
    3  A    between atoms: C_18  and  C_30
                            x       y       z     vdW  Elec       q    Type
                         _______ _______ _______ _____ _____    ______ ____

>  <TORSDO>
F 3

$$$$
=
 OpenBabel11062409483D

 34 39  0  0  0  0  0  0  0  0999 V2000
  161.7850  208.5100  149.4850 C   0  0  0  0  0  0  0  0  0  0  0  0
  161.0580  204.7340  149.2350 C   0  0  0  0  0  3  0  0  0  0  0  0
  160.8710  206.3460  151.0240 C   0  0  0  0  0  3  0  0  0  0  0  0
  162.2510  210.9210  149.6300 C   0  0  0  0  0  0  0  0  0  0  0  0
  162.2160  209.7130  148.8770 C   0  0  0  0  0  3  0  0  0  0  0  0
  161.4330  209.7290  151.5450 C   0  0  0  0  0  0  0  0  0  0  0  0
  161.0010  209.4540  152.7960 N   0  0  0  0  0  0  0  0  0  0  0  0
  161.8470  210.9380  150.9900 C   0  0  0  0  0  3  0  0  0  0  0  0
  160.9850  207.5920  151.5330 N   0  0  0  0  0  0  0  0  0  0  0  0
  161.4160  208.6050  150.8080 C   0  0  0  0  0  0  0  0  0  0  0  0
  160.7290  208.1110  152.7570 C   0  0  0  0  0  3  0  0  0  0  0  0
  161.2820  204.1640  148.0590 C   0  0  0  0  0  3  0  0  0  0  0  0
  161.7740  204.7510  146.8070 C   0  0  0  0  0  0  0  0  0  0  0  0
  162.0950  206.0340  146.6410 C   0  0  0  0  0  3  0  0  0  0  0  0
  161.2250  206.1260  149.6690 C   0  0  0  0  0  0  0  0  0  0  0  0
  162.0550  207.1540  147.5850 C   0  0  0  0  0  3  0  0  0  0  0  0
  161.6940  207.2310  148.8720 C   0  0  0  0  0  0  0  0  0  0  0  0
  161.9220  203.8450  145.6480 C   0  0  0  0  0  0  0  0  0  0  0  0
  160.9440  202.8410  145.3880 N   0  0  0  0  0  1  0  0  0  0  0  0
  162.9120  203.9470  144.8750 O   0  0  0  0  0  0  0  0  0  0  0  0
  162.6800  212.1880  148.9710 C   0  0  0  0  0  2  0  0  0  0  0  0
  160.0320  212.0340  146.2730 C   0  0  0  0  0  3  0  0  0  0  0  0
  162.5880  213.0890  146.6380 C   0  0  0  0  0  3  0  0  0  0  0  0
  160.5970  212.4630  142.8160 N   0  0  0  0  0  0  0  0  0  0  0  0
  161.7160  213.2330  142.3750 C   0  0  0  0  0  0  0  0  0  0  0  0
  159.8380  212.9110  143.9740 C   0  0  0  0  0  2  0  0  0  0  0  0
  162.3670  212.9020  141.3480 O   0  0  0  0  0  0  0  0  0  0  0  0
  160.6360  212.7460  145.2300 C   0  0  0  0  0  0  0  0  0  0  0  0
  160.2140  211.2320  142.1440 C   0  0  0  0  0  1  0  0  0  0  0  0
  162.6410  214.0170  144.4350 O   0  0  0  0  0  0  0  0  0  0  0  0
  161.9370  213.2920  145.4150 C   0  0  0  0  0  0  0  0  0  0  0  0
  162.1330  214.4240  143.1690 C   0  0  0  0  0  2  0  0  0  0  0  0
  161.9780  212.3680  147.6670 C   0  0  0  0  0  0  0  0  0  0  0  0
  160.6970  211.8450  147.4850 C   0  0  0  0  0  3  0  0  0  0  0  0
  1 10  1  0  0  0  0
  2 15  1  0  0  0  0
  3  9  1  0  0  0  0
  4  8  2  0  0  0  0
  5  1  2  0  0  0  0
  5  4  1  0  0  0  0
  6  7  1  0  0  0  0
  8  6  1  0  0  0  0
  9 11  1  0  0  0  0
 10  9  1  0  0  0  0
 10  6  2  0  0  0  0
 11  7  2  0  0  0  0
 12  2  2  0  0  0  0
 13 12  1  0  0  0  0
 14 13  2  0  0  0  0
 14 16  1  0  0  0  0
 15  3  2  0  0  0  0
 16 17  2  0  0  0  0
 17  1  1  0  0  0  0
 17 15  1  0  0  0  0
 18 13  1  0  0  0  0
 19 18  1  0  0  0  0
 20 18  2  0  0  0  0
 21  4  1  0  0  0  0
 22 34  1  0  0  0  0
 23 33  1  0  0  0  0
 24 26  1  0  0  0  0
 25 24  1  0  0  0  0
 25 32  1  0  0  0  0
 26 28  1  0  0  0  0
 27 25  2  0  0  0  0
 28 31  1  0  0  0  0
 28 22  2  0  0  0  0
 29 24  1  0  0  0  0
 30 31  1  0  0  0  0
 31 23  2  0  0  0  0
 32 30  1  0  0  0  0
 33 21  1  0  0  0  0
 34 33  2  0  0  0  0
M  END
>  <MODEL>
7

>  <REMARK>
 VINA RESULT:     -10.0      4.685      7.773
  Name = 
  3 active torsions:
  status: ('A' for Active; 'I' for Inactive)
    1  A    between atoms: C_3  and  C_25
    2  A    between atoms: C_8  and  C_18
    3  A    between atoms: C_18  and  C_30
                            x       y       z     vdW  Elec       q    Type
                         _______ _______ _______ _____ _____    ______ ____

>  <TORSDO>
F 3

$$$$
=
 OpenBabel11062409483D

 34 39  0  0  0  0  0  0  0  0999 V2000
  160.7810  209.7830  152.6780 C   0  0  0  0  0  0  0  0  0  0  0  0
  160.1990  213.2660  151.1380 C   0  0  0  0  0  3  0  0  0  0  0  0
  159.5980  212.2650  153.2520 C   0  0  0  0  0  3  0  0  0  0  0  0
  161.1620  207.5550  153.6500 C   0  0  0  0  0  0  0  0  0  0  0  0
  161.3160  208.4770  152.5750 C   0  0  0  0  0  3  0  0  0  0  0  0
  159.9720  209.2300  154.8890 C   0  0  0  0  0  0  0  0  0  0  0  0
  159.2910  209.8510  155.8790 N   0  0  0  0  0  0  0  0  0  0  0  0
  160.4820  207.9340  154.8360 C   0  0  0  0  0  3  0  0  0  0  0  0
  159.5750  211.2370  154.1290 N   0  0  0  0  0  0  0  0  0  0  0  0
  160.1300  210.0740  153.8560 C   0  0  0  0  0  0  0  0  0  0  0  0
  159.0580  211.1040  155.3730 C   0  0  0  0  0  3  0  0  0  0  0  0
  160.6880  213.4660  149.9210 C   0  0  0  0  0  3  0  0  0  0  0  0
  161.4320  212.5540  149.0450 C   0  0  0  0  0  0  0  0  0  0  0  0
  161.7560  211.2980  149.3510 C   0  0  0  0  0  3  0  0  0  0  0  0
  160.2420  212.0810  152.0020 C   0  0  0  0  0  0  0  0  0  0  0  0
  161.4880  210.5140  150.5600 C   0  0  0  0  0  3  0  0  0  0  0  0
  160.8520  210.8110  151.6990 C   0  0  0  0  0  0  0  0  0  0  0  0
  161.8480  213.0740  147.7250 C   0  0  0  0  0  0  0  0  0  0  0  0
  162.8010  214.1310  147.6340 N   0  0  0  0  0  1  0  0  0  0  0  0
  161.3680  212.5930  146.6630 O   0  0  0  0  0  0  0  0  0  0  0  0
  161.7540  206.1910  153.5420 C   0  0  0  0  0  2  0  0  0  0  0  0
  161.2260  203.6980  150.7470 C   0  0  0  0  0  3  0  0  0  0  0  0
  161.2960  206.4640  151.0970 C   0  0  0  0  0  3  0  0  0  0  0  0
  161.6490  204.3520  147.3050 N   0  0  0  0  0  0  0  0  0  0  0  0
  161.5030  205.6870  146.8180 C   0  0  0  0  0  0  0  0  0  0  0  0
  160.7400  203.8670  148.3330 C   0  0  0  0  0  2  0  0  0  0  0  0
  162.2410  206.1250  145.8950 O   0  0  0  0  0  0  0  0  0  0  0  0
  161.0150  204.5350  149.6450 C   0  0  0  0  0  0  0  0  0  0  0  0
  162.6980  203.4760  146.8090 C   0  0  0  0  0  1  0  0  0  0  0  0
  160.8520  206.8810  148.7850 O   0  0  0  0  0  0  0  0  0  0  0  0
  161.0430  205.9470  149.8210 C   0  0  0  0  0  0  0  0  0  0  0  0
  160.4840  206.5780  147.4430 C   0  0  0  0  0  2  0  0  0  0  0  0
  161.5140  205.6170  152.1860 C   0  0  0  0  0  0  0  0  0  0  0  0
  161.4740  204.2330  152.0110 C   0  0  0  0  0  3  0  0  0  0  0  0
  1 10  1  0  0  0  0
  2 15  1  0  0  0  0
  3  9  1  0  0  0  0
  4  8  2  0  0  0  0
  5  1  2  0  0  0  0
  5  4  1  0  0  0  0
  6  7  1  0  0  0  0
  8  6  1  0  0  0  0
  9 11  1  0  0  0  0
 10  9  1  0  0  0  0
 10  6  2  0  0  0  0
 11  7  2  0  0  0  0
 12  2  2  0  0  0  0
 13 14  2  0  0  0  0
 13 12  1  0  0  0  0
 14 16  1  0  0  0  0
 15  3  2  0  0  0  0
 16 17  2  0  0  0  0
 17 15  1  0  0  0  0
 17  1  1  0  0  0  0
 18 13  1  0  0  0  0
 19 18  1  0  0  0  0
 20 18  2  0  0  0  0
 21  4  1  0  0  0  0
 22 34  1  0  0  0  0
 23 33  1  0  0  0  0
 24 26  1  0  0  0  0
 25 24  1  0  0  0  0
 25 32  1  0  0  0  0
 26 28  1  0  0  0  0
 27 25  2  0  0  0  0
 28 31  1  0  0  0  0
 28 22  2  0  0  0  0
 29 24  1  0  0  0  0
 30 31  1  0  0  0  0
 31 23  2  0  0  0  0
 32 30  1  0  0  0  0
 33 21  1  0  0  0  0
 34 33  2  0  0  0  0
M  END
>  <MODEL>
8

>  <REMARK>
 VINA RESULT:      -9.9      3.062      8.479
  Name = 
  3 active torsions:
  status: ('A' for Active; 'I' for Inactive)
    1  A    between atoms: C_3  and  C_25
    2  A    between atoms: C_8  and  C_18
    3  A    between atoms: C_18  and  C_30
                            x       y       z     vdW  Elec       q    Type
                         _______ _______ _______ _____ _____    ______ ____

>  <TORSDO>
F 3

$$$$
=
 OpenBabel11062409483D

 34 39  0  0  0  0  0  0  0  0999 V2000
  161.2040  207.6110  152.0070 C   0  0  0  0  0  0  0  0  0  0  0  0
  161.4500  211.4210  151.4970 C   0  0  0  0  0  3  0  0  0  0  0  0
  161.0010  210.0300  153.4190 C   0  0  0  0  0  3  0  0  0  0  0  0
  161.0520  205.1750  152.3190 C   0  0  0  0  0  0  0  0  0  0  0  0
  161.2690  206.3010  151.4740 C   0  0  0  0  0  3  0  0  0  0  0  0
  160.7210  206.6570  154.1770 C   0  0  0  0  0  0  0  0  0  0  0  0
  160.4830  207.1120  155.4280 N   0  0  0  0  0  0  0  0  0  0  0  0
  160.7770  205.3480  153.7000 C   0  0  0  0  0  3  0  0  0  0  0  0
  160.8320  208.8310  154.0190 N   0  0  0  0  0  0  0  0  0  0  0  0
  160.9260  207.6980  153.3530 C   0  0  0  0  0  0  0  0  0  0  0  0
  160.5590  208.4740  155.2960 C   0  0  0  0  0  3  0  0  0  0  0  0
  161.7230  211.8390  150.2680 C   0  0  0  0  0  3  0  0  0  0  0  0
  161.9510  211.0660  149.0410 C   0  0  0  0  0  0  0  0  0  0  0  0
  161.9180  209.7370  148.9600 C   0  0  0  0  0  3  0  0  0  0  0  0
  161.2900  210.0640  152.0310 C   0  0  0  0  0  0  0  0  0  0  0  0
  161.6650  208.7270  149.9920 C   0  0  0  0  0  3  0  0  0  0  0  0
  161.3960  208.8280  151.2990 C   0  0  0  0  0  0  0  0  0  0  0  0
  162.2370  211.8280  147.8070 C   0  0  0  0  0  0  0  0  0  0  0  0
  161.1780  212.2030  146.9290 N   0  0  0  0  0  1  0  0  0  0  0  0
  163.4180  212.1570  147.5140 O   0  0  0  0  0  0  0  0  0  0  0  0
  161.1510  203.7990  151.7530 C   0  0  0  0  0  2  0  0  0  0  0  0
  162.0570  205.0320  148.2940 C   0  0  0  0  0  3  0  0  0  0  0  0
  161.0160  202.7380  149.4910 C   0  0  0  0  0  3  0  0  0  0  0  0
  160.7950  203.7450  145.2590 N   0  0  0  0  0  0  0  0  0  0  0  0
  160.3360  202.3940  145.2050 C   0  0  0  0  0  0  0  0  0  0  0  0
  161.9920  204.0580  146.0270 C   0  0  0  0  0  2  0  0  0  0  0  0
  159.3310  202.0790  144.5110 O   0  0  0  0  0  0  0  0  0  0  0  0
  161.7310  203.9290  147.4960 C   0  0  0  0  0  0  0  0  0  0  0  0
  160.0810  204.8160  144.5820 C   0  0  0  0  0  1  0  0  0  0  0  0
  160.8380  201.5920  147.4000 O   0  0  0  0  0  0  0  0  0  0  0  0
  161.2060  202.7540  148.1040 C   0  0  0  0  0  0  0  0  0  0  0  0
  161.0390  201.3560  146.0100 C   0  0  0  0  0  2  0  0  0  0  0  0
  161.3360  203.8490  150.2740 C   0  0  0  0  0  0  0  0  0  0  0  0
  161.8620  204.9950  149.6740 C   0  0  0  0  0  3  0  0  0  0  0  0
  1 10  1  0  0  0  0
  2 15  1  0  0  0  0
  3  9  1  0  0  0  0
  4  8  2  0  0  0  0
  5  1  2  0  0  0  0
  5  4  1  0  0  0  0
  6  7  1  0  0  0  0
  8  6  1  0  0  0  0
  9 11  1  0  0  0  0
 10  9  1  0  0  0  0
 10  6  2  0  0  0  0
 11  7  2  0  0  0  0
 12  2  2  0  0  0  0
 13 12  1  0  0  0  0
 14 13  2  0  0  0  0
 14 16  1  0  0  0  0
 15  3  2  0  0  0  0
 16 17  2  0  0  0  0
 17  1  1  0  0  0  0
 17 15  1  0  0  0  0
 18 13  1  0  0  0  0
 19 18  1  0  0  0  0
 20 18  2  0  0  0  0
 21  4  1  0  0  0  0
 22 34  1  0  0  0  0
 23 33  1  0  0  0  0
 24 26  1  0  0  0  0
 25 24  1  0  0  0  0
 25 32  1  0  0  0  0
 26 28  1  0  0  0  0
 27 25  2  0  0  0  0
 28 31  1  0  0  0  0
 28 22  2  0  0  0  0
 29 24  1  0  0  0  0
 30 31  1  0  0  0  0
 31 23  2  0  0  0  0
 32 30  1  0  0  0  0
 33 21  1  0  0  0  0
 34 33  2  0  0  0  0
M  END
>  <MODEL>
9

>  <REMARK>
 VINA RESULT:      -9.4      2.828      8.943
  Name = 
  3 active torsions:
  status: ('A' for Active; 'I' for Inactive)
    1  A    between atoms: C_3  and  C_25
    2  A    between atoms: C_8  and  C_18
    3  A    between atoms: C_18  and  C_30
                            x       y       z     vdW  Elec       q    Type
                         _______ _______ _______ _____ _____    ______ ____

>  <TORSDO>
F 3

$$$$
