=
 OpenBabel11052422193D

 25 28  0  0  1  0  0  0  0  0999 V2000
  161.3500  206.2630  149.8970 C   0  0  0  0  0  0  0  0  0  0  0  0
  161.3960  207.4710  150.6080 C   0  0  0  0  0  0  0  0  0  0  0  0
  161.6290  207.4300  147.8330 N   0  0  0  0  0  0  0  0  0  0  0  0
  161.1820  204.9580  150.3890 C   0  0  0  0  0  0  0  0  0  0  0  0
  161.0090  208.6240  152.8780 C   0  0  2  0  0  3  0  0  0  0  0  0
  160.8690  202.2450  150.9810 C   0  0  0  0  0  3  0  0  0  0  0  0
  161.6920  208.5890  148.4930 N   0  0  0  0  0  0  0  0  0  0  0  0
  161.1760  203.9990  149.3760 C   0  0  0  0  0  0  0  0  0  0  0  0
  161.0210  202.6410  149.6450 C   0  0  0  0  0  3  0  0  0  0  0  0
  161.7080  210.0150  150.5310 C   0  0  2  0  0  3  0  0  0  0  0  0
  162.0310  211.1370  149.5560 C   0  0  0  0  0  1  0  0  0  0  0  0
  161.2650  207.4590  152.0400 N   0  0  0  0  0  2  0  0  0  0  0  0
  160.8740  203.2000  152.0140 C   0  0  0  0  0  3  0  0  0  0  0  0
  161.4660  206.2780  148.5180 C   0  0  0  0  0  0  0  0  0  0  0  0
  161.3710  204.7270  147.8660 S   0  0  0  0  0  0  0  0  0  0  0  0
  162.7860  209.9660  151.6050 C   0  0  0  0  0  2  0  0  0  0  0  0
  161.0310  204.5650  151.7220 C   0  0  0  0  0  3  0  0  0  0  0  0
  162.2250  209.5510  152.9640 C   0  0  0  0  0  2  0  0  0  0  0  0
  161.5910  208.6660  149.8580 C   0  0  0  0  0  0  0  0  0  0  0  0
  160.5340  208.1960  154.2660 C   0  0  0  0  0  2  0  0  0  0  0  0
  161.2080  209.4480  156.3490 C   0  0  0  0  0  0  0  0  0  0  0  0
  161.0550  210.5090  157.1800 F   0  0  0  0  0  0  0  0  0  0  0  0
  162.0750  208.5760  156.6190 O   0  0  0  0  0  0  0  0  0  0  0  0
  159.5450  210.4400  154.7780 C   0  0  0  0  0  1  0  0  0  0  0  0
  160.3970  209.3310  155.1730 N   0  0  0  0  0  0  0  0  0  0  0  0
  1  4  1  0  0  0  0
  1  2  1  0  0  0  0
  2 12  1  0  0  0  0
  3  7  2  0  0  0  0
  3 14  1  0  0  0  0
  4 17  1  0  0  0  0
  5 18  1  0  0  0  0
  5 20  1  1  0  0  0
  6 13  1  0  0  0  0
  7 19  1  0  0  0  0
  8  9  1  0  0  0  0
  8  4  2  0  0  0  0
  9  6  2  0  0  0  0
 10 11  1  6  0  0  0
 10 16  1  0  0  0  0
 12  5  1  0  0  0  0
 14  1  2  0  0  0  0
 15 14  1  0  0  0  0
 15  8  1  0  0  0  0
 16 18  1  0  0  0  0
 17 13  2  0  0  0  0
 19 10  1  0  0  0  0
 19  2  2  0  0  0  0
 20 25  1  0  0  0  0
 21 23  2  0  0  0  0
 21 22  1  0  0  0  0
 24 25  1  0  0  0  0
 25 21  1  0  0  0  0
M  END
>  <MODEL>
1

>  <REMARK>
 VINA RESULT:      -8.3      0.000      0.000
  Name = 
  2 active torsions:
  status: ('A' for Active; 'I' for Inactive)
    1  A    between atoms: C_6  and  C_15
    2  A    between atoms: C_15  and  N_25
                            x       y       z     vdW  Elec       q    Type
                         _______ _______ _______ _____ _____    ______ ____

>  <TORSDO>
F 2

$$$$
=
 OpenBabel11052422193D

 25 28  0  0  1  0  0  0  0  0999 V2000
  161.3430  206.2540  149.8800 C   0  0  0  0  0  0  0  0  0  0  0  0
  161.3760  207.4540  150.6070 C   0  0  0  0  0  0  0  0  0  0  0  0
  161.6550  207.4460  147.8350 N   0  0  0  0  0  0  0  0  0  0  0  0
  161.1700  204.9430  150.3540 C   0  0  0  0  0  0  0  0  0  0  0  0
  160.9490  208.5790  152.8830 C   0  0  2  0  0  3  0  0  0  0  0  0
  160.8530  202.2220  150.9080 C   0  0  0  0  0  3  0  0  0  0  0  0
  161.7040  208.5970  148.5100 N   0  0  0  0  0  0  0  0  0  0  0  0
  161.1820  203.9960  149.3290 C   0  0  0  0  0  0  0  0  0  0  0  0
  161.0260  202.6350  149.5800 C   0  0  0  0  0  3  0  0  0  0  0  0
  161.6840  209.9990  150.5650 C   0  0  2  0  0  3  0  0  0  0  0  0
  162.0210  211.1330  149.6090 C   0  0  0  0  0  1  0  0  0  0  0  0
  161.2210  207.4240  152.0350 N   0  0  0  0  0  2  0  0  0  0  0  0
  160.8380  203.1660  151.9520 C   0  0  0  0  0  3  0  0  0  0  0  0
  161.4820  206.2860  148.5040 C   0  0  0  0  0  0  0  0  0  0  0  0
  161.4010  204.7430  147.8320 S   0  0  0  0  0  0  0  0  0  0  0  0
  162.7440  209.9390  151.6560 C   0  0  0  0  0  2  0  0  0  0  0  0
  160.9970  204.5340  151.6800 C   0  0  0  0  0  3  0  0  0  0  0  0
  162.1610  209.5060  153.0010 C   0  0  0  0  0  2  0  0  0  0  0  0
  161.5800  208.6580  149.8740 C   0  0  0  0  0  0  0  0  0  0  0  0
  160.4520  208.1330  154.2580 C   0  0  0  0  0  2  0  0  0  0  0  0
  160.0310  210.3060  155.4690 C   0  0  0  0  0  0  0  0  0  0  0  0
  160.3670  211.1900  156.4400 F   0  0  0  0  0  0  0  0  0  0  0  0
  159.0460  210.5540  154.7240 O   0  0  0  0  0  0  0  0  0  0  0  0
  161.7880  208.7380  156.2890 C   0  0  0  0  0  1  0  0  0  0  0  0
  160.7850  209.0980  155.3010 N   0  0  0  0  0  0  0  0  0  0  0  0
  1  4  1  0  0  0  0
  1  2  1  0  0  0  0
  2 12  1  0  0  0  0
  3 14  1  0  0  0  0
  3  7  2  0  0  0  0
  4 17  1  0  0  0  0
  5 18  1  0  0  0  0
  5 20  1  1  0  0  0
  6 13  1  0  0  0  0
  7 19  1  0  0  0  0
  8  9  1  0  0  0  0
  8  4  2  0  0  0  0
  9  6  2  0  0  0  0
 10 11  1  6  0  0  0
 10 16  1  0  0  0  0
 12  5  1  0  0  0  0
 14  1  2  0  0  0  0
 15 14  1  0  0  0  0
 15  8  1  0  0  0  0
 16 18  1  0  0  0  0
 17 13  2  0  0  0  0
 19 10  1  0  0  0  0
 19  2  2  0  0  0  0
 20 25  1  0  0  0  0
 21 22  1  0  0  0  0
 23 21  2  0  0  0  0
 25 21  1  0  0  0  0
 25 24  1  0  0  0  0
M  END
>  <MODEL>
2

>  <REMARK>
 VINA RESULT:      -8.1      0.895      1.124
  Name = 
  2 active torsions:
  status: ('A' for Active; 'I' for Inactive)
    1  A    between atoms: C_6  and  C_15
    2  A    between atoms: C_15  and  N_25
                            x       y       z     vdW  Elec       q    Type
                         _______ _______ _______ _____ _____    ______ ____

>  <TORSDO>
F 2

$$$$
=
 OpenBabel11052422193D

 25 28  0  0  1  0  0  0  0  0999 V2000
  161.1790  203.9500  150.0240 C   0  0  0  0  0  0  0  0  0  0  0  0
  161.4390  205.1600  150.6840 C   0  0  0  0  0  0  0  0  0  0  0  0
  160.7490  202.8690  152.1080 N   0  0  0  0  0  0  0  0  0  0  0  0
  161.2200  203.6720  148.6470 C   0  0  0  0  0  0  0  0  0  0  0  0
  162.3700  207.5510  150.4620 C   0  0  2  0  0  3  0  0  0  0  0  0
  161.1990  202.7410  146.0120 C   0  0  0  0  0  3  0  0  0  0  0  0
  160.9770  204.0150  152.7540 N   0  0  0  0  0  0  0  0  0  0  0  0
  160.9100  202.3420  148.3590 C   0  0  0  0  0  0  0  0  0  0  0  0
  160.8930  201.8540  147.0540 C   0  0  0  0  0  3  0  0  0  0  0  0
  161.5190  206.4370  152.9050 C   0  0  2  0  0  3  0  0  0  0  0  0
  161.2190  206.2550  154.3850 C   0  0  0  0  0  1  0  0  0  0  0  0
  161.8010  206.3230  149.9200 N   0  0  0  0  0  2  0  0  0  0  0  0
  161.5140  204.0840  146.2880 C   0  0  0  0  0  3  0  0  0  0  0  0
  160.8410  202.8300  150.7610 C   0  0  0  0  0  0  0  0  0  0  0  0
  160.5840  201.4870  149.7770 S   0  0  0  0  0  0  0  0  0  0  0  0
  160.6390  207.5510  152.3550 C   0  0  0  0  0  2  0  0  0  0  0  0
  161.5260  204.5570  147.6090 C   0  0  0  0  0  3  0  0  0  0  0  0
  161.3450  208.3560  151.2650 C   0  0  0  0  0  2  0  0  0  0  0  0
  161.3130  205.1730  152.1030 C   0  0  0  0  0  0  0  0  0  0  0  0
  162.9950  208.3930  149.3500 C   0  0  0  0  0  2  0  0  0  0  0  0
  161.8370  210.4590  148.4810 C   0  0  0  0  0  0  0  0  0  0  0  0
  160.8840  211.0280  147.7010 F   0  0  0  0  0  0  0  0  0  0  0  0
  162.5950  211.1970  149.1640 O   0  0  0  0  0  0  0  0  0  0  0  0
  161.2370  208.2150  147.5740 C   0  0  0  0  0  1  0  0  0  0  0  0
  161.9840  209.0330  148.5140 N   0  0  0  0  0  0  0  0  0  0  0  0
  1  2  2  0  0  0  0
  1 14  1  0  0  0  0
  2 19  1  0  0  0  0
  3  7  1  0  0  0  0
  4  1  1  0  0  0  0
  5 20  1  6  0  0  0
  5 18  1  0  0  0  0
  6 13  2  0  0  0  0
  6  9  1  0  0  0  0
  8  4  1  0  0  0  0
  8 15  1  0  0  0  0
  9  8  2  0  0  0  0
 10 11  1  1  0  0  0
 12  5  1  0  0  0  0
 12  2  1  0  0  0  0
 13 17  1  0  0  0  0
 14  3  2  0  0  0  0
 15 14  1  0  0  0  0
 16 10  1  0  0  0  0
 17  4  2  0  0  0  0
 18 16  1  0  0  0  0
 19  7  2  0  0  0  0
 19 10  1  0  0  0  0
 21 25  1  0  0  0  0
 21 23  2  0  0  0  0
 22 21  1  0  0  0  0
 24 25  1  0  0  0  0
 25 20  1  0  0  0  0
M  END
>  <MODEL>
3

>  <REMARK>
 VINA RESULT:      -8.0      3.317      5.223
  Name = 
  2 active torsions:
  status: ('A' for Active; 'I' for Inactive)
    1  A    between atoms: C_6  and  C_15
    2  A    between atoms: C_15  and  N_25
                            x       y       z     vdW  Elec       q    Type
                         _______ _______ _______ _____ _____    ______ ____

>  <TORSDO>
F 2

$$$$
=
 OpenBabel11052422193D

 25 28  0  0  1  0  0  0  0  0999 V2000
  161.1490  206.0140  151.5470 C   0  0  0  0  0  0  0  0  0  0  0  0
  161.0410  205.2660  150.3660 C   0  0  0  0  0  0  0  0  0  0  0  0
  160.6920  204.0720  152.8580 N   0  0  0  0  0  0  0  0  0  0  0  0
  161.4190  207.3850  151.6990 C   0  0  0  0  0  0  0  0  0  0  0  0
  160.8620  205.3510  147.7980 C   0  0  2  0  0  3  0  0  0  0  0  0
  161.9220  210.0430  152.4000 C   0  0  0  0  0  3  0  0  0  0  0  0
  160.6000  203.3390  151.7450 N   0  0  0  0  0  0  0  0  0  0  0  0
  161.4390  207.7820  153.0370 C   0  0  0  0  0  0  0  0  0  0  0  0
  161.6880  209.1010  153.4110 C   0  0  0  0  0  3  0  0  0  0  0  0
  160.6870  202.9670  149.2880 C   0  0  2  0  0  3  0  0  0  0  0  0
  160.5090  201.5020  149.6580 C   0  0  0  0  0  1  0  0  0  0  0  0
  161.2190  205.9140  149.0950 N   0  0  0  0  0  2  0  0  0  0  0  0
  161.9040  209.6570  151.0470 C   0  0  0  0  0  3  0  0  0  0  0  0
  160.9670  205.3910  152.7690 C   0  0  0  0  0  0  0  0  0  0  0  0
  161.1280  206.4710  154.0520 S   0  0  0  0  0  0  0  0  0  0  0  0
  161.9420  203.1160  148.4400 C   0  0  0  0  0  2  0  0  0  0  0  0
  161.6520  208.3230  150.6890 C   0  0  0  0  0  3  0  0  0  0  0  0
  161.7990  204.2130  147.3860 C   0  0  0  0  0  2  0  0  0  0  0  0
  160.7700  203.8730  150.4950 C   0  0  0  0  0  0  0  0  0  0  0  0
  160.8090  206.4450  146.7320 C   0  0  0  0  0  2  0  0  0  0  0  0
  161.6520  205.6410  144.4940 C   0  0  0  0  0  0  0  0  0  0  0  0
  161.4030  205.1420  143.2580 F   0  0  0  0  0  0  0  0  0  0  0  0
  162.8430  205.8640  144.8390 O   0  0  0  0  0  0  0  0  0  0  0  0
  159.2310  205.4530  145.0580 C   0  0  0  0  0  1  0  0  0  0  0  0
  160.5710  205.8990  145.3990 N   0  0  0  0  0  0  0  0  0  0  0  0
  1  4  1  0  0  0  0
  1 14  2  0  0  0  0
  2 19  2  0  0  0  0
  2  1  1  0  0  0  0
  4  8  1  0  0  0  0
  5 20  1  6  0  0  0
  5 12  1  0  0  0  0
  6  9  1  0  0  0  0
  7  3  2  0  0  0  0
  8  9  2  0  0  0  0
  8 15  1  0  0  0  0
 10 11  1  1  0  0  0
 10 19  1  0  0  0  0
 12  2  1  0  0  0  0
 13  6  2  0  0  0  0
 14  3  1  0  0  0  0
 14 15  1  0  0  0  0
 16 10  1  0  0  0  0
 17 13  1  0  0  0  0
 17  4  2  0  0  0  0
 18  5  1  0  0  0  0
 18 16  1  0  0  0  0
 19  7  1  0  0  0  0
 21 23  2  0  0  0  0
 21 25  1  0  0  0  0
 22 21  1  0  0  0  0
 24 25  1  0  0  0  0
 25 20  1  0  0  0  0
M  END
>  <MODEL>
4

>  <REMARK>
 VINA RESULT:      -7.8      4.528      7.766
  Name = 
  2 active torsions:
  status: ('A' for Active; 'I' for Inactive)
    1  A    between atoms: C_6  and  C_15
    2  A    between atoms: C_15  and  N_25
                            x       y       z     vdW  Elec       q    Type
                         _______ _______ _______ _____ _____    ______ ____

>  <TORSDO>
F 2

$$$$
=
 OpenBabel11052422193D

 25 28  0  0  1  0  0  0  0  0999 V2000
  161.3500  208.2890  152.7890 C   0  0  0  0  0  0  0  0  0  0  0  0
  161.3440  207.3570  151.7420 C   0  0  0  0  0  0  0  0  0  0  0  0
  162.3860  209.9150  151.3810 N   0  0  0  0  0  0  0  0  0  0  0  0
  160.8870  208.1360  154.1070 C   0  0  0  0  0  0  0  0  0  0  0  0
  160.9860  204.8930  151.0840 C   0  0  2  0  0  3  0  0  0  0  0  0
  160.0890  208.2120  156.7840 C   0  0  0  0  0  3  0  0  0  0  0  0
  162.3750  209.0470  150.3660 N   0  0  0  0  0  0  0  0  0  0  0  0
  161.0680  209.2850  154.8770 C   0  0  0  0  0  0  0  0  0  0  0  0
  160.6790  209.3480  156.2130 C   0  0  0  0  0  3  0  0  0  0  0  0
  161.8610  206.8700  149.2780 C   0  0  2  0  0  3  0  0  0  0  0  0
  162.3570  207.5580  148.0160 C   0  0  0  0  0  1  0  0  0  0  0  0
  160.8070  206.0420  151.9630 N   0  0  0  0  0  2  0  0  0  0  0  0
  159.9000  207.0450  156.0200 C   0  0  0  0  0  3  0  0  0  0  0  0
  161.8770  209.5510  152.5770 C   0  0  0  0  0  0  0  0  0  0  0  0
  161.7960  210.5040  153.9640 S   0  0  0  0  0  0  0  0  0  0  0  0
  160.4550  206.3410  149.0350 C   0  0  0  0  0  2  0  0  0  0  0  0
  160.2990  207.0020  154.6750 C   0  0  0  0  0  3  0  0  0  0  0  0
  160.1940  205.0340  149.7810 C   0  0  0  0  0  2  0  0  0  0  0  0
  161.8690  207.7790  150.4860 C   0  0  0  0  0  0  0  0  0  0  0  0
  160.6360  203.5960  151.8130 C   0  0  0  0  0  2  0  0  0  0  0  0
  160.8340  201.6890  150.1740 C   0  0  0  0  0  0  0  0  0  0  0  0
  161.5200  200.6230  149.6930 F   0  0  0  0  0  0  0  0  0  0  0  0
  159.7370  202.0060  149.6400 O   0  0  0  0  0  0  0  0  0  0  0  0
  162.7090  202.1910  151.7380 C   0  0  0  0  0  1  0  0  0  0  0  0
  161.3580  202.4500  151.2690 N   0  0  0  0  0  0  0  0  0  0  0  0
  1  4  1  0  0  0  0
  2 12  1  0  0  0  0
  2  1  1  0  0  0  0
  3 14  1  0  0  0  0
  4 17  2  0  0  0  0
  4  8  1  0  0  0  0
  5 20  1  1  0  0  0
  5 12  1  0  0  0  0
  7 19  1  0  0  0  0
  7  3  2  0  0  0  0
  8  9  2  0  0  0  0
  9  6  1  0  0  0  0
 10 11  1  6  0  0  0
 10 19  1  0  0  0  0
 13  6  2  0  0  0  0
 14  1  2  0  0  0  0
 14 15  1  0  0  0  0
 15  8  1  0  0  0  0
 16 10  1  0  0  0  0
 16 18  1  0  0  0  0
 17 13  1  0  0  0  0
 18  5  1  0  0  0  0
 19  2  2  0  0  0  0
 21 25  1  0  0  0  0
 22 21  1  0  0  0  0
 23 21  2  0  0  0  0
 25 24  1  0  0  0  0
 25 20  1  0  0  0  0
M  END
>  <MODEL>
5

>  <REMARK>
 VINA RESULT:      -7.6      3.944      6.505
  Name = 
  2 active torsions:
  status: ('A' for Active; 'I' for Inactive)
    1  A    between atoms: C_6  and  C_15
    2  A    between atoms: C_15  and  N_25
                            x       y       z     vdW  Elec       q    Type
                         _______ _______ _______ _____ _____    ______ ____

>  <TORSDO>
F 2

$$$$
=
 OpenBabel11052422193D

 25 28  0  0  1  0  0  0  0  0999 V2000
  161.2940  206.6710  151.4460 C   0  0  0  0  0  0  0  0  0  0  0  0
  161.4390  208.0670  151.4680 C   0  0  0  0  0  0  0  0  0  0  0  0
  161.2640  206.6050  153.8320 N   0  0  0  0  0  0  0  0  0  0  0  0
  161.2240  205.8110  150.3380 C   0  0  0  0  0  0  0  0  0  0  0  0
  161.9670  210.1760  150.0880 C   0  0  2  0  0  3  0  0  0  0  0  0
  161.0530  203.8010  148.4040 C   0  0  0  0  0  3  0  0  0  0  0  0
  161.3870  207.9340  153.8740 N   0  0  0  0  0  0  0  0  0  0  0  0
  161.0880  204.4720  150.7060 C   0  0  0  0  0  0  0  0  0  0  0  0
  161.0010  203.4520  149.7610 C   0  0  0  0  0  3  0  0  0  0  0  0
  161.5700  210.2050  152.8770 C   0  0  2  0  0  3  0  0  0  0  0  0
  161.4660  210.6790  154.3180 C   0  0  0  0  0  1  0  0  0  0  0  0
  161.5340  208.7910  150.2300 N   0  0  0  0  0  2  0  0  0  0  0  0
  161.1900  205.1470  148.0180 C   0  0  0  0  0  3  0  0  0  0  0  0
  161.2120  205.9750  152.6390 C   0  0  0  0  0  0  0  0  0  0  0  0
  161.0540  204.3170  152.3860 S   0  0  0  0  0  0  0  0  0  0  0  0
  160.4760  210.8730  152.0550 C   0  0  0  0  0  2  0  0  0  0  0  0
  161.2760  206.1610  148.9850 C   0  0  0  0  0  3  0  0  0  0  0  0
  160.9270  211.1630  150.6240 C   0  0  0  0  0  2  0  0  0  0  0  0
  161.4690  208.7020  152.7430 C   0  0  0  0  0  0  0  0  0  0  0  0
  162.3310  210.4810  148.6360 C   0  0  0  0  0  2  0  0  0  0  0  0
  162.9880  212.8560  148.0970 C   0  0  0  0  0  0  0  0  0  0  0  0
  162.6370  214.1210  147.7550 F   0  0  0  0  0  0  0  0  0  0  0  0
  164.2060  212.5790  148.2610 O   0  0  0  0  0  0  0  0  0  0  0  0
  160.6110  212.1370  147.8760 C   0  0  0  0  0  1  0  0  0  0  0  0
  161.9830  211.8480  148.2590 N   0  0  0  0  0  0  0  0  0  0  0  0
  1  2  2  0  0  0  0
  1 14  1  0  0  0  0
  2 19  1  0  0  0  0
  3  7  1  0  0  0  0
  4  8  1  0  0  0  0
  4  1  1  0  0  0  0
  5 20  1  6  0  0  0
  5 12  1  0  0  0  0
  5 18  1  0  0  0  0
  6  9  1  0  0  0  0
  8 15  1  0  0  0  0
  9  8  2  0  0  0  0
 10 11  1  1  0  0  0
 12  2  1  0  0  0  0
 13  6  2  0  0  0  0
 13 17  1  0  0  0  0
 14  3  2  0  0  0  0
 15 14  1  0  0  0  0
 16 10  1  0  0  0  0
 17  4  2  0  0  0  0
 18 16  1  0  0  0  0
 19 10  1  0  0  0  0
 19  7  2  0  0  0  0
 21 25  1  0  0  0  0
 21 23  2  0  0  0  0
 22 21  1  0  0  0  0
 24 25  1  0  0  0  0
 25 20  1  0  0  0  0
M  END
>  <MODEL>
6

>  <REMARK>
 VINA RESULT:      -7.2      3.293      5.082
  Name = 
  2 active torsions:
  status: ('A' for Active; 'I' for Inactive)
    1  A    between atoms: C_6  and  C_15
    2  A    between atoms: C_15  and  N_25
                            x       y       z     vdW  Elec       q    Type
                         _______ _______ _______ _____ _____    ______ ____

>  <TORSDO>
F 2

$$$$
=
 OpenBabel11052422193D

 25 28  0  0  1  0  0  0  0  0999 V2000
  161.3460  204.6330  150.6470 C   0  0  0  0  0  0  0  0  0  0  0  0
  161.6960  205.9010  150.1590 C   0  0  0  0  0  0  0  0  0  0  0  0
  161.4940  205.4230  152.8950 N   0  0  0  0  0  0  0  0  0  0  0  0
  161.0650  203.4600  149.9280 C   0  0  0  0  0  0  0  0  0  0  0  0
  162.4190  207.2650  148.0980 C   0  0  2  0  0  3  0  0  0  0  0  0
  160.4500  200.9520  148.8590 C   0  0  0  0  0  3  0  0  0  0  0  0
  161.8130  206.6410  152.4500 N   0  0  0  0  0  0  0  0  0  0  0  0
  160.7630  202.3800  150.7590 C   0  0  0  0  0  0  0  0  0  0  0  0
  160.4540  201.1210  150.2510 C   0  0  0  0  0  3  0  0  0  0  0  0
  162.2480  208.3470  150.6930 C   0  0  2  0  0  3  0  0  0  0  0  0
  162.3280  209.3120  151.8660 C   0  0  0  0  0  1  0  0  0  0  0  0
  161.7990  206.1130  148.7410 N   0  0  0  0  0  2  0  0  0  0  0  0
  160.7530  202.0310  148.0090 C   0  0  0  0  0  3  0  0  0  0  0  0
  161.2570  204.4290  152.0130 C   0  0  0  0  0  0  0  0  0  0  0  0
  160.8380  202.8400  152.3810 S   0  0  0  0  0  0  0  0  0  0  0  0
  161.2040  208.8510  149.7070 C   0  0  0  0  0  2  0  0  0  0  0  0
  161.0620  203.2930  148.5400 C   0  0  0  0  0  3  0  0  0  0  0  0
  161.5800  208.5360  148.2600 C   0  0  0  0  0  2  0  0  0  0  0  0
  161.9190  206.9330  151.1150 C   0  0  0  0  0  0  0  0  0  0  0  0
  162.7090  206.9710  146.6270 C   0  0  0  0  0  2  0  0  0  0  0  0
  161.1110  205.2880  145.6380 C   0  0  0  0  0  0  0  0  0  0  0  0
  160.8100  204.0050  145.3180 F   0  0  0  0  0  0  0  0  0  0  0  0
  160.2840  206.2000  145.3700 O   0  0  0  0  0  0  0  0  0  0  0  0
  163.3790  204.5690  146.3830 C   0  0  0  0  0  1  0  0  0  0  0  0
  162.3620  205.6010  146.2630 N   0  0  0  0  0  0  0  0  0  0  0  0
  1 14  1  0  0  0  0
  2  1  2  0  0  0  0
  2 19  1  0  0  0  0
  4  1  1  0  0  0  0
  4  8  1  0  0  0  0
  5 20  1  6  0  0  0
  5 18  1  0  0  0  0
  5 12  1  0  0  0  0
  6  9  1  0  0  0  0
  7  3  1  0  0  0  0
  8 15  1  0  0  0  0
  9  8  2  0  0  0  0
 10 19  1  0  0  0  0
 10 11  1  1  0  0  0
 12  2  1  0  0  0  0
 13 17  1  0  0  0  0
 13  6  2  0  0  0  0
 14 15  1  0  0  0  0
 14  3  2  0  0  0  0
 16 10  1  0  0  0  0
 17  4  2  0  0  0  0
 18 16  1  0  0  0  0
 19  7  2  0  0  0  0
 21 25  1  0  0  0  0
 22 21  1  0  0  0  0
 23 21  2  0  0  0  0
 25 24  1  0  0  0  0
 25 20  1  0  0  0  0
M  END
>  <MODEL>
7

>  <REMARK>
 VINA RESULT:      -7.1      4.189      6.196
  Name = 
  2 active torsions:
  status: ('A' for Active; 'I' for Inactive)
    1  A    between atoms: C_6  and  C_15
    2  A    between atoms: C_15  and  N_25
                            x       y       z     vdW  Elec       q    Type
                         _______ _______ _______ _____ _____    ______ ____

>  <TORSDO>
F 2

$$$$
=
 OpenBabel11052422193D

 25 28  0  0  1  0  0  0  0  0999 V2000
  161.1390  203.1030  149.6630 C   0  0  0  0  0  0  0  0  0  0  0  0
  161.3580  204.4710  149.8840 C   0  0  0  0  0  0  0  0  0  0  0  0
  161.0490  202.7040  152.0150 N   0  0  0  0  0  0  0  0  0  0  0  0
  161.0510  202.4120  148.4430 C   0  0  0  0  0  0  0  0  0  0  0  0
  162.0310  206.7200  148.8250 C   0  0  2  0  0  3  0  0  0  0  0  0
  160.8200  200.7050  146.2420 C   0  0  0  0  0  3  0  0  0  0  0  0
  161.2410  204.0050  152.2460 N   0  0  0  0  0  0  0  0  0  0  0  0
  160.8350  201.0440  148.6160 C   0  0  0  0  0  0  0  0  0  0  0  0
  160.7170  200.1730  147.5350 C   0  0  0  0  0  3  0  0  0  0  0  0
  161.5680  206.3800  151.5820 C   0  0  2  0  0  3  0  0  0  0  0  0
  161.4560  206.6520  153.0740 C   0  0  0  0  0  1  0  0  0  0  0  0
  161.5220  205.3550  148.7620 N   0  0  0  0  0  2  0  0  0  0  0  0
  161.0370  202.0820  146.0520 C   0  0  0  0  0  3  0  0  0  0  0  0
  160.9930  202.2520  150.7440 C   0  0  0  0  0  0  0  0  0  0  0  0
  160.7520  200.6580  150.2560 S   0  0  0  0  0  0  0  0  0  0  0  0
  160.5320  207.2170  150.8450 C   0  0  0  0  0  2  0  0  0  0  0  0
  161.1540  202.9440  147.1540 C   0  0  0  0  0  3  0  0  0  0  0  0
  161.0320  207.6790  149.4780 C   0  0  0  0  0  2  0  0  0  0  0  0
  161.3920  204.9190  151.2360 C   0  0  0  0  0  0  0  0  0  0  0  0
  162.4460  207.2050  147.4360 C   0  0  0  0  0  2  0  0  0  0  0  0
  162.5810  205.3460  145.7360 C   0  0  0  0  0  0  0  0  0  0  0  0
  162.0060  204.6190  144.7450 F   0  0  0  0  0  0  0  0  0  0  0  0
  163.7590  205.0780  146.0920 O   0  0  0  0  0  0  0  0  0  0  0  0
  160.4340  206.5640  146.0870 C   0  0  0  0  0  1  0  0  0  0  0  0
  161.8490  206.4010  146.3740 N   0  0  0  0  0  0  0  0  0  0  0  0
  1  2  2  0  0  0  0
  1 14  1  0  0  0  0
  2 19  1  0  0  0  0
  3  7  1  0  0  0  0
  4  8  1  0  0  0  0
  4  1  1  0  0  0  0
  5 20  1  6  0  0  0
  5 18  1  0  0  0  0
  6  9  1  0  0  0  0
  8 15  1  0  0  0  0
  9  8  2  0  0  0  0
 10 11  1  1  0  0  0
 12  5  1  0  0  0  0
 12  2  1  0  0  0  0
 13  6  2  0  0  0  0
 13 17  1  0  0  0  0
 14  3  2  0  0  0  0
 15 14  1  0  0  0  0
 16 10  1  0  0  0  0
 17  4  2  0  0  0  0
 18 16  1  0  0  0  0
 19 10  1  0  0  0  0
 19  7  2  0  0  0  0
 21 23  2  0  0  0  0
 21 25  1  0  0  0  0
 22 21  1  0  0  0  0
 24 25  1  0  0  0  0
 25 20  1  0  0  0  0
M  END
>  <MODEL>
8

>  <REMARK>
 VINA RESULT:      -7.0      4.473      6.519
  Name = 
  2 active torsions:
  status: ('A' for Active; 'I' for Inactive)
    1  A    between atoms: C_6  and  C_15
    2  A    between atoms: C_15  and  N_25
                            x       y       z     vdW  Elec       q    Type
                         _______ _______ _______ _____ _____    ______ ____

>  <TORSDO>
F 2

$$$$
=
 OpenBabel11052422193D

 25 28  0  0  1  0  0  0  0  0999 V2000
  161.2750  206.1410  151.3050 C   0  0  0  0  0  0  0  0  0  0  0  0
  161.4000  207.4470  151.8030 C   0  0  0  0  0  0  0  0  0  0  0  0
  160.8360  205.3100  153.4990 N   0  0  0  0  0  0  0  0  0  0  0  0
  161.4060  205.6890  149.9810 C   0  0  0  0  0  0  0  0  0  0  0  0
  162.1360  209.8610  151.2940 C   0  0  2  0  0  3  0  0  0  0  0  0
  161.5910  204.4190  147.4980 C   0  0  0  0  0  3  0  0  0  0  0  0
  160.9360  206.5470  153.9910 N   0  0  0  0  0  0  0  0  0  0  0  0
  161.2230  204.3100  149.8650 C   0  0  0  0  0  0  0  0  0  0  0  0
  161.3110  203.6540  148.6390 C   0  0  0  0  0  3  0  0  0  0  0  0
  161.2640  209.0080  153.8320 C   0  0  2  0  0  3  0  0  0  0  0  0
  160.9100  208.9960  155.3120 C   0  0  0  0  0  1  0  0  0  0  0  0
  161.7000  208.5260  150.9030 N   0  0  0  0  0  2  0  0  0  0  0  0
  161.7790  205.8100  147.6000 C   0  0  0  0  0  3  0  0  0  0  0  0
  160.9970  205.1020  152.1750 C   0  0  0  0  0  0  0  0  0  0  0  0
  160.9020  203.6240  151.3730 S   0  0  0  0  0  0  0  0  0  0  0  0
  160.3220  209.9550  153.1030 C   0  0  0  0  0  2  0  0  0  0  0  0
  161.6860  206.4530  148.8450 C   0  0  0  0  0  3  0  0  0  0  0  0
  161.0090  210.6700  151.9410 C   0  0  0  0  0  2  0  0  0  0  0  0
  161.2040  207.6350  153.2020 C   0  0  0  0  0  0  0  0  0  0  0  0
  162.7410  210.6010  150.1010 C   0  0  0  0  0  2  0  0  0  0  0  0
  161.2750  211.8540  148.4750 C   0  0  0  0  0  0  0  0  0  0  0  0
  160.4310  211.8490  147.4140 F   0  0  0  0  0  0  0  0  0  0  0  0
  161.5650  212.9500  149.0250 O   0  0  0  0  0  0  0  0  0  0  0  0
  161.6480  209.4050  148.1910 C   0  0  0  0  0  1  0  0  0  0  0  0
  161.8370  210.6260  148.9560 N   0  0  0  0  0  0  0  0  0  0  0  0
  1  2  2  0  0  0  0
  1 14  1  0  0  0  0
  2 19  1  0  0  0  0
  3  7  1  0  0  0  0
  4  1  1  0  0  0  0
  5 20  1  6  0  0  0
  5 18  1  0  0  0  0
  6 13  2  0  0  0  0
  6  9  1  0  0  0  0
  8  4  1  0  0  0  0
  8 15  1  0  0  0  0
  9  8  2  0  0  0  0
 10 11  1  1  0  0  0
 12  5  1  0  0  0  0
 12  2  1  0  0  0  0
 13 17  1  0  0  0  0
 14  3  2  0  0  0  0
 15 14  1  0  0  0  0
 16 10  1  0  0  0  0
 17  4  2  0  0  0  0
 18 16  1  0  0  0  0
 19 10  1  0  0  0  0
 19  7  2  0  0  0  0
 21 25  1  0  0  0  0
 21 23  2  0  0  0  0
 22 21  1  0  0  0  0
 24 25  1  0  0  0  0
 25 20  1  0  0  0  0
M  END
>  <MODEL>
9

>  <REMARK>
 VINA RESULT:      -6.9      3.134      4.938
  Name = 
  2 active torsions:
  status: ('A' for Active; 'I' for Inactive)
    1  A    between atoms: C_6  and  C_15
    2  A    between atoms: C_15  and  N_25
                            x       y       z     vdW  Elec       q    Type
                         _______ _______ _______ _____ _____    ______ ____

>  <TORSDO>
F 2

$$$$
