=
 OpenBabel11052421593D

 30 33  0  0  0  0  0  0  0  0999 V2000
  160.9190  205.2270  150.3780 N   0  0  0  0  0  0  0  0  0  0  0  0
  160.9010  202.9150  151.1900 C   0  0  0  0  0  0  0  0  0  0  0  0
  161.4340  203.8680  146.3790 C   0  0  0  0  0  3  0  0  0  0  0  0
  160.7520  206.2210  149.3200 C   0  0  0  0  0  0  0  0  0  0  0  0
  161.5240  204.7770  145.3230 C   0  0  0  0  0  3  0  0  0  0  0  0
  160.9600  201.5410  150.9470 C   0  0  0  0  0  3  0  0  0  0  0  0
  160.7860  203.3640  152.4640 F   0  0  0  0  0  0  0  0  0  0  0  0
  161.1990  204.3150  147.6890 C   0  0  0  0  0  0  0  0  0  0  0  0
  161.0840  201.0650  149.6400 C   0  0  0  0  0  3  0  0  0  0  0  0
  160.9560  203.8200  150.1230 C   0  0  0  0  0  0  0  0  0  0  0  0
  161.0720  205.7010  147.9340 C   0  0  0  0  0  0  0  0  0  0  0  0
  161.3710  206.1420  145.5630 C   0  0  0  0  0  3  0  0  0  0  0  0
  161.1370  206.6010  146.8600 C   0  0  0  0  0  3  0  0  0  0  0  0
  161.1530  201.9650  148.5740 C   0  0  0  0  0  3  0  0  0  0  0  0
  161.0930  203.3480  148.8050 C   0  0  0  0  0  0  0  0  0  0  0  0
  163.0400  208.5290  151.0050 O   0  0  0  0  0  0  0  0  0  0  0  0
  162.0680  207.7290  150.9450 C   0  0  0  0  0  0  0  0  0  0  0  0
  161.4560  207.4600  149.6620 N   0  0  0  0  0  0  0  0  0  0  0  0
  162.2100  206.0360  152.8230 C   0  0  0  0  0  3  0  0  0  0  0  0
  160.5550  207.5220  152.9280 N   0  0  0  0  0  0  0  0  0  0  0  0
  161.6030  207.1040  152.2000 C   0  0  0  0  0  0  0  0  0  0  0  0
  161.5210  205.7750  153.9480 N   0  0  0  0  0  2  0  0  0  0  0  0
  160.5280  206.6870  153.9840 C   0  0  0  0  0  3  0  0  0  0  0  0
  161.6540  208.4030  148.5690 C   0  0  0  0  0  2  0  0  0  0  0  0
  161.9310  209.7930  149.1200 C   0  0  0  0  0  2  0  0  0  0  0  0
  162.2620  212.0340  148.1850 C   0  0  0  0  0  3  0  0  0  0  0  0
  161.7430  210.8190  148.0570 C   0  0  0  0  0  3  0  0  0  0  0  0
  162.6850  214.3030  147.2700 O   0  0  0  0  0  1  0  0  0  0  0  0
  162.0850  213.0550  147.1500 C   0  0  0  0  0  0  0  0  0  0  0  0
  161.3820  212.7970  146.1390 O   0  0  0  0  0  0  0  0  0  0  0  0
  2  7  1  0  0  0  0
  3  8  1  0  0  0  0
  4 18  1  0  0  0  0
  4  1  2  0  0  0  0
  5 12  1  0  0  0  0
  5  3  2  0  0  0  0
  6  2  1  0  0  0  0
  8 11  2  0  0  0  0
  8 15  1  0  0  0  0
  9  6  2  0  0  0  0
 10  1  1  0  0  0  0
 10  2  2  0  0  0  0
 11  4  1  0  0  0  0
 12 13  2  0  0  0  0
 13 11  1  0  0  0  0
 14 15  2  0  0  0  0
 14  9  1  0  0  0  0
 15 10  1  0  0  0  0
 17 16  2  0  0  0  0
 17 21  1  0  0  0  0
 18 17  1  0  0  0  0
 19 22  1  0  0  0  0
 20 23  2  0  0  0  0
 21 19  2  0  0  0  0
 21 20  1  0  0  0  0
 22 23  1  0  0  0  0
 24 25  1  0  0  0  0
 24 18  1  0  0  0  0
 27 26  2  0  0  0  0
 27 25  1  0  0  0  0
 29 28  1  0  0  0  0
 29 26  1  0  0  0  0
 30 29  2  0  0  0  0
M  END
>  <MODEL>
1

>  <REMARK>
 VINA RESULT:      -8.9      0.000      0.000
  Name = 
  6 active torsions:
  status: ('A' for Active; 'I' for Inactive)
    1  A    between atoms: C_4  and  N_13
    2  A    between atoms: C_7  and  C_15
    3  A    between atoms: C_8  and  C_12
    4  A    between atoms: N_13  and  C_27
    5  A    between atoms: C_16  and  C_30
    6  A    between atoms: C_27  and  C_30
                            x       y       z     vdW  Elec       q    Type
                         _______ _______ _______ _____ _____    ______ ____

>  <TORSDO>
F 6

$$$$
=
 OpenBabel11052421593D

 30 33  0  0  0  0  0  0  0  0999 V2000
  161.1190  206.5910  151.2460 N   0  0  0  0  0  0  0  0  0  0  0  0
  161.0840  204.4740  152.4780 C   0  0  0  0  0  0  0  0  0  0  0  0
  161.2440  204.4940  147.5470 C   0  0  0  0  0  3  0  0  0  0  0  0
  160.9010  207.3810  150.0360 C   0  0  0  0  0  0  0  0  0  0  0  0
  161.2790  205.1860  146.3350 C   0  0  0  0  0  3  0  0  0  0  0  0
  161.0710  203.0770  152.4940 C   0  0  0  0  0  3  0  0  0  0  0  0
  161.0940  205.1550  153.6500 F   0  0  0  0  0  0  0  0  0  0  0  0
  161.1370  205.1860  148.7640 C   0  0  0  0  0  0  0  0  0  0  0  0
  161.0680  202.3620  151.2940 C   0  0  0  0  0  3  0  0  0  0  0  0
  161.0820  205.1620  151.2580 C   0  0  0  0  0  0  0  0  0  0  0  0
  161.0830  206.5990  148.7530 C   0  0  0  0  0  0  0  0  0  0  0  0
  161.1970  206.5780  146.3250 C   0  0  0  0  0  3  0  0  0  0  0  0
  161.0910  207.2800  147.5260 C   0  0  0  0  0  3  0  0  0  0  0  0
  161.0790  203.0450  150.0750 C   0  0  0  0  0  3  0  0  0  0  0  0
  161.0900  204.4490  150.0460 C   0  0  0  0  0  0  0  0  0  0  0  0
  163.0370  210.0590  151.3280 O   0  0  0  0  0  0  0  0  0  0  0  0
  162.0010  209.3410  151.2980 C   0  0  0  0  0  0  0  0  0  0  0  0
  161.6770  208.6240  150.0850 N   0  0  0  0  0  0  0  0  0  0  0  0
  161.4050  208.4450  153.5900 C   0  0  0  0  0  3  0  0  0  0  0  0
  160.0940  210.0420  152.7590 N   0  0  0  0  0  0  0  0  0  0  0  0
  161.1670  209.2730  152.5150 C   0  0  0  0  0  0  0  0  0  0  0  0
  160.4560  208.6910  154.5120 N   0  0  0  0  0  2  0  0  0  0  0  0
  159.6800  209.6580  153.9820 C   0  0  0  0  0  3  0  0  0  0  0  0
  162.2620  209.0590  148.8230 C   0  0  0  0  0  2  0  0  0  0  0  0
  162.3110  210.5780  148.7650 C   0  0  0  0  0  2  0  0  0  0  0  0
  161.3000  212.3190  147.3680 C   0  0  0  0  0  3  0  0  0  0  0  0
  161.2280  211.0980  147.8840 C   0  0  0  0  0  3  0  0  0  0  0  0
  159.7340  212.0840  145.4560 O   0  0  0  0  0  0  0  0  0  0  0  0
  160.2440  212.8460  146.5010 C   0  0  0  0  0  0  0  0  0  0  0  0
  159.7930  214.0030  146.7060 O   0  0  0  0  0  1  0  0  0  0  0  0
  1 10  1  0  0  0  0
  2  6  1  0  0  0  0
  2  7  1  0  0  0  0
  3  8  1  0  0  0  0
  4 18  1  0  0  0  0
  4  1  2  0  0  0  0
  5  3  2  0  0  0  0
  8 15  1  0  0  0  0
  9  6  2  0  0  0  0
 10  2  2  0  0  0  0
 11  8  2  0  0  0  0
 11  4  1  0  0  0  0
 12  5  1  0  0  0  0
 12 13  2  0  0  0  0
 13 11  1  0  0  0  0
 14  9  1  0  0  0  0
 15 14  2  0  0  0  0
 15 10  1  0  0  0  0
 17 16  2  0  0  0  0
 17 21  1  0  0  0  0
 18 17  1  0  0  0  0
 19 22  1  0  0  0  0
 20 23  2  0  0  0  0
 21 20  1  0  0  0  0
 21 19  2  0  0  0  0
 23 22  1  0  0  0  0
 24 18  1  0  0  0  0
 25 24  1  0  0  0  0
 26 27  2  0  0  0  0
 27 25  1  0  0  0  0
 28 29  2  0  0  0  0
 29 30  1  0  0  0  0
 29 26  1  0  0  0  0
M  END
>  <MODEL>
2

>  <REMARK>
 VINA RESULT:      -8.4      1.570      1.947
  Name = 
  6 active torsions:
  status: ('A' for Active; 'I' for Inactive)
    1  A    between atoms: C_4  and  N_13
    2  A    between atoms: C_7  and  C_15
    3  A    between atoms: C_8  and  C_12
    4  A    between atoms: N_13  and  C_27
    5  A    between atoms: C_16  and  C_30
    6  A    between atoms: C_27  and  C_30
                            x       y       z     vdW  Elec       q    Type
                         _______ _______ _______ _____ _____    ______ ____

>  <TORSDO>
F 6

$$$$
=
 OpenBabel11052421593D

 30 33  0  0  0  0  0  0  0  0999 V2000
  161.5620  210.0060  151.2330 N   0  0  0  0  0  0  0  0  0  0  0  0
  162.0900  209.4180  148.9140 C   0  0  0  0  0  0  0  0  0  0  0  0
  161.1990  205.8910  152.2460 C   0  0  0  0  0  3  0  0  0  0  0  0
  161.4800  209.6850  152.6570 C   0  0  0  0  0  0  0  0  0  0  0  0
  160.8840  205.5020  153.5500 C   0  0  0  0  0  3  0  0  0  0  0  0
  162.3110  208.4570  147.9240 C   0  0  0  0  0  3  0  0  0  0  0  0
  162.1540  210.7340  148.5950 F   0  0  0  0  0  0  0  0  0  0  0  0
  161.3830  207.2460  151.9290 C   0  0  0  0  0  0  0  0  0  0  0  0
  162.2410  207.0980  148.2380 C   0  0  0  0  0  3  0  0  0  0  0  0
  161.8100  209.0200  150.2270 C   0  0  0  0  0  0  0  0  0  0  0  0
  161.2270  208.2200  152.9410 C   0  0  0  0  0  0  0  0  0  0  0  0
  160.7570  206.4630  154.5530 C   0  0  0  0  0  3  0  0  0  0  0  0
  160.9370  207.8130  154.2520 C   0  0  0  0  0  3  0  0  0  0  0  0
  161.9490  206.6980  149.5440 C   0  0  0  0  0  3  0  0  0  0  0  0
  161.7280  207.6530  150.5490 C   0  0  0  0  0  0  0  0  0  0  0  0
  160.2310  212.3090  154.8830 O   0  0  0  0  0  0  0  0  0  0  0  0
  160.7940  211.2130  154.6170 C   0  0  0  0  0  0  0  0  0  0  0  0
  160.5460  210.5890  153.3360 N   0  0  0  0  0  0  0  0  0  0  0  0
  162.9930  210.9910  155.8520 C   0  0  0  0  0  3  0  0  0  0  0  0
  161.3230  209.6790  156.5220 N   0  0  0  0  0  0  0  0  0  0  0  0
  161.6840  210.6220  155.6360 C   0  0  0  0  0  0  0  0  0  0  0  0
  163.4600  210.2570  156.8780 N   0  0  0  0  0  2  0  0  0  0  0  0
  162.4300  209.4750  157.2600 C   0  0  0  0  0  3  0  0  0  0  0  0
  159.3620  210.9690  152.5760 C   0  0  0  0  0  2  0  0  0  0  0  0
  159.2790  212.4830  152.4600 C   0  0  0  0  0  2  0  0  0  0  0  0
  160.3030  213.2490  150.3700 C   0  0  0  0  0  3  0  0  0  0  0  0
  159.2080  212.8910  151.0300 C   0  0  0  0  0  3  0  0  0  0  0  0
  159.0310  213.8380  148.3200 O   0  0  0  0  0  0  0  0  0  0  0  0
  160.2500  213.6540  148.9630 C   0  0  0  0  0  0  0  0  0  0  0  0
  161.3220  213.8370  148.3300 O   0  0  0  0  0  1  0  0  0  0  0  0
  1  4  1  0  0  0  0
  2 10  1  0  0  0  0
  3  5  2  0  0  0  0
  4 11  2  0  0  0  0
  4 18  1  0  0  0  0
  5 12  1  0  0  0  0
  6  9  1  0  0  0  0
  6  2  2  0  0  0  0
  7  2  1  0  0  0  0
  8  3  1  0  0  0  0
  8 11  1  0  0  0  0
  9 14  2  0  0  0  0
 10 15  1  0  0  0  0
 10  1  2  0  0  0  0
 11 13  1  0  0  0  0
 13 12  2  0  0  0  0
 14 15  1  0  0  0  0
 15  8  2  0  0  0  0
 17 16  2  0  0  0  0
 17 21  1  0  0  0  0
 18 17  1  0  0  0  0
 19 22  1  0  0  0  0
 20 23  2  0  0  0  0
 21 19  2  0  0  0  0
 21 20  1  0  0  0  0
 22 23  1  0  0  0  0
 24 18  1  0  0  0  0
 25 24  1  0  0  0  0
 26 27  2  0  0  0  0
 27 25  1  0  0  0  0
 28 29  2  0  0  0  0
 29 26  1  0  0  0  0
 30 29  1  0  0  0  0
M  END
>  <MODEL>
3

>  <REMARK>
 VINA RESULT:      -8.4      3.576      5.695
  Name = 
  6 active torsions:
  status: ('A' for Active; 'I' for Inactive)
    1  A    between atoms: C_4  and  N_13
    2  A    between atoms: C_7  and  C_15
    3  A    between atoms: C_8  and  C_12
    4  A    between atoms: N_13  and  C_27
    5  A    between atoms: C_16  and  C_30
    6  A    between atoms: C_27  and  C_30
                            x       y       z     vdW  Elec       q    Type
                         _______ _______ _______ _____ _____    ______ ____

>  <TORSDO>
F 6

$$$$
=
 OpenBabel11052421593D

 30 33  0  0  0  0  0  0  0  0999 V2000
  161.5580  210.0740  151.3020 N   0  0  0  0  0  0  0  0  0  0  0  0
  162.0830  209.5470  148.9670 C   0  0  0  0  0  0  0  0  0  0  0  0
  161.1990  205.9330  152.2070 C   0  0  0  0  0  3  0  0  0  0  0  0
  161.4790  209.7160  152.7160 C   0  0  0  0  0  0  0  0  0  0  0  0
  160.8860  205.5100  153.5010 C   0  0  0  0  0  3  0  0  0  0  0  0
  162.3020  208.6130  147.9520 C   0  0  0  0  0  3  0  0  0  0  0  0
  162.1460  210.8710  148.6820 F   0  0  0  0  0  0  0  0  0  0  0  0
  161.3810  207.2960  151.9250 C   0  0  0  0  0  0  0  0  0  0  0  0
  162.2340  207.2460  148.2300 C   0  0  0  0  0  3  0  0  0  0  0  0
  161.8050  209.1150  150.2700 C   0  0  0  0  0  0  0  0  0  0  0  0
  161.2270  208.2440  152.9620 C   0  0  0  0  0  0  0  0  0  0  0  0
  160.7610  206.4450  154.5290 C   0  0  0  0  0  3  0  0  0  0  0  0
  160.9390  207.8030  154.2630 C   0  0  0  0  0  3  0  0  0  0  0  0
  161.9440  206.8110  149.5260 C   0  0  0  0  0  3  0  0  0  0  0  0
  161.7240  207.7400  150.5550 C   0  0  0  0  0  0  0  0  0  0  0  0
  160.2350  212.3020  154.9900 O   0  0  0  0  0  0  0  0  0  0  0  0
  160.8080  211.2160  154.7030 C   0  0  0  0  0  0  0  0  0  0  0  0
  160.5450  210.6010  153.4200 N   0  0  0  0  0  0  0  0  0  0  0  0
  162.9940  211.0810  155.9740 C   0  0  0  0  0  3  0  0  0  0  0  0
  161.4210  209.5990  156.5110 N   0  0  0  0  0  0  0  0  0  0  0  0
  161.7220  210.6260  155.7010 C   0  0  0  0  0  0  0  0  0  0  0  0
  163.4980  210.3150  156.9580 N   0  0  0  0  0  2  0  0  0  0  0  0
  162.5260  209.4300  157.2610 C   0  0  0  0  0  3  0  0  0  0  0  0
  159.3440  210.9740  152.6840 C   0  0  0  0  0  2  0  0  0  0  0  0
  159.5250  212.3420  152.0460 C   0  0  0  0  0  2  0  0  0  0  0  0
  157.4920  212.9680  153.2610 C   0  0  0  0  0  3  0  0  0  0  0  0
  158.2960  213.1640  152.2240 C   0  0  0  0  0  3  0  0  0  0  0  0
  155.4840  214.1240  152.3670 O   0  0  0  0  0  0  0  0  0  0  0  0
  156.2790  213.7680  153.4510 C   0  0  0  0  0  0  0  0  0  0  0  0
  155.9540  214.1350  154.6090 O   0  0  0  0  0  1  0  0  0  0  0  0
  1  4  1  0  0  0  0
  2 10  1  0  0  0  0
  3  5  2  0  0  0  0
  4 11  2  0  0  0  0
  4 18  1  0  0  0  0
  5 12  1  0  0  0  0
  6  9  1  0  0  0  0
  6  2  2  0  0  0  0
  7  2  1  0  0  0  0
  8  3  1  0  0  0  0
  8 11  1  0  0  0  0
  9 14  2  0  0  0  0
 10 15  1  0  0  0  0
 10  1  2  0  0  0  0
 11 13  1  0  0  0  0
 13 12  2  0  0  0  0
 14 15  1  0  0  0  0
 15  8  2  0  0  0  0
 17 16  2  0  0  0  0
 17 21  1  0  0  0  0
 18 17  1  0  0  0  0
 19 22  1  0  0  0  0
 20 23  2  0  0  0  0
 21 19  2  0  0  0  0
 21 20  1  0  0  0  0
 22 23  1  0  0  0  0
 24 18  1  0  0  0  0
 25 27  1  0  0  0  0
 25 24  1  0  0  0  0
 26 29  1  0  0  0  0
 27 26  2  0  0  0  0
 28 29  2  0  0  0  0
 29 30  1  0  0  0  0
M  END
>  <MODEL>
4

>  <REMARK>
 VINA RESULT:      -8.3      4.661      6.497
  Name = 
  6 active torsions:
  status: ('A' for Active; 'I' for Inactive)
    1  A    between atoms: C_4  and  N_13
    2  A    between atoms: C_7  and  C_15
    3  A    between atoms: C_8  and  C_12
    4  A    between atoms: N_13  and  C_27
    5  A    between atoms: C_16  and  C_30
    6  A    between atoms: C_27  and  C_30
                            x       y       z     vdW  Elec       q    Type
                         _______ _______ _______ _____ _____    ______ ____

>  <TORSDO>
F 6

$$$$
=
 OpenBabel11052421593D

 30 33  0  0  1  0  0  0  0  0999 V2000
  161.1780  209.7390  153.1460 N   0  0  0  0  0  0  0  0  0  0  0  0
  161.2940  210.0790  155.5690 C   0  0  0  0  0  0  0  0  0  0  0  0
  161.2060  205.5200  153.6880 C   0  0  0  0  0  3  0  0  0  0  0  0
  160.8660  208.9240  151.9730 C   0  0  0  0  0  0  0  0  0  0  0  0
  161.1510  204.6580  152.5900 C   0  0  0  0  0  3  0  0  0  0  0  0
  161.3410  209.5670  156.8680 C   0  0  0  0  0  3  0  0  0  0  0  0
  161.3330  211.4210  155.3790 F   0  0  0  0  0  0  0  0  0  0  0  0
  161.1310  206.9100  153.5110 C   0  0  0  0  0  0  0  0  0  0  0  0
  161.3070  208.1860  157.0780 C   0  0  0  0  0  3  0  0  0  0  0  0
  161.2020  209.2110  154.4750 C   0  0  0  0  0  0  0  0  0  0  0  0
  161.0160  207.4360  152.2040 C   0  0  0  0  0  0  0  0  0  0  0  0
  161.0100  205.1780  151.3030 C   0  0  0  0  0  3  0  0  0  0  0  0
  160.9340  206.5580  151.1120 C   0  0  0  0  0  3  0  0  0  0  0  0
  161.2290  207.3160  155.9880 C   0  0  0  0  0  3  0  0  0  0  0  0
  161.1790  207.8190  154.6780 C   0  0  0  0  0  0  0  0  0  0  0  0
  162.7290  211.1760  149.7690 O   0  0  0  0  0  0  0  0  0  0  0  0
  161.7280  210.8110  150.4430 C   0  0  0  0  0  0  0  0  0  0  0  0
  161.5900  209.4160  150.7970 N   0  0  0  0  0  0  0  0  0  0  0  0
  160.3320  212.8860  150.0430 C   0  0  0  0  0  3  0  0  0  0  0  0
  160.0800  211.8630  152.0050 N   0  0  0  0  0  0  0  0  0  0  0  0
  160.7430  211.8390  150.8380 C   0  0  1  0  0  3  0  0  0  0  0  0
  159.4100  213.5820  150.7310 N   0  0  0  0  0  0  0  0  0  0  0  0
  159.2800  212.9420  151.9110 C   0  0  0  0  0  3  0  0  0  0  0  0
  162.3230  208.4120  150.0360 C   0  0  0  0  0  2  0  0  0  0  0  0
  161.8580  208.4110  148.5880 C   0  0  0  0  0  2  0  0  0  0  0  0
  161.4740  206.2470  147.5040 C   0  0  0  0  0  3  0  0  0  0  0  0
  162.3320  207.1830  147.8920 C   0  0  0  0  0  3  0  0  0  0  0  0
  162.6970  205.1110  145.6660 O   0  0  0  0  0  0  0  0  0  0  0  0
  161.9240  205.0340  146.8190 C   0  0  0  0  0  0  0  0  0  0  0  0
  161.6060  203.9070  147.2810 O   0  0  0  0  0  1  0  0  0  0  0  0
  1 10  1  0  0  0  0
  2  6  1  0  0  0  0
  4 11  1  0  0  0  0
  4  1  2  0  0  0  0
  5  3  2  0  0  0  0
  6  9  2  0  0  0  0
  7  2  1  0  0  0  0
  8  3  1  0  0  0  0
  8 15  1  0  0  0  0
 10 15  1  0  0  0  0
 10  2  2  0  0  0  0
 11  8  2  0  0  0  0
 12  5  1  0  0  0  0
 13 12  2  0  0  0  0
 13 11  1  0  0  0  0
 14  9  1  0  0  0  0
 15 14  2  0  0  0  0
 16 17  2  0  0  0  0
 17 18  1  0  0  0  0
 18  4  1  0  0  0  0
 19 22  2  0  0  0  0
 19 21  1  0  0  0  0
 21 17  1  6  0  0  0
 21 20  1  0  0  0  0
 22 23  1  0  0  0  0
 23 20  2  0  0  0  0
 24 18  1  0  0  0  0
 25 24  1  0  0  0  0
 26 27  2  0  0  0  0
 27 25  1  0  0  0  0
 28 29  2  0  0  0  0
 29 30  1  0  0  0  0
 29 26  1  0  0  0  0
M  END
>  <MODEL>
5

>  <REMARK>
 VINA RESULT:      -7.8      3.444      6.669
  Name = 
  6 active torsions:
  status: ('A' for Active; 'I' for Inactive)
    1  A    between atoms: C_4  and  N_13
    2  A    between atoms: C_7  and  C_15
    3  A    between atoms: C_8  and  C_12
    4  A    between atoms: N_13  and  C_27
    5  A    between atoms: C_16  and  C_30
    6  A    between atoms: C_27  and  C_30
                            x       y       z     vdW  Elec       q    Type
                         _______ _______ _______ _____ _____    ______ ____

>  <TORSDO>
F 6

$$$$
=
 OpenBabel11052421593D

 30 33  0  0  1  0  0  0  0  0999 V2000
  161.5760  204.5210  148.5350 N   0  0  0  0  0  0  0  0  0  0  0  0
  160.9970  202.1410  148.4620 C   0  0  0  0  0  0  0  0  0  0  0  0
  160.9440  204.5960  152.7410 C   0  0  0  0  0  3  0  0  0  0  0  0
  162.0270  205.7150  149.2450 C   0  0  0  0  0  0  0  0  0  0  0  0
  161.1260  205.7730  153.4700 C   0  0  0  0  0  3  0  0  0  0  0  0
  160.6220  200.9610  149.1090 C   0  0  0  0  0  3  0  0  0  0  0  0
  161.1550  202.1440  147.1160 F   0  0  0  0  0  0  0  0  0  0  0  0
  161.2160  204.5570  151.3650 C   0  0  0  0  0  0  0  0  0  0  0  0
  160.4500  200.9460  150.4950 C   0  0  0  0  0  3  0  0  0  0  0  0
  161.2140  203.3090  149.2040 C   0  0  0  0  0  0  0  0  0  0  0  0
  161.6600  205.7300  150.7140 C   0  0  0  0  0  0  0  0  0  0  0  0
  161.5910  206.9230  152.8310 C   0  0  0  0  0  3  0  0  0  0  0  0
  161.8650  206.8990  151.4630 C   0  0  0  0  0  3  0  0  0  0  0  0
  160.6520  202.1120  151.2360 C   0  0  0  0  0  3  0  0  0  0  0  0
  161.0320  203.3040  150.5980 C   0  0  0  0  0  0  0  0  0  0  0  0
  160.3770  207.8770  146.7950 O   0  0  0  0  0  0  0  0  0  0  0  0
  161.1490  206.9480  147.1590 C   0  0  0  0  0  0  0  0  0  0  0  0
  161.6270  206.9270  148.5240 N   0  0  0  0  0  0  0  0  0  0  0  0
  160.6660  205.3620  145.2450 C   0  0  0  0  0  3  0  0  0  0  0  0
  162.7650  205.4410  145.9850 N   0  0  0  0  0  0  0  0  0  0  0  0
  161.5250  205.9250  146.1630 C   0  0  1  0  0  3  0  0  0  0  0  0
  161.3780  204.5020  144.4940 N   0  0  0  0  0  0  0  0  0  0  0  0
  162.6400  204.5710  144.9650 C   0  0  0  0  0  3  0  0  0  0  0  0
  161.5870  208.1520  149.3120 C   0  0  0  0  0  2  0  0  0  0  0  0
  162.4180  209.2340  148.6380 C   0  0  0  0  0  2  0  0  0  0  0  0
  162.0100  211.6160  148.2350 C   0  0  0  0  0  3  0  0  0  0  0  0
  161.9580  210.5840  149.0670 C   0  0  0  0  0  3  0  0  0  0  0  0
  162.2680  214.0860  148.2610 O   0  0  0  0  0  0  0  0  0  0  0  0
  161.5630  212.9500  148.6420 C   0  0  0  0  0  0  0  0  0  0  0  0
  160.5260  213.0680  149.3450 O   0  0  0  0  0  1  0  0  0  0  0  0
  1 10  2  0  0  0  0
  1  4  1  0  0  0  0
  2  6  2  0  0  0  0
  2 10  1  0  0  0  0
  3  5  2  0  0  0  0
  4 11  2  0  0  0  0
  6  9  1  0  0  0  0
  7  2  1  0  0  0  0
  8  3  1  0  0  0  0
  9 14  2  0  0  0  0
 10 15  1  0  0  0  0
 11  8  1  0  0  0  0
 11 13  1  0  0  0  0
 12  5  1  0  0  0  0
 13 12  2  0  0  0  0
 15 14  1  0  0  0  0
 15  8  2  0  0  0  0
 16 17  2  0  0  0  0
 17 18  1  0  0  0  0
 18  4  1  0  0  0  0
 18 24  1  0  0  0  0
 19 21  1  0  0  0  0
 20 21  1  0  0  0  0
 21 17  1  6  0  0  0
 22 23  1  0  0  0  0
 22 19  2  0  0  0  0
 23 20  2  0  0  0  0
 25 27  1  0  0  0  0
 25 24  1  0  0  0  0
 26 29  1  0  0  0  0
 26 27  2  0  0  0  0
 28 29  2  0  0  0  0
 29 30  1  0  0  0  0
M  END
>  <MODEL>
6

>  <REMARK>
 VINA RESULT:      -7.8      2.240      4.704
  Name = 
  6 active torsions:
  status: ('A' for Active; 'I' for Inactive)
    1  A    between atoms: C_4  and  N_13
    2  A    between atoms: C_7  and  C_15
    3  A    between atoms: C_8  and  C_12
    4  A    between atoms: N_13  and  C_27
    5  A    between atoms: C_16  and  C_30
    6  A    between atoms: C_27  and  C_30
                            x       y       z     vdW  Elec       q    Type
                         _______ _______ _______ _____ _____    ______ ____

>  <TORSDO>
F 6

$$$$
=
 OpenBabel11052421593D

 30 33  0  0  1  0  0  0  0  0999 V2000
  161.8920  204.7060  148.5120 N   0  0  0  0  0  0  0  0  0  0  0  0
  161.0320  202.5390  147.7570 C   0  0  0  0  0  0  0  0  0  0  0  0
  160.6170  203.8840  152.4860 C   0  0  0  0  0  3  0  0  0  0  0  0
  162.3750  205.6070  149.5560 C   0  0  0  0  0  0  0  0  0  0  0  0
  160.8310  204.8090  153.5100 C   0  0  0  0  0  3  0  0  0  0  0  0
  160.4110  201.3170  148.0270 C   0  0  0  0  0  3  0  0  0  0  0  0
  161.4000  202.8350  146.4870 F   0  0  0  0  0  0  0  0  0  0  0  0
  161.0960  204.1280  151.1890 C   0  0  0  0  0  0  0  0  0  0  0  0
  160.0210  201.0020  149.3310 C   0  0  0  0  0  3  0  0  0  0  0  0
  161.2760  203.4460  148.7960 C   0  0  0  0  0  0  0  0  0  0  0  0
  161.7850  205.3330  150.9230 C   0  0  0  0  0  0  0  0  0  0  0  0
  161.5350  205.9850  153.2510 C   0  0  0  0  0  3  0  0  0  0  0  0
  162.0170  206.2410  151.9670 C   0  0  0  0  0  3  0  0  0  0  0  0
  160.2510  201.9110  150.3670 C   0  0  0  0  0  3  0  0  0  0  0  0
  160.8770  203.1410  150.1090 C   0  0  0  0  0  0  0  0  0  0  0  0
  161.0970  208.5900  147.8630 O   0  0  0  0  0  0  0  0  0  0  0  0
  161.5990  207.4350  147.9120 C   0  0  0  0  0  0  0  0  0  0  0  0
  162.2520  207.0040  149.1290 N   0  0  0  0  0  0  0  0  0  0  0  0
  160.3090  206.2040  146.1140 C   0  0  0  0  0  3  0  0  0  0  0  0
  162.5310  206.0880  146.0210 N   0  0  0  0  0  0  0  0  0  0  0  0
  161.4910  206.5780  146.7140 C   0  0  1  0  0  3  0  0  0  0  0  0
  160.6170  205.4560  145.0390 N   0  0  0  0  0  0  0  0  0  0  0  0
  161.9640  205.4040  145.0090 C   0  0  0  0  0  3  0  0  0  0  0  0
  162.7060  208.0040  150.0860 C   0  0  0  0  0  2  0  0  0  0  0  0
  161.6440  209.0790  150.2620 C   0  0  0  0  0  2  0  0  0  0  0  0
  160.6110  209.5660  152.4300 C   0  0  0  0  0  3  0  0  0  0  0  0
  161.6820  209.6220  151.6480 C   0  0  0  0  0  3  0  0  0  0  0  0
  160.8160  211.4540  154.0290 O   0  0  0  0  0  0  0  0  0  0  0  0
  160.6310  210.0960  153.7950 C   0  0  0  0  0  0  0  0  0  0  0  0
  160.4780  209.3120  154.7670 O   0  0  0  0  0  1  0  0  0  0  0  0
  1 10  2  0  0  0  0
  1  4  1  0  0  0  0
  2  6  2  0  0  0  0
  2 10  1  0  0  0  0
  3  5  2  0  0  0  0
  4 11  2  0  0  0  0
  6  9  1  0  0  0  0
  7  2  1  0  0  0  0
  8  3  1  0  0  0  0
  9 14  2  0  0  0  0
 10 15  1  0  0  0  0
 11  8  1  0  0  0  0
 11 13  1  0  0  0  0
 12  5  1  0  0  0  0
 13 12  2  0  0  0  0
 15 14  1  0  0  0  0
 15  8  2  0  0  0  0
 16 17  2  0  0  0  0
 17 18  1  0  0  0  0
 18  4  1  0  0  0  0
 18 24  1  0  0  0  0
 19 21  1  0  0  0  0
 20 21  1  0  0  0  0
 21 17  1  6  0  0  0
 22 19  2  0  0  0  0
 23 22  1  0  0  0  0
 23 20  2  0  0  0  0
 24 25  1  0  0  0  0
 25 27  1  0  0  0  0
 26 29  1  0  0  0  0
 27 26  2  0  0  0  0
 29 28  2  0  0  0  0
 29 30  1  0  0  0  0
M  END
>  <MODEL>
7

>  <REMARK>
 VINA RESULT:      -7.6      2.760      5.340
  Name = 
  6 active torsions:
  status: ('A' for Active; 'I' for Inactive)
    1  A    between atoms: C_4  and  N_13
    2  A    between atoms: C_7  and  C_15
    3  A    between atoms: C_8  and  C_12
    4  A    between atoms: N_13  and  C_27
    5  A    between atoms: C_16  and  C_30
    6  A    between atoms: C_27  and  C_30
                            x       y       z     vdW  Elec       q    Type
                         _______ _______ _______ _____ _____    ______ ____

>  <TORSDO>
F 6

$$$$
=
 OpenBabel11052421593D

 30 33  0  0  0  0  0  0  0  0999 V2000
  161.2140  208.2570  151.0690 N   0  0  0  0  0  0  0  0  0  0  0  0
  161.1710  209.2700  153.2990 C   0  0  0  0  0  0  0  0  0  0  0  0
  160.8520  204.3760  152.7730 C   0  0  0  0  0  3  0  0  0  0  0  0
  160.9270  207.1600  150.1480 C   0  0  0  0  0  0  0  0  0  0  0  0
  160.8100  203.2400  151.9600 C   0  0  0  0  0  3  0  0  0  0  0  0
  161.0750  209.1490  154.6880 C   0  0  0  0  0  3  0  0  0  0  0  0
  161.3360  210.4970  152.7450 F   0  0  0  0  0  0  0  0  0  0  0  0
  160.9050  205.6590  152.2060 C   0  0  0  0  0  0  0  0  0  0  0  0
  160.9120  207.8910  155.2720 C   0  0  0  0  0  3  0  0  0  0  0  0
  161.0920  208.1310  152.4890 C   0  0  0  0  0  0  0  0  0  0  0  0
  160.9360  205.7940  150.8000 C   0  0  0  0  0  0  0  0  0  0  0  0
  160.8120  203.3770  150.5720 C   0  0  0  0  0  3  0  0  0  0  0  0
  160.8650  204.6460  149.9950 C   0  0  0  0  0  3  0  0  0  0  0  0
  160.8460  206.7510  154.4680 C   0  0  0  0  0  3  0  0  0  0  0  0
  160.9390  206.8600  153.0710 C   0  0  0  0  0  0  0  0  0  0  0  0
  163.5280  208.3360  147.8550 O   0  0  0  0  0  0  0  0  0  0  0  0
  162.4710  208.4480  148.5350 C   0  0  0  0  0  0  0  0  0  0  0  0
  161.7770  207.2510  148.9570 N   0  0  0  0  0  0  0  0  0  0  0  0
  162.3330  210.5060  150.0030 C   0  0  0  0  0  3  0  0  0  0  0  0
  161.2130  210.5620  148.0780 N   0  0  0  0  0  0  0  0  0  0  0  0
  161.9970  209.8070  148.8650 C   0  0  0  0  0  0  0  0  0  0  0  0
  161.7370  211.7100  149.9310 N   0  0  0  0  0  2  0  0  0  0  0  0
  161.0690  211.7140  148.7600 C   0  0  0  0  0  3  0  0  0  0  0  0
  162.0290  205.9980  148.2570 C   0  0  0  0  0  2  0  0  0  0  0  0
  161.6470  206.1320  146.7910 C   0  0  0  0  0  2  0  0  0  0  0  0
  161.5810  203.7020  146.4830 C   0  0  0  0  0  3  0  0  0  0  0  0
  160.9980  204.8810  146.3080 C   0  0  0  0  0  3  0  0  0  0  0  0
  160.9920  201.3090  146.7880 O   0  0  0  0  0  1  0  0  0  0  0  0
  160.9560  202.4630  146.0130 C   0  0  0  0  0  0  0  0  0  0  0  0
  160.3800  202.4440  144.8950 O   0  0  0  0  0  0  0  0  0  0  0  0
  1 10  1  0  0  0  0
  2  6  1  0  0  0  0
  4 11  1  0  0  0  0
  4  1  2  0  0  0  0
  5  3  2  0  0  0  0
  6  9  2  0  0  0  0
  7  2  1  0  0  0  0
  8  3  1  0  0  0  0
  8 15  1  0  0  0  0
 10 15  1  0  0  0  0
 10  2  2  0  0  0  0
 11  8  2  0  0  0  0
 12  5  1  0  0  0  0
 13 12  2  0  0  0  0
 13 11  1  0  0  0  0
 14  9  1  0  0  0  0
 15 14  2  0  0  0  0
 16 17  2  0  0  0  0
 17 21  1  0  0  0  0
 17 18  1  0  0  0  0
 18  4  1  0  0  0  0
 20 23  2  0  0  0  0
 20 21  1  0  0  0  0
 21 19  2  0  0  0  0
 22 19  1  0  0  0  0
 23 22  1  0  0  0  0
 24 18  1  0  0  0  0
 25 24  1  0  0  0  0
 27 26  2  0  0  0  0
 27 25  1  0  0  0  0
 29 26  1  0  0  0  0
 29 28  1  0  0  0  0
 30 29  2  0  0  0  0
M  END
>  <MODEL>
8

>  <REMARK>
 VINA RESULT:      -7.5      3.117      6.507
  Name = 
  6 active torsions:
  status: ('A' for Active; 'I' for Inactive)
    1  A    between atoms: C_4  and  N_13
    2  A    between atoms: C_7  and  C_15
    3  A    between atoms: C_8  and  C_12
    4  A    between atoms: N_13  and  C_27
    5  A    between atoms: C_16  and  C_30
    6  A    between atoms: C_27  and  C_30
                            x       y       z     vdW  Elec       q    Type
                         _______ _______ _______ _____ _____    ______ ____

>  <TORSDO>
F 6

$$$$
=
 OpenBabel11052421593D

 30 33  0  0  1  0  0  0  0  0999 V2000
  161.3850  206.6980  148.8560 N   0  0  0  0  0  0  0  0  0  0  0  0
  161.8960  209.0940  148.8610 C   0  0  0  0  0  0  0  0  0  0  0  0
  161.4140  206.6330  153.1100 C   0  0  0  0  0  3  0  0  0  0  0  0
  160.8720  205.4890  149.4980 C   0  0  0  0  0  0  0  0  0  0  0  0
  161.1650  205.4490  153.8070 C   0  0  0  0  0  3  0  0  0  0  0  0
  162.1410  210.2840  149.5520 C   0  0  0  0  0  3  0  0  0  0  0  0
  161.9330  209.0890  147.5060 F   0  0  0  0  0  0  0  0  0  0  0  0
  161.3400  206.6670  151.7090 C   0  0  0  0  0  0  0  0  0  0  0  0
  162.1130  210.3010  150.9490 C   0  0  0  0  0  3  0  0  0  0  0  0
  161.6120  207.9190  149.5670 C   0  0  0  0  0  0  0  0  0  0  0  0
  161.0270  205.4820  151.0040 C   0  0  0  0  0  0  0  0  0  0  0  0
  160.8300  204.2880  153.1120 C   0  0  0  0  0  3  0  0  0  0  0  0
  160.7530  204.3060  151.7180 C   0  0  0  0  0  3  0  0  0  0  0  0
  161.8430  209.1270  151.6560 C   0  0  0  0  0  3  0  0  0  0  0  0
  161.5930  207.9260  150.9730 C   0  0  0  0  0  0  0  0  0  0  0  0
  162.7260  203.3920  147.1390 O   0  0  0  0  0  0  0  0  0  0  0  0
  161.8520  204.2380  147.4680 C   0  0  0  0  0  0  0  0  0  0  0  0
  161.4080  204.2920  148.8440 N   0  0  0  0  0  0  0  0  0  0  0  0
  161.9160  205.3580  145.1980 C   0  0  0  0  0  3  0  0  0  0  0  0
  160.1690  205.8170  146.5000 N   0  0  0  0  0  0  0  0  0  0  0  0
  161.3230  205.1360  146.4210 C   0  0  1  0  0  3  0  0  0  0  0  0
  161.1280  206.2030  144.5100 N   0  0  0  0  0  0  0  0  0  0  0  0
  160.0820  206.4630  145.3220 C   0  0  0  0  0  3  0  0  0  0  0  0
  161.6230  203.1370  149.7070 C   0  0  0  0  0  2  0  0  0  0  0  0
  160.4670  202.1580  149.5680 C   0  0  0  0  0  2  0  0  0  0  0  0
  161.1550  200.6750  147.7430 C   0  0  0  0  0  3  0  0  0  0  0  0
  160.3740  201.6610  148.1670 C   0  0  0  0  0  3  0  0  0  0  0  0
  160.4530  200.9200  145.3740 O   0  0  0  0  0  0  0  0  0  0  0  0
  161.0760  200.1750  146.3690 C   0  0  0  0  0  0  0  0  0  0  0  0
  161.5790  199.0560  146.0860 O   0  0  0  0  0  1  0  0  0  0  0  0
  1  4  2  0  0  0  0
  1 10  1  0  0  0  0
  2  6  2  0  0  0  0
  2 10  1  0  0  0  0
  3  5  1  0  0  0  0
  4 11  1  0  0  0  0
  6  9  1  0  0  0  0
  7  2  1  0  0  0  0
  8  3  2  0  0  0  0
  9 14  2  0  0  0  0
 10 15  2  0  0  0  0
 11  8  1  0  0  0  0
 11 13  2  0  0  0  0
 12  5  2  0  0  0  0
 13 12  1  0  0  0  0
 15 14  1  0  0  0  0
 15  8  1  0  0  0  0
 16 17  2  0  0  0  0
 17 18  1  0  0  0  0
 18  4  1  0  0  0  0
 18 24  1  0  0  0  0
 19 21  1  0  0  0  0
 21 20  1  0  0  0  0
 21 17  1  6  0  0  0
 22 19  2  0  0  0  0
 22 23  1  0  0  0  0
 23 20  2  0  0  0  0
 25 24  1  0  0  0  0
 26 27  2  0  0  0  0
 27 25  1  0  0  0  0
 28 29  2  0  0  0  0
 29 26  1  0  0  0  0
 30 29  1  0  0  0  0
M  END
>  <MODEL>
9

>  <REMARK>
 VINA RESULT:      -7.3      3.669      7.872
  Name = 
  6 active torsions:
  status: ('A' for Active; 'I' for Inactive)
    1  A    between atoms: C_4  and  N_13
    2  A    between atoms: C_7  and  C_15
    3  A    between atoms: C_8  and  C_12
    4  A    between atoms: N_13  and  C_27
    5  A    between atoms: C_16  and  C_30
    6  A    between atoms: C_27  and  C_30
                            x       y       z     vdW  Elec       q    Type
                         _______ _______ _______ _____ _____    ______ ____

>  <TORSDO>
F 6

$$$$
