=
 OpenBabel11062407513D

 34 40  0  0  1  0  0  0  0  0999 V2000
  160.0720  212.9450  151.3000 C   0  0  0  0  0  0  0  0  0  0  0  0
  161.3630  212.2790  149.3300 C   0  0  0  0  0  0  0  0  0  0  0  0
  160.9640  210.6910  151.1640 C   0  0  0  0  0  0  0  0  0  0  0  0
  161.3780  208.1810  150.8120 C   0  0  1  0  0  3  0  0  0  0  0  0
  160.2780  214.4490  149.4160 C   0  0  0  0  0  3  0  0  0  0  0  0
  161.0690  213.5130  148.7440 C   0  0  0  0  0  3  0  0  0  0  0  0
  162.1120  209.6800  149.2410 C   0  0  0  0  0  0  0  0  0  0  0  0
  160.8210  211.9700  150.6000 C   0  0  0  0  0  0  0  0  0  0  0  0
  162.3690  207.4610  150.0060 N   0  0  0  0  0  2  0  0  0  0  0  0
  159.7950  214.1750  150.6980 C   0  0  0  0  0  3  0  0  0  0  0  0
  160.5220  210.4240  152.4750 C   0  0  0  0  0  0  0  0  0  0  0  0
  159.5860  212.6710  152.5810 C   0  0  0  0  0  3  0  0  0  0  0  0
  162.6350  211.2530  148.5490 S   0  0  0  0  0  0  0  0  0  0  0  0
  161.6890  208.1340  152.3040 C   0  0  0  0  0  2  0  0  0  0  0  0
  160.6970  209.0300  153.0820 C   0  0  1  0  0  3  0  0  0  0  0  0
  162.6660  208.3490  148.8690 C   0  0  1  0  0  3  0  0  0  0  0  0
  161.4660  209.5780  150.3680 C   0  0  0  0  0  0  0  0  0  0  0  0
  159.8180  211.4230  153.1690 C   0  0  0  0  0  3  0  0  0  0  0  0
  162.3280  210.0590  156.3710 C   0  0  0  0  0  0  0  0  0  0  0  0
  161.7560  209.1350  157.2510 C   0  0  0  0  0  3  0  0  0  0  0  0
  161.0800  209.0730  154.5310 C   0  0  0  0  0  0  0  0  0  0  0  0
  160.8540  208.1740  156.7730 C   0  0  0  0  0  3  0  0  0  0  0  0
  161.9930  210.0300  155.0130 C   0  0  0  0  0  3  0  0  0  0  0  0
  160.5160  208.1420  155.4160 C   0  0  0  0  0  3  0  0  0  0  0  0
  163.2030  210.9930  156.8340 F   0  0  0  0  0  0  0  0  0  0  0  0
  161.9740  207.8260  147.6180 C   0  0  0  0  0  2  0  0  0  0  0  0
  162.2020  206.3940  147.4890 N   0  0  0  0  0  2  0  0  0  0  0  0
  161.1890  204.0510  149.0210 C   0  0  0  0  0  1  0  0  0  0  0  0
  160.9140  205.7790  147.1930 C   0  0  2  0  0  3  0  0  0  0  0  0
  160.9330  204.2850  147.5450 C   0  0  1  0  0  3  0  0  0  0  0  0
  161.9090  203.9320  145.2010 C   0  0  0  0  0  2  0  0  0  0  0  0
  160.6480  204.7320  144.8540 C   0  0  0  0  0  2  0  0  0  0  0  0
  160.5660  206.0090  145.7100 C   0  0  0  0  0  2  0  0  0  0  0  0
  161.9400  203.5110  146.6860 C   0  0  0  0  0  2  0  0  0  0  0  0
  1 12  1  0  0  0  0
  2  8  1  0  0  0  0
  3 11  2  0  0  0  0
  4 14  1  1  0  0  0
  5 10  2  0  0  0  0
  6  2  2  0  0  0  0
  6  5  1  0  0  0  0
  7 17  2  0  0  0  0
  8  3  1  0  0  0  0
  8  1  2  0  0  0  0
  9  4  1  0  0  0  0
 10  1  1  0  0  0  0
 11 15  1  0  0  0  0
 11 18  1  0  0  0  0
 12 18  2  0  0  0  0
 13  7  1  0  0  0  0
 13  2  1  0  0  0  0
 14 15  1  0  0  0  0
 15 21  1  1  0  0  0
 16 26  1  6  0  0  0
 16  7  1  0  0  0  0
 16  9  1  0  0  0  0
 17  4  1  0  0  0  0
 17  3  1  0  0  0  0
 19 25  1  0  0  0  0
 19 20  1  0  0  0  0
 21 23  1  0  0  0  0
 21 24  2  0  0  0  0
 22 20  2  0  0  0  0
 23 19  2  0  0  0  0
 24 22  1  0  0  0  0
 27 26  1  0  0  0  0
 29 27  1  6  0  0  0
 29 30  1  0  0  0  0
 30 28  1  1  0  0  0
 31 34  1  0  0  0  0
 32 31  1  0  0  0  0
 32 33  1  0  0  0  0
 33 29  1  0  0  0  0
 34 30  1  0  0  0  0
M  END
>  <MODEL>
1

>  <REMARK>
 VINA RESULT:      -7.4      0.000      0.000
  Name = 
  4 active torsions:
  status: ('A' for Active; 'I' for Inactive)
    1  A    between atoms: N_3  and  C_13
    2  A    between atoms: N_3  and  C_17
    3  A    between atoms: C_12  and  C_28
    4  A    between atoms: C_17  and  C_29
                            x       y       z     vdW  Elec       q    Type
                         _______ _______ _______ _____ _____    ______ ____

>  <TORSDO>
F 4

$$$$
=
 OpenBabel11062407513D

 34 40  0  0  1  0  0  0  0  0999 V2000
  162.1670  208.8360  149.1940 C   0  0  0  0  0  0  0  0  0  0  0  0
  161.1410  209.8260  151.1830 C   0  0  0  0  0  0  0  0  0  0  0  0
  161.5970  207.4120  151.0760 C   0  0  0  0  0  0  0  0  0  0  0  0
  161.5500  205.9940  153.2170 C   0  0  1  0  0  3  0  0  0  0  0  0
  161.9170  211.2360  149.3650 C   0  0  0  0  0  3  0  0  0  0  0  0
  161.3140  211.0920  150.6190 C   0  0  0  0  0  3  0  0  0  0  0  0
  160.7530  208.1420  153.2650 C   0  0  0  0  0  0  0  0  0  0  0  0
  161.6130  208.6880  150.4870 C   0  0  0  0  0  0  0  0  0  0  0  0
  160.7310  206.0880  154.4300 N   0  0  0  0  0  2  0  0  0  0  0  0
  162.3270  210.1110  148.6460 C   0  0  0  0  0  3  0  0  0  0  0  0
  161.9620  206.2690  150.3380 C   0  0  0  0  0  0  0  0  0  0  0  0
  162.5800  207.7110  148.4740 C   0  0  0  0  0  3  0  0  0  0  0  0
  160.0830  209.6900  152.6470 S   0  0  0  0  0  0  0  0  0  0  0  0
  161.1270  204.8400  152.3120 C   0  0  0  0  0  2  0  0  0  0  0  0
  161.9250  204.8840  150.9880 C   0  0  1  0  0  3  0  0  0  0  0  0
  160.4130  207.5190  154.5740 C   0  0  1  0  0  3  0  0  0  0  0  0
  161.3130  207.2520  152.4970 C   0  0  0  0  0  0  0  0  0  0  0  0
  162.4690  206.4360  149.0380 C   0  0  0  0  0  3  0  0  0  0  0  0
  161.0780  202.9540  147.8120 C   0  0  0  0  0  0  0  0  0  0  0  0
  160.4930  201.8020  148.3490 C   0  0  0  0  0  3  0  0  0  0  0  0
  161.4240  203.8210  150.0570 C   0  0  0  0  0  0  0  0  0  0  0  0
  160.3660  201.6610  149.7380 C   0  0  0  0  0  3  0  0  0  0  0  0
  161.5420  203.9630  148.6620 C   0  0  0  0  0  3  0  0  0  0  0  0
  160.8300  202.6680  150.5910 C   0  0  0  0  0  3  0  0  0  0  0  0
  161.2030  203.0910  146.4640 F   0  0  0  0  0  0  0  0  0  0  0  0
  161.2670  208.1230  155.6790 C   0  0  0  0  0  2  0  0  0  0  0  0
  160.4160  208.7940  156.6520 N   0  0  0  0  0  2  0  0  0  0  0  0
  159.2690  211.4730  157.2590 C   0  0  0  0  0  1  0  0  0  0  0  0
  161.2120  209.8520  157.2610 C   0  0  2  0  0  3  0  0  0  0  0  0
  160.7020  211.2330  156.8250 C   0  0  1  0  0  3  0  0  0  0  0  0
  162.2170  210.9440  154.7780 C   0  0  0  0  0  2  0  0  0  0  0  0
  163.2290  210.7020  155.9030 C   0  0  0  0  0  2  0  0  0  0  0  0
  162.6950  209.6520  156.8940 C   0  0  0  0  0  2  0  0  0  0  0  0
  160.8600  211.4470  155.3150 C   0  0  0  0  0  2  0  0  0  0  0  0
  1  8  1  0  0  0  0
  2 13  1  0  0  0  0
  3 17  1  0  0  0  0
  4 14  1  6  0  0  0
  4  9  1  0  0  0  0
  5  6  2  0  0  0  0
  6  2  1  0  0  0  0
  7 16  1  0  0  0  0
  8  3  1  0  0  0  0
  8  2  2  0  0  0  0
  9 16  1  0  0  0  0
 10  1  2  0  0  0  0
 10  5  1  0  0  0  0
 11 15  1  0  0  0  0
 11  3  2  0  0  0  0
 12 18  2  0  0  0  0
 12  1  1  0  0  0  0
 13  7  1  0  0  0  0
 15 21  1  6  0  0  0
 15 14  1  0  0  0  0
 16 26  1  1  0  0  0
 17  4  1  0  0  0  0
 17  7  2  0  0  0  0
 18 11  1  0  0  0  0
 19 20  2  0  0  0  0
 19 23  1  0  0  0  0
 20 22  1  0  0  0  0
 21 24  1  0  0  0  0
 22 24  2  0  0  0  0
 23 21  2  0  0  0  0
 25 19  1  0  0  0  0
 26 27  1  0  0  0  0
 29 27  1  6  0  0  0
 30 28  1  6  0  0  0
 30 29  1  0  0  0  0
 31 34  1  0  0  0  0
 31 32  1  0  0  0  0
 32 33  1  0  0  0  0
 33 29  1  0  0  0  0
 34 30  1  0  0  0  0
M  END
>  <MODEL>
2

>  <REMARK>
 VINA RESULT:      -7.2      3.377      8.086
  Name = 
  4 active torsions:
  status: ('A' for Active; 'I' for Inactive)
    1  A    between atoms: N_3  and  C_13
    2  A    between atoms: N_3  and  C_17
    3  A    between atoms: C_12  and  C_28
    4  A    between atoms: C_17  and  C_29
                            x       y       z     vdW  Elec       q    Type
                         _______ _______ _______ _____ _____    ______ ____

>  <TORSDO>
F 4

$$$$
=
 OpenBabel11062407513D

 34 40  0  0  1  0  0  0  0  0999 V2000
  160.9620  207.2730  153.9760 C   0  0  0  0  0  0  0  0  0  0  0  0
  161.9890  209.1760  152.8280 C   0  0  0  0  0  0  0  0  0  0  0  0
  161.2090  207.2190  151.5610 C   0  0  0  0  0  0  0  0  0  0  0  0
  160.9220  207.3630  149.0120 C   0  0  1  0  0  3  0  0  0  0  0  0
  161.5330  209.2730  155.2110 C   0  0  0  0  0  3  0  0  0  0  0  0
  162.0300  209.8630  154.0440 C   0  0  0  0  0  3  0  0  0  0  0  0
  162.0060  209.0470  150.1250 C   0  0  0  0  0  0  0  0  0  0  0  0
  161.4080  207.8870  152.7810 C   0  0  0  0  0  0  0  0  0  0  0  0
  161.6680  208.1020  147.9880 N   0  0  0  0  0  2  0  0  0  0  0  0
  161.0170  207.9750  155.1810 C   0  0  0  0  0  3  0  0  0  0  0  0
  160.7350  205.8930  151.5290 C   0  0  0  0  0  0  0  0  0  0  0  0
  160.4430  205.9760  153.9460 C   0  0  0  0  0  3  0  0  0  0  0  0
  162.9230  209.8640  151.4370 S   0  0  0  0  0  0  0  0  0  0  0  0
  161.2360  205.8700  149.0020 C   0  0  0  0  0  2  0  0  0  0  0  0
  160.5380  205.1730  150.1930 C   0  0  1  0  0  3  0  0  0  0  0  0
  162.1730  209.3070  148.6690 C   0  0  1  0  0  3  0  0  0  0  0  0
  161.3770  207.9190  150.2930 C   0  0  0  0  0  0  0  0  0  0  0  0
  160.3400  205.2870  152.7340 C   0  0  0  0  0  3  0  0  0  0  0  0
  161.2250  201.5610  149.1830 C   0  0  0  0  0  0  0  0  0  0  0  0
  161.7300  201.0430  150.3800 C   0  0  0  0  0  3  0  0  0  0  0  0
  160.9430  203.7310  150.2470 C   0  0  0  0  0  0  0  0  0  0  0  0
  161.8350  201.8630  151.5120 C   0  0  0  0  0  3  0  0  0  0  0  0
  160.8300  202.9020  149.1150 C   0  0  0  0  0  3  0  0  0  0  0  0
  161.4420  203.2040  151.4470 C   0  0  0  0  0  3  0  0  0  0  0  0
  161.1230  200.7670  148.0840 F   0  0  0  0  0  0  0  0  0  0  0  0
  161.3430  210.5140  148.2540 C   0  0  0  0  0  2  0  0  0  0  0  0
  162.1410  211.7260  148.3670 N   0  0  0  0  0  2  0  0  0  0  0  0
  163.3060  214.4460  148.0420 C   0  0  0  0  0  1  0  0  0  0  0  0
  161.6620  212.6520  147.3490 C   0  0  2  0  0  3  0  0  0  0  0  0
  161.8470  214.1050  147.8080 C   0  0  1  0  0  3  0  0  0  0  0  0
  159.5790  213.8360  148.9700 C   0  0  0  0  0  2  0  0  0  0  0  0
  159.2080  213.4100  147.5460 C   0  0  0  0  0  2  0  0  0  0  0  0
  160.1870  212.3420  147.0280 C   0  0  0  0  0  2  0  0  0  0  0  0
  161.0060  214.4220  149.0490 C   0  0  0  0  0  2  0  0  0  0  0  0
  1 10  2  0  0  0  0
  2  6  1  0  0  0  0
  3  8  1  0  0  0  0
  4 14  1  1  0  0  0
  4 17  1  0  0  0  0
  6  5  2  0  0  0  0
  7 17  2  0  0  0  0
  7 13  1  0  0  0  0
  8  2  2  0  0  0  0
  8  1  1  0  0  0  0
  9 16  1  0  0  0  0
  9  4  1  0  0  0  0
 10  5  1  0  0  0  0
 11  3  2  0  0  0  0
 11 18  1  0  0  0  0
 12  1  1  0  0  0  0
 13  2  1  0  0  0  0
 14 15  1  0  0  0  0
 15 21  1  1  0  0  0
 15 11  1  0  0  0  0
 16 26  1  6  0  0  0
 16  7  1  0  0  0  0
 17  3  1  0  0  0  0
 18 12  2  0  0  0  0
 19 20  1  0  0  0  0
 20 22  2  0  0  0  0
 21 24  2  0  0  0  0
 23 19  2  0  0  0  0
 23 21  1  0  0  0  0
 24 22  1  0  0  0  0
 25 19  1  0  0  0  0
 26 27  1  0  0  0  0
 29 30  1  0  0  0  0
 29 27  1  1  0  0  0
 30 28  1  1  0  0  0
 30 34  1  0  0  0  0
 31 34  1  0  0  0  0
 32 31  1  0  0  0  0
 33 29  1  0  0  0  0
 33 32  1  0  0  0  0
M  END
>  <MODEL>
3

>  <REMARK>
 VINA RESULT:      -7.0      3.173      7.203
  Name = 
  4 active torsions:
  status: ('A' for Active; 'I' for Inactive)
    1  A    between atoms: N_3  and  C_13
    2  A    between atoms: N_3  and  C_17
    3  A    between atoms: C_12  and  C_28
    4  A    between atoms: C_17  and  C_29
                            x       y       z     vdW  Elec       q    Type
                         _______ _______ _______ _____ _____    ______ ____

>  <TORSDO>
F 4

$$$$
=
 OpenBabel11062407513D

 34 40  0  0  1  0  0  0  0  0999 V2000
  162.2260  210.1290  149.0770 C   0  0  0  0  0  0  0  0  0  0  0  0
  160.9560  211.6800  150.4810 C   0  0  0  0  0  0  0  0  0  0  0  0
  161.4500  209.4020  151.2590 C   0  0  0  0  0  0  0  0  0  0  0  0
  161.1630  208.7950  153.7390 C   0  0  1  0  0  3  0  0  0  0  0  0
  161.9290  212.4280  148.3850 C   0  0  0  0  0  3  0  0  0  0  0  0
  161.1810  212.6880  149.5390 C   0  0  0  0  0  3  0  0  0  0  0  0
  160.3410  210.7870  152.9600 C   0  0  0  0  0  0  0  0  0  0  0  0
  161.5220  210.4010  150.2740 C   0  0  0  0  0  0  0  0  0  0  0  0
  160.2040  209.2520  154.7490 N   0  0  0  0  0  2  0  0  0  0  0  0
  162.4350  211.1480  148.1450 C   0  0  0  0  0  3  0  0  0  0  0  0
  161.9150  208.0970  151.0040 C   0  0  0  0  0  0  0  0  0  0  0  0
  162.7350  208.8500  148.8370 C   0  0  0  0  0  3  0  0  0  0  0  0
  159.7320  211.9960  151.7780 S   0  0  0  0  0  0  0  0  0  0  0  0
  160.8660  207.3820  153.2460 C   0  0  0  0  0  2  0  0  0  0  0  0
  161.8160  207.0150  152.0820 C   0  0  1  0  0  3  0  0  0  0  0  0
  159.8540  210.6280  154.3570 C   0  0  1  0  0  3  0  0  0  0  0  0
  161.0000  209.7190  152.6090 C   0  0  0  0  0  0  0  0  0  0  0  0
  162.5720  207.8390  149.7890 C   0  0  0  0  0  3  0  0  0  0  0  0
  160.9410  204.2220  149.6390 C   0  0  0  0  0  0  0  0  0  0  0  0
  160.7640  203.1470  150.5170 C   0  0  0  0  0  3  0  0  0  0  0  0
  161.4430  205.6740  151.5250 C   0  0  0  0  0  0  0  0  0  0  0  0
  160.9180  203.3350  151.8980 C   0  0  0  0  0  3  0  0  0  0  0  0
  161.2790  205.4840  150.1400 C   0  0  0  0  0  3  0  0  0  0  0  0
  161.2570  204.5960  152.4020 C   0  0  0  0  0  3  0  0  0  0  0  0
  160.7930  204.0400  148.2990 F   0  0  0  0  0  0  0  0  0  0  0  0
  160.5620  211.6160  155.2740 C   0  0  0  0  0  2  0  0  0  0  0  0
  159.5820  212.4570  155.9460 N   0  0  0  0  0  2  0  0  0  0  0  0
  158.5920  214.4480  153.9660 C   0  0  0  0  0  1  0  0  0  0  0  0
  158.3160  212.2840  155.2470 C   0  0  2  0  0  3  0  0  0  0  0  0
  157.7000  213.6450  154.8930 C   0  0  1  0  0  3  0  0  0  0  0  0
  156.6840  213.5940  157.2460 C   0  0  0  0  0  2  0  0  0  0  0  0
  156.1920  212.2460  156.7070 C   0  0  0  0  0  2  0  0  0  0  0  0
  157.3630  211.4400  156.1170 C   0  0  0  0  0  2  0  0  0  0  0  0
  157.3460  214.4530  156.1470 C   0  0  0  0  0  2  0  0  0  0  0  0
  1  8  1  0  0  0  0
  2 13  1  0  0  0  0
  3 17  1  0  0  0  0
  4 14  1  6  0  0  0
  4  9  1  0  0  0  0
  5  6  1  0  0  0  0
  6  2  2  0  0  0  0
  7 16  1  0  0  0  0
  8  2  1  0  0  0  0
  8  3  2  0  0  0  0
 10  5  2  0  0  0  0
 10  1  1  0  0  0  0
 11  3  1  0  0  0  0
 11 15  1  0  0  0  0
 12  1  2  0  0  0  0
 12 18  1  0  0  0  0
 13  7  1  0  0  0  0
 15 21  1  6  0  0  0
 15 14  1  0  0  0  0
 16  9  1  0  0  0  0
 16 26  1  1  0  0  0
 17  7  2  0  0  0  0
 17  4  1  0  0  0  0
 18 11  2  0  0  0  0
 19 23  2  0  0  0  0
 19 20  1  0  0  0  0
 20 22  2  0  0  0  0
 21 24  2  0  0  0  0
 22 24  1  0  0  0  0
 23 21  1  0  0  0  0
 25 19  1  0  0  0  0
 26 27  1  0  0  0  0
 29 27  1  1  0  0  0
 29 33  1  0  0  0  0
 30 28  1  6  0  0  0
 30 29  1  0  0  0  0
 30 34  1  0  0  0  0
 32 31  1  0  0  0  0
 33 32  1  0  0  0  0
 34 31  1  0  0  0  0
M  END
>  <MODEL>
4

>  <REMARK>
 VINA RESULT:      -6.8      3.497      7.955
  Name = 
  4 active torsions:
  status: ('A' for Active; 'I' for Inactive)
    1  A    between atoms: N_3  and  C_13
    2  A    between atoms: N_3  and  C_17
    3  A    between atoms: C_12  and  C_28
    4  A    between atoms: C_17  and  C_29
                            x       y       z     vdW  Elec       q    Type
                         _______ _______ _______ _____ _____    ______ ____

>  <TORSDO>
F 4

$$$$
=
 OpenBabel11062407513D

 34 40  0  0  1  0  0  0  0  0999 V2000
  161.0730  207.6990  154.4470 C   0  0  0  0  0  0  0  0  0  0  0  0
  162.1320  209.6570  153.4310 C   0  0  0  0  0  0  0  0  0  0  0  0
  161.3260  207.8020  152.0340 C   0  0  0  0  0  0  0  0  0  0  0  0
  161.0500  208.1200  149.5010 C   0  0  1  0  0  3  0  0  0  0  0  0
  161.6700  209.6030  155.8150 C   0  0  0  0  0  3  0  0  0  0  0  0
  162.1790  210.2610  154.6910 C   0  0  0  0  0  3  0  0  0  0  0  0
  162.1560  209.7090  150.7260 C   0  0  0  0  0  0  0  0  0  0  0  0
  161.5310  208.3840  153.2970 C   0  0  0  0  0  0  0  0  0  0  0  0
  161.8100  208.9140  148.5300 N   0  0  0  0  0  2  0  0  0  0  0  0
  161.1340  208.3180  155.6970 C   0  0  0  0  0  3  0  0  0  0  0  0
  160.8320  206.4880  151.9140 C   0  0  0  0  0  0  0  0  0  0  0  0
  160.5340  206.4140  154.3300 C   0  0  0  0  0  3  0  0  0  0  0  0
  163.0810  210.4220  152.0910 S   0  0  0  0  0  0  0  0  0  0  0  0
  161.3410  206.6260  149.3920 C   0  0  0  0  0  2  0  0  0  0  0  0
  160.6280  205.8620  150.5320 C   0  0  1  0  0  3  0  0  0  0  0  0
  162.3310  210.0630  149.2910 C   0  0  1  0  0  3  0  0  0  0  0  0
  161.5090  208.5820  150.8170 C   0  0  0  0  0  0  0  0  0  0  0  0
  160.4230  205.8100  153.0740 C   0  0  0  0  0  3  0  0  0  0  0  0
  161.2060  202.3000  149.3020 C   0  0  0  0  0  0  0  0  0  0  0  0
  161.7570  201.7110  150.4440 C   0  0  0  0  0  3  0  0  0  0  0  0
  161.0110  204.4130  150.4900 C   0  0  0  0  0  0  0  0  0  0  0  0
  161.9290  202.4680  151.6120 C   0  0  0  0  0  3  0  0  0  0  0  0
  160.8310  203.6480  149.3230 C   0  0  0  0  0  3  0  0  0  0  0  0
  161.5560  203.8160  151.6360 C   0  0  0  0  0  3  0  0  0  0  0  0
  161.0400  201.5670  148.1680 F   0  0  0  0  0  0  0  0  0  0  0  0
  161.5220  211.3070  148.9550 C   0  0  0  0  0  2  0  0  0  0  0  0
  161.4110  211.4520  147.5110 N   0  0  0  0  0  2  0  0  0  0  0  0
  158.8510  212.9530  147.2830 C   0  0  0  0  0  1  0  0  0  0  0  0
  161.3800  212.8800  147.2230 C   0  0  2  0  0  3  0  0  0  0  0  0
  160.0950  213.2530  146.4690 C   0  0  1  0  0  3  0  0  0  0  0  0
  161.3740  212.6110  144.3430 C   0  0  0  0  0  2  0  0  0  0  0  0
  162.3520  213.6200  144.9550 C   0  0  0  0  0  2  0  0  0  0  0  0
  162.6400  213.2700  146.4260 C   0  0  0  0  0  2  0  0  0  0  0  0
  160.0260  212.5780  145.0950 C   0  0  0  0  0  2  0  0  0  0  0  0
  1 10  2  0  0  0  0
  2  6  1  0  0  0  0
  3  8  1  0  0  0  0
  4 14  1  6  0  0  0
  4 17  1  0  0  0  0
  6  5  2  0  0  0  0
  7 17  2  0  0  0  0
  7 13  1  0  0  0  0
  8  2  2  0  0  0  0
  8  1  1  0  0  0  0
  9 16  1  0  0  0  0
  9  4  1  0  0  0  0
 10  5  1  0  0  0  0
 11  3  2  0  0  0  0
 11 18  1  0  0  0  0
 12  1  1  0  0  0  0
 13  2  1  0  0  0  0
 14 15  1  0  0  0  0
 15 21  1  1  0  0  0
 15 11  1  0  0  0  0
 16 26  1  6  0  0  0
 16  7  1  0  0  0  0
 17  3  1  0  0  0  0
 18 12  2  0  0  0  0
 19 23  2  0  0  0  0
 19 20  1  0  0  0  0
 20 22  2  0  0  0  0
 21 24  2  0  0  0  0
 22 24  1  0  0  0  0
 23 21  1  0  0  0  0
 25 19  1  0  0  0  0
 27 26  1  0  0  0  0
 29 27  1  6  0  0  0
 30 29  1  0  0  0  0
 30 28  1  1  0  0  0
 31 32  1  0  0  0  0
 31 34  1  0  0  0  0
 32 33  1  0  0  0  0
 33 29  1  0  0  0  0
 34 30  1  0  0  0  0
M  END
>  <MODEL>
5

>  <REMARK>
 VINA RESULT:      -6.5      3.232      6.786
  Name = 
  4 active torsions:
  status: ('A' for Active; 'I' for Inactive)
    1  A    between atoms: N_3  and  C_13
    2  A    between atoms: N_3  and  C_17
    3  A    between atoms: C_12  and  C_28
    4  A    between atoms: C_17  and  C_29
                            x       y       z     vdW  Elec       q    Type
                         _______ _______ _______ _____ _____    ______ ____

>  <TORSDO>
F 4

$$$$
=
 OpenBabel11062407513D

 34 40  0  0  1  0  0  0  0  0999 V2000
  161.6280  210.2250  150.2710 C   0  0  0  0  0  0  0  0  0  0  0  0
  162.4280  207.9420  149.8990 C   0  0  0  0  0  0  0  0  0  0  0  0
  161.4030  208.5790  152.0410 C   0  0  0  0  0  0  0  0  0  0  0  0
  160.6300  206.7680  153.6910 C   0  0  1  0  0  3  0  0  0  0  0  0
  162.4420  209.5630  148.0910 C   0  0  0  0  0  3  0  0  0  0  0  0
  162.7080  208.2770  148.5720 C   0  0  0  0  0  3  0  0  0  0  0  0
  161.9210  206.1810  151.8910 C   0  0  0  0  0  0  0  0  0  0  0  0
  161.8390  208.9090  150.7470 C   0  0  0  0  0  0  0  0  0  0  0  0
  161.1690  205.4400  154.0030 N   0  0  0  0  0  2  0  0  0  0  0  0
  161.9200  210.5400  148.9420 C   0  0  0  0  0  3  0  0  0  0  0  0
  160.9220  209.5700  152.9190 C   0  0  0  0  0  0  0  0  0  0  0  0
  161.1040  211.2030  151.1210 C   0  0  0  0  0  3  0  0  0  0  0  0
  163.0800  206.3750  150.5310 S   0  0  0  0  0  0  0  0  0  0  0  0
  160.9260  207.7910  154.7830 C   0  0  0  0  0  2  0  0  0  0  0  0
  160.4650  209.1970  154.3320 C   0  0  1  0  0  3  0  0  0  0  0  0
  161.8050  204.9770  152.7570 C   0  0  1  0  0  3  0  0  0  0  0  0
  161.3280  207.1870  152.4680 C   0  0  0  0  0  0  0  0  0  0  0  0
  160.7630  210.8810  152.4380 C   0  0  0  0  0  3  0  0  0  0  0  0
  162.5380  211.2540  156.7830 C   0  0  0  0  0  0  0  0  0  0  0  0
  161.5740  212.1480  157.2610 C   0  0  0  0  0  3  0  0  0  0  0  0
  160.8630  210.2160  155.3570 C   0  0  0  0  0  0  0  0  0  0  0  0
  160.2540  212.0730  156.7950 C   0  0  0  0  0  3  0  0  0  0  0  0
  162.1850  210.2880  155.8340 C   0  0  0  0  0  3  0  0  0  0  0  0
  159.8970  211.1090  155.8450 C   0  0  0  0  0  3  0  0  0  0  0  0
  163.8200  211.3260  157.2330 F   0  0  0  0  0  0  0  0  0  0  0  0
  160.9200  203.9340  152.0890 C   0  0  0  0  0  2  0  0  0  0  0  0
  161.4530  203.6000  150.7760 N   0  0  0  0  0  2  0  0  0  0  0  0
  160.3040  201.2380  149.3750 C   0  0  0  0  0  1  0  0  0  0  0  0
  160.3580  203.7270  149.8230 C   0  0  2  0  0  3  0  0  0  0  0  0
  160.4300  202.6190  148.7630 C   0  0  1  0  0  3  0  0  0  0  0  0
  162.0250  204.1800  147.5030 C   0  0  0  0  0  2  0  0  0  0  0  0
  160.8300  205.1180  147.7060 C   0  0  0  0  0  2  0  0  0  0  0  0
  160.3970  205.1290  149.1830 C   0  0  0  0  0  2  0  0  0  0  0  0
  161.7010  202.7270  147.9130 C   0  0  0  0  0  2  0  0  0  0  0  0
  1  8  2  0  0  0  0
  1 12  1  0  0  0  0
  2 13  1  0  0  0  0
  2  8  1  0  0  0  0
  3 17  1  0  0  0  0
  3 11  2  0  0  0  0
  4  9  1  0  0  0  0
  4 14  1  1  0  0  0
  5  6  1  0  0  0  0
  5 10  2  0  0  0  0
  6  2  2  0  0  0  0
  7 17  2  0  0  0  0
  7 16  1  0  0  0  0
  8  3  1  0  0  0  0
 10  1  1  0  0  0  0
 11 15  1  0  0  0  0
 12 18  2  0  0  0  0
 13  7  1  0  0  0  0
 15 14  1  0  0  0  0
 15 21  1  1  0  0  0
 16 26  1  6  0  0  0
 16  9  1  0  0  0  0
 17  4  1  0  0  0  0
 18 11  1  0  0  0  0
 19 25  1  0  0  0  0
 19 20  1  0  0  0  0
 21 23  1  0  0  0  0
 21 24  2  0  0  0  0
 22 20  2  0  0  0  0
 23 19  2  0  0  0  0
 24 22  1  0  0  0  0
 27 26  1  0  0  0  0
 29 27  1  1  0  0  0
 30 28  1  1  0  0  0
 30 29  1  0  0  0  0
 31 32  1  0  0  0  0
 31 34  1  0  0  0  0
 32 33  1  0  0  0  0
 33 29  1  0  0  0  0
 34 30  1  0  0  0  0
M  END
>  <MODEL>
6

>  <REMARK>
 VINA RESULT:      -6.4      2.107      3.477
  Name = 
  4 active torsions:
  status: ('A' for Active; 'I' for Inactive)
    1  A    between atoms: N_3  and  C_13
    2  A    between atoms: N_3  and  C_17
    3  A    between atoms: C_12  and  C_28
    4  A    between atoms: C_17  and  C_29
                            x       y       z     vdW  Elec       q    Type
                         _______ _______ _______ _____ _____    ______ ____

>  <TORSDO>
F 4

$$$$
=
 OpenBabel11062407513D

 34 40  0  0  1  0  0  0  0  0999 V2000
  159.6600  213.5710  150.0770 C   0  0  0  0  0  0  0  0  0  0  0  0
  161.3990  212.2640  148.9560 C   0  0  0  0  0  0  0  0  0  0  0  0
  160.4230  211.4930  151.0760 C   0  0  0  0  0  0  0  0  0  0  0  0
  160.7710  209.0700  151.8530 C   0  0  1  0  0  3  0  0  0  0  0  0
  160.4590  214.2340  147.8930 C   0  0  0  0  0  3  0  0  0  0  0  0
  161.3490  213.1550  147.8810 C   0  0  0  0  0  3  0  0  0  0  0  0
  161.9920  209.8800  150.0910 C   0  0  0  0  0  0  0  0  0  0  0  0
  160.5140  212.4430  150.0450 C   0  0  0  0  0  0  0  0  0  0  0  0
  161.9020  208.1490  151.6950 N   0  0  0  0  0  2  0  0  0  0  0  0
  159.6290  214.4530  148.9950 C   0  0  0  0  0  3  0  0  0  0  0  0
  159.6250  211.7320  152.2130 C   0  0  0  0  0  0  0  0  0  0  0  0
  158.8270  213.7880  151.1790 C   0  0  0  0  0  3  0  0  0  0  0  0
  162.7750  211.0870  149.0150 S   0  0  0  0  0  0  0  0  0  0  0  0
  160.6590  209.6230  153.2700 C   0  0  0  0  0  2  0  0  0  0  0  0
  159.5460  210.6940  153.3360 C   0  0  1  0  0  3  0  0  0  0  0  0
  162.5490  208.5420  150.4300 C   0  0  1  0  0  3  0  0  0  0  0  0
  161.0580  210.1880  150.9450 C   0  0  0  0  0  0  0  0  0  0  0  0
  158.8170  212.8810  152.2430 C   0  0  0  0  0  3  0  0  0  0  0  0
  158.2980  212.1810  156.6170 C   0  0  0  0  0  0  0  0  0  0  0  0
  159.5090  212.4650  157.2570 C   0  0  0  0  0  3  0  0  0  0  0  0
  159.5190  211.3170  154.6990 C   0  0  0  0  0  0  0  0  0  0  0  0
  160.7250  212.1830  156.6180 C   0  0  0  0  0  3  0  0  0  0  0  0
  158.3010  211.6100  155.3390 C   0  0  0  0  0  3  0  0  0  0  0  0
  160.7310  211.6110  155.3410 C   0  0  0  0  0  3  0  0  0  0  0  0
  157.1180  212.4520  157.2370 F   0  0  0  0  0  0  0  0  0  0  0  0
  162.1960  207.5370  149.3430 C   0  0  0  0  0  2  0  0  0  0  0  0
  161.8390  206.2600  149.9450 N   0  0  0  0  0  2  0  0  0  0  0  0
  160.8010  203.4990  150.3440 C   0  0  0  0  0  1  0  0  0  0  0  0
  160.6520  205.7770  149.2530 C   0  0  2  0  0  3  0  0  0  0  0  0
  160.7320  204.2590  149.0340 C   0  0  1  0  0  3  0  0  0  0  0  0
  162.0380  204.8200  146.9010 C   0  0  0  0  0  2  0  0  0  0  0  0
  160.7810  205.6690  146.6820 C   0  0  0  0  0  2  0  0  0  0  0  0
  160.4910  206.5350  147.9210 C   0  0  0  0  0  2  0  0  0  0  0  0
  161.8990  203.8780  148.1170 C   0  0  0  0  0  2  0  0  0  0  0  0
  1 12  1  0  0  0  0
  2 13  1  0  0  0  0
  2  8  1  0  0  0  0
  3 11  2  0  0  0  0
  4 14  1  1  0  0  0
  5 10  2  0  0  0  0
  6  5  1  0  0  0  0
  6  2  2  0  0  0  0
  7 16  1  0  0  0  0
  7 17  2  0  0  0  0
  8  1  2  0  0  0  0
  8  3  1  0  0  0  0
  9  4  1  0  0  0  0
 10  1  1  0  0  0  0
 11 18  1  0  0  0  0
 11 15  1  0  0  0  0
 12 18  2  0  0  0  0
 13  7  1  0  0  0  0
 14 15  1  0  0  0  0
 15 21  1  1  0  0  0
 16 26  1  6  0  0  0
 16  9  1  0  0  0  0
 17  3  1  0  0  0  0
 17  4  1  0  0  0  0
 19 25  1  0  0  0  0
 19 20  1  0  0  0  0
 21 23  1  0  0  0  0
 21 24  2  0  0  0  0
 22 20  2  0  0  0  0
 23 19  2  0  0  0  0
 24 22  1  0  0  0  0
 26 27  1  0  0  0  0
 29 27  1  6  0  0  0
 30 29  1  0  0  0  0
 30 28  1  1  0  0  0
 31 34  1  0  0  0  0
 32 31  1  0  0  0  0
 32 33  1  0  0  0  0
 33 29  1  0  0  0  0
 34 30  1  0  0  0  0
M  END
>  <MODEL>
7

>  <REMARK>
 VINA RESULT:      -6.4      1.890      2.429
  Name = 
  4 active torsions:
  status: ('A' for Active; 'I' for Inactive)
    1  A    between atoms: N_3  and  C_13
    2  A    between atoms: N_3  and  C_17
    3  A    between atoms: C_12  and  C_28
    4  A    between atoms: C_17  and  C_29
                            x       y       z     vdW  Elec       q    Type
                         _______ _______ _______ _____ _____    ______ ____

>  <TORSDO>
F 4

$$$$
=
 OpenBabel11062407513D

 34 40  0  0  1  0  0  0  0  0999 V2000
  161.6470  208.2290  153.0310 C   0  0  0  0  0  0  0  0  0  0  0  0
  160.9680  206.1480  151.9350 C   0  0  0  0  0  0  0  0  0  0  0  0
  161.7180  208.0760  150.6080 C   0  0  0  0  0  0  0  0  0  0  0  0
  162.3530  207.7750  148.1380 C   0  0  1  0  0  3  0  0  0  0  0  0
  161.1110  206.2780  154.3560 C   0  0  0  0  0  3  0  0  0  0  0  0
  160.8320  205.5530  153.1920 C   0  0  0  0  0  3  0  0  0  0  0  0
  161.2970  206.0720  149.2500 C   0  0  0  0  0  0  0  0  0  0  0  0
  161.4240  207.4840  151.8480 C   0  0  0  0  0  0  0  0  0  0  0  0
  161.8240  206.8870  147.0970 N   0  0  0  0  0  2  0  0  0  0  0  0
  161.5000  207.6170  154.2770 C   0  0  0  0  0  3  0  0  0  0  0  0
  162.0640  209.4400  150.5200 C   0  0  0  0  0  0  0  0  0  0  0  0
  162.0390  209.5680  152.9530 C   0  0  0  0  0  3  0  0  0  0  0  0
  160.2970  205.2630  150.5050 S   0  0  0  0  0  0  0  0  0  0  0  0
  161.9020  209.2210  147.9580 C   0  0  0  0  0  2  0  0  0  0  0  0
  162.3670  210.0750  149.1610 C   0  0  1  0  0  3  0  0  0  0  0  0
  161.3500  205.6890  147.8130 C   0  0  1  0  0  3  0  0  0  0  0  0
  161.7870  207.2700  149.3960 C   0  0  0  0  0  0  0  0  0  0  0  0
  162.2360  210.1720  151.7070 C   0  0  0  0  0  3  0  0  0  0  0  0
  160.3800  213.2610  149.8230 C   0  0  0  0  0  0  0  0  0  0  0  0
  160.8400  214.0800  148.7860 C   0  0  0  0  0  3  0  0  0  0  0  0
  161.8220  211.4660  149.0380 C   0  0  0  0  0  0  0  0  0  0  0  0
  161.7830  213.5930  147.8710 C   0  0  0  0  0  3  0  0  0  0  0  0
  160.8680  211.9550  149.9490 C   0  0  0  0  0  3  0  0  0  0  0  0
  162.2740  212.2880  147.9950 C   0  0  0  0  0  3  0  0  0  0  0  0
  159.4650  213.7330  150.7120 F   0  0  0  0  0  0  0  0  0  0  0  0
  162.3390  204.5500  147.6110 C   0  0  0  0  0  2  0  0  0  0  0  0
  161.9590  203.4130  148.4370 N   0  0  0  0  0  2  0  0  0  0  0  0
  160.0040  201.9620  150.1500 C   0  0  0  0  0  1  0  0  0  0  0  0
  160.7050  202.8950  147.9050 C   0  0  2  0  0  3  0  0  0  0  0  0
  160.2560  201.6530  148.6870 C   0  0  1  0  0  3  0  0  0  0  0  0
  161.7570  200.3270  147.0870 C   0  0  0  0  0  2  0  0  0  0  0  0
  160.8870  201.0870  146.0790 C   0  0  0  0  0  2  0  0  0  0  0  0
  160.8720  202.5910  146.4040 C   0  0  0  0  0  2  0  0  0  0  0  0
  161.2490  200.4960  148.5360 C   0  0  0  0  0  2  0  0  0  0  0  0
  1 10  2  0  0  0  0
  2  6  1  0  0  0  0
  3  8  1  0  0  0  0
  4 14  1  6  0  0  0
  4 17  1  0  0  0  0
  6  5  2  0  0  0  0
  7 17  2  0  0  0  0
  7 13  1  0  0  0  0
  8  2  2  0  0  0  0
  8  1  1  0  0  0  0
  9 16  1  0  0  0  0
  9  4  1  0  0  0  0
 10  5  1  0  0  0  0
 11  3  2  0  0  0  0
 11 18  1  0  0  0  0
 12  1  1  0  0  0  0
 13  2  1  0  0  0  0
 14 15  1  0  0  0  0
 15 21  1  1  0  0  0
 15 11  1  0  0  0  0
 16 26  1  1  0  0  0
 16  7  1  0  0  0  0
 17  3  1  0  0  0  0
 18 12  2  0  0  0  0
 19 23  1  0  0  0  0
 19 25  1  0  0  0  0
 20 19  2  0  0  0  0
 21 23  2  0  0  0  0
 22 24  2  0  0  0  0
 22 20  1  0  0  0  0
 24 21  1  0  0  0  0
 26 27  1  0  0  0  0
 29 27  1  1  0  0  0
 29 30  1  0  0  0  0
 30 28  1  1  0  0  0
 31 34  1  0  0  0  0
 32 33  1  0  0  0  0
 32 31  1  0  0  0  0
 33 29  1  0  0  0  0
 34 30  1  0  0  0  0
M  END
>  <MODEL>
8

>  <REMARK>
 VINA RESULT:      -6.4      2.484      5.602
  Name = 
  4 active torsions:
  status: ('A' for Active; 'I' for Inactive)
    1  A    between atoms: N_3  and  C_13
    2  A    between atoms: N_3  and  C_17
    3  A    between atoms: C_12  and  C_28
    4  A    between atoms: C_17  and  C_29
                            x       y       z     vdW  Elec       q    Type
                         _______ _______ _______ _____ _____    ______ ____

>  <TORSDO>
F 4

$$$$
=
 OpenBabel11062407513D

 34 40  0  0  1  0  0  0  0  0999 V2000
  160.8520  206.3740  152.7460 C   0  0  0  0  0  0  0  0  0  0  0  0
  161.7290  208.6450  152.9910 C   0  0  0  0  0  0  0  0  0  0  0  0
  161.3100  207.6960  150.7620 C   0  0  0  0  0  0  0  0  0  0  0  0
  161.2280  209.2270  148.7010 C   0  0  1  0  0  3  0  0  0  0  0  0
  161.0610  207.3650  154.9420 C   0  0  0  0  0  3  0  0  0  0  0  0
  161.5790  208.5340  154.3750 C   0  0  0  0  0  3  0  0  0  0  0  0
  161.9940  210.0560  150.6960 C   0  0  0  0  0  0  0  0  0  0  0  0
  161.3190  207.5750  152.1620 C   0  0  0  0  0  0  0  0  0  0  0  0
  161.9610  210.4530  148.3690 N   0  0  0  0  0  2  0  0  0  0  0  0
  160.7150  206.2810  154.1320 C   0  0  0  0  0  3  0  0  0  0  0  0
  161.0100  206.5910  149.9410 C   0  0  0  0  0  0  0  0  0  0  0  0
  160.5030  205.2890  151.9360 C   0  0  0  0  0  3  0  0  0  0  0  0
  162.6850  210.0460  152.3550 S   0  0  0  0  0  0  0  0  0  0  0  0
  161.7260  208.0170  147.9170 C   0  0  0  0  0  2  0  0  0  0  0  0
  161.0190  206.7340  148.4170 C   0  0  1  0  0  3  0  0  0  0  0  0
  162.2520  211.0950  149.6630 C   0  0  1  0  0  3  0  0  0  0  0  0
  161.4980  208.9940  150.1260 C   0  0  0  0  0  0  0  0  0  0  0  0
  160.5910  205.3940  150.5450 C   0  0  0  0  0  3  0  0  0  0  0  0
  161.7450  203.1270  147.4220 C   0  0  0  0  0  0  0  0  0  0  0  0
  162.6800  203.3170  146.3990 C   0  0  0  0  0  3  0  0  0  0  0  0
  161.5950  205.5350  147.7260 C   0  0  0  0  0  0  0  0  0  0  0  0
  163.0790  204.6130  146.0430 C   0  0  0  0  0  3  0  0  0  0  0  0
  161.2040  204.2320  148.0870 C   0  0  0  0  0  3  0  0  0  0  0  0
  162.5390  205.7210  146.7050 C   0  0  0  0  0  3  0  0  0  0  0  0
  161.3560  201.8690  147.7670 F   0  0  0  0  0  0  0  0  0  0  0  0
  161.3170  212.2790  149.8670 C   0  0  0  0  0  2  0  0  0  0  0  0
  160.5000  212.4760  148.6780 N   0  0  0  0  0  2  0  0  0  0  0  0
  158.4350  213.8670  147.0470 C   0  0  0  0  0  1  0  0  0  0  0  0
  160.6390  213.8730  148.2880 C   0  0  2  0  0  3  0  0  0  0  0  0
  159.9240  214.1380  146.9560 C   0  0  1  0  0  3  0  0  0  0  0  0
  162.0980  213.3630  145.8420 C   0  0  0  0  0  2  0  0  0  0  0  0
  162.6420  214.4520  146.7740 C   0  0  0  0  0  2  0  0  0  0  0  0
  162.1350  214.2370  148.2110 C   0  0  0  0  0  2  0  0  0  0  0  0
  160.5550  213.3480  145.8040 C   0  0  0  0  0  2  0  0  0  0  0  0
  1 10  2  0  0  0  0
  2  6  1  0  0  0  0
  3  8  1  0  0  0  0
  4 14  1  6  0  0  0
  4 17  1  0  0  0  0
  6  5  2  0  0  0  0
  7 13  1  0  0  0  0
  8  1  1  0  0  0  0
  8  2  2  0  0  0  0
  9  4  1  0  0  0  0
  9 16  1  0  0  0  0
 10  5  1  0  0  0  0
 11 18  1  0  0  0  0
 11  3  2  0  0  0  0
 12  1  1  0  0  0  0
 13  2  1  0  0  0  0
 14 15  1  0  0  0  0
 15 21  1  6  0  0  0
 15 11  1  0  0  0  0
 16 26  1  1  0  0  0
 16  7  1  0  0  0  0
 17  7  2  0  0  0  0
 17  3  1  0  0  0  0
 18 12  2  0  0  0  0
 19 25  1  0  0  0  0
 19 23  1  0  0  0  0
 20 19  2  0  0  0  0
 21 23  2  0  0  0  0
 22 20  1  0  0  0  0
 22 24  2  0  0  0  0
 24 21  1  0  0  0  0
 27 26  1  0  0  0  0
 29 27  1  6  0  0  0
 30 28  1  1  0  0  0
 30 29  1  0  0  0  0
 31 32  1  0  0  0  0
 32 33  1  0  0  0  0
 33 29  1  0  0  0  0
 34 31  1  0  0  0  0
 34 30  1  0  0  0  0
M  END
>  <MODEL>
9

>  <REMARK>
 VINA RESULT:      -6.2      3.042      7.756
  Name = 
  4 active torsions:
  status: ('A' for Active; 'I' for Inactive)
    1  A    between atoms: N_3  and  C_13
    2  A    between atoms: N_3  and  C_17
    3  A    between atoms: C_12  and  C_28
    4  A    between atoms: C_17  and  C_29
                            x       y       z     vdW  Elec       q    Type
                         _______ _______ _______ _____ _____    ______ ____

>  <TORSDO>
F 4

$$$$
