=
 OpenBabel11052423003D

 28 31  0  0  1  0  0  0  0  0999 V2000
  161.8340  206.7750  152.1180 C   0  0  1  0  0  3  0  0  0  0  0  0
  159.9530  205.9750  146.2930 C   0  0  0  0  0  2  0  0  0  0  0  0
  160.2760  202.5180  150.2910 O   0  0  0  0  0  0  0  0  0  0  0  0
  162.4130  205.3720  146.5800 C   0  0  2  0  0  3  0  0  0  0  0  0
  160.8960  205.6610  148.5810 C   0  0  2  0  0  3  0  0  0  0  0  0
  161.3930  205.6860  144.3180 C   0  0  0  0  0  0  0  0  0  0  0  0
  161.2070  206.1430  147.1610 C   0  0  2  0  0  3  0  0  0  0  0  0
  162.1880  203.6300  148.2090 O   0  0  0  0  0  0  0  0  0  0  0  0
  162.6680  205.6800  145.1010 C   0  0  0  0  0  2  0  0  0  0  0  0
  161.0630  204.5650  151.2170 C   0  0  0  0  0  0  0  0  0  0  0  0
  161.8620  206.2760  149.5910 C   0  0  0  0  0  2  0  0  0  0  0  0
  162.2460  203.8710  146.8250 C   0  0  0  0  0  2  0  0  0  0  0  0
  160.7470  205.1200  153.6560 C   0  0  0  0  0  2  0  0  0  0  0  0
  160.7270  203.6740  150.0790 C   0  0  0  0  0  0  0  0  0  0  0  0
  160.9140  204.0210  152.6160 C   0  0  0  0  0  2  0  0  0  0  0  0
  161.3380  205.1490  143.2240 O   0  0  0  0  0  0  0  0  0  0  0  0
  160.2100  206.4200  144.8590 C   0  0  0  0  0  2  0  0  0  0  0  0
  160.9480  204.1190  148.6640 C   0  0  1  0  0  3  0  0  0  0  0  0
  161.8730  206.1300  153.5070 C   0  0  0  0  0  2  0  0  0  0  0  0
  161.5530  205.8090  150.9900 C   0  0  0  0  0  0  0  0  0  0  0  0
  160.9630  208.0390  152.0630 C   0  0  0  0  0  2  0  0  0  0  0  0
  161.6200  209.2080  152.6450 N   0  0  0  0  0  0  0  0  0  0  0  0
  160.3310  209.1510  154.5960 O   0  0  0  0  0  0  0  0  0  0  0  0
  161.2730  209.6880  153.9530 C   0  0  0  0  0  0  0  0  0  0  0  0
  161.9710  210.7650  154.5050 O   0  0  0  0  0  0  0  0  0  0  0  0
  162.6030  210.6800  155.7730 C   0  0  0  0  0  1  0  0  0  0  0  0
  162.4320  210.0330  151.7630 C   0  0  0  0  0  2  0  0  0  0  0  0
  162.0670  209.8170  150.4340 O   0  0  0  0  0  1  0  0  0  0  0  0
  1 21  1  1  0  0  0
  1 19  1  0  0  0  0
  4  9  1  6  0  0  0
  4 12  1  0  0  0  0
  4  7  1  0  0  0  0
  5 18  1  0  0  0  0
  5 11  1  1  0  0  0
  6 17  1  0  0  0  0
  6  9  1  0  0  0  0
  7  2  1  6  0  0  0
  7  5  1  0  0  0  0
 10 15  1  0  0  0  0
 11 20  1  0  0  0  0
 12  8  1  0  0  0  0
 14  3  2  0  0  0  0
 14 10  1  0  0  0  0
 15 13  1  0  0  0  0
 16  6  2  0  0  0  0
 17  2  1  0  0  0  0
 18  8  1  1  0  0  0
 18 14  1  0  0  0  0
 19 13  1  0  0  0  0
 20 10  2  0  0  0  0
 20  1  1  0  0  0  0
 21 22  1  0  0  0  0
 22 24  1  0  0  0  0
 24 25  1  0  0  0  0
 24 23  2  0  0  0  0
 25 26  1  0  0  0  0
 27 22  1  0  0  0  0
 28 27  1  0  0  0  0
M  END
>  <MODEL>
1

>  <REMARK>
 VINA RESULT:      -8.0      0.000      0.000
  Name = 
  4 active torsions:
  status: ('A' for Active; 'I' for Inactive)
    1  A    between atoms: C_1  and  C_2
    2  A    between atoms: C_2  and  N_3
    3  A    between atoms: N_3  and  C_7
    4  A    between atoms: O_6  and  C_11
                            x       y       z     vdW  Elec       q    Type
                         _______ _______ _______ _____ _____    ______ ____

>  <TORSDO>
F 4

$$$$
=
 OpenBabel11052423003D

 28 31  0  0  1  0  0  0  0  0999 V2000
  161.8220  207.0710  152.0580 C   0  0  1  0  0  3  0  0  0  0  0  0
  159.9410  205.9400  146.2890 C   0  0  0  0  0  2  0  0  0  0  0  0
  160.3430  202.6980  150.4550 O   0  0  0  0  0  0  0  0  0  0  0  0
  162.4140  205.4000  146.5960 C   0  0  2  0  0  3  0  0  0  0  0  0
  160.8970  205.7610  148.5860 C   0  0  2  0  0  3  0  0  0  0  0  0
  161.3810  205.5800  144.3250 C   0  0  0  0  0  0  0  0  0  0  0  0
  161.1940  206.1770  147.1420 C   0  0  2  0  0  3  0  0  0  0  0  0
  162.2280  203.7400  148.3120 O   0  0  0  0  0  0  0  0  0  0  0  0
  162.6590  205.6380  145.1020 C   0  0  0  0  0  2  0  0  0  0  0  0
  161.0930  204.8040  151.2730 C   0  0  0  0  0  0  0  0  0  0  0  0
  161.8530  206.4450  149.5600 C   0  0  0  0  0  2  0  0  0  0  0  0
  162.2770  203.9110  146.9170 C   0  0  0  0  0  2  0  0  0  0  0  0
  160.7730  205.4750  153.6820 C   0  0  0  0  0  2  0  0  0  0  0  0
  160.7710  203.8500  150.1830 C   0  0  0  0  0  0  0  0  0  0  0  0
  160.9580  204.3290  152.6980 C   0  0  0  0  0  2  0  0  0  0  0  0
  161.3330  204.9870  143.2600 O   0  0  0  0  0  0  0  0  0  0  0  0
  160.1860  206.3170  144.8330 C   0  0  0  0  0  2  0  0  0  0  0  0
  160.9790  204.2260  148.7460 C   0  0  1  0  0  3  0  0  0  0  0  0
  161.8780  206.4990  153.4780 C   0  0  0  0  0  2  0  0  0  0  0  0
  161.5580  206.0430  150.9820 C   0  0  0  0  0  0  0  0  0  0  0  0
  160.9260  208.3130  151.9430 C   0  0  0  0  0  2  0  0  0  0  0  0
  161.6750  209.5260  151.6190 N   0  0  0  0  0  0  0  0  0  0  0  0
  161.4970  209.2030  149.3090 O   0  0  0  0  0  0  0  0  0  0  0  0
  161.8880  209.9350  150.2590 C   0  0  0  0  0  0  0  0  0  0  0  0
  162.5470  211.1370  149.9910 O   0  0  0  0  0  0  0  0  0  0  0  0
  162.3290  211.8610  148.7900 C   0  0  0  0  0  1  0  0  0  0  0  0
  162.4290  210.1590  152.6920 C   0  0  0  0  0  2  0  0  0  0  0  0
  161.6650  210.1920  153.8580 O   0  0  0  0  0  1  0  0  0  0  0  0
  1 21  1  1  0  0  0
  1 19  1  0  0  0  0
  4  9  1  6  0  0  0
  4 12  1  0  0  0  0
  4  7  1  0  0  0  0
  5 18  1  0  0  0  0
  5 11  1  1  0  0  0
  6 17  1  0  0  0  0
  6  9  1  0  0  0  0
  7  2  1  6  0  0  0
  7  5  1  0  0  0  0
 10 15  1  0  0  0  0
 11 20  1  0  0  0  0
 12  8  1  0  0  0  0
 14  3  2  0  0  0  0
 14 10  1  0  0  0  0
 15 13  1  0  0  0  0
 16  6  2  0  0  0  0
 17  2  1  0  0  0  0
 18  8  1  1  0  0  0
 18 14  1  0  0  0  0
 19 13  1  0  0  0  0
 20 10  2  0  0  0  0
 20  1  1  0  0  0  0
 22 21  1  0  0  0  0
 22 27  1  0  0  0  0
 23 24  2  0  0  0  0
 24 22  1  0  0  0  0
 25 24  1  0  0  0  0
 26 25  1  0  0  0  0
 27 28  1  0  0  0  0
M  END
>  <MODEL>
2

>  <REMARK>
 VINA RESULT:      -7.0      0.900      2.150
  Name = 
  4 active torsions:
  status: ('A' for Active; 'I' for Inactive)
    1  A    between atoms: C_1  and  C_2
    2  A    between atoms: C_2  and  N_3
    3  A    between atoms: N_3  and  C_7
    4  A    between atoms: O_6  and  C_11
                            x       y       z     vdW  Elec       q    Type
                         _______ _______ _______ _____ _____    ______ ____

>  <TORSDO>
F 4

$$$$
=
 OpenBabel11052423003D

 28 31  0  0  1  0  0  0  0  0999 V2000
  161.8560  206.1160  150.0740 C   0  0  1  0  0  3  0  0  0  0  0  0
  159.3650  209.8480  154.3120 C   0  0  0  0  0  2  0  0  0  0  0  0
  161.9420  210.9970  149.8320 O   0  0  0  0  0  0  0  0  0  0  0  0
  161.8480  209.4600  154.7420 C   0  0  2  0  0  3  0  0  0  0  0  0
  160.7930  208.8510  152.5270 C   0  0  2  0  0  3  0  0  0  0  0  0
  160.3570  210.4710  156.4780 C   0  0  0  0  0  0  0  0  0  0  0  0
  160.5730  208.9420  154.0400 C   0  0  2  0  0  3  0  0  0  0  0  0
  162.7270  210.3240  152.6890 O   0  0  0  0  0  0  0  0  0  0  0  0
  161.6410  209.7410  156.2340 C   0  0  0  0  0  2  0  0  0  0  0  0
  161.9440  208.6180  149.9200 C   0  0  0  0  0  0  0  0  0  0  0  0
  161.5840  207.5970  152.1640 C   0  0  0  0  0  2  0  0  0  0  0  0
  162.3940  210.6850  154.0060 C   0  0  0  0  0  2  0  0  0  0  0  0
  161.9220  207.2180  147.8230 C   0  0  0  0  0  2  0  0  0  0  0  0
  161.8000  209.9610  150.5340 C   0  0  0  0  0  0  0  0  0  0  0  0
  162.3290  208.5370  148.4640 C   0  0  0  0  0  2  0  0  0  0  0  0
  160.3170  211.4050  157.2610 O   0  0  0  0  0  0  0  0  0  0  0  0
  159.1100  209.9930  155.8080 C   0  0  0  0  0  2  0  0  0  0  0  0
  161.5170  210.1100  151.9990 C   0  0  1  0  0  3  0  0  0  0  0  0
  162.4490  206.0660  148.6620 C   0  0  0  0  0  2  0  0  0  0  0  0
  161.7960  207.5020  150.6750 C   0  0  0  0  0  0  0  0  0  0  0  0
  160.5370  205.3420  150.2030 C   0  0  0  0  0  2  0  0  0  0  0  0
  160.7360  203.9150  150.4490 N   0  0  0  0  0  0  0  0  0  0  0  0
  160.7170  203.3630  148.1760 O   0  0  0  0  0  0  0  0  0  0  0  0
  160.8590  202.9780  149.3680 C   0  0  0  0  0  0  0  0  0  0  0  0
  161.1190  201.6330  149.6420 O   0  0  0  0  0  0  0  0  0  0  0  0
  161.2150  200.6620  148.6120 C   0  0  0  0  0  1  0  0  0  0  0  0
  160.5330  203.4310  151.8080 C   0  0  0  0  0  2  0  0  0  0  0  0
  161.0770  204.3320  152.7230 O   0  0  0  0  0  1  0  0  0  0  0  0
  1 21  1  6  0  0  0
  1 20  1  0  0  0  0
  2 17  1  0  0  0  0
  3 14  2  0  0  0  0
  4 12  1  6  0  0  0
  4  9  1  0  0  0  0
  5 11  1  1  0  0  0
  5  7  1  0  0  0  0
  6 16  2  0  0  0  0
  7  2  1  6  0  0  0
  7  4  1  0  0  0  0
  8 12  1  0  0  0  0
  9  6  1  0  0  0  0
 10 14  1  0  0  0  0
 10 20  2  0  0  0  0
 13 15  1  0  0  0  0
 13 19  1  0  0  0  0
 15 10  1  0  0  0  0
 17  6  1  0  0  0  0
 18 14  1  6  0  0  0
 18  5  1  0  0  0  0
 18  8  1  0  0  0  0
 19  1  1  0  0  0  0
 20 11  1  0  0  0  0
 21 22  1  0  0  0  0
 22 27  1  0  0  0  0
 23 24  2  0  0  0  0
 24 25  1  0  0  0  0
 24 22  1  0  0  0  0
 26 25  1  0  0  0  0
 27 28  1  0  0  0  0
M  END
>  <MODEL>
3

>  <REMARK>
 VINA RESULT:      -6.2      2.452      8.289
  Name = 
  4 active torsions:
  status: ('A' for Active; 'I' for Inactive)
    1  A    between atoms: C_1  and  C_2
    2  A    between atoms: C_2  and  N_3
    3  A    between atoms: N_3  and  C_7
    4  A    between atoms: O_6  and  C_11
                            x       y       z     vdW  Elec       q    Type
                         _______ _______ _______ _____ _____    ______ ____

>  <TORSDO>
F 4

$$$$
=
 OpenBabel11052423003D

 28 31  0  0  1  0  0  0  0  0999 V2000
  161.2050  207.8600  151.4370 C   0  0  1  0  0  3  0  0  0  0  0  0
  160.3460  212.5040  155.4100 C   0  0  0  0  0  2  0  0  0  0  0  0
  160.5820  207.2820  156.2490 O   0  0  0  0  0  0  0  0  0  0  0  0
  158.1320  211.5090  154.6320 C   0  0  2  0  0  3  0  0  0  0  0  0
  160.3170  210.2980  154.2450 C   0  0  2  0  0  3  0  0  0  0  0  0
  158.2370  213.7070  155.8200 C   0  0  0  0  0  0  0  0  0  0  0  0
  159.6400  211.6690  154.3340 C   0  0  2  0  0  3  0  0  0  0  0  0
  158.4390  209.2600  155.3970 O   0  0  0  0  0  0  0  0  0  0  0  0
  157.4270  212.8410  154.9060 C   0  0  0  0  0  2  0  0  0  0  0  0
  160.8660  207.5140  153.8980 C   0  0  0  0  0  0  0  0  0  0  0  0
  160.0510  209.6430  152.8930 C   0  0  0  0  0  2  0  0  0  0  0  0
  157.9240  210.5120  155.7740 C   0  0  0  0  0  2  0  0  0  0  0  0
  162.2540  205.8830  152.5670 C   0  0  0  0  0  2  0  0  0  0  0  0
  160.4520  208.0120  155.2320 C   0  0  0  0  0  0  0  0  0  0  0  0
  161.3770  206.0990  153.7920 C   0  0  0  0  0  2  0  0  0  0  0  0
  157.7000  214.3150  156.7310 O   0  0  0  0  0  0  0  0  0  0  0  0
  159.6980  213.8760  155.5570 C   0  0  0  0  0  2  0  0  0  0  0  0
  159.8430  209.3740  155.3890 C   0  0  1  0  0  3  0  0  0  0  0  0
  161.5170  206.3630  151.3280 C   0  0  0  0  0  2  0  0  0  0  0  0
  160.7230  208.2970  152.8000 C   0  0  0  0  0  0  0  0  0  0  0  0
  162.3210  208.7510  150.8730 C   0  0  0  0  0  2  0  0  0  0  0  0
  162.0490  209.2120  149.5130 N   0  0  0  0  0  0  0  0  0  0  0  0
  161.9610  211.4670  150.1300 O   0  0  0  0  0  0  0  0  0  0  0  0
  161.9190  210.6090  149.2070 C   0  0  0  0  0  0  0  0  0  0  0  0
  161.7290  211.0150  147.8840 O   0  0  0  0  0  0  0  0  0  0  0  0
  161.0650  212.2260  147.5580 C   0  0  0  0  0  1  0  0  0  0  0  0
  161.6410  208.2150  148.5330 C   0  0  0  0  0  2  0  0  0  0  0  0
  162.7110  207.3730  148.2330 O   0  0  0  0  0  1  0  0  0  0  0  0
  1 21  1  1  0  0  0
  1 20  1  0  0  0  0
  2 17  1  0  0  0  0
  4  9  1  1  0  0  0
  4 12  1  0  0  0  0
  5 11  1  6  0  0  0
  5  7  1  0  0  0  0
  5 18  1  0  0  0  0
  6 16  2  0  0  0  0
  7  4  1  0  0  0  0
  7  2  1  1  0  0  0
  8 12  1  0  0  0  0
  9  6  1  0  0  0  0
 10 14  1  0  0  0  0
 13 15  1  0  0  0  0
 14  3  2  0  0  0  0
 15 10  1  0  0  0  0
 17  6  1  0  0  0  0
 18 14  1  6  0  0  0
 18  8  1  0  0  0  0
 19  1  1  0  0  0  0
 19 13  1  0  0  0  0
 20 11  1  0  0  0  0
 20 10  2  0  0  0  0
 22 21  1  0  0  0  0
 24 22  1  0  0  0  0
 24 23  2  0  0  0  0
 25 24  1  0  0  0  0
 26 25  1  0  0  0  0
 27 22  1  0  0  0  0
 28 27  1  0  0  0  0
M  END
>  <MODEL>
4

>  <REMARK>
 VINA RESULT:      -5.9      3.188      8.260
  Name = 
  4 active torsions:
  status: ('A' for Active; 'I' for Inactive)
    1  A    between atoms: C_1  and  C_2
    2  A    between atoms: C_2  and  N_3
    3  A    between atoms: N_3  and  C_7
    4  A    between atoms: O_6  and  C_11
                            x       y       z     vdW  Elec       q    Type
                         _______ _______ _______ _____ _____    ______ ____

>  <TORSDO>
F 4

$$$$
=
 OpenBabel11052423003D

 28 31  0  0  1  0  0  0  0  0999 V2000
  160.2840  210.5740  153.6620 C   0  0  1  0  0  3  0  0  0  0  0  0
  160.1660  206.3970  149.1190 C   0  0  0  0  0  2  0  0  0  0  0  0
  161.2910  205.8290  154.2620 O   0  0  0  0  0  0  0  0  0  0  0  0
  162.5130  207.3190  149.4900 C   0  0  2  0  0  3  0  0  0  0  0  0
  160.6830  207.6780  151.1960 C   0  0  2  0  0  3  0  0  0  0  0  0
  161.9250  206.0110  147.4400 C   0  0  0  0  0  0  0  0  0  0  0  0
  161.0000  207.5450  149.7040 C   0  0  2  0  0  3  0  0  0  0  0  0
  162.8210  206.6640  151.7730 O   0  0  0  0  0  0  0  0  0  0  0  0
  162.8750  207.0030  148.0340 C   0  0  0  0  0  2  0  0  0  0  0  0
  160.8310  208.1510  154.0120 C   0  0  0  0  0  0  0  0  0  0  0  0
  161.0320  209.0740  151.7070 C   0  0  0  0  0  2  0  0  0  0  0  0
  163.0260  206.2420  150.4470 C   0  0  0  0  0  2  0  0  0  0  0  0
  159.8270  209.5080  155.8850 C   0  0  0  0  0  2  0  0  0  0  0  0
  161.1790  206.8100  153.4810 C   0  0  0  0  0  0  0  0  0  0  0  0
  160.6870  208.3110  155.5050 C   0  0  0  0  0  2  0  0  0  0  0  0
  162.3400  205.0920  146.7550 O   0  0  0  0  0  0  0  0  0  0  0  0
  160.4560  206.2030  147.6360 C   0  0  0  0  0  2  0  0  0  0  0  0
  161.4350  206.6060  152.0170 C   0  0  1  0  0  3  0  0  0  0  0  0
  160.3520  210.7490  155.1830 C   0  0  0  0  0  2  0  0  0  0  0  0
  160.7140  209.2100  153.1730 C   0  0  0  0  0  0  0  0  0  0  0  0
  158.9520  211.0420  153.0590 C   0  0  0  0  0  2  0  0  0  0  0  0
  158.4180  212.2330  153.7150 N   0  0  0  0  0  0  0  0  0  0  0  0
  156.6330  211.0820  154.6940 O   0  0  0  0  0  0  0  0  0  0  0  0
  157.2610  212.1670  154.5630 C   0  0  0  0  0  0  0  0  0  0  0  0
  156.8220  213.3140  155.2290 O   0  0  0  0  0  0  0  0  0  0  0  0
  155.5730  213.9210  154.9360 C   0  0  0  0  0  1  0  0  0  0  0  0
  158.9180  213.5270  153.2730 C   0  0  0  0  0  2  0  0  0  0  0  0
  159.0620  213.5360  151.8850 O   0  0  0  0  0  1  0  0  0  0  0  0
  1 21  1  1  0  0  0
  1 19  1  0  0  0  0
  4  9  1  6  0  0  0
  4  7  1  0  0  0  0
  4 12  1  0  0  0  0
  5 11  1  1  0  0  0
  5 18  1  0  0  0  0
  6 17  1  0  0  0  0
  6  9  1  0  0  0  0
  7  2  1  1  0  0  0
  7  5  1  0  0  0  0
 10 15  1  0  0  0  0
 11 20  1  0  0  0  0
 12  8  1  0  0  0  0
 14 10  1  0  0  0  0
 14  3  2  0  0  0  0
 15 13  1  0  0  0  0
 16  6  2  0  0  0  0
 17  2  1  0  0  0  0
 18  8  1  1  0  0  0
 18 14  1  0  0  0  0
 19 13  1  0  0  0  0
 20  1  1  0  0  0  0
 20 10  2  0  0  0  0
 21 22  1  0  0  0  0
 22 24  1  0  0  0  0
 24 23  2  0  0  0  0
 24 25  1  0  0  0  0
 26 25  1  0  0  0  0
 27 22  1  0  0  0  0
 28 27  1  0  0  0  0
M  END
>  <MODEL>
5

>  <REMARK>
 VINA RESULT:      -5.9      3.035      4.469
  Name = 
  4 active torsions:
  status: ('A' for Active; 'I' for Inactive)
    1  A    between atoms: C_1  and  C_2
    2  A    between atoms: C_2  and  N_3
    3  A    between atoms: N_3  and  C_7
    4  A    between atoms: O_6  and  C_11
                            x       y       z     vdW  Elec       q    Type
                         _______ _______ _______ _____ _____    ______ ____

>  <TORSDO>
F 4

$$$$
=
 OpenBabel11052423003D

 28 31  0  0  1  0  0  0  0  0999 V2000
  160.6620  208.8040  153.0860 C   0  0  1  0  0  3  0  0  0  0  0  0
  162.3420  203.1520  151.2580 C   0  0  0  0  0  2  0  0  0  0  0  0
  163.0640  207.8560  148.9360 O   0  0  0  0  0  0  0  0  0  0  0  0
  160.1100  203.8470  150.2390 C   0  0  2  0  0  3  0  0  0  0  0  0
  161.6300  205.5420  151.3400 C   0  0  2  0  0  3  0  0  0  0  0  0
  160.8980  201.4740  150.1810 C   0  0  0  0  0  0  0  0  0  0  0  0
  161.1340  204.0930  151.3700 C   0  0  2  0  0  3  0  0  0  0  0  0
  160.8280  205.8010  149.0540 O   0  0  0  0  0  0  0  0  0  0  0  0
  159.7060  202.3760  150.1020 C   0  0  0  0  0  2  0  0  0  0  0  0
  161.8740  208.3620  150.9350 C   0  0  0  0  0  0  0  0  0  0  0  0
  160.6070  206.4830  151.9700 C   0  0  0  0  0  2  0  0  0  0  0  0
  160.6370  204.4150  148.9190 C   0  0  0  0  0  2  0  0  0  0  0  0
  162.1910  210.5530  152.1420 C   0  0  0  0  0  2  0  0  0  0  0  0
  162.3440  207.4320  149.8780 C   0  0  0  0  0  0  0  0  0  0  0  0
  162.2260  209.8230  150.8070 C   0  0  0  0  0  2  0  0  0  0  0  0
  161.0140  200.5360  149.4090 O   0  0  0  0  0  0  0  0  0  0  0  0
  161.9060  201.6920  151.2620 C   0  0  0  0  0  2  0  0  0  0  0  0
  161.9450  205.9870  149.8940 C   0  0  1  0  0  3  0  0  0  0  0  0
  160.8540  210.3000  152.8190 C   0  0  0  0  0  2  0  0  0  0  0  0
  161.0950  207.9090  151.9480 C   0  0  0  0  0  0  0  0  0  0  0  0
  161.2090  208.3580  154.4490 C   0  0  0  0  0  2  0  0  0  0  0  0
  160.6940  209.1590  155.5580 N   0  0  0  0  0  0  0  0  0  0  0  0
  162.7000  210.3270  155.8470 O   0  0  0  0  0  0  0  0  0  0  0  0
  161.4980  210.1680  156.1900 C   0  0  0  0  0  0  0  0  0  0  0  0
  160.9480  210.9620  157.2000 O   0  0  0  0  0  0  0  0  0  0  0  0
  160.4510  212.2660  156.9430 C   0  0  0  0  0  1  0  0  0  0  0  0
  159.4530  208.7250  156.1840 C   0  0  0  0  0  2  0  0  0  0  0  0
  159.3540  207.3350  156.1360 O   0  0  0  0  0  1  0  0  0  0  0  0
  1 21  1  1  0  0  0
  2 17  1  0  0  0  0
  3 14  2  0  0  0  0
  4 12  1  6  0  0  0
  4  7  1  0  0  0  0
  5  7  1  0  0  0  0
  5 11  1  6  0  0  0
  6 17  1  0  0  0  0
  7  2  1  6  0  0  0
  9  6  1  0  0  0  0
  9  4  1  0  0  0  0
 10 20  2  0  0  0  0
 12  8  1  0  0  0  0
 13 19  1  0  0  0  0
 14 18  1  0  0  0  0
 14 10  1  0  0  0  0
 15 10  1  0  0  0  0
 15 13  1  0  0  0  0
 16  6  2  0  0  0  0
 18  8  1  6  0  0  0
 18  5  1  0  0  0  0
 19  1  1  0  0  0  0
 20 11  1  0  0  0  0
 20  1  1  0  0  0  0
 21 22  1  0  0  0  0
 22 27  1  0  0  0  0
 22 24  1  0  0  0  0
 23 24  2  0  0  0  0
 24 25  1  0  0  0  0
 26 25  1  0  0  0  0
 28 27  1  0  0  0  0
M  END
>  <MODEL>
6

>  <REMARK>
 VINA RESULT:      -5.2      2.600      4.765
  Name = 
  4 active torsions:
  status: ('A' for Active; 'I' for Inactive)
    1  A    between atoms: C_1  and  C_2
    2  A    between atoms: C_2  and  N_3
    3  A    between atoms: N_3  and  C_7
    4  A    between atoms: O_6  and  C_11
                            x       y       z     vdW  Elec       q    Type
                         _______ _______ _______ _____ _____    ______ ____

>  <TORSDO>
F 4

$$$$
