=
 OpenBabel11062409013D

 37 43  0  0  1  0  0  0  0  0999 V2000
  159.9480  213.3820  154.8020 C   0  0  0  0  0  2  0  0  0  0  0  0
  161.7630  208.0620  156.1670 C   0  0  0  0  0  2  0  0  0  0  0  0
  160.6010  209.5600  152.3520 C   0  0  0  0  0  0  0  0  0  0  0  0
  159.2400  214.0230  155.9980 C   0  0  1  0  0  3  0  0  0  0  0  0
  159.1660  212.9710  151.6690 C   0  0  0  0  0  2  0  0  0  0  0  0
  160.9400  207.5990  153.7790 C   0  0  0  0  0  0  0  0  0  0  0  0
  160.4150  210.8530  152.5960 C   0  0  0  0  0  0  0  0  0  0  0  0
  155.9770  214.0040  154.1260 C   0  0  0  0  0  0  0  0  0  0  0  0
  160.4270  208.8140  153.5850 C   0  0  1  0  0  3  0  0  0  0  0  0
  160.2330  211.8900  151.5370 C   0  0  0  0  0  0  0  0  0  0  0  0
  161.5830  206.9520  152.6040 C   0  0  0  0  0  3  0  0  0  0  0  0
  157.6760  214.0060  155.8600 C   0  0  0  0  0  2  0  0  0  0  0  0
  159.8260  209.7400  154.5380 C   0  0  0  0  0  0  0  0  0  0  0  0
  159.7810  209.5010  157.0190 C   0  0  0  0  0  2  0  0  0  0  0  0
  162.2750  209.7310  150.5620 C   0  0  0  0  0  3  0  0  0  0  0  0
  161.6490  207.5250  151.3770 C   0  0  0  0  0  3  0  0  0  0  0  0
  158.9710  209.3470  155.6890 C   0  0  0  0  0  2  0  0  0  0  0  0
  157.1850  213.6510  154.4560 C   0  0  0  0  0  0  0  0  0  0  0  0
  157.8740  212.4160  152.2700 C   0  0  0  0  0  2  0  0  0  0  0  0
  161.1160  208.9220  151.0940 C   0  0  0  0  0  0  0  0  0  0  0  0
  159.8880  210.9330  153.9720 C   0  0  0  0  0  0  0  0  0  0  0  0
  161.2130  207.0230  155.1500 C   0  0  0  0  0  2  0  0  0  0  0  0
  161.0520  211.9230  150.4340 C   0  0  0  0  0  0  0  0  0  0  0  0
  160.7250  208.3080  157.2610 C   0  0  0  0  0  2  0  0  0  0  0  0
  157.8230  212.4350  153.7970 C   0  0  1  0  0  3  0  0  0  0  0  0
  154.8150  214.3670  153.7900 O   0  0  0  0  0  0  0  0  0  0  0  0
  159.1630  212.1080  154.5210 C   0  0  2  0  0  3  0  0  0  0  0  0
  162.2020  211.0290  150.2700 C   0  0  0  0  0  3  0  0  0  0  0  0
  159.5400  213.1370  148.9120 C   0  0  0  0  0  3  0  0  0  0  0  0
  160.8620  212.8730  149.3330 C   0  0  0  0  0  0  0  0  0  0  0  0
  161.9470  213.3270  148.5640 C   0  0  0  0  0  3  0  0  0  0  0  0
  162.7730  214.4120  146.6230 F   0  0  0  0  0  0  0  0  0  0  0  0
  160.3900  214.2730  146.9550 C   0  0  0  0  0  3  0  0  0  0  0  0
  161.7190  214.0230  147.3830 C   0  0  0  0  0  0  0  0  0  0  0  0
  159.3130  213.8190  147.7270 C   0  0  0  0  0  3  0  0  0  0  0  0
  161.0680  212.8040  157.2010 C   0  0  0  0  0  1  0  0  0  0  0  0
  159.6020  213.1990  157.2610 C   0  0  0  0  0  2  0  0  0  0  0  0
  1  4  1  0  0  0  0
  2 24  1  0  0  0  0
  3  7  2  0  0  0  0
  4 37  1  1  0  0  0
  5 19  1  0  0  0  0
  6 22  1  0  0  0  0
  7 21  1  0  0  0  0
  8 18  2  0  0  0  0
  9  3  1  1  0  0  0
  9  6  1  0  0  0  0
  9 13  1  0  0  0  0
 10  5  1  0  0  0  0
 10  7  1  0  0  0  0
 11  6  2  0  0  0  0
 12  4  1  0  0  0  0
 13 17  1  0  0  0  0
 14 24  1  0  0  0  0
 15 20  1  0  0  0  0
 16 11  1  0  0  0  0
 17 14  1  0  0  0  0
 18 12  1  0  0  0  0
 20 16  2  0  0  0  0
 20  3  1  0  0  0  0
 21 27  1  0  0  0  0
 21 13  2  0  0  0  0
 22  2  1  0  0  0  0
 23 10  2  0  0  0  0
 25 19  1  6  0  0  0
 25 18  1  0  0  0  0
 25 27  1  0  0  0  0
 26  8  2  0  0  0  0
 27  1  1  6  0  0  0
 28 23  1  0  0  0  0
 28 15  2  0  0  0  0
 29 30  1  0  0  0  0
 30 23  1  0  0  0  0
 31 30  2  0  0  0  0
 32 34  1  0  0  0  0
 33 34  2  0  0  0  0
 33 35  1  0  0  0  0
 34 31  1  0  0  0  0
 35 29  2  0  0  0  0
 36 37  1  0  0  0  0
M  END
>  <MODEL>
1

>  <REMARK>
 VINA RESULT:      -5.2      0.000      0.000
  Name = 
  2 active torsions:
  status: ('A' for Active; 'I' for Inactive)
    1  A    between atoms: C_5  and  C_23
    2  A    between atoms: C_6  and  C_31
                            x       y       z     vdW  Elec       q    Type
                         _______ _______ _______ _____ _____    ______ ____

>  <TORSDO>
F 2

$$$$
=
 OpenBabel11062409013D

 37 43  0  0  1  0  0  0  0  0999 V2000
  162.3680  210.6680  153.6900 C   0  0  0  0  0  2  0  0  0  0  0  0
  162.1100  204.9230  153.0670 C   0  0  0  0  0  2  0  0  0  0  0  0
  161.0830  207.9360  150.2360 C   0  0  0  0  0  0  0  0  0  0  0  0
  162.1590  211.0510  155.1560 C   0  0  1  0  0  3  0  0  0  0  0  0
  161.0310  211.6420  150.8860 C   0  0  0  0  0  2  0  0  0  0  0  0
  160.8260  205.6080  150.9520 C   0  0  0  0  0  0  0  0  0  0  0  0
  161.4620  209.0510  150.8540 C   0  0  0  0  0  0  0  0  0  0  0  0
  158.9150  212.7490  154.2890 C   0  0  0  0  0  0  0  0  0  0  0  0
  160.8130  206.9120  151.2290 C   0  0  1  0  0  3  0  0  0  0  0  0
  161.5500  210.3880  150.1940 C   0  0  0  0  0  0  0  0  0  0  0  0
  160.9780  205.2340  149.5200 C   0  0  0  0  0  3  0  0  0  0  0  0
  160.7130  211.5970  155.4420 C   0  0  0  0  0  2  0  0  0  0  0  0
  160.7770  207.5950  152.5180 C   0  0  0  0  0  0  0  0  0  0  0  0
  161.0100  206.5440  154.7650 C   0  0  0  0  0  2  0  0  0  0  0  0
  162.4010  208.1560  148.1750 C   0  0  0  0  0  3  0  0  0  0  0  0
  161.0810  206.1390  148.5160 C   0  0  0  0  0  3  0  0  0  0  0  0
  160.0180  207.1330  153.7090 C   0  0  0  0  0  2  0  0  0  0  0  0
  159.9200  211.9290  154.1780 C   0  0  0  0  0  0  0  0  0  0  0  0
  159.7300  211.3710  151.6420 C   0  0  0  0  0  2  0  0  0  0  0  0
  161.1090  207.6400  148.7650 C   0  0  0  0  0  0  0  0  0  0  0  0
  161.2200  208.8190  152.2900 C   0  0  0  0  0  0  0  0  0  0  0  0
  161.0490  204.5390  151.9980 C   0  0  0  0  0  2  0  0  0  0  0  0
  162.1420  210.5280  148.9610 C   0  0  0  0  0  0  0  0  0  0  0  0
  161.4290  205.1020  154.4230 C   0  0  0  0  0  2  0  0  0  0  0  0
  159.9180  210.8770  153.0760 C   0  0  1  0  0  3  0  0  0  0  0  0
  157.9560  213.5650  154.3830 O   0  0  0  0  0  0  0  0  0  0  0  0
  161.1110  209.9010  153.3020 C   0  0  2  0  0  3  0  0  0  0  0  0
  162.8050  209.4220  148.2660 C   0  0  0  0  0  3  0  0  0  0  0  0
  163.3830  212.5470  148.2810 C   0  0  0  0  0  3  0  0  0  0  0  0
  162.1820  211.8060  148.2420 C   0  0  0  0  0  0  0  0  0  0  0  0
  161.0110  212.3930  147.7320 C   0  0  0  0  0  3  0  0  0  0  0  0
  159.8860  214.2800  146.8360 F   0  0  0  0  0  0  0  0  0  0  0  0
  162.2380  214.4530  147.3340 C   0  0  0  0  0  3  0  0  0  0  0  0
  161.0330  213.7070  147.2790 C   0  0  0  0  0  0  0  0  0  0  0  0
  163.4010  213.8610  147.8410 C   0  0  0  0  0  3  0  0  0  0  0  0
  161.1210  209.5640  156.8850 C   0  0  0  0  0  1  0  0  0  0  0  0
  162.3480  209.7730  156.0130 C   0  0  0  0  0  2  0  0  0  0  0  0
  1  4  1  0  0  0  0
  2 24  1  0  0  0  0
  3  7  2  0  0  0  0
  4 12  1  0  0  0  0
  4 37  1  1  0  0  0
  5 19  1  0  0  0  0
  6  9  1  0  0  0  0
  6 22  1  0  0  0  0
  7 21  1  0  0  0  0
  8 26  2  0  0  0  0
  9  3  1  1  0  0  0
  9 13  1  0  0  0  0
 10  7  1  0  0  0  0
 10  5  1  0  0  0  0
 11  6  2  0  0  0  0
 13 17  1  0  0  0  0
 15 28  2  0  0  0  0
 15 20  1  0  0  0  0
 16 20  2  0  0  0  0
 16 11  1  0  0  0  0
 17 14  1  0  0  0  0
 18  8  2  0  0  0  0
 18 12  1  0  0  0  0
 20  3  1  0  0  0  0
 21 13  2  0  0  0  0
 21 27  1  0  0  0  0
 22  2  1  0  0  0  0
 23 10  2  0  0  0  0
 24 14  1  0  0  0  0
 25 19  1  6  0  0  0
 25 27  1  0  0  0  0
 25 18  1  0  0  0  0
 27  1  1  6  0  0  0
 28 23  1  0  0  0  0
 30 29  1  0  0  0  0
 30 23  1  0  0  0  0
 31 30  2  0  0  0  0
 32 34  1  0  0  0  0
 33 35  1  0  0  0  0
 34 33  2  0  0  0  0
 34 31  1  0  0  0  0
 35 29  2  0  0  0  0
 37 36  1  0  0  0  0
M  END
>  <MODEL>
2

>  <REMARK>
 VINA RESULT:      -3.9      1.834      3.211
  Name = 
  2 active torsions:
  status: ('A' for Active; 'I' for Inactive)
    1  A    between atoms: C_5  and  C_23
    2  A    between atoms: C_6  and  C_31
                            x       y       z     vdW  Elec       q    Type
                         _______ _______ _______ _____ _____    ______ ____

>  <TORSDO>
F 2

$$$$
