=
 OpenBabel11062410303D

 43 48  0  0  1  0  0  0  0  0999 V2000
  161.4840  205.2930  145.7550 C   0  0  0  0  0  0  0  0  0  0  0  0
  161.4390  207.1690  150.5430 C   0  0  1  0  0  3  0  0  0  0  0  0
  160.7270  206.1590  147.8870 C   0  0  0  0  0  0  0  0  0  0  0  0
  162.7180  205.9260  145.9350 C   0  0  0  0  0  3  0  0  0  0  0  0
  161.2550  204.5620  144.6400 F   0  0  0  0  0  0  0  0  0  0  0  0
  161.9650  206.8030  148.0650 C   0  0  0  0  0  0  0  0  0  0  0  0
  160.4860  205.4090  146.7320 C   0  0  0  0  0  3  0  0  0  0  0  0
  162.9550  206.6840  147.0840 C   0  0  0  0  0  3  0  0  0  0  0  0
  162.2170  207.6490  149.2830 C   0  0  1  0  0  3  0  0  0  0  0  0
  160.3470  206.1080  150.3060 C   0  0  0  0  0  2  0  0  0  0  0  0
  159.6810  206.2730  148.9420 C   0  0  0  0  0  2  0  0  0  0  0  0
  162.3450  206.7890  151.7220 C   0  0  2  0  0  3  0  0  0  0  0  0
  163.3930  205.9570  151.3200 O   0  0  0  0  0  1  0  0  0  0  0  0
  161.6260  206.2270  152.9570 C   0  0  0  0  0  2  0  0  0  0  0  0
  159.9450  207.8980  155.9170 C   0  0  0  0  0  3  0  0  0  0  0  0
  160.0570  209.2400  155.5490 C   0  0  0  0  0  0  0  0  0  0  0  0
  161.1610  208.5820  153.5340 N   0  0  0  0  0  0  0  0  0  0  0  0
  160.4520  206.9030  155.0790 C   0  0  0  0  0  3  0  0  0  0  0  0
  161.0540  207.2650  153.8690 C   0  0  0  0  0  0  0  0  0  0  0  0
  160.6790  209.5660  154.3410 C   0  0  0  0  0  3  0  0  0  0  0  0
  159.4900  210.3060  156.4180 C   0  0  0  0  0  2  0  0  0  0  0  0
  158.4380  211.0940  155.6610 C   0  0  0  0  0  1  0  0  0  0  0  0
  161.8690  209.0340  148.9840 N   0  0  0  0  0  2  0  0  0  0  0  0
  162.2070  211.3680  149.7980 C   0  0  1  0  0  3  0  0  0  0  0  0
  161.1930  210.6500  150.6630 C   0  0  0  0  0  2  0  0  0  0  0  0
  162.3530  209.8690  150.0780 C   0  0  1  0  0  3  0  0  0  0  0  0
  161.5990  212.8070  146.3070 N   0  0  0  0  0  2  0  0  0  0  0  0
  161.6220  211.6420  148.4920 N   0  0  0  0  0  2  0  0  0  0  0  0
  162.2260  212.5450  147.5620 C   0  0  0  0  0  0  0  0  0  0  0  0
  163.3110  213.1190  147.8440 O   0  0  0  0  0  0  0  0  0  0  0  0
  160.4020  212.1720  145.9340 N   0  0  0  0  0  0  0  0  0  0  0  0
  158.5800  213.2890  144.7300 N   0  0  0  0  0  2  0  0  0  0  0  0
  159.4450  212.3550  147.0350 C   0  0  0  0  0  2  0  0  0  0  0  0
  158.9170  213.7910  147.1190 C   0  0  0  0  0  2  0  0  0  0  0  0
  159.9480  212.7720  144.6610 C   0  0  2  0  0  3  0  0  0  0  0  0
  158.5580  214.3430  145.7380 C   0  0  0  0  0  2  0  0  0  0  0  0
  160.0740  211.7720  143.5170 C   0  0  0  0  0  2  0  0  0  0  0  0
  161.3180  211.9740  142.7890 N   0  0  0  0  0  0  0  0  0  0  0  0
  162.6660  213.0120  140.4480 C   0  0  0  0  0  2  0  0  0  0  0  0
  162.7240  213.7210  141.7950 C   0  0  0  0  0  2  0  0  0  0  0  0
  162.4100  211.5220  140.6400 C   0  0  0  0  0  2  0  0  0  0  0  0
  161.4510  213.4160  142.5810 C   0  0  0  0  0  2  0  0  0  0  0  0
  161.1520  211.3300  141.4840 C   0  0  0  0  0  2  0  0  0  0  0  0
  1  4  2  0  0  0  0
  1  7  1  0  0  0  0
  2 12  1  1  0  0  0
  3  6  1  0  0  0  0
  3 11  1  0  0  0  0
  4  8  1  0  0  0  0
  5  1  1  0  0  0  0
  6  9  1  0  0  0  0
  7  3  2  0  0  0  0
  8  6  2  0  0  0  0
  9 23  1  6  0  0  0
  9  2  1  0  0  0  0
 10  2  1  0  0  0  0
 11 10  1  0  0  0  0
 12 13  1  6  0  0  0
 12 14  1  0  0  0  0
 14 19  1  0  0  0  0
 16 15  1  0  0  0  0
 16 21  1  0  0  0  0
 17 19  2  0  0  0  0
 17 20  1  0  0  0  0
 18 15  2  0  0  0  0
 19 18  1  0  0  0  0
 20 16  2  0  0  0  0
 22 21  1  0  0  0  0
 24 28  1  6  0  0  0
 24 26  1  0  0  0  0
 24 25  1  0  0  0  0
 26 23  1  6  0  0  0
 26 25  1  0  0  0  0
 27 29  1  0  0  0  0
 29 30  2  0  0  0  0
 29 28  1  0  0  0  0
 31 27  1  0  0  0  0
 31 33  1  0  0  0  0
 32 36  1  0  0  0  0
 33 34  1  0  0  0  0
 35 37  1  6  0  0  0
 35 32  1  0  0  0  0
 35 31  1  0  0  0  0
 36 34  1  0  0  0  0
 38 37  1  0  0  0  0
 39 41  1  0  0  0  0
 39 40  1  0  0  0  0
 40 42  1  0  0  0  0
 41 43  1  0  0  0  0
 42 38  1  0  0  0  0
 43 38  1  0  0  0  0
M  END
>  <MODEL>
1

>  <REMARK>
 VINA RESULT:      -6.1      0.000      0.000
  Name = 
  10 active torsions:
  status: ('A' for Active; 'I' for Inactive)
    1  A    between atoms: C_1  and  C_34
    2  A    between atoms: C_1  and  C_35
    3  A    between atoms: C_2  and  N_6
    4  A    between atoms: N_3  and  N_4
    5  A    between atoms: C_8  and  C_34
    6  A    between atoms: N_11  and  C_14
    7  A    between atoms: C_13  and  N_27
    8  A    between atoms: C_14  and  C_41
    9  A    between atoms: C_19  and  C_25
   10  A    between atoms: N_27  and  C_30
                            x       y       z     vdW  Elec       q    Type
                         _______ _______ _______ _____ _____    ______ ____

>  <TORSDO>
F 10

$$$$
=
 OpenBabel11062410303D

 43 48  0  0  1  0  0  0  0  0999 V2000
  156.7410  212.6260  156.1520 C   0  0  0  0  0  0  0  0  0  0  0  0
  160.3710  210.7840  153.0100 C   0  0  1  0  0  3  0  0  0  0  0  0
  158.8740  212.2170  155.0810 C   0  0  0  0  0  0  0  0  0  0  0  0
  156.0780  212.2240  154.9880 C   0  0  0  0  0  3  0  0  0  0  0  0
  156.0290  213.0120  157.2360 F   0  0  0  0  0  0  0  0  0  0  0  0
  158.2090  211.8200  153.9070 C   0  0  0  0  0  0  0  0  0  0  0  0
  158.1410  212.6230  156.2000 C   0  0  0  0  0  3  0  0  0  0  0  0
  156.8110  211.8270  153.8660 C   0  0  0  0  0  3  0  0  0  0  0  0
  158.9900  211.4240  152.6840 C   0  0  1  0  0  3  0  0  0  0  0  0
  160.8470  210.8980  154.4710 C   0  0  0  0  0  2  0  0  0  0  0  0
  160.3640  212.1900  155.1270 C   0  0  0  0  0  2  0  0  0  0  0  0
  160.5310  209.3530  152.4770 C   0  0  2  0  0  3  0  0  0  0  0  0
  160.5950  208.4210  153.5140 O   0  0  0  0  0  1  0  0  0  0  0  0
  161.6690  209.1460  151.4660 C   0  0  0  0  0  2  0  0  0  0  0  0
  161.2340  205.4970  150.5320 C   0  0  0  0  0  3  0  0  0  0  0  0
  161.3420  205.5750  149.1420 C   0  0  0  0  0  0  0  0  0  0  0  0
  161.6640  207.9380  149.3130 N   0  0  0  0  0  0  0  0  0  0  0  0
  161.3400  206.6560  151.3030 C   0  0  0  0  0  3  0  0  0  0  0  0
  161.5700  207.8830  150.6710 C   0  0  0  0  0  0  0  0  0  0  0  0
  161.5560  206.8200  148.5440 C   0  0  0  0  0  3  0  0  0  0  0  0
  161.2650  204.3430  148.3130 C   0  0  0  0  0  2  0  0  0  0  0  0
  160.8110  203.1700  149.1600 C   0  0  0  0  0  1  0  0  0  0  0  0
  159.1760  212.5970  151.8350 N   0  0  0  0  0  2  0  0  0  0  0  0
  157.7780  214.3460  150.7340 C   0  0  1  0  0  3  0  0  0  0  0  0
  157.0060  213.0500  150.8480 C   0  0  0  0  0  2  0  0  0  0  0  0
  157.9820  213.4290  151.9440 C   0  0  1  0  0  3  0  0  0  0  0  0
  159.6550  213.4410  147.5270 N   0  0  0  0  0  2  0  0  0  0  0  0
  158.8270  214.1990  149.7340 N   0  0  0  0  0  2  0  0  0  0  0  0
  158.5870  213.5920  148.4620 C   0  0  0  0  0  0  0  0  0  0  0  0
  157.4350  213.1840  148.1580 O   0  0  0  0  0  0  0  0  0  0  0  0
  160.9510  213.9030  147.8070 N   0  0  0  0  0  0  0  0  0  0  0  0
  162.9860  212.5920  147.4090 N   0  0  0  0  0  2  0  0  0  0  0  0
  161.2710  213.5070  149.1870 C   0  0  0  0  0  2  0  0  0  0  0  0
  161.5400  212.0030  149.3150 C   0  0  0  0  0  2  0  0  0  0  0  0
  161.8680  213.3190  146.8040 C   0  0  2  0  0  3  0  0  0  0  0  0
  162.4280  211.4880  148.1810 C   0  0  0  0  0  2  0  0  0  0  0  0
  162.3910  214.3950  145.8590 C   0  0  0  0  0  2  0  0  0  0  0  0
  161.9700  214.1290  144.4910 N   0  0  0  0  0  0  0  0  0  0  0  0
  161.6000  212.2170  142.3510 C   0  0  0  0  0  2  0  0  0  0  0  0
  160.4310  212.7550  143.1660 C   0  0  0  0  0  2  0  0  0  0  0  0
  162.7560  213.2100  142.3580 C   0  0  0  0  0  2  0  0  0  0  0  0
  160.9160  213.1170  144.5680 C   0  0  0  0  0  2  0  0  0  0  0  0
  163.1240  213.5480  143.8020 C   0  0  0  0  0  2  0  0  0  0  0  0
  1  7  1  0  0  0  0
  1  5  1  0  0  0  0
  2 12  1  1  0  0  0
  2 10  1  0  0  0  0
  3 11  1  0  0  0  0
  3  7  2  0  0  0  0
  4  1  2  0  0  0  0
  6  3  1  0  0  0  0
  8  6  2  0  0  0  0
  8  4  1  0  0  0  0
  9 23  1  6  0  0  0
  9  2  1  0  0  0  0
  9  6  1  0  0  0  0
 10 11  1  0  0  0  0
 12 13  1  1  0  0  0
 14 12  1  0  0  0  0
 15 18  1  0  0  0  0
 16 15  2  0  0  0  0
 17 19  1  0  0  0  0
 19 18  2  0  0  0  0
 19 14  1  0  0  0  0
 20 16  1  0  0  0  0
 20 17  2  0  0  0  0
 21 16  1  0  0  0  0
 21 22  1  0  0  0  0
 24 28  1  6  0  0  0
 24 25  1  0  0  0  0
 24 26  1  0  0  0  0
 25 26  1  0  0  0  0
 26 23  1  6  0  0  0
 27 31  1  0  0  0  0
 27 29  1  0  0  0  0
 29 28  1  0  0  0  0
 30 29  2  0  0  0  0
 31 33  1  0  0  0  0
 32 36  1  0  0  0  0
 33 34  1  0  0  0  0
 35 37  1  1  0  0  0
 35 32  1  0  0  0  0
 35 31  1  0  0  0  0
 36 34  1  0  0  0  0
 38 42  1  0  0  0  0
 38 37  1  0  0  0  0
 39 41  1  0  0  0  0
 39 40  1  0  0  0  0
 40 42  1  0  0  0  0
 41 43  1  0  0  0  0
 43 38  1  0  0  0  0
M  END
>  <MODEL>
2

>  <REMARK>
 VINA RESULT:      -6.0      3.454      6.788
  Name = 
  10 active torsions:
  status: ('A' for Active; 'I' for Inactive)
    1  A    between atoms: C_1  and  C_34
    2  A    between atoms: C_1  and  C_35
    3  A    between atoms: C_2  and  N_6
    4  A    between atoms: N_3  and  N_4
    5  A    between atoms: C_8  and  C_34
    6  A    between atoms: N_11  and  C_14
    7  A    between atoms: C_13  and  N_27
    8  A    between atoms: C_14  and  C_41
    9  A    between atoms: C_19  and  C_25
   10  A    between atoms: N_27  and  C_30
                            x       y       z     vdW  Elec       q    Type
                         _______ _______ _______ _____ _____    ______ ____

>  <TORSDO>
F 10

$$$$
=
 OpenBabel11062410303D

 43 48  0  0  1  0  0  0  0  0999 V2000
  160.8320  202.6560  150.9180 C   0  0  0  0  0  0  0  0  0  0  0  0
  162.2540  207.5840  151.2900 C   0  0  1  0  0  3  0  0  0  0  0  0
  161.9820  204.6820  151.5820 C   0  0  0  0  0  0  0  0  0  0  0  0
  159.7160  203.4110  150.5450 C   0  0  0  0  0  3  0  0  0  0  0  0
  160.8200  201.3120  150.7710 F   0  0  0  0  0  0  0  0  0  0  0  0
  160.8570  205.4420  151.2150 C   0  0  0  0  0  0  0  0  0  0  0  0
  161.9680  203.2920  151.4380 C   0  0  0  0  0  3  0  0  0  0  0  0
  159.7250  204.8000  150.6990 C   0  0  0  0  0  3  0  0  0  0  0  0
  160.8450  206.9330  151.4100 C   0  0  1  0  0  3  0  0  0  0  0  0
  163.4530  206.6170  151.2700 C   0  0  0  0  0  2  0  0  0  0  0  0
  163.1920  205.3720  152.1150 C   0  0  0  0  0  2  0  0  0  0  0  0
  162.3580  208.6320  150.1710 C   0  0  2  0  0  3  0  0  0  0  0  0
  162.3890  209.9300  150.6840 O   0  0  0  0  0  1  0  0  0  0  0  0
  161.3280  208.4990  149.0400 C   0  0  0  0  0  2  0  0  0  0  0  0
  160.6390  205.4610  146.8780 C   0  0  0  0  0  3  0  0  0  0  0  0
  161.9370  205.1290  146.4830 C   0  0  0  0  0  0  0  0  0  0  0  0
  162.7790  206.9700  147.7550 N   0  0  0  0  0  0  0  0  0  0  0  0
  160.4270  206.5590  147.7150 C   0  0  0  0  0  3  0  0  0  0  0  0
  161.5220  207.3060  148.1600 C   0  0  0  0  0  0  0  0  0  0  0  0
  163.0060  205.9090  146.9350 C   0  0  0  0  0  3  0  0  0  0  0  0
  162.1790  203.9430  145.6200 C   0  0  0  0  0  2  0  0  0  0  0  0
  161.0320  202.9590  145.7510 C   0  0  0  0  0  1  0  0  0  0  0  0
  160.2660  207.2420  152.7130 N   0  0  0  0  0  2  0  0  0  0  0  0
  161.4670  208.0040  154.7630 C   0  0  1  0  0  3  0  0  0  0  0  0
  160.5590  206.8390  155.0880 C   0  0  0  0  0  2  0  0  0  0  0  0
  161.2440  206.8880  153.7370 C   0  0  1  0  0  3  0  0  0  0  0  0
  160.3740  211.6380  154.2840 N   0  0  0  0  0  2  0  0  0  0  0  0
  160.6610  209.1870  154.4920 N   0  0  0  0  0  2  0  0  0  0  0  0
  161.2100  210.5070  154.5240 C   0  0  0  0  0  0  0  0  0  0  0  0
  162.4330  210.6820  154.7680 O   0  0  0  0  0  0  0  0  0  0  0  0
  159.0090  211.4940  153.9800 N   0  0  0  0  0  0  0  0  0  0  0  0
  157.4250  213.3650  153.8900 N   0  0  0  0  0  2  0  0  0  0  0  0
  158.2960  211.2840  155.2490 C   0  0  0  0  0  2  0  0  0  0  0  0
  158.2030  212.5640  156.0860 C   0  0  0  0  0  2  0  0  0  0  0  0
  158.5740  212.7110  153.2610 C   0  0  2  0  0  3  0  0  0  0  0  0
  157.8310  213.7750  155.2300 C   0  0  0  0  0  2  0  0  0  0  0  0
  158.2640  212.3940  151.8020 C   0  0  0  0  0  2  0  0  0  0  0  0
  158.6980  213.4800  150.9350 N   0  0  0  0  0  0  0  0  0  0  0  0
  159.8250  214.3160  148.4040 C   0  0  0  0  0  2  0  0  0  0  0  0
  158.3390  214.4510  148.7110 C   0  0  0  0  0  2  0  0  0  0  0  0
  160.6380  214.3200  149.6930 C   0  0  0  0  0  2  0  0  0  0  0  0
  157.9260  213.3600  149.6970 C   0  0  0  0  0  2  0  0  0  0  0  0
  160.1090  213.2350  150.6290 C   0  0  0  0  0  2  0  0  0  0  0  0
  1  7  1  0  0  0  0
  2 12  1  6  0  0  0
  2  9  1  0  0  0  0
  3 11  1  0  0  0  0
  4  8  1  0  0  0  0
  4  1  2  0  0  0  0
  5  1  1  0  0  0  0
  6  9  1  0  0  0  0
  6  3  1  0  0  0  0
  7  3  2  0  0  0  0
  8  6  2  0  0  0  0
  9 23  1  1  0  0  0
 10  2  1  0  0  0  0
 10 11  1  0  0  0  0
 12 13  1  1  0  0  0
 14 12  1  0  0  0  0
 15 18  1  0  0  0  0
 16 15  2  0  0  0  0
 16 20  1  0  0  0  0
 17 19  1  0  0  0  0
 18 19  2  0  0  0  0
 19 14  1  0  0  0  0
 20 17  2  0  0  0  0
 21 22  1  0  0  0  0
 21 16  1  0  0  0  0
 24 28  1  6  0  0  0
 24 25  1  0  0  0  0
 26 23  1  6  0  0  0
 26 24  1  0  0  0  0
 26 25  1  0  0  0  0
 27 29  1  0  0  0  0
 28 29  1  0  0  0  0
 29 30  2  0  0  0  0
 31 27  1  0  0  0  0
 31 33  1  0  0  0  0
 32 36  1  0  0  0  0
 33 34  1  0  0  0  0
 35 37  1  6  0  0  0
 35 32  1  0  0  0  0
 35 31  1  0  0  0  0
 36 34  1  0  0  0  0
 38 37  1  0  0  0  0
 39 40  1  0  0  0  0
 39 41  1  0  0  0  0
 40 42  1  0  0  0  0
 41 43  1  0  0  0  0
 42 38  1  0  0  0  0
 43 38  1  0  0  0  0
M  END
>  <MODEL>
3

>  <REMARK>
 VINA RESULT:      -5.1      3.935      7.398
  Name = 
  10 active torsions:
  status: ('A' for Active; 'I' for Inactive)
    1  A    between atoms: C_1  and  C_34
    2  A    between atoms: C_1  and  C_35
    3  A    between atoms: C_2  and  N_6
    4  A    between atoms: N_3  and  N_4
    5  A    between atoms: C_8  and  C_34
    6  A    between atoms: N_11  and  C_14
    7  A    between atoms: C_13  and  N_27
    8  A    between atoms: C_14  and  C_41
    9  A    between atoms: C_19  and  C_25
   10  A    between atoms: N_27  and  C_30
                            x       y       z     vdW  Elec       q    Type
                         _______ _______ _______ _____ _____    ______ ____

>  <TORSDO>
F 10

$$$$
=
 OpenBabel11062410303D

 43 48  0  0  1  0  0  0  0  0999 V2000
  156.5930  213.8600  147.0530 C   0  0  0  0  0  0  0  0  0  0  0  0
  161.4620  212.2610  147.4780 C   0  0  1  0  0  3  0  0  0  0  0  0
  158.9810  213.8180  147.4570 C   0  0  0  0  0  0  0  0  0  0  0  0
  156.7190  212.7680  146.1900 C   0  0  0  0  0  3  0  0  0  0  0  0
  155.3760  214.4040  147.2820 F   0  0  0  0  0  0  0  0  0  0  0  0
  159.1100  212.7250  146.5820 C   0  0  0  0  0  0  0  0  0  0  0  0
  157.7250  214.3870  147.6890 C   0  0  0  0  0  3  0  0  0  0  0  0
  157.9750  212.2060  145.9490 C   0  0  0  0  0  3  0  0  0  0  0  0
  160.4630  212.1350  146.2910 C   0  0  1  0  0  3  0  0  0  0  0  0
  161.0330  213.1830  148.6350 C   0  0  0  0  0  2  0  0  0  0  0  0
  160.1900  214.3570  148.1430 C   0  0  0  0  0  2  0  0  0  0  0  0
  161.9780  210.9110  147.9970 C   0  0  2  0  0  3  0  0  0  0  0  0
  160.9990  209.9190  147.9160 O   0  0  0  0  0  1  0  0  0  0  0  0
  162.6320  210.9410  149.3860 C   0  0  0  0  0  2  0  0  0  0  0  0
  161.0710  209.0210  152.2590 C   0  0  0  0  0  3  0  0  0  0  0  0
  161.4210  207.7150  151.9130 C   0  0  0  0  0  0  0  0  0  0  0  0
  162.5380  208.5440  149.9690 N   0  0  0  0  0  0  0  0  0  0  0  0
  161.4610  210.0850  151.4430 C   0  0  0  0  0  3  0  0  0  0  0  0
  162.2150  209.8270  150.2930 C   0  0  0  0  0  0  0  0  0  0  0  0
  162.1600  207.4940  150.7470 C   0  0  0  0  0  3  0  0  0  0  0  0
  161.0390  206.5770  152.7920 C   0  0  0  0  0  2  0  0  0  0  0  0
  160.7620  207.0730  154.1980 C   0  0  0  0  0  1  0  0  0  0  0  0
  161.0200  212.7780  145.1050 N   0  0  0  0  0  2  0  0  0  0  0  0
  163.2260  213.3090  144.0670 C   0  0  1  0  0  3  0  0  0  0  0  0
  162.7700  214.4520  144.9470 C   0  0  0  0  0  2  0  0  0  0  0  0
  162.4370  213.0300  145.3500 C   0  0  1  0  0  3  0  0  0  0  0  0
  161.9280  213.8110  140.5050 N   0  0  0  0  0  2  0  0  0  0  0  0
  162.3950  213.2540  142.8720 N   0  0  0  0  0  2  0  0  0  0  0  0
  162.7910  213.8630  141.6400 C   0  0  0  0  0  0  0  0  0  0  0  0
  163.9010  214.4520  141.5490 O   0  0  0  0  0  0  0  0  0  0  0  0
  160.6930  213.1440  140.5480 N   0  0  0  0  0  0  0  0  0  0  0  0
  159.6950  211.9900  138.6260 N   0  0  0  0  0  2  0  0  0  0  0  0
  159.6540  214.1170  140.1800 C   0  0  0  0  0  2  0  0  0  0  0  0
  159.6720  214.4530  138.6850 C   0  0  0  0  0  2  0  0  0  0  0  0
  160.7680  211.9920  139.6230 C   0  0  2  0  0  3  0  0  0  0  0  0
  159.8380  213.2000  137.8240 C   0  0  0  0  0  2  0  0  0  0  0  0
  160.7670  210.6780  140.3970 C   0  0  0  0  0  2  0  0  0  0  0  0
  161.5960  209.6850  139.7290 N   0  0  0  0  0  0  0  0  0  0  0  0
  162.0910  206.9050  139.0970 C   0  0  0  0  0  2  0  0  0  0  0  0
  161.5060  207.8740  138.0770 C   0  0  0  0  0  2  0  0  0  0  0  0
  162.9130  207.6570  140.1370 C   0  0  0  0  0  2  0  0  0  0  0  0
  160.7210  208.9610  138.8070 C   0  0  0  0  0  2  0  0  0  0  0  0
  162.0540  208.7550  140.7630 C   0  0  0  0  0  2  0  0  0  0  0  0
  1  5  1  0  0  0  0
  1  7  1  0  0  0  0
  2 12  1  1  0  0  0
  2 10  1  0  0  0  0
  3  7  2  0  0  0  0
  3 11  1  0  0  0  0
  4  1  2  0  0  0  0
  6  3  1  0  0  0  0
  8  4  1  0  0  0  0
  8  6  2  0  0  0  0
  9 23  1  6  0  0  0
  9  6  1  0  0  0  0
  9  2  1  0  0  0  0
 11 10  1  0  0  0  0
 12 13  1  1  0  0  0
 12 14  1  0  0  0  0
 14 19  1  0  0  0  0
 16 15  1  0  0  0  0
 16 21  1  0  0  0  0
 17 19  2  0  0  0  0
 17 20  1  0  0  0  0
 18 15  2  0  0  0  0
 19 18  1  0  0  0  0
 20 16  2  0  0  0  0
 21 22  1  0  0  0  0
 24 28  1  6  0  0  0
 24 25  1  0  0  0  0
 24 26  1  0  0  0  0
 25 26  1  0  0  0  0
 26 23  1  6  0  0  0
 27 31  1  0  0  0  0
 27 29  1  0  0  0  0
 29 28  1  0  0  0  0
 30 29  2  0  0  0  0
 32 35  1  0  0  0  0
 33 31  1  0  0  0  0
 34 33  1  0  0  0  0
 35 37  1  1  0  0  0
 35 31  1  0  0  0  0
 36 32  1  0  0  0  0
 36 34  1  0  0  0  0
 38 37  1  0  0  0  0
 38 43  1  0  0  0  0
 39 41  1  0  0  0  0
 40 42  1  0  0  0  0
 40 39  1  0  0  0  0
 41 43  1  0  0  0  0
 42 38  1  0  0  0  0
M  END
>  <MODEL>
4

>  <REMARK>
 VINA RESULT:      -5.1      3.228      6.437
  Name = 
  10 active torsions:
  status: ('A' for Active; 'I' for Inactive)
    1  A    between atoms: C_1  and  C_34
    2  A    between atoms: C_1  and  C_35
    3  A    between atoms: C_2  and  N_6
    4  A    between atoms: N_3  and  N_4
    5  A    between atoms: C_8  and  C_34
    6  A    between atoms: N_11  and  C_14
    7  A    between atoms: C_13  and  N_27
    8  A    between atoms: C_14  and  C_41
    9  A    between atoms: C_19  and  C_25
   10  A    between atoms: N_27  and  C_30
                            x       y       z     vdW  Elec       q    Type
                         _______ _______ _______ _____ _____    ______ ____

>  <TORSDO>
F 10

$$$$
=
 OpenBabel11062410303D

 43 48  0  0  1  0  0  0  0  0999 V2000
  161.0850  213.0150  143.0710 C   0  0  0  0  0  0  0  0  0  0  0  0
  159.3850  212.9240  147.9230 C   0  0  1  0  0  3  0  0  0  0  0  0
  160.7980  213.5080  145.4250 C   0  0  0  0  0  0  0  0  0  0  0  0
  160.5640  211.7340  143.2750 C   0  0  0  0  0  3  0  0  0  0  0  0
  161.4680  213.4000  141.8320 F   0  0  0  0  0  0  0  0  0  0  0  0
  160.2820  212.2170  145.6330 C   0  0  0  0  0  0  0  0  0  0  0  0
  161.2020  213.9050  144.1470 C   0  0  0  0  0  3  0  0  0  0  0  0
  160.1700  211.3330  144.5540 C   0  0  0  0  0  3  0  0  0  0  0  0
  159.8870  211.7650  147.0130 C   0  0  1  0  0  3  0  0  0  0  0  0
  159.6190  214.3530  147.4000 C   0  0  0  0  0  2  0  0  0  0  0  0
  160.8990  214.4530  146.5740 C   0  0  0  0  0  2  0  0  0  0  0  0
  157.9450  212.7370  148.4240 C   0  0  2  0  0  3  0  0  0  0  0  0
  157.1290  212.1680  147.4440 O   0  0  0  0  0  1  0  0  0  0  0  0
  157.2930  213.9800  149.0460 C   0  0  0  0  0  2  0  0  0  0  0  0
  155.8210  214.3470  152.5210 C   0  0  0  0  0  3  0  0  0  0  0  0
  156.8020  213.7070  153.2820 C   0  0  0  0  0  0  0  0  0  0  0  0
  158.0520  213.2820  151.2890 N   0  0  0  0  0  0  0  0  0  0  0  0
  155.9700  214.4440  151.1360 C   0  0  0  0  0  3  0  0  0  0  0  0
  157.1120  213.9110  150.5280 C   0  0  0  0  0  0  0  0  0  0  0  0
  157.9210  213.1710  152.6390 C   0  0  0  0  0  3  0  0  0  0  0  0
  156.6710  213.6260  154.7610 C   0  0  0  0  0  2  0  0  0  0  0  0
  155.9670  212.3420  155.1550 C   0  0  0  0  0  1  0  0  0  0  0  0
  161.0230  211.0980  147.6410 N   0  0  0  0  0  2  0  0  0  0  0  0
  162.8160  211.6340  149.2910 C   0  0  1  0  0  3  0  0  0  0  0  0
  163.3620  211.6980  147.8810 C   0  0  0  0  0  2  0  0  0  0  0  0
  161.9310  212.1250  148.1410 C   0  0  1  0  0  3  0  0  0  0  0  0
  161.6070  208.5120  151.1400 N   0  0  0  0  0  2  0  0  0  0  0  0
  162.5560  210.2460  149.6480 N   0  0  0  0  0  2  0  0  0  0  0  0
  161.8090  209.8860  150.8130 C   0  0  0  0  0  0  0  0  0  0  0  0
  161.3270  210.7780  151.5610 O   0  0  0  0  0  0  0  0  0  0  0  0
  162.1010  207.4800  150.3240 N   0  0  0  0  0  0  0  0  0  0  0  0
  160.8030  205.4950  149.6960 N   0  0  0  0  0  2  0  0  0  0  0  0
  162.7240  206.4810  151.2050 C   0  0  0  0  0  2  0  0  0  0  0  0
  161.6890  205.6670  151.9890 C   0  0  0  0  0  2  0  0  0  0  0  0
  160.9680  206.9410  149.5390 C   0  0  2  0  0  3  0  0  0  0  0  0
  160.5200  205.2340  151.1020 C   0  0  0  0  0  2  0  0  0  0  0  0
  161.1160  207.2960  148.0640 C   0  0  0  0  0  2  0  0  0  0  0  0
  161.1700  206.0930  147.2470 N   0  0  0  0  0  0  0  0  0  0  0  0
  161.7530  204.8710  144.6880 C   0  0  0  0  0  2  0  0  0  0  0  0
  162.6930  204.7400  145.8800 C   0  0  0  0  0  2  0  0  0  0  0  0
  160.3260  205.1190  145.1610 C   0  0  0  0  0  2  0  0  0  0  0  0
  162.5500  205.9690  146.7750 C   0  0  0  0  0  2  0  0  0  0  0  0
  160.3030  206.3300  146.0910 C   0  0  0  0  0  2  0  0  0  0  0  0
  1  4  2  0  0  0  0
  1  7  1  0  0  0  0
  2 12  1  6  0  0  0
  3  6  1  0  0  0  0
  3 11  1  0  0  0  0
  4  8  1  0  0  0  0
  5  1  1  0  0  0  0
  6  9  1  0  0  0  0
  7  3  2  0  0  0  0
  8  6  2  0  0  0  0
  9 23  1  1  0  0  0
  9  2  1  0  0  0  0
 10  2  1  0  0  0  0
 11 10  1  0  0  0  0
 12 13  1  6  0  0  0
 12 14  1  0  0  0  0
 14 19  1  0  0  0  0
 15 16  1  0  0  0  0
 16 21  1  0  0  0  0
 17 20  1  0  0  0  0
 18 15  2  0  0  0  0
 19 18  1  0  0  0  0
 19 17  2  0  0  0  0
 20 16  2  0  0  0  0
 21 22  1  0  0  0  0
 24 28  1  6  0  0  0
 25 26  1  0  0  0  0
 25 24  1  0  0  0  0
 26 23  1  6  0  0  0
 26 24  1  0  0  0  0
 28 29  1  0  0  0  0
 29 27  1  0  0  0  0
 29 30  2  0  0  0  0
 31 27  1  0  0  0  0
 31 33  1  0  0  0  0
 32 36  1  0  0  0  0
 33 34  1  0  0  0  0
 35 37  1  6  0  0  0
 35 32  1  0  0  0  0
 35 31  1  0  0  0  0
 36 34  1  0  0  0  0
 38 37  1  0  0  0  0
 39 41  1  0  0  0  0
 39 40  1  0  0  0  0
 40 42  1  0  0  0  0
 41 43  1  0  0  0  0
 42 38  1  0  0  0  0
 43 38  1  0  0  0  0
M  END
>  <MODEL>
5

>  <REMARK>
 VINA RESULT:      -5.0      2.923      7.310
  Name = 
  10 active torsions:
  status: ('A' for Active; 'I' for Inactive)
    1  A    between atoms: C_1  and  C_34
    2  A    between atoms: C_1  and  C_35
    3  A    between atoms: C_2  and  N_6
    4  A    between atoms: N_3  and  N_4
    5  A    between atoms: C_8  and  C_34
    6  A    between atoms: N_11  and  C_14
    7  A    between atoms: C_13  and  N_27
    8  A    between atoms: C_14  and  C_41
    9  A    between atoms: C_19  and  C_25
   10  A    between atoms: N_27  and  C_30
                            x       y       z     vdW  Elec       q    Type
                         _______ _______ _______ _____ _____    ______ ____

>  <TORSDO>
F 10

$$$$
=
 OpenBabel11062410303D

 43 48  0  0  1  0  0  0  0  0999 V2000
  161.4010  205.3650  145.0100 C   0  0  0  0  0  0  0  0  0  0  0  0
  161.0140  207.0310  149.8600 C   0  0  1  0  0  3  0  0  0  0  0  0
  160.5130  206.2570  147.0790 C   0  0  0  0  0  0  0  0  0  0  0  0
  162.6840  205.7800  145.3810 C   0  0  0  0  0  3  0  0  0  0  0  0
  161.2110  204.7250  143.8340 F   0  0  0  0  0  0  0  0  0  0  0  0
  161.8010  206.6830  147.4500 C   0  0  0  0  0  0  0  0  0  0  0  0
  160.3130  205.6030  145.8600 C   0  0  0  0  0  3  0  0  0  0  0  0
  162.8820  206.4430  146.5940 C   0  0  0  0  0  3  0  0  0  0  0  0
  162.0190  207.4270  148.7380 C   0  0  1  0  0  3  0  0  0  0  0  0
  159.8110  206.1730  149.4250 C   0  0  0  0  0  2  0  0  0  0  0  0
  159.3660  206.4980  148.0010 C   0  0  0  0  0  2  0  0  0  0  0  0
  161.6850  206.4620  151.1180 C   0  0  2  0  0  3  0  0  0  0  0  0
  163.0580  206.2820  150.9330 O   0  0  0  0  0  1  0  0  0  0  0  0
  161.0300  205.2040  151.7080 C   0  0  0  0  0  2  0  0  0  0  0  0
  160.9110  201.6130  150.4970 C   0  0  0  0  0  3  0  0  0  0  0  0
  161.2040  201.7900  149.1430 C   0  0  0  0  0  0  0  0  0  0  0  0
  161.3800  204.1470  149.5050 N   0  0  0  0  0  0  0  0  0  0  0  0
  160.8530  202.7200  151.3460 C   0  0  0  0  0  3  0  0  0  0  0  0
  161.1050  203.9960  150.8310 C   0  0  0  0  0  0  0  0  0  0  0  0
  161.4350  203.0820  148.6600 C   0  0  0  0  0  3  0  0  0  0  0  0
  161.3030  200.6160  148.2370 C   0  0  0  0  0  2  0  0  0  0  0  0
  160.8400  200.9920  146.8420 C   0  0  0  0  0  1  0  0  0  0  0  0
  161.9340  208.8620  148.4820 N   0  0  0  0  0  2  0  0  0  0  0  0
  162.6160  211.0780  149.4030 C   0  0  1  0  0  3  0  0  0  0  0  0
  161.7250  210.3510  150.3870 C   0  0  0  0  0  2  0  0  0  0  0  0
  162.6840  209.5530  149.5260 C   0  0  1  0  0  3  0  0  0  0  0  0
  161.2900  213.1220  146.4550 N   0  0  0  0  0  2  0  0  0  0  0  0
  161.8220  211.5150  148.2620 N   0  0  0  0  0  2  0  0  0  0  0  0
  162.1160  212.7180  147.5460 C   0  0  0  0  0  0  0  0  0  0  0  0
  163.1010  213.4300  147.8750 O   0  0  0  0  0  0  0  0  0  0  0  0
  160.1960  212.3490  146.0320 N   0  0  0  0  0  0  0  0  0  0  0  0
  158.3560  213.2190  144.6610 N   0  0  0  0  0  2  0  0  0  0  0  0
  159.1500  212.4680  147.0580 C   0  0  0  0  0  2  0  0  0  0  0  0
  158.4700  213.8410  147.0430 C   0  0  0  0  0  2  0  0  0  0  0  0
  159.7720  212.8500  144.7060 C   0  0  2  0  0  3  0  0  0  0  0  0
  158.1530  214.3000  145.6180 C   0  0  0  0  0  2  0  0  0  0  0  0
  160.0830  211.8270  143.6180 C   0  0  0  0  0  2  0  0  0  0  0  0
  160.6690  212.4740  142.4530 N   0  0  0  0  0  0  0  0  0  0  0  0
  161.1650  212.4430  139.6020 C   0  0  0  0  0  2  0  0  0  0  0  0
  160.1100  213.3450  140.2300 C   0  0  0  0  0  2  0  0  0  0  0  0
  162.2530  212.1100  140.6170 C   0  0  0  0  0  2  0  0  0  0  0  0
  159.5780  212.6910  141.5030 C   0  0  0  0  0  2  0  0  0  0  0  0
  161.6110  211.5170  141.8700 C   0  0  0  0  0  2  0  0  0  0  0  0
  1  4  2  0  0  0  0
  1  7  1  0  0  0  0
  2 12  1  1  0  0  0
  3  6  1  0  0  0  0
  3 11  1  0  0  0  0
  4  8  1  0  0  0  0
  5  1  1  0  0  0  0
  6  9  1  0  0  0  0
  7  3  2  0  0  0  0
  8  6  2  0  0  0  0
  9 23  1  6  0  0  0
  9  2  1  0  0  0  0
 10  2  1  0  0  0  0
 11 10  1  0  0  0  0
 12 13  1  6  0  0  0
 12 14  1  0  0  0  0
 15 18  1  0  0  0  0
 16 15  2  0  0  0  0
 17 19  1  0  0  0  0
 19 18  2  0  0  0  0
 19 14  1  0  0  0  0
 20 16  1  0  0  0  0
 20 17  2  0  0  0  0
 21 16  1  0  0  0  0
 22 21  1  0  0  0  0
 24 28  1  6  0  0  0
 24 26  1  0  0  0  0
 24 25  1  0  0  0  0
 26 23  1  6  0  0  0
 26 25  1  0  0  0  0
 27 29  1  0  0  0  0
 29 30  2  0  0  0  0
 29 28  1  0  0  0  0
 31 27  1  0  0  0  0
 31 33  1  0  0  0  0
 32 35  1  0  0  0  0
 32 36  1  0  0  0  0
 34 33  1  0  0  0  0
 35 37  1  6  0  0  0
 35 31  1  0  0  0  0
 36 34  1  0  0  0  0
 38 37  1  0  0  0  0
 39 40  1  0  0  0  0
 39 41  1  0  0  0  0
 40 42  1  0  0  0  0
 41 43  1  0  0  0  0
 42 38  1  0  0  0  0
 43 38  1  0  0  0  0
M  END
>  <MODEL>
6

>  <REMARK>
 VINA RESULT:      -4.4      2.301      4.073
  Name = 
  10 active torsions:
  status: ('A' for Active; 'I' for Inactive)
    1  A    between atoms: C_1  and  C_34
    2  A    between atoms: C_1  and  C_35
    3  A    between atoms: C_2  and  N_6
    4  A    between atoms: N_3  and  N_4
    5  A    between atoms: C_8  and  C_34
    6  A    between atoms: N_11  and  C_14
    7  A    between atoms: C_13  and  N_27
    8  A    between atoms: C_14  and  C_41
    9  A    between atoms: C_19  and  C_25
   10  A    between atoms: N_27  and  C_30
                            x       y       z     vdW  Elec       q    Type
                         _______ _______ _______ _____ _____    ______ ____

>  <TORSDO>
F 10

$$$$
=
 OpenBabel11062410303D

 43 48  0  0  1  0  0  0  0  0999 V2000
  161.7030  213.1720  143.0840 C   0  0  0  0  0  0  0  0  0  0  0  0
  159.9120  213.1870  147.9050 C   0  0  1  0  0  3  0  0  0  0  0  0
  161.5430  213.4490  145.4850 C   0  0  0  0  0  0  0  0  0  0  0  0
  160.7040  212.1950  143.1290 C   0  0  0  0  0  3  0  0  0  0  0  0
  162.2590  213.5150  141.9010 F   0  0  0  0  0  0  0  0  0  0  0  0
  160.5430  212.4610  145.5330 C   0  0  0  0  0  0  0  0  0  0  0  0
  162.1240  213.8010  144.2640 C   0  0  0  0  0  3  0  0  0  0  0  0
  160.1300  211.8350  144.3520 C   0  0  0  0  0  3  0  0  0  0  0  0
  159.9440  212.0430  146.8480 C   0  0  1  0  0  3  0  0  0  0  0  0
  160.7220  214.4520  147.5650 C   0  0  0  0  0  2  0  0  0  0  0  0
  161.9670  214.1260  146.7440 C   0  0  0  0  0  2  0  0  0  0  0  0
  158.4990  213.5380  148.3940 C   0  0  2  0  0  3  0  0  0  0  0  0
  157.7010  214.0250  147.3570 O   0  0  0  0  0  1  0  0  0  0  0  0
  158.4320  214.4490  149.6280 C   0  0  0  0  0  2  0  0  0  0  0  0
  157.6880  213.1100  153.0970 C   0  0  0  0  0  3  0  0  0  0  0  0
  158.8310  212.3410  153.3240 C   0  0  0  0  0  0  0  0  0  0  0  0
  159.6650  212.9690  151.1740 N   0  0  0  0  0  0  0  0  0  0  0  0
  157.5460  213.8050  151.8950 C   0  0  0  0  0  3  0  0  0  0  0  0
  158.5620  213.7330  150.9350 C   0  0  0  0  0  0  0  0  0  0  0  0
  159.8180  212.2790  152.3360 C   0  0  0  0  0  3  0  0  0  0  0  0
  159.0090  211.6230  154.6150 C   0  0  0  0  0  2  0  0  0  0  0  0
  160.4720  211.6210  155.0150 C   0  0  0  0  0  1  0  0  0  0  0  0
  160.6890  210.9040  147.3740 N   0  0  0  0  0  2  0  0  0  0  0  0
  161.8340  210.1090  149.4430 C   0  0  1  0  0  3  0  0  0  0  0  0
  162.7560  211.0020  148.6410 C   0  0  0  0  0  2  0  0  0  0  0  0
  161.2690  211.2950  148.6550 C   0  0  1  0  0  3  0  0  0  0  0  0
  162.5510  206.8830  147.5160 N   0  0  0  0  0  2  0  0  0  0  0  0
  161.6640  208.8390  148.7480 N   0  0  0  0  0  2  0  0  0  0  0  0
  162.7710  208.1060  148.2180 C   0  0  0  0  0  0  0  0  0  0  0  0
  163.9460  208.5360  148.3620 O   0  0  0  0  0  0  0  0  0  0  0  0
  161.2620  206.3490  147.3520 N   0  0  0  0  0  0  0  0  0  0  0  0
  160.7890  203.9480  147.1830 N   0  0  0  0  0  2  0  0  0  0  0  0
  161.0110  206.2420  145.9080 C   0  0  0  0  0  2  0  0  0  0  0  0
  161.8060  205.1040  145.2590 C   0  0  0  0  0  2  0  0  0  0  0  0
  161.2190  205.0460  148.0510 C   0  0  2  0  0  3  0  0  0  0  0  0
  161.7650  203.8300  146.1050 C   0  0  0  0  0  2  0  0  0  0  0  0
  160.3240  205.1230  149.2820 C   0  0  0  0  0  2  0  0  0  0  0  0
  161.1200  205.1020  150.5010 N   0  0  0  0  0  0  0  0  0  0  0  0
  161.2580  205.4890  153.3660 C   0  0  0  0  0  2  0  0  0  0  0  0
  161.2200  204.1010  152.7380 C   0  0  0  0  0  2  0  0  0  0  0  0
  161.8320  206.5030  152.3830 C   0  0  0  0  0  2  0  0  0  0  0  0
  160.4630  204.1660  151.4140 C   0  0  0  0  0  2  0  0  0  0  0  0
  161.0420  206.4460  151.0770 C   0  0  0  0  0  2  0  0  0  0  0  0
  1  4  2  0  0  0  0
  1  7  1  0  0  0  0
  2 12  1  6  0  0  0
  3  6  1  0  0  0  0
  3 11  1  0  0  0  0
  4  8  1  0  0  0  0
  5  1  1  0  0  0  0
  6  9  1  0  0  0  0
  7  3  2  0  0  0  0
  8  6  2  0  0  0  0
  9 23  1  1  0  0  0
  9  2  1  0  0  0  0
 10  2  1  0  0  0  0
 11 10  1  0  0  0  0
 12 13  1  6  0  0  0
 12 14  1  0  0  0  0
 14 19  1  0  0  0  0
 15 16  1  0  0  0  0
 16 21  1  0  0  0  0
 17 20  1  0  0  0  0
 18 15  2  0  0  0  0
 19 17  2  0  0  0  0
 19 18  1  0  0  0  0
 20 16  2  0  0  0  0
 21 22  1  0  0  0  0
 24 28  1  6  0  0  0
 25 26  1  0  0  0  0
 25 24  1  0  0  0  0
 26 23  1  6  0  0  0
 26 24  1  0  0  0  0
 27 29  1  0  0  0  0
 29 30  2  0  0  0  0
 29 28  1  0  0  0  0
 31 27  1  0  0  0  0
 31 35  1  0  0  0  0
 32 35  1  0  0  0  0
 33 31  1  0  0  0  0
 34 33  1  0  0  0  0
 34 36  1  0  0  0  0
 35 37  1  1  0  0  0
 36 32  1  0  0  0  0
 37 38  1  0  0  0  0
 38 43  1  0  0  0  0
 38 42  1  0  0  0  0
 40 39  1  0  0  0  0
 41 39  1  0  0  0  0
 42 40  1  0  0  0  0
 43 41  1  0  0  0  0
M  END
>  <MODEL>
7

>  <REMARK>
 VINA RESULT:      -4.3      2.818      8.056
  Name = 
  10 active torsions:
  status: ('A' for Active; 'I' for Inactive)
    1  A    between atoms: C_1  and  C_34
    2  A    between atoms: C_1  and  C_35
    3  A    between atoms: C_2  and  N_6
    4  A    between atoms: N_3  and  N_4
    5  A    between atoms: C_8  and  C_34
    6  A    between atoms: N_11  and  C_14
    7  A    between atoms: C_13  and  N_27
    8  A    between atoms: C_14  and  C_41
    9  A    between atoms: C_19  and  C_25
   10  A    between atoms: N_27  and  C_30
                            x       y       z     vdW  Elec       q    Type
                         _______ _______ _______ _____ _____    ______ ____

>  <TORSDO>
F 10

$$$$
=
 OpenBabel11062410303D

 43 48  0  0  1  0  0  0  0  0999 V2000
  159.0120  213.6760  156.2010 C   0  0  0  0  0  0  0  0  0  0  0  0
  159.7090  211.6880  151.5100 C   0  0  1  0  0  3  0  0  0  0  0  0
  158.5990  212.8240  153.9710 C   0  0  0  0  0  0  0  0  0  0  0  0
  160.1950  212.9340  156.2670 C   0  0  0  0  0  3  0  0  0  0  0  0
  158.6430  214.4530  157.2440 F   0  0  0  0  0  0  0  0  0  0  0  0
  159.7840  212.0710  154.0390 C   0  0  0  0  0  0  0  0  0  0  0  0
  158.2120  213.6230  155.0520 C   0  0  0  0  0  3  0  0  0  0  0  0
  160.5770  212.1280  155.1910 C   0  0  0  0  0  3  0  0  0  0  0  0
  160.1860  211.1740  152.9000 C   0  0  1  0  0  3  0  0  0  0  0  0
  158.6930  212.8450  151.5230 C   0  0  0  0  0  2  0  0  0  0  0  0
  157.7670  212.7750  152.7350 C   0  0  0  0  0  2  0  0  0  0  0  0
  160.8540  211.9560  150.5230 C   0  0  2  0  0  3  0  0  0  0  0  0
  162.0850  211.5410  151.0370 O   0  0  0  0  0  1  0  0  0  0  0  0
  160.9310  213.3860  149.9690 C   0  0  0  0  0  2  0  0  0  0  0  0
  162.1100  214.1950  146.4570 C   0  0  0  0  0  3  0  0  0  0  0  0
  161.1270  213.5510  145.7030 C   0  0  0  0  0  0  0  0  0  0  0  0
  160.0630  212.8410  147.7230 N   0  0  0  0  0  0  0  0  0  0  0  0
  162.0570  214.1500  147.8520 C   0  0  0  0  0  3  0  0  0  0  0  0
  161.0060  213.4710  148.4780 C   0  0  0  0  0  0  0  0  0  0  0  0
  160.1010  212.8670  146.3630 C   0  0  0  0  0  3  0  0  0  0  0  0
  161.1540  213.6200  144.2180 C   0  0  0  0  0  2  0  0  0  0  0  0
  162.4990  213.1520  143.6970 C   0  0  0  0  0  1  0  0  0  0  0  0
  159.6620  209.8330  153.1390 N   0  0  0  0  0  2  0  0  0  0  0  0
  160.8470  208.0520  154.4240 C   0  0  1  0  0  3  0  0  0  0  0  0
  161.6300  209.3450  154.4720 C   0  0  0  0  0  2  0  0  0  0  0  0
  160.1160  209.3980  154.4560 C   0  0  1  0  0  3  0  0  0  0  0  0
  161.9670  206.0110  151.3890 N   0  0  0  0  0  2  0  0  0  0  0  0
  160.9260  207.4870  153.0830 N   0  0  0  0  0  2  0  0  0  0  0  0
  161.9080  206.5120  152.7240 C   0  0  0  0  0  0  0  0  0  0  0  0
  162.7290  206.0900  153.5810 O   0  0  0  0  0  0  0  0  0  0  0  0
  161.0560  206.4300  150.4040 N   0  0  0  0  0  0  0  0  0  0  0  0
  161.6890  206.9550  148.0930 N   0  0  0  0  0  2  0  0  0  0  0  0
  160.9990  207.8980  150.4530 C   0  0  0  0  0  2  0  0  0  0  0  0
  162.2610  208.5520  149.8800 C   0  0  0  0  0  2  0  0  0  0  0  0
  161.5250  205.9070  149.1020 C   0  0  2  0  0  3  0  0  0  0  0  0
  162.7060  207.8800  148.5800 C   0  0  0  0  0  2  0  0  0  0  0  0
  160.5860  204.8230  148.5850 C   0  0  0  0  0  2  0  0  0  0  0  0
  161.1740  203.5040  148.7620 N   0  0  0  0  0  0  0  0  0  0  0  0
  160.7880  200.6580  149.1190 C   0  0  0  0  0  2  0  0  0  0  0  0
  161.2250  201.2540  147.7870 C   0  0  0  0  0  2  0  0  0  0  0  0
  161.1940  201.5700  150.2700 C   0  0  0  0  0  2  0  0  0  0  0  0
  160.6770  202.6740  147.6640 C   0  0  0  0  0  2  0  0  0  0  0  0
  160.6460  202.9740  150.0210 C   0  0  0  0  0  2  0  0  0  0  0  0
  1  4  1  0  0  0  0
  1  5  1  0  0  0  0
  2 12  1  6  0  0  0
  2 10  1  0  0  0  0
  2  9  1  0  0  0  0
  3  6  2  0  0  0  0
  3  7  1  0  0  0  0
  6  8  1  0  0  0  0
  7  1  2  0  0  0  0
  8  4  2  0  0  0  0
  9 23  1  1  0  0  0
  9  6  1  0  0  0  0
 10 11  1  0  0  0  0
 11  3  1  0  0  0  0
 12 13  1  1  0  0  0
 14 12  1  0  0  0  0
 15 18  1  0  0  0  0
 16 20  1  0  0  0  0
 16 15  2  0  0  0  0
 17 19  1  0  0  0  0
 18 19  2  0  0  0  0
 19 14  1  0  0  0  0
 20 17  2  0  0  0  0
 21 16  1  0  0  0  0
 22 21  1  0  0  0  0
 24 28  1  6  0  0  0
 24 26  1  0  0  0  0
 24 25  1  0  0  0  0
 26 23  1  6  0  0  0
 26 25  1  0  0  0  0
 27 29  1  0  0  0  0
 29 28  1  0  0  0  0
 29 30  2  0  0  0  0
 31 33  1  0  0  0  0
 31 27  1  0  0  0  0
 32 36  1  0  0  0  0
 32 35  1  0  0  0  0
 34 33  1  0  0  0  0
 35 37  1  6  0  0  0
 35 31  1  0  0  0  0
 36 34  1  0  0  0  0
 37 38  1  0  0  0  0
 38 43  1  0  0  0  0
 39 41  1  0  0  0  0
 40 39  1  0  0  0  0
 42 40  1  0  0  0  0
 42 38  1  0  0  0  0
 43 41  1  0  0  0  0
M  END
>  <MODEL>
8

>  <REMARK>
 VINA RESULT:      -4.3      3.556      9.580
  Name = 
  10 active torsions:
  status: ('A' for Active; 'I' for Inactive)
    1  A    between atoms: C_1  and  C_34
    2  A    between atoms: C_1  and  C_35
    3  A    between atoms: C_2  and  N_6
    4  A    between atoms: N_3  and  N_4
    5  A    between atoms: C_8  and  C_34
    6  A    between atoms: N_11  and  C_14
    7  A    between atoms: C_13  and  N_27
    8  A    between atoms: C_14  and  C_41
    9  A    between atoms: C_19  and  C_25
   10  A    between atoms: N_27  and  C_30
                            x       y       z     vdW  Elec       q    Type
                         _______ _______ _______ _____ _____    ______ ____

>  <TORSDO>
F 10

$$$$
=
 OpenBabel11062410303D

 43 48  0  0  1  0  0  0  0  0999 V2000
  161.3820  205.3260  144.8590 C   0  0  0  0  0  0  0  0  0  0  0  0
  162.2390  207.7560  149.3090 C   0  0  1  0  0  3  0  0  0  0  0  0
  162.2480  205.8940  147.0490 C   0  0  0  0  0  0  0  0  0  0  0  0
  160.2290  206.0740  145.1200 C   0  0  0  0  0  3  0  0  0  0  0  0
  161.5230  204.6970  143.6710 F   0  0  0  0  0  0  0  0  0  0  0  0
  161.0860  206.6390  147.3160 C   0  0  0  0  0  0  0  0  0  0  0  0
  162.3940  205.2360  145.8240 C   0  0  0  0  0  3  0  0  0  0  0  0
  160.0790  206.7240  146.3490 C   0  0  0  0  0  3  0  0  0  0  0  0
  160.9010  207.3130  148.6480 C   0  0  1  0  0  3  0  0  0  0  0  0
  163.5300  207.2140  148.6670 C   0  0  0  0  0  2  0  0  0  0  0  0
  163.3270  205.8210  148.0750 C   0  0  0  0  0  2  0  0  0  0  0  0
  162.3310  209.2680  149.5660 C   0  0  2  0  0  3  0  0  0  0  0  0
  162.5640  209.5470  150.9150 O   0  0  0  0  0  1  0  0  0  0  0  0
  161.1710  210.1070  149.0120 C   0  0  0  0  0  2  0  0  0  0  0  0
  163.2320  212.8580  147.4120 C   0  0  0  0  0  3  0  0  0  0  0  0
  162.3370  213.3170  146.4430 C   0  0  0  0  0  0  0  0  0  0  0  0
  160.7360  211.6990  147.1760 N   0  0  0  0  0  0  0  0  0  0  0  0
  162.8620  211.8110  148.2580 C   0  0  0  0  0  3  0  0  0  0  0  0
  161.5900  211.2430  148.1350 C   0  0  0  0  0  0  0  0  0  0  0  0
  161.0800  212.7140  146.3370 C   0  0  0  0  0  3  0  0  0  0  0  0
  162.7060  214.4530  145.5580 C   0  0  0  0  0  2  0  0  0  0  0  0
  163.3730  213.9390  144.2960 C   0  0  0  0  0  1  0  0  0  0  0  0
  160.1800  206.4140  149.5430 N   0  0  0  0  0  2  0  0  0  0  0  0
  161.4080  204.6880  150.8630 C   0  0  1  0  0  3  0  0  0  0  0  0
  160.0810  204.1410  150.3860 C   0  0  0  0  0  2  0  0  0  0  0  0
  160.8400  205.1130  149.5050 C   0  0  1  0  0  3  0  0  0  0  0  0
  161.9590  207.1470  153.7400 N   0  0  0  0  0  2  0  0  0  0  0  0
  161.1780  205.6810  151.9040 N   0  0  0  0  0  2  0  0  0  0  0  0
  162.2390  206.2000  152.7100 C   0  0  0  0  0  0  0  0  0  0  0  0
  163.4250  205.8220  152.5210 O   0  0  0  0  0  0  0  0  0  0  0  0
  160.6570  207.6190  153.9730 N   0  0  0  0  0  0  0  0  0  0  0  0
  160.1420  209.5830  155.3510 N   0  0  0  0  0  2  0  0  0  0  0  0
  160.1580  206.9550  155.1860 C   0  0  0  0  0  2  0  0  0  0  0  0
  160.8190  207.4900  156.4610 C   0  0  0  0  0  2  0  0  0  0  0  0
  160.7250  209.0920  154.1010 C   0  0  2  0  0  3  0  0  0  0  0  0
  160.9150  209.0170  156.4500 C   0  0  0  0  0  2  0  0  0  0  0  0
  160.0580  209.7680  152.9090 C   0  0  0  0  0  2  0  0  0  0  0  0
  159.6750  211.1340  153.2380 N   0  0  0  0  0  0  0  0  0  0  0  0
  158.0410  213.4490  152.6480 C   0  0  0  0  0  2  0  0  0  0  0  0
  157.7370  212.5210  153.8180 C   0  0  0  0  0  2  0  0  0  0  0  0
  159.5220  213.3920  152.2950 C   0  0  0  0  0  2  0  0  0  0  0  0
  158.2340  211.1150  153.4900 C   0  0  0  0  0  2  0  0  0  0  0  0
  159.9270  211.9410  152.0420 C   0  0  0  0  0  2  0  0  0  0  0  0
  1  4  2  0  0  0  0
  1  7  1  0  0  0  0
  2 12  1  6  0  0  0
  3  6  1  0  0  0  0
  3 11  1  0  0  0  0
  4  8  1  0  0  0  0
  5  1  1  0  0  0  0
  6  9  1  0  0  0  0
  7  3  2  0  0  0  0
  8  6  2  0  0  0  0
  9  2  1  0  0  0  0
  9 23  1  1  0  0  0
 10  2  1  0  0  0  0
 11 10  1  0  0  0  0
 12 13  1  1  0  0  0
 14 12  1  0  0  0  0
 15 18  1  0  0  0  0
 16 15  2  0  0  0  0
 17 19  1  0  0  0  0
 19 18  2  0  0  0  0
 19 14  1  0  0  0  0
 20 16  1  0  0  0  0
 20 17  2  0  0  0  0
 21 16  1  0  0  0  0
 22 21  1  0  0  0  0
 24 28  1  1  0  0  0
 25 24  1  0  0  0  0
 26 23  1  1  0  0  0
 26 25  1  0  0  0  0
 26 24  1  0  0  0  0
 27 31  1  0  0  0  0
 28 29  1  0  0  0  0
 29 27  1  0  0  0  0
 30 29  2  0  0  0  0
 31 35  1  0  0  0  0
 31 33  1  0  0  0  0
 32 36  1  0  0  0  0
 33 34  1  0  0  0  0
 35 37  1  6  0  0  0
 35 32  1  0  0  0  0
 36 34  1  0  0  0  0
 37 38  1  0  0  0  0
 38 42  1  0  0  0  0
 39 40  1  0  0  0  0
 41 39  1  0  0  0  0
 42 40  1  0  0  0  0
 43 41  1  0  0  0  0
 43 38  1  0  0  0  0
M  END
>  <MODEL>
9

>  <REMARK>
 VINA RESULT:      -4.3      2.245      8.242
  Name = 
  10 active torsions:
  status: ('A' for Active; 'I' for Inactive)
    1  A    between atoms: C_1  and  C_34
    2  A    between atoms: C_1  and  C_35
    3  A    between atoms: C_2  and  N_6
    4  A    between atoms: N_3  and  N_4
    5  A    between atoms: C_8  and  C_34
    6  A    between atoms: N_11  and  C_14
    7  A    between atoms: C_13  and  N_27
    8  A    between atoms: C_14  and  C_41
    9  A    between atoms: C_19  and  C_25
   10  A    between atoms: N_27  and  C_30
                            x       y       z     vdW  Elec       q    Type
                         _______ _______ _______ _____ _____    ______ ____

>  <TORSDO>
F 10

$$$$
