=
 OpenBabel11052422583D

 28 30  0  0  1  0  0  0  0  0999 V2000
  162.1040  210.8610  149.8280 C   0  0  1  0  0  3  0  0  0  0  0  0
  160.5940  205.7520  149.3830 C   0  0  0  0  0  3  0  0  0  0  0  0
  160.3750  209.8480  154.0710 O   0  0  0  0  0  1  0  0  0  0  0  0
  161.4160  205.3640  151.6400 C   0  0  0  0  0  0  0  0  0  0  0  0
  160.9230  207.7400  150.8660 C   0  0  2  0  0  3  0  0  0  0  0  0
  161.1230  203.5060  150.1080 C   0  0  0  0  0  0  0  0  0  0  0  0
  160.9520  206.2530  150.6410 C   0  0  0  0  0  0  0  0  0  0  0  0
  161.9110  207.3410  153.1490 C   0  0  0  0  0  2  0  0  0  0  0  0
  161.4840  203.9940  151.3670 C   0  0  0  0  0  3  0  0  0  0  0  0
  160.9030  210.4460  151.8880 C   0  0  0  0  0  0  0  0  0  0  0  0
  162.1690  208.3620  150.2240 C   0  0  0  0  0  2  0  0  0  0  0  0
  161.7220  205.8280  153.0410 C   0  0  0  0  0  2  0  0  0  0  0  0
  160.7010  209.5050  152.7650 C   0  0  0  0  0  0  0  0  0  0  0  0
  161.1490  211.2880  150.9260 C   0  0  0  0  0  0  0  0  0  0  0  0
  161.2210  201.7900  149.7760 Cl  0  0  0  0  0  0  0  0  0  0  0  0
  160.6760  204.3830  149.1180 C   0  0  0  0  0  3  0  0  0  0  0  0
  160.8040  208.0500  152.3790 C   0  0  1  0  0  3  0  0  0  0  0  0
  161.7740  209.4730  149.2550 C   0  0  0  0  0  2  0  0  0  0  0  0
  162.2820  211.9050  148.7180 C   0  0  1  0  0  3  0  0  0  0  0  0
  163.5910  211.8660  148.2330 O   0  0  0  0  0  1  0  0  0  0  0  0
  161.2930  211.7070  147.5730 C   0  0  0  0  0  2  0  0  0  0  0  0
  159.2730  212.9660  147.6190 O   0  0  0  0  0  1  0  0  0  0  0  0
  160.6090  213.0190  147.2130 C   0  0  2  0  0  3  0  0  0  0  0  0
  160.6830  213.2620  145.7090 C   0  0  2  0  0  3  0  0  0  0  0  0
  159.7860  212.2870  144.9680 C   0  0  0  0  0  1  0  0  0  0  0  0
  161.9950  213.0960  145.2630 O   0  0  0  0  0  1  0  0  0  0  0  0
  160.4790  212.6250  150.9550 C   0  0  0  0  0  2  0  0  0  0  0  0
  159.8270  212.8050  152.1750 O   0  0  0  0  0  1  0  0  0  0  0  0
  1 19  1  6  0  0  0
  1 14  1  0  0  0  0
  2  7  1  0  0  0  0
  4 12  1  0  0  0  0
  5 11  1  1  0  0  0
  5 17  1  0  0  0  0
  6  9  2  0  0  0  0
  7  5  1  0  0  0  0
  7  4  2  0  0  0  0
  9  4  1  0  0  0  0
 10 13  2  0  0  0  0
 12  8  1  0  0  0  0
 13  3  1  0  0  0  0
 14 27  1  0  0  0  0
 14 10  2  0  0  0  0
 15  6  1  0  0  0  0
 16  2  2  0  0  0  0
 16  6  1  0  0  0  0
 17 13  1  0  0  0  0
 17  8  1  1  0  0  0
 18  1  1  0  0  0  0
 18 11  1  0  0  0  0
 19 20  1  6  0  0  0
 21 19  1  0  0  0  0
 23 21  1  0  0  0  0
 23 22  1  6  0  0  0
 24 25  1  6  0  0  0
 24 23  1  0  0  0  0
 26 24  1  0  0  0  0
 27 28  1  0  0  0  0
M  END
>  <MODEL>
1

>  <REMARK>
 VINA RESULT:      -7.3      0.000      0.000
  Name = 
  5 active torsions:
  status: ('A' for Active; 'I' for Inactive)
    1  A    between atoms: C_1  and  C_2
    2  A    between atoms: C_2  and  C_3
    3  A    between atoms: C_3  and  C_11
    4  A    between atoms: C_6  and  C_11
    5  A    between atoms: C_19  and  C_21
                            x       y       z     vdW  Elec       q    Type
                         _______ _______ _______ _____ _____    ______ ____

>  <TORSDO>
F 5

$$$$
=
 OpenBabel11052422583D

 28 30  0  0  1  0  0  0  0  0999 V2000
  161.8750  208.1050  152.1710 C   0  0  1  0  0  3  0  0  0  0  0  0
  160.3620  206.6220  147.2630 C   0  0  0  0  0  3  0  0  0  0  0  0
  160.4860  203.6600  152.7420 O   0  0  0  0  0  1  0  0  0  0  0  0
  161.3590  204.4390  147.6690 C   0  0  0  0  0  0  0  0  0  0  0  0
  160.7950  205.9570  149.6360 C   0  0  2  0  0  3  0  0  0  0  0  0
  160.9580  205.1990  145.4000 C   0  0  0  0  0  0  0  0  0  0  0  0
  160.8140  205.6490  148.1630 C   0  0  0  0  0  0  0  0  0  0  0  0
  161.9590  203.7590  150.0370 C   0  0  0  0  0  2  0  0  0  0  0  0
  161.4130  204.2210  146.2890 C   0  0  0  0  0  3  0  0  0  0  0  0
  160.8410  205.9470  152.5280 C   0  0  0  0  0  0  0  0  0  0  0  0
  161.9830  206.8670  149.9670 C   0  0  0  0  0  2  0  0  0  0  0  0
  161.7700  203.3170  148.5850 C   0  0  0  0  0  2  0  0  0  0  0  0
  160.7110  204.7840  151.9570 C   0  0  0  0  0  0  0  0  0  0  0  0
  161.0060  207.1590  152.9750 C   0  0  0  0  0  0  0  0  0  0  0  0
  161.0380  204.9160  143.6740 Cl  0  0  0  0  0  0  0  0  0  0  0  0
  160.4300  206.3960  145.8860 C   0  0  0  0  0  3  0  0  0  0  0  0
  160.7920  204.6430  150.4570 C   0  0  1  0  0  3  0  0  0  0  0  0
  161.5080  208.1310  150.6770 C   0  0  0  0  0  2  0  0  0  0  0  0
  161.9600  209.5210  152.7570 C   0  0  1  0  0  3  0  0  0  0  0  0
  162.9320  210.2600  152.0790 O   0  0  0  0  0  1  0  0  0  0  0  0
  160.6200  210.2490  152.7100 C   0  0  0  0  0  2  0  0  0  0  0  0
  161.3470  211.0570  154.8280 O   0  0  0  0  0  1  0  0  0  0  0  0
  160.5940  211.4030  153.7030 C   0  0  2  0  0  3  0  0  0  0  0  0
  159.1590  211.7140  154.1180 C   0  0  2  0  0  3  0  0  0  0  0  0
  158.7410  210.8380  155.2850 C   0  0  0  0  0  1  0  0  0  0  0  0
  158.2920  211.4840  153.0480 O   0  0  0  0  0  1  0  0  0  0  0  0
  160.3330  207.5490  154.2530 C   0  0  0  0  0  2  0  0  0  0  0  0
  161.2360  207.4670  155.3130 O   0  0  0  0  0  1  0  0  0  0  0  0
  1 19  1  1  0  0  0
  1 14  1  0  0  0  0
  2  7  1  0  0  0  0
  4  7  2  0  0  0  0
  4 12  1  0  0  0  0
  5 11  1  1  0  0  0
  5 17  1  0  0  0  0
  6 16  1  0  0  0  0
  6  9  2  0  0  0  0
  7  5  1  0  0  0  0
  9  4  1  0  0  0  0
 10 14  2  0  0  0  0
 11 18  1  0  0  0  0
 12  8  1  0  0  0  0
 13 10  2  0  0  0  0
 13  3  1  0  0  0  0
 14 27  1  0  0  0  0
 15  6  1  0  0  0  0
 16  2  2  0  0  0  0
 17  8  1  1  0  0  0
 17 13  1  0  0  0  0
 18  1  1  0  0  0  0
 19 20  1  6  0  0  0
 21 19  1  0  0  0  0
 21 23  1  0  0  0  0
 23 24  1  0  0  0  0
 23 22  1  1  0  0  0
 24 25  1  1  0  0  0
 26 24  1  0  0  0  0
 27 28  1  0  0  0  0
M  END
>  <MODEL>
2

>  <REMARK>
 VINA RESULT:      -6.9      3.581      5.498
  Name = 
  5 active torsions:
  status: ('A' for Active; 'I' for Inactive)
    1  A    between atoms: C_1  and  C_2
    2  A    between atoms: C_2  and  C_3
    3  A    between atoms: C_3  and  C_11
    4  A    between atoms: C_6  and  C_11
    5  A    between atoms: C_19  and  C_21
                            x       y       z     vdW  Elec       q    Type
                         _______ _______ _______ _____ _____    ______ ____

>  <TORSDO>
F 5

$$$$
=
 OpenBabel11052422583D

 28 30  0  0  1  0  0  0  0  0999 V2000
  160.5210  203.4940  150.1550 C   0  0  1  0  0  3  0  0  0  0  0  0
  162.6560  208.2050  148.8020 C   0  0  0  0  0  3  0  0  0  0  0  0
  161.4880  205.4950  154.2880 O   0  0  0  0  0  1  0  0  0  0  0  0
  161.4570  209.2250  150.6570 C   0  0  0  0  0  0  0  0  0  0  0  0
  161.8210  206.7040  150.6220 C   0  0  2  0  0  3  0  0  0  0  0  0
  162.2530  210.5890  148.8150 C   0  0  0  0  0  0  0  0  0  0  0  0
  162.0050  208.0770  150.0350 C   0  0  0  0  0  0  0  0  0  0  0  0
  160.4560  207.7520  152.4620 C   0  0  0  0  0  2  0  0  0  0  0  0
  161.5990  210.4750  150.0450 C   0  0  0  0  0  3  0  0  0  0  0  0
  161.3340  204.3700  152.2600 C   0  0  0  0  0  0  0  0  0  0  0  0
  160.6630  206.0070  149.8970 C   0  0  0  0  0  2  0  0  0  0  0  0
  160.8320  209.1690  152.0270 C   0  0  0  0  0  2  0  0  0  0  0  0
  161.4660  205.4970  152.8990 C   0  0  0  0  0  0  0  0  0  0  0  0
  161.1880  203.3190  151.5060 C   0  0  0  0  0  0  0  0  0  0  0  0
  162.4160  212.1580  148.0560 Cl  0  0  0  0  0  0  0  0  0  0  0  0
  162.7830  209.4560  148.1960 C   0  0  0  0  0  3  0  0  0  0  0  0
  161.6050  206.8010  152.1530 C   0  0  1  0  0  3  0  0  0  0  0  0
  161.1120  204.6590  149.3430 C   0  0  0  0  0  2  0  0  0  0  0  0
  160.4480  202.2050  149.3270 C   0  0  1  0  0  3  0  0  0  0  0  0
  159.1140  201.8710  149.0820 O   0  0  0  0  0  1  0  0  0  0  0  0
  161.2100  202.3180  148.0100 C   0  0  0  0  0  2  0  0  0  0  0  0
  161.4190  200.1220  147.1140 O   0  0  0  0  0  1  0  0  0  0  0  0
  160.6920  201.3090  146.9940 C   0  0  2  0  0  3  0  0  0  0  0  0
  160.8310  201.8610  145.5780 C   0  0  2  0  0  3  0  0  0  0  0  0
  161.1890  203.3360  145.6160 C   0  0  0  0  0  1  0  0  0  0  0  0
  159.6290  201.7070  144.8850 O   0  0  0  0  0  1  0  0  0  0  0  0
  161.6840  202.0020  152.0110 C   0  0  0  0  0  2  0  0  0  0  0  0
  163.0790  201.9850  152.0110 O   0  0  0  0  0  1  0  0  0  0  0  0
  1 19  1  6  0  0  0
  1 14  1  0  0  0  0
  2  7  1  0  0  0  0
  4 12  1  0  0  0  0
  5 11  1  6  0  0  0
  5 17  1  0  0  0  0
  6  9  2  0  0  0  0
  7  5  1  0  0  0  0
  7  4  2  0  0  0  0
  9  4  1  0  0  0  0
 10 13  2  0  0  0  0
 12  8  1  0  0  0  0
 13  3  1  0  0  0  0
 14 27  1  0  0  0  0
 14 10  2  0  0  0  0
 15  6  1  0  0  0  0
 16  2  2  0  0  0  0
 16  6  1  0  0  0  0
 17  8  1  6  0  0  0
 17 13  1  0  0  0  0
 18 11  1  0  0  0  0
 18  1  1  0  0  0  0
 19 20  1  6  0  0  0
 21 19  1  0  0  0  0
 23 22  1  6  0  0  0
 23 21  1  0  0  0  0
 24 25  1  1  0  0  0
 24 23  1  0  0  0  0
 26 24  1  0  0  0  0
 27 28  1  0  0  0  0
M  END
>  <MODEL>
3

>  <REMARK>
 VINA RESULT:      -6.4      4.791      7.843
  Name = 
  5 active torsions:
  status: ('A' for Active; 'I' for Inactive)
    1  A    between atoms: C_1  and  C_2
    2  A    between atoms: C_2  and  C_3
    3  A    between atoms: C_3  and  C_11
    4  A    between atoms: C_6  and  C_11
    5  A    between atoms: C_19  and  C_21
                            x       y       z     vdW  Elec       q    Type
                         _______ _______ _______ _____ _____    ______ ____

>  <TORSDO>
F 5

$$$$
=
 OpenBabel11052422583D

 28 30  0  0  1  0  0  0  0  0999 V2000
  162.1870  210.4860  149.9100 C   0  0  1  0  0  3  0  0  0  0  0  0
  160.6110  206.0310  147.4110 C   0  0  0  0  0  3  0  0  0  0  0  0
  160.5510  207.7920  153.3860 O   0  0  0  0  0  1  0  0  0  0  0  0
  161.4840  204.7350  149.2760 C   0  0  0  0  0  0  0  0  0  0  0  0
  160.9980  207.2170  149.5800 C   0  0  2  0  0  3  0  0  0  0  0  0
  161.1330  203.6880  147.1160 C   0  0  0  0  0  0  0  0  0  0  0  0
  161.0050  205.9600  148.7530 C   0  0  0  0  0  0  0  0  0  0  0  0
  162.0370  205.9000  151.4600 C   0  0  0  0  0  2  0  0  0  0  0  0
  161.5300  203.6050  148.4540 C   0  0  0  0  0  3  0  0  0  0  0  0
  161.0330  209.2480  151.6400 C   0  0  0  0  0  0  0  0  0  0  0  0
  162.2340  208.0510  149.2230 C   0  0  0  0  0  2  0  0  0  0  0  0
  161.8290  204.5710  150.7340 C   0  0  0  0  0  2  0  0  0  0  0  0
  160.8410  208.0260  152.0480 C   0  0  0  0  0  0  0  0  0  0  0  0
  161.2640  210.4150  151.1110 C   0  0  0  0  0  0  0  0  0  0  0  0
  161.2040  202.2680  146.0950 Cl  0  0  0  0  0  0  0  0  0  0  0  0
  160.6720  204.8980  146.5960 C   0  0  0  0  0  3  0  0  0  0  0  0
  160.9190  206.8660  151.0870 C   0  0  1  0  0  3  0  0  0  0  0  0
  161.8280  209.4640  148.8180 C   0  0  0  0  0  2  0  0  0  0  0  0
  162.3480  211.8990  149.3340 C   0  0  1  0  0  3  0  0  0  0  0  0
  163.4520  211.9410  148.4790 O   0  0  0  0  0  1  0  0  0  0  0  0
  161.0980  212.3710  148.5980 C   0  0  0  0  0  2  0  0  0  0  0  0
  161.5670  214.1540  147.0920 O   0  0  0  0  0  1  0  0  0  0  0  0
  161.4270  212.7650  147.1650 C   0  0  2  0  0  3  0  0  0  0  0  0
  160.3210  212.3060  146.2200 C   0  0  2  0  0  3  0  0  0  0  0  0
  160.4130  213.0460  144.8960 C   0  0  0  0  0  1  0  0  0  0  0  0
  159.0720  212.5550  146.7900 O   0  0  0  0  0  1  0  0  0  0  0  0
  160.6090  211.6160  151.7150 C   0  0  0  0  0  2  0  0  0  0  0  0
  160.5030  211.4590  153.0960 O   0  0  0  0  0  1  0  0  0  0  0  0
  1 19  1  6  0  0  0
  1 14  1  0  0  0  0
  2  7  1  0  0  0  0
  4 12  1  0  0  0  0
  5 11  1  1  0  0  0
  5 17  1  0  0  0  0
  6  9  2  0  0  0  0
  7  4  2  0  0  0  0
  7  5  1  0  0  0  0
  9  4  1  0  0  0  0
 10 13  2  0  0  0  0
 12  8  1  0  0  0  0
 13  3  1  0  0  0  0
 14 10  2  0  0  0  0
 14 27  1  0  0  0  0
 15  6  1  0  0  0  0
 16  6  1  0  0  0  0
 16  2  2  0  0  0  0
 17  8  1  1  0  0  0
 17 13  1  0  0  0  0
 18 11  1  0  0  0  0
 18  1  1  0  0  0  0
 19 20  1  6  0  0  0
 21 19  1  0  0  0  0
 23 22  1  1  0  0  0
 23 21  1  0  0  0  0
 24 25  1  6  0  0  0
 24 26  1  0  0  0  0
 24 23  1  0  0  0  0
 27 28  1  0  0  0  0
M  END
>  <MODEL>
4

>  <REMARK>
 VINA RESULT:      -6.3      1.455      1.960
  Name = 
  5 active torsions:
  status: ('A' for Active; 'I' for Inactive)
    1  A    between atoms: C_1  and  C_2
    2  A    between atoms: C_2  and  C_3
    3  A    between atoms: C_3  and  C_11
    4  A    between atoms: C_6  and  C_11
    5  A    between atoms: C_19  and  C_21
                            x       y       z     vdW  Elec       q    Type
                         _______ _______ _______ _____ _____    ______ ____

>  <TORSDO>
F 5

$$$$
=
 OpenBabel11052422583D

 28 30  0  0  1  0  0  0  0  0999 V2000
  160.4190  208.8500  154.7430 C   0  0  1  0  0  3  0  0  0  0  0  0
  161.5860  204.2670  152.2500 C   0  0  0  0  0  3  0  0  0  0  0  0
  162.7680  210.2380  150.9270 O   0  0  0  0  0  1  0  0  0  0  0  0
  161.1270  205.3630  150.1270 C   0  0  0  0  0  0  0  0  0  0  0  0
  161.6020  206.7690  152.1980 C   0  0  2  0  0  3  0  0  0  0  0  0
  161.0750  202.9430  150.2920 C   0  0  0  0  0  0  0  0  0  0  0  0
  161.4640  205.4430  151.5000 C   0  0  0  0  0  0  0  0  0  0  0  0
  160.9820  207.8930  150.0290 C   0  0  0  0  0  2  0  0  0  0  0  0
  160.9490  204.1100  149.5330 C   0  0  0  0  0  3  0  0  0  0  0  0
  161.9190  209.5370  152.9730 C   0  0  0  0  0  0  0  0  0  0  0  0
  160.2990  207.0700  152.9490 C   0  0  0  0  0  2  0  0  0  0  0  0
  161.0780  206.5840  149.2450 C   0  0  0  0  0  2  0  0  0  0  0  0
  162.2170  209.2540  151.7370 C   0  0  0  0  0  0  0  0  0  0  0  0
  161.5600  209.6970  154.2150 C   0  0  0  0  0  0  0  0  0  0  0  0
  160.8410  201.3810  149.5380 Cl  0  0  0  0  0  0  0  0  0  0  0  0
  161.3960  203.0210  151.6480 C   0  0  0  0  0  3  0  0  0  0  0  0
  161.9820  207.8730  151.1790 C   0  0  1  0  0  3  0  0  0  0  0  0
  160.5840  207.3550  154.4200 C   0  0  0  0  0  2  0  0  0  0  0  0
  160.1130  209.0780  156.2300 C   0  0  1  0  0  3  0  0  0  0  0  0
  161.2600  208.8470  156.9920 O   0  0  0  0  0  1  0  0  0  0  0  0
  159.5770  210.4810  156.5030 C   0  0  0  0  0  2  0  0  0  0  0  0
  159.0190  212.0470  154.8000 O   0  0  0  0  0  1  0  0  0  0  0  0
  158.5660  210.8920  155.4410 C   0  0  2  0  0  3  0  0  0  0  0  0
  157.2040  211.1530  156.0780 C   0  0  2  0  0  3  0  0  0  0  0  0
  156.1160  211.1630  155.0190 C   0  0  0  0  0  1  0  0  0  0  0  0
  157.2100  212.3870  156.7300 O   0  0  0  0  0  1  0  0  0  0  0  0
  162.2910  210.7010  155.0480 C   0  0  0  0  0  2  0  0  0  0  0  0
  163.6500  210.6810  154.7380 O   0  0  0  0  0  1  0  0  0  0  0  0
  1 19  1  1  0  0  0
  3 13  1  0  0  0  0
  4  7  1  0  0  0  0
  5 11  1  6  0  0  0
  6 16  2  0  0  0  0
  7  5  1  0  0  0  0
  7  2  2  0  0  0  0
  9  4  2  0  0  0  0
  9  6  1  0  0  0  0
 10 14  2  0  0  0  0
 11 18  1  0  0  0  0
 12  8  1  0  0  0  0
 12  4  1  0  0  0  0
 13 10  2  0  0  0  0
 14  1  1  0  0  0  0
 14 27  1  0  0  0  0
 15  6  1  0  0  0  0
 16  2  1  0  0  0  0
 17  8  1  6  0  0  0
 17 13  1  0  0  0  0
 17  5  1  0  0  0  0
 18  1  1  0  0  0  0
 19 21  1  0  0  0  0
 19 20  1  1  0  0  0
 23 22  1  1  0  0  0
 23 24  1  0  0  0  0
 23 21  1  0  0  0  0
 24 25  1  6  0  0  0
 24 26  1  0  0  0  0
 28 27  1  0  0  0  0
M  END
>  <MODEL>
5

>  <REMARK>
 VINA RESULT:      -6.3      3.318      5.948
  Name = 
  5 active torsions:
  status: ('A' for Active; 'I' for Inactive)
    1  A    between atoms: C_1  and  C_2
    2  A    between atoms: C_2  and  C_3
    3  A    between atoms: C_3  and  C_11
    4  A    between atoms: C_6  and  C_11
    5  A    between atoms: C_19  and  C_21
                            x       y       z     vdW  Elec       q    Type
                         _______ _______ _______ _____ _____    ______ ____

>  <TORSDO>
F 5

$$$$
=
 OpenBabel11052422583D

 28 30  0  0  1  0  0  0  0  0999 V2000
  160.7780  206.7260  151.6390 C   0  0  1  0  0  3  0  0  0  0  0  0
  161.6420  202.5760  148.3810 C   0  0  0  0  0  3  0  0  0  0  0  0
  162.6980  208.6910  147.8360 O   0  0  0  0  0  1  0  0  0  0  0  0
  160.9560  203.9680  146.5070 C   0  0  0  0  0  0  0  0  0  0  0  0
  161.6630  205.0580  148.6990 C   0  0  2  0  0  3  0  0  0  0  0  0
  160.9110  201.5500  146.3160 C   0  0  0  0  0  0  0  0  0  0  0  0
  161.4430  203.8490  147.8320 C   0  0  0  0  0  0  0  0  0  0  0  0
  160.8130  206.4830  146.8020 C   0  0  0  0  0  2  0  0  0  0  0  0
  160.7070  202.8150  145.7570 C   0  0  0  0  0  3  0  0  0  0  0  0
  162.0770  207.6850  149.8370 C   0  0  0  0  0  0  0  0  0  0  0  0
  160.4530  205.2290  149.6250 C   0  0  0  0  0  2  0  0  0  0  0  0
  160.8150  205.3050  145.8270 C   0  0  0  0  0  2  0  0  0  0  0  0
  162.2350  207.5910  148.5480 C   0  0  0  0  0  0  0  0  0  0  0  0
  161.8580  207.6550  151.1200 C   0  0  0  0  0  0  0  0  0  0  0  0
  160.5880  200.1140  145.3690 Cl  0  0  0  0  0  0  0  0  0  0  0  0
  161.3800  201.4310  147.6260 C   0  0  0  0  0  3  0  0  0  0  0  0
  161.9330  206.3050  147.8200 C   0  0  1  0  0  3  0  0  0  0  0  0
  160.8990  205.2970  151.0820 C   0  0  0  0  0  2  0  0  0  0  0  0
  160.6390  206.7280  153.1670 C   0  0  1  0  0  3  0  0  0  0  0  0
  161.6410  205.9390  153.7370 O   0  0  0  0  0  1  0  0  0  0  0  0
  160.6870  208.1370  153.7520 C   0  0  0  0  0  2  0  0  0  0  0  0
  159.6990  207.5640  155.8410 O   0  0  0  0  0  1  0  0  0  0  0  0
  160.8570  208.0920  155.2640 C   0  0  2  0  0  3  0  0  0  0  0  0
  161.1150  209.4930  155.8110 C   0  0  2  0  0  3  0  0  0  0  0  0
  161.1690  210.5040  154.6790 C   0  0  0  0  0  1  0  0  0  0  0  0
  162.3300  209.5200  156.4990 O   0  0  0  0  0  1  0  0  0  0  0  0
  162.6800  208.5340  152.0070 C   0  0  0  0  0  2  0  0  0  0  0  0
  162.6490  209.8470  151.5400 O   0  0  0  0  0  1  0  0  0  0  0  0
  1 19  1  1  0  0  0
  3 13  1  0  0  0  0
  4  7  2  0  0  0  0
  5 11  1  6  0  0  0
  6 16  1  0  0  0  0
  7  2  1  0  0  0  0
  7  5  1  0  0  0  0
  9  6  2  0  0  0  0
  9  4  1  0  0  0  0
 10 14  2  0  0  0  0
 11 18  1  0  0  0  0
 12  4  1  0  0  0  0
 12  8  1  0  0  0  0
 13 10  2  0  0  0  0
 14  1  1  0  0  0  0
 14 27  1  0  0  0  0
 15  6  1  0  0  0  0
 16  2  2  0  0  0  0
 17  8  1  1  0  0  0
 17 13  1  0  0  0  0
 17  5  1  0  0  0  0
 18  1  1  0  0  0  0
 19 20  1  1  0  0  0
 19 21  1  0  0  0  0
 21 23  1  0  0  0  0
 23 24  1  0  0  0  0
 23 22  1  1  0  0  0
 24 25  1  6  0  0  0
 24 26  1  0  0  0  0
 28 27  1  0  0  0  0
M  END
>  <MODEL>
6

>  <REMARK>
 VINA RESULT:      -6.2      3.474      6.484
  Name = 
  5 active torsions:
  status: ('A' for Active; 'I' for Inactive)
    1  A    between atoms: C_1  and  C_2
    2  A    between atoms: C_2  and  C_3
    3  A    between atoms: C_3  and  C_11
    4  A    between atoms: C_6  and  C_11
    5  A    between atoms: C_19  and  C_21
                            x       y       z     vdW  Elec       q    Type
                         _______ _______ _______ _____ _____    ______ ____

>  <TORSDO>
F 5

$$$$
=
 OpenBabel11052422583D

 28 30  0  0  1  0  0  0  0  0999 V2000
  161.7370  204.7840  150.4600 C   0  0  1  0  0  3  0  0  0  0  0  0
  159.9500  208.1210  154.2340 C   0  0  0  0  0  3  0  0  0  0  0  0
  161.8250  208.9760  148.3560 O   0  0  0  0  0  1  0  0  0  0  0  0
  161.5960  209.7560  153.4980 C   0  0  0  0  0  0  0  0  0  0  0  0
  160.9380  207.8400  151.9520 C   0  0  2  0  0  3  0  0  0  0  0  0
  160.6270  209.9090  155.7170 C   0  0  0  0  0  0  0  0  0  0  0  0
  160.8080  208.6080  153.2400 C   0  0  0  0  0  0  0  0  0  0  0  0
  162.7450  209.4530  151.2580 C   0  0  0  0  0  2  0  0  0  0  0  0
  161.4870  210.4040  154.7320 C   0  0  0  0  0  3  0  0  0  0  0  0
  161.4530  206.8750  149.2750 C   0  0  0  0  0  0  0  0  0  0  0  0
  161.8440  206.6270  152.1900 C   0  0  0  0  0  2  0  0  0  0  0  0
  162.4610  210.3840  152.4370 C   0  0  0  0  0  2  0  0  0  0  0  0
  161.5800  208.1590  149.4520 C   0  0  0  0  0  0  0  0  0  0  0  0
  161.3270  205.5790  149.2360 C   0  0  0  0  0  0  0  0  0  0  0  0
  160.5060  210.7250  157.2610 Cl  0  0  0  0  0  0  0  0  0  0  0  0
  159.8570  208.7710  155.4670 C   0  0  0  0  0  3  0  0  0  0  0  0
  161.4540  208.7690  150.8250 C   0  0  1  0  0  3  0  0  0  0  0  0
  161.1420  205.3420  151.7630 C   0  0  0  0  0  2  0  0  0  0  0  0
  161.4970  203.2740  150.3280 C   0  0  1  0  0  3  0  0  0  0  0  0
  161.7100  202.6490  151.5590 O   0  0  0  0  0  1  0  0  0  0  0  0
  160.0980  202.9520  149.8120 C   0  0  0  0  0  2  0  0  0  0  0  0
  160.2350  200.6010  150.1570 O   0  0  0  0  0  1  0  0  0  0  0  0
  160.0600  201.5720  149.1690 C   0  0  2  0  0  3  0  0  0  0  0  0
  161.1580  201.4460  148.1180 C   0  0  2  0  0  3  0  0  0  0  0  0
  160.5920  201.6830  146.7280 C   0  0  0  0  0  1  0  0  0  0  0  0
  161.7190  200.1690  148.1640 O   0  0  0  0  0  1  0  0  0  0  0  0
  160.7850  204.9500  147.9920 C   0  0  0  0  0  2  0  0  0  0  0  0
  161.7660  204.9300  147.0010 O   0  0  0  0  0  1  0  0  0  0  0  0
  1 19  1  6  0  0  0
  1 18  1  0  0  0  0
  2 16  1  0  0  0  0
  3 13  1  0  0  0  0
  4  9  2  0  0  0  0
  5 11  1  1  0  0  0
  5  7  1  0  0  0  0
  6 15  1  0  0  0  0
  7  4  1  0  0  0  0
  7  2  2  0  0  0  0
  8 12  1  0  0  0  0
  9  6  1  0  0  0  0
 10 13  2  0  0  0  0
 12  4  1  0  0  0  0
 13 17  1  0  0  0  0
 14 10  2  0  0  0  0
 14  1  1  0  0  0  0
 16  6  2  0  0  0  0
 17  8  1  1  0  0  0
 17  5  1  0  0  0  0
 18 11  1  0  0  0  0
 19 20  1  1  0  0  0
 21 19  1  0  0  0  0
 23 21  1  0  0  0  0
 23 22  1  1  0  0  0
 24 25  1  6  0  0  0
 24 26  1  0  0  0  0
 24 23  1  0  0  0  0
 27 14  1  0  0  0  0
 28 27  1  0  0  0  0
M  END
>  <MODEL>
7

>  <REMARK>
 VINA RESULT:      -6.1      4.491      7.900
  Name = 
  5 active torsions:
  status: ('A' for Active; 'I' for Inactive)
    1  A    between atoms: C_1  and  C_2
    2  A    between atoms: C_2  and  C_3
    3  A    between atoms: C_3  and  C_11
    4  A    between atoms: C_6  and  C_11
    5  A    between atoms: C_19  and  C_21
                            x       y       z     vdW  Elec       q    Type
                         _______ _______ _______ _____ _____    ______ ____

>  <TORSDO>
F 5

$$$$
=
 OpenBabel11052422583D

 28 30  0  0  1  0  0  0  0  0999 V2000
  160.7850  205.6110  150.9260 C   0  0  1  0  0  3  0  0  0  0  0  0
  161.7940  201.2270  148.0370 C   0  0  0  0  0  3  0  0  0  0  0  0
  162.3040  207.3160  146.8270 O   0  0  0  0  0  1  0  0  0  0  0  0
  160.8840  202.3630  146.0870 C   0  0  0  0  0  0  0  0  0  0  0  0
  161.6280  203.7230  148.1090 C   0  0  2  0  0  3  0  0  0  0  0  0
  161.0290  199.9420  146.1370 C   0  0  0  0  0  0  0  0  0  0  0  0
  161.4570  202.4170  147.3810 C   0  0  0  0  0  0  0  0  0  0  0  0
  160.5510  204.8760  146.1450 C   0  0  0  0  0  2  0  0  0  0  0  0
  160.6880  201.1230  145.4720 C   0  0  0  0  0  3  0  0  0  0  0  0
  161.8900  206.4770  148.9540 C   0  0  0  0  0  0  0  0  0  0  0  0
  160.4660  203.8950  149.0940 C   0  0  0  0  0  2  0  0  0  0  0  0
  160.5920  203.6080  145.2910 C   0  0  0  0  0  2  0  0  0  0  0  0
  161.9780  206.2640  147.6730 C   0  0  0  0  0  0  0  0  0  0  0  0
  161.7510  206.5610  150.2460 C   0  0  0  0  0  0  0  0  0  0  0  0
  160.7700  198.3950  145.3580 Cl  0  0  0  0  0  0  0  0  0  0  0  0
  161.5840  199.9940  147.4160 C   0  0  0  0  0  3  0  0  0  0  0  0
  161.7410  204.8900  147.0960 C   0  0  1  0  0  3  0  0  0  0  0  0
  160.9910  204.1460  150.5040 C   0  0  0  0  0  2  0  0  0  0  0  0
  160.7390  205.7590  152.4520 C   0  0  1  0  0  3  0  0  0  0  0  0
  161.1950  204.5870  153.0590 O   0  0  0  0  0  1  0  0  0  0  0  0
  161.5520  206.9540  152.9440 C   0  0  0  0  0  2  0  0  0  0  0  0
  161.0830  209.1540  153.7230 O   0  0  0  0  0  1  0  0  0  0  0  0
  160.7340  207.8120  153.8990 C   0  0  2  0  0  3  0  0  0  0  0  0
  160.9920  207.3950  155.3430 C   0  0  2  0  0  3  0  0  0  0  0  0
  159.6800  207.1950  156.0810 C   0  0  0  0  0  1  0  0  0  0  0  0
  161.7330  208.3790  155.9990 O   0  0  0  0  0  1  0  0  0  0  0  0
  162.5500  207.5880  150.9860 C   0  0  0  0  0  2  0  0  0  0  0  0
  162.3300  208.8500  150.4370 O   0  0  0  0  0  1  0  0  0  0  0  0
  1 19  1  1  0  0  0
  3 13  1  0  0  0  0
  4  7  1  0  0  0  0
  5 11  1  1  0  0  0
  6 16  2  0  0  0  0
  7  2  2  0  0  0  0
  7  5  1  0  0  0  0
  9  4  2  0  0  0  0
  9  6  1  0  0  0  0
 10 14  2  0  0  0  0
 11 18  1  0  0  0  0
 12  4  1  0  0  0  0
 12  8  1  0  0  0  0
 13 10  2  0  0  0  0
 14  1  1  0  0  0  0
 14 27  1  0  0  0  0
 15  6  1  0  0  0  0
 16  2  1  0  0  0  0
 17  8  1  1  0  0  0
 17 13  1  0  0  0  0
 17  5  1  0  0  0  0
 18  1  1  0  0  0  0
 19 21  1  0  0  0  0
 19 20  1  1  0  0  0
 21 23  1  0  0  0  0
 23 22  1  1  0  0  0
 23 24  1  0  0  0  0
 24 26  1  0  0  0  0
 24 25  1  1  0  0  0
 28 27  1  0  0  0  0
M  END
>  <MODEL>
8

>  <REMARK>
 VINA RESULT:      -5.8      3.930      7.121
  Name = 
  5 active torsions:
  status: ('A' for Active; 'I' for Inactive)
    1  A    between atoms: C_1  and  C_2
    2  A    between atoms: C_2  and  C_3
    3  A    between atoms: C_3  and  C_11
    4  A    between atoms: C_6  and  C_11
    5  A    between atoms: C_19  and  C_21
                            x       y       z     vdW  Elec       q    Type
                         _______ _______ _______ _____ _____    ______ ____

>  <TORSDO>
F 5

$$$$
=
 OpenBabel11052422583D

 28 30  0  0  1  0  0  0  0  0999 V2000
  160.5980  208.4310  153.7030 C   0  0  1  0  0  3  0  0  0  0  0  0
  161.7800  203.6460  151.6320 C   0  0  0  0  0  3  0  0  0  0  0  0
  162.3500  209.4620  149.4750 O   0  0  0  0  0  1  0  0  0  0  0  0
  160.9830  204.4390  149.4740 C   0  0  0  0  0  0  0  0  0  0  0  0
  161.6050  206.1180  151.2850 C   0  0  2  0  0  3  0  0  0  0  0  0
  161.1280  202.0600  149.9270 C   0  0  0  0  0  0  0  0  0  0  0  0
  161.4800  204.7100  150.7720 C   0  0  0  0  0  0  0  0  0  0  0  0
  160.6430  206.9240  149.1010 C   0  0  0  0  0  2  0  0  0  0  0  0
  160.8240  203.1130  149.0590 C   0  0  0  0  0  3  0  0  0  0  0  0
  161.8130  208.9760  151.6830 C   0  0  0  0  0  0  0  0  0  0  0  0
  160.3880  206.4360  152.1610 C   0  0  0  0  0  2  0  0  0  0  0  0
  160.7360  205.5340  148.4700 C   0  0  0  0  0  2  0  0  0  0  0  0
  161.9760  208.5580  150.4600 C   0  0  0  0  0  0  0  0  0  0  0  0
  161.6000  209.2690  152.9340 C   0  0  0  0  0  0  0  0  0  0  0  0
  160.9170  200.4050  149.3980 Cl  0  0  0  0  0  0  0  0  0  0  0  0
  161.6080  202.3260  151.2100 C   0  0  0  0  0  3  0  0  0  0  0  0
  161.7750  207.1060  150.1040 C   0  0  1  0  0  3  0  0  0  0  0  0
  160.8300  206.9200  153.5380 C   0  0  0  0  0  2  0  0  0  0  0  0
  160.4620  208.8260  155.1800 C   0  0  1  0  0  3  0  0  0  0  0  0
  161.5870  208.4020  155.8910 O   0  0  0  0  0  1  0  0  0  0  0  0
  160.2630  210.3280  155.3620 C   0  0  0  0  0  2  0  0  0  0  0  0
  158.6880  211.5040  154.0190 O   0  0  0  0  0  1  0  0  0  0  0  0
  158.8020  210.7100  155.1630 C   0  0  2  0  0  3  0  0  0  0  0  0
  158.2830  211.4750  156.3770 C   0  0  2  0  0  3  0  0  0  0  0  0
  157.0920  212.3360  155.9930 C   0  0  0  0  0  1  0  0  0  0  0  0
  159.2880  212.2970  156.8890 O   0  0  0  0  0  1  0  0  0  0  0  0
  162.3520  210.4100  153.5400 C   0  0  0  0  0  2  0  0  0  0  0  0
  163.4770  210.7040  152.7700 O   0  0  0  0  0  1  0  0  0  0  0  0
  1 19  1  1  0  0  0
  3 13  1  0  0  0  0
  4  7  1  0  0  0  0
  5 11  1  6  0  0  0
  6 16  2  0  0  0  0
  7  5  1  0  0  0  0
  7  2  2  0  0  0  0
  9  4  2  0  0  0  0
  9  6  1  0  0  0  0
 10 14  2  0  0  0  0
 11 18  1  0  0  0  0
 12  8  1  0  0  0  0
 12  4  1  0  0  0  0
 13 10  2  0  0  0  0
 14 27  1  0  0  0  0
 14  1  1  0  0  0  0
 15  6  1  0  0  0  0
 16  2  1  0  0  0  0
 17  8  1  6  0  0  0
 17 13  1  0  0  0  0
 17  5  1  0  0  0  0
 18  1  1  0  0  0  0
 19 21  1  0  0  0  0
 19 20  1  1  0  0  0
 23 22  1  6  0  0  0
 23 21  1  0  0  0  0
 23 24  1  0  0  0  0
 24 25  1  6  0  0  0
 24 26  1  0  0  0  0
 28 27  1  0  0  0  0
M  END
>  <MODEL>
9

>  <REMARK>
 VINA RESULT:      -5.7      3.178      5.763
  Name = 
  5 active torsions:
  status: ('A' for Active; 'I' for Inactive)
    1  A    between atoms: C_1  and  C_2
    2  A    between atoms: C_2  and  C_3
    3  A    between atoms: C_3  and  C_11
    4  A    between atoms: C_6  and  C_11
    5  A    between atoms: C_19  and  C_21
                            x       y       z     vdW  Elec       q    Type
                         _______ _______ _______ _____ _____    ______ ____

>  <TORSDO>
F 5

$$$$
