=
 OpenBabel11062409433D

 34 39  0  0  0  0  0  0  0  0999 V2000
  161.4430  207.5530  150.9220 N   0  0  0  0  0  0  0  0  0  0  0  0
  161.9000  211.2160  150.3840 C   0  0  0  0  0  3  0  0  0  0  0  0
  161.3910  209.9260  152.3750 O   0  0  0  0  0  0  0  0  0  0  0  0
  160.9580  205.1350  152.3020 C   0  0  0  0  0  3  0  0  0  0  0  0
  161.4600  206.3030  150.2120 C   0  0  0  0  0  3  0  0  0  0  0  0
  160.9400  206.2620  153.0160 C   0  0  0  0  0  0  0  0  0  0  0  0
  161.2600  207.4240  155.1840 C   0  0  0  0  0  2  0  0  0  0  0  0
  160.6310  206.2210  154.4810 C   0  0  0  0  0  2  0  0  0  0  0  0
  161.2310  205.1380  150.8410 C   0  0  0  0  0  0  0  0  0  0  0  0
  161.1530  208.7090  153.0300 C   0  0  0  0  0  0  0  0  0  0  0  0
  161.1690  207.5530  152.3360 C   0  0  0  0  0  0  0  0  0  0  0  0
  160.8340  208.7260  154.5010 C   0  0  0  0  0  2  0  0  0  0  0  0
  162.1710  211.2780  149.0130 C   0  0  0  0  0  0  0  0  0  0  0  0
  162.2000  210.0920  148.2630 C   0  0  0  0  0  3  0  0  0  0  0  0
  161.6620  209.9860  151.0030 C   0  0  0  0  0  0  0  0  0  0  0  0
  161.9630  208.8590  148.8760 C   0  0  0  0  0  3  0  0  0  0  0  0
  161.6930  208.8000  150.2510 C   0  0  0  0  0  0  0  0  0  0  0  0
  160.9160  201.3570  150.1240 C   0  0  0  0  0  2  0  0  0  0  0  0
  161.1000  203.8780  148.7470 C   0  0  0  0  0  3  0  0  0  0  0  0
  161.1490  200.2410  146.4990 C   0  0  0  0  0  0  0  0  0  0  0  0
  161.0820  200.2060  147.8980 C   0  0  0  0  0  3  0  0  0  0  0  0
  161.0770  201.3940  148.6340 C   0  0  0  0  0  0  0  0  0  0  0  0
  161.1700  202.6710  146.5730 C   0  0  0  0  0  3  0  0  0  0  0  0
  161.1160  202.6310  147.9680 C   0  0  0  0  0  0  0  0  0  0  0  0
  161.1890  201.4800  145.8410 C   0  0  0  0  0  3  0  0  0  0  0  0
  161.2580  203.8670  150.0800 C   0  0  0  0  0  0  0  0  0  0  0  0
  161.5930  202.5660  150.7800 C   0  0  0  0  0  2  0  0  0  0  0  0
  161.1640  198.9860  145.7290 C   0  0  0  0  0  0  0  0  0  0  0  0
  160.0970  198.5200  145.2490 O   0  0  0  0  0  0  0  0  0  0  0  0
  162.3570  198.3040  145.5240 O   0  0  0  0  0  1  0  0  0  0  0  0
  161.7640  213.0980  147.2540 C   0  0  0  0  0  0  0  0  0  0  0  0
  162.1410  214.4530  146.7760 C   0  0  0  0  0  1  0  0  0  0  0  0
  160.8840  212.4470  146.6330 O   0  0  0  0  0  0  0  0  0  0  0  0
  162.4090  212.5600  148.4160 N   0  0  0  0  0  2  0  0  0  0  0  0
  1 11  1  0  0  0  0
  2 15  1  0  0  0  0
  3 10  1  0  0  0  0
  4  6  2  0  0  0  0
  5  9  2  0  0  0  0
  5  1  1  0  0  0  0
  6  8  1  0  0  0  0
  8  7  1  0  0  0  0
  9  4  1  0  0  0  0
 10 12  1  0  0  0  0
 11  6  1  0  0  0  0
 11 10  2  0  0  0  0
 12  7  1  0  0  0  0
 13  2  2  0  0  0  0
 14 16  2  0  0  0  0
 14 13  1  0  0  0  0
 15  3  1  0  0  0  0
 16 17  1  0  0  0  0
 17  1  1  0  0  0  0
 17 15  2  0  0  0  0
 18 27  1  0  0  0  0
 19 26  2  0  0  0  0
 20 21  1  0  0  0  0
 21 22  2  0  0  0  0
 22 18  1  0  0  0  0
 23 24  2  0  0  0  0
 24 22  1  0  0  0  0
 24 19  1  0  0  0  0
 25 20  2  0  0  0  0
 25 23  1  0  0  0  0
 26 27  1  0  0  0  0
 26  9  1  0  0  0  0
 28 20  1  0  0  0  0
 29 28  2  0  0  0  0
 30 28  1  0  0  0  0
 31 34  1  0  0  0  0
 32 31  1  0  0  0  0
 33 31  2  0  0  0  0
 34 13  1  0  0  0  0
M  END
>  <MODEL>
1

>  <REMARK>
 VINA RESULT:      -9.2      0.000      0.000
  Name = 
  3 active torsions:
  status: ('A' for Active; 'I' for Inactive)
    1  A    between atoms: C_7  and  C_11
    2  A    between atoms: C_18  and  C_30
    3  A    between atoms: C_23  and  N_25
                            x       y       z     vdW  Elec       q    Type
                         _______ _______ _______ _____ _____    ______ ____

>  <TORSDO>
F 3

$$$$
=
 OpenBabel11062409433D

 34 39  0  0  0  0  0  0  0  0999 V2000
  161.1510  204.7150  148.3470 N   0  0  0  0  0  0  0  0  0  0  0  0
  161.1220  204.0630  144.6740 C   0  0  0  0  0  3  0  0  0  0  0  0
  161.1260  202.5640  146.5820 O   0  0  0  0  0  0  0  0  0  0  0  0
  161.1520  204.1660  151.1190 C   0  0  0  0  0  3  0  0  0  0  0  0
  161.1640  205.7960  149.2950 C   0  0  0  0  0  3  0  0  0  0  0  0
  161.1290  203.1230  150.2870 C   0  0  0  0  0  0  0  0  0  0  0  0
  160.4980  200.7680  149.8300 C   0  0  0  0  0  2  0  0  0  0  0  0
  161.1450  201.7270  150.8290 C   0  0  0  0  0  2  0  0  0  0  0  0
  161.1670  205.5650  150.6190 C   0  0  0  0  0  0  0  0  0  0  0  0
  161.1280  202.3250  147.9640 C   0  0  0  0  0  0  0  0  0  0  0  0
  161.1470  203.3590  148.8290 C   0  0  0  0  0  0  0  0  0  0  0  0
  161.1570  200.9020  148.4560 C   0  0  0  0  0  2  0  0  0  0  0  0
  161.1270  205.3580  144.1470 C   0  0  0  0  0  0  0  0  0  0  0  0
  161.1410  206.4570  145.0210 C   0  0  0  0  0  3  0  0  0  0  0  0
  161.1300  203.8620  146.0570 C   0  0  0  0  0  0  0  0  0  0  0  0
  161.1490  206.2620  146.4040 C   0  0  0  0  0  3  0  0  0  0  0  0
  161.1430  204.9610  146.9290 C   0  0  0  0  0  0  0  0  0  0  0  0
  160.9530  209.2060  151.8880 C   0  0  0  0  0  2  0  0  0  0  0  0
  160.8930  206.4990  152.8650 C   0  0  0  0  0  3  0  0  0  0  0  0
  160.8890  209.7430  155.6500 C   0  0  0  0  0  0  0  0  0  0  0  0
  160.9570  209.9940  154.2720 C   0  0  0  0  0  3  0  0  0  0  0  0
  160.9700  208.9340  153.3620 C   0  0  0  0  0  0  0  0  0  0  0  0
  160.8090  207.3560  155.1980 C   0  0  0  0  0  3  0  0  0  0  0  0
  160.8900  207.6100  153.8280 C   0  0  0  0  0  0  0  0  0  0  0  0
  160.8110  208.4190  156.1060 C   0  0  0  0  0  3  0  0  0  0  0  0
  161.1780  206.7030  151.5690 C   0  0  0  0  0  0  0  0  0  0  0  0
  161.6360  208.0730  151.1130 C   0  0  0  0  0  2  0  0  0  0  0  0
  160.8860  210.8640  156.6040 C   0  0  0  0  0  0  0  0  0  0  0  0
  161.9670  211.4140  156.9460 O   0  0  0  0  0  0  0  0  0  0  0  0
  159.6890  211.3280  157.1360 O   0  0  0  0  0  1  0  0  0  0  0  0
  162.0760  206.2440  141.9370 C   0  0  0  0  0  0  0  0  0  0  0  0
  161.9060  206.3080  140.4620 C   0  0  0  0  0  1  0  0  0  0  0  0
  163.0570  206.8240  142.4700 O   0  0  0  0  0  0  0  0  0  0  0  0
  161.1190  205.5220  142.7220 N   0  0  0  0  0  2  0  0  0  0  0  0
  1 11  1  0  0  0  0
  1  5  1  0  0  0  0
  2 15  1  0  0  0  0
  3 10  1  0  0  0  0
  5  9  2  0  0  0  0
  6  8  1  0  0  0  0
  6  4  2  0  0  0  0
  7  8  1  0  0  0  0
  9  4  1  0  0  0  0
  9 26  1  0  0  0  0
 10 12  1  0  0  0  0
 10 11  2  0  0  0  0
 11  6  1  0  0  0  0
 12  7  1  0  0  0  0
 13  2  2  0  0  0  0
 13 14  1  0  0  0  0
 14 16  2  0  0  0  0
 15  3  1  0  0  0  0
 15 17  2  0  0  0  0
 16 17  1  0  0  0  0
 17  1  1  0  0  0  0
 18 22  1  0  0  0  0
 19 24  1  0  0  0  0
 20 25  1  0  0  0  0
 20 28  1  0  0  0  0
 21 20  2  0  0  0  0
 22 24  2  0  0  0  0
 22 21  1  0  0  0  0
 23 25  2  0  0  0  0
 24 23  1  0  0  0  0
 26 19  2  0  0  0  0
 27 26  1  0  0  0  0
 27 18  1  0  0  0  0
 28 29  2  0  0  0  0
 28 30  1  0  0  0  0
 31 33  2  0  0  0  0
 31 34  1  0  0  0  0
 32 31  1  0  0  0  0
 34 13  1  0  0  0  0
M  END
>  <MODEL>
2

>  <REMARK>
 VINA RESULT:      -7.1      3.323      8.946
  Name = 
  3 active torsions:
  status: ('A' for Active; 'I' for Inactive)
    1  A    between atoms: C_7  and  C_11
    2  A    between atoms: C_18  and  C_30
    3  A    between atoms: C_23  and  N_25
                            x       y       z     vdW  Elec       q    Type
                         _______ _______ _______ _____ _____    ______ ____

>  <TORSDO>
F 3

$$$$
=
 OpenBabel11062409433D

 34 39  0  0  0  0  0  0  0  0999 V2000
  161.0480  204.5820  148.5730 N   0  0  0  0  0  0  0  0  0  0  0  0
  161.0970  204.1350  144.8700 C   0  0  0  0  0  3  0  0  0  0  0  0
  161.1830  202.5360  146.6930 O   0  0  0  0  0  0  0  0  0  0  0  0
  161.0600  203.8800  151.3110 C   0  0  0  0  0  3  0  0  0  0  0  0
  160.9800  205.6070  149.5800 C   0  0  0  0  0  3  0  0  0  0  0  0
  161.1150  202.8860  150.4230 C   0  0  0  0  0  0  0  0  0  0  0  0
  160.6470  200.5240  149.8290 C   0  0  0  0  0  2  0  0  0  0  0  0
  161.2190  201.4660  150.8870 C   0  0  0  0  0  2  0  0  0  0  0  0
  160.9870  205.3030  150.8890 C   0  0  0  0  0  0  0  0  0  0  0  0
  161.1880  202.2210  148.0590 C   0  0  0  0  0  0  0  0  0  0  0  0
  161.1300  203.2030  148.9810 C   0  0  0  0  0  0  0  0  0  0  0  0
  161.3080  200.7770  148.4720 C   0  0  0  0  0  2  0  0  0  0  0  0
  161.0200  205.4560  144.4160 C   0  0  0  0  0  0  0  0  0  0  0  0
  160.9520  206.5020  145.3490 C   0  0  0  0  0  3  0  0  0  0  0  0
  161.1060  203.8580  146.2400 C   0  0  0  0  0  0  0  0  0  0  0  0
  160.9610  206.2310  146.7190 C   0  0  0  0  0  3  0  0  0  0  0  0
  161.0370  204.9060  147.1720 C   0  0  0  0  0  0  0  0  0  0  0  0
  161.4130  207.1060  154.2770 C   0  0  0  0  0  2  0  0  0  0  0  0
  160.8480  207.6660  151.5110 C   0  0  0  0  0  3  0  0  0  0  0  0
  160.6540  210.8280  154.3830 C   0  0  0  0  0  0  0  0  0  0  0  0
  160.9530  209.5210  154.7900 C   0  0  0  0  0  3  0  0  0  0  0  0
  161.0060  208.4850  153.8530 C   0  0  0  0  0  0  0  0  0  0  0  0
  160.4950  210.0620  152.0820 C   0  0  0  0  0  3  0  0  0  0  0  0
  160.7810  208.7590  152.4930 C   0  0  0  0  0  0  0  0  0  0  0  0
  160.4290  211.0930  153.0240 C   0  0  0  0  0  3  0  0  0  0  0  0
  160.9130  206.3840  151.9010 C   0  0  0  0  0  0  0  0  0  0  0  0
  160.7790  206.0440  153.3710 C   0  0  0  0  0  2  0  0  0  0  0  0
  160.5910  211.9130  155.3760 C   0  0  0  0  0  0  0  0  0  0  0  0
  161.2580  211.8420  156.4420 O   0  0  0  0  0  1  0  0  0  0  0  0
  159.7930  213.0280  155.1450 O   0  0  0  0  0  0  0  0  0  0  0  0
  162.0810  206.2530  142.2230 C   0  0  0  0  0  0  0  0  0  0  0  0
  161.8950  206.4330  140.7600 C   0  0  0  0  0  1  0  0  0  0  0  0
  163.1720  206.5910  142.7530 O   0  0  0  0  0  0  0  0  0  0  0  0
  161.0140  205.6980  143.0020 N   0  0  0  0  0  2  0  0  0  0  0  0
  1 11  1  0  0  0  0
  1  5  1  0  0  0  0
  2 15  1  0  0  0  0
  3 10  1  0  0  0  0
  5  9  2  0  0  0  0
  6  8  1  0  0  0  0
  6  4  2  0  0  0  0
  7  8  1  0  0  0  0
  9  4  1  0  0  0  0
  9 26  1  0  0  0  0
 10 12  1  0  0  0  0
 10 11  2  0  0  0  0
 11  6  1  0  0  0  0
 12  7  1  0  0  0  0
 13  2  2  0  0  0  0
 13 14  1  0  0  0  0
 14 16  2  0  0  0  0
 15  3  1  0  0  0  0
 15 17  2  0  0  0  0
 16 17  1  0  0  0  0
 17  1  1  0  0  0  0
 19 26  2  0  0  0  0
 19 24  1  0  0  0  0
 20 21  1  0  0  0  0
 20 28  1  0  0  0  0
 22 18  1  0  0  0  0
 22 21  2  0  0  0  0
 23 24  2  0  0  0  0
 23 25  1  0  0  0  0
 24 22  1  0  0  0  0
 25 20  2  0  0  0  0
 26 27  1  0  0  0  0
 27 18  1  0  0  0  0
 28 29  1  0  0  0  0
 30 28  2  0  0  0  0
 31 33  2  0  0  0  0
 31 34  1  0  0  0  0
 32 31  1  0  0  0  0
 34 13  1  0  0  0  0
M  END
>  <MODEL>
3

>  <REMARK>
 VINA RESULT:      -6.7      3.277      8.835
  Name = 
  3 active torsions:
  status: ('A' for Active; 'I' for Inactive)
    1  A    between atoms: C_7  and  C_11
    2  A    between atoms: C_18  and  C_30
    3  A    between atoms: C_23  and  N_25
                            x       y       z     vdW  Elec       q    Type
                         _______ _______ _______ _____ _____    ______ ____

>  <TORSDO>
F 3

$$$$
=
 OpenBabel11062409433D

 34 39  0  0  0  0  0  0  0  0999 V2000
  160.4710  210.9120  151.4370 N   0  0  0  0  0  0  0  0  0  0  0  0
  159.0390  213.6550  153.5220 C   0  0  0  0  0  3  0  0  0  0  0  0
  160.3250  213.6910  151.4640 O   0  0  0  0  0  0  0  0  0  0  0  0
  161.8460  209.6700  149.3030 C   0  0  0  0  0  3  0  0  0  0  0  0
  160.5710  209.4790  151.3820 C   0  0  0  0  0  3  0  0  0  0  0  0
  161.7770  211.0020  149.2950 C   0  0  0  0  0  0  0  0  0  0  0  0
  161.7500  213.1330  148.0250 C   0  0  0  0  0  2  0  0  0  0  0  0
  162.4460  211.7850  148.2070 C   0  0  0  0  0  2  0  0  0  0  0  0
  161.2210  208.8610  150.3810 C   0  0  0  0  0  0  0  0  0  0  0  0
  161.0010  213.0440  150.4200 C   0  0  0  0  0  0  0  0  0  0  0  0
  161.0850  211.6990  150.3990 C   0  0  0  0  0  0  0  0  0  0  0  0
  161.6680  213.8790  149.3590 C   0  0  0  0  0  2  0  0  0  0  0  0
  158.4250  212.9430  154.5570 C   0  0  0  0  0  0  0  0  0  0  0  0
  158.4880  211.5410  154.5620 C   0  0  0  0  0  3  0  0  0  0  0  0
  159.7100  212.9770  152.5000 C   0  0  0  0  0  0  0  0  0  0  0  0
  159.1570  210.8590  153.5430 C   0  0  0  0  0  3  0  0  0  0  0  0
  159.7720  211.5740  152.5050 C   0  0  0  0  0  0  0  0  0  0  0  0
  161.1500  205.2210  151.6680 C   0  0  0  0  0  2  0  0  0  0  0  0
  161.0780  206.7170  149.2100 C   0  0  0  0  0  3  0  0  0  0  0  0
  161.2820  202.4480  149.0730 C   0  0  0  0  0  0  0  0  0  0  0  0
  161.2880  203.1170  150.3050 C   0  0  0  0  0  3  0  0  0  0  0  0
  161.2320  204.5120  150.3500 C   0  0  0  0  0  0  0  0  0  0  0  0
  161.1270  204.5860  147.9270 C   0  0  0  0  0  3  0  0  0  0  0  0
  161.1460  205.2480  149.1560 C   0  0  0  0  0  0  0  0  0  0  0  0
  161.1970  203.1900  147.8860 C   0  0  0  0  0  3  0  0  0  0  0  0
  161.3040  207.3810  150.3540 C   0  0  0  0  0  0  0  0  0  0  0  0
  161.7680  206.6210  151.5790 C   0  0  0  0  0  2  0  0  0  0  0  0
  161.3500  200.9780  149.0320 C   0  0  0  0  0  0  0  0  0  0  0  0
  161.1980  200.3020  150.0840 O   0  0  0  0  0  1  0  0  0  0  0  0
  161.5820  200.3210  147.8290 O   0  0  0  0  0  0  0  0  0  0  0  0
  156.3520  213.6070  155.9120 C   0  0  0  0  0  0  0  0  0  0  0  0
  155.8210  214.4450  157.0190 C   0  0  0  0  0  1  0  0  0  0  0  0
  155.5690  212.8520  155.2790 O   0  0  0  0  0  0  0  0  0  0  0  0
  157.7470  213.6760  155.5880 N   0  0  0  0  0  2  0  0  0  0  0  0
  1 17  1  0  0  0  0
  2 13  1  0  0  0  0
  3 15  1  0  0  0  0
  4  9  1  0  0  0  0
  5  1  1  0  0  0  0
  6  4  2  0  0  0  0
  6 11  1  0  0  0  0
  7  8  1  0  0  0  0
  7 12  1  0  0  0  0
  8  6  1  0  0  0  0
  9  5  2  0  0  0  0
 10  3  1  0  0  0  0
 11 10  2  0  0  0  0
 11  1  1  0  0  0  0
 12 10  1  0  0  0  0
 13 14  2  0  0  0  0
 13 34  1  0  0  0  0
 15 17  1  0  0  0  0
 15  2  2  0  0  0  0
 16 14  1  0  0  0  0
 17 16  2  0  0  0  0
 19 26  2  0  0  0  0
 20 21  1  0  0  0  0
 21 22  2  0  0  0  0
 22 18  1  0  0  0  0
 23 24  2  0  0  0  0
 24 19  1  0  0  0  0
 24 22  1  0  0  0  0
 25 23  1  0  0  0  0
 25 20  2  0  0  0  0
 26  9  1  0  0  0  0
 26 27  1  0  0  0  0
 27 18  1  0  0  0  0
 28 20  1  0  0  0  0
 28 29  1  0  0  0  0
 30 28  2  0  0  0  0
 31 32  1  0  0  0  0
 33 31  2  0  0  0  0
 34 31  1  0  0  0  0
M  END
>  <MODEL>
4

>  <REMARK>
 VINA RESULT:      -6.3      3.491      5.858
  Name = 
  3 active torsions:
  status: ('A' for Active; 'I' for Inactive)
    1  A    between atoms: C_7  and  C_11
    2  A    between atoms: C_18  and  C_30
    3  A    between atoms: C_23  and  N_25
                            x       y       z     vdW  Elec       q    Type
                         _______ _______ _______ _____ _____    ______ ____

>  <TORSDO>
F 3

$$$$
