=
 OpenBabel11052422173D

 25 28  0  0  1  0  0  0  0  0999 V2000
  161.1990  208.0110  151.0470 C   0  0  0  0  0  0  0  0  0  0  0  0
  161.3580  207.0470  150.0510 C   0  0  0  0  0  0  0  0  0  0  0  0
  162.0370  209.7360  149.6040 C   0  0  0  0  0  3  0  0  0  0  0  0
  160.6180  207.9100  152.4130 C   0  0  2  0  0  3  0  0  0  0  0  0
  160.9080  204.7890  149.0430 C   0  0  1  0  0  3  0  0  0  0  0  0
  161.1390  208.6740  155.1400 C   0  0  0  0  0  3  0  0  0  0  0  0
  162.2230  208.7980  148.6300 N   0  0  0  0  0  0  0  0  0  0  0  0
  160.7920  209.3380  152.8620 C   0  0  0  0  0  0  0  0  0  0  0  0
  160.8030  209.6550  154.2920 C   0  0  0  0  0  3  0  0  0  0  0  0
  161.0530  205.6020  150.3270 C   0  0  0  0  0  2  0  0  0  0  0  0
  161.5370  207.3320  154.6370 C   0  0  0  0  0  3  0  0  0  0  0  0
  161.5010  209.3270  150.8180 C   0  0  0  0  0  0  0  0  0  0  0  0
  161.2820  210.1360  151.9640 N   0  0  0  0  0  0  0  0  0  0  0  0
  162.0850  206.5230  147.6630 C   0  0  2  0  0  3  0  0  0  0  0  0
  161.3570  206.9890  153.3500 C   0  0  0  0  0  3  0  0  0  0  0  0
  162.0870  205.0590  148.1130 C   0  0  0  0  0  2  0  0  0  0  0  0
  161.9120  207.4770  148.8160 C   0  0  0  0  0  0  0  0  0  0  0  0
  161.1200  200.9590  148.5020 C   0  0  0  0  0  0  0  0  0  0  0  0
  161.4960  200.1450  147.4420 O   0  0  0  0  0  0  0  0  0  0  0  0
  160.7430  200.4350  149.5830 O   0  0  0  0  0  1  0  0  0  0  0  0
  160.8070  203.3330  149.3550 C   0  0  0  0  0  0  0  0  0  0  0  0
  161.1650  202.3820  148.3480 N   0  0  0  0  0  2  0  0  0  0  0  0
  160.4110  202.9550  150.4910 O   0  0  0  0  0  0  0  0  0  0  0  0
  161.0340  206.7440  146.6810 N   0  0  0  0  0  2  0  0  0  0  0  0
  161.2730  205.8240  145.5840 C   0  0  0  0  0  1  0  0  0  0  0  0
  1  4  1  0  0  0  0
  2 10  1  0  0  0  0
  2  1  2  0  0  0  0
  3 12  2  0  0  0  0
  4  8  1  0  0  0  0
  4 15  1  1  0  0  0
  5 21  1  1  0  0  0
  5 10  1  0  0  0  0
  7 17  2  0  0  0  0
  7  3  1  0  0  0  0
  8  9  1  0  0  0  0
  9  6  2  0  0  0  0
 11  6  1  0  0  0  0
 12  1  1  0  0  0  0
 12 13  1  0  0  0  0
 13  8  2  0  0  0  0
 14 24  1  6  0  0  0
 14 16  1  0  0  0  0
 14 17  1  0  0  0  0
 15 11  2  0  0  0  0
 16  5  1  0  0  0  0
 17  2  1  0  0  0  0
 18 20  1  0  0  0  0
 19 18  2  0  0  0  0
 21 23  2  0  0  0  0
 22 18  1  0  0  0  0
 22 21  1  0  0  0  0
 25 24  1  0  0  0  0
M  END
>  <MODEL>
1

>  <REMARK>
 VINA RESULT:      -9.3      0.000      0.000
  Name = 
  2 active torsions:
  status: ('A' for Active; 'I' for Inactive)
    1  A    between atoms: C_6  and  C_15
    2  A    between atoms: N_13  and  C_20
                            x       y       z     vdW  Elec       q    Type
                         _______ _______ _______ _____ _____    ______ ____

>  <TORSDO>
F 2

$$$$
=
 OpenBabel11052422173D

 25 28  0  0  1  0  0  0  0  0999 V2000
  161.2860  206.9520  150.2150 C   0  0  0  0  0  0  0  0  0  0  0  0
  161.4770  206.1410  149.0950 C   0  0  0  0  0  0  0  0  0  0  0  0
  161.9290  208.9110  148.9850 C   0  0  0  0  0  3  0  0  0  0  0  0
  160.7720  206.6280  151.5730 C   0  0  2  0  0  3  0  0  0  0  0  0
  161.1570  204.0030  147.8130 C   0  0  1  0  0  3  0  0  0  0  0  0
  161.3450  207.0740  154.3590 C   0  0  0  0  0  3  0  0  0  0  0  0
  162.1460  208.1250  147.8910 N   0  0  0  0  0  0  0  0  0  0  0  0
  160.8550  207.9970  152.2000 C   0  0  0  0  0  0  0  0  0  0  0  0
  160.9010  208.1260  153.6590 C   0  0  0  0  0  3  0  0  0  0  0  0
  161.2930  204.6520  149.1870 C   0  0  0  0  0  2  0  0  0  0  0  0
  161.8230  205.8450  153.6700 C   0  0  0  0  0  3  0  0  0  0  0  0
  161.4770  208.3070  150.1520 C   0  0  0  0  0  0  0  0  0  0  0  0
  161.2450  208.9400  151.4000 N   0  0  0  0  0  0  0  0  0  0  0  0
  162.1410  205.9900  146.6370 C   0  0  2  0  0  3  0  0  0  0  0  0
  161.6170  205.6580  152.3560 C   0  0  0  0  0  3  0  0  0  0  0  0
  162.2730  204.4850  146.8900 C   0  0  0  0  0  2  0  0  0  0  0  0
  161.9440  206.7700  147.9110 C   0  0  0  0  0  0  0  0  0  0  0  0
  161.1230  200.2910  146.7030 C   0  0  0  0  0  0  0  0  0  0  0  0
  161.0490  199.6420  145.4790 O   0  0  0  0  0  0  0  0  0  0  0  0
  161.1990  199.6130  147.7610 O   0  0  0  0  0  1  0  0  0  0  0  0
  161.1810  202.5150  147.9330 C   0  0  0  0  0  0  0  0  0  0  0  0
  161.1110  201.7220  146.7430 N   0  0  0  0  0  2  0  0  0  0  0  0
  161.2620  201.9730  149.0690 O   0  0  0  0  0  0  0  0  0  0  0  0
  161.0370  206.2500  145.7270 N   0  0  0  0  0  2  0  0  0  0  0  0
  161.3150  205.5280  144.4980 C   0  0  0  0  0  1  0  0  0  0  0  0
  1  4  1  0  0  0  0
  2 10  1  0  0  0  0
  2  1  2  0  0  0  0
  3 12  2  0  0  0  0
  4  8  1  0  0  0  0
  4 15  1  1  0  0  0
  5 21  1  1  0  0  0
  5 10  1  0  0  0  0
  7 17  2  0  0  0  0
  7  3  1  0  0  0  0
  8  9  1  0  0  0  0
  9  6  2  0  0  0  0
 11  6  1  0  0  0  0
 12  1  1  0  0  0  0
 12 13  1  0  0  0  0
 13  8  2  0  0  0  0
 14 24  1  6  0  0  0
 14 16  1  0  0  0  0
 14 17  1  0  0  0  0
 15 11  2  0  0  0  0
 16  5  1  0  0  0  0
 17  2  1  0  0  0  0
 18 22  1  0  0  0  0
 18 20  1  0  0  0  0
 19 18  2  0  0  0  0
 21 23  2  0  0  0  0
 22 21  1  0  0  0  0
 25 24  1  0  0  0  0
M  END
>  <MODEL>
2

>  <REMARK>
 VINA RESULT:      -9.1      1.272      1.532
  Name = 
  2 active torsions:
  status: ('A' for Active; 'I' for Inactive)
    1  A    between atoms: C_6  and  C_15
    2  A    between atoms: N_13  and  C_20
                            x       y       z     vdW  Elec       q    Type
                         _______ _______ _______ _____ _____    ______ ____

>  <TORSDO>
F 2

$$$$
=
 OpenBabel11052422173D

 25 28  0  0  1  0  0  0  0  0999 V2000
  161.3570  205.0320  149.1400 C   0  0  0  0  0  0  0  0  0  0  0  0
  161.2690  206.0730  150.0650 C   0  0  0  0  0  0  0  0  0  0  0  0
  161.4010  206.5810  147.3060 C   0  0  0  0  0  3  0  0  0  0  0  0
  161.4790  203.5630  149.3380 C   0  0  2  0  0  3  0  0  0  0  0  0
  161.4450  207.0050  152.3930 C   0  0  1  0  0  3  0  0  0  0  0  0
  160.3920  201.0690  148.3950 C   0  0  0  0  0  3  0  0  0  0  0  0
  161.2870  207.6060  148.1990 N   0  0  0  0  0  0  0  0  0  0  0  0
  161.5250  203.1230  147.8970 C   0  0  0  0  0  0  0  0  0  0  0  0
  161.1790  201.7430  147.5470 C   0  0  0  0  0  3  0  0  0  0  0  0
  161.1330  205.7830  151.5340 C   0  0  0  0  0  2  0  0  0  0  0  0
  159.8510  201.7220  149.6180 C   0  0  0  0  0  3  0  0  0  0  0  0
  161.4530  205.2820  147.7960 C   0  0  0  0  0  0  0  0  0  0  0  0
  161.5170  204.0890  147.0310 N   0  0  0  0  0  0  0  0  0  0  0  0
  161.1580  208.5890  150.4670 C   0  0  2  0  0  3  0  0  0  0  0  0
  160.3070  202.9170  150.0290 C   0  0  0  0  0  3  0  0  0  0  0  0
  160.6820  208.2210  151.8760 C   0  0  0  0  0  2  0  0  0  0  0  0
  161.2120  207.3950  149.5510 C   0  0  0  0  0  0  0  0  0  0  0  0
  160.4060  207.7390  156.0520 C   0  0  0  0  0  0  0  0  0  0  0  0
  160.0840  208.8880  156.7610 O   0  0  0  0  0  1  0  0  0  0  0  0
  160.3890  206.6240  156.6370 O   0  0  0  0  0  0  0  0  0  0  0  0
  161.1050  206.7390  153.8220 C   0  0  0  0  0  0  0  0  0  0  0  0
  160.7540  207.8400  154.6670 N   0  0  0  0  0  2  0  0  0  0  0  0
  161.1300  205.5610  154.2700 O   0  0  0  0  0  0  0  0  0  0  0  0
  162.4680  209.2190  150.5310 N   0  0  0  0  0  2  0  0  0  0  0  0
  162.3940  210.2610  151.5390 C   0  0  0  0  0  1  0  0  0  0  0  0
  1  4  1  0  0  0  0
  1  2  1  0  0  0  0
  2 10  1  0  0  0  0
  3 12  1  0  0  0  0
  3  7  2  0  0  0  0
  4 15  1  6  0  0  0
  5 21  1  1  0  0  0
  6 11  1  0  0  0  0
  7 17  1  0  0  0  0
  8  4  1  0  0  0  0
  9  8  1  0  0  0  0
  9  6  2  0  0  0  0
 10  5  1  0  0  0  0
 11 15  2  0  0  0  0
 12  1  2  0  0  0  0
 13 12  1  0  0  0  0
 13  8  2  0  0  0  0
 14 24  1  1  0  0  0
 14 16  1  0  0  0  0
 16  5  1  0  0  0  0
 17  2  2  0  0  0  0
 17 14  1  0  0  0  0
 18 20  2  0  0  0  0
 18 19  1  0  0  0  0
 21 23  2  0  0  0  0
 21 22  1  0  0  0  0
 22 18  1  0  0  0  0
 24 25  1  0  0  0  0
M  END
>  <MODEL>
3

>  <REMARK>
 VINA RESULT:      -9.0      2.767      6.720
  Name = 
  2 active torsions:
  status: ('A' for Active; 'I' for Inactive)
    1  A    between atoms: C_6  and  C_15
    2  A    between atoms: N_13  and  C_20
                            x       y       z     vdW  Elec       q    Type
                         _______ _______ _______ _____ _____    ______ ____

>  <TORSDO>
F 2

$$$$
=
 OpenBabel11052422173D

 25 28  0  0  1  0  0  0  0  0999 V2000
  161.0630  205.7270  150.5750 C   0  0  0  0  0  0  0  0  0  0  0  0
  161.0390  206.6700  151.6020 C   0  0  0  0  0  0  0  0  0  0  0  0
  161.5480  203.9580  152.1240 C   0  0  0  0  0  3  0  0  0  0  0  0
  160.7750  205.8640  149.1220 C   0  0  2  0  0  3  0  0  0  0  0  0
  160.4470  208.9250  152.5420 C   0  0  1  0  0  3  0  0  0  0  0  0
  161.8210  205.1250  146.5420 C   0  0  0  0  0  3  0  0  0  0  0  0
  161.5540  204.8760  153.1330 N   0  0  0  0  0  0  0  0  0  0  0  0
  161.0030  204.4380  148.6890 C   0  0  0  0  0  0  0  0  0  0  0  0
  161.2960  204.1420  147.2850 C   0  0  0  0  0  3  0  0  0  0  0  0
  160.8310  208.1280  151.2990 C   0  0  0  0  0  2  0  0  0  0  0  0
  162.1410  206.4480  147.1430 C   0  0  0  0  0  3  0  0  0  0  0  0
  161.2800  204.3990  150.8340 C   0  0  0  0  0  0  0  0  0  0  0  0
  161.2800  203.6140  149.6520 N   0  0  0  0  0  0  0  0  0  0  0  0
  161.2770  207.1390  154.0980 C   0  0  2  0  0  3  0  0  0  0  0  0
  161.7110  206.7770  148.3730 C   0  0  0  0  0  3  0  0  0  0  0  0
  161.4060  208.6090  153.6870 C   0  0  0  0  0  2  0  0  0  0  0  0
  161.3190  206.2080  152.9150 C   0  0  0  0  0  0  0  0  0  0  0  0
  159.1870  212.5870  152.4400 C   0  0  0  0  0  0  0  0  0  0  0  0
  158.0460  213.2360  152.8890 O   0  0  0  0  0  1  0  0  0  0  0  0
  160.0830  213.2450  151.8480 O   0  0  0  0  0  0  0  0  0  0  0  0
  160.4480  210.3880  152.2450 C   0  0  0  0  0  0  0  0  0  0  0  0
  159.3270  211.1780  152.6550 N   0  0  0  0  0  2  0  0  0  0  0  0
  161.4230  210.9110  151.6420 O   0  0  0  0  0  0  0  0  0  0  0  0
  160.0430  206.9330  154.8410 N   0  0  0  0  0  2  0  0  0  0  0  0
  160.3000  207.3270  156.2140 C   0  0  0  0  0  1  0  0  0  0  0  0
  1 12  2  0  0  0  0
  1  2  1  0  0  0  0
  2 17  2  0  0  0  0
  3  7  2  0  0  0  0
  4 15  1  6  0  0  0
  4  1  1  0  0  0  0
  5 21  1  6  0  0  0
  5 16  1  0  0  0  0
  6 11  1  0  0  0  0
  6  9  2  0  0  0  0
  8  4  1  0  0  0  0
  8 13  2  0  0  0  0
  9  8  1  0  0  0  0
 10  2  1  0  0  0  0
 10  5  1  0  0  0  0
 11 15  2  0  0  0  0
 12  3  1  0  0  0  0
 13 12  1  0  0  0  0
 14 24  1  6  0  0  0
 16 14  1  0  0  0  0
 17  7  1  0  0  0  0
 17 14  1  0  0  0  0
 18 22  1  0  0  0  0
 18 19  1  0  0  0  0
 20 18  2  0  0  0  0
 21 22  1  0  0  0  0
 23 21  2  0  0  0  0
 24 25  1  0  0  0  0
M  END
>  <MODEL>
4

>  <REMARK>
 VINA RESULT:      -8.5      4.029      7.870
  Name = 
  2 active torsions:
  status: ('A' for Active; 'I' for Inactive)
    1  A    between atoms: C_6  and  C_15
    2  A    between atoms: N_13  and  C_20
                            x       y       z     vdW  Elec       q    Type
                         _______ _______ _______ _____ _____    ______ ____

>  <TORSDO>
F 2

$$$$
=
 OpenBabel11052422173D

 25 28  0  0  1  0  0  0  0  0999 V2000
  161.0440  205.4800  150.6570 C   0  0  0  0  0  0  0  0  0  0  0  0
  161.3680  206.8020  150.9640 C   0  0  0  0  0  0  0  0  0  0  0  0
  161.2040  204.8370  152.9640 C   0  0  0  0  0  3  0  0  0  0  0  0
  160.6590  204.8480  149.3660 C   0  0  2  0  0  3  0  0  0  0  0  0
  161.4780  209.2530  150.4180 C   0  0  1  0  0  3  0  0  0  0  0  0
  161.2160  202.5390  147.7380 C   0  0  0  0  0  3  0  0  0  0  0  0
  161.5490  206.1210  153.2730 N   0  0  0  0  0  0  0  0  0  0  0  0
  160.4640  203.4290  149.8350 C   0  0  0  0  0  0  0  0  0  0  0  0
  160.5300  202.3290  148.8690 C   0  0  0  0  0  3  0  0  0  0  0  0
  161.5160  207.8270  149.8750 C   0  0  0  0  0  2  0  0  0  0  0  0
  161.9260  203.8260  147.5040 C   0  0  0  0  0  3  0  0  0  0  0  0
  160.9330  204.5290  151.6370 C   0  0  0  0  0  0  0  0  0  0  0  0
  160.6120  203.2510  151.1110 N   0  0  0  0  0  0  0  0  0  0  0  0
  161.9660  208.5070  152.7640 C   0  0  2  0  0  3  0  0  0  0  0  0
  161.7200  204.8900  148.2980 C   0  0  0  0  0  3  0  0  0  0  0  0
  162.4300  209.3910  151.6030 C   0  0  0  0  0  2  0  0  0  0  0  0
  161.6470  207.1020  152.3230 C   0  0  0  0  0  0  0  0  0  0  0  0
  161.8640  212.6710  148.6350 C   0  0  0  0  0  0  0  0  0  0  0  0
  161.5750  213.9850  148.9760 O   0  0  0  0  0  1  0  0  0  0  0  0
  162.3690  212.4190  147.5090 O   0  0  0  0  0  0  0  0  0  0  0  0
  161.8280  210.2300  149.3450 C   0  0  0  0  0  0  0  0  0  0  0  0
  161.5810  211.6220  149.5680 N   0  0  0  0  0  2  0  0  0  0  0  0
  162.3330  209.8270  148.2620 O   0  0  0  0  0  0  0  0  0  0  0  0
  160.8010  209.0960  153.4070 N   0  0  0  0  0  2  0  0  0  0  0  0
  161.2480  210.3010  154.0820 C   0  0  0  0  0  1  0  0  0  0  0  0
  1  2  2  0  0  0  0
  1 12  1  0  0  0  0
  2 17  1  0  0  0  0
  3  7  1  0  0  0  0
  4 15  1  6  0  0  0
  4  8  1  0  0  0  0
  4  1  1  0  0  0  0
  5 21  1  6  0  0  0
  5 16  1  0  0  0  0
  6  9  2  0  0  0  0
  8 13  2  0  0  0  0
  9  8  1  0  0  0  0
 10  5  1  0  0  0  0
 10  2  1  0  0  0  0
 11  6  1  0  0  0  0
 11 15  2  0  0  0  0
 12  3  2  0  0  0  0
 13 12  1  0  0  0  0
 14 24  1  6  0  0  0
 16 14  1  0  0  0  0
 17 14  1  0  0  0  0
 17  7  2  0  0  0  0
 18 19  1  0  0  0  0
 18 22  1  0  0  0  0
 20 18  2  0  0  0  0
 21 22  1  0  0  0  0
 23 21  2  0  0  0  0
 24 25  1  0  0  0  0
M  END
>  <MODEL>
5

>  <REMARK>
 VINA RESULT:      -8.5      3.760      7.470
  Name = 
  2 active torsions:
  status: ('A' for Active; 'I' for Inactive)
    1  A    between atoms: C_6  and  C_15
    2  A    between atoms: N_13  and  C_20
                            x       y       z     vdW  Elec       q    Type
                         _______ _______ _______ _____ _____    ______ ____

>  <TORSDO>
F 2

$$$$
=
 OpenBabel11052422173D

 25 28  0  0  1  0  0  0  0  0999 V2000
  161.3670  206.4310  149.4360 C   0  0  0  0  0  0  0  0  0  0  0  0
  161.5710  207.7410  149.8710 C   0  0  0  0  0  0  0  0  0  0  0  0
  161.3190  205.6210  151.6960 C   0  0  0  0  0  3  0  0  0  0  0  0
  161.1650  205.8810  148.0690 C   0  0  2  0  0  3  0  0  0  0  0  0
  161.5810  210.2300  149.5160 C   0  0  1  0  0  3  0  0  0  0  0  0
  162.0420  203.7400  146.3550 C   0  0  0  0  0  3  0  0  0  0  0  0
  161.5450  206.8940  152.1320 N   0  0  0  0  0  0  0  0  0  0  0  0
  161.0130  204.4200  148.4110 C   0  0  0  0  0  0  0  0  0  0  0  0
  161.2530  203.4040  147.3840 C   0  0  0  0  0  3  0  0  0  0  0  0
  161.7690  208.8550  148.8810 C   0  0  0  0  0  2  0  0  0  0  0  0
  162.6890  205.0780  146.2930 C   0  0  0  0  0  3  0  0  0  0  0  0
  161.2130  205.4020  150.3280 C   0  0  0  0  0  0  0  0  0  0  0  0
  161.0340  204.1530  149.6800 N   0  0  0  0  0  0  0  0  0  0  0  0
  161.8600  209.3320  151.8430 C   0  0  2  0  0  3  0  0  0  0  0  0
  162.3310  206.0640  147.1330 C   0  0  0  0  0  3  0  0  0  0  0  0
  162.3890  210.3290  150.8070 C   0  0  0  0  0  2  0  0  0  0  0  0
  161.6820  207.9510  151.2710 C   0  0  0  0  0  0  0  0  0  0  0  0
  161.2870  212.7490  146.5880 C   0  0  0  0  0  0  0  0  0  0  0  0
  160.2900  213.0710  145.6780 O   0  0  0  0  0  0  0  0  0  0  0  0
  162.3900  213.3550  146.5400 O   0  0  0  0  0  1  0  0  0  0  0  0
  161.9810  211.3050  148.5610 C   0  0  0  0  0  0  0  0  0  0  0  0
  161.0450  211.7330  147.5670 N   0  0  0  0  0  2  0  0  0  0  0  0
  163.1290  211.8230  148.6360 O   0  0  0  0  0  0  0  0  0  0  0  0
  160.5970  209.8040  152.3910 N   0  0  0  0  0  2  0  0  0  0  0  0
  160.9140  210.6910  153.4950 C   0  0  0  0  0  1  0  0  0  0  0  0
  1  2  2  0  0  0  0
  1 12  1  0  0  0  0
  2 17  1  0  0  0  0
  3  7  1  0  0  0  0
  4 15  1  6  0  0  0
  4  8  1  0  0  0  0
  4  1  1  0  0  0  0
  5 21  1  6  0  0  0
  5 16  1  0  0  0  0
  6  9  2  0  0  0  0
  8 13  2  0  0  0  0
  9  8  1  0  0  0  0
 10  5  1  0  0  0  0
 10  2  1  0  0  0  0
 11  6  1  0  0  0  0
 11 15  2  0  0  0  0
 12  3  2  0  0  0  0
 13 12  1  0  0  0  0
 14 24  1  6  0  0  0
 16 14  1  0  0  0  0
 17 14  1  0  0  0  0
 17  7  2  0  0  0  0
 18 22  1  0  0  0  0
 19 18  2  0  0  0  0
 20 18  1  0  0  0  0
 21 23  2  0  0  0  0
 22 21  1  0  0  0  0
 24 25  1  0  0  0  0
M  END
>  <MODEL>
6

>  <REMARK>
 VINA RESULT:      -8.5      4.229      7.613
  Name = 
  2 active torsions:
  status: ('A' for Active; 'I' for Inactive)
    1  A    between atoms: C_6  and  C_15
    2  A    between atoms: N_13  and  C_20
                            x       y       z     vdW  Elec       q    Type
                         _______ _______ _______ _____ _____    ______ ____

>  <TORSDO>
F 2

$$$$
=
 OpenBabel11052422173D

 25 28  0  0  1  0  0  0  0  0999 V2000
  161.2060  204.9890  149.7530 C   0  0  0  0  0  0  0  0  0  0  0  0
  161.3170  206.0220  150.6840 C   0  0  0  0  0  0  0  0  0  0  0  0
  161.4480  203.3300  151.4710 C   0  0  0  0  0  3  0  0  0  0  0  0
  160.9350  205.0220  148.2910 C   0  0  2  0  0  3  0  0  0  0  0  0
  161.0460  208.4180  151.3950 C   0  0  1  0  0  3  0  0  0  0  0  0
  161.8590  203.8990  145.8060 C   0  0  0  0  0  3  0  0  0  0  0  0
  161.5850  204.3320  152.3870 N   0  0  0  0  0  0  0  0  0  0  0  0
  160.9610  203.5430  148.0010 C   0  0  0  0  0  0  0  0  0  0  0  0
  161.2060  203.0740  146.6350 C   0  0  0  0  0  3  0  0  0  0  0  0
  161.3110  207.4580  150.2390 C   0  0  0  0  0  2  0  0  0  0  0  0
  162.3600  205.2170  146.2780 C   0  0  0  0  0  3  0  0  0  0  0  0
  161.2390  203.6760  150.1420 C   0  0  0  0  0  0  0  0  0  0  0  0
  161.1260  202.7870  149.0420 N   0  0  0  0  0  0  0  0  0  0  0  0
  161.6270  206.6950  153.1240 C   0  0  2  0  0  3  0  0  0  0  0  0
  161.9850  205.7200  147.4660 C   0  0  0  0  0  3  0  0  0  0  0  0
  161.9560  208.0860  152.5740 C   0  0  0  0  0  2  0  0  0  0  0  0
  161.5360  205.6560  152.0380 C   0  0  0  0  0  0  0  0  0  0  0  0
  162.1100  211.3800  149.1350 C   0  0  0  0  0  0  0  0  0  0  0  0
  162.7050  211.4850  147.8860 O   0  0  0  0  0  0  0  0  0  0  0  0
  161.8030  212.4250  149.7670 O   0  0  0  0  0  1  0  0  0  0  0  0
  161.2470  209.8310  150.9570 C   0  0  0  0  0  0  0  0  0  0  0  0
  161.8530  210.0830  149.6850 N   0  0  0  0  0  2  0  0  0  0  0  0
  160.8870  210.7820  151.7030 O   0  0  0  0  0  0  0  0  0  0  0  0
  160.3800  206.7350  153.8720 N   0  0  0  0  0  2  0  0  0  0  0  0
  160.6550  207.4070  155.1290 C   0  0  0  0  0  1  0  0  0  0  0  0
  1 12  2  0  0  0  0
  1  2  1  0  0  0  0
  2 17  2  0  0  0  0
  3  7  2  0  0  0  0
  4 15  1  6  0  0  0
  4  1  1  0  0  0  0
  5 21  1  6  0  0  0
  5 16  1  0  0  0  0
  6 11  1  0  0  0  0
  6  9  2  0  0  0  0
  8  4  1  0  0  0  0
  8 13  2  0  0  0  0
  9  8  1  0  0  0  0
 10  2  1  0  0  0  0
 10  5  1  0  0  0  0
 11 15  2  0  0  0  0
 12  3  1  0  0  0  0
 13 12  1  0  0  0  0
 14 24  1  6  0  0  0
 16 14  1  0  0  0  0
 17  7  1  0  0  0  0
 17 14  1  0  0  0  0
 18 22  1  0  0  0  0
 18 20  1  0  0  0  0
 19 18  2  0  0  0  0
 21 23  2  0  0  0  0
 22 21  1  0  0  0  0
 24 25  1  0  0  0  0
M  END
>  <MODEL>
7

>  <REMARK>
 VINA RESULT:      -8.1      3.827      7.455
  Name = 
  2 active torsions:
  status: ('A' for Active; 'I' for Inactive)
    1  A    between atoms: C_6  and  C_15
    2  A    between atoms: N_13  and  C_20
                            x       y       z     vdW  Elec       q    Type
                         _______ _______ _______ _____ _____    ______ ____

>  <TORSDO>
F 2

$$$$
=
 OpenBabel11052422173D

 25 28  0  0  1  0  0  0  0  0999 V2000
  161.4100  204.6230  148.3640 C   0  0  0  0  0  0  0  0  0  0  0  0
  161.3520  205.7480  149.1870 C   0  0  0  0  0  0  0  0  0  0  0  0
  161.3110  205.9840  146.3890 C   0  0  0  0  0  3  0  0  0  0  0  0
  161.5770  203.1830  148.6970 C   0  0  2  0  0  3  0  0  0  0  0  0
  161.6440  206.9080  151.3980 C   0  0  1  0  0  3  0  0  0  0  0  0
  160.4920  200.5900  148.0690 C   0  0  0  0  0  3  0  0  0  0  0  0
  161.2270  207.0900  147.1840 N   0  0  0  0  0  0  0  0  0  0  0  0
  161.5480  202.6030  147.3050 C   0  0  0  0  0  0  0  0  0  0  0  0
  161.2130  201.1900  147.1130 C   0  0  0  0  0  3  0  0  0  0  0  0
  161.3090  205.6020  150.6830 C   0  0  0  0  0  2  0  0  0  0  0  0
  160.0100  201.3510  149.2530 C   0  0  0  0  0  3  0  0  0  0  0  0
  161.4210  204.7410  146.9990 C   0  0  0  0  0  0  0  0  0  0  0  0
  161.4670  203.4790  146.3520 N   0  0  0  0  0  0  0  0  0  0  0  0
  161.2080  208.2890  149.3490 C   0  0  2  0  0  3  0  0  0  0  0  0
  160.4620  202.5880  149.5180 C   0  0  0  0  0  3  0  0  0  0  0  0
  160.8240  208.0540  150.8130 C   0  0  0  0  0  2  0  0  0  0  0  0
  161.2350  207.0120  148.5510 C   0  0  0  0  0  0  0  0  0  0  0  0
  160.7680  207.9740  155.0180 C   0  0  0  0  0  0  0  0  0  0  0  0
  160.4290  209.1760  155.6230 O   0  0  0  0  0  0  0  0  0  0  0  0
  160.8370  206.9270  155.7140 O   0  0  0  0  0  1  0  0  0  0  0  0
  161.3950  206.7780  152.8650 C   0  0  0  0  0  0  0  0  0  0  0  0
  161.0360  207.9450  153.6120 N   0  0  0  0  0  2  0  0  0  0  0  0
  161.5020  205.6550  153.4280 O   0  0  0  0  0  0  0  0  0  0  0  0
  162.5050  208.9440  149.2710 N   0  0  0  0  0  2  0  0  0  0  0  0
  162.3260  210.3060  149.7410 C   0  0  0  0  0  1  0  0  0  0  0  0
  1  4  1  0  0  0  0
  1  2  1  0  0  0  0
  2 10  1  0  0  0  0
  3 12  1  0  0  0  0
  3  7  2  0  0  0  0
  4 15  1  1  0  0  0
  5 21  1  1  0  0  0
  6 11  1  0  0  0  0
  7 17  1  0  0  0  0
  8  4  1  0  0  0  0
  9  8  1  0  0  0  0
  9  6  2  0  0  0  0
 10  5  1  0  0  0  0
 11 15  2  0  0  0  0
 12  1  2  0  0  0  0
 13 12  1  0  0  0  0
 13  8  2  0  0  0  0
 14 24  1  1  0  0  0
 14 16  1  0  0  0  0
 16  5  1  0  0  0  0
 17  2  2  0  0  0  0
 17 14  1  0  0  0  0
 18 19  2  0  0  0  0
 18 20  1  0  0  0  0
 21 23  2  0  0  0  0
 21 22  1  0  0  0  0
 22 18  1  0  0  0  0
 24 25  1  0  0  0  0
M  END
>  <MODEL>
8

>  <REMARK>
 VINA RESULT:      -7.9      2.560      6.718
  Name = 
  2 active torsions:
  status: ('A' for Active; 'I' for Inactive)
    1  A    between atoms: C_6  and  C_15
    2  A    between atoms: N_13  and  C_20
                            x       y       z     vdW  Elec       q    Type
                         _______ _______ _______ _____ _____    ______ ____

>  <TORSDO>
F 2

$$$$
=
 OpenBabel11052422173D

 25 28  0  0  1  0  0  0  0  0999 V2000
  161.3840  205.0960  151.2620 C   0  0  0  0  0  0  0  0  0  0  0  0
  161.1830  204.2040  150.2080 C   0  0  0  0  0  0  0  0  0  0  0  0
  160.6490  203.4670  152.8650 C   0  0  0  0  0  3  0  0  0  0  0  0
  161.9460  206.4730  151.2760 C   0  0  2  0  0  3  0  0  0  0  0  0
  161.5240  203.4460  147.8360 C   0  0  1  0  0  3  0  0  0  0  0  0
  161.4430  209.0970  152.3510 C   0  0  0  0  0  3  0  0  0  0  0  0
  160.4230  202.5950  151.8400 N   0  0  0  0  0  0  0  0  0  0  0  0
  161.8430  206.7660  152.7510 C   0  0  0  0  0  0  0  0  0  0  0  0
  161.8370  208.1550  153.2180 C   0  0  0  0  0  3  0  0  0  0  0  0
  161.4100  204.6350  148.7860 C   0  0  0  0  0  2  0  0  0  0  0  0
  160.9800  208.7320  150.9850 C   0  0  0  0  0  3  0  0  0  0  0  0
  161.1530  204.7250  152.5610 C   0  0  0  0  0  0  0  0  0  0  0  0
  161.4030  205.7820  153.4730 N   0  0  0  0  0  0  0  0  0  0  0  0
  160.4500  201.8750  149.4720 C   0  0  2  0  0  3  0  0  0  0  0  0
  161.1530  207.4910  150.4990 C   0  0  0  0  0  3  0  0  0  0  0  0
  160.3680  202.4760  148.0660 C   0  0  0  0  0  2  0  0  0  0  0  0
  160.6630  202.9230  150.5320 C   0  0  0  0  0  0  0  0  0  0  0  0
  160.9350  205.7660  144.7890 C   0  0  0  0  0  0  0  0  0  0  0  0
  160.3620  207.0180  144.6160 O   0  0  0  0  0  1  0  0  0  0  0  0
  161.4010  205.1530  143.7920 O   0  0  0  0  0  0  0  0  0  0  0  0
  161.5460  203.9110  146.4170 C   0  0  0  0  0  0  0  0  0  0  0  0
  160.9850  205.1900  146.0990 N   0  0  0  0  0  2  0  0  0  0  0  0
  162.0510  203.1840  145.5200 O   0  0  0  0  0  0  0  0  0  0  0  0
  161.5190  200.8900  149.5330 N   0  0  0  0  0  2  0  0  0  0  0  0
  161.5930  200.2560  148.2290 C   0  0  0  0  0  1  0  0  0  0  0  0
  1  4  1  0  0  0  0
  1 12  1  0  0  0  0
  2 17  1  0  0  0  0
  2  1  2  0  0  0  0
  4 15  1  6  0  0  0
  4  8  1  0  0  0  0
  5 21  1  6  0  0  0
  5 16  1  0  0  0  0
  5 10  1  0  0  0  0
  6  9  2  0  0  0  0
  7  3  1  0  0  0  0
  8  9  1  0  0  0  0
  8 13  2  0  0  0  0
 10  2  1  0  0  0  0
 11  6  1  0  0  0  0
 12  3  2  0  0  0  0
 12 13  1  0  0  0  0
 14 24  1  6  0  0  0
 14 17  1  0  0  0  0
 15 11  2  0  0  0  0
 16 14  1  0  0  0  0
 17  7  2  0  0  0  0
 18 22  1  0  0  0  0
 19 18  1  0  0  0  0
 20 18  2  0  0  0  0
 22 21  1  0  0  0  0
 23 21  2  0  0  0  0
 25 24  1  0  0  0  0
M  END
>  <MODEL>
9

>  <REMARK>
 VINA RESULT:      -7.2      2.718      4.756
  Name = 
  2 active torsions:
  status: ('A' for Active; 'I' for Inactive)
    1  A    between atoms: C_6  and  C_15
    2  A    between atoms: N_13  and  C_20
                            x       y       z     vdW  Elec       q    Type
                         _______ _______ _______ _____ _____    ______ ____

>  <TORSDO>
F 2

$$$$
