=
 OpenBabel11052423223D

 27 30  0  0  1  0  0  0  0  0999 V2000
  161.1860  205.9820  151.3750 C   0  0  2  0  0  3  0  0  0  0  0  0
  161.4120  205.9950  152.8700 C   0  0  0  0  0  2  0  0  0  0  0  0
  160.6240  208.1580  152.2300 N   0  0  1  0  0  0  0  0  0  0  0  0
  161.0350  209.5070  152.0990 N   0  0  0  0  0  2  0  0  0  0  0  0
  160.6870  207.3690  150.9750 C   0  0  1  0  0  3  0  0  0  0  0  0
  161.4660  207.4660  153.2050 C   0  0  1  0  0  3  0  0  0  0  0  0
  162.4040  208.9110  150.2030 N   0  0  0  0  0  0  0  0  0  0  0  0
  161.6120  207.9300  149.9130 C   0  0  0  0  0  0  0  0  0  0  0  0
  162.2670  209.5650  151.4290 N   0  0  0  0  0  2  0  0  0  0  0  0
  160.9900  209.0250  156.6890 C   0  0  0  0  0  3  0  0  0  0  0  0
  160.1300  208.0870  157.2610 C   0  0  0  0  0  3  0  0  0  0  0  0
  160.1960  206.7910  155.2230 C   0  0  0  0  0  3  0  0  0  0  0  0
  161.0660  207.7210  154.6360 C   0  0  0  0  0  0  0  0  0  0  0  0
  159.7330  206.9700  156.5270 C   0  0  0  0  0  3  0  0  0  0  0  0
  161.4650  208.8580  155.3770 C   0  0  0  0  0  0  0  0  0  0  0  0
  163.0240  210.7720  155.5880 C   0  0  0  0  0  1  0  0  0  0  0  0
  162.3300  209.8020  154.8130 O   0  0  0  0  0  0  0  0  0  0  0  0
  161.6720  207.3280  148.5690 C   0  0  0  0  0  0  0  0  0  0  0  0
  162.7680  207.2710  147.9490 O   0  0  0  0  0  0  0  0  0  0  0  0
  160.4940  206.8240  147.9470 N   0  0  0  0  0  1  0  0  0  0  0  0
  160.3540  204.8560  150.9130 N   0  0  0  0  0  2  0  0  0  0  0  0
  161.6820  201.2940  148.9510 C   0  0  0  0  0  2  0  0  0  0  0  0
  161.0720  203.7170  150.3220 C   0  0  1  0  0  3  0  0  0  0  0  0
  160.7580  202.3790  150.9560 C   0  0  0  0  0  3  0  0  0  0  0  0
  161.0550  201.2420  150.3150 C   0  0  0  0  0  3  0  0  0  0  0  0
  160.9810  202.3670  148.1210 C   0  0  0  0  0  2  0  0  0  0  0  0
  161.1290  203.7510  148.7770 C   0  0  0  0  0  2  0  0  0  0  0  0
  1 21  1  1  0  0  0
  1  2  1  0  0  0  0
  2  6  1  0  0  0  0
  3  4  1  6  0  0  0
  3  6  1  0  0  0  0
  5  8  1  6  0  0  0
  5  1  1  0  0  0  0
  5  3  1  0  0  0  0
  6 13  1  1  0  0  0
  7  9  1  0  0  0  0
  8  7  2  0  0  0  0
  9  4  1  0  0  0  0
 10 11  1  0  0  0  0
 12 14  1  0  0  0  0
 13 12  2  0  0  0  0
 13 15  1  0  0  0  0
 14 11  2  0  0  0  0
 15 10  2  0  0  0  0
 17 15  1  0  0  0  0
 17 16  1  0  0  0  0
 18  8  1  0  0  0  0
 19 18  2  0  0  0  0
 20 18  1  0  0  0  0
 22 25  1  0  0  0  0
 23 21  1  6  0  0  0
 23 24  1  0  0  0  0
 25 24  2  0  0  0  0
 26 27  1  0  0  0  0
 26 22  1  0  0  0  0
 27 23  1  0  0  0  0
M  END
>  <MODEL>
1

>  <REMARK>
 VINA RESULT:      -8.1      0.000      0.000
  Name = 
  5 active torsions:
  status: ('A' for Active; 'I' for Inactive)
    1  A    between atoms: C_1  and  N_15
    2  A    between atoms: C_9  and  N_15
    3  A    between atoms: C_10  and  C_24
    4  A    between atoms: C_14  and  C_19
    5  A    between atoms: C_17  and  O_21
                            x       y       z     vdW  Elec       q    Type
                         _______ _______ _______ _____ _____    ______ ____

>  <TORSDO>
F 5

$$$$
=
 OpenBabel11052423223D

 27 30  0  0  1  0  0  0  0  0999 V2000
  161.2580  207.0530  151.4380 C   0  0  2  0  0  3  0  0  0  0  0  0
  160.5960  205.7290  151.1320 C   0  0  0  0  0  2  0  0  0  0  0  0
  162.2710  206.1110  149.4720 N   0  0  1  0  0  0  0  0  0  0  0  0
  162.4400  206.4080  148.0970 N   0  0  0  0  0  2  0  0  0  0  0  0
  162.3250  207.2900  150.3700 C   0  0  1  0  0  3  0  0  0  0  0  0
  160.9760  205.4690  149.6930 C   0  0  1  0  0  3  0  0  0  0  0  0
  161.6180  208.6450  148.4760 N   0  0  0  0  0  0  0  0  0  0  0  0
  162.0480  208.6190  149.6950 C   0  0  0  0  0  0  0  0  0  0  0  0
  161.5900  207.4640  147.7330 N   0  0  0  0  0  2  0  0  0  0  0  0
  161.1380  202.0720  147.8980 C   0  0  0  0  0  3  0  0  0  0  0  0
  161.0520  201.2120  148.9930 C   0  0  0  0  0  3  0  0  0  0  0  0
  160.8920  203.1180  150.4700 C   0  0  0  0  0  3  0  0  0  0  0  0
  160.9700  203.9950  149.3790 C   0  0  0  0  0  0  0  0  0  0  0  0
  160.9290  201.7360  150.2800 C   0  0  0  0  0  3  0  0  0  0  0  0
  161.1010  203.4660  148.0740 C   0  0  0  0  0  0  0  0  0  0  0  0
  161.5080  203.8600  145.6620 C   0  0  0  0  0  1  0  0  0  0  0  0
  161.1850  204.3200  146.9690 O   0  0  0  0  0  0  0  0  0  0  0  0
  162.2000  209.8860  150.4340 C   0  0  0  0  0  0  0  0  0  0  0  0
  162.8180  209.9080  151.5320 O   0  0  0  0  0  0  0  0  0  0  0  0
  161.6340  211.0920  149.9300 N   0  0  0  0  0  1  0  0  0  0  0  0
  161.7260  207.1710  152.8310 N   0  0  0  0  0  2  0  0  0  0  0  0
  159.6080  208.8650  156.1400 C   0  0  0  0  0  2  0  0  0  0  0  0
  160.7730  207.7510  153.7900 C   0  0  1  0  0  3  0  0  0  0  0  0
  160.4720  206.8730  154.9850 C   0  0  0  0  0  3  0  0  0  0  0  0
  159.9150  207.3960  156.0840 C   0  0  0  0  0  3  0  0  0  0  0  0
  160.7830  209.6420  155.5490 C   0  0  0  0  0  2  0  0  0  0  0  0
  161.0160  209.2500  154.0800 C   0  0  0  0  0  2  0  0  0  0  0  0
  1 21  1  1  0  0  0
  2  1  1  0  0  0  0
  3  4  1  6  0  0  0
  3  6  1  0  0  0  0
  3  5  1  0  0  0  0
  5  8  1  6  0  0  0
  5  1  1  0  0  0  0
  6 13  1  1  0  0  0
  6  2  1  0  0  0  0
  7  8  2  0  0  0  0
  8 18  1  0  0  0  0
  9  4  1  0  0  0  0
  9  7  1  0  0  0  0
 10 15  2  0  0  0  0
 10 11  1  0  0  0  0
 11 14  2  0  0  0  0
 13 12  2  0  0  0  0
 14 12  1  0  0  0  0
 15 13  1  0  0  0  0
 16 17  1  0  0  0  0
 17 15  1  0  0  0  0
 18 19  2  0  0  0  0
 20 18  1  0  0  0  0
 23 21  1  1  0  0  0
 23 27  1  0  0  0  0
 23 24  1  0  0  0  0
 24 25  2  0  0  0  0
 25 22  1  0  0  0  0
 26 22  1  0  0  0  0
 27 26  1  0  0  0  0
M  END
>  <MODEL>
2

>  <REMARK>
 VINA RESULT:      -8.0      1.656      6.894
  Name = 
  5 active torsions:
  status: ('A' for Active; 'I' for Inactive)
    1  A    between atoms: C_1  and  N_15
    2  A    between atoms: C_9  and  N_15
    3  A    between atoms: C_10  and  C_24
    4  A    between atoms: C_14  and  C_19
    5  A    between atoms: C_17  and  O_21
                            x       y       z     vdW  Elec       q    Type
                         _______ _______ _______ _____ _____    ______ ____

>  <TORSDO>
F 5

$$$$
=
 OpenBabel11052423223D

 27 30  0  0  1  0  0  0  0  0999 V2000
  161.3870  204.7520  149.1070 C   0  0  2  0  0  3  0  0  0  0  0  0
  161.7080  204.8690  150.5800 C   0  0  0  0  0  2  0  0  0  0  0  0
  160.8720  206.9820  149.8420 N   0  0  1  0  0  0  0  0  0  0  0  0
  161.2670  208.3190  149.5920 N   0  0  0  0  0  2  0  0  0  0  0  0
  160.8570  206.1080  148.6440 C   0  0  1  0  0  3  0  0  0  0  0  0
  161.7770  206.3610  150.8080 C   0  0  1  0  0  3  0  0  0  0  0  0
  162.5140  207.5920  147.6590 N   0  0  0  0  0  0  0  0  0  0  0  0
  161.7100  206.5940  147.4890 C   0  0  0  0  0  0  0  0  0  0  0  0
  162.4530  208.3300  148.8420 N   0  0  0  0  0  2  0  0  0  0  0  0
  161.1970  208.2530  154.1050 C   0  0  0  0  0  3  0  0  0  0  0  0
  160.7430  207.2080  154.9100 C   0  0  0  0  0  3  0  0  0  0  0  0
  161.0040  205.6760  153.0600 C   0  0  0  0  0  3  0  0  0  0  0  0
  161.4680  206.7140  152.2400 C   0  0  0  0  0  0  0  0  0  0  0  0
  160.6470  205.9190  154.3870 C   0  0  0  0  0  3  0  0  0  0  0  0
  161.5610  208.0230  152.7670 C   0  0  0  0  0  0  0  0  0  0  0  0
  162.0330  210.4290  152.4110 C   0  0  0  0  0  1  0  0  0  0  0  0
  162.0170  209.0770  151.9680 O   0  0  0  0  0  0  0  0  0  0  0  0
  161.6860  205.8990  146.1890 C   0  0  0  0  0  0  0  0  0  0  0  0
  162.7080  205.2830  145.7820 O   0  0  0  0  0  0  0  0  0  0  0  0
  160.5220  205.9320  145.3690 N   0  0  0  0  0  1  0  0  0  0  0  0
  160.5320  203.5970  148.7790 N   0  0  0  0  0  2  0  0  0  0  0  0
  161.6530  200.0570  146.6530 C   0  0  0  0  0  2  0  0  0  0  0  0
  161.1820  202.4900  148.0610 C   0  0  1  0  0  3  0  0  0  0  0  0
  161.1550  201.1650  148.7920 C   0  0  0  0  0  3  0  0  0  0  0  0
  161.3870  200.0240  148.1310 C   0  0  0  0  0  3  0  0  0  0  0  0
  160.6750  201.0270  145.9930 C   0  0  0  0  0  2  0  0  0  0  0  0
  160.8550  202.4500  146.5500 C   0  0  0  0  0  2  0  0  0  0  0  0
  1 21  1  1  0  0  0
  1  2  1  0  0  0  0
  2  6  1  0  0  0  0
  3  4  1  6  0  0  0
  3  6  1  0  0  0  0
  5  8  1  6  0  0  0
  5  1  1  0  0  0  0
  5  3  1  0  0  0  0
  6 13  1  1  0  0  0
  7  9  1  0  0  0  0
  8  7  2  0  0  0  0
  9  4  1  0  0  0  0
 10 11  1  0  0  0  0
 12 14  1  0  0  0  0
 13 15  1  0  0  0  0
 13 12  2  0  0  0  0
 14 11  2  0  0  0  0
 15 10  2  0  0  0  0
 17 16  1  0  0  0  0
 17 15  1  0  0  0  0
 18  8  1  0  0  0  0
 19 18  2  0  0  0  0
 20 18  1  0  0  0  0
 22 25  1  0  0  0  0
 23 21  1  1  0  0  0
 23 24  1  0  0  0  0
 25 24  2  0  0  0  0
 26 27  1  0  0  0  0
 26 22  1  0  0  0  0
 27 23  1  0  0  0  0
M  END
>  <MODEL>
3

>  <REMARK>
 VINA RESULT:      -7.3      1.943      2.702
  Name = 
  5 active torsions:
  status: ('A' for Active; 'I' for Inactive)
    1  A    between atoms: C_1  and  N_15
    2  A    between atoms: C_9  and  N_15
    3  A    between atoms: C_10  and  C_24
    4  A    between atoms: C_14  and  C_19
    5  A    between atoms: C_17  and  O_21
                            x       y       z     vdW  Elec       q    Type
                         _______ _______ _______ _____ _____    ______ ____

>  <TORSDO>
F 5

$$$$
=
 OpenBabel11052423223D

 27 30  0  0  1  0  0  0  0  0999 V2000
  161.1970  207.0570  151.5870 C   0  0  2  0  0  3  0  0  0  0  0  0
  160.6070  205.8480  150.8990 C   0  0  0  0  0  2  0  0  0  0  0  0
  162.3290  206.7240  149.4930 N   0  0  1  0  0  0  0  0  0  0  0  0
  162.5390  207.3930  148.2620 N   0  0  0  0  0  2  0  0  0  0  0  0
  162.2930  207.6130  150.6800 C   0  0  1  0  0  3  0  0  0  0  0  0
  161.0560  206.0060  149.4650 C   0  0  1  0  0  3  0  0  0  0  0  0
  161.6030  209.4120  149.1950 N   0  0  0  0  0  0  0  0  0  0  0  0
  161.9850  209.0670  150.3810 C   0  0  0  0  0  0  0  0  0  0  0  0
  161.6580  208.4810  148.1570 N   0  0  0  0  0  2  0  0  0  0  0  0
  160.9040  202.2560  148.6230 C   0  0  0  0  0  3  0  0  0  0  0  0
  161.2060  202.2990  147.2610 C   0  0  0  0  0  3  0  0  0  0  0  0
  161.4240  204.7020  147.3900 C   0  0  0  0  0  3  0  0  0  0  0  0
  161.1290  204.6750  148.7600 C   0  0  0  0  0  0  0  0  0  0  0  0
  161.4660  203.5220  146.6450 C   0  0  0  0  0  3  0  0  0  0  0  0
  160.8590  203.4350  149.3860 C   0  0  0  0  0  0  0  0  0  0  0  0
  161.2060  202.4880  151.6490 C   0  0  0  0  0  1  0  0  0  0  0  0
  160.5590  203.3820  150.7510 O   0  0  0  0  0  0  0  0  0  0  0  0
  162.0500  210.0860  151.4440 C   0  0  0  0  0  0  0  0  0  0  0  0
  163.1430  210.3270  152.0240 O   0  0  0  0  0  0  0  0  0  0  0  0
  160.8800  210.7940  151.8430 N   0  0  0  0  0  1  0  0  0  0  0  0
  161.6030  206.8030  152.9820 N   0  0  0  0  0  2  0  0  0  0  0  0
  159.9530  208.5440  156.5250 C   0  0  0  0  0  2  0  0  0  0  0  0
  160.8420  207.5140  154.0200 C   0  0  1  0  0  3  0  0  0  0  0  0
  160.1420  206.6120  155.0140 C   0  0  0  0  0  3  0  0  0  0  0  0
  159.7160  207.1000  156.1850 C   0  0  0  0  0  3  0  0  0  0  0  0
  161.3760  208.9240  156.1180 C   0  0  0  0  0  2  0  0  0  0  0  0
  161.5800  208.7410  154.6040 C   0  0  0  0  0  2  0  0  0  0  0  0
  1 21  1  1  0  0  0
  2  1  1  0  0  0  0
  3  4  1  6  0  0  0
  3  5  1  0  0  0  0
  5  8  1  6  0  0  0
  5  1  1  0  0  0  0
  6 13  1  1  0  0  0
  6  3  1  0  0  0  0
  6  2  1  0  0  0  0
  7  8  2  0  0  0  0
  8 18  1  0  0  0  0
  9  4  1  0  0  0  0
  9  7  1  0  0  0  0
 10 15  1  0  0  0  0
 11 10  2  0  0  0  0
 12 13  1  0  0  0  0
 13 15  2  0  0  0  0
 14 11  1  0  0  0  0
 14 12  2  0  0  0  0
 15 17  1  0  0  0  0
 17 16  1  0  0  0  0
 18 20  1  0  0  0  0
 18 19  2  0  0  0  0
 23 21  1  1  0  0  0
 23 27  1  0  0  0  0
 23 24  1  0  0  0  0
 24 25  2  0  0  0  0
 25 22  1  0  0  0  0
 26 22  1  0  0  0  0
 27 26  1  0  0  0  0
M  END
>  <MODEL>
4

>  <REMARK>
 VINA RESULT:      -7.1      1.771      6.812
  Name = 
  5 active torsions:
  status: ('A' for Active; 'I' for Inactive)
    1  A    between atoms: C_1  and  N_15
    2  A    between atoms: C_9  and  N_15
    3  A    between atoms: C_10  and  C_24
    4  A    between atoms: C_14  and  C_19
    5  A    between atoms: C_17  and  O_21
                            x       y       z     vdW  Elec       q    Type
                         _______ _______ _______ _____ _____    ______ ____

>  <TORSDO>
F 5

$$$$
=
 OpenBabel11052423223D

 27 30  0  0  1  0  0  0  0  0999 V2000
  161.2770  209.0820  151.2780 C   0  0  2  0  0  3  0  0  0  0  0  0
  160.6400  207.7480  151.5960 C   0  0  0  0  0  2  0  0  0  0  0  0
  162.2940  207.3860  149.9110 N   0  0  1  0  0  0  0  0  0  0  0  0
  162.4470  207.0520  148.5430 N   0  0  0  0  0  2  0  0  0  0  0  0
  162.3300  208.8410  150.1980 C   0  0  1  0  0  3  0  0  0  0  0  0
  161.0140  206.8880  150.4120 C   0  0  1  0  0  3  0  0  0  0  0  0
  161.5810  209.2140  147.9130 N   0  0  0  0  0  0  0  0  0  0  0  0
  162.0210  209.7340  149.0120 C   0  0  0  0  0  0  0  0  0  0  0  0
  161.5730  207.8270  147.7650 N   0  0  0  0  0  2  0  0  0  0  0  0
  161.0620  203.0450  150.2780 C   0  0  0  0  0  3  0  0  0  0  0  0
  161.2060  202.7550  151.6350 C   0  0  0  0  0  3  0  0  0  0  0  0
  161.1890  205.1180  152.1370 C   0  0  0  0  0  3  0  0  0  0  0  0
  161.0380  205.4260  150.7780 C   0  0  0  0  0  0  0  0  0  0  0  0
  161.2690  203.7920  152.5650 C   0  0  0  0  0  3  0  0  0  0  0  0
  160.9790  204.3750  149.8330 C   0  0  0  0  0  0  0  0  0  0  0  0
  161.5300  203.9430  147.4560 C   0  0  0  0  0  1  0  0  0  0  0  0
  160.8320  204.6560  148.4700 O   0  0  0  0  0  0  0  0  0  0  0  0
  162.1520  211.1990  149.1170 C   0  0  0  0  0  0  0  0  0  0  0  0
  161.4140  211.8450  149.9080 O   0  0  0  0  0  0  0  0  0  0  0  0
  163.0940  211.9030  148.3130 N   0  0  0  0  0  1  0  0  0  0  0  0
  161.7530  209.8070  152.4700 N   0  0  0  0  0  2  0  0  0  0  0  0
  159.5340  210.7300  156.0100 C   0  0  0  0  0  2  0  0  0  0  0  0
  160.7740  209.9920  153.5520 C   0  0  1  0  0  3  0  0  0  0  0  0
  161.0990  209.2460  154.8280 C   0  0  0  0  0  3  0  0  0  0  0  0
  160.5080  209.5870  155.9790 C   0  0  0  0  0  3  0  0  0  0  0  0
  160.0920  211.8820  155.1760 C   0  0  0  0  0  2  0  0  0  0  0  0
  160.2910  211.4520  153.7120 C   0  0  0  0  0  2  0  0  0  0  0  0
  1  2  1  0  0  0  0
  1 21  1  1  0  0  0
  3  4  1  6  0  0  0
  3  5  1  0  0  0  0
  3  6  1  0  0  0  0
  5  8  1  6  0  0  0
  5  1  1  0  0  0  0
  6 13  1  1  0  0  0
  6  2  1  0  0  0  0
  7  8  2  0  0  0  0
  8 18  1  0  0  0  0
  9  7  1  0  0  0  0
  9  4  1  0  0  0  0
 10 11  1  0  0  0  0
 11 14  2  0  0  0  0
 12 14  1  0  0  0  0
 13 12  2  0  0  0  0
 15 10  2  0  0  0  0
 15 13  1  0  0  0  0
 16 17  1  0  0  0  0
 17 15  1  0  0  0  0
 18 19  2  0  0  0  0
 20 18  1  0  0  0  0
 23 21  1  6  0  0  0
 23 27  1  0  0  0  0
 23 24  1  0  0  0  0
 24 25  2  0  0  0  0
 25 22  1  0  0  0  0
 26 22  1  0  0  0  0
 27 26  1  0  0  0  0
M  END
>  <MODEL>
5

>  <REMARK>
 VINA RESULT:      -6.8      2.208      6.686
  Name = 
  5 active torsions:
  status: ('A' for Active; 'I' for Inactive)
    1  A    between atoms: C_1  and  N_15
    2  A    between atoms: C_9  and  N_15
    3  A    between atoms: C_10  and  C_24
    4  A    between atoms: C_14  and  C_19
    5  A    between atoms: C_17  and  O_21
                            x       y       z     vdW  Elec       q    Type
                         _______ _______ _______ _____ _____    ______ ____

>  <TORSDO>
F 5

$$$$
=
 OpenBabel11052423223D

 27 30  0  0  1  0  0  0  0  0999 V2000
  161.3180  207.1970  150.6610 C   0  0  2  0  0  3  0  0  0  0  0  0
  160.6820  205.8280  150.5680 C   0  0  0  0  0  2  0  0  0  0  0  0
  162.1980  206.0570  148.7360 N   0  0  1  0  0  0  0  0  0  0  0  0
  162.2410  206.1950  147.3270 N   0  0  0  0  0  2  0  0  0  0  0  0
  162.2820  207.3340  149.4840 C   0  0  1  0  0  3  0  0  0  0  0  0
  160.9500  205.4110  149.1410 C   0  0  1  0  0  3  0  0  0  0  0  0
  161.3710  208.4370  147.5160 N   0  0  0  0  0  0  0  0  0  0  0  0
  161.9020  208.5670  148.6880 C   0  0  0  0  0  0  0  0  0  0  0  0
  161.3250  207.1770  146.9180 N   0  0  0  0  0  2  0  0  0  0  0  0
  160.7100  201.6320  149.8130 C   0  0  0  0  0  3  0  0  0  0  0  0
  160.9490  201.1400  148.5290 C   0  0  0  0  0  3  0  0  0  0  0  0
  161.2050  203.4010  147.7160 C   0  0  0  0  0  3  0  0  0  0  0  0
  160.9730  203.9110  149.0010 C   0  0  0  0  0  0  0  0  0  0  0  0
  161.1970  202.0250  147.4800 C   0  0  0  0  0  3  0  0  0  0  0  0
  160.7160  203.0150  150.0650 C   0  0  0  0  0  0  0  0  0  0  0  0
  161.2030  203.0470  152.4940 C   0  0  0  0  0  1  0  0  0  0  0  0
  160.4780  203.4980  151.3550 O   0  0  0  0  0  0  0  0  0  0  0  0
  162.0670  209.9160  149.2600 C   0  0  0  0  0  0  0  0  0  0  0  0
  162.2790  210.0580  150.4940 O   0  0  0  0  0  0  0  0  0  0  0  0
  161.9690  211.0720  148.4330 N   0  0  0  0  0  1  0  0  0  0  0  0
  161.8960  207.4910  151.9850 N   0  0  0  0  0  2  0  0  0  0  0  0
  159.7880  208.2900  155.6220 C   0  0  0  0  0  2  0  0  0  0  0  0
  160.9360  207.7280  153.0750 C   0  0  1  0  0  3  0  0  0  0  0  0
  160.9620  206.6870  154.1720 C   0  0  0  0  0  3  0  0  0  0  0  0
  160.4120  206.9490  155.3640 C   0  0  0  0  0  3  0  0  0  0  0  0
  160.6930  209.3790  155.0470 C   0  0  0  0  0  2  0  0  0  0  0  0
  160.8610  209.2050  153.5270 C   0  0  0  0  0  2  0  0  0  0  0  0
  1 21  1  1  0  0  0
  2  1  1  0  0  0  0
  3  4  1  6  0  0  0
  3  6  1  0  0  0  0
  3  5  1  0  0  0  0
  5  8  1  6  0  0  0
  5  1  1  0  0  0  0
  6 13  1  1  0  0  0
  6  2  1  0  0  0  0
  7  8  2  0  0  0  0
  8 18  1  0  0  0  0
  9  4  1  0  0  0  0
  9  7  1  0  0  0  0
 10 15  1  0  0  0  0
 11 10  2  0  0  0  0
 12 13  1  0  0  0  0
 13 15  2  0  0  0  0
 14 12  2  0  0  0  0
 14 11  1  0  0  0  0
 15 17  1  0  0  0  0
 17 16  1  0  0  0  0
 18 19  2  0  0  0  0
 20 18  1  0  0  0  0
 23 21  1  1  0  0  0
 23 27  1  0  0  0  0
 23 24  1  0  0  0  0
 24 25  2  0  0  0  0
 25 22  1  0  0  0  0
 26 22  1  0  0  0  0
 27 26  1  0  0  0  0
M  END
>  <MODEL>
6

>  <REMARK>
 VINA RESULT:      -6.8      1.888      6.603
  Name = 
  5 active torsions:
  status: ('A' for Active; 'I' for Inactive)
    1  A    between atoms: C_1  and  N_15
    2  A    between atoms: C_9  and  N_15
    3  A    between atoms: C_10  and  C_24
    4  A    between atoms: C_14  and  C_19
    5  A    between atoms: C_17  and  O_21
                            x       y       z     vdW  Elec       q    Type
                         _______ _______ _______ _____ _____    ______ ____

>  <TORSDO>
F 5

$$$$
=
 OpenBabel11052423223D

 27 30  0  0  1  0  0  0  0  0999 V2000
  161.1050  205.5720  149.6610 C   0  0  2  0  0  3  0  0  0  0  0  0
  160.7690  206.9220  150.2520 C   0  0  0  0  0  2  0  0  0  0  0  0
  161.8540  205.6310  151.9440 N   0  0  1  0  0  0  0  0  0  0  0  0
  161.6190  204.9700  153.1740 N   0  0  0  0  0  2  0  0  0  0  0  0
  161.7950  204.7530  150.7500 C   0  0  1  0  0  3  0  0  0  0  0  0
  160.8640  206.6880  151.7410 C   0  0  1  0  0  3  0  0  0  0  0  0
  160.3380  203.2790  152.0240 N   0  0  0  0  0  0  0  0  0  0  0  0
  161.0260  203.4610  150.9450 C   0  0  0  0  0  0  0  0  0  0  0  0
  160.4570  204.1880  153.0770 N   0  0  0  0  0  2  0  0  0  0  0  0
  161.2700  209.3850  154.4530 C   0  0  0  0  0  3  0  0  0  0  0  0
  161.9490  210.3630  153.7250 C   0  0  0  0  0  3  0  0  0  0  0  0
  161.8700  208.9520  151.7650 C   0  0  0  0  0  3  0  0  0  0  0  0
  161.1820  207.9630  152.4810 C   0  0  0  0  0  0  0  0  0  0  0  0
  162.2490  210.1470  152.3810 C   0  0  0  0  0  3  0  0  0  0  0  0
  160.8820  208.1790  153.8460 C   0  0  0  0  0  0  0  0  0  0  0  0
  160.0550  207.2680  155.9970 C   0  0  0  0  0  1  0  0  0  0  0  0
  160.1980  207.2050  154.5830 O   0  0  0  0  0  0  0  0  0  0  0  0
  160.9990  202.4330  149.8900 C   0  0  0  0  0  0  0  0  0  0  0  0
  162.0690  201.8810  149.5160 O   0  0  0  0  0  0  0  0  0  0  0  0
  159.7720  202.0660  149.2660 N   0  0  0  0  0  1  0  0  0  0  0  0
  161.8300  205.6530  148.3800 N   0  0  0  0  0  2  0  0  0  0  0  0
  160.4350  204.4430  144.5200 C   0  0  0  0  0  2  0  0  0  0  0  0
  161.1140  205.1570  147.1950 C   0  0  1  0  0  3  0  0  0  0  0  0
  160.7530  206.2250  146.1860 C   0  0  0  0  0  3  0  0  0  0  0  0
  160.4240  205.8870  144.9330 C   0  0  0  0  0  3  0  0  0  0  0  0
  161.6830  203.7720  145.0900 C   0  0  0  0  0  2  0  0  0  0  0  0
  161.6890  203.8380  146.6270 C   0  0  0  0  0  2  0  0  0  0  0  0
  1 21  1  6  0  0  0
  1  2  1  0  0  0  0
  1  5  1  0  0  0  0
  2  6  1  0  0  0  0
  3  4  1  1  0  0  0
  5  8  1  1  0  0  0
  5  3  1  0  0  0  0
  6  3  1  0  0  0  0
  6 13  1  1  0  0  0
  7  9  1  0  0  0  0
  8  7  2  0  0  0  0
  9  4  1  0  0  0  0
 11 10  2  0  0  0  0
 12 14  2  0  0  0  0
 12 13  1  0  0  0  0
 13 15  2  0  0  0  0
 14 11  1  0  0  0  0
 15 10  1  0  0  0  0
 15 17  1  0  0  0  0
 17 16  1  0  0  0  0
 18  8  1  0  0  0  0
 19 18  2  0  0  0  0
 20 18  1  0  0  0  0
 22 25  1  0  0  0  0
 22 26  1  0  0  0  0
 23 21  1  1  0  0  0
 24 23  1  0  0  0  0
 25 24  2  0  0  0  0
 26 27  1  0  0  0  0
 27 23  1  0  0  0  0
M  END
>  <MODEL>
7

>  <REMARK>
 VINA RESULT:      -6.7      2.504      4.338
  Name = 
  5 active torsions:
  status: ('A' for Active; 'I' for Inactive)
    1  A    between atoms: C_1  and  N_15
    2  A    between atoms: C_9  and  N_15
    3  A    between atoms: C_10  and  C_24
    4  A    between atoms: C_14  and  C_19
    5  A    between atoms: C_17  and  O_21
                            x       y       z     vdW  Elec       q    Type
                         _______ _______ _______ _____ _____    ______ ____

>  <TORSDO>
F 5

$$$$
=
 OpenBabel11052423223D

 27 30  0  0  1  0  0  0  0  0999 V2000
  161.9020  207.9630  149.0640 C   0  0  2  0  0  3  0  0  0  0  0  0
  161.5800  209.2460  148.3330 C   0  0  0  0  0  2  0  0  0  0  0  0
  162.4500  209.8260  150.4810 N   0  0  1  0  0  0  0  0  0  0  0  0
  162.0750  210.3770  151.7310 N   0  0  0  0  0  2  0  0  0  0  0  0
  162.4540  208.3440  150.4370 C   0  0  1  0  0  3  0  0  0  0  0  0
  161.5320  210.2770  149.4360 C   0  0  1  0  0  3  0  0  0  0  0  0
  160.8220  208.3790  152.2410 N   0  0  0  0  0  0  0  0  0  0  0  0
  161.6110  207.6700  151.5010 C   0  0  0  0  0  0  0  0  0  0  0  0
  160.8910  209.7710  152.1800 N   0  0  0  0  0  2  0  0  0  0  0  0
  161.5950  214.0770  148.8410 C   0  0  0  0  0  3  0  0  0  0  0  0
  162.6320  214.1610  147.9110 C   0  0  0  0  0  3  0  0  0  0  0  0
  162.8880  211.7600  147.9850 C   0  0  0  0  0  3  0  0  0  0  0  0
  161.8430  211.6570  148.9140 C   0  0  0  0  0  0  0  0  0  0  0  0
  163.2790  213.0020  147.4830 C   0  0  0  0  0  3  0  0  0  0  0  0
  161.1910  212.8320  149.3540 C   0  0  0  0  0  0  0  0  0  0  0  0
  159.7010  213.8810  151.0330 C   0  0  0  0  0  1  0  0  0  0  0  0
  160.1480  212.7570  150.2830 O   0  0  0  0  0  0  0  0  0  0  0  0
  161.6280  206.2050  151.6620 C   0  0  0  0  0  0  0  0  0  0  0  0
  162.6910  205.6170  151.9980 O   0  0  0  0  0  0  0  0  0  0  0  0
  160.4540  205.4340  151.4220 N   0  0  0  0  0  1  0  0  0  0  0  0
  162.7410  207.0340  148.2840 N   0  0  0  0  0  2  0  0  0  0  0  0
  161.3280  203.6480  146.0820 C   0  0  0  0  0  2  0  0  0  0  0  0
  162.0250  206.0350  147.4760 C   0  0  1  0  0  3  0  0  0  0  0  0
  162.6960  205.6910  146.1640 C   0  0  0  0  0  3  0  0  0  0  0  0
  162.3590  204.5760  145.5050 C   0  0  0  0  0  3  0  0  0  0  0  0
  161.5820  203.4920  147.5800 C   0  0  0  0  0  2  0  0  0  0  0  0
  161.4740  204.8480  148.2990 C   0  0  0  0  0  2  0  0  0  0  0  0
  1 21  1  6  0  0  0
  1  5  1  0  0  0  0
  2  1  1  0  0  0  0
  2  6  1  0  0  0  0
  3  4  1  1  0  0  0
  4  9  1  0  0  0  0
  5  3  1  0  0  0  0
  5  8  1  1  0  0  0
  6 13  1  6  0  0  0
  6  3  1  0  0  0  0
  8 18  1  0  0  0  0
  8  7  2  0  0  0  0
  9  7  1  0  0  0  0
 10 15  1  0  0  0  0
 11 10  2  0  0  0  0
 12 13  1  0  0  0  0
 13 15  2  0  0  0  0
 14 11  1  0  0  0  0
 14 12  2  0  0  0  0
 15 17  1  0  0  0  0
 17 16  1  0  0  0  0
 18 19  2  0  0  0  0
 20 18  1  0  0  0  0
 22 26  1  0  0  0  0
 23 21  1  1  0  0  0
 23 27  1  0  0  0  0
 24 23  1  0  0  0  0
 25 22  1  0  0  0  0
 25 24  2  0  0  0  0
 26 27  1  0  0  0  0
M  END
>  <MODEL>
8

>  <REMARK>
 VINA RESULT:      -6.7      3.471      5.666
  Name = 
  5 active torsions:
  status: ('A' for Active; 'I' for Inactive)
    1  A    between atoms: C_1  and  N_15
    2  A    between atoms: C_9  and  N_15
    3  A    between atoms: C_10  and  C_24
    4  A    between atoms: C_14  and  C_19
    5  A    between atoms: C_17  and  O_21
                            x       y       z     vdW  Elec       q    Type
                         _______ _______ _______ _____ _____    ______ ____

>  <TORSDO>
F 5

$$$$
=
 OpenBabel11052423223D

 27 30  0  0  1  0  0  0  0  0999 V2000
  160.5130  209.1460  153.7590 C   0  0  2  0  0  3  0  0  0  0  0  0
  159.7010  209.9310  152.7540 C   0  0  0  0  0  2  0  0  0  0  0  0
  160.5560  211.4720  154.3670 N   0  0  1  0  0  0  0  0  0  0  0  0
  160.1580  212.3150  155.4330 N   0  0  0  0  0  2  0  0  0  0  0  0
  161.0530  210.1390  154.7880 C   0  0  1  0  0  3  0  0  0  0  0  0
  159.4320  211.2380  153.4620 C   0  0  1  0  0  3  0  0  0  0  0  0
  159.7110  210.3800  156.8030 N   0  0  0  0  0  0  0  0  0  0  0  0
  160.6060  209.6970  156.1670 C   0  0  0  0  0  0  0  0  0  0  0  0
  159.3030  211.6150  156.2980 N   0  0  0  0  0  2  0  0  0  0  0  0
  158.0840  214.3600  151.6660 C   0  0  0  0  0  3  0  0  0  0  0  0
  158.9970  214.4500  150.6140 C   0  0  0  0  0  3  0  0  0  0  0  0
  160.1160  212.4680  151.4230 C   0  0  0  0  0  3  0  0  0  0  0  0
  159.2040  212.3600  152.4810 C   0  0  0  0  0  0  0  0  0  0  0  0
  160.0130  213.5040  150.4930 C   0  0  0  0  0  3  0  0  0  0  0  0
  158.1760  213.3230  152.6090 C   0  0  0  0  0  0  0  0  0  0  0  0
  155.9170  213.7120  153.5500 C   0  0  0  0  0  1  0  0  0  0  0  0
  157.2550  213.2390  153.6590 O   0  0  0  0  0  0  0  0  0  0  0  0
  161.1300  208.4580  156.7700 C   0  0  0  0  0  0  0  0  0  0  0  0
  162.3320  208.3950  157.1440 O   0  0  0  0  0  0  0  0  0  0  0  0
  160.2960  207.3130  156.9170 N   0  0  0  0  0  1  0  0  0  0  0  0
  161.5230  208.2670  153.1430 N   0  0  0  0  0  2  0  0  0  0  0  0
  160.8310  204.8300  150.6910 C   0  0  0  0  0  2  0  0  0  0  0  0
  161.0080  207.1440  152.3440 C   0  0  1  0  0  3  0  0  0  0  0  0
  161.3090  207.2360  150.8640 C   0  0  0  0  0  3  0  0  0  0  0  0
  161.2150  206.1500  150.0870 C   0  0  0  0  0  3  0  0  0  0  0  0
  161.5820  204.6480  152.0090 C   0  0  0  0  0  2  0  0  0  0  0  0
  161.2170  205.7620  153.0050 C   0  0  0  0  0  2  0  0  0  0  0  0
  1 21  1  6  0  0  0
  1  5  1  0  0  0  0
  2  6  1  0  0  0  0
  2  1  1  0  0  0  0
  3  5  1  0  0  0  0
  3  4  1  1  0  0  0
  4  9  1  0  0  0  0
  5  8  1  1  0  0  0
  6 13  1  6  0  0  0
  6  3  1  0  0  0  0
  8 18  1  0  0  0  0
  8  7  2  0  0  0  0
  9  7  1  0  0  0  0
 10 15  1  0  0  0  0
 11 10  2  0  0  0  0
 12 13  1  0  0  0  0
 13 15  2  0  0  0  0
 14 11  1  0  0  0  0
 14 12  2  0  0  0  0
 15 17  1  0  0  0  0
 16 17  1  0  0  0  0
 18 20  1  0  0  0  0
 18 19  2  0  0  0  0
 22 26  1  0  0  0  0
 23 27  1  0  0  0  0
 23 21  1  1  0  0  0
 24 23  1  0  0  0  0
 25 22  1  0  0  0  0
 25 24  2  0  0  0  0
 26 27  1  0  0  0  0
M  END
>  <MODEL>
9

>  <REMARK>
 VINA RESULT:      -6.5      4.168      6.278
  Name = 
  5 active torsions:
  status: ('A' for Active; 'I' for Inactive)
    1  A    between atoms: C_1  and  N_15
    2  A    between atoms: C_9  and  N_15
    3  A    between atoms: C_10  and  C_24
    4  A    between atoms: C_14  and  C_19
    5  A    between atoms: C_17  and  O_21
                            x       y       z     vdW  Elec       q    Type
                         _______ _______ _______ _____ _____    ______ ____

>  <TORSDO>
F 5

$$$$
