=
 OpenBabel11052422373D

 31 35  0  0  1  0  0  0  0  0999 V2000
  161.1700  204.6620  149.2920 C   0  0  0  0  0  0  0  0  0  0  0  0
  161.1230  203.2540  149.4370 C   0  0  1  0  0  3  0  0  0  0  0  0
  161.2810  201.0350  148.5010 C   0  0  0  0  0  0  0  0  0  0  0  0
  161.4110  205.2870  148.1210 C   0  0  0  0  0  0  0  0  0  0  0  0
  161.8340  205.6710  146.0310 C   0  0  0  0  0  0  0  0  0  0  0  0
  161.3170  202.4670  148.4150 N   0  0  0  0  0  0  0  0  0  0  0  0
  160.9870  206.9660  150.3500 C   0  0  0  0  0  0  0  0  0  0  0  0
  160.6550  203.5440  151.7980 C   0  0  0  0  0  3  0  0  0  0  0  0
  161.5150  200.2190  147.2820 C   0  0  0  0  0  1  0  0  0  0  0  0
  161.2320  207.5410  149.1630 C   0  0  0  0  0  3  0  0  0  0  0  0
  160.9510  205.4740  150.4410 C   0  0  0  0  0  0  0  0  0  0  0  0
  161.6560  204.6870  146.8600 N   0  0  0  0  0  0  0  0  0  0  0  0
  161.0410  200.4300  149.6640 C   0  0  0  0  0  3  0  0  0  0  0  0
  161.4460  206.6940  148.0380 N   0  0  0  0  0  0  0  0  0  0  0  0
  161.7260  207.0420  146.6610 C   0  0  0  0  0  2  0  0  0  0  0  0
  160.7030  204.8910  151.6440 N   0  0  0  0  0  0  0  0  0  0  0  0
  160.8620  202.7020  150.7090 C   0  0  0  0  0  0  0  0  0  0  0  0
  160.8000  201.2130  150.9220 C   0  0  0  0  0  3  0  0  0  0  0  0
  162.5490  209.2430  151.3590 O   0  0  0  0  0  0  0  0  0  0  0  0
  161.5400  208.8590  152.0070 C   0  0  0  0  0  0  0  0  0  0  0  0
  160.7610  207.7480  151.5340 N   0  0  0  0  0  2  0  0  0  0  0  0
  160.4190  210.7010  155.7290 C   0  0  0  0  0  0  0  0  0  0  0  0
  161.2600  208.8230  154.4660 C   0  0  0  0  0  3  0  0  0  0  0  0
  160.4380  211.8930  151.9000 Cl  0  0  0  0  0  0  0  0  0  0  0  0
  159.9720  211.4200  157.2610 Cl  0  0  0  0  0  0  0  0  0  0  0  0
  160.9050  209.3940  155.6880 C   0  0  0  0  0  3  0  0  0  0  0  0
  160.6440  210.8710  153.3170 C   0  0  0  0  0  0  0  0  0  0  0  0
  161.1390  209.5420  153.2640 C   0  0  0  0  0  0  0  0  0  0  0  0
  160.2910  211.4320  154.5490 C   0  0  0  0  0  3  0  0  0  0  0  0
  162.1080  205.4380  144.6470 N   0  0  0  0  0  0  0  0  0  0  0  0
  161.1920  205.5440  143.7400 C   0  0  0  0  0  2  0  0  0  0  0  0
  1  2  1  0  0  0  0
  1 11  1  0  0  0  0
  2  6  1  1  0  0  0
  2 17  1  0  0  0  0
  3 13  1  0  0  0  0
  4  1  2  0  0  0  0
  5 15  1  0  0  0  0
  5 12  2  0  0  0  0
  6  3  2  0  0  0  0
  7 11  1  0  0  0  0
  7 21  1  0  0  0  0
  9  3  1  0  0  0  0
 10  7  2  0  0  0  0
 11 16  2  0  0  0  0
 12  4  1  0  0  0  0
 13 18  2  0  0  0  0
 14  4  1  0  0  0  0
 14 10  1  0  0  0  0
 15 14  1  0  0  0  0
 16  8  1  0  0  0  0
 17 18  1  0  0  0  0
 17  8  2  0  0  0  0
 19 20  2  0  0  0  0
 20 28  1  0  0  0  0
 21 20  1  0  0  0  0
 22 25  1  0  0  0  0
 23 26  2  0  0  0  0
 24 27  1  0  0  0  0
 26 22  1  0  0  0  0
 27 29  1  0  0  0  0
 28 27  2  0  0  0  0
 28 23  1  0  0  0  0
 29 22  2  0  0  0  0
 30  5  1  0  0  0  0
 31 30  2  0  0  0  0
M  END
>  <MODEL>
1

>  <REMARK>
 VINA RESULT:      -9.0      0.000      0.000
  Name = 
  3 active torsions:
  status: ('A' for Active; 'I' for Inactive)
    1  A    between atoms: N_2  and  C_13
    2  A    between atoms: C_9  and  C_22
    3  A    between atoms: C_15  and  N_23
                            x       y       z     vdW  Elec       q    Type
                         _______ _______ _______ _____ _____    ______ ____

>  <TORSDO>
F 3

$$$$
=
 OpenBabel11052422373D

 31 35  0  0  1  0  0  0  0  0999 V2000
  161.4920  208.0220  151.2560 C   0  0  0  0  0  0  0  0  0  0  0  0
  161.3640  208.2120  152.6540 C   0  0  2  0  0  3  0  0  0  0  0  0
  161.2840  209.6590  154.5830 C   0  0  0  0  0  0  0  0  0  0  0  0
  161.6660  209.0300  150.3760 C   0  0  0  0  0  0  0  0  0  0  0  0
  161.9160  211.0030  149.5140 C   0  0  0  0  0  0  0  0  0  0  0  0
  161.4080  209.4060  153.1770 N   0  0  0  0  0  0  0  0  0  0  0  0
  161.5670  206.4340  149.2730 C   0  0  0  0  0  0  0  0  0  0  0  0
  161.1400  205.8130  152.9270 C   0  0  0  0  0  3  0  0  0  0  0  0
  161.3470  211.0550  155.0880 C   0  0  0  0  0  1  0  0  0  0  0  0
  161.7380  207.4690  148.4380 C   0  0  0  0  0  3  0  0  0  0  0  0
  161.4370  206.6970  150.7390 C   0  0  0  0  0  0  0  0  0  0  0  0
  161.7500  210.4170  150.6610 N   0  0  0  0  0  0  0  0  0  0  0  0
  161.1140  208.6550  155.4420 C   0  0  0  0  0  3  0  0  0  0  0  0
  161.7880  208.7810  148.9940 N   0  0  0  0  0  0  0  0  0  0  0  0
  161.9590  210.0570  148.3340 C   0  0  0  0  0  2  0  0  0  0  0  0
  161.2640  205.6470  151.5860 N   0  0  0  0  0  0  0  0  0  0  0  0
  161.1870  207.0870  153.4870 C   0  0  0  0  0  0  0  0  0  0  0  0
  161.0450  207.2280  154.9790 C   0  0  0  0  0  3  0  0  0  0  0  0
  160.7290  205.4740  146.6240 O   0  0  0  0  0  0  0  0  0  0  0  0
  161.0920  204.6360  147.4920 C   0  0  0  0  0  0  0  0  0  0  0  0
  161.5050  205.0810  148.7940 N   0  0  0  0  0  2  0  0  0  0  0  0
  161.1060  200.4620  146.4510 C   0  0  0  0  0  0  0  0  0  0  0  0
  161.0680  202.7960  145.8360 C   0  0  0  0  0  3  0  0  0  0  0  0
  161.1730  202.4940  149.9080 Cl  0  0  0  0  0  0  0  0  0  0  0  0
  161.1110  198.7730  145.9930 Cl  0  0  0  0  0  0  0  0  0  0  0  0
  161.0720  201.4510  145.4690 C   0  0  0  0  0  3  0  0  0  0  0  0
  161.1320  202.1670  148.1800 C   0  0  0  0  0  0  0  0  0  0  0  0
  161.0980  203.1820  147.1870 C   0  0  0  0  0  0  0  0  0  0  0  0
  161.1360  200.8210  147.7980 C   0  0  0  0  0  3  0  0  0  0  0  0
  162.0420  212.4230  149.4150 N   0  0  0  0  0  0  0  0  0  0  0  0
  162.2820  213.0130  148.2890 C   0  0  0  0  0  2  0  0  0  0  0  0
  2  1  1  1  0  0  0
  2  6  1  0  0  0  0
  2 17  1  0  0  0  0
  3  9  1  0  0  0  0
  3 13  1  0  0  0  0
  4 12  1  0  0  0  0
  4  1  2  0  0  0  0
  5 12  2  0  0  0  0
  6  3  2  0  0  0  0
  7 11  1  0  0  0  0
  8 17  2  0  0  0  0
 10 14  1  0  0  0  0
 10  7  2  0  0  0  0
 11  1  1  0  0  0  0
 11 16  2  0  0  0  0
 14  4  1  0  0  0  0
 15 14  1  0  0  0  0
 15  5  1  0  0  0  0
 16  8  1  0  0  0  0
 17 18  1  0  0  0  0
 18 13  2  0  0  0  0
 19 20  2  0  0  0  0
 20 21  1  0  0  0  0
 21  7  1  0  0  0  0
 22 29  1  0  0  0  0
 23 28  2  0  0  0  0
 25 22  1  0  0  0  0
 26 23  1  0  0  0  0
 26 22  2  0  0  0  0
 27 24  1  0  0  0  0
 28 20  1  0  0  0  0
 28 27  1  0  0  0  0
 29 27  2  0  0  0  0
 30  5  1  0  0  0  0
 31 30  2  0  0  0  0
M  END
>  <MODEL>
2

>  <REMARK>
 VINA RESULT:      -8.2      3.970      8.348
  Name = 
  3 active torsions:
  status: ('A' for Active; 'I' for Inactive)
    1  A    between atoms: N_2  and  C_13
    2  A    between atoms: C_9  and  C_22
    3  A    between atoms: C_15  and  N_23
                            x       y       z     vdW  Elec       q    Type
                         _______ _______ _______ _____ _____    ______ ____

>  <TORSDO>
F 3

$$$$
=
 OpenBabel11052422373D

 31 35  0  0  0  0  0  0  0  0999 V2000
  161.3590  207.3970  150.4980 C   0  0  0  0  0  0  0  0  0  0  0  0
  161.2150  206.0010  150.3110 C   0  0  0  0  0  0  0  0  0  0  0  0
  160.9380  203.7750  151.2020 C   0  0  0  0  0  0  0  0  0  0  0  0
  161.3770  207.9930  151.7090 C   0  0  0  0  0  0  0  0  0  0  0  0
  161.3290  208.3290  153.8490 C   0  0  0  0  0  0  0  0  0  0  0  0
  161.0880  205.1960  151.3300 N   0  0  0  0  0  0  0  0  0  0  0  0
  161.6510  209.7100  149.4850 C   0  0  0  0  0  0  0  0  0  0  0  0
  161.3460  206.3400  147.9150 C   0  0  0  0  0  3  0  0  0  0  0  0
  160.8000  202.9370  152.4220 C   0  0  0  0  0  1  0  0  0  0  0  0
  161.6620  210.2560  150.7100 C   0  0  0  0  0  3  0  0  0  0  0  0
  161.4950  208.2290  149.3510 C   0  0  0  0  0  0  0  0  0  0  0  0
  161.2590  207.3690  152.9770 N   0  0  0  0  0  0  0  0  0  0  0  0
  160.9230  203.1980  150.0010 C   0  0  0  0  0  3  0  0  0  0  0  0
  161.5240  209.3890  151.8340 N   0  0  0  0  0  0  0  0  0  0  0  0
  161.5020  209.7050  153.2460 C   0  0  0  0  0  2  0  0  0  0  0  0
  161.4830  207.6760  148.1090 N   0  0  0  0  0  0  0  0  0  0  0  0
  161.2100  205.4790  149.0010 C   0  0  0  0  0  0  0  0  0  0  0  0
  161.0600  204.0040  148.7410 C   0  0  0  0  0  2  0  0  0  0  0  0
  160.5710  212.3950  148.9710 O   0  0  0  0  0  0  0  0  0  0  0  0
  161.2460  211.8250  148.0730 C   0  0  0  0  0  0  0  0  0  0  0  0
  161.7840  210.5120  148.3020 N   0  0  0  0  0  2  0  0  0  0  0  0
  161.8460  213.6810  144.2390 C   0  0  0  0  0  0  0  0  0  0  0  0
  160.6520  212.1710  145.6960 C   0  0  0  0  0  3  0  0  0  0  0  0
  163.6720  213.9410  147.8000 Cl  0  0  0  0  0  0  0  0  0  0  0  0
  162.0630  214.4170  142.6660 Cl  0  0  0  0  0  0  0  0  0  0  0  0
  160.8220  212.7570  144.4410 C   0  0  0  0  0  3  0  0  0  0  0  0
  162.5370  213.4360  146.5540 C   0  0  0  0  0  0  0  0  0  0  0  0
  161.4970  212.4950  146.7710 C   0  0  0  0  0  0  0  0  0  0  0  0
  162.6980  214.0160  145.2910 C   0  0  0  0  0  3  0  0  0  0  0  0
  161.2460  208.0680  155.2520 N   0  0  0  0  0  0  0  0  0  0  0  0
  160.1800  207.5790  155.7960 C   0  0  0  0  0  2  0  0  0  0  0  0
  1  4  2  0  0  0  0
  2  1  1  0  0  0  0
  2  6  2  0  0  0  0
  3  6  1  0  0  0  0
  3  9  1  0  0  0  0
  4 14  1  0  0  0  0
  4 12  1  0  0  0  0
  5 30  1  0  0  0  0
  7 10  2  0  0  0  0
  8 16  1  0  0  0  0
  8 17  2  0  0  0  0
 10 14  1  0  0  0  0
 11  7  1  0  0  0  0
 11  1  1  0  0  0  0
 12  5  2  0  0  0  0
 13  3  2  0  0  0  0
 14 15  1  0  0  0  0
 15  5  1  0  0  0  0
 16 11  2  0  0  0  0
 17  2  1  0  0  0  0
 18 17  1  0  0  0  0
 18 13  1  0  0  0  0
 20 21  1  0  0  0  0
 20 19  2  0  0  0  0
 21  7  1  0  0  0  0
 22 26  2  0  0  0  0
 22 29  1  0  0  0  0
 23 28  2  0  0  0  0
 25 22  1  0  0  0  0
 26 23  1  0  0  0  0
 27 28  1  0  0  0  0
 27 24  1  0  0  0  0
 28 20  1  0  0  0  0
 29 27  2  0  0  0  0
 30 31  2  0  0  0  0
M  END
>  <MODEL>
3

>  <REMARK>
 VINA RESULT:      -7.9      3.853      7.087
  Name = 
  3 active torsions:
  status: ('A' for Active; 'I' for Inactive)
    1  A    between atoms: N_2  and  C_13
    2  A    between atoms: C_9  and  C_22
    3  A    between atoms: C_15  and  N_23
                            x       y       z     vdW  Elec       q    Type
                         _______ _______ _______ _____ _____    ______ ____

>  <TORSDO>
F 3

$$$$
=
 OpenBabel11052422373D

 31 35  0  0  1  0  0  0  0  0999 V2000
  161.4830  208.2670  151.3340 C   0  0  0  0  0  0  0  0  0  0  0  0
  161.3250  208.4180  152.7330 C   0  0  2  0  0  3  0  0  0  0  0  0
  161.1880  209.8150  154.6970 C   0  0  0  0  0  0  0  0  0  0  0  0
  161.6600  209.2990  150.4840 C   0  0  0  0  0  0  0  0  0  0  0  0
  161.8990  211.2960  149.6780 C   0  0  0  0  0  0  0  0  0  0  0  0
  161.3430  209.5990  153.2870 N   0  0  0  0  0  0  0  0  0  0  0  0
  161.6180  206.7310  149.3130 C   0  0  0  0  0  0  0  0  0  0  0  0
  161.1280  206.0110  152.9410 C   0  0  0  0  0  3  0  0  0  0  0  0
  161.2210  211.1980  155.2380 C   0  0  0  0  0  1  0  0  0  0  0  0
  161.7910  207.7900  148.5080 C   0  0  0  0  0  3  0  0  0  0  0  0
  161.4560  206.9540  150.7830 C   0  0  0  0  0  0  0  0  0  0  0  0
  161.7190  210.6790  150.8060 N   0  0  0  0  0  0  0  0  0  0  0  0
  161.0140  208.7870  155.5270 C   0  0  0  0  0  3  0  0  0  0  0  0
  161.8120  209.0870  149.0990 N   0  0  0  0  0  0  0  0  0  0  0  0
  161.9790  210.3820  148.4750 C   0  0  0  0  0  2  0  0  0  0  0  0
  161.2810  205.8810  151.5990 N   0  0  0  0  0  0  0  0  0  0  0  0
  161.1470  207.2710  153.5340 C   0  0  0  0  0  0  0  0  0  0  0  0
  160.9740  207.3710  155.0260 C   0  0  0  0  0  3  0  0  0  0  0  0
  160.4070  205.7660  146.8150 O   0  0  0  0  0  0  0  0  0  0  0  0
  160.9850  204.9420  147.5720 C   0  0  0  0  0  0  0  0  0  0  0  0
  161.5840  205.3900  148.7990 N   0  0  0  0  0  2  0  0  0  0  0  0
  161.2100  200.7370  146.6930 C   0  0  0  0  0  0  0  0  0  0  0  0
  161.2050  202.5750  148.2590 C   0  0  0  0  0  3  0  0  0  0  0  0
  160.8040  204.0520  144.4720 Cl  0  0  0  0  0  0  0  0  0  0  0  0
  161.3040  199.0200  146.3700 Cl  0  0  0  0  0  0  0  0  0  0  0  0
  161.2800  201.2050  148.0040 C   0  0  0  0  0  3  0  0  0  0  0  0
  160.9880  203.0150  145.8810 C   0  0  0  0  0  0  0  0  0  0  0  0
  161.0580  203.5020  147.2130 C   0  0  0  0  0  0  0  0  0  0  0  0
  161.0650  201.6400  145.6400 C   0  0  0  0  0  3  0  0  0  0  0  0
  162.0090  212.7200  149.6170 N   0  0  0  0  0  0  0  0  0  0  0  0
  161.5190  213.4040  148.6350 C   0  0  0  0  0  2  0  0  0  0  0  0
  2  1  1  1  0  0  0
  2  6  1  0  0  0  0
  2 17  1  0  0  0  0
  3  9  1  0  0  0  0
  3 13  1  0  0  0  0
  4 12  1  0  0  0  0
  4  1  2  0  0  0  0
  5 12  2  0  0  0  0
  6  3  2  0  0  0  0
  7 11  1  0  0  0  0
  8 17  2  0  0  0  0
 10 14  1  0  0  0  0
 10  7  2  0  0  0  0
 11  1  1  0  0  0  0
 11 16  2  0  0  0  0
 14  4  1  0  0  0  0
 15 14  1  0  0  0  0
 15  5  1  0  0  0  0
 16  8  1  0  0  0  0
 17 18  1  0  0  0  0
 18 13  2  0  0  0  0
 19 20  2  0  0  0  0
 20 21  1  0  0  0  0
 21  7  1  0  0  0  0
 22 26  1  0  0  0  0
 24 27  1  0  0  0  0
 25 22  1  0  0  0  0
 26 23  2  0  0  0  0
 27 28  2  0  0  0  0
 28 20  1  0  0  0  0
 28 23  1  0  0  0  0
 29 27  1  0  0  0  0
 29 22  2  0  0  0  0
 30  5  1  0  0  0  0
 31 30  2  0  0  0  0
M  END
>  <MODEL>
4

>  <REMARK>
 VINA RESULT:      -7.9      4.015      8.352
  Name = 
  3 active torsions:
  status: ('A' for Active; 'I' for Inactive)
    1  A    between atoms: N_2  and  C_13
    2  A    between atoms: C_9  and  C_22
    3  A    between atoms: C_15  and  N_23
                            x       y       z     vdW  Elec       q    Type
                         _______ _______ _______ _____ _____    ______ ____

>  <TORSDO>
F 3

$$$$
=
 OpenBabel11052422373D

 31 35  0  0  0  0  0  0  0  0999 V2000
  161.2360  205.4160  149.6390 C   0  0  0  0  0  0  0  0  0  0  0  0
  161.2410  205.6370  148.2410 C   0  0  0  0  0  0  0  0  0  0  0  0
  161.2120  204.8010  145.9770 C   0  0  0  0  0  0  0  0  0  0  0  0
  161.1980  204.1910  150.2040 C   0  0  0  0  0  0  0  0  0  0  0  0
  161.1290  202.0430  150.4800 C   0  0  0  0  0  0  0  0  0  0  0  0
  161.2090  204.6390  147.4020 N   0  0  0  0  0  0  0  0  0  0  0  0
  161.2700  206.3720  151.9940 C   0  0  0  0  0  0  0  0  0  0  0  0
  161.3190  208.0250  148.6510 C   0  0  0  0  0  3  0  0  0  0  0  0
  161.1720  203.6030  145.0990 C   0  0  0  0  0  1  0  0  0  0  0  0
  161.2320  205.1340  152.5080 C   0  0  0  0  0  3  0  0  0  0  0  0
  161.2730  206.5430  150.5090 C   0  0  0  0  0  0  0  0  0  0  0  0
  161.1570  202.9390  149.5400 N   0  0  0  0  0  0  0  0  0  0  0  0
  161.2500  206.0160  145.4320 C   0  0  0  0  0  3  0  0  0  0  0  0
  161.1950  204.0320  151.6050 N   0  0  0  0  0  0  0  0  0  0  0  0
  161.1490  202.6120  151.8820 C   0  0  0  0  0  2  0  0  0  0  0  0
  161.3130  207.7980  149.9880 N   0  0  0  0  0  0  0  0  0  0  0  0
  161.2830  206.9610  147.7540 C   0  0  0  0  0  0  0  0  0  0  0  0
  161.2910  207.2560  146.2780 C   0  0  0  0  0  2  0  0  0  0  0  0
  160.2540  206.6750  154.7360 O   0  0  0  0  0  0  0  0  0  0  0  0
  160.8050  207.6600  154.1750 C   0  0  0  0  0  0  0  0  0  0  0  0
  161.3090  207.5360  152.8360 N   0  0  0  0  0  2  0  0  0  0  0  0
  161.2710  211.3420  156.3500 C   0  0  0  0  0  0  0  0  0  0  0  0
  161.5470  208.9520  156.1510 C   0  0  0  0  0  3  0  0  0  0  0  0
  159.7200  210.3650  152.7820 Cl  0  0  0  0  0  0  0  0  0  0  0  0
  161.4760  212.8220  157.2610 Cl  0  0  0  0  0  0  0  0  0  0  0  0
  161.7120  210.1310  156.8790 C   0  0  0  0  0  3  0  0  0  0  0  0
  160.4950  210.1990  154.3530 C   0  0  0  0  0  0  0  0  0  0  0  0
  160.9410  208.9590  154.8830 C   0  0  0  0  0  0  0  0  0  0  0  0
  160.6660  211.3730  155.0940 C   0  0  0  0  0  3  0  0  0  0  0  0
  161.0850  200.6470  150.1780 N   0  0  0  0  0  0  0  0  0  0  0  0
  161.1930  200.2030  148.9680 C   0  0  0  0  0  2  0  0  0  0  0  0
  1  4  2  0  0  0  0
  1 11  1  0  0  0  0
  2  1  1  0  0  0  0
  3  6  1  0  0  0  0
  4 14  1  0  0  0  0
  5 15  1  0  0  0  0
  6  2  2  0  0  0  0
  7 10  2  0  0  0  0
  7 21  1  0  0  0  0
  8 16  1  0  0  0  0
  9  3  1  0  0  0  0
 11  7  1  0  0  0  0
 12  4  1  0  0  0  0
 12  5  2  0  0  0  0
 13  3  2  0  0  0  0
 13 18  1  0  0  0  0
 14 15  1  0  0  0  0
 14 10  1  0  0  0  0
 16 11  2  0  0  0  0
 17  2  1  0  0  0  0
 17  8  2  0  0  0  0
 18 17  1  0  0  0  0
 20 19  2  0  0  0  0
 20 28  1  0  0  0  0
 21 20  1  0  0  0  0
 22 26  1  0  0  0  0
 22 25  1  0  0  0  0
 23 26  2  0  0  0  0
 24 27  1  0  0  0  0
 27 28  2  0  0  0  0
 27 29  1  0  0  0  0
 28 23  1  0  0  0  0
 29 22  2  0  0  0  0
 30  5  1  0  0  0  0
 31 30  2  0  0  0  0
M  END
>  <MODEL>
5

>  <REMARK>
 VINA RESULT:      -7.3      1.580      4.124
  Name = 
  3 active torsions:
  status: ('A' for Active; 'I' for Inactive)
    1  A    between atoms: N_2  and  C_13
    2  A    between atoms: C_9  and  C_22
    3  A    between atoms: C_15  and  N_23
                            x       y       z     vdW  Elec       q    Type
                         _______ _______ _______ _____ _____    ______ ____

>  <TORSDO>
F 3

$$$$
=
 OpenBabel11052422373D

 31 35  0  0  0  0  0  0  0  0999 V2000
  161.2770  205.7310  150.0840 C   0  0  0  0  0  0  0  0  0  0  0  0
  161.4280  205.8730  148.6840 C   0  0  0  0  0  0  0  0  0  0  0  0
  161.6300  204.9100  146.4800 C   0  0  0  0  0  0  0  0  0  0  0  0
  161.1750  204.5400  150.7100 C   0  0  0  0  0  0  0  0  0  0  0  0
  161.0670  202.4110  151.0990 C   0  0  0  0  0  0  0  0  0  0  0  0
  161.4780  204.8280  147.9040 N   0  0  0  0  0  0  0  0  0  0  0  0
  161.0720  206.8190  152.3730 C   0  0  0  0  0  0  0  0  0  0  0  0
  161.4740  208.2810  148.9640 C   0  0  0  0  0  3  0  0  0  0  0  0
  161.6760  203.6640  145.6720 C   0  0  0  0  0  1  0  0  0  0  0  0
  160.9740  205.6120  152.9490 C   0  0  0  0  0  3  0  0  0  0  0  0
  161.2290  206.9050  150.8880 C   0  0  0  0  0  0  0  0  0  0  0  0
  161.1970  203.2520  150.1180 N   0  0  0  0  0  0  0  0  0  0  0  0
  161.7310  206.0930  145.8740 C   0  0  0  0  0  3  0  0  0  0  0  0
  161.0260  204.4610  152.1100 N   0  0  0  0  0  0  0  0  0  0  0  0
  160.9440  203.0590  152.4600 C   0  0  0  0  0  2  0  0  0  0  0  0
  161.3290  208.1290  150.3050 N   0  0  0  0  0  0  0  0  0  0  0  0
  161.5270  207.1670  148.1300 C   0  0  0  0  0  0  0  0  0  0  0  0
  161.6890  207.3780  146.6490 C   0  0  0  0  0  2  0  0  0  0  0  0
  160.1340  207.1850  155.1340 O   0  0  0  0  0  0  0  0  0  0  0  0
  160.5650  208.1830  154.4970 C   0  0  0  0  0  0  0  0  0  0  0  0
  161.0280  208.0280  153.1460 N   0  0  0  0  0  2  0  0  0  0  0  0
  160.5660  212.1310  156.2040 C   0  0  0  0  0  0  0  0  0  0  0  0
  159.8340  210.5470  154.5360 C   0  0  0  0  0  3  0  0  0  0  0  0
  162.3680  208.6710  157.1320 Cl  0  0  0  0  0  0  0  0  0  0  0  0
  160.5440  213.7480  156.8730 Cl  0  0  0  0  0  0  0  0  0  0  0  0
  159.8150  211.8370  155.0670 C   0  0  0  0  0  3  0  0  0  0  0  0
  161.3620  209.8390  156.2840 C   0  0  0  0  0  0  0  0  0  0  0  0
  160.6010  209.5280  155.1270 C   0  0  0  0  0  0  0  0  0  0  0  0
  161.3340  211.1360  156.8070 C   0  0  0  0  0  3  0  0  0  0  0  0
  161.0470  201.0000  150.8720 N   0  0  0  0  0  0  0  0  0  0  0  0
  160.9310  200.4970  149.6870 C   0  0  0  0  0  2  0  0  0  0  0  0
  1  4  2  0  0  0  0
  1 11  1  0  0  0  0
  2  1  1  0  0  0  0
  3  6  1  0  0  0  0
  4 14  1  0  0  0  0
  5 15  1  0  0  0  0
  6  2  2  0  0  0  0
  7 10  2  0  0  0  0
  7 21  1  0  0  0  0
  8 16  1  0  0  0  0
  9  3  1  0  0  0  0
 11  7  1  0  0  0  0
 12  4  1  0  0  0  0
 12  5  2  0  0  0  0
 13  3  2  0  0  0  0
 13 18  1  0  0  0  0
 14 15  1  0  0  0  0
 14 10  1  0  0  0  0
 16 11  2  0  0  0  0
 17  2  1  0  0  0  0
 17  8  2  0  0  0  0
 18 17  1  0  0  0  0
 20 28  1  0  0  0  0
 20 19  2  0  0  0  0
 21 20  1  0  0  0  0
 22 29  1  0  0  0  0
 22 25  1  0  0  0  0
 23 26  1  0  0  0  0
 23 28  2  0  0  0  0
 26 22  2  0  0  0  0
 27 29  2  0  0  0  0
 27 24  1  0  0  0  0
 28 27  1  0  0  0  0
 30  5  1  0  0  0  0
 31 30  2  0  0  0  0
M  END
>  <MODEL>
6

>  <REMARK>
 VINA RESULT:      -7.2      1.949      4.454
  Name = 
  3 active torsions:
  status: ('A' for Active; 'I' for Inactive)
    1  A    between atoms: N_2  and  C_13
    2  A    between atoms: C_9  and  C_22
    3  A    between atoms: C_15  and  N_23
                            x       y       z     vdW  Elec       q    Type
                         _______ _______ _______ _____ _____    ______ ____

>  <TORSDO>
F 3

$$$$
=
 OpenBabel11052422373D

 31 35  0  0  1  0  0  0  0  0999 V2000
  160.9690  208.7030  152.8280 C   0  0  0  0  0  0  0  0  0  0  0  0
  160.8240  208.7660  154.2350 C   0  0  2  0  0  3  0  0  0  0  0  0
  160.5600  210.0380  156.2700 C   0  0  0  0  0  0  0  0  0  0  0  0
  161.0010  209.7900  152.0290 C   0  0  0  0  0  0  0  0  0  0  0  0
  160.9780  211.8380  151.3220 C   0  0  0  0  0  0  0  0  0  0  0  0
  160.7100  209.9120  154.8480 N   0  0  0  0  0  0  0  0  0  0  0  0
  161.2470  207.2960  150.7300 C   0  0  0  0  0  0  0  0  0  0  0  0
  160.9270  206.3460  154.3230 C   0  0  0  0  0  3  0  0  0  0  0  0
  160.4370  211.3870  156.8800 C   0  0  0  0  0  1  0  0  0  0  0  0
  161.2720  208.4060  149.9770 C   0  0  0  0  0  3  0  0  0  0  0  0
  161.0900  207.4260  152.2110 C   0  0  0  0  0  0  0  0  0  0  0  0
  160.8980  211.1490  152.4200 N   0  0  0  0  0  0  0  0  0  0  0  0
  160.5320  208.9570  157.0480 C   0  0  0  0  0  3  0  0  0  0  0  0
  161.1480  209.6650  150.6320 N   0  0  0  0  0  0  0  0  0  0  0  0
  161.1420  211.0000  150.0730 C   0  0  0  0  0  2  0  0  0  0  0  0
  161.0650  206.3010  152.9740 N   0  0  0  0  0  0  0  0  0  0  0  0
  160.8050  207.5680  154.9790 C   0  0  0  0  0  0  0  0  0  0  0  0
  160.6530  207.5740  156.4770 C   0  0  0  0  0  3  0  0  0  0  0  0
  160.0380  206.2880  148.2470 O   0  0  0  0  0  0  0  0  0  0  0  0
  160.7640  205.5170  148.9300 C   0  0  0  0  0  0  0  0  0  0  0  0
  161.3650  205.9880  150.1480 N   0  0  0  0  0  2  0  0  0  0  0  0
  161.4180  201.4160  147.8110 C   0  0  0  0  0  0  0  0  0  0  0  0
  160.6810  203.0870  149.3900 C   0  0  0  0  0  3  0  0  0  0  0  0
  162.0160  204.9480  146.0080 Cl  0  0  0  0  0  0  0  0  0  0  0  0
  161.6710  199.7370  147.3870 Cl  0  0  0  0  0  0  0  0  0  0  0  0
  160.8810  201.7480  149.0540 C   0  0  0  0  0  3  0  0  0  0  0  0
  161.5560  203.7700  147.2310 C   0  0  0  0  0  0  0  0  0  0  0  0
  161.0100  204.1190  148.4940 C   0  0  0  0  0  0  0  0  0  0  0  0
  161.7530  202.4230  146.9070 C   0  0  0  0  0  3  0  0  0  0  0  0
  160.9110  213.2650  151.3320 N   0  0  0  0  0  0  0  0  0  0  0  0
  160.4380  213.9370  150.3330 C   0  0  0  0  0  2  0  0  0  0  0  0
  2  1  1  1  0  0  0
  2  6  1  0  0  0  0
  2 17  1  0  0  0  0
  3  9  1  0  0  0  0
  3 13  1  0  0  0  0
  4 12  1  0  0  0  0
  4  1  2  0  0  0  0
  5 30  1  0  0  0  0
  5 12  2  0  0  0  0
  6  3  2  0  0  0  0
  7 11  1  0  0  0  0
  8 17  2  0  0  0  0
 10 14  1  0  0  0  0
 10  7  2  0  0  0  0
 11  1  1  0  0  0  0
 11 16  2  0  0  0  0
 14  4  1  0  0  0  0
 15 14  1  0  0  0  0
 15  5  1  0  0  0  0
 16  8  1  0  0  0  0
 17 18  1  0  0  0  0
 18 13  2  0  0  0  0
 19 20  2  0  0  0  0
 20 21  1  0  0  0  0
 21  7  1  0  0  0  0
 22 26  1  0  0  0  0
 24 27  1  0  0  0  0
 25 22  1  0  0  0  0
 26 23  2  0  0  0  0
 27 28  2  0  0  0  0
 28 20  1  0  0  0  0
 28 23  1  0  0  0  0
 29 27  1  0  0  0  0
 29 22  2  0  0  0  0
 31 30  2  0  0  0  0
M  END
>  <MODEL>
7

>  <REMARK>
 VINA RESULT:      -6.2      3.674      8.453
  Name = 
  3 active torsions:
  status: ('A' for Active; 'I' for Inactive)
    1  A    between atoms: N_2  and  C_13
    2  A    between atoms: C_9  and  C_22
    3  A    between atoms: C_15  and  N_23
                            x       y       z     vdW  Elec       q    Type
                         _______ _______ _______ _____ _____    ______ ____

>  <TORSDO>
F 3

$$$$
