=
 OpenBabel11062409163D

 37 36  0  0  1  0  0  0  0  0999 V2000
  162.3250  207.2240  149.5240 N   0  0  0  0  0  0  0  0  0  0  0  0
  162.1220  208.6040  150.0090 C   0  0  1  0  0  3  0  0  0  0  0  0
  162.2670  210.8820  149.2740 O   0  0  0  0  0  1  0  0  0  0  0  0
  161.7450  209.6340  148.9370 C   0  0  0  0  0  2  0  0  0  0  0  0
  161.0790  208.6360  151.1320 C   0  0  0  0  0  2  0  0  0  0  0  0
  161.2980  209.7320  152.1410 C   0  0  0  0  0  0  0  0  0  0  0  0
  162.4270  210.0540  152.4790 O   0  0  0  0  0  0  0  0  0  0  0  0
  160.1140  210.3590  152.8100 C   0  0  0  0  0  2  0  0  0  0  0  0
  160.3260  211.8440  153.0690 C   0  0  1  0  0  3  0  0  0  0  0  0
  159.3200  212.6310  152.2470 C   0  0  0  0  0  2  0  0  0  0  0  0
  159.9640  213.2500  151.1750 O   0  0  0  0  0  1  0  0  0  0  0  0
  160.1630  212.1370  154.4250 O   0  0  0  0  0  0  0  0  0  0  0  0
  158.8480  212.5930  154.5310 C   0  0  0  0  0  2  0  0  0  0  0  0
  158.2100  212.0410  155.7890 C   0  0  0  0  0  2  0  0  0  0  0  0
  156.1100  211.0440  154.9410 C   0  0  0  0  0  1  0  0  0  0  0  0
  156.7090  212.2120  155.6990 C   0  0  0  0  0  2  0  0  0  0  0  0
  162.4450  207.3170  148.0730 C   0  0  0  0  0  2  0  0  0  0  0  0
  160.7270  206.6970  146.5380 O   0  0  0  0  0  1  0  0  0  0  0  0
  161.6940  206.1780  147.4000 C   0  0  1  0  0  3  0  0  0  0  0  0
  162.5180  205.4830  145.2520 O   0  0  0  0  0  1  0  0  0  0  0  0
  162.6490  205.2800  146.6260 C   0  0  0  0  0  2  0  0  0  0  0  0
  161.1660  206.3670  149.7690 C   0  0  0  0  0  2  0  0  0  0  0  0
  161.5920  205.1390  150.5590 C   0  0  1  0  0  3  0  0  0  0  0  0
  162.1790  205.5030  151.9280 C   0  0  0  0  0  2  0  0  0  0  0  0
  161.1630  205.4660  153.0650 C   0  0  0  0  0  2  0  0  0  0  0  0
  161.5530  206.4380  154.1640 C   0  0  0  0  0  2  0  0  0  0  0  0
  160.3430  207.2350  154.6310 C   0  0  0  0  0  2  0  0  0  0  0  0
  160.3700  207.4560  156.1380 C   0  0  0  0  0  2  0  0  0  0  0  0
  160.3080  208.9410  156.4610 C   0  0  0  0  0  2  0  0  0  0  0  0
  161.6230  209.3970  157.0640 C   0  0  0  0  0  2  0  0  0  0  0  0
  162.2350  210.3330  156.2280 O   0  0  0  0  0  1  0  0  0  0  0  0
  160.4460  204.1400  150.6580 C   0  0  0  0  0  2  0  0  0  0  0  0
  160.9650  202.7050  150.6700 C   0  0  0  0  0  2  0  0  0  0  0  0
  160.4760  202.5590  148.3210 O   0  0  0  0  0  1  0  0  0  0  0  0
  160.3900  201.8650  149.5310 C   0  0  1  0  0  3  0  0  0  0  0  0
  161.0570  200.6410  149.4300 O   0  0  0  0  0  0  0  0  0  0  0  0
  161.5230  200.5940  148.1160 C   0  0  0  0  0  1  0  0  0  0  0  0
  1 22  1  0  0  0  0
  1  2  1  0  0  0  0
  2  4  1  6  0  0  0
  2  5  1  0  0  0  0
  4  3  1  0  0  0  0
  5  6  1  0  0  0  0
  6  7  2  0  0  0  0
  6  8  1  0  0  0  0
  8  9  1  0  0  0  0
  9 10  1  6  0  0  0
  9 12  1  0  0  0  0
 11 10  1  0  0  0  0
 12 13  1  0  0  0  0
 13 14  1  0  0  0  0
 15 16  1  0  0  0  0
 16 14  1  0  0  0  0
 17  1  1  0  0  0  0
 19 18  1  6  0  0  0
 19 17  1  0  0  0  0
 20 21  1  0  0  0  0
 21 19  1  0  0  0  0
 23 22  1  1  0  0  0
 23 32  1  0  0  0  0
 23 24  1  0  0  0  0
 24 25  1  0  0  0  0
 25 26  1  0  0  0  0
 26 27  1  0  0  0  0
 27 28  1  0  0  0  0
 28 29  1  0  0  0  0
 29 30  1  0  0  0  0
 31 30  1  0  0  0  0
 32 33  1  0  0  0  0
 35 34  1  6  0  0  0
 35 33  1  0  0  0  0
 36 35  1  0  0  0  0
 37 36  1  0  0  0  0
M  END
>  <MODEL>
1

>  <REMARK>
 VINA RESULT:      -5.4      0.000      0.000
  Name = 
  27 active torsions:
  status: ('A' for Active; 'I' for Inactive)
    1  A    between atoms: O_1  and  C_23
    2  A    between atoms: C_2  and  C_8
    3  A    between atoms: C_3  and  C_15
    4  A    between atoms: C_3  and  C_30
    5  A    between atoms: C_4  and  N_10
    6  A    between atoms: C_4  and  C_24
    7  A    between atoms: O_6  and  C_8
    8  A    between atoms: O_6  and  C_31
    9  A    between atoms: C_7  and  C_33
   10  A    between atoms: C_7  and  C_36
   11  A    between atoms: C_8  and  C_19
   12  A    between atoms: N_10  and  C_13
   13  A    between atoms: N_10  and  C_30
   14  A    between atoms: C_11  and  C_26
   15  A    between atoms: C_13  and  C_20
   16  A    between atoms: C_14  and  C_31
   17  A    between atoms: C_14  and  C_37
   18  A    between atoms: C_15  and  C_19
   19  A    between atoms: C_17  and  C_26
   20  A    between atoms: C_17  and  C_33
   21  A    between atoms: C_20  and  C_21
   22  A    between atoms: C_20  and  C_29
   23  A    between atoms: C_21  and  C_25
   24  A    between atoms: C_23  and  C_25
   25  A    between atoms: C_24  and  C_28
   26  A    between atoms: C_29  and  C_36
   27  A    between atoms: C_30  and  C_32
                            x       y       z     vdW  Elec       q    Type
                         _______ _______ _______ _____ _____    ______ ____

>  <TORSDO>
F 27

$$$$
=
 OpenBabel11062409163D

 37 36  0  0  1  0  0  0  0  0999 V2000
  160.7320  209.2090  152.1970 N   0  0  0  0  0  0  0  0  0  0  0  0
  161.3610  209.3730  150.8720 C   0  0  1  0  0  3  0  0  0  0  0  0
  162.0390  211.1610  149.4230 O   0  0  0  0  0  1  0  0  0  0  0  0
  162.2230  210.6300  150.7000 C   0  0  0  0  0  2  0  0  0  0  0  0
  162.1900  208.1360  150.5080 C   0  0  0  0  0  2  0  0  0  0  0  0
  162.0970  207.7400  149.0590 C   0  0  0  0  0  0  0  0  0  0  0  0
  162.8930  208.1740  148.2400 O   0  0  0  0  0  0  0  0  0  0  0  0
  160.9550  206.8860  148.6040 C   0  0  0  0  0  2  0  0  0  0  0  0
  161.2870  206.1200  147.3310 C   0  0  1  0  0  3  0  0  0  0  0  0
  161.9300  204.7970  147.7110 C   0  0  0  0  0  2  0  0  0  0  0  0
  163.1220  204.6300  147.0060 O   0  0  0  0  0  1  0  0  0  0  0  0
  160.1320  205.8860  146.5800 O   0  0  0  0  0  0  0  0  0  0  0  0
  160.4630  206.2970  145.2870 C   0  0  0  0  0  2  0  0  0  0  0  0
  160.9990  205.1230  144.4930 C   0  0  0  0  0  2  0  0  0  0  0  0
  160.6860  202.7550  145.1380 C   0  0  0  0  0  1  0  0  0  0  0  0
  160.0060  203.9830  144.5670 C   0  0  0  0  0  2  0  0  0  0  0  0
  160.5880  210.5520  152.7480 C   0  0  0  0  0  2  0  0  0  0  0  0
  158.6880  211.0980  154.0830 O   0  0  0  0  0  1  0  0  0  0  0  0
  159.1250  210.9710  152.7630 C   0  0  1  0  0  3  0  0  0  0  0  0
  159.1140  213.3720  152.8810 O   0  0  0  0  0  1  0  0  0  0  0  0
  158.9290  212.2870  152.0240 C   0  0  0  0  0  2  0  0  0  0  0  0
  161.5850  208.4860  153.1390 C   0  0  0  0  0  2  0  0  0  0  0  0
  160.9220  207.1760  153.5340 C   0  0  1  0  0  3  0  0  0  0  0  0
  161.6690  205.9560  152.9840 C   0  0  0  0  0  2  0  0  0  0  0  0
  160.9290  205.2320  151.8640 C   0  0  0  0  0  2  0  0  0  0  0  0
  160.6790  203.7820  152.2370 C   0  0  0  0  0  2  0  0  0  0  0  0
  161.3990  202.8480  151.2740 C   0  0  0  0  0  2  0  0  0  0  0  0
  160.4800  202.3950  150.1470 C   0  0  0  0  0  2  0  0  0  0  0  0
  160.8710  201.0070  149.6620 C   0  0  0  0  0  2  0  0  0  0  0  0
  161.6440  201.1100  148.3610 C   0  0  0  0  0  2  0  0  0  0  0  0
  161.3020  200.0540  147.5140 O   0  0  0  0  0  1  0  0  0  0  0  0
  160.7190  207.1110  155.0420 C   0  0  0  0  0  2  0  0  0  0  0  0
  160.0610  208.3850  155.5660 C   0  0  0  0  0  2  0  0  0  0  0  0
  161.7610  208.2390  157.2600 O   0  0  0  0  0  1  0  0  0  0  0  0
  160.4690  208.7060  157.0030 C   0  0  1  0  0  3  0  0  0  0  0  0
  160.3990  210.0810  157.2440 O   0  0  0  0  0  0  0  0  0  0  0  0
  161.3170  210.6470  156.3610 C   0  0  0  0  0  1  0  0  0  0  0  0
  1 17  1  0  0  0  0
  1 22  1  0  0  0  0
  2  5  1  1  0  0  0
  2  1  1  0  0  0  0
  3  4  1  0  0  0  0
  4  2  1  0  0  0  0
  6  5  1  0  0  0  0
  7  6  2  0  0  0  0
  8  6  1  0  0  0  0
  9 10  1  1  0  0  0
  9  8  1  0  0  0  0
 11 10  1  0  0  0  0
 12  9  1  0  0  0  0
 13 12  1  0  0  0  0
 14 16  1  0  0  0  0
 14 13  1  0  0  0  0
 16 15  1  0  0  0  0
 17 19  1  0  0  0  0
 19 18  1  1  0  0  0
 21 19  1  0  0  0  0
 21 20  1  0  0  0  0
 22 23  1  0  0  0  0
 23 24  1  1  0  0  0
 23 32  1  0  0  0  0
 25 26  1  0  0  0  0
 25 24  1  0  0  0  0
 27 26  1  0  0  0  0
 28 27  1  0  0  0  0
 29 28  1  0  0  0  0
 30 29  1  0  0  0  0
 31 30  1  0  0  0  0
 32 33  1  0  0  0  0
 33 35  1  0  0  0  0
 35 36  1  0  0  0  0
 35 34  1  6  0  0  0
 37 36  1  0  0  0  0
M  END
>  <MODEL>
2

>  <REMARK>
 VINA RESULT:      -5.3      1.854      8.603
  Name = 
  27 active torsions:
  status: ('A' for Active; 'I' for Inactive)
    1  A    between atoms: O_1  and  C_23
    2  A    between atoms: C_2  and  C_8
    3  A    between atoms: C_3  and  C_15
    4  A    between atoms: C_3  and  C_30
    5  A    between atoms: C_4  and  N_10
    6  A    between atoms: C_4  and  C_24
    7  A    between atoms: O_6  and  C_8
    8  A    between atoms: O_6  and  C_31
    9  A    between atoms: C_7  and  C_33
   10  A    between atoms: C_7  and  C_36
   11  A    between atoms: C_8  and  C_19
   12  A    between atoms: N_10  and  C_13
   13  A    between atoms: N_10  and  C_30
   14  A    between atoms: C_11  and  C_26
   15  A    between atoms: C_13  and  C_20
   16  A    between atoms: C_14  and  C_31
   17  A    between atoms: C_14  and  C_37
   18  A    between atoms: C_15  and  C_19
   19  A    between atoms: C_17  and  C_26
   20  A    between atoms: C_17  and  C_33
   21  A    between atoms: C_20  and  C_21
   22  A    between atoms: C_20  and  C_29
   23  A    between atoms: C_21  and  C_25
   24  A    between atoms: C_23  and  C_25
   25  A    between atoms: C_24  and  C_28
   26  A    between atoms: C_29  and  C_36
   27  A    between atoms: C_30  and  C_32
                            x       y       z     vdW  Elec       q    Type
                         _______ _______ _______ _____ _____    ______ ____

>  <TORSDO>
F 27

$$$$
=
 OpenBabel11062409163D

 37 36  0  0  1  0  0  0  0  0999 V2000
  161.3610  206.7170  151.1070 N   0  0  0  0  0  0  0  0  0  0  0  0
  160.9640  207.3430  152.3840 C   0  0  1  0  0  3  0  0  0  0  0  0
  160.5450  207.1000  154.7330 O   0  0  0  0  0  1  0  0  0  0  0  0
  161.0930  206.4520  153.6260 C   0  0  0  0  0  2  0  0  0  0  0  0
  161.7380  208.6470  152.6120 C   0  0  0  0  0  2  0  0  0  0  0  0
  160.8740  209.8090  153.0240 C   0  0  0  0  0  0  0  0  0  0  0  0
  159.8900  210.1180  152.3700 O   0  0  0  0  0  0  0  0  0  0  0  0
  161.2880  210.6530  154.1890 C   0  0  0  0  0  2  0  0  0  0  0  0
  160.0900  211.1860  154.9620 C   0  0  1  0  0  3  0  0  0  0  0  0
  160.3780  211.0720  156.4480 C   0  0  0  0  0  2  0  0  0  0  0  0
  161.0220  209.8640  156.7150 O   0  0  0  0  0  1  0  0  0  0  0  0
  159.8410  212.5200  154.6280 O   0  0  0  0  0  0  0  0  0  0  0  0
  158.5470  212.7640  155.0950 C   0  0  0  0  0  2  0  0  0  0  0  0
  157.5920  212.8920  153.9260 C   0  0  0  0  0  2  0  0  0  0  0  0
  156.3160  211.2000  155.2030 C   0  0  0  0  0  1  0  0  0  0  0  0
  156.2110  212.4600  154.3670 C   0  0  0  0  0  2  0  0  0  0  0  0
  161.9130  205.4110  151.4490 C   0  0  0  0  0  2  0  0  0  0  0  0
  161.3270  203.9720  149.6390 O   0  0  0  0  0  1  0  0  0  0  0  0
  161.0000  204.2980  150.9560 C   0  0  1  0  0  3  0  0  0  0  0  0
  161.1050  201.9000  151.0720 O   0  0  0  0  0  1  0  0  0  0  0  0
  161.1210  203.0650  151.8400 C   0  0  0  0  0  2  0  0  0  0  0  0
  162.4430  207.4400  150.4400 C   0  0  0  0  0  2  0  0  0  0  0  0
  162.1700  207.5090  148.9450 C   0  0  1  0  0  3  0  0  0  0  0  0
  160.7610  207.0210  148.5870 C   0  0  0  0  0  2  0  0  0  0  0  0
  160.6470  206.4440  147.1790 C   0  0  0  0  0  2  0  0  0  0  0  0
  161.9410  205.7650  146.7720 C   0  0  0  0  0  2  0  0  0  0  0  0
  161.9010  205.3700  145.3020 C   0  0  0  0  0  2  0  0  0  0  0  0
  161.2190  204.0220  145.1070 C   0  0  0  0  0  2  0  0  0  0  0  0
  161.5470  203.0850  146.2590 C   0  0  0  0  0  2  0  0  0  0  0  0
  160.7210  201.8180  146.1500 C   0  0  0  0  0  2  0  0  0  0  0  0
  160.0400  201.7910  144.9310 O   0  0  0  0  0  1  0  0  0  0  0  0
  162.4610  208.9060  148.4110 C   0  0  0  0  0  2  0  0  0  0  0  0
  161.9460  209.9800  149.3650 C   0  0  0  0  0  2  0  0  0  0  0  0
  163.2040  211.7000  148.2530 O   0  0  0  0  0  1  0  0  0  0  0  0
  161.9330  211.3690  148.7310 C   0  0  1  0  0  3  0  0  0  0  0  0
  160.9990  211.4340  147.6920 O   0  0  0  0  0  0  0  0  0  0  0  0
  160.6600  212.7830  147.5990 C   0  0  0  0  0  1  0  0  0  0  0  0
  1 17  1  0  0  0  0
  1  2  1  0  0  0  0
  2  5  1  1  0  0  0
  2  4  1  0  0  0  0
  4  3  1  0  0  0  0
  5  6  1  0  0  0  0
  6  8  1  0  0  0  0
  7  6  2  0  0  0  0
  9  8  1  6  0  0  0
  9 10  1  0  0  0  0
 10 11  1  0  0  0  0
 12  9  1  0  0  0  0
 12 13  1  0  0  0  0
 14 16  1  0  0  0  0
 14 13  1  0  0  0  0
 16 15  1  0  0  0  0
 19 18  1  6  0  0  0
 19 17  1  0  0  0  0
 19 21  1  0  0  0  0
 20 21  1  0  0  0  0
 22  1  1  0  0  0  0
 23 32  1  1  0  0  0
 23 22  1  0  0  0  0
 24 23  1  0  0  0  0
 25 24  1  0  0  0  0
 26 25  1  0  0  0  0
 27 26  1  0  0  0  0
 28 27  1  0  0  0  0
 28 29  1  0  0  0  0
 30 29  1  0  0  0  0
 31 30  1  0  0  0  0
 32 33  1  0  0  0  0
 35 34  1  6  0  0  0
 35 33  1  0  0  0  0
 36 35  1  0  0  0  0
 37 36  1  0  0  0  0
M  END
>  <MODEL>
3

>  <REMARK>
 VINA RESULT:      -5.0      1.897      6.824
  Name = 
  27 active torsions:
  status: ('A' for Active; 'I' for Inactive)
    1  A    between atoms: O_1  and  C_23
    2  A    between atoms: C_2  and  C_8
    3  A    between atoms: C_3  and  C_15
    4  A    between atoms: C_3  and  C_30
    5  A    between atoms: C_4  and  N_10
    6  A    between atoms: C_4  and  C_24
    7  A    between atoms: O_6  and  C_8
    8  A    between atoms: O_6  and  C_31
    9  A    between atoms: C_7  and  C_33
   10  A    between atoms: C_7  and  C_36
   11  A    between atoms: C_8  and  C_19
   12  A    between atoms: N_10  and  C_13
   13  A    between atoms: N_10  and  C_30
   14  A    between atoms: C_11  and  C_26
   15  A    between atoms: C_13  and  C_20
   16  A    between atoms: C_14  and  C_31
   17  A    between atoms: C_14  and  C_37
   18  A    between atoms: C_15  and  C_19
   19  A    between atoms: C_17  and  C_26
   20  A    between atoms: C_17  and  C_33
   21  A    between atoms: C_20  and  C_21
   22  A    between atoms: C_20  and  C_29
   23  A    between atoms: C_21  and  C_25
   24  A    between atoms: C_23  and  C_25
   25  A    between atoms: C_24  and  C_28
   26  A    between atoms: C_29  and  C_36
   27  A    between atoms: C_30  and  C_32
                            x       y       z     vdW  Elec       q    Type
                         _______ _______ _______ _____ _____    ______ ____

>  <TORSDO>
F 27

$$$$
=
 OpenBabel11062409163D

 37 36  0  0  1  0  0  0  0  0999 V2000
  160.8160  208.3180  152.3680 N   0  0  0  0  0  0  0  0  0  0  0  0
  160.5890  209.6310  151.7320 C   0  0  1  0  0  3  0  0  0  0  0  0
  160.7350  211.7090  152.9210 O   0  0  0  0  0  1  0  0  0  0  0  0
  159.8640  210.6690  152.5970 C   0  0  0  0  0  2  0  0  0  0  0  0
  161.9100  210.2250  151.2270 C   0  0  0  0  0  2  0  0  0  0  0  0
  161.8880  210.6240  149.7760 C   0  0  0  0  0  0  0  0  0  0  0  0
  162.1000  209.8010  148.8980 O   0  0  0  0  0  0  0  0  0  0  0  0
  161.7060  212.0650  149.4150 C   0  0  0  0  0  2  0  0  0  0  0  0
  161.4330  212.2510  147.9290 C   0  0  1  0  0  3  0  0  0  0  0  0
  160.4310  213.3800  147.7540 C   0  0  0  0  0  2  0  0  0  0  0  0
  159.1370  212.8610  147.7030 O   0  0  0  0  0  1  0  0  0  0  0  0
  162.6120  212.5540  147.2430 O   0  0  0  0  0  0  0  0  0  0  0  0
  162.2680  213.6140  146.4020 C   0  0  0  0  0  2  0  0  0  0  0  0
  162.8340  213.3790  145.0170 C   0  0  0  0  0  2  0  0  0  0  0  0
  162.2840  212.4480  142.7920 C   0  0  0  0  0  1  0  0  0  0  0  0
  161.7080  212.9940  144.0820 C   0  0  0  0  0  2  0  0  0  0  0  0
  161.5200  208.5870  153.6160 C   0  0  0  0  0  2  0  0  0  0  0  0
  160.6100  206.8070  154.9170 O   0  0  0  0  0  1  0  0  0  0  0  0
  160.6610  208.1970  154.8100 C   0  0  1  0  0  3  0  0  0  0  0  0
  160.9960  210.1740  156.1360 O   0  0  0  0  0  1  0  0  0  0  0  0
  161.2130  208.7960  156.0960 C   0  0  0  0  0  2  0  0  0  0  0  0
  161.7110  207.4630  151.5880 C   0  0  0  0  0  2  0  0  0  0  0  0
  160.9010  206.6340  150.6030 C   0  0  1  0  0  3  0  0  0  0  0  0
  161.5830  206.5260  149.2340 C   0  0  0  0  0  2  0  0  0  0  0  0
  160.6230  206.2170  148.0890 C   0  0  0  0  0  2  0  0  0  0  0  0
  161.2520  206.5700  146.7530 C   0  0  0  0  0  2  0  0  0  0  0  0
  160.3910  206.0630  145.6040 C   0  0  0  0  0  2  0  0  0  0  0  0
  161.1760  205.1310  144.6900 C   0  0  0  0  0  2  0  0  0  0  0  0
  162.1080  204.2460  145.5030 C   0  0  0  0  0  2  0  0  0  0  0  0
  161.3590  203.0290  146.0120 C   0  0  0  0  0  2  0  0  0  0  0  0
  160.4530  202.5850  145.0470 O   0  0  0  0  0  1  0  0  0  0  0  0
  160.5620  205.2740  151.1990 C   0  0  0  0  0  2  0  0  0  0  0  0
  161.7820  204.3570  151.2100 C   0  0  0  0  0  2  0  0  0  0  0  0
  160.6740  202.3140  151.8240 O   0  0  0  0  0  1  0  0  0  0  0  0
  161.4370  202.9190  150.8230 C   0  0  1  0  0  3  0  0  0  0  0  0
  160.7490  202.8830  149.6070 O   0  0  0  0  0  0  0  0  0  0  0  0
  160.2370  201.5890  149.5230 C   0  0  0  0  0  1  0  0  0  0  0  0
  1 17  1  0  0  0  0
  2  5  1  1  0  0  0
  2  1  1  0  0  0  0
  2  4  1  0  0  0  0
  4  3  1  0  0  0  0
  6  5  1  0  0  0  0
  7  6  2  0  0  0  0
  8  6  1  0  0  0  0
  9 10  1  1  0  0  0
  9  8  1  0  0  0  0
 11 10  1  0  0  0  0
 12  9  1  0  0  0  0
 13 12  1  0  0  0  0
 14 13  1  0  0  0  0
 15 16  1  0  0  0  0
 16 14  1  0  0  0  0
 17 19  1  0  0  0  0
 19 18  1  1  0  0  0
 19 21  1  0  0  0  0
 21 20  1  0  0  0  0
 22  1  1  0  0  0  0
 23 24  1  6  0  0  0
 23 32  1  0  0  0  0
 23 22  1  0  0  0  0
 25 24  1  0  0  0  0
 26 25  1  0  0  0  0
 27 26  1  0  0  0  0
 28 29  1  0  0  0  0
 28 27  1  0  0  0  0
 29 30  1  0  0  0  0
 31 30  1  0  0  0  0
 32 33  1  0  0  0  0
 35 33  1  0  0  0  0
 35 34  1  1  0  0  0
 36 35  1  0  0  0  0
 37 36  1  0  0  0  0
M  END
>  <MODEL>
4

>  <REMARK>
 VINA RESULT:      -5.0      2.747      7.414
  Name = 
  27 active torsions:
  status: ('A' for Active; 'I' for Inactive)
    1  A    between atoms: O_1  and  C_23
    2  A    between atoms: C_2  and  C_8
    3  A    between atoms: C_3  and  C_15
    4  A    between atoms: C_3  and  C_30
    5  A    between atoms: C_4  and  N_10
    6  A    between atoms: C_4  and  C_24
    7  A    between atoms: O_6  and  C_8
    8  A    between atoms: O_6  and  C_31
    9  A    between atoms: C_7  and  C_33
   10  A    between atoms: C_7  and  C_36
   11  A    between atoms: C_8  and  C_19
   12  A    between atoms: N_10  and  C_13
   13  A    between atoms: N_10  and  C_30
   14  A    between atoms: C_11  and  C_26
   15  A    between atoms: C_13  and  C_20
   16  A    between atoms: C_14  and  C_31
   17  A    between atoms: C_14  and  C_37
   18  A    between atoms: C_15  and  C_19
   19  A    between atoms: C_17  and  C_26
   20  A    between atoms: C_17  and  C_33
   21  A    between atoms: C_20  and  C_21
   22  A    between atoms: C_20  and  C_29
   23  A    between atoms: C_21  and  C_25
   24  A    between atoms: C_23  and  C_25
   25  A    between atoms: C_24  and  C_28
   26  A    between atoms: C_29  and  C_36
   27  A    between atoms: C_30  and  C_32
                            x       y       z     vdW  Elec       q    Type
                         _______ _______ _______ _____ _____    ______ ____

>  <TORSDO>
F 27

$$$$
=
 OpenBabel11062409163D

 37 36  0  0  1  0  0  0  0  0999 V2000
  160.9960  209.6980  153.7440 N   0  0  0  0  0  0  0  0  0  0  0  0
  161.3180  208.4340  153.0530 C   0  0  1  0  0  3  0  0  0  0  0  0
  161.8200  206.2090  153.7940 O   0  0  0  0  0  1  0  0  0  0  0  0
  160.8010  207.1590  153.7300 C   0  0  0  0  0  2  0  0  0  0  0  0
  160.8280  208.4710  151.6000 C   0  0  0  0  0  2  0  0  0  0  0  0
  161.7910  207.8680  150.6130 C   0  0  0  0  0  0  0  0  0  0  0  0
  162.9510  207.6480  150.9260 O   0  0  0  0  0  0  0  0  0  0  0  0
  161.3450  207.6340  149.2030 C   0  0  0  0  0  2  0  0  0  0  0  0
  160.7220  206.2560  149.0230 C   0  0  1  0  0  3  0  0  0  0  0  0
  161.0180  205.7670  147.6160 C   0  0  0  0  0  2  0  0  0  0  0  0
  162.0290  206.5430  147.0470 O   0  0  0  0  0  1  0  0  0  0  0  0
  161.2400  205.3550  149.9570 O   0  0  0  0  0  0  0  0  0  0  0  0
  160.8520  204.0990  149.4850 C   0  0  0  0  0  2  0  0  0  0  0  0
  160.7690  203.1180  150.6370 C   0  0  0  0  0  2  0  0  0  0  0  0
  160.8490  201.7410  148.5840 C   0  0  0  0  0  1  0  0  0  0  0  0
  160.8960  201.7100  150.0980 C   0  0  0  0  0  2  0  0  0  0  0  0
  160.5470  209.3270  155.0810 C   0  0  0  0  0  2  0  0  0  0  0  0
  160.2980  210.2720  157.2580 O   0  0  0  0  0  1  0  0  0  0  0  0
  161.1070  210.2880  156.1200 C   0  0  1  0  0  3  0  0  0  0  0  0
  163.4400  210.8510  155.9970 O   0  0  0  0  0  1  0  0  0  0  0  0
  162.5340  209.9140  156.4940 C   0  0  0  0  0  2  0  0  0  0  0  0
  159.8700  210.4030  153.1320 C   0  0  0  0  0  2  0  0  0  0  0  0
  160.2180  211.8730  152.9570 C   0  0  1  0  0  3  0  0  0  0  0  0
  160.4290  212.2500  151.4860 C   0  0  0  0  0  2  0  0  0  0  0  0
  159.4480  213.2990  150.9700 C   0  0  0  0  0  2  0  0  0  0  0  0
  160.0490  214.0690  149.8090 C   0  0  0  0  0  2  0  0  0  0  0  0
  159.4500  213.6030  148.4880 C   0  0  0  0  0  2  0  0  0  0  0  0
  160.5330  213.3350  147.4510 C   0  0  0  0  0  2  0  0  0  0  0  0
  161.3030  212.0700  147.7960 C   0  0  0  0  0  2  0  0  0  0  0  0
  162.7860  212.3710  147.8810 C   0  0  0  0  0  2  0  0  0  0  0  0
  163.0000  213.7510  147.8480 O   0  0  0  0  0  1  0  0  0  0  0  0
  159.1840  212.7540  153.6470 C   0  0  0  0  0  2  0  0  0  0  0  0
  157.8400  212.0420  153.7600 C   0  0  0  0  0  2  0  0  0  0  0  0
  155.7730  212.8950  154.6430 O   0  0  0  0  0  1  0  0  0  0  0  0
  157.0540  212.4680  154.9990 C   0  0  1  0  0  3  0  0  0  0  0  0
  156.9710  211.4190  155.9200 O   0  0  0  0  0  0  0  0  0  0  0  0
  157.2380  212.0060  157.1570 C   0  0  0  0  0  1  0  0  0  0  0  0
  1 17  1  0  0  0  0
  2  5  1  6  0  0  0
  2  4  1  0  0  0  0
  2  1  1  0  0  0  0
  4  3  1  0  0  0  0
  6  7  2  0  0  0  0
  6  5  1  0  0  0  0
  8  6  1  0  0  0  0
  9 10  1  6  0  0  0
  9  8  1  0  0  0  0
  9 12  1  0  0  0  0
 11 10  1  0  0  0  0
 13 12  1  0  0  0  0
 13 14  1  0  0  0  0
 15 16  1  0  0  0  0
 16 14  1  0  0  0  0
 17 19  1  0  0  0  0
 19 21  1  0  0  0  0
 19 18  1  1  0  0  0
 20 21  1  0  0  0  0
 22  1  1  0  0  0  0
 23 24  1  6  0  0  0
 23 22  1  0  0  0  0
 23 32  1  0  0  0  0
 25 24  1  0  0  0  0
 26 25  1  0  0  0  0
 27 26  1  0  0  0  0
 28 29  1  0  0  0  0
 28 27  1  0  0  0  0
 29 30  1  0  0  0  0
 31 30  1  0  0  0  0
 32 33  1  0  0  0  0
 33 35  1  0  0  0  0
 35 34  1  6  0  0  0
 35 36  1  0  0  0  0
 36 37  1  0  0  0  0
M  END
>  <MODEL>
5

>  <REMARK>
 VINA RESULT:      -4.9      2.324      9.172
  Name = 
  27 active torsions:
  status: ('A' for Active; 'I' for Inactive)
    1  A    between atoms: O_1  and  C_23
    2  A    between atoms: C_2  and  C_8
    3  A    between atoms: C_3  and  C_15
    4  A    between atoms: C_3  and  C_30
    5  A    between atoms: C_4  and  N_10
    6  A    between atoms: C_4  and  C_24
    7  A    between atoms: O_6  and  C_8
    8  A    between atoms: O_6  and  C_31
    9  A    between atoms: C_7  and  C_33
   10  A    between atoms: C_7  and  C_36
   11  A    between atoms: C_8  and  C_19
   12  A    between atoms: N_10  and  C_13
   13  A    between atoms: N_10  and  C_30
   14  A    between atoms: C_11  and  C_26
   15  A    between atoms: C_13  and  C_20
   16  A    between atoms: C_14  and  C_31
   17  A    between atoms: C_14  and  C_37
   18  A    between atoms: C_15  and  C_19
   19  A    between atoms: C_17  and  C_26
   20  A    between atoms: C_17  and  C_33
   21  A    between atoms: C_20  and  C_21
   22  A    between atoms: C_20  and  C_29
   23  A    between atoms: C_21  and  C_25
   24  A    between atoms: C_23  and  C_25
   25  A    between atoms: C_24  and  C_28
   26  A    between atoms: C_29  and  C_36
   27  A    between atoms: C_30  and  C_32
                            x       y       z     vdW  Elec       q    Type
                         _______ _______ _______ _____ _____    ______ ____

>  <TORSDO>
F 27

$$$$
=
 OpenBabel11062409163D

 37 36  0  0  1  0  0  0  0  0999 V2000
  161.3640  207.8200  152.2650 N   0  0  0  0  0  0  0  0  0  0  0  0
  161.4820  209.2720  152.0270 C   0  0  1  0  0  3  0  0  0  0  0  0
  162.5940  210.8800  150.6380 O   0  0  0  0  0  1  0  0  0  0  0  0
  161.8860  209.6790  150.6050 C   0  0  0  0  0  2  0  0  0  0  0  0
  160.1830  209.9920  152.4110 C   0  0  0  0  0  2  0  0  0  0  0  0
  160.3940  211.2740  153.1700 C   0  0  0  0  0  0  0  0  0  0  0  0
  159.9650  212.3340  152.7380 O   0  0  0  0  0  0  0  0  0  0  0  0
  161.2280  211.2620  154.4130 C   0  0  0  0  0  2  0  0  0  0  0  0
  160.3950  210.9770  155.6560 C   0  0  1  0  0  3  0  0  0  0  0  0
  161.3210  210.9030  156.8570 C   0  0  0  0  0  2  0  0  0  0  0  0
  162.3940  210.0550  156.5780 O   0  0  0  0  0  1  0  0  0  0  0  0
  159.4420  211.9800  155.8530 O   0  0  0  0  0  0  0  0  0  0  0  0
  158.2960  211.2990  156.2670 C   0  0  0  0  0  2  0  0  0  0  0  0
  157.2740  211.2820  155.1480 C   0  0  0  0  0  2  0  0  0  0  0  0
  156.5250  213.4880  154.3170 C   0  0  0  0  0  1  0  0  0  0  0  0
  156.2920  212.4140  155.3590 C   0  0  0  0  0  2  0  0  0  0  0  0
  161.6590  207.6140  153.6780 C   0  0  0  0  0  2  0  0  0  0  0  0
  160.9510  205.5470  154.6350 O   0  0  0  0  0  1  0  0  0  0  0  0
  160.5320  206.8480  154.3540 C   0  0  1  0  0  3  0  0  0  0  0  0
  160.4360  206.7760  156.7540 O   0  0  0  0  0  1  0  0  0  0  0  0
  160.0970  207.5400  155.6380 C   0  0  0  0  0  2  0  0  0  0  0  0
  162.3710  207.0490  151.5360 C   0  0  0  0  0  2  0  0  0  0  0  0
  161.6900  206.1410  150.5230 C   0  0  1  0  0  3  0  0  0  0  0  0
  160.7820  205.1010  151.1900 C   0  0  0  0  0  2  0  0  0  0  0  0
  161.5410  203.9630  151.8650 C   0  0  0  0  0  2  0  0  0  0  0  0
  161.3580  202.6670  151.0960 C   0  0  0  0  0  2  0  0  0  0  0  0
  160.5410  202.9030  149.8340 C   0  0  0  0  0  2  0  0  0  0  0  0
  160.0930  201.5880  149.2080 C   0  0  0  0  0  2  0  0  0  0  0  0
  161.2630  200.8940  148.5280 C   0  0  0  0  0  2  0  0  0  0  0  0
  161.0490  200.8650  147.0270 C   0  0  0  0  0  2  0  0  0  0  0  0
  161.4490  199.6320  146.5080 O   0  0  0  0  0  1  0  0  0  0  0  0
  160.9630  206.9660  149.4680 C   0  0  0  0  0  2  0  0  0  0  0  0
  160.3230  206.0700  148.4120 C   0  0  0  0  0  2  0  0  0  0  0  0
  162.2880  206.7970  147.2340 O   0  0  0  0  0  1  0  0  0  0  0  0
  161.1310  206.0220  147.1170 C   0  0  1  0  0  3  0  0  0  0  0  0
  161.4680  204.7050  146.7890 O   0  0  0  0  0  0  0  0  0  0  0  0
  162.7960  204.7690  146.3700 C   0  0  0  0  0  1  0  0  0  0  0  0
  1 17  1  0  0  0  0
  2  4  1  6  0  0  0
  2  1  1  0  0  0  0
  2  5  1  0  0  0  0
  4  3  1  0  0  0  0
  5  6  1  0  0  0  0
  6  8  1  0  0  0  0
  7  6  2  0  0  0  0
  9  8  1  6  0  0  0
  9 12  1  0  0  0  0
  9 10  1  0  0  0  0
 11 10  1  0  0  0  0
 12 13  1  0  0  0  0
 14 16  1  0  0  0  0
 14 13  1  0  0  0  0
 15 16  1  0  0  0  0
 17 19  1  0  0  0  0
 19 18  1  1  0  0  0
 19 21  1  0  0  0  0
 21 20  1  0  0  0  0
 22  1  1  0  0  0  0
 23 32  1  6  0  0  0
 23 24  1  0  0  0  0
 23 22  1  0  0  0  0
 24 25  1  0  0  0  0
 26 25  1  0  0  0  0
 27 26  1  0  0  0  0
 28 27  1  0  0  0  0
 29 28  1  0  0  0  0
 30 29  1  0  0  0  0
 31 30  1  0  0  0  0
 33 32  1  0  0  0  0
 35 34  1  1  0  0  0
 35 33  1  0  0  0  0
 36 35  1  0  0  0  0
 37 36  1  0  0  0  0
M  END
>  <MODEL>
6

>  <REMARK>
 VINA RESULT:      -4.8      1.739      5.954
  Name = 
  27 active torsions:
  status: ('A' for Active; 'I' for Inactive)
    1  A    between atoms: O_1  and  C_23
    2  A    between atoms: C_2  and  C_8
    3  A    between atoms: C_3  and  C_15
    4  A    between atoms: C_3  and  C_30
    5  A    between atoms: C_4  and  N_10
    6  A    between atoms: C_4  and  C_24
    7  A    between atoms: O_6  and  C_8
    8  A    between atoms: O_6  and  C_31
    9  A    between atoms: C_7  and  C_33
   10  A    between atoms: C_7  and  C_36
   11  A    between atoms: C_8  and  C_19
   12  A    between atoms: N_10  and  C_13
   13  A    between atoms: N_10  and  C_30
   14  A    between atoms: C_11  and  C_26
   15  A    between atoms: C_13  and  C_20
   16  A    between atoms: C_14  and  C_31
   17  A    between atoms: C_14  and  C_37
   18  A    between atoms: C_15  and  C_19
   19  A    between atoms: C_17  and  C_26
   20  A    between atoms: C_17  and  C_33
   21  A    between atoms: C_20  and  C_21
   22  A    between atoms: C_20  and  C_29
   23  A    between atoms: C_21  and  C_25
   24  A    between atoms: C_23  and  C_25
   25  A    between atoms: C_24  and  C_28
   26  A    between atoms: C_29  and  C_36
   27  A    between atoms: C_30  and  C_32
                            x       y       z     vdW  Elec       q    Type
                         _______ _______ _______ _____ _____    ______ ____

>  <TORSDO>
F 27

$$$$
=
 OpenBabel11062409163D

 37 36  0  0  1  0  0  0  0  0999 V2000
  160.8750  204.4840  149.3330 N   0  0  0  0  0  0  0  0  0  0  0  0
  160.6390  204.5600  150.7880 C   0  0  1  0  0  3  0  0  0  0  0  0
  160.7530  202.8850  152.5010 O   0  0  0  0  0  1  0  0  0  0  0  0
  161.5370  203.6650  151.6520 C   0  0  0  0  0  2  0  0  0  0  0  0
  160.7440  206.0080  151.2800 C   0  0  0  0  0  2  0  0  0  0  0  0
  161.7700  206.2160  152.3620 C   0  0  0  0  0  0  0  0  0  0  0  0
  162.9640  206.1860  152.1060 O   0  0  0  0  0  0  0  0  0  0  0  0
  161.3180  206.3580  153.7820 C   0  0  0  0  0  2  0  0  0  0  0  0
  160.7300  207.7350  154.0590 C   0  0  1  0  0  3  0  0  0  0  0  0
  160.7860  207.9980  155.5540 C   0  0  0  0  0  2  0  0  0  0  0  0
  160.0640  207.0180  156.2350 O   0  0  0  0  0  1  0  0  0  0  0  0
  161.4440  208.7240  153.3770 O   0  0  0  0  0  0  0  0  0  0  0  0
  160.4800  209.6640  153.0100 C   0  0  0  0  0  2  0  0  0  0  0  0
  161.0450  211.0630  153.1460 C   0  0  0  0  0  2  0  0  0  0  0  0
  158.6300  211.4280  152.7530 C   0  0  0  0  0  1  0  0  0  0  0  0
  160.0040  212.0640  152.6940 C   0  0  0  0  0  2  0  0  0  0  0  0
  161.4400  203.1630  149.0810 C   0  0  0  0  0  2  0  0  0  0  0  0
  161.0000  201.5210  147.4070 O   0  0  0  0  0  1  0  0  0  0  0  0
  160.4060  202.2520  148.4380 C   0  0  1  0  0  3  0  0  0  0  0  0
  158.4360  201.1380  149.2460 O   0  0  0  0  0  1  0  0  0  0  0  0
  159.8040  201.3040  149.4650 C   0  0  0  0  0  2  0  0  0  0  0  0
  161.8860  205.4380  148.8780 C   0  0  0  0  0  2  0  0  0  0  0  0
  161.2070  206.6890  148.3410 C   0  0  1  0  0  3  0  0  0  0  0  0
  162.1930  207.8470  148.1440 C   0  0  0  0  0  2  0  0  0  0  0  0
  162.0240  208.9810  149.1510 C   0  0  0  0  0  2  0  0  0  0  0  0
  162.0380  210.3260  148.4490 C   0  0  0  0  0  2  0  0  0  0  0  0
  161.8210  211.4550  149.4490 C   0  0  0  0  0  2  0  0  0  0  0  0
  161.6430  212.7940  148.7450 C   0  0  0  0  0  2  0  0  0  0  0  0
  160.5930  212.6880  147.6500 C   0  0  0  0  0  2  0  0  0  0  0  0
  160.9840  213.5540  146.4690 C   0  0  0  0  0  2  0  0  0  0  0  0
  162.0400  212.9670  145.7700 O   0  0  0  0  0  1  0  0  0  0  0  0
  160.4150  206.3710  147.0800 C   0  0  0  0  0  2  0  0  0  0  0  0
  161.3280  206.2960  145.8590 C   0  0  0  0  0  2  0  0  0  0  0  0
  161.3540  205.2700  143.6850 O   0  0  0  0  0  1  0  0  0  0  0  0
  161.1070  205.0260  145.0390 C   0  0  1  0  0  3  0  0  0  0  0  0
  161.9250  203.9900  145.4970 O   0  0  0  0  0  0  0  0  0  0  0  0
  163.1900  204.5610  145.6240 C   0  0  0  0  0  1  0  0  0  0  0  0
  1  2  1  0  0  0  0
  2  5  1  1  0  0  0
  2  4  1  0  0  0  0
  4  3  1  0  0  0  0
  5  6  1  0  0  0  0
  6  8  1  0  0  0  0
  7  6  2  0  0  0  0
  9  8  1  1  0  0  0
  9 10  1  0  0  0  0
 10 11  1  0  0  0  0
 12  9  1  0  0  0  0
 13 14  1  0  0  0  0
 13 12  1  0  0  0  0
 16 15  1  0  0  0  0
 16 14  1  0  0  0  0
 17  1  1  0  0  0  0
 19 18  1  6  0  0  0
 19 17  1  0  0  0  0
 19 21  1  0  0  0  0
 20 21  1  0  0  0  0
 22  1  1  0  0  0  0
 23 32  1  6  0  0  0
 23 22  1  0  0  0  0
 24 23  1  0  0  0  0
 24 25  1  0  0  0  0
 26 25  1  0  0  0  0
 26 27  1  0  0  0  0
 28 27  1  0  0  0  0
 29 28  1  0  0  0  0
 30 29  1  0  0  0  0
 31 30  1  0  0  0  0
 33 32  1  0  0  0  0
 35 34  1  6  0  0  0
 35 36  1  0  0  0  0
 35 33  1  0  0  0  0
 36 37  1  0  0  0  0
M  END
>  <MODEL>
7

>  <REMARK>
 VINA RESULT:      -4.8      2.181      5.892
  Name = 
  27 active torsions:
  status: ('A' for Active; 'I' for Inactive)
    1  A    between atoms: O_1  and  C_23
    2  A    between atoms: C_2  and  C_8
    3  A    between atoms: C_3  and  C_15
    4  A    between atoms: C_3  and  C_30
    5  A    between atoms: C_4  and  N_10
    6  A    between atoms: C_4  and  C_24
    7  A    between atoms: O_6  and  C_8
    8  A    between atoms: O_6  and  C_31
    9  A    between atoms: C_7  and  C_33
   10  A    between atoms: C_7  and  C_36
   11  A    between atoms: C_8  and  C_19
   12  A    between atoms: N_10  and  C_13
   13  A    between atoms: N_10  and  C_30
   14  A    between atoms: C_11  and  C_26
   15  A    between atoms: C_13  and  C_20
   16  A    between atoms: C_14  and  C_31
   17  A    between atoms: C_14  and  C_37
   18  A    between atoms: C_15  and  C_19
   19  A    between atoms: C_17  and  C_26
   20  A    between atoms: C_17  and  C_33
   21  A    between atoms: C_20  and  C_21
   22  A    between atoms: C_20  and  C_29
   23  A    between atoms: C_21  and  C_25
   24  A    between atoms: C_23  and  C_25
   25  A    between atoms: C_24  and  C_28
   26  A    between atoms: C_29  and  C_36
   27  A    between atoms: C_30  and  C_32
                            x       y       z     vdW  Elec       q    Type
                         _______ _______ _______ _____ _____    ______ ____

>  <TORSDO>
F 27

$$$$
=
 OpenBabel11062409163D

 37 36  0  0  1  0  0  0  0  0999 V2000
  160.8840  208.4090  153.5150 N   0  0  0  0  0  0  0  0  0  0  0  0
  161.1700  209.7630  153.0020 C   0  0  1  0  0  3  0  0  0  0  0  0
  161.8110  210.1730  150.7270 O   0  0  0  0  0  1  0  0  0  0  0  0
  162.3170  209.8580  151.9880 C   0  0  0  0  0  2  0  0  0  0  0  0
  159.9080  210.3920  152.4000 C   0  0  0  0  0  2  0  0  0  0  0  0
  159.6380  211.7960  152.8720 C   0  0  0  0  0  0  0  0  0  0  0  0
  160.2690  212.2750  153.8020 O   0  0  0  0  0  0  0  0  0  0  0  0
  158.5140  212.5720  152.2600 C   0  0  0  0  0  2  0  0  0  0  0  0
  158.9040  213.1800  150.9190 C   0  0  1  0  0  3  0  0  0  0  0  0
  157.7770  214.0800  150.4450 C   0  0  0  0  0  2  0  0  0  0  0  0
  156.6150  213.8050  151.1660 O   0  0  0  0  0  1  0  0  0  0  0  0
  160.0840  213.9190  151.0360 O   0  0  0  0  0  0  0  0  0  0  0  0
  160.4820  214.1570  149.7190 C   0  0  0  0  0  2  0  0  0  0  0  0
  161.0280  212.8830  149.1070 C   0  0  0  0  0  2  0  0  0  0  0  0
  162.3600  213.1070  147.0350 C   0  0  0  0  0  1  0  0  0  0  0  0
  160.9590  212.9900  147.6000 C   0  0  0  0  0  2  0  0  0  0  0  0
  161.1660  208.4480  154.9460 C   0  0  0  0  0  2  0  0  0  0  0  0
  159.5990  207.6930  156.5770 O   0  0  0  0  0  1  0  0  0  0  0  0
  159.9020  208.7610  155.7320 C   0  0  1  0  0  3  0  0  0  0  0  0
  158.8580  210.7110  156.6730 O   0  0  0  0  0  1  0  0  0  0  0  0
  160.0720  210.0350  156.5490 C   0  0  0  0  0  2  0  0  0  0  0  0
  161.7850  207.3970  152.9640 C   0  0  0  0  0  2  0  0  0  0  0  0
  161.0190  206.4850  152.0190 C   0  0  1  0  0  3  0  0  0  0  0  0
  161.4960  206.6160  150.5680 C   0  0  0  0  0  2  0  0  0  0  0  0
  160.4570  206.1900  149.5350 C   0  0  0  0  0  2  0  0  0  0  0  0
  160.6560  206.9430  148.2330 C   0  0  0  0  0  2  0  0  0  0  0  0
  161.3030  206.0450  147.1870 C   0  0  0  0  0  2  0  0  0  0  0  0
  160.6140  206.1800  145.8350 C   0  0  0  0  0  2  0  0  0  0  0  0
  161.3510  205.3740  144.7770 C   0  0  0  0  0  2  0  0  0  0  0  0
  161.9630  204.1340  145.4000 C   0  0  0  0  0  2  0  0  0  0  0  0
  163.3540  204.1810  145.2960 O   0  0  0  0  0  1  0  0  0  0  0  0
  161.0490  205.0470  152.5200 C   0  0  0  0  0  2  0  0  0  0  0  0
  162.0700  204.2150  151.7480 C   0  0  0  0  0  2  0  0  0  0  0  0
  160.4880  202.4560  152.1720 O   0  0  0  0  0  1  0  0  0  0  0  0
  161.5130  202.8600  151.3140 C   0  0  1  0  0  3  0  0  0  0  0  0
  161.0440  202.9140  149.9980 O   0  0  0  0  0  0  0  0  0  0  0  0
  160.2790  201.7580  149.8430 C   0  0  0  0  0  1  0  0  0  0  0  0
  1 17  1  0  0  0  0
  2  4  1  6  0  0  0
  2  1  1  0  0  0  0
  3  4  1  0  0  0  0
  5  6  1  0  0  0  0
  5  2  1  0  0  0  0
  6  7  2  0  0  0  0
  8  6  1  0  0  0  0
  9 10  1  1  0  0  0
  9 12  1  0  0  0  0
  9  8  1  0  0  0  0
 10 11  1  0  0  0  0
 13 12  1  0  0  0  0
 14 13  1  0  0  0  0
 15 16  1  0  0  0  0
 16 14  1  0  0  0  0
 17 19  1  0  0  0  0
 19 21  1  0  0  0  0
 19 18  1  1  0  0  0
 21 20  1  0  0  0  0
 22  1  1  0  0  0  0
 23 24  1  6  0  0  0
 23 32  1  0  0  0  0
 23 22  1  0  0  0  0
 25 24  1  0  0  0  0
 26 25  1  0  0  0  0
 27 26  1  0  0  0  0
 28 27  1  0  0  0  0
 29 30  1  0  0  0  0
 29 28  1  0  0  0  0
 31 30  1  0  0  0  0
 33 32  1  0  0  0  0
 35 33  1  0  0  0  0
 35 34  1  1  0  0  0
 36 35  1  0  0  0  0
 37 36  1  0  0  0  0
M  END
>  <MODEL>
8

>  <REMARK>
 VINA RESULT:      -4.6      2.119      6.718
  Name = 
  27 active torsions:
  status: ('A' for Active; 'I' for Inactive)
    1  A    between atoms: O_1  and  C_23
    2  A    between atoms: C_2  and  C_8
    3  A    between atoms: C_3  and  C_15
    4  A    between atoms: C_3  and  C_30
    5  A    between atoms: C_4  and  N_10
    6  A    between atoms: C_4  and  C_24
    7  A    between atoms: O_6  and  C_8
    8  A    between atoms: O_6  and  C_31
    9  A    between atoms: C_7  and  C_33
   10  A    between atoms: C_7  and  C_36
   11  A    between atoms: C_8  and  C_19
   12  A    between atoms: N_10  and  C_13
   13  A    between atoms: N_10  and  C_30
   14  A    between atoms: C_11  and  C_26
   15  A    between atoms: C_13  and  C_20
   16  A    between atoms: C_14  and  C_31
   17  A    between atoms: C_14  and  C_37
   18  A    between atoms: C_15  and  C_19
   19  A    between atoms: C_17  and  C_26
   20  A    between atoms: C_17  and  C_33
   21  A    between atoms: C_20  and  C_21
   22  A    between atoms: C_20  and  C_29
   23  A    between atoms: C_21  and  C_25
   24  A    between atoms: C_23  and  C_25
   25  A    between atoms: C_24  and  C_28
   26  A    between atoms: C_29  and  C_36
   27  A    between atoms: C_30  and  C_32
                            x       y       z     vdW  Elec       q    Type
                         _______ _______ _______ _____ _____    ______ ____

>  <TORSDO>
F 27

$$$$
=
 OpenBabel11062409163D

 37 36  0  0  1  0  0  0  0  0999 V2000
  161.0240  207.3700  150.8160 N   0  0  0  0  0  0  0  0  0  0  0  0
  160.9380  208.8430  150.8360 C   0  0  1  0  0  3  0  0  0  0  0  0
  160.2130  210.7860  152.0410 O   0  0  0  0  0  1  0  0  0  0  0  0
  160.6480  209.4710  152.2050 C   0  0  0  0  0  2  0  0  0  0  0  0
  162.2090  209.4690  150.2490 C   0  0  0  0  0  2  0  0  0  0  0  0
  161.9770  210.2670  148.9940 C   0  0  0  0  0  0  0  0  0  0  0  0
  161.5810  209.7260  147.9730 O   0  0  0  0  0  0  0  0  0  0  0  0
  162.3330  211.7210  148.9730 C   0  0  0  0  0  2  0  0  0  0  0  0
  161.1910  212.5820  148.4510 C   0  0  1  0  0  3  0  0  0  0  0  0
  160.4410  213.1690  149.6340 C   0  0  0  0  0  2  0  0  0  0  0  0
  160.9170  214.4510  149.9080 O   0  0  0  0  0  1  0  0  0  0  0  0
  161.6790  213.6110  147.6410 O   0  0  0  0  0  0  0  0  0  0  0  0
  162.2710  212.9560  146.5590 C   0  0  0  0  0  2  0  0  0  0  0  0
  162.4030  213.9100  145.3890 C   0  0  0  0  0  2  0  0  0  0  0  0
  160.4270  212.5390  144.8080 C   0  0  0  0  0  1  0  0  0  0  0  0
  161.5250  213.4250  144.2560 C   0  0  0  0  0  2  0  0  0  0  0  0
  162.3600  207.0350  151.2970 C   0  0  0  0  0  2  0  0  0  0  0  0
  163.5060  205.2840  152.4430 O   0  0  0  0  0  1  0  0  0  0  0  0
  162.2880  205.9630  152.3740 C   0  0  1  0  0  3  0  0  0  0  0  0
  160.5810  206.5890  153.9460 O   0  0  0  0  0  1  0  0  0  0  0  0
  161.9590  206.5750  153.7280 C   0  0  0  0  0  2  0  0  0  0  0  0
  160.9430  206.8200  149.4630 C   0  0  0  0  0  2  0  0  0  0  0  0
  161.2720  205.3350  149.4900 C   0  0  1  0  0  3  0  0  0  0  0  0
  160.1570  204.5040  150.1360 C   0  0  0  0  0  2  0  0  0  0  0  0
  160.6460  203.2090  150.7780 C   0  0  0  0  0  2  0  0  0  0  0  0
  160.0940  202.0040  150.0380 C   0  0  0  0  0  2  0  0  0  0  0  0
  161.1990  200.9930  149.7600 C   0  0  0  0  0  2  0  0  0  0  0  0
  161.4930  200.8850  148.2690 C   0  0  0  0  0  2  0  0  0  0  0  0
  160.4420  201.6320  147.4620 C   0  0  0  0  0  2  0  0  0  0  0  0
  160.5870  201.3020  145.9890 C   0  0  0  0  0  2  0  0  0  0  0  0
  160.8300  202.4660  145.2570 O   0  0  0  0  0  1  0  0  0  0  0  0
  161.6410  204.8420  148.0970 C   0  0  0  0  0  2  0  0  0  0  0  0
  161.3690  205.9120  147.0440 C   0  0  0  0  0  2  0  0  0  0  0  0
  163.1410  204.6930  145.9700 O   0  0  0  0  0  1  0  0  0  0  0  0
  162.3310  205.8260  145.8600 C   0  0  1  0  0  3  0  0  0  0  0  0
  161.6300  205.7980  144.6500 O   0  0  0  0  0  0  0  0  0  0  0  0
  160.2860  205.8850  145.0130 C   0  0  0  0  0  1  0  0  0  0  0  0
  1  2  1  0  0  0  0
  1 17  1  0  0  0  0
  2  5  1  1  0  0  0
  2  4  1  0  0  0  0
  3  4  1  0  0  0  0
  6  5  1  0  0  0  0
  7  6  2  0  0  0  0
  8  6  1  0  0  0  0
  9  8  1  1  0  0  0
  9 10  1  0  0  0  0
 10 11  1  0  0  0  0
 12  9  1  0  0  0  0
 13 12  1  0  0  0  0
 14 13  1  0  0  0  0
 16 15  1  0  0  0  0
 16 14  1  0  0  0  0
 17 19  1  0  0  0  0
 19 18  1  1  0  0  0
 19 21  1  0  0  0  0
 21 20  1  0  0  0  0
 22 23  1  0  0  0  0
 22  1  1  0  0  0  0
 23 32  1  6  0  0  0
 23 24  1  0  0  0  0
 24 25  1  0  0  0  0
 26 25  1  0  0  0  0
 27 26  1  0  0  0  0
 28 27  1  0  0  0  0
 29 28  1  0  0  0  0
 30 29  1  0  0  0  0
 31 30  1  0  0  0  0
 33 32  1  0  0  0  0
 35 34  1  1  0  0  0
 35 33  1  0  0  0  0
 36 37  1  0  0  0  0
 36 35  1  0  0  0  0
M  END
>  <MODEL>
9

>  <REMARK>
 VINA RESULT:      -4.5      2.699      6.928
  Name = 
  27 active torsions:
  status: ('A' for Active; 'I' for Inactive)
    1  A    between atoms: O_1  and  C_23
    2  A    between atoms: C_2  and  C_8
    3  A    between atoms: C_3  and  C_15
    4  A    between atoms: C_3  and  C_30
    5  A    between atoms: C_4  and  N_10
    6  A    between atoms: C_4  and  C_24
    7  A    between atoms: O_6  and  C_8
    8  A    between atoms: O_6  and  C_31
    9  A    between atoms: C_7  and  C_33
   10  A    between atoms: C_7  and  C_36
   11  A    between atoms: C_8  and  C_19
   12  A    between atoms: N_10  and  C_13
   13  A    between atoms: N_10  and  C_30
   14  A    between atoms: C_11  and  C_26
   15  A    between atoms: C_13  and  C_20
   16  A    between atoms: C_14  and  C_31
   17  A    between atoms: C_14  and  C_37
   18  A    between atoms: C_15  and  C_19
   19  A    between atoms: C_17  and  C_26
   20  A    between atoms: C_17  and  C_33
   21  A    between atoms: C_20  and  C_21
   22  A    between atoms: C_20  and  C_29
   23  A    between atoms: C_21  and  C_25
   24  A    between atoms: C_23  and  C_25
   25  A    between atoms: C_24  and  C_28
   26  A    between atoms: C_29  and  C_36
   27  A    between atoms: C_30  and  C_32
                            x       y       z     vdW  Elec       q    Type
                         _______ _______ _______ _____ _____    ______ ____

>  <TORSDO>
F 27

$$$$
