=
 OpenBabel11062408153D

 32 35  0  0  1  0  0  0  0  0999 V2000
  159.4610  212.1610  138.0860 C   0  0  1  0  0  3  0  0  0  0  0  0
  160.4420  211.9610  139.2610 C   0  0  2  0  0  3  0  0  0  0  0  0
  158.9920  210.8720  137.3820 C   0  0  2  0  0  3  0  0  0  0  0  0
  162.0940  207.4740  139.9530 C   0  0  0  0  0  3  0  0  0  0  0  0
  160.1780  210.7130  140.0870 C   0  0  0  0  0  2  0  0  0  0  0  0
  161.4180  207.9780  137.6890 C   0  0  0  0  0  3  0  0  0  0  0  0
  160.7950  209.1580  138.1110 C   0  0  0  0  0  0  0  0  0  0  0  0
  157.9390  210.0360  138.1240 C   0  0  0  0  0  2  0  0  0  0  0  0
  158.4230  213.2480  138.2020 C   0  0  0  0  0  0  0  0  0  0  0  0
  160.2020  210.0130  137.0110 C   0  0  0  0  0  2  0  0  0  0  0  0
  157.1910  213.1460  139.0610 C   0  0  0  0  0  2  0  0  0  0  0  0
  158.5820  214.2660  137.5510 O   0  0  0  0  0  0  0  0  0  0  0  0
  156.6630  210.7960  138.4330 C   0  0  0  0  0  2  0  0  0  0  0  0
  160.8500  209.5110  139.4920 C   0  0  0  0  0  0  0  0  0  0  0  0
  156.9080  211.7500  139.5860 C   0  0  0  0  0  2  0  0  0  0  0  0
  162.0600  207.1380  138.6010 C   0  0  0  0  0  3  0  0  0  0  0  0
  161.4890  208.6510  140.3930 C   0  0  0  0  0  3  0  0  0  0  0  0
  160.4530  214.3530  139.4380 O   0  0  0  0  0  1  0  0  0  0  0  0
  160.9820  213.1970  140.0230 C   0  0  1  0  0  0  0  0  0  0  0  0
  160.8630  212.4840  143.7310 C   0  0  0  0  0  3  0  0  0  0  0  0
  158.8580  213.6510  143.1080 C   0  0  0  0  0  3  0  0  0  0  0  0
  160.5230  213.1450  141.4370 N   0  0  0  0  0  0  0  0  0  0  0  0
  159.6390  213.0470  144.0960 C   0  0  0  0  0  0  0  0  0  0  0  0
  159.3160  213.6870  141.7920 C   0  0  0  0  0  3  0  0  0  0  0  0
  161.2930  212.5330  142.4040 C   0  0  0  0  0  0  0  0  0  0  0  0
  162.4010  212.0060  142.1110 O   0  0  0  0  0  0  0  0  0  0  0  0
  159.9710  213.3310  146.4620 N   0  0  0  0  0  2  0  0  0  0  0  0
  157.7850  212.5740  145.8330 C   0  0  0  0  0  1  0  0  0  0  0  0
  159.1750  213.0020  145.4990 C   0  0  0  0  0  0  0  0  0  0  0  0
  162.5280  213.2670  139.9240 C   0  0  0  0  0  2  0  0  0  0  0  0
  163.1080  212.6820  138.6420 C   0  0  0  0  0  2  0  0  0  0  0  0
  163.9290  211.4450  138.9470 C   0  0  0  0  0  1  0  0  0  0  0  0
  1  9  1  1  0  0  0
  1  2  1  0  0  0  0
  2 19  1  1  0  0  0
  2  5  1  0  0  0  0
  3 10  1  1  0  0  0
  3  1  1  0  0  0  0
  3  8  1  0  0  0  0
  4 17  1  0  0  0  0
  6  7  2  0  0  0  0
  6 16  1  0  0  0  0
  7 14  1  0  0  0  0
  8 13  1  0  0  0  0
  9 11  1  0  0  0  0
 10  7  1  0  0  0  0
 11 15  1  0  0  0  0
 12  9  2  0  0  0  0
 13 15  1  0  0  0  0
 14  5  1  0  0  0  0
 14 17  2  0  0  0  0
 16  4  2  0  0  0  0
 19 18  1  6  0  0  0
 19 22  1  0  0  0  0
 20 23  2  0  0  0  0
 21 23  1  0  0  0  0
 22 24  1  0  0  0  0
 22 25  1  0  0  0  0
 23 29  1  0  0  0  0
 24 21  2  0  0  0  0
 25 20  1  0  0  0  0
 26 25  2  0  0  0  0
 29 28  1  0  0  0  0
 29 27  2  0  0  0  0
 30 19  1  0  0  0  0
 31 32  1  0  0  0  0
 31 30  1  0  0  0  0
M  END
>  <MODEL>
1

>  <REMARK>
 VINA RESULT:      -4.6      0.000      0.000
  Name = 
  5 active torsions:
  status: ('A' for Active; 'I' for Inactive)
    1  A    between atoms: C_1  and  C_4
    2  A    between atoms: C_1  and  C_27
    3  A    between atoms: C_5  and  C_27
    4  A    between atoms: N_16  and  C_27
    5  A    between atoms: C_19  and  C_26
                            x       y       z     vdW  Elec       q    Type
                         _______ _______ _______ _____ _____    ______ ____

>  <TORSDO>
F 5

$$$$
=
 OpenBabel11062408153D

 32 35  0  0  1  0  0  0  0  0999 V2000
  159.8350  209.7570  155.4620 C   0  0  1  0  0  3  0  0  0  0  0  0
  160.1150  210.2020  154.0120 C   0  0  2  0  0  3  0  0  0  0  0  0
  160.4580  208.4100  155.8780 C   0  0  2  0  0  3  0  0  0  0  0  0
  162.3530  207.0040  151.1650 C   0  0  0  0  0  3  0  0  0  0  0  0
  161.4980  209.8300  153.5010 C   0  0  0  0  0  2  0  0  0  0  0  0
  161.0870  206.0450  152.9850 C   0  0  0  0  0  3  0  0  0  0  0  0
  160.9530  207.3010  153.5870 C   0  0  0  0  0  0  0  0  0  0  0  0
  161.9660  208.4170  156.1670 C   0  0  0  0  0  2  0  0  0  0  0  0
  159.8030  210.8130  156.5380 C   0  0  0  0  0  0  0  0  0  0  0  0
  160.1110  207.3360  154.8460 C   0  0  0  0  0  2  0  0  0  0  0  0
  161.0290  211.4760  157.1020 C   0  0  0  0  0  2  0  0  0  0  0  0
  158.7180  211.1400  156.9900 O   0  0  0  0  0  0  0  0  0  0  0  0
  162.3730  209.3870  157.2610 C   0  0  0  0  0  2  0  0  0  0  0  0
  161.5170  208.4390  152.9400 C   0  0  0  0  0  0  0  0  0  0  0  0
  162.3370  210.8030  156.7210 C   0  0  0  0  0  2  0  0  0  0  0  0
  161.7850  205.8930  151.7850 C   0  0  0  0  0  3  0  0  0  0  0  0
  162.2210  208.2670  151.7420 C   0  0  0  0  0  3  0  0  0  0  0  0
  159.8920  212.5640  154.3690 O   0  0  0  0  0  1  0  0  0  0  0  0
  159.5200  211.5360  153.4940 C   0  0  1  0  0  0  0  0  0  0  0  0
  160.3340  213.3280  150.2700 C   0  0  0  0  0  3  0  0  0  0  0  0
  161.4350  211.1940  150.2620 C   0  0  0  0  0  3  0  0  0  0  0  0
  160.0890  211.8440  152.1540 N   0  0  0  0  0  0  0  0  0  0  0  0
  161.1610  212.4060  149.6260 C   0  0  0  0  0  0  0  0  0  0  0  0
  160.8900  210.9340  151.5180 C   0  0  0  0  0  3  0  0  0  0  0  0
  159.8010  213.0380  151.5270 C   0  0  0  0  0  0  0  0  0  0  0  0
  159.0510  213.8930  152.0730 O   0  0  0  0  0  0  0  0  0  0  0  0
  161.0320  213.3320  147.4080 N   0  0  0  0  0  2  0  0  0  0  0  0
  163.1210  212.2880  147.9460 C   0  0  0  0  0  1  0  0  0  0  0  0
  161.7320  212.7040  148.2950 C   0  0  0  0  0  0  0  0  0  0  0  0
  157.9710  211.4660  153.4590 C   0  0  0  0  0  2  0  0  0  0  0  0
  157.2700  212.4720  154.3640 C   0  0  0  0  0  2  0  0  0  0  0  0
  155.9880  211.8830  154.9170 C   0  0  0  0  0  1  0  0  0  0  0  0
  1  3  1  0  0  0  0
  1  9  1  1  0  0  0
  2 19  1  1  0  0  0
  2  1  1  0  0  0  0
  3 10  1  6  0  0  0
  3  8  1  0  0  0  0
  4 17  2  0  0  0  0
  4 16  1  0  0  0  0
  5  2  1  0  0  0  0
  6  7  1  0  0  0  0
  7 10  1  0  0  0  0
  8 13  1  0  0  0  0
  9 12  2  0  0  0  0
  9 11  1  0  0  0  0
 14  5  1  0  0  0  0
 14  7  2  0  0  0  0
 15 11  1  0  0  0  0
 15 13  1  0  0  0  0
 16  6  2  0  0  0  0
 17 14  1  0  0  0  0
 19 18  1  1  0  0  0
 20 25  1  0  0  0  0
 21 24  2  0  0  0  0
 22 19  1  0  0  0  0
 23 21  1  0  0  0  0
 23 20  2  0  0  0  0
 24 22  1  0  0  0  0
 25 26  2  0  0  0  0
 25 22  1  0  0  0  0
 27 29  2  0  0  0  0
 28 29  1  0  0  0  0
 29 23  1  0  0  0  0
 30 19  1  0  0  0  0
 30 31  1  0  0  0  0
 31 32  1  0  0  0  0
M  END
>  <MODEL>
2

>  <REMARK>
 VINA RESULT:      -4.6      9.276     14.191
  Name = 
  5 active torsions:
  status: ('A' for Active; 'I' for Inactive)
    1  A    between atoms: C_1  and  C_4
    2  A    between atoms: C_1  and  C_27
    3  A    between atoms: C_5  and  C_27
    4  A    between atoms: N_16  and  C_27
    5  A    between atoms: C_19  and  C_26
                            x       y       z     vdW  Elec       q    Type
                         _______ _______ _______ _____ _____    ______ ____

>  <TORSDO>
F 5

$$$$
=
 OpenBabel11062408153D

 32 35  0  0  1  0  0  0  0  0999 V2000
  158.5670  212.7750  154.9950 C   0  0  1  0  0  3  0  0  0  0  0  0
  159.5100  211.7470  154.3350 C   0  0  2  0  0  3  0  0  0  0  0  0
  157.9300  213.8030  154.0400 C   0  0  2  0  0  3  0  0  0  0  0  0
  160.5390  212.4460  149.6670 C   0  0  0  0  0  3  0  0  0  0  0  0
  159.0780  211.3070  152.9450 C   0  0  0  0  0  2  0  0  0  0  0  0
  159.9420  214.4390  150.8930 C   0  0  0  0  0  3  0  0  0  0  0  0
  159.4830  213.6710  151.9690 C   0  0  0  0  0  0  0  0  0  0  0  0
  156.7720  213.2970  153.1680 C   0  0  0  0  0  2  0  0  0  0  0  0
  157.6850  212.3100  156.1260 C   0  0  0  0  0  0  0  0  0  0  0  0
  159.0120  214.4530  153.1770 C   0  0  0  0  0  2  0  0  0  0  0  0
  156.4490  211.4720  155.9380 C   0  0  0  0  0  2  0  0  0  0  0  0
  157.9810  212.6440  157.2600 O   0  0  0  0  0  0  0  0  0  0  0  0
  155.6100  212.7330  153.9630 C   0  0  0  0  0  2  0  0  0  0  0  0
  159.5820  212.2500  151.8930 C   0  0  0  0  0  0  0  0  0  0  0  0
  155.9790  211.3630  154.4980 C   0  0  0  0  0  2  0  0  0  0  0  0
  160.4620  213.8350  149.7470 C   0  0  0  0  0  3  0  0  0  0  0  0
  160.0980  211.6610  150.7330 C   0  0  0  0  0  3  0  0  0  0  0  0
  159.3020  210.2220  156.1760 O   0  0  0  0  0  1  0  0  0  0  0  0
  160.2110  210.6800  155.2130 C   0  0  1  0  0  0  0  0  0  0  0  0
  160.5660  207.1590  153.8920 C   0  0  0  0  0  3  0  0  0  0  0  0
  161.7860  208.6470  152.4530 C   0  0  0  0  0  3  0  0  0  0  0  0
  160.6050  209.5230  154.3650 N   0  0  0  0  0  0  0  0  0  0  0  0
  161.3640  207.3520  152.7620 C   0  0  0  0  0  0  0  0  0  0  0  0
  161.3990  209.7120  153.2650 C   0  0  0  0  0  3  0  0  0  0  0  0
  160.1960  208.2460  154.6860 C   0  0  0  0  0  0  0  0  0  0  0  0
  159.4810  208.0300  155.7030 O   0  0  0  0  0  0  0  0  0  0  0  0
  162.4590  206.3990  150.8420 N   0  0  0  0  0  2  0  0  0  0  0  0
  161.3600  204.8160  152.2680 C   0  0  0  0  0  1  0  0  0  0  0  0
  161.7590  206.2090  151.9130 C   0  0  0  0  0  0  0  0  0  0  0  0
  161.4290  211.2940  155.9500 C   0  0  0  0  0  2  0  0  0  0  0  0
  162.3570  210.2750  156.6000 C   0  0  0  0  0  2  0  0  0  0  0  0
  163.6320  210.9450  157.0740 C   0  0  0  0  0  1  0  0  0  0  0  0
  1  9  1  6  0  0  0
  2  1  1  0  0  0  0
  2 19  1  1  0  0  0
  3  8  1  6  0  0  0
  3  1  1  0  0  0  0
  4 16  2  0  0  0  0
  4 17  1  0  0  0  0
  5  2  1  0  0  0  0
  6  7  2  0  0  0  0
  7 10  1  0  0  0  0
  8 13  1  0  0  0  0
  9 12  2  0  0  0  0
 10  3  1  0  0  0  0
 11  9  1  0  0  0  0
 13 15  1  0  0  0  0
 14  7  1  0  0  0  0
 14  5  1  0  0  0  0
 15 11  1  0  0  0  0
 16  6  1  0  0  0  0
 17 14  2  0  0  0  0
 19 30  1  0  0  0  0
 19 18  1  1  0  0  0
 20 25  1  0  0  0  0
 21 23  1  0  0  0  0
 21 24  2  0  0  0  0
 22 25  1  0  0  0  0
 22 19  1  0  0  0  0
 23 20  2  0  0  0  0
 24 22  1  0  0  0  0
 25 26  2  0  0  0  0
 27 29  2  0  0  0  0
 29 28  1  0  0  0  0
 29 23  1  0  0  0  0
 30 31  1  0  0  0  0
 31 32  1  0  0  0  0
M  END
>  <MODEL>
3

>  <REMARK>
 VINA RESULT:      -3.3     11.080     14.557
  Name = 
  5 active torsions:
  status: ('A' for Active; 'I' for Inactive)
    1  A    between atoms: C_1  and  C_4
    2  A    between atoms: C_1  and  C_27
    3  A    between atoms: C_5  and  C_27
    4  A    between atoms: N_16  and  C_27
    5  A    between atoms: C_19  and  C_26
                            x       y       z     vdW  Elec       q    Type
                         _______ _______ _______ _____ _____    ______ ____

>  <TORSDO>
F 5

$$$$
=
 OpenBabel11062408153D

 32 35  0  0  1  0  0  0  0  0999 V2000
  159.6060  210.0660  155.5380 C   0  0  1  0  0  3  0  0  0  0  0  0
  159.7020  210.6760  154.1230 C   0  0  2  0  0  3  0  0  0  0  0  0
  160.4570  208.8040  155.7790 C   0  0  2  0  0  3  0  0  0  0  0  0
  162.1750  208.1340  150.8420 C   0  0  0  0  0  3  0  0  0  0  0  0
  161.0820  210.5740  153.4930 C   0  0  0  0  0  2  0  0  0  0  0  0
  161.2140  206.8310  152.6350 C   0  0  0  0  0  3  0  0  0  0  0  0
  160.9370  207.9920  153.3650 C   0  0  0  0  0  0  0  0  0  0  0  0
  161.9640  209.0260  155.9730 C   0  0  0  0  0  2  0  0  0  0  0  0
  159.4960  211.0060  156.7120 C   0  0  0  0  0  0  0  0  0  0  0  0
  160.1990  207.7830  154.6700 C   0  0  0  0  0  2  0  0  0  0  0  0
  160.6480  211.8040  157.2610 C   0  0  0  0  0  2  0  0  0  0  0  0
  158.4130  211.1160  157.2610 O   0  0  0  0  0  0  0  0  0  0  0  0
  162.3020  209.9490  157.1290 C   0  0  0  0  0  2  0  0  0  0  0  0
  161.2700  209.2580  152.7980 C   0  0  0  0  0  0  0  0  0  0  0  0
  162.0090  211.3830  156.7350 C   0  0  0  0  0  2  0  0  0  0  0  0
  161.8320  206.8970  151.3850 C   0  0  0  0  0  3  0  0  0  0  0  0
  161.8970  209.3040  151.5480 C   0  0  0  0  0  3  0  0  0  0  0  0
  159.1740  212.9420  154.7060 O   0  0  0  0  0  1  0  0  0  0  0  0
  158.8730  211.9380  153.7770 C   0  0  1  0  0  0  0  0  0  0  0  0
  158.7630  213.6850  150.4300 C   0  0  0  0  0  3  0  0  0  0  0  0
  160.8540  212.5200  150.6200 C   0  0  0  0  0  3  0  0  0  0  0  0
  159.2600  212.4290  152.4270 N   0  0  0  0  0  0  0  0  0  0  0  0
  159.9980  213.3380  149.8800 C   0  0  0  0  0  0  0  0  0  0  0  0
  160.4670  212.0770  151.8840 C   0  0  0  0  0  3  0  0  0  0  0  0
  158.4020  213.2240  151.6970 C   0  0  0  0  0  0  0  0  0  0  0  0
  157.2730  213.5520  152.1570 O   0  0  0  0  0  0  0  0  0  0  0  0
  161.5890  214.2590  148.3270 N   0  0  0  0  0  2  0  0  0  0  0  0
  159.4190  213.8200  147.4090 C   0  0  0  0  0  1  0  0  0  0  0  0
  160.3910  213.8220  148.5400 C   0  0  0  0  0  0  0  0  0  0  0  0
  157.3550  211.6360  153.8670 C   0  0  0  0  0  2  0  0  0  0  0  0
  156.6830  212.1300  155.1420 C   0  0  0  0  0  2  0  0  0  0  0  0
  155.8030  213.3280  154.8480 C   0  0  0  0  0  1  0  0  0  0  0  0
  1  3  1  0  0  0  0
  1  9  1  1  0  0  0
  2 19  1  1  0  0  0
  2  1  1  0  0  0  0
  3 10  1  6  0  0  0
  3  8  1  0  0  0  0
  4 16  2  0  0  0  0
  4 17  1  0  0  0  0
  5  2  1  0  0  0  0
  6  7  2  0  0  0  0
  7 10  1  0  0  0  0
  8 13  1  0  0  0  0
  9 12  2  0  0  0  0
  9 11  1  0  0  0  0
 14  7  1  0  0  0  0
 14  5  1  0  0  0  0
 15 13  1  0  0  0  0
 15 11  1  0  0  0  0
 16  6  1  0  0  0  0
 17 14  2  0  0  0  0
 19 30  1  0  0  0  0
 19 18  1  1  0  0  0
 20 25  1  0  0  0  0
 21 24  2  0  0  0  0
 22 19  1  0  0  0  0
 23 20  2  0  0  0  0
 23 21  1  0  0  0  0
 24 22  1  0  0  0  0
 25 26  2  0  0  0  0
 25 22  1  0  0  0  0
 27 29  2  0  0  0  0
 28 29  1  0  0  0  0
 29 23  1  0  0  0  0
 30 31  1  0  0  0  0
 32 31  1  0  0  0  0
M  END
>  <MODEL>
4

>  <REMARK>
 VINA RESULT:      -3.3      9.145     14.214
  Name = 
  5 active torsions:
  status: ('A' for Active; 'I' for Inactive)
    1  A    between atoms: C_1  and  C_4
    2  A    between atoms: C_1  and  C_27
    3  A    between atoms: C_5  and  C_27
    4  A    between atoms: N_16  and  C_27
    5  A    between atoms: C_19  and  C_26
                            x       y       z     vdW  Elec       q    Type
                         _______ _______ _______ _____ _____    ______ ____

>  <TORSDO>
F 5

$$$$
=
 OpenBabel11062408153D

 32 35  0  0  1  0  0  0  0  0999 V2000
  158.1550  211.8840  137.7670 C   0  0  1  0  0  3  0  0  0  0  0  0
  159.3310  212.1280  138.7360 C   0  0  2  0  0  3  0  0  0  0  0  0
  157.8530  210.4070  137.4450 C   0  0  2  0  0  3  0  0  0  0  0  0
  161.9570  208.2630  139.9630 C   0  0  0  0  0  3  0  0  0  0  0  0
  159.4650  211.0830  139.8310 C   0  0  0  0  0  2  0  0  0  0  0  0
  160.8380  208.1040  137.8280 C   0  0  0  0  0  3  0  0  0  0  0  0
  160.0620  209.2320  138.1230 C   0  0  0  0  0  0  0  0  0  0  0  0
  157.1270  209.6070  138.5350 C   0  0  0  0  0  2  0  0  0  0  0  0
  156.9480  212.7820  137.8710 C   0  0  0  0  0  0  0  0  0  0  0  0
  159.1370  209.6950  137.0170 C   0  0  0  0  0  2  0  0  0  0  0  0
  155.9180  212.6830  138.9630 C   0  0  0  0  0  2  0  0  0  0  0  0
  156.7890  213.6310  137.0110 O   0  0  0  0  0  0  0  0  0  0  0  0
  155.7880  210.1980  138.9380 C   0  0  0  0  0  2  0  0  0  0  0  0
  160.2640  209.9020  139.3650 C   0  0  0  0  0  0  0  0  0  0  0  0
  156.0150  211.4220  139.8030 C   0  0  0  0  0  2  0  0  0  0  0  0
  161.7750  207.6190  138.7410 C   0  0  0  0  0  3  0  0  0  0  0  0
  161.2020  209.3950  140.2720 C   0  0  0  0  0  3  0  0  0  0  0  0
  158.5550  214.3420  139.2400 O   0  0  0  0  0  1  0  0  0  0  0  0
  159.7230  213.5800  139.1110 C   0  0  1  0  0  0  0  0  0  0  0  0
  160.4290  214.0290  142.7940 C   0  0  0  0  0  3  0  0  0  0  0  0
  162.3960  213.1450  141.7370 C   0  0  0  0  0  3  0  0  0  0  0  0
  160.4190  213.5800  140.4260 N   0  0  0  0  0  0  0  0  0  0  0  0
  161.7490  213.5820  142.8940 C   0  0  0  0  0  0  0  0  0  0  0  0
  161.7180  213.1540  140.5190 C   0  0  0  0  0  3  0  0  0  0  0  0
  159.7770  214.0290  141.5600 C   0  0  0  0  0  0  0  0  0  0  0  0
  158.5880  214.4480  141.5100 O   0  0  0  0  0  0  0  0  0  0  0  0
  163.7130  213.3200  144.2590 N   0  0  0  0  0  2  0  0  0  0  0  0
  161.7130  213.8660  145.4620 C   0  0  0  0  0  1  0  0  0  0  0  0
  162.4480  213.5770  144.1960 C   0  0  0  0  0  0  0  0  0  0  0  0
  160.5950  214.2160  137.9980 C   0  0  0  0  0  2  0  0  0  0  0  0
  162.0980  214.1120  138.2330 C   0  0  0  0  0  2  0  0  0  0  0  0
  162.7730  213.4390  137.0530 C   0  0  0  0  0  1  0  0  0  0  0  0
  1  9  1  1  0  0  0
  1  2  1  0  0  0  0
  2 19  1  1  0  0  0
  2  5  1  0  0  0  0
  3 10  1  1  0  0  0
  3  1  1  0  0  0  0
  3  8  1  0  0  0  0
  4 17  1  0  0  0  0
  6  7  2  0  0  0  0
  6 16  1  0  0  0  0
  7 14  1  0  0  0  0
  8 13  1  0  0  0  0
  9 11  1  0  0  0  0
 10  7  1  0  0  0  0
 11 15  1  0  0  0  0
 12  9  2  0  0  0  0
 13 15  1  0  0  0  0
 14  5  1  0  0  0  0
 14 17  2  0  0  0  0
 16  4  2  0  0  0  0
 19 18  1  1  0  0  0
 19 22  1  0  0  0  0
 20 23  2  0  0  0  0
 21 23  1  0  0  0  0
 22 24  1  0  0  0  0
 22 25  1  0  0  0  0
 23 29  1  0  0  0  0
 24 21  2  0  0  0  0
 25 20  1  0  0  0  0
 26 25  2  0  0  0  0
 29 27  2  0  0  0  0
 29 28  1  0  0  0  0
 30 31  1  0  0  0  0
 30 19  1  0  0  0  0
 32 31  1  0  0  0  0
M  END
>  <MODEL>
5

>  <REMARK>
 VINA RESULT:      -2.3      1.866      2.210
  Name = 
  5 active torsions:
  status: ('A' for Active; 'I' for Inactive)
    1  A    between atoms: C_1  and  C_4
    2  A    between atoms: C_1  and  C_27
    3  A    between atoms: C_5  and  C_27
    4  A    between atoms: N_16  and  C_27
    5  A    between atoms: C_19  and  C_26
                            x       y       z     vdW  Elec       q    Type
                         _______ _______ _______ _____ _____    ______ ____

>  <TORSDO>
F 5

$$$$
=
 OpenBabel11062408153D

 32 35  0  0  1  0  0  0  0  0999 V2000
  161.1590  211.1560  155.2100 C   0  0  1  0  0  3  0  0  0  0  0  0
  160.3370  211.1520  153.9040 C   0  0  2  0  0  3  0  0  0  0  0  0
  160.3480  211.3400  156.5080 C   0  0  2  0  0  3  0  0  0  0  0  0
  155.6490  212.2490  154.3000 C   0  0  0  0  0  3  0  0  0  0  0  0
  158.9710  210.4970  154.0290 C   0  0  0  0  0  2  0  0  0  0  0  0
  157.0650  213.1700  156.0260 C   0  0  0  0  0  3  0  0  0  0  0  0
  158.1260  212.3470  155.6310 C   0  0  0  0  0  0  0  0  0  0  0  0
  159.5640  210.1150  157.0000 C   0  0  0  0  0  2  0  0  0  0  0  0
  162.3380  210.2220  155.3130 C   0  0  0  0  0  0  0  0  0  0  0  0
  159.4270  212.5540  156.3770 C   0  0  0  0  0  2  0  0  0  0  0  0
  162.2190  208.7380  155.5300 C   0  0  0  0  0  2  0  0  0  0  0  0
  163.4580  210.6980  155.2300 O   0  0  0  0  0  0  0  0  0  0  0  0
  160.4320  208.8970  157.2550 C   0  0  0  0  0  2  0  0  0  0  0  0
  157.9410  211.4710  154.5210 C   0  0  0  0  0  0  0  0  0  0  0  0
  160.8300  208.2730  155.9320 C   0  0  0  0  0  2  0  0  0  0  0  0
  155.8330  213.1200  155.3710 C   0  0  0  0  0  3  0  0  0  0  0  0
  156.6970  211.4280  153.8830 C   0  0  0  0  0  3  0  0  0  0  0  0
  162.3820  211.4380  152.6820 O   0  0  0  0  0  1  0  0  0  0  0  0
  161.0630  210.9860  152.5450 C   0  0  1  0  0  0  0  0  0  0  0  0
  161.7730  207.7810  150.6780 C   0  0  0  0  0  3  0  0  0  0  0  0
  160.5220  207.2550  152.6590 C   0  0  0  0  0  3  0  0  0  0  0  0
  161.1050  209.5450  152.1790 N   0  0  0  0  0  0  0  0  0  0  0  0
  161.1680  206.8270  151.4980 C   0  0  0  0  0  0  0  0  0  0  0  0
  160.5000  208.6120  152.9780 C   0  0  0  0  0  3  0  0  0  0  0  0
  161.7330  209.1330  151.0230 C   0  0  0  0  0  0  0  0  0  0  0  0
  162.2840  209.9660  150.2520 O   0  0  0  0  0  0  0  0  0  0  0  0
  161.2280  205.0250  149.9030 N   0  0  0  0  0  2  0  0  0  0  0  0
  161.2190  204.3400  152.2000 C   0  0  0  0  0  1  0  0  0  0  0  0
  161.2070  205.3920  151.1430 C   0  0  0  0  0  0  0  0  0  0  0  0
  160.3710  211.8380  151.4490 C   0  0  0  0  0  2  0  0  0  0  0  0
  159.7070  213.1110  151.9610 C   0  0  0  0  0  2  0  0  0  0  0  0
  158.3860  213.3400  151.2540 C   0  0  0  0  0  1  0  0  0  0  0  0
  1  9  1  1  0  0  0
  1  3  1  0  0  0  0
  2 19  1  6  0  0  0
  2  5  1  0  0  0  0
  2  1  1  0  0  0  0
  3 10  1  6  0  0  0
  3  8  1  0  0  0  0
  4 16  1  0  0  0  0
  5 14  1  0  0  0  0
  7  6  1  0  0  0  0
  7 10  1  0  0  0  0
  8 13  1  0  0  0  0
  9 11  1  0  0  0  0
 11 15  1  0  0  0  0
 12  9  2  0  0  0  0
 14  7  2  0  0  0  0
 15 13  1  0  0  0  0
 16  6  2  0  0  0  0
 17  4  2  0  0  0  0
 17 14  1  0  0  0  0
 19 18  1  1  0  0  0
 20 25  1  0  0  0  0
 20 23  2  0  0  0  0
 21 24  2  0  0  0  0
 22 19  1  0  0  0  0
 22 24  1  0  0  0  0
 23 21  1  0  0  0  0
 25 22  1  0  0  0  0
 26 25  2  0  0  0  0
 27 29  2  0  0  0  0
 29 23  1  0  0  0  0
 29 28  1  0  0  0  0
 30 31  1  0  0  0  0
 30 19  1  0  0  0  0
 32 31  1  0  0  0  0
M  END
>  <MODEL>
6

>  <REMARK>
 VINA RESULT:      -2.0     11.276     14.947
  Name = 
  5 active torsions:
  status: ('A' for Active; 'I' for Inactive)
    1  A    between atoms: C_1  and  C_4
    2  A    between atoms: C_1  and  C_27
    3  A    between atoms: C_5  and  C_27
    4  A    between atoms: N_16  and  C_27
    5  A    between atoms: C_19  and  C_26
                            x       y       z     vdW  Elec       q    Type
                         _______ _______ _______ _____ _____    ______ ____

>  <TORSDO>
F 5

$$$$
=
 OpenBabel11062408153D

 32 35  0  0  1  0  0  0  0  0999 V2000
  160.1330  202.3900  148.2120 C   0  0  1  0  0  3  0  0  0  0  0  0
  161.0400  203.6180  148.4370 C   0  0  2  0  0  3  0  0  0  0  0  0
  160.0090  201.9130  146.7510 C   0  0  2  0  0  3  0  0  0  0  0  0
  162.7060  205.8280  144.4770 C   0  0  0  0  0  3  0  0  0  0  0  0
  162.2580  203.6690  147.5300 C   0  0  0  0  0  2  0  0  0  0  0  0
  160.6300  204.6280  144.1830 C   0  0  0  0  0  3  0  0  0  0  0  0
  160.7910  203.9960  145.4210 C   0  0  0  0  0  0  0  0  0  0  0  0
  161.2070  201.1370  146.1850 C   0  0  0  0  0  2  0  0  0  0  0  0
  160.1420  201.2970  149.2500 C   0  0  0  0  0  0  0  0  0  0  0  0
  159.6520  203.0930  145.8470 C   0  0  0  0  0  2  0  0  0  0  0  0
  161.2570  200.2990  149.4100 C   0  0  0  0  0  2  0  0  0  0  0  0
  159.1830  201.2060  149.9970 O   0  0  0  0  0  0  0  0  0  0  0  0
  161.5540  199.8880  146.9730 C   0  0  0  0  0  2  0  0  0  0  0  0
  161.9330  204.3130  146.2140 C   0  0  0  0  0  0  0  0  0  0  0  0
  162.2510  200.2800  148.2620 C   0  0  0  0  0  2  0  0  0  0  0  0
  161.5810  205.5350  143.7100 C   0  0  0  0  0  3  0  0  0  0  0  0
  162.8800  205.2170  145.7200 C   0  0  0  0  0  3  0  0  0  0  0  0
  162.3630  203.6120  150.4390 O   0  0  0  0  0  1  0  0  0  0  0  0
  161.2180  204.1830  149.8690 C   0  0  1  0  0  0  0  0  0  0  0  0
  162.3240  207.6940  150.7170 C   0  0  0  0  0  3  0  0  0  0  0  0
  161.0700  207.7570  148.6700 C   0  0  0  0  0  3  0  0  0  0  0  0
  161.4240  205.6550  149.7980 N   0  0  0  0  0  0  0  0  0  0  0  0
  161.7960  208.4300  149.6540 C   0  0  0  0  0  0  0  0  0  0  0  0
  160.8940  206.3770  148.7610 C   0  0  0  0  0  3  0  0  0  0  0  0
  162.1300  206.3130  150.7820 C   0  0  0  0  0  0  0  0  0  0  0  0
  162.6150  205.6850  151.7620 O   0  0  0  0  0  0  0  0  0  0  0  0
  162.2150  210.4620  148.4340 N   0  0  0  0  0  2  0  0  0  0  0  0
  161.9570  210.7400  150.8010 C   0  0  0  0  0  1  0  0  0  0  0  0
  161.9970  209.8920  149.5740 C   0  0  0  0  0  0  0  0  0  0  0  0
  160.0000  203.8160  150.7570 C   0  0  0  0  0  2  0  0  0  0  0  0
  160.3610  203.2340  152.1190 C   0  0  0  0  0  2  0  0  0  0  0  0
  160.4580  204.3350  153.1560 C   0  0  0  0  0  1  0  0  0  0  0  0
  1  2  1  0  0  0  0
  1  9  1  1  0  0  0
  2 19  1  1  0  0  0
  3 10  1  6  0  0  0
  3  1  1  0  0  0  0
  4 17  1  0  0  0  0
  5  2  1  0  0  0  0
  6  7  2  0  0  0  0
  7 10  1  0  0  0  0
  7 14  1  0  0  0  0
  8  3  1  0  0  0  0
  8 13  1  0  0  0  0
  9 11  1  0  0  0  0
  9 12  2  0  0  0  0
 13 15  1  0  0  0  0
 14  5  1  0  0  0  0
 15 11  1  0  0  0  0
 16  6  1  0  0  0  0
 16  4  2  0  0  0  0
 17 14  2  0  0  0  0
 19 18  1  1  0  0  0
 19 30  1  0  0  0  0
 20 25  1  0  0  0  0
 21 24  2  0  0  0  0
 21 23  1  0  0  0  0
 22 19  1  0  0  0  0
 22 25  1  0  0  0  0
 23 20  2  0  0  0  0
 24 22  1  0  0  0  0
 25 26  2  0  0  0  0
 27 29  2  0  0  0  0
 29 23  1  0  0  0  0
 29 28  1  0  0  0  0
 30 31  1  0  0  0  0
 31 32  1  0  0  0  0
M  END
>  <MODEL>
7

>  <REMARK>
 VINA RESULT:      -1.7      8.946     11.851
  Name = 
  5 active torsions:
  status: ('A' for Active; 'I' for Inactive)
    1  A    between atoms: C_1  and  C_4
    2  A    between atoms: C_1  and  C_27
    3  A    between atoms: C_5  and  C_27
    4  A    between atoms: N_16  and  C_27
    5  A    between atoms: C_19  and  C_26
                            x       y       z     vdW  Elec       q    Type
                         _______ _______ _______ _____ _____    ______ ____

>  <TORSDO>
F 5

$$$$
