=
 OpenBabel11062410163D

 43 47  0  0  1  0  0  0  0  0999 V2000
  160.4120  213.3030  149.8800 C   0  0  0  0  0  0  0  0  0  0  0  0
  160.6180  210.9360  151.4220 C   0  0  2  0  0  3  0  0  0  0  0  0
  161.1330  213.2180  147.1890 C   0  0  0  0  0  0  0  0  0  0  0  0
  161.5770  212.2160  148.0620 C   0  0  0  0  0  3  0  0  0  0  0  0
  161.6640  211.1660  150.3310 C   0  0  0  0  0  2  0  0  0  0  0  0
  161.2020  212.2430  149.4040 C   0  0  0  0  0  0  0  0  0  0  0  0
  159.9870  214.2630  149.0110 N   0  0  0  0  0  0  0  0  0  0  0  0
  160.0000  213.3300  151.2650 N   0  0  0  0  0  0  0  0  0  0  0  0
  160.3490  212.2370  152.1780 C   0  0  0  0  0  2  0  0  0  0  0  0
  160.3330  214.2450  147.6960 C   0  0  0  0  0  3  0  0  0  0  0  0
  161.0340  209.8260  152.3820 C   0  0  2  0  0  3  0  0  0  0  0  0
  161.9760  210.2930  153.3040 O   0  0  0  0  0  1  0  0  0  0  0  0
  161.5880  208.7110  151.6300 N   0  0  0  0  0  2  0  0  0  0  0  0
  161.5860  207.3670  152.1120 C   0  0  0  0  0  0  0  0  0  0  0  0
  161.0590  207.0820  153.2200 O   0  0  0  0  0  0  0  0  0  0  0  0
  162.2370  206.2930  151.3060 C   0  0  0  0  0  2  0  0  0  0  0  0
  161.2830  205.7560  150.2370 C   0  0  1  0  0  0  0  0  0  0  0  0
  160.6800  203.7980  152.1720 S   0  0  0  0  0  1  0  0  0  0  0  0
  161.6730  204.3970  149.7020 C   0  0  0  0  0  2  0  0  0  0  0  0
  160.4040  204.5440  150.5310 C   0  0  2  0  0  3  0  0  0  0  0  0
  160.7340  206.6970  149.1680 C   0  0  0  0  0  2  0  0  0  0  0  0
  161.7930  207.1240  148.2010 C   0  0  0  0  0  0  0  0  0  0  0  0
  162.6230  207.9600  148.5300 O   0  0  0  0  0  0  0  0  0  0  0  0
  161.8080  206.5390  146.8240 C   0  0  0  0  0  3  0  0  0  0  0  0
  160.4070  205.6280  144.9580 C   0  0  0  0  0  2  0  0  0  0  0  0
  162.6960  204.7010  145.3710 C   0  0  0  0  0  2  0  0  0  0  0  0
  161.2730  204.3720  144.9240 C   0  0  0  0  0  2  0  0  0  0  0  0
  162.6840  205.2870  146.7790 C   0  0  0  0  0  2  0  0  0  0  0  0
  160.3860  206.2160  146.3660 C   0  0  0  0  0  2  0  0  0  0  0  0
  159.2560  214.4010  151.7880 N   0  0  0  0  0  2  0  0  0  0  0  0
  157.5320  214.2360  155.1070 C   0  0  0  0  0  3  0  0  0  0  0  0
  156.2300  213.8840  154.7140 C   0  0  0  0  0  0  0  0  0  0  0  0
  156.9480  213.8870  152.3970 C   0  0  0  0  0  3  0  0  0  0  0  0
  158.5320  214.4150  154.1480 C   0  0  0  0  0  3  0  0  0  0  0  0
  158.2400  214.2530  152.7860 C   0  0  0  0  0  0  0  0  0  0  0  0
  155.9480  213.7070  153.3560 C   0  0  0  0  0  3  0  0  0  0  0  0
  155.2070  213.7000  155.6480 O   0  0  0  0  0  0  0  0  0  0  0  0
  155.3880  212.9650  156.8510 C   0  0  0  0  0  1  0  0  0  0  0  0
  161.4960  213.2400  145.8360 O   0  0  0  0  0  0  0  0  0  0  0  0
  160.7750  212.6210  144.8040 C   0  0  0  0  0  0  0  0  0  0  0  0
  159.7860  211.9030  145.1030 O   0  0  0  0  0  0  0  0  0  0  0  0
  161.1690  212.7180  143.3890 C   0  0  0  0  0  3  0  0  0  0  0  0
  162.4240  212.5720  142.9840 C   0  0  0  0  0  2  0  0  0  0  0  0
  1  8  1  0  0  0  0
  2  9  1  0  0  0  0
  2 11  1  1  0  0  0
  3 10  2  0  0  0  0
  3  4  1  0  0  0  0
  4  6  2  0  0  0  0
  5  2  1  0  0  0  0
  6  1  1  0  0  0  0
  6  5  1  0  0  0  0
  7  1  2  0  0  0  0
  8 30  1  0  0  0  0
  8  9  1  0  0  0  0
 10  7  1  0  0  0  0
 11 12  1  1  0  0  0
 13 14  1  0  0  0  0
 13 11  1  0  0  0  0
 14 15  2  0  0  0  0
 16 14  1  0  0  0  0
 17 21  1  6  0  0  0
 17 20  1  0  0  0  0
 17 16  1  0  0  0  0
 19 17  1  0  0  0  0
 19 20  1  0  0  0  0
 20 18  1  1  0  0  0
 22 23  2  0  0  0  0
 22 21  1  0  0  0  0
 24 22  1  0  0  0  0
 25 29  1  0  0  0  0
 26 28  1  0  0  0  0
 27 25  1  0  0  0  0
 27 26  1  0  0  0  0
 28 24  1  0  0  0  0
 29 24  1  0  0  0  0
 30 35  1  0  0  0  0
 32 31  1  0  0  0  0
 32 37  1  0  0  0  0
 33 35  2  0  0  0  0
 33 36  1  0  0  0  0
 34 31  2  0  0  0  0
 35 34  1  0  0  0  0
 36 32  2  0  0  0  0
 37 38  1  0  0  0  0
 39  3  1  0  0  0  0
 40 41  2  0  0  0  0
 40 39  1  0  0  0  0
 42 40  1  0  0  0  0
 43 42  2  0  0  0  0
M  END
>  <MODEL>
1

>  <REMARK>
 VINA RESULT:      -7.2      0.000      0.000
  Name = 
  13 active torsions:
  status: ('A' for Active; 'I' for Inactive)
    1  A    between atoms: N_1  and  N_34
    2  A    between atoms: N_1  and  C_35
    3  A    between atoms: C_2  and  N_6
    4  A    between atoms: C_2  and  C_13
    5  A    between atoms: C_3  and  C_4
    6  A    between atoms: C_3  and  C_12
    7  A    between atoms: C_4  and  C_22
    8  A    between atoms: C_5  and  C_18
    9  A    between atoms: C_5  and  O_23
   10  A    between atoms: C_11  and  C_14
   11  A    between atoms: C_14  and  C_22
   12  A    between atoms: C_16  and  O_23
   13  A    between atoms: C_19  and  O_25
                            x       y       z     vdW  Elec       q    Type
                         _______ _______ _______ _____ _____    ______ ____

>  <TORSDO>
F 13

$$$$
=
 OpenBabel11062410163D

 43 47  0  0  1  0  0  0  0  0999 V2000
  160.9040  211.0910  152.3200 C   0  0  0  0  0  0  0  0  0  0  0  0
  160.7580  208.3470  153.0060 C   0  0  2  0  0  3  0  0  0  0  0  0
  161.1790  211.7900  149.6360 C   0  0  0  0  0  0  0  0  0  0  0  0
  161.4910  210.4900  150.0530 C   0  0  0  0  0  3  0  0  0  0  0  0
  161.6560  208.7390  151.8320 C   0  0  0  0  0  2  0  0  0  0  0  0
  161.3360  210.1300  151.3910 C   0  0  0  0  0  0  0  0  0  0  0  0
  160.6000  212.3470  151.8890 N   0  0  0  0  0  0  0  0  0  0  0  0
  160.7200  210.7230  153.7050 N   0  0  0  0  0  0  0  0  0  0  0  0
  160.9260  209.3430  154.1540 C   0  0  0  0  0  2  0  0  0  0  0  0
  160.7340  212.7120  150.5860 C   0  0  0  0  0  3  0  0  0  0  0  0
  161.0310  206.9220  153.4790 C   0  0  2  0  0  3  0  0  0  0  0  0
  161.8890  206.9210  154.5830 O   0  0  0  0  0  1  0  0  0  0  0  0
  161.6180  206.1510  152.3940 N   0  0  0  0  0  2  0  0  0  0  0  0
  161.2720  204.7920  152.1270 C   0  0  0  0  0  0  0  0  0  0  0  0
  160.3980  204.2040  152.8170 O   0  0  0  0  0  0  0  0  0  0  0  0
  161.9740  204.0530  151.0370 C   0  0  0  0  0  2  0  0  0  0  0  0
  161.1690  204.1020  149.7370 C   0  0  1  0  0  0  0  0  0  0  0  0
  160.6810  201.3790  150.2760 S   0  0  0  0  0  1  0  0  0  0  0  0
  161.7590  203.2650  148.6240 C   0  0  0  0  0  2  0  0  0  0  0  0
  160.4280  202.8620  149.2450 C   0  0  2  0  0  3  0  0  0  0  0  0
  160.5820  205.4270  149.2570 C   0  0  0  0  0  2  0  0  0  0  0  0
  161.6070  206.2770  148.5720 C   0  0  0  0  0  0  0  0  0  0  0  0
  162.3760  206.9600  149.2320 O   0  0  0  0  0  0  0  0  0  0  0  0
  161.6590  206.3000  147.0770 C   0  0  0  0  0  3  0  0  0  0  0  0
  160.3380  206.0320  144.9660 C   0  0  0  0  0  2  0  0  0  0  0  0
  162.7430  205.3380  145.0340 C   0  0  0  0  0  2  0  0  0  0  0  0
  161.3650  205.0250  144.4550 C   0  0  0  0  0  2  0  0  0  0  0  0
  162.6950  205.3030  146.5580 C   0  0  0  0  0  2  0  0  0  0  0  0
  160.2810  205.9980  146.4900 C   0  0  0  0  0  2  0  0  0  0  0  0
  160.3420  211.6710  154.6710 N   0  0  0  0  0  2  0  0  0  0  0  0
  156.6500  212.1950  154.3280 C   0  0  0  0  0  3  0  0  0  0  0  0
  156.5210  213.5070  154.8120 C   0  0  0  0  0  0  0  0  0  0  0  0
  158.9140  213.5800  155.2000 C   0  0  0  0  0  3  0  0  0  0  0  0
  157.9050  211.5810  154.2850 C   0  0  0  0  0  3  0  0  0  0  0  0
  159.0420  212.2690  154.7340 C   0  0  0  0  0  0  0  0  0  0  0  0
  157.6600  214.1940  155.2430 C   0  0  0  0  0  3  0  0  0  0  0  0
  155.2800  214.1470  154.8700 O   0  0  0  0  0  0  0  0  0  0  0  0
  154.5040  214.4240  153.7130 C   0  0  0  0  0  1  0  0  0  0  0  0
  161.3330  212.2000  148.3050 O   0  0  0  0  0  0  0  0  0  0  0  0
  162.5120  212.7300  147.7620 C   0  0  0  0  0  0  0  0  0  0  0  0
  163.6160  212.3820  148.2560 O   0  0  0  0  0  0  0  0  0  0  0  0
  162.5130  213.7320  146.6840 C   0  0  0  0  0  3  0  0  0  0  0  0
  162.4470  213.4020  145.4000 C   0  0  0  0  0  2  0  0  0  0  0  0
  1  8  1  0  0  0  0
  2 11  1  1  0  0  0
  2  9  1  0  0  0  0
  3  4  2  0  0  0  0
  3 10  1  0  0  0  0
  4  6  1  0  0  0  0
  5  2  1  0  0  0  0
  6  5  1  0  0  0  0
  6  1  2  0  0  0  0
  7  1  1  0  0  0  0
  8  9  1  0  0  0  0
  8 30  1  0  0  0  0
 10  7  2  0  0  0  0
 11 12  1  1  0  0  0
 13 11  1  0  0  0  0
 14 13  1  0  0  0  0
 14 15  2  0  0  0  0
 16 14  1  0  0  0  0
 17 21  1  6  0  0  0
 17 16  1  0  0  0  0
 19 20  1  0  0  0  0
 19 17  1  0  0  0  0
 20 17  1  0  0  0  0
 20 18  1  1  0  0  0
 22 23  2  0  0  0  0
 22 21  1  0  0  0  0
 24 22  1  0  0  0  0
 25 29  1  0  0  0  0
 26 28  1  0  0  0  0
 27 25  1  0  0  0  0
 27 26  1  0  0  0  0
 28 24  1  0  0  0  0
 29 24  1  0  0  0  0
 30 35  1  0  0  0  0
 31 32  1  0  0  0  0
 32 37  1  0  0  0  0
 32 36  2  0  0  0  0
 33 36  1  0  0  0  0
 34 31  2  0  0  0  0
 34 35  1  0  0  0  0
 35 33  2  0  0  0  0
 38 37  1  0  0  0  0
 39  3  1  0  0  0  0
 40 41  2  0  0  0  0
 40 39  1  0  0  0  0
 42 40  1  0  0  0  0
 43 42  2  0  0  0  0
M  END
>  <MODEL>
2

>  <REMARK>
 VINA RESULT:      -6.7      1.818      2.695
  Name = 
  13 active torsions:
  status: ('A' for Active; 'I' for Inactive)
    1  A    between atoms: N_1  and  N_34
    2  A    between atoms: N_1  and  C_35
    3  A    between atoms: C_2  and  N_6
    4  A    between atoms: C_2  and  C_13
    5  A    between atoms: C_3  and  C_4
    6  A    between atoms: C_3  and  C_12
    7  A    between atoms: C_4  and  C_22
    8  A    between atoms: C_5  and  C_18
    9  A    between atoms: C_5  and  O_23
   10  A    between atoms: C_11  and  C_14
   11  A    between atoms: C_14  and  C_22
   12  A    between atoms: C_16  and  O_23
   13  A    between atoms: C_19  and  O_25
                            x       y       z     vdW  Elec       q    Type
                         _______ _______ _______ _____ _____    ______ ____

>  <TORSDO>
F 13

$$$$
=
 OpenBabel11062410163D

 43 47  0  0  1  0  0  0  0  0999 V2000
  160.5550  211.1470  151.7290 C   0  0  0  0  0  0  0  0  0  0  0  0
  161.4810  211.6790  149.1060 C   0  0  2  0  0  3  0  0  0  0  0  0
  158.4280  212.6440  152.7290 C   0  0  0  0  0  0  0  0  0  0  0  0
  159.1570  213.1170  151.6310 C   0  0  0  0  0  3  0  0  0  0  0  0
  160.9770  212.8610  149.9340 C   0  0  0  0  0  2  0  0  0  0  0  0
  160.2090  212.3620  151.1140 C   0  0  0  0  0  0  0  0  0  0  0  0
  159.8270  210.7040  152.7920 N   0  0  0  0  0  0  0  0  0  0  0  0
  161.6310  210.3470  151.1890 N   0  0  0  0  0  0  0  0  0  0  0  0
  162.3380  210.7550  149.9710 C   0  0  0  0  0  2  0  0  0  0  0  0
  158.7900  211.4220  153.3010 C   0  0  0  0  0  3  0  0  0  0  0  0
  162.2540  212.1380  147.8720 C   0  0  2  0  0  3  0  0  0  0  0  0
  163.3850  212.8720  148.2400 O   0  0  0  0  0  1  0  0  0  0  0  0
  161.3900  212.9490  147.0280 N   0  0  0  0  0  2  0  0  0  0  0  0
  161.7880  213.4400  145.7480 C   0  0  0  0  0  0  0  0  0  0  0  0
  162.9190  213.1530  145.2730 O   0  0  0  0  0  0  0  0  0  0  0  0
  160.8650  214.3230  144.9770 C   0  0  0  0  0  2  0  0  0  0  0  0
  160.1130  213.5290  143.9070 C   0  0  1  0  0  0  0  0  0  0  0  0
  157.9270  213.7810  145.6690 S   0  0  0  0  0  1  0  0  0  0  0  0
  159.6840  212.1520  144.3610 C   0  0  0  0  0  2  0  0  0  0  0  0
  158.6290  213.2160  144.0830 C   0  0  2  0  0  3  0  0  0  0  0  0
  160.5860  213.5720  142.4570 C   0  0  0  0  0  2  0  0  0  0  0  0
  161.4070  212.3720  142.1000 C   0  0  0  0  0  0  0  0  0  0  0  0
  162.5600  212.2780  142.4960 O   0  0  0  0  0  0  0  0  0  0  0  0
  160.8100  211.3070  141.2350 C   0  0  0  0  0  3  0  0  0  0  0  0
  161.2750  209.5600  139.5020 C   0  0  0  0  0  2  0  0  0  0  0  0
  159.0940  210.7880  139.4850 C   0  0  0  0  0  2  0  0  0  0  0  0
  160.1750  210.1460  138.6200 C   0  0  0  0  0  2  0  0  0  0  0  0
  159.6990  211.8840  140.3580 C   0  0  0  0  0  2  0  0  0  0  0  0
  161.8880  210.6510  140.3740 C   0  0  0  0  0  2  0  0  0  0  0  0
  162.0390  209.1540  151.8090 N   0  0  0  0  0  2  0  0  0  0  0  0
  161.6200  205.4390  151.5990 C   0  0  0  0  0  3  0  0  0  0  0  0
  161.0950  205.3020  150.3040 C   0  0  0  0  0  0  0  0  0  0  0  0
  161.1970  207.7110  150.0280 C   0  0  0  0  0  3  0  0  0  0  0  0
  161.9260  206.7050  152.1050 C   0  0  0  0  0  3  0  0  0  0  0  0
  161.7040  207.8490  151.3240 C   0  0  0  0  0  0  0  0  0  0  0  0
  160.8900  206.4450  149.5230 C   0  0  0  0  0  3  0  0  0  0  0  0
  160.7750  204.0510  149.7710 O   0  0  0  0  0  0  0  0  0  0  0  0
  160.7910  202.8590  150.5450 C   0  0  0  0  0  1  0  0  0  0  0  0
  157.3720  213.3740  153.2910 O   0  0  0  0  0  0  0  0  0  0  0  0
  156.7080  213.0360  154.4790 C   0  0  0  0  0  0  0  0  0  0  0  0
  155.6930  212.2960  154.4150 O   0  0  0  0  0  0  0  0  0  0  0  0
  157.1040  213.5690  155.7920 C   0  0  0  0  0  3  0  0  0  0  0  0
  158.1230  214.4050  155.9480 C   0  0  0  0  0  2  0  0  0  0  0  0
  1  7  1  0  0  0  0
  2 11  1  6  0  0  0
  2  5  1  0  0  0  0
  2  9  1  0  0  0  0
  3 39  1  0  0  0  0
  3 10  1  0  0  0  0
  4  3  2  0  0  0  0
  5  6  1  0  0  0  0
  6  4  1  0  0  0  0
  6  1  2  0  0  0  0
  7 10  2  0  0  0  0
  8  1  1  0  0  0  0
  8 30  1  0  0  0  0
  9  8  1  0  0  0  0
 11 12  1  1  0  0  0
 13 11  1  0  0  0  0
 14 13  1  0  0  0  0
 15 14  2  0  0  0  0
 16 14  1  0  0  0  0
 17 21  1  6  0  0  0
 17 20  1  0  0  0  0
 17 19  1  0  0  0  0
 17 16  1  0  0  0  0
 20 19  1  0  0  0  0
 20 18  1  1  0  0  0
 22 21  1  0  0  0  0
 22 23  2  0  0  0  0
 24 22  1  0  0  0  0
 25 29  1  0  0  0  0
 26 28  1  0  0  0  0
 27 26  1  0  0  0  0
 27 25  1  0  0  0  0
 28 24  1  0  0  0  0
 29 24  1  0  0  0  0
 31 34  1  0  0  0  0
 32 31  2  0  0  0  0
 33 35  1  0  0  0  0
 35 30  1  0  0  0  0
 35 34  2  0  0  0  0
 36 33  2  0  0  0  0
 36 32  1  0  0  0  0
 37 32  1  0  0  0  0
 37 38  1  0  0  0  0
 39 40  1  0  0  0  0
 40 42  1  0  0  0  0
 41 40  2  0  0  0  0
 42 43  2  0  0  0  0
M  END
>  <MODEL>
3

>  <REMARK>
 VINA RESULT:      -6.1      3.123      8.581
  Name = 
  13 active torsions:
  status: ('A' for Active; 'I' for Inactive)
    1  A    between atoms: N_1  and  N_34
    2  A    between atoms: N_1  and  C_35
    3  A    between atoms: C_2  and  N_6
    4  A    between atoms: C_2  and  C_13
    5  A    between atoms: C_3  and  C_4
    6  A    between atoms: C_3  and  C_12
    7  A    between atoms: C_4  and  C_22
    8  A    between atoms: C_5  and  C_18
    9  A    between atoms: C_5  and  O_23
   10  A    between atoms: C_11  and  C_14
   11  A    between atoms: C_14  and  C_22
   12  A    between atoms: C_16  and  O_23
   13  A    between atoms: C_19  and  O_25
                            x       y       z     vdW  Elec       q    Type
                         _______ _______ _______ _____ _____    ______ ____

>  <TORSDO>
F 13

$$$$
=
 OpenBabel11062410163D

 43 47  0  0  1  0  0  0  0  0999 V2000
  161.8620  207.9080  150.2650 C   0  0  0  0  0  0  0  0  0  0  0  0
  161.0500  207.4200  152.9340 C   0  0  2  0  0  3  0  0  0  0  0  0
  161.1520  206.0730  148.2910 C   0  0  0  0  0  0  0  0  0  0  0  0
  161.1210  205.6940  149.6390 C   0  0  0  0  0  3  0  0  0  0  0  0
  161.4090  206.2110  152.0690 C   0  0  0  0  0  2  0  0  0  0  0  0
  161.4560  206.6140  150.6310 C   0  0  0  0  0  0  0  0  0  0  0  0
  161.8780  208.2560  148.9480 N   0  0  0  0  0  0  0  0  0  0  0  0
  162.1910  208.8760  151.2870 N   0  0  0  0  0  0  0  0  0  0  0  0
  162.0570  208.5480  152.7090 C   0  0  0  0  0  2  0  0  0  0  0  0
  161.5430  207.3750  147.9680 C   0  0  0  0  0  3  0  0  0  0  0  0
  160.9660  207.0540  154.4130 C   0  0  2  0  0  3  0  0  0  0  0  0
  159.8560  206.2410  154.6610 O   0  0  0  0  0  1  0  0  0  0  0  0
  160.8800  208.2670  155.2130 N   0  0  0  0  0  2  0  0  0  0  0  0
  160.3450  208.2920  156.5360 C   0  0  0  0  0  0  0  0  0  0  0  0
  159.9490  207.2320  157.0900 O   0  0  0  0  0  0  0  0  0  0  0  0
  160.2300  209.5910  157.2610 C   0  0  0  0  0  2  0  0  0  0  0  0
  160.1460  210.7600  156.2770 C   0  0  1  0  0  0  0  0  0  0  0  0
  162.9410  210.8730  156.6210 S   0  0  0  0  0  1  0  0  0  0  0  0
  160.5140  212.0940  156.8850 C   0  0  0  0  0  2  0  0  0  0  0  0
  161.4150  211.4760  155.8240 C   0  0  2  0  0  3  0  0  0  0  0  0
  158.9830  210.8400  155.2910 C   0  0  0  0  0  2  0  0  0  0  0  0
  157.8260  211.6070  155.8520 C   0  0  0  0  0  0  0  0  0  0  0  0
  157.2080  211.1690  156.8110 O   0  0  0  0  0  0  0  0  0  0  0  0
  157.4210  212.8960  155.2090 C   0  0  0  0  0  3  0  0  0  0  0  0
  155.5120  214.2190  154.2690 C   0  0  0  0  0  2  0  0  0  0  0  0
  157.8020  214.4530  153.2840 C   0  0  0  0  0  2  0  0  0  0  0  0
  156.3050  214.4440  152.9840 C   0  0  0  0  0  2  0  0  0  0  0  0
  158.2190  213.1340  153.9270 C   0  0  0  0  0  2  0  0  0  0  0  0
  155.9210  212.8990  154.9160 C   0  0  0  0  0  2  0  0  0  0  0  0
  162.6530  210.1610  150.9560 N   0  0  0  0  0  2  0  0  0  0  0  0
  159.9670  212.7660  150.8140 C   0  0  0  0  0  3  0  0  0  0  0  0
  160.1190  213.2340  149.4990 C   0  0  0  0  0  0  0  0  0  0  0  0
  161.9440  211.6710  149.1720 C   0  0  0  0  0  3  0  0  0  0  0  0
  160.8020  211.7590  151.3040 C   0  0  0  0  0  3  0  0  0  0  0  0
  161.8040  211.2150  150.4870 C   0  0  0  0  0  0  0  0  0  0  0  0
  161.1090  212.6780  148.6830 C   0  0  0  0  0  3  0  0  0  0  0  0
  159.3010  214.2420  148.9810 O   0  0  0  0  0  0  0  0  0  0  0  0
  158.3590  214.0090  147.9420 C   0  0  0  0  0  1  0  0  0  0  0  0
  160.8380  205.1790  147.2590 O   0  0  0  0  0  0  0  0  0  0  0  0
  161.7320  204.7600  146.2620 C   0  0  0  0  0  0  0  0  0  0  0  0
  162.9480  204.6250  146.5570 O   0  0  0  0  0  0  0  0  0  0  0  0
  161.3220  204.5420  144.8660 C   0  0  0  0  0  3  0  0  0  0  0  0
  161.3700  205.4980  143.9480 C   0  0  0  0  0  2  0  0  0  0  0  0
  1  6  1  0  0  0  0
  1  8  1  0  0  0  0
  2 11  1  1  0  0  0
  3  4  1  0  0  0  0
  4  6  2  0  0  0  0
  5  2  1  0  0  0  0
  6  5  1  0  0  0  0
  7  1  2  0  0  0  0
  8  9  1  0  0  0  0
  9  2  1  0  0  0  0
 10  3  2  0  0  0  0
 10  7  1  0  0  0  0
 11 12  1  6  0  0  0
 11 13  1  0  0  0  0
 13 14  1  0  0  0  0
 14 15  2  0  0  0  0
 14 16  1  0  0  0  0
 17 21  1  6  0  0  0
 17 19  1  0  0  0  0
 17 16  1  0  0  0  0
 20 17  1  0  0  0  0
 20 18  1  1  0  0  0
 20 19  1  0  0  0  0
 21 22  1  0  0  0  0
 22 23  2  0  0  0  0
 24 22  1  0  0  0  0
 25 29  1  0  0  0  0
 26 28  1  0  0  0  0
 27 26  1  0  0  0  0
 27 25  1  0  0  0  0
 28 24  1  0  0  0  0
 29 24  1  0  0  0  0
 30  8  1  0  0  0  0
 31 34  1  0  0  0  0
 32 31  2  0  0  0  0
 33 35  1  0  0  0  0
 35 30  1  0  0  0  0
 35 34  2  0  0  0  0
 36 33  2  0  0  0  0
 36 32  1  0  0  0  0
 37 32  1  0  0  0  0
 38 37  1  0  0  0  0
 39  3  1  0  0  0  0
 40 41  2  0  0  0  0
 40 39  1  0  0  0  0
 42 40  1  0  0  0  0
 43 42  2  0  0  0  0
M  END
>  <MODEL>
4

>  <REMARK>
 VINA RESULT:      -6.0      2.889      7.956
  Name = 
  13 active torsions:
  status: ('A' for Active; 'I' for Inactive)
    1  A    between atoms: N_1  and  N_34
    2  A    between atoms: N_1  and  C_35
    3  A    between atoms: C_2  and  N_6
    4  A    between atoms: C_2  and  C_13
    5  A    between atoms: C_3  and  C_4
    6  A    between atoms: C_3  and  C_12
    7  A    between atoms: C_4  and  C_22
    8  A    between atoms: C_5  and  C_18
    9  A    between atoms: C_5  and  O_23
   10  A    between atoms: C_11  and  C_14
   11  A    between atoms: C_14  and  C_22
   12  A    between atoms: C_16  and  O_23
   13  A    between atoms: C_19  and  O_25
                            x       y       z     vdW  Elec       q    Type
                         _______ _______ _______ _____ _____    ______ ____

>  <TORSDO>
F 13

$$$$
=
 OpenBabel11062410163D

 43 47  0  0  1  0  0  0  0  0999 V2000
  159.2860  213.0900  152.0960 C   0  0  0  0  0  0  0  0  0  0  0  0
  161.2790  211.1670  151.5050 C   0  0  2  0  0  3  0  0  0  0  0  0
  158.1340  213.0910  154.6340 C   0  0  0  0  0  0  0  0  0  0  0  0
  158.8120  211.9540  154.1760 C   0  0  0  0  0  3  0  0  0  0  0  0
  160.1410  210.7470  152.4350 C   0  0  0  0  0  2  0  0  0  0  0  0
  159.4070  211.9560  152.9160 C   0  0  0  0  0  0  0  0  0  0  0  0
  158.6270  214.1860  152.5650 N   0  0  0  0  0  0  0  0  0  0  0  0
  159.9160  213.1100  150.7950 N   0  0  0  0  0  0  0  0  0  0  0  0
  160.7300  211.9820  150.3330 C   0  0  0  0  0  2  0  0  0  0  0  0
  158.0520  214.2060  153.7970 C   0  0  0  0  0  3  0  0  0  0  0  0
  162.0770  209.9660  151.0040 C   0  0  2  0  0  3  0  0  0  0  0  0
  162.2810  210.0460  149.6230 O   0  0  0  0  0  1  0  0  0  0  0  0
  161.3680  208.7380  151.3300 N   0  0  0  0  0  2  0  0  0  0  0  0
  161.5290  207.5260  150.5940 C   0  0  0  0  0  0  0  0  0  0  0  0
  162.3380  207.4620  149.6300 O   0  0  0  0  0  0  0  0  0  0  0  0
  160.7110  206.3310  150.9520 C   0  0  0  0  0  2  0  0  0  0  0  0
  161.5230  205.3440  151.7940 C   0  0  1  0  0  0  0  0  0  0  0  0
  160.5220  206.8260  153.9720 S   0  0  0  0  0  1  0  0  0  0  0  0
  162.6790  205.9800  152.5300 C   0  0  0  0  0  2  0  0  0  0  0  0
  161.4970  205.4300  153.3170 C   0  0  2  0  0  3  0  0  0  0  0  0
  161.8410  203.9580  151.2400 C   0  0  0  0  0  2  0  0  0  0  0  0
  160.8320  203.5150  150.2260 C   0  0  0  0  0  0  0  0  0  0  0  0
  159.6550  203.4140  150.5380 O   0  0  0  0  0  0  0  0  0  0  0  0
  161.2860  203.1740  148.8420 C   0  0  0  0  0  3  0  0  0  0  0  0
  161.7200  204.0600  146.5400 C   0  0  0  0  0  2  0  0  0  0  0  0
  160.9000  201.7140  146.8430 C   0  0  0  0  0  2  0  0  0  0  0  0
  160.8480  202.9540  145.9520 C   0  0  0  0  0  2  0  0  0  0  0  0
  160.4250  202.0570  148.2520 C   0  0  0  0  0  2  0  0  0  0  0  0
  161.2480  204.4120  147.9470 C   0  0  0  0  0  2  0  0  0  0  0  0
  159.7700  214.2050  149.9280 N   0  0  0  0  0  2  0  0  0  0  0  0
  158.7510  213.4930  146.3950 C   0  0  0  0  0  3  0  0  0  0  0  0
  159.9230  213.8410  145.7040 C   0  0  0  0  0  0  0  0  0  0  0  0
  160.9690  214.4300  147.8120 C   0  0  0  0  0  3  0  0  0  0  0  0
  158.6900  213.6170  147.7860 C   0  0  0  0  0  3  0  0  0  0  0  0
  159.7980  214.0990  148.4990 C   0  0  0  0  0  0  0  0  0  0  0  0
  161.0300  214.3060  146.4220 C   0  0  0  0  0  3  0  0  0  0  0  0
  160.0140  213.7310  144.3140 O   0  0  0  0  0  0  0  0  0  0  0  0
  159.1470  214.4290  143.4300 C   0  0  0  0  0  1  0  0  0  0  0  0
  157.5090  213.1300  155.8880 O   0  0  0  0  0  0  0  0  0  0  0  0
  156.2160  212.6560  156.1520 C   0  0  0  0  0  0  0  0  0  0  0  0
  155.3080  213.4880  156.4140 O   0  0  0  0  0  0  0  0  0  0  0  0
  155.8890  211.2220  156.2080 C   0  0  0  0  0  3  0  0  0  0  0  0
  155.4840  210.5380  155.1460 C   0  0  0  0  0  2  0  0  0  0  0  0
  1  7  2  0  0  0  0
  1  6  1  0  0  0  0
  2 11  1  6  0  0  0
  2  5  1  0  0  0  0
  3 39  1  0  0  0  0
  4  3  1  0  0  0  0
  5  6  1  0  0  0  0
  6  4  2  0  0  0  0
  7 10  1  0  0  0  0
  8  1  1  0  0  0  0
  9  8  1  0  0  0  0
  9  2  1  0  0  0  0
 10  3  2  0  0  0  0
 11 12  1  6  0  0  0
 11 13  1  0  0  0  0
 14 16  1  0  0  0  0
 14 13  1  0  0  0  0
 15 14  2  0  0  0  0
 17 16  1  6  0  0  0
 17 19  1  0  0  0  0
 17 20  1  0  0  0  0
 19 20  1  0  0  0  0
 20 18  1  6  0  0  0
 21 17  1  0  0  0  0
 22 23  2  0  0  0  0
 22 21  1  0  0  0  0
 24 22  1  0  0  0  0
 25 29  1  0  0  0  0
 26 28  1  0  0  0  0
 27 25  1  0  0  0  0
 27 26  1  0  0  0  0
 28 24  1  0  0  0  0
 29 24  1  0  0  0  0
 30  8  1  0  0  0  0
 31 34  1  0  0  0  0
 32 31  2  0  0  0  0
 32 36  1  0  0  0  0
 33 35  1  0  0  0  0
 34 35  2  0  0  0  0
 35 30  1  0  0  0  0
 36 33  2  0  0  0  0
 37 32  1  0  0  0  0
 38 37  1  0  0  0  0
 39 40  1  0  0  0  0
 40 42  1  0  0  0  0
 40 41  2  0  0  0  0
 43 42  2  0  0  0  0
M  END
>  <MODEL>
5

>  <REMARK>
 VINA RESULT:      -5.9      1.903      6.666
  Name = 
  13 active torsions:
  status: ('A' for Active; 'I' for Inactive)
    1  A    between atoms: N_1  and  N_34
    2  A    between atoms: N_1  and  C_35
    3  A    between atoms: C_2  and  N_6
    4  A    between atoms: C_2  and  C_13
    5  A    between atoms: C_3  and  C_4
    6  A    between atoms: C_3  and  C_12
    7  A    between atoms: C_4  and  C_22
    8  A    between atoms: C_5  and  C_18
    9  A    between atoms: C_5  and  O_23
   10  A    between atoms: C_11  and  C_14
   11  A    between atoms: C_14  and  C_22
   12  A    between atoms: C_16  and  O_23
   13  A    between atoms: C_19  and  O_25
                            x       y       z     vdW  Elec       q    Type
                         _______ _______ _______ _____ _____    ______ ____

>  <TORSDO>
F 13

$$$$
=
 OpenBabel11062410163D

 43 47  0  0  1  0  0  0  0  0999 V2000
  161.3790  208.4470  151.7420 C   0  0  0  0  0  0  0  0  0  0  0  0
  161.7150  210.2000  149.5430 C   0  0  2  0  0  3  0  0  0  0  0  0
  161.0620  209.5350  154.2880 C   0  0  0  0  0  0  0  0  0  0  0  0
  161.6090  210.3140  153.2600 C   0  0  0  0  0  3  0  0  0  0  0  0
  162.3230  210.6170  150.8820 C   0  0  0  0  0  2  0  0  0  0  0  0
  161.7510  209.7810  151.9800 C   0  0  0  0  0  0  0  0  0  0  0  0
  160.8430  207.7110  152.7550 N   0  0  0  0  0  0  0  0  0  0  0  0
  161.5030  207.8910  150.4130 N   0  0  0  0  0  0  0  0  0  0  0  0
  161.9630  208.7130  149.2900 C   0  0  0  0  0  2  0  0  0  0  0  0
  160.6860  208.2190  154.0070 C   0  0  0  0  0  3  0  0  0  0  0  0
  162.2500  211.0440  148.3890 C   0  0  2  0  0  3  0  0  0  0  0  0
  163.3850  211.7590  148.7820 O   0  0  0  0  0  1  0  0  0  0  0  0
  161.2170  211.9630  147.9360 N   0  0  0  0  0  2  0  0  0  0  0  0
  161.4340  212.9360  146.9130 C   0  0  0  0  0  0  0  0  0  0  0  0
  162.5450  213.0140  146.3250 O   0  0  0  0  0  0  0  0  0  0  0  0
  160.3410  213.8870  146.5560 C   0  0  0  0  0  2  0  0  0  0  0  0
  159.6640  213.4760  145.2460 C   0  0  1  0  0  0  0  0  0  0  0  0
  157.4390  212.9570  146.8970 S   0  0  0  0  0  1  0  0  0  0  0  0
  159.3270  212.0050  145.1710 C   0  0  0  0  0  2  0  0  0  0  0  0
  158.2040  213.0320  145.2430 C   0  0  2  0  0  3  0  0  0  0  0  0
  160.1560  214.0580  143.9240 C   0  0  0  0  0  2  0  0  0  0  0  0
  160.8240  213.0240  143.0720 C   0  0  0  0  0  0  0  0  0  0  0  0
  161.9620  212.6590  143.3310 O   0  0  0  0  0  0  0  0  0  0  0  0
  160.0950  212.4630  141.8920 C   0  0  0  0  0  3  0  0  0  0  0  0
  160.2840  211.7740  139.4910 C   0  0  0  0  0  2  0  0  0  0  0  0
  158.1400  212.7410  140.3500 C   0  0  0  0  0  2  0  0  0  0  0  0
  159.0780  212.6450  139.1490 C   0  0  0  0  0  2  0  0  0  0  0  0
  158.8780  213.3240  141.5510 C   0  0  0  0  0  2  0  0  0  0  0  0
  161.0300  212.3540  140.6890 C   0  0  0  0  0  2  0  0  0  0  0  0
  161.1920  206.5460  150.1510 N   0  0  0  0  0  2  0  0  0  0  0  0
  161.5310  204.0340  147.3940 C   0  0  0  0  0  3  0  0  0  0  0  0
  161.4040  204.8590  146.2650 C   0  0  0  0  0  0  0  0  0  0  0  0
  161.1320  206.7800  147.7210 C   0  0  0  0  0  3  0  0  0  0  0  0
  161.4550  204.5820  148.6780 C   0  0  0  0  0  3  0  0  0  0  0  0
  161.2430  205.9580  148.8460 C   0  0  0  0  0  0  0  0  0  0  0  0
  161.2080  206.2330  146.4370 C   0  0  0  0  0  3  0  0  0  0  0  0
  161.4720  204.3410  144.9680 O   0  0  0  0  0  0  0  0  0  0  0  0
  161.1160  205.0980  143.8190 C   0  0  0  0  0  1  0  0  0  0  0  0
  160.9130  210.0230  155.5930 O   0  0  0  0  0  0  0  0  0  0  0  0
  160.0530  211.0670  155.9630 C   0  0  0  0  0  0  0  0  0  0  0  0
  158.9320  211.1570  155.4000 O   0  0  0  0  0  0  0  0  0  0  0  0
  160.4340  212.1070  156.9330 C   0  0  0  0  0  3  0  0  0  0  0  0
  160.0970  213.3820  156.7840 C   0  0  0  0  0  2  0  0  0  0  0  0
  1  6  2  0  0  0  0
  1  7  1  0  0  0  0
  2 11  1  6  0  0  0
  2  5  1  0  0  0  0
  3 39  1  0  0  0  0
  4  3  2  0  0  0  0
  5  6  1  0  0  0  0
  6  4  1  0  0  0  0
  7 10  2  0  0  0  0
  8  1  1  0  0  0  0
  9  2  1  0  0  0  0
  9  8  1  0  0  0  0
 10  3  1  0  0  0  0
 11 12  1  1  0  0  0
 13 11  1  0  0  0  0
 14 13  1  0  0  0  0
 15 14  2  0  0  0  0
 16 14  1  0  0  0  0
 17 21  1  6  0  0  0
 17 16  1  0  0  0  0
 19 20  1  0  0  0  0
 19 17  1  0  0  0  0
 20 17  1  0  0  0  0
 20 18  1  1  0  0  0
 22 23  2  0  0  0  0
 22 21  1  0  0  0  0
 24 22  1  0  0  0  0
 25 29  1  0  0  0  0
 26 28  1  0  0  0  0
 27 25  1  0  0  0  0
 27 26  1  0  0  0  0
 28 24  1  0  0  0  0
 29 24  1  0  0  0  0
 30  8  1  0  0  0  0
 31 34  1  0  0  0  0
 32 36  1  0  0  0  0
 32 31  2  0  0  0  0
 33 35  1  0  0  0  0
 34 35  2  0  0  0  0
 35 30  1  0  0  0  0
 36 33  2  0  0  0  0
 37 32  1  0  0  0  0
 38 37  1  0  0  0  0
 39 40  1  0  0  0  0
 40 42  1  0  0  0  0
 41 40  2  0  0  0  0
 43 42  2  0  0  0  0
M  END
>  <MODEL>
6

>  <REMARK>
 VINA RESULT:      -5.9      3.192      9.458
  Name = 
  13 active torsions:
  status: ('A' for Active; 'I' for Inactive)
    1  A    between atoms: N_1  and  N_34
    2  A    between atoms: N_1  and  C_35
    3  A    between atoms: C_2  and  N_6
    4  A    between atoms: C_2  and  C_13
    5  A    between atoms: C_3  and  C_4
    6  A    between atoms: C_3  and  C_12
    7  A    between atoms: C_4  and  C_22
    8  A    between atoms: C_5  and  C_18
    9  A    between atoms: C_5  and  O_23
   10  A    between atoms: C_11  and  C_14
   11  A    between atoms: C_14  and  C_22
   12  A    between atoms: C_16  and  O_23
   13  A    between atoms: C_19  and  O_25
                            x       y       z     vdW  Elec       q    Type
                         _______ _______ _______ _____ _____    ______ ____

>  <TORSDO>
F 13

$$$$
=
 OpenBabel11062410163D

 43 47  0  0  1  0  0  0  0  0999 V2000
  161.6530  207.2500  151.3380 C   0  0  0  0  0  0  0  0  0  0  0  0
  161.0660  208.3230  153.8920 C   0  0  2  0  0  3  0  0  0  0  0  0
  161.9590  208.9970  149.1880 C   0  0  0  0  0  0  0  0  0  0  0  0
  161.3000  209.4270  150.3470 C   0  0  0  0  0  3  0  0  0  0  0  0
  160.4710  209.0270  152.6730 C   0  0  0  0  0  2  0  0  0  0  0  0
  161.1620  208.5630  151.4320 C   0  0  0  0  0  0  0  0  0  0  0  0
  162.2960  206.8570  150.2030 N   0  0  0  0  0  0  0  0  0  0  0  0
  161.5330  206.3530  152.4650 N   0  0  0  0  0  0  0  0  0  0  0  0
  160.9540  206.8060  153.7330 C   0  0  0  0  0  2  0  0  0  0  0  0
  162.4500  207.6900  149.1390 C   0  0  0  0  0  3  0  0  0  0  0  0
  160.4070  208.7820  155.1900 C   0  0  2  0  0  3  0  0  0  0  0  0
  159.4050  207.8890  155.5820 O   0  0  0  0  0  1  0  0  0  0  0  0
  159.8440  210.1110  155.0090 N   0  0  0  0  0  2  0  0  0  0  0  0
  159.2960  210.8790  156.0810 C   0  0  0  0  0  0  0  0  0  0  0  0
  159.3110  210.4370  157.2610 O   0  0  0  0  0  0  0  0  0  0  0  0
  158.6740  212.2050  155.7960 C   0  0  0  0  0  2  0  0  0  0  0  0
  157.5250  212.0670  154.7940 C   0  0  1  0  0  0  0  0  0  0  0  0
  155.9030  212.6980  157.0110 S   0  0  0  0  0  1  0  0  0  0  0  0
  156.6060  210.9020  155.0800 C   0  0  0  0  0  2  0  0  0  0  0  0
  156.0870  212.3260  155.2350 C   0  0  2  0  0  3  0  0  0  0  0  0
  157.7850  212.2880  153.3060 C   0  0  0  0  0  2  0  0  0  0  0  0
  158.2230  213.6900  153.0170 C   0  0  0  0  0  0  0  0  0  0  0  0
  158.5510  214.4310  153.9330 O   0  0  0  0  0  0  0  0  0  0  0  0
  158.2280  214.1790  151.6030 C   0  0  0  0  0  3  0  0  0  0  0  0
  157.0870  214.0570  149.3770 C   0  0  0  0  0  2  0  0  0  0  0  0
  159.5660  214.3870  149.4950 C   0  0  0  0  0  2  0  0  0  0  0  0
  158.4240  213.7440  148.7120 C   0  0  0  0  0  2  0  0  0  0  0  0
  159.5700  213.8800  150.9340 C   0  0  0  0  0  2  0  0  0  0  0  0
  157.0810  213.5480  150.8150 C   0  0  0  0  0  2  0  0  0  0  0  0
  161.9630  205.0180  152.3870 N   0  0  0  0  0  2  0  0  0  0  0  0
  161.0370  201.8440  150.6280 C   0  0  0  0  0  3  0  0  0  0  0  0
  160.7470  202.3280  149.3410 C   0  0  0  0  0  0  0  0  0  0  0  0
  161.2580  204.5780  150.0910 C   0  0  0  0  0  3  0  0  0  0  0  0
  161.4320  202.7260  151.6380 C   0  0  0  0  0  3  0  0  0  0  0  0
  161.5310  204.1000  151.3760 C   0  0  0  0  0  0  0  0  0  0  0  0
  160.8640  203.6970  149.0800 C   0  0  0  0  0  3  0  0  0  0  0  0
  160.3480  201.4730  148.3100 O   0  0  0  0  0  0  0  0  0  0  0  0
  161.2740  200.7940  147.4730 C   0  0  0  0  0  1  0  0  0  0  0  0
  162.1090  209.8250  148.0670 O   0  0  0  0  0  0  0  0  0  0  0  0
  161.8290  211.1990  148.0440 C   0  0  0  0  0  0  0  0  0  0  0  0
  160.8230  211.6010  147.4030 O   0  0  0  0  0  0  0  0  0  0  0  0
  162.7010  212.2010  148.6780 C   0  0  0  0  0  3  0  0  0  0  0  0
  162.7540  213.4630  148.2720 C   0  0  0  0  0  2  0  0  0  0  0  0
  1  6  1  0  0  0  0
  1  8  1  0  0  0  0
  2 11  1  1  0  0  0
  3  4  1  0  0  0  0
  4  6  2  0  0  0  0
  5  2  1  0  0  0  0
  6  5  1  0  0  0  0
  7  1  2  0  0  0  0
  8  9  1  0  0  0  0
  9  2  1  0  0  0  0
 10  3  2  0  0  0  0
 10  7  1  0  0  0  0
 11 12  1  6  0  0  0
 13 11  1  0  0  0  0
 13 14  1  0  0  0  0
 14 15  2  0  0  0  0
 16 14  1  0  0  0  0
 17 21  1  6  0  0  0
 17 19  1  0  0  0  0
 17 20  1  0  0  0  0
 17 16  1  0  0  0  0
 19 20  1  0  0  0  0
 20 18  1  1  0  0  0
 22 21  1  0  0  0  0
 22 23  2  0  0  0  0
 24 22  1  0  0  0  0
 25 29  1  0  0  0  0
 26 28  1  0  0  0  0
 27 25  1  0  0  0  0
 27 26  1  0  0  0  0
 28 24  1  0  0  0  0
 29 24  1  0  0  0  0
 30  8  1  0  0  0  0
 31 34  1  0  0  0  0
 32 31  2  0  0  0  0
 33 35  1  0  0  0  0
 35 34  2  0  0  0  0
 35 30  1  0  0  0  0
 36 32  1  0  0  0  0
 36 33  2  0  0  0  0
 37 32  1  0  0  0  0
 38 37  1  0  0  0  0
 39  3  1  0  0  0  0
 40 39  1  0  0  0  0
 40 42  1  0  0  0  0
 41 40  2  0  0  0  0
 43 42  2  0  0  0  0
M  END
>  <MODEL>
7

>  <REMARK>
 VINA RESULT:      -5.8      3.436      8.767
  Name = 
  13 active torsions:
  status: ('A' for Active; 'I' for Inactive)
    1  A    between atoms: N_1  and  N_34
    2  A    between atoms: N_1  and  C_35
    3  A    between atoms: C_2  and  N_6
    4  A    between atoms: C_2  and  C_13
    5  A    between atoms: C_3  and  C_4
    6  A    between atoms: C_3  and  C_12
    7  A    between atoms: C_4  and  C_22
    8  A    between atoms: C_5  and  C_18
    9  A    between atoms: C_5  and  O_23
   10  A    between atoms: C_11  and  C_14
   11  A    between atoms: C_14  and  C_22
   12  A    between atoms: C_16  and  O_23
   13  A    between atoms: C_19  and  O_25
                            x       y       z     vdW  Elec       q    Type
                         _______ _______ _______ _____ _____    ______ ____

>  <TORSDO>
F 13

$$$$
=
 OpenBabel11062410163D

 43 47  0  0  1  0  0  0  0  0999 V2000
  161.7500  208.6440  151.4130 C   0  0  0  0  0  0  0  0  0  0  0  0
  162.3520  210.4720  149.3350 C   0  0  2  0  0  3  0  0  0  0  0  0
  161.9200  205.9130  150.8860 C   0  0  0  0  0  0  0  0  0  0  0  0
  161.8220  206.8220  149.8260 C   0  0  0  0  0  3  0  0  0  0  0  0
  161.6680  209.1600  148.9500 C   0  0  0  0  0  2  0  0  0  0  0  0
  161.7580  208.1910  150.0830 C   0  0  0  0  0  0  0  0  0  0  0  0
  161.8530  207.7410  152.4280 N   0  0  0  0  0  0  0  0  0  0  0  0
  161.7040  210.0620  151.6900 N   0  0  0  0  0  0  0  0  0  0  0  0
  161.7190  211.0450  150.6030 C   0  0  0  0  0  2  0  0  0  0  0  0
  161.9290  206.4030  152.1940 C   0  0  0  0  0  3  0  0  0  0  0  0
  162.3070  211.4900  148.1990 C   0  0  2  0  0  3  0  0  0  0  0  0
  162.5880  212.7750  148.6720 O   0  0  0  0  0  1  0  0  0  0  0  0
  160.9930  211.4680  147.5740 N   0  0  0  0  0  2  0  0  0  0  0  0
  160.6690  212.2340  146.4130 C   0  0  0  0  0  0  0  0  0  0  0  0
  161.5410  212.9490  145.8510 O   0  0  0  0  0  0  0  0  0  0  0  0
  159.2770  212.2070  145.8770 C   0  0  0  0  0  2  0  0  0  0  0  0
  158.7720  213.6230  145.5930 C   0  0  1  0  0  0  0  0  0  0  0  0
  157.9290  213.5490  148.2810 S   0  0  0  0  0  1  0  0  0  0  0  0
  157.2670  213.7530  145.6420 C   0  0  0  0  0  2  0  0  0  0  0  0
  158.1170  214.4410  146.7020 C   0  0  2  0  0  3  0  0  0  0  0  0
  159.4200  214.4520  144.4870 C   0  0  0  0  0  2  0  0  0  0  0  0
  158.8490  214.1330  143.1410 C   0  0  0  0  0  0  0  0  0  0  0  0
  157.6700  214.3560  142.9070 O   0  0  0  0  0  0  0  0  0  0  0  0
  159.7290  213.5170  142.0990 C   0  0  0  0  0  3  0  0  0  0  0  0
  159.7870  212.2830  139.9200 C   0  0  0  0  0  2  0  0  0  0  0  0
  161.5420  211.8460  141.6520 C   0  0  0  0  0  2  0  0  0  0  0  0
  160.6920  211.2250  140.5470 C   0  0  0  0  0  2  0  0  0  0  0  0
  160.6460  212.4640  142.7220 C   0  0  0  0  0  2  0  0  0  0  0  0
  158.8850  212.9020  140.9830 C   0  0  0  0  0  2  0  0  0  0  0  0
  161.6410  210.5480  153.0070 N   0  0  0  0  0  2  0  0  0  0  0  0
  159.2540  211.9680  155.5190 C   0  0  0  0  0  3  0  0  0  0  0  0
  158.0640  211.9890  154.7730 C   0  0  0  0  0  0  0  0  0  0  0  0
  159.2580  211.0650  152.8740 C   0  0  0  0  0  3  0  0  0  0  0  0
  160.4380  211.5020  154.9410 C   0  0  0  0  0  3  0  0  0  0  0  0
  160.4470  211.0600  153.6100 C   0  0  0  0  0  0  0  0  0  0  0  0
  158.0740  211.5320  153.4520 C   0  0  0  0  0  3  0  0  0  0  0  0
  156.8640  212.4520  155.3210 O   0  0  0  0  0  0  0  0  0  0  0  0
  155.9220  211.5910  155.9460 C   0  0  0  0  0  1  0  0  0  0  0  0
  161.9730  204.5280  150.6760 O   0  0  0  0  0  0  0  0  0  0  0  0
  160.8930  203.7420  150.2480 C   0  0  0  0  0  0  0  0  0  0  0  0
  159.9620  203.4980  151.0590 O   0  0  0  0  0  0  0  0  0  0  0  0
  160.8360  203.1270  148.9120 C   0  0  0  0  0  3  0  0  0  0  0  0
  161.4930  203.6200  147.8690 C   0  0  0  0  0  2  0  0  0  0  0  0
  1  8  1  0  0  0  0
  1  7  1  0  0  0  0
  2 11  1  6  0  0  0
  2  9  1  0  0  0  0
  3 10  1  0  0  0  0
  4  6  1  0  0  0  0
  4  3  2  0  0  0  0
  5  2  1  0  0  0  0
  5  6  1  0  0  0  0
  6  1  2  0  0  0  0
  8 30  1  0  0  0  0
  9  8  1  0  0  0  0
 10  7  2  0  0  0  0
 11 12  1  1  0  0  0
 13 11  1  0  0  0  0
 14 13  1  0  0  0  0
 15 14  2  0  0  0  0
 16 14  1  0  0  0  0
 17 21  1  6  0  0  0
 17 19  1  0  0  0  0
 17 16  1  0  0  0  0
 17 20  1  0  0  0  0
 19 20  1  0  0  0  0
 20 18  1  1  0  0  0
 22 21  1  0  0  0  0
 23 22  2  0  0  0  0
 24 28  1  0  0  0  0
 24 22  1  0  0  0  0
 25 27  1  0  0  0  0
 25 29  1  0  0  0  0
 26 28  1  0  0  0  0
 27 26  1  0  0  0  0
 29 24  1  0  0  0  0
 30 35  1  0  0  0  0
 32 37  1  0  0  0  0
 32 31  2  0  0  0  0
 33 36  2  0  0  0  0
 33 35  1  0  0  0  0
 34 31  1  0  0  0  0
 35 34  2  0  0  0  0
 36 32  1  0  0  0  0
 37 38  1  0  0  0  0
 39  3  1  0  0  0  0
 40 39  1  0  0  0  0
 40 41  2  0  0  0  0
 42 40  1  0  0  0  0
 43 42  2  0  0  0  0
M  END
>  <MODEL>
8

>  <REMARK>
 VINA RESULT:      -5.6      2.971      7.453
  Name = 
  13 active torsions:
  status: ('A' for Active; 'I' for Inactive)
    1  A    between atoms: N_1  and  N_34
    2  A    between atoms: N_1  and  C_35
    3  A    between atoms: C_2  and  N_6
    4  A    between atoms: C_2  and  C_13
    5  A    between atoms: C_3  and  C_4
    6  A    between atoms: C_3  and  C_12
    7  A    between atoms: C_4  and  C_22
    8  A    between atoms: C_5  and  C_18
    9  A    between atoms: C_5  and  O_23
   10  A    between atoms: C_11  and  C_14
   11  A    between atoms: C_14  and  C_22
   12  A    between atoms: C_16  and  O_23
   13  A    between atoms: C_19  and  O_25
                            x       y       z     vdW  Elec       q    Type
                         _______ _______ _______ _____ _____    ______ ____

>  <TORSDO>
F 13

$$$$
=
 OpenBabel11062410163D

 43 47  0  0  1  0  0  0  0  0999 V2000
  161.3440  205.9250  150.7400 C   0  0  0  0  0  0  0  0  0  0  0  0
  160.9770  207.5490  153.0320 C   0  0  2  0  0  3  0  0  0  0  0  0
  160.9550  203.1750  150.9700 C   0  0  0  0  0  0  0  0  0  0  0  0
  161.1680  203.9470  152.1190 C   0  0  0  0  0  3  0  0  0  0  0  0
  161.5560  206.1490  153.2390 C   0  0  0  0  0  2  0  0  0  0  0  0
  161.3430  205.3250  152.0110 C   0  0  0  0  0  0  0  0  0  0  0  0
  161.1280  205.1550  149.6380 N   0  0  0  0  0  0  0  0  0  0  0  0
  161.5040  207.3560  150.6190 N   0  0  0  0  0  0  0  0  0  0  0  0
  161.6120  208.2080  151.8080 C   0  0  0  0  0  2  0  0  0  0  0  0
  160.9440  203.8100  149.7260 C   0  0  0  0  0  3  0  0  0  0  0  0
  161.1490  208.4240  154.2700 C   0  0  2  0  0  3  0  0  0  0  0  0
  160.4390  207.8960  155.3530 O   0  0  0  0  0  1  0  0  0  0  0  0
  160.6850  209.7730  153.9840 N   0  0  0  0  0  2  0  0  0  0  0  0
  160.6310  210.8040  154.9700 C   0  0  0  0  0  0  0  0  0  0  0  0
  161.0230  210.5890  156.1480 O   0  0  0  0  0  0  0  0  0  0  0  0
  160.0760  212.1410  154.6080 C   0  0  0  0  0  2  0  0  0  0  0  0
  158.7160  212.0030  153.9220 C   0  0  1  0  0  0  0  0  0  0  0  0
  157.6980  212.8370  156.4140 S   0  0  0  0  0  1  0  0  0  0  0  0
  157.8540  210.9020  154.4960 C   0  0  0  0  0  2  0  0  0  0  0  0
  157.4360  212.3550  154.6750 C   0  0  2  0  0  3  0  0  0  0  0  0
  158.6160  212.1260  152.4040 C   0  0  0  0  0  2  0  0  0  0  0  0
  158.7160  213.5490  151.9500 C   0  0  0  0  0  0  0  0  0  0  0  0
  158.7770  214.4510  152.7720 O   0  0  0  0  0  0  0  0  0  0  0  0
  158.7130  213.8530  150.4850 C   0  0  0  0  0  3  0  0  0  0  0  0
  157.4440  213.6270  148.3370 C   0  0  0  0  0  2  0  0  0  0  0  0
  159.9480  213.5960  148.3200 C   0  0  0  0  0  2  0  0  0  0  0  0
  158.6840  213.0380  147.6700 C   0  0  0  0  0  2  0  0  0  0  0  0
  159.9590  213.2760  149.8120 C   0  0  0  0  0  2  0  0  0  0  0  0
  157.4460  213.3060  149.8280 C   0  0  0  0  0  2  0  0  0  0  0  0
  161.5650  207.9820  149.3630 N   0  0  0  0  0  2  0  0  0  0  0  0
  160.2490  206.2250  146.3300 C   0  0  0  0  0  3  0  0  0  0  0  0
  161.4460  205.8300  145.7100 C   0  0  0  0  0  0  0  0  0  0  0  0
  162.6990  206.8690  147.5090 C   0  0  0  0  0  3  0  0  0  0  0  0
  160.2800  206.9400  147.5290 C   0  0  0  0  0  3  0  0  0  0  0  0
  161.5080  207.2760  148.1180 C   0  0  0  0  0  0  0  0  0  0  0  0
  162.6670  206.1530  146.3090 C   0  0  0  0  0  3  0  0  0  0  0  0
  161.4480  205.1160  144.5090 O   0  0  0  0  0  0  0  0  0  0  0  0
  161.5710  205.7460  143.2410 C   0  0  0  0  0  1  0  0  0  0  0  0
  160.7880  201.7850  151.0280 O   0  0  0  0  0  0  0  0  0  0  0  0
  160.3350  200.9870  149.9670 C   0  0  0  0  0  0  0  0  0  0  0  0
  159.1430  200.5860  149.9770 O   0  0  0  0  0  0  0  0  0  0  0  0
  161.2150  200.5390  148.8750 C   0  0  0  0  0  3  0  0  0  0  0  0
  161.2000  201.0940  147.6700 C   0  0  0  0  0  2  0  0  0  0  0  0
  1  6  1  0  0  0  0
  2  5  1  0  0  0  0
  2 11  1  1  0  0  0
  3 39  1  0  0  0  0
  3  4  1  0  0  0  0
  6  4  2  0  0  0  0
  6  5  1  0  0  0  0
  7 10  1  0  0  0  0
  7  1  2  0  0  0  0
  8  1  1  0  0  0  0
  8  9  1  0  0  0  0
  9  2  1  0  0  0  0
 10  3  2  0  0  0  0
 11 12  1  1  0  0  0
 13 11  1  0  0  0  0
 13 14  1  0  0  0  0
 14 15  2  0  0  0  0
 16 14  1  0  0  0  0
 17 21  1  6  0  0  0
 17 19  1  0  0  0  0
 17 16  1  0  0  0  0
 17 20  1  0  0  0  0
 19 20  1  0  0  0  0
 20 18  1  1  0  0  0
 22 21  1  0  0  0  0
 22 23  2  0  0  0  0
 24 22  1  0  0  0  0
 25 29  1  0  0  0  0
 26 28  1  0  0  0  0
 27 26  1  0  0  0  0
 27 25  1  0  0  0  0
 28 24  1  0  0  0  0
 29 24  1  0  0  0  0
 30  8  1  0  0  0  0
 31 34  1  0  0  0  0
 32 36  1  0  0  0  0
 32 31  2  0  0  0  0
 33 35  1  0  0  0  0
 34 35  2  0  0  0  0
 35 30  1  0  0  0  0
 36 33  2  0  0  0  0
 37 32  1  0  0  0  0
 38 37  1  0  0  0  0
 40 41  2  0  0  0  0
 40 39  1  0  0  0  0
 42 40  1  0  0  0  0
 43 42  2  0  0  0  0
M  END
>  <MODEL>
9

>  <REMARK>
 VINA RESULT:      -5.5      3.493      9.500
  Name = 
  13 active torsions:
  status: ('A' for Active; 'I' for Inactive)
    1  A    between atoms: N_1  and  N_34
    2  A    between atoms: N_1  and  C_35
    3  A    between atoms: C_2  and  N_6
    4  A    between atoms: C_2  and  C_13
    5  A    between atoms: C_3  and  C_4
    6  A    between atoms: C_3  and  C_12
    7  A    between atoms: C_4  and  C_22
    8  A    between atoms: C_5  and  C_18
    9  A    between atoms: C_5  and  O_23
   10  A    between atoms: C_11  and  C_14
   11  A    between atoms: C_14  and  C_22
   12  A    between atoms: C_16  and  O_23
   13  A    between atoms: C_19  and  O_25
                            x       y       z     vdW  Elec       q    Type
                         _______ _______ _______ _____ _____    ______ ____

>  <TORSDO>
F 13

$$$$
