=
 OpenBabel11062408433D

 55 59  0  0  1  0  0  0  0  0999 V2000
  162.0010  207.2750  150.0460 C   0  0  0  0  0  2  0  0  0  0  0  0
  161.5880  214.1290  148.7040 S   0  0  0  0  0  0  0  0  0  0  0  0
  159.1230  213.6400  151.7540 O   0  0  0  0  0  0  0  0  0  0  0  0
  156.1000  213.2860  153.8550 C   0  0  0  0  0  3  0  0  0  0  0  0
  155.5760  212.5450  154.9150 C   0  0  0  0  0  3  0  0  0  0  0  0
  157.8390  211.6130  153.5300 C   0  0  0  0  0  0  0  0  0  0  0  0
  157.2920  210.8740  154.5910 C   0  0  0  0  0  3  0  0  0  0  0  0
  156.9920  214.4520  151.4300 O   0  0  0  0  0  0  0  0  0  0  0  0
  156.1740  211.3400  155.2850 C   0  0  0  0  0  3  0  0  0  0  0  0
  157.2320  212.8410  153.1580 C   0  0  0  0  0  0  0  0  0  0  0  0
  160.9350  208.2940  152.0650 C   0  0  0  0  0  2  0  0  0  0  0  0
  163.0940  209.1510  148.7600 C   0  0  0  0  0  2  0  0  0  0  0  0
  160.9570  209.8060  152.1780 C   0  0  0  0  0  2  0  0  0  0  0  0
  163.6530  212.2350  149.0130 O   0  0  0  0  0  1  0  0  0  0  0  0
  158.9440  211.0400  152.7280 C   0  0  0  0  0  3  0  0  0  0  0  0
  161.1010  213.8620  150.4350 C   0  0  0  0  0  2  0  0  0  0  0  0
  159.6590  214.2890  150.6140 C   0  0  0  0  0  2  0  0  0  0  0  0
  161.5000  212.3560  148.2090 C   0  0  1  0  0  3  0  0  0  0  0  0
  162.2370  207.8140  151.4480 C   0  0  0  0  0  2  0  0  0  0  0  0
  157.7640  213.6840  152.0670 C   0  0  0  0  0  0  0  0  0  0  0  0
  161.7930  208.3990  149.0320 C   0  0  1  0  0  3  0  0  0  0  0  0
  162.5070  211.5200  148.8800 N   0  0  0  0  0  0  0  0  0  0  0  0
  159.9490  210.2790  153.1730 C   0  0  0  0  0  0  0  0  0  0  0  0
  162.8330  210.4300  147.9720 C   0  0  0  0  0  2  0  0  0  0  0  0
  160.1620  210.0140  154.6390 C   0  0  1  0  0  3  0  0  0  0  0  0
  162.1550  209.6250  155.5520 C   0  0  1  0  0  3  0  0  0  0  0  0
  160.1870  208.6290  154.8890 O   0  0  0  0  0  0  0  0  0  0  0  0
  161.2590  208.4470  155.7560 C   0  0  0  0  0  2  0  0  0  0  0  0
  161.3420  210.6510  155.0800 O   0  0  0  0  0  0  0  0  0  0  0  0
  162.7990  210.0330  156.8650 C   0  0  0  0  0  3  0  0  0  0  0  0
  162.5100  211.4990  157.1240 C   0  0  0  0  0  2  0  0  0  0  0  0
  163.8690  211.0750  156.6040 C   0  0  0  0  0  2  0  0  0  0  0  0
  160.0950  211.8190  148.4750 C   0  0  0  0  0  2  0  0  0  0  0  0
  159.1490  212.1470  147.3400 C   0  0  0  0  0  2  0  0  0  0  0  0
  159.3120  213.6120  146.9730 C   0  0  0  0  0  2  0  0  0  0  0  0
  159.3320  213.7710  145.5220 N   0  0  0  0  0  0  0  0  0  0  0  0
  161.6840  213.3110  145.3710 C   0  0  0  0  0  2  0  0  0  0  0  0
  160.5830  213.8070  144.8050 C   0  0  0  0  0  0  0  0  0  0  0  0
  161.6570  213.2250  142.6100 C   0  0  0  0  0  2  0  0  0  0  0  0
  160.2040  212.8130  142.5640 C   0  0  1  0  0  3  0  0  0  0  0  0
  160.6090  214.0700  143.3210 C   0  0  1  0  0  3  0  0  0  0  0  0
  159.6040  213.2180  141.2340 C   0  0  0  0  0  2  0  0  0  0  0  0
  158.9650  212.0010  140.5830 C   0  0  0  0  0  2  0  0  0  0  0  0
  159.7380  211.5900  139.3380 C   0  0  0  0  0  2  0  0  0  0  0  0
  158.0600  209.7280  138.6730 C   0  0  0  0  0  1  0  0  0  0  0  0
  158.7490  211.4310  137.2080 O   0  0  0  0  0  0  0  0  0  0  0  0
  158.8380  210.9530  138.3270 C   0  0  0  0  0  0  0  0  0  0  0  0
  158.0590  213.8200  144.8050 C   0  0  0  0  0  2  0  0  0  0  0  0
  156.7940  213.7870  146.9950 C   0  0  0  0  0  1  0  0  0  0  0  0
  155.6210  214.4510  144.8950 C   0  0  0  0  0  1  0  0  0  0  0  0
  156.9430  214.4530  145.6390 C   0  0  0  0  0  3  0  0  0  0  0  0
  161.1880  207.8450  147.7420 C   0  0  0  0  0  2  0  0  0  0  0  0
  160.6190  206.4450  147.9040 C   0  0  0  0  0  2  0  0  0  0  0  0
  160.8910  205.4740  145.6480 C   0  0  0  0  0  1  0  0  0  0  0  0
  161.4210  205.4660  147.0710 C   0  0  0  0  0  2  0  0  0  0  0  0
  1 19  1  0  0  0  0
  2 16  1  0  0  0  0
  3 20  1  0  0  0  0
  4  5  1  0  0  0  0
  5  9  2  0  0  0  0
  6  7  2  0  0  0  0
  7  9  1  0  0  0  0
  8 20  2  0  0  0  0
 10  6  1  0  0  0  0
 10  4  2  0  0  0  0
 11 13  1  0  0  0  0
 12 21  1  0  0  0  0
 13 23  1  0  0  0  0
 15 23  2  0  0  0  0
 15  6  1  0  0  0  0
 16 17  1  0  0  0  0
 17  3  1  0  0  0  0
 18 33  1  1  0  0  0
 18  2  1  0  0  0  0
 18 22  1  0  0  0  0
 19 11  1  0  0  0  0
 20 10  1  0  0  0  0
 21 52  1  6  0  0  0
 21  1  1  0  0  0  0
 22 14  1  0  0  0  0
 24 12  1  0  0  0  0
 24 22  1  0  0  0  0
 25 23  1  6  0  0  0
 25 27  1  0  0  0  0
 25 29  1  0  0  0  0
 26 28  1  0  0  0  0
 26 30  1  1  0  0  0
 27 28  1  0  0  0  0
 29 26  1  0  0  0  0
 30 31  1  0  0  0  0
 32 30  1  0  0  0  0
 32 31  1  0  0  0  0
 34 33  1  0  0  0  0
 35 34  1  0  0  0  0
 36 35  1  0  0  0  0
 38 37  2  0  0  0  0
 38 36  1  0  0  0  0
 39 41  1  0  0  0  0
 40 42  1  6  0  0  0
 40 39  1  0  0  0  0
 40 41  1  0  0  0  0
 41 38  1  1  0  0  0
 43 42  1  0  0  0  0
 44 43  1  0  0  0  0
 46 47  2  0  0  0  0
 47 45  1  0  0  0  0
 47 44  1  0  0  0  0
 48 36  1  0  0  0  0
 48 51  1  0  0  0  0
 50 51  1  0  0  0  0
 51 49  1  0  0  0  0
 52 53  1  0  0  0  0
 54 55  1  0  0  0  0
 55 53  1  0  0  0  0
M  END
>  <MODEL>
1

>  <REMARK>
 VINA RESULT:      -2.6      0.000      0.000
  Name = 
  17 active torsions:
  status: ('A' for Active; 'I' for Inactive)
    1  A    between atoms: C_3  and  C_14
    2  A    between atoms: C_3  and  C_21
    3  A    between atoms: C_6  and  C_14
    4  A    between atoms: C_6  and  C_38
    5  A    between atoms: C_8  and  C_20
    6  A    between atoms: C_8  and  C_22
    7  A    between atoms: C_10  and  C_32
    8  A    between atoms: N_12  and  C_20
    9  A    between atoms: N_12  and  C_42
   10  A    between atoms: N_12  and  C_46
   11  A    between atoms: C_13  and  C_52
   12  A    between atoms: C_22  and  C_43
   13  A    between atoms: C_27  and  C_49
   14  A    between atoms: C_27  and  C_55
   15  A    between atoms: C_41  and  C_55
   16  A    between atoms: C_42  and  C_50
   17  A    between atoms: C_46  and  C_53
                            x       y       z     vdW  Elec       q    Type
                         _______ _______ _______ _____ _____    ______ ____

>  <TORSDO>
F 17

$$$$
=
 OpenBabel11062408433D

 55 59  0  0  1  0  0  0  0  0999 V2000
  161.4000  206.5060  150.6310 C   0  0  0  0  0  2  0  0  0  0  0  0
  161.9770  213.1390  148.4850 S   0  0  0  0  0  0  0  0  0  0  0  0
  159.5020  213.3800  151.5570 O   0  0  0  0  0  0  0  0  0  0  0  0
  156.4840  213.7230  153.6670 C   0  0  0  0  0  3  0  0  0  0  0  0
  155.8700  213.1970  154.8040 C   0  0  0  0  0  3  0  0  0  0  0  0
  157.9570  211.7860  153.5530 C   0  0  0  0  0  0  0  0  0  0  0  0
  157.3200  211.2660  154.6900 C   0  0  0  0  0  3  0  0  0  0  0  0
  157.5090  214.4510  151.1260 O   0  0  0  0  0  0  0  0  0  0  0  0
  156.2900  211.9690  155.3180 C   0  0  0  0  0  3  0  0  0  0  0  0
  157.5310  213.0370  153.0340 C   0  0  0  0  0  0  0  0  0  0  0  0
  160.5180  207.9010  152.5090 C   0  0  0  0  0  2  0  0  0  0  0  0
  162.7410  208.0360  149.1390 C   0  0  0  0  0  2  0  0  0  0  0  0
  160.7620  209.3950  152.4430 C   0  0  0  0  0  2  0  0  0  0  0  0
  163.7470  211.0140  149.0280 O   0  0  0  0  0  1  0  0  0  0  0  0
  158.9580  210.9670  152.8300 C   0  0  0  0  0  3  0  0  0  0  0  0
  161.4770  213.1530  150.2320 C   0  0  0  0  0  2  0  0  0  0  0  0
  160.1140  213.8040  150.3510 C   0  0  0  0  0  2  0  0  0  0  0  0
  161.6250  211.3520  148.2030 C   0  0  1  0  0  3  0  0  0  0  0  0
  161.7290  207.1660  151.9610 C   0  0  0  0  0  2  0  0  0  0  0  0
  158.1680  213.6590  151.8540 C   0  0  0  0  0  0  0  0  0  0  0  0
  161.3470  207.5210  149.4900 C   0  0  1  0  0  3  0  0  0  0  0  0
  162.5070  210.4630  148.9740 N   0  0  0  0  0  0  0  0  0  0  0  0
  159.8450  210.1250  153.3690 C   0  0  0  0  0  0  0  0  0  0  0  0
  162.6610  209.2380  148.2030 C   0  0  0  0  0  2  0  0  0  0  0  0
  160.0340  210.0070  154.8570 C   0  0  1  0  0  3  0  0  0  0  0  0
  161.9720  209.4920  155.8240 C   0  0  1  0  0  3  0  0  0  0  0  0
  159.8970  208.6660  155.2630 O   0  0  0  0  0  0  0  0  0  0  0  0
  160.9440  208.4590  156.1540 C   0  0  0  0  0  2  0  0  0  0  0  0
  161.2840  210.5460  155.2310 O   0  0  0  0  0  0  0  0  0  0  0  0
  162.6680  209.9690  157.0860 C   0  0  0  0  0  3  0  0  0  0  0  0
  162.4170  211.4540  157.2600 C   0  0  0  0  0  2  0  0  0  0  0  0
  163.7490  210.9690  156.7240 C   0  0  0  0  0  2  0  0  0  0  0  0
  160.1610  211.0620  148.5230 C   0  0  0  0  0  2  0  0  0  0  0  0
  159.2670  212.2240  148.1420 C   0  0  0  0  0  2  0  0  0  0  0  0
  158.7880  212.0280  146.7140 C   0  0  0  0  0  2  0  0  0  0  0  0
  158.7620  213.3050  146.0090 N   0  0  0  0  0  0  0  0  0  0  0  0
  158.7170  214.2360  143.7960 C   0  0  0  0  0  2  0  0  0  0  0  0
  159.2990  213.4180  144.6750 C   0  0  0  0  0  0  0  0  0  0  0  0
  160.6440  211.6090  143.5660 C   0  0  0  0  0  2  0  0  0  0  0  0
  160.9040  212.9140  142.8520 C   0  0  1  0  0  3  0  0  0  0  0  0
  160.6820  212.9090  144.3580 C   0  0  1  0  0  3  0  0  0  0  0  0
  162.3870  213.0570  142.5800 C   0  0  0  0  0  2  0  0  0  0  0  0
  162.6280  212.9870  141.0800 C   0  0  0  0  0  2  0  0  0  0  0  0
  163.5360  214.1210  140.6280 C   0  0  0  0  0  2  0  0  0  0  0  0
  162.8720  213.5040  138.1980 C   0  0  0  0  0  1  0  0  0  0  0  0
  165.0080  214.2770  138.7980 O   0  0  0  0  0  0  0  0  0  0  0  0
  163.8850  213.9920  139.1780 C   0  0  0  0  0  0  0  0  0  0  0  0
  158.1190  214.4480  146.6530 C   0  0  0  0  0  2  0  0  0  0  0  0
  156.4570  213.7820  148.4400 C   0  0  0  0  0  1  0  0  0  0  0  0
  156.0480  213.1380  146.0630 C   0  0  0  0  0  1  0  0  0  0  0  0
  156.6500  214.1800  146.9870 C   0  0  0  0  0  3  0  0  0  0  0  0
  160.6530  206.9130  148.2710 C   0  0  0  0  0  2  0  0  0  0  0  0
  161.4810  205.8340  147.5910 C   0  0  0  0  0  2  0  0  0  0  0  0
  161.5920  203.4170  148.0880 C   0  0  0  0  0  1  0  0  0  0  0  0
  161.9170  204.8030  148.6120 C   0  0  0  0  0  2  0  0  0  0  0  0
  1 19  1  0  0  0  0
  2 16  1  0  0  0  0
  3 20  1  0  0  0  0
  4  5  1  0  0  0  0
  5  9  2  0  0  0  0
  6  7  2  0  0  0  0
  7  9  1  0  0  0  0
  8 20  2  0  0  0  0
 10  6  1  0  0  0  0
 10  4  2  0  0  0  0
 12 21  1  0  0  0  0
 13 11  1  0  0  0  0
 13 23  1  0  0  0  0
 15 23  2  0  0  0  0
 15  6  1  0  0  0  0
 16 17  1  0  0  0  0
 17  3  1  0  0  0  0
 18  2  1  0  0  0  0
 18 33  1  1  0  0  0
 18 22  1  0  0  0  0
 19 11  1  0  0  0  0
 20 10  1  0  0  0  0
 21 52  1  6  0  0  0
 21  1  1  0  0  0  0
 22 14  1  0  0  0  0
 24 22  1  0  0  0  0
 24 12  1  0  0  0  0
 25 23  1  6  0  0  0
 25 29  1  0  0  0  0
 25 27  1  0  0  0  0
 26 28  1  0  0  0  0
 26 30  1  1  0  0  0
 27 28  1  0  0  0  0
 29 26  1  0  0  0  0
 30 31  1  0  0  0  0
 32 30  1  0  0  0  0
 32 31  1  0  0  0  0
 34 33  1  0  0  0  0
 35 34  1  0  0  0  0
 36 48  1  0  0  0  0
 36 35  1  0  0  0  0
 37 38  2  0  0  0  0
 38 36  1  0  0  0  0
 39 41  1  0  0  0  0
 40 42  1  1  0  0  0
 40 39  1  0  0  0  0
 40 41  1  0  0  0  0
 41 38  1  6  0  0  0
 43 42  1  0  0  0  0
 44 43  1  0  0  0  0
 45 47  1  0  0  0  0
 46 47  2  0  0  0  0
 47 44  1  0  0  0  0
 48 51  1  0  0  0  0
 50 51  1  0  0  0  0
 51 49  1  0  0  0  0
 53 52  1  0  0  0  0
 53 55  1  0  0  0  0
 54 55  1  0  0  0  0
M  END
>  <MODEL>
2

>  <REMARK>
 VINA RESULT:      -1.0      1.773      2.090
  Name = 
  17 active torsions:
  status: ('A' for Active; 'I' for Inactive)
    1  A    between atoms: C_3  and  C_14
    2  A    between atoms: C_3  and  C_21
    3  A    between atoms: C_6  and  C_14
    4  A    between atoms: C_6  and  C_38
    5  A    between atoms: C_8  and  C_20
    6  A    between atoms: C_8  and  C_22
    7  A    between atoms: C_10  and  C_32
    8  A    between atoms: N_12  and  C_20
    9  A    between atoms: N_12  and  C_42
   10  A    between atoms: N_12  and  C_46
   11  A    between atoms: C_13  and  C_52
   12  A    between atoms: C_22  and  C_43
   13  A    between atoms: C_27  and  C_49
   14  A    between atoms: C_27  and  C_55
   15  A    between atoms: C_41  and  C_55
   16  A    between atoms: C_42  and  C_50
   17  A    between atoms: C_46  and  C_53
                            x       y       z     vdW  Elec       q    Type
                         _______ _______ _______ _____ _____    ______ ____

>  <TORSDO>
F 17

$$$$
=
 OpenBabel11062408433D

 55 59  0  0  1  0  0  0  0  0999 V2000
  160.4770  209.1970  153.7640 C   0  0  0  0  0  2  0  0  0  0  0  0
  162.9490  211.9870  147.8450 S   0  0  0  0  0  0  0  0  0  0  0  0
  159.3010  213.4830  148.1110 O   0  0  0  0  0  0  0  0  0  0  0  0
  155.7030  214.1790  147.6120 C   0  0  0  0  0  3  0  0  0  0  0  0
  154.5270  214.4520  148.3110 C   0  0  0  0  0  3  0  0  0  0  0  0
  156.7520  213.3900  149.6630 C   0  0  0  0  0  0  0  0  0  0  0  0
  155.5580  213.6590  150.3480 C   0  0  0  0  0  3  0  0  0  0  0  0
  157.9780  213.1740  146.2510 O   0  0  0  0  0  0  0  0  0  0  0  0
  154.4550  214.1950  149.6810 C   0  0  0  0  0  3  0  0  0  0  0  0
  156.8250  213.6560  148.2710 C   0  0  0  0  0  0  0  0  0  0  0  0
  158.9460  211.0970  153.2240 C   0  0  0  0  0  2  0  0  0  0  0  0
  162.5840  209.5390  152.4190 C   0  0  0  0  0  2  0  0  0  0  0  0
  159.3840  212.0600  152.1380 C   0  0  0  0  0  2  0  0  0  0  0  0
  163.8860  211.6460  150.4810 O   0  0  0  0  0  1  0  0  0  0  0  0
  157.8640  212.7050  150.3630 C   0  0  0  0  0  3  0  0  0  0  0  0
  161.6260  213.0660  148.4670 C   0  0  0  0  0  2  0  0  0  0  0  0
  160.4970  213.0970  147.4570 C   0  0  0  0  0  2  0  0  0  0  0  0
  162.5610  210.5600  148.9440 C   0  0  1  0  0  3  0  0  0  0  0  0
  160.1560  210.6590  154.0300 C   0  0  0  0  0  2  0  0  0  0  0  0
  158.0560  213.4200  147.4860 C   0  0  0  0  0  0  0  0  0  0  0  0
  161.1550  209.0000  152.4090 C   0  0  1  0  0  3  0  0  0  0  0  0
  162.7920  210.8500  150.3670 N   0  0  0  0  0  0  0  0  0  0  0  0
  158.2260  212.8620  151.6400 C   0  0  0  0  0  0  0  0  0  0  0  0
  163.1580  209.5940  151.0070 C   0  0  0  0  0  2  0  0  0  0  0  0
  157.6020  213.9060  152.5260 C   0  0  1  0  0  3  0  0  0  0  0  0
  157.1070  213.5780  154.6710 C   0  0  1  0  0  3  0  0  0  0  0  0
  156.2040  213.7490  152.5600 O   0  0  0  0  0  0  0  0  0  0  0  0
  155.8650  213.8920  153.9010 C   0  0  0  0  0  2  0  0  0  0  0  0
  158.1700  213.8490  153.8160 O   0  0  0  0  0  0  0  0  0  0  0  0
  157.1970  214.4530  155.9090 C   0  0  0  0  0  3  0  0  0  0  0  0
  157.9950  213.7250  156.9730 C   0  0  0  0  0  2  0  0  0  0  0  0
  156.4830  213.7750  157.0630 C   0  0  0  0  0  2  0  0  0  0  0  0
  161.1180  210.1150  148.7160 C   0  0  0  0  0  2  0  0  0  0  0  0
  160.9450  208.6330  148.9730 C   0  0  0  0  0  2  0  0  0  0  0  0
  161.3060  207.8700  147.7110 C   0  0  0  0  0  2  0  0  0  0  0  0
  161.7020  206.5040  148.0410 N   0  0  0  0  0  0  0  0  0  0  0  0
  159.5050  205.7220  148.6120 C   0  0  0  0  0  2  0  0  0  0  0  0
  160.8230  205.6480  148.8000 C   0  0  0  0  0  0  0  0  0  0  0  0
  160.4040  203.9520  150.6040 C   0  0  0  0  0  2  0  0  0  0  0  0
  160.4810  203.2380  149.2760 C   0  0  1  0  0  3  0  0  0  0  0  0
  161.3660  204.4490  149.5340 C   0  0  1  0  0  3  0  0  0  0  0  0
  161.3170  201.9840  149.4210 C   0  0  0  0  0  2  0  0  0  0  0  0
  161.3820  201.2690  148.0800 C   0  0  0  0  0  2  0  0  0  0  0  0
  160.9350  202.1940  146.9570 C   0  0  0  0  0  2  0  0  0  0  0  0
  159.6290  202.0870  144.7190 C   0  0  0  0  0  1  0  0  0  0  0  0
  160.6730  200.2220  145.6970 O   0  0  0  0  0  0  0  0  0  0  0  0
  160.4330  201.4150  145.7810 C   0  0  0  0  0  0  0  0  0  0  0  0
  162.9730  206.0000  147.5260 C   0  0  0  0  0  2  0  0  0  0  0  0
  164.0250  204.1540  146.1540 C   0  0  0  0  0  1  0  0  0  0  0  0
  162.3650  205.6900  145.1000 C   0  0  0  0  0  1  0  0  0  0  0  0
  162.7850  204.9990  146.3840 C   0  0  0  0  0  3  0  0  0  0  0  0
  161.1170  207.5260  152.0060 C   0  0  0  0  0  2  0  0  0  0  0  0
  160.8620  206.5940  153.1780 C   0  0  0  0  0  2  0  0  0  0  0  0
  162.9380  205.4150  152.5410 C   0  0  0  0  0  1  0  0  0  0  0  0
  162.1770  206.0450  153.6930 C   0  0  0  0  0  2  0  0  0  0  0  0
  1 19  1  0  0  0  0
  2 16  1  0  0  0  0
  2 18  1  0  0  0  0
  4 10  2  0  0  0  0
  4  5  1  0  0  0  0
  5  9  2  0  0  0  0
  6  7  2  0  0  0  0
  6 15  1  0  0  0  0
  8 20  2  0  0  0  0
  9  7  1  0  0  0  0
 10  6  1  0  0  0  0
 11 19  1  0  0  0  0
 13 11  1  0  0  0  0
 15 23  2  0  0  0  0
 17  3  1  0  0  0  0
 17 16  1  0  0  0  0
 18 33  1  1  0  0  0
 18 22  1  0  0  0  0
 20  3  1  0  0  0  0
 20 10  1  0  0  0  0
 21 52  1  1  0  0  0
 21 12  1  0  0  0  0
 21  1  1  0  0  0  0
 22 14  1  0  0  0  0
 22 24  1  0  0  0  0
 23 13  1  0  0  0  0
 24 12  1  0  0  0  0
 25 23  1  6  0  0  0
 25 27  1  0  0  0  0
 25 29  1  0  0  0  0
 26 30  1  1  0  0  0
 27 28  1  0  0  0  0
 28 26  1  0  0  0  0
 29 26  1  0  0  0  0
 30 31  1  0  0  0  0
 30 32  1  0  0  0  0
 31 32  1  0  0  0  0
 33 34  1  0  0  0  0
 35 36  1  0  0  0  0
 35 34  1  0  0  0  0
 36 38  1  0  0  0  0
 37 38  2  0  0  0  0
 40 42  1  1  0  0  0
 40 41  1  0  0  0  0
 40 39  1  0  0  0  0
 41 38  1  6  0  0  0
 41 39  1  0  0  0  0
 43 42  1  0  0  0  0
 44 43  1  0  0  0  0
 45 47  1  0  0  0  0
 46 47  2  0  0  0  0
 47 44  1  0  0  0  0
 48 36  1  0  0  0  0
 49 51  1  0  0  0  0
 50 51  1  0  0  0  0
 51 48  1  0  0  0  0
 52 53  1  0  0  0  0
 53 55  1  0  0  0  0
 54 55  1  0  0  0  0
M  END
>  <MODEL>
3

>  <REMARK>
 VINA RESULT:      -0.9      3.682      7.452
  Name = 
  17 active torsions:
  status: ('A' for Active; 'I' for Inactive)
    1  A    between atoms: C_3  and  C_14
    2  A    between atoms: C_3  and  C_21
    3  A    between atoms: C_6  and  C_14
    4  A    between atoms: C_6  and  C_38
    5  A    between atoms: C_8  and  C_20
    6  A    between atoms: C_8  and  C_22
    7  A    between atoms: C_10  and  C_32
    8  A    between atoms: N_12  and  C_20
    9  A    between atoms: N_12  and  C_42
   10  A    between atoms: N_12  and  C_46
   11  A    between atoms: C_13  and  C_52
   12  A    between atoms: C_22  and  C_43
   13  A    between atoms: C_27  and  C_49
   14  A    between atoms: C_27  and  C_55
   15  A    between atoms: C_41  and  C_55
   16  A    between atoms: C_42  and  C_50
   17  A    between atoms: C_46  and  C_53
                            x       y       z     vdW  Elec       q    Type
                         _______ _______ _______ _____ _____    ______ ____

>  <TORSDO>
F 17

$$$$
