=
 OpenBabel11062407433D

 34 38  0  0  1  0  0  0  0  0999 V2000
  160.7040  205.1240  151.9970 C   0  0  2  0  0  3  0  0  0  0  0  0
  160.4120  205.5570  149.5010 C   0  0  1  0  0  3  0  0  0  0  0  0
  161.3190  207.3600  151.0050 C   0  0  1  0  0  3  0  0  0  0  0  0
  161.9050  209.5770  149.9600 C   0  0  2  0  0  3  0  0  0  0  0  0
  161.1120  204.5210  148.6410 C   0  0  0  0  0  1  0  0  0  0  0  0
  161.3460  207.6250  148.5000 N   0  0  0  0  0  2  0  0  0  0  0  0
  161.2560  205.8500  150.7570 C   0  0  1  0  0  3  0  0  0  0  0  0
  162.0890  207.7180  152.2770 C   0  0  1  0  0  3  0  0  0  0  0  0
  161.5040  205.4850  153.2530 C   0  0  0  0  0  2  0  0  0  0  0  0
  160.1320  206.8160  148.6660 C   0  0  0  0  0  2  0  0  0  0  0  0
  162.6590  209.9640  151.2370 C   0  0  0  0  0  2  0  0  0  0  0  0
  162.1200  209.2460  152.4810 C   0  0  1  0  0  3  0  0  0  0  0  0
  161.9430  208.0520  149.7820 C   0  0  2  0  0  3  0  0  0  0  0  0
  161.5010  206.9910  153.4870 C   0  0  0  0  0  2  0  0  0  0  0  0
  158.8810  211.2670  152.6410 C   0  0  0  0  0  0  0  0  0  0  0  0
  158.4430  210.9610  153.9330 C   0  0  0  0  0  3  0  0  0  0  0  0
  160.8270  209.8500  152.9650 C   0  0  0  0  0  0  0  0  0  0  0  0
  159.1930  210.1020  154.7410 C   0  0  0  0  0  3  0  0  0  0  0  0
  160.0710  210.7150  152.1590 C   0  0  0  0  0  3  0  0  0  0  0  0
  160.3830  209.5500  154.2580 C   0  0  0  0  0  3  0  0  0  0  0  0
  158.1510  212.0940  151.8570 F   0  0  0  0  0  0  0  0  0  0  0  0
  162.0430  202.9830  151.7280 C   0  0  0  0  0  1  0  0  0  0  0  0
  160.6560  203.6040  151.8230 C   0  0  0  0  0  2  0  0  0  0  0  0
  162.5580  210.2990  148.7920 C   0  0  0  0  0  2  0  0  0  0  0  0
  162.0520  211.6560  148.6960 N   0  0  0  0  0  2  0  0  0  0  0  0
  161.8950  212.9230  146.7460 C   0  0  0  0  0  3  0  0  0  0  0  0
  161.3600  212.0680  147.5530 N   0  0  0  0  0  0  0  0  0  0  0  0
  163.4340  213.4650  144.0150 Cl  0  0  0  0  0  0  0  0  0  0  0  0
  161.1610  213.3720  145.5270 C   0  0  1  0  0  3  0  0  0  0  0  0
  161.8050  212.7850  144.2620 C   0  0  1  0  0  3  0  0  0  0  0  0
  159.5730  212.6710  143.2630 N   0  0  0  0  0  2  0  0  0  0  0  0
  158.9800  212.6800  144.5670 C   0  0  0  0  0  3  0  0  0  0  0  0
  159.7090  212.9860  145.6410 C   0  0  0  0  0  3  0  0  0  0  0  0
  160.9440  213.1250  143.0490 C   0  0  0  0  0  2  0  0  0  0  0  0
  1 23  1  6  0  0  0
  1  9  1  0  0  0  0
  2  5  1  6  0  0  0
  2  7  1  0  0  0  0
  3  8  1  0  0  0  0
  4 11  1  0  0  0  0
  6 10  1  0  0  0  0
  6 13  1  0  0  0  0
  7  3  1  0  0  0  0
  7  1  1  0  0  0  0
  8 12  1  0  0  0  0
  8 14  1  0  0  0  0
  9 14  1  0  0  0  0
 10  2  1  0  0  0  0
 11 12  1  0  0  0  0
 12 17  1  0  0  0  0
 13  4  1  0  0  0  0
 13  3  1  0  0  0  0
 15 16  1  0  0  0  0
 16 18  2  0  0  0  0
 17 20  2  0  0  0  0
 19 15  2  0  0  0  0
 19 17  1  0  0  0  0
 20 18  1  0  0  0  0
 21 15  1  0  0  0  0
 22 23  1  0  0  0  0
 24  4  1  0  0  0  0
 25 24  1  0  0  0  0
 26 27  2  0  0  0  0
 27 25  1  0  0  0  0
 28 30  1  0  0  0  0
 29 33  1  0  0  0  0
 29 26  1  0  0  0  0
 30 29  1  0  0  0  0
 31 32  1  0  0  0  0
 32 33  2  0  0  0  0
 34 31  1  0  0  0  0
 34 30  1  0  0  0  0
M  END
>  <MODEL>
1

>  <REMARK>
 VINA RESULT:      -7.6      0.000      0.000
  Name = 
  6 active torsions:
  status: ('A' for Active; 'I' for Inactive)
    1  A    between atoms: C_1  and  C_19
    2  A    between atoms: C_3  and  C_13
    3  A    between atoms: C_5  and  C_18
    4  A    between atoms: C_12  and  C_28
    5  A    between atoms: N_17  and  N_29
    6  A    between atoms: C_18  and  N_29
                            x       y       z     vdW  Elec       q    Type
                         _______ _______ _______ _____ _____    ______ ____

>  <TORSDO>
F 6

$$$$
=
 OpenBabel11062407433D

 34 38  0  0  1  0  0  0  0  0999 V2000
  160.7230  205.1800  152.0980 C   0  0  2  0  0  3  0  0  0  0  0  0
  160.3850  205.5170  149.5930 C   0  0  1  0  0  3  0  0  0  0  0  0
  161.2940  207.3850  151.0140 C   0  0  1  0  0  3  0  0  0  0  0  0
  161.8360  209.5690  149.8790 C   0  0  2  0  0  3  0  0  0  0  0  0
  161.0840  204.4590  148.7600 C   0  0  0  0  0  1  0  0  0  0  0  0
  161.2770  207.5580  148.5010 N   0  0  0  0  0  2  0  0  0  0  0  0
  161.2460  205.8670  150.8230 C   0  0  1  0  0  3  0  0  0  0  0  0
  162.0800  207.7990  152.2600 C   0  0  1  0  0  3  0  0  0  0  0  0
  161.5390  205.5970  153.3260 C   0  0  0  0  0  2  0  0  0  0  0  0
  160.0760  206.7420  148.7170 C   0  0  0  0  0  2  0  0  0  0  0  0
  162.6060  210.0120  151.1290 C   0  0  0  0  0  2  0  0  0  0  0  0
  162.0950  209.3340  152.4060 C   0  0  1  0  0  3  0  0  0  0  0  0
  161.8890  208.0390  149.7560 C   0  0  2  0  0  3  0  0  0  0  0  0
  161.5210  207.1100  153.5050 C   0  0  0  0  0  2  0  0  0  0  0  0
  158.8580  211.3570  152.5630 C   0  0  0  0  0  0  0  0  0  0  0  0
  158.4200  211.0550  153.8550 C   0  0  0  0  0  3  0  0  0  0  0  0
  160.8030  209.9400  152.8890 C   0  0  0  0  0  0  0  0  0  0  0  0
  159.1700  210.1990  154.6660 C   0  0  0  0  0  3  0  0  0  0  0  0
  160.0470  210.8030  152.0810 C   0  0  0  0  0  3  0  0  0  0  0  0
  160.3600  209.6450  154.1830 C   0  0  0  0  0  3  0  0  0  0  0  0
  158.1270  212.1830  151.7760 F   0  0  0  0  0  0  0  0  0  0  0  0
  162.0650  203.0610  151.7070 C   0  0  0  0  0  1  0  0  0  0  0  0
  160.6900  203.6550  151.9800 C   0  0  0  0  0  2  0  0  0  0  0  0
  162.4610  210.2550  148.6740 C   0  0  0  0  0  2  0  0  0  0  0  0
  162.4930  211.6920  148.8770 N   0  0  0  0  0  2  0  0  0  0  0  0
  160.7760  212.6180  147.6020 C   0  0  0  0  0  3  0  0  0  0  0  0
  161.3190  212.4430  148.7600 N   0  0  0  0  0  0  0  0  0  0  0  0
  158.9880  212.4410  144.9770 Cl  0  0  0  0  0  0  0  0  0  0  0  0
  159.5260  213.4230  147.4680 C   0  0  1  0  0  3  0  0  0  0  0  0
  158.4680  212.6490  146.6690 C   0  0  1  0  0  3  0  0  0  0  0  0
  156.7500  213.6990  148.0610 N   0  0  0  0  0  2  0  0  0  0  0  0
  157.7190  213.9450  149.0860 C   0  0  0  0  0  3  0  0  0  0  0  0
  159.0220  213.8040  148.8350 C   0  0  0  0  0  3  0  0  0  0  0  0
  157.1520  213.4220  146.6850 C   0  0  0  0  0  2  0  0  0  0  0  0
  1 23  1  6  0  0  0
  1  9  1  0  0  0  0
  2  5  1  6  0  0  0
  2  7  1  0  0  0  0
  3  8  1  0  0  0  0
  4 11  1  0  0  0  0
  6 10  1  0  0  0  0
  6 13  1  0  0  0  0
  7  3  1  0  0  0  0
  7  1  1  0  0  0  0
  8 12  1  0  0  0  0
  8 14  1  0  0  0  0
  9 14  1  0  0  0  0
 10  2  1  0  0  0  0
 11 12  1  0  0  0  0
 12 17  1  0  0  0  0
 13  4  1  0  0  0  0
 13  3  1  0  0  0  0
 15 16  1  0  0  0  0
 16 18  2  0  0  0  0
 17 20  2  0  0  0  0
 19 15  2  0  0  0  0
 19 17  1  0  0  0  0
 20 18  1  0  0  0  0
 21 15  1  0  0  0  0
 22 23  1  0  0  0  0
 24 25  1  0  0  0  0
 24  4  1  0  0  0  0
 26 27  2  0  0  0  0
 27 25  1  0  0  0  0
 28 30  1  0  0  0  0
 29 26  1  0  0  0  0
 29 33  1  0  0  0  0
 30 34  1  0  0  0  0
 30 29  1  0  0  0  0
 31 32  1  0  0  0  0
 33 32  2  0  0  0  0
 34 31  1  0  0  0  0
M  END
>  <MODEL>
2

>  <REMARK>
 VINA RESULT:      -7.6      1.733      2.058
  Name = 
  6 active torsions:
  status: ('A' for Active; 'I' for Inactive)
    1  A    between atoms: C_1  and  C_19
    2  A    between atoms: C_3  and  C_13
    3  A    between atoms: C_5  and  C_18
    4  A    between atoms: C_12  and  C_28
    5  A    between atoms: N_17  and  N_29
    6  A    between atoms: C_18  and  N_29
                            x       y       z     vdW  Elec       q    Type
                         _______ _______ _______ _____ _____    ______ ____

>  <TORSDO>
F 6

$$$$
=
 OpenBabel11062407433D

 34 38  0  0  1  0  0  0  0  0999 V2000
  161.0030  208.4280  154.9860 C   0  0  2  0  0  3  0  0  0  0  0  0
  160.8310  206.5720  153.2450 C   0  0  1  0  0  3  0  0  0  0  0  0
  161.3760  208.9270  152.5410 C   0  0  1  0  0  3  0  0  0  0  0  0
  161.7270  209.3680  150.0850 C   0  0  2  0  0  3  0  0  0  0  0  0
  161.7240  205.3870  153.5610 C   0  0  0  0  0  1  0  0  0  0  0  0
  161.5430  207.0140  150.9100 N   0  0  0  0  0  2  0  0  0  0  0  0
  161.5370  207.8820  153.6490 C   0  0  1  0  0  3  0  0  0  0  0  0
  161.9990  210.2750  152.9060 C   0  0  1  0  0  3  0  0  0  0  0  0
  161.6570  209.7680  155.3370 C   0  0  0  0  0  2  0  0  0  0  0  0
  160.4410  206.5420  151.7580 C   0  0  0  0  0  2  0  0  0  0  0  0
  162.3300  210.7340  150.4300 C   0  0  0  0  0  2  0  0  0  0  0  0
  161.8080  211.2890  151.7610 C   0  0  1  0  0  3  0  0  0  0  0  0
  161.9840  208.3850  151.2370 C   0  0  2  0  0  3  0  0  0  0  0  0
  161.4330  210.7910  154.2290 C   0  0  0  0  0  2  0  0  0  0  0  0
  158.7980  213.3290  150.5860 C   0  0  0  0  0  0  0  0  0  0  0  0
  157.8080  212.8640  151.4560 C   0  0  0  0  0  3  0  0  0  0  0  0
  160.4140  211.8470  151.6310 C   0  0  0  0  0  0  0  0  0  0  0  0
  158.1170  211.8930  152.4130 C   0  0  0  0  0  3  0  0  0  0  0  0
  160.0980  212.8240  150.6740 C   0  0  0  0  0  3  0  0  0  0  0  0
  159.4180  211.3890  152.5010 C   0  0  0  0  0  3  0  0  0  0  0  0
  158.4960  214.2650  149.6550 F   0  0  0  0  0  0  0  0  0  0  0  0
  159.8410  206.9540  156.6960 C   0  0  0  0  0  1  0  0  0  0  0  0
  161.1740  207.4390  156.1420 C   0  0  0  0  0  2  0  0  0  0  0  0
  162.3560  208.8920  148.7840 C   0  0  0  0  0  2  0  0  0  0  0  0
  161.4710  207.9580  148.1130 N   0  0  0  0  0  2  0  0  0  0  0  0
  161.1270  205.6600  147.9350 C   0  0  0  0  0  3  0  0  0  0  0  0
  161.9180  206.6710  147.7980 N   0  0  0  0  0  0  0  0  0  0  0  0
  161.2130  203.3850  150.1570 Cl  0  0  0  0  0  0  0  0  0  0  0  0
  161.5970  204.2820  147.6060 C   0  0  1  0  0  3  0  0  0  0  0  0
  160.8240  203.2380  148.4240 C   0  0  1  0  0  3  0  0  0  0  0  0
  160.9960  201.7170  146.5130 N   0  0  0  0  0  2  0  0  0  0  0  0
  161.1960  202.8300  145.6350 C   0  0  0  0  0  3  0  0  0  0  0  0
  161.4590  204.0420  146.1250 C   0  0  0  0  0  3  0  0  0  0  0  0
  161.2080  201.8380  147.9530 C   0  0  0  0  0  2  0  0  0  0  0  0
  1  9  1  0  0  0  0
  1 23  1  1  0  0  0
  2  5  1  6  0  0  0
  2  7  1  0  0  0  0
  3  8  1  0  0  0  0
  3  7  1  0  0  0  0
  4 11  1  0  0  0  0
  4 13  1  0  0  0  0
  6 13  1  0  0  0  0
  6 10  1  0  0  0  0
  7  1  1  0  0  0  0
  8 14  1  0  0  0  0
 10  2  1  0  0  0  0
 11 12  1  0  0  0  0
 12  8  1  0  0  0  0
 13  3  1  0  0  0  0
 14  9  1  0  0  0  0
 15 19  2  0  0  0  0
 15 16  1  0  0  0  0
 16 18  2  0  0  0  0
 17 12  1  0  0  0  0
 17 20  2  0  0  0  0
 18 20  1  0  0  0  0
 19 17  1  0  0  0  0
 21 15  1  0  0  0  0
 23 22  1  0  0  0  0
 24  4  1  0  0  0  0
 25 24  1  0  0  0  0
 27 26  2  0  0  0  0
 27 25  1  0  0  0  0
 29 26  1  0  0  0  0
 29 30  1  0  0  0  0
 30 28  1  0  0  0  0
 31 34  1  0  0  0  0
 32 33  2  0  0  0  0
 32 31  1  0  0  0  0
 33 29  1  0  0  0  0
 34 30  1  0  0  0  0
M  END
>  <MODEL>
3

>  <REMARK>
 VINA RESULT:      -5.8      3.774      5.931
  Name = 
  6 active torsions:
  status: ('A' for Active; 'I' for Inactive)
    1  A    between atoms: C_1  and  C_19
    2  A    between atoms: C_3  and  C_13
    3  A    between atoms: C_5  and  C_18
    4  A    between atoms: C_12  and  C_28
    5  A    between atoms: N_17  and  N_29
    6  A    between atoms: C_18  and  N_29
                            x       y       z     vdW  Elec       q    Type
                         _______ _______ _______ _____ _____    ______ ____

>  <TORSDO>
F 6

$$$$
=
 OpenBabel11062407433D

 34 38  0  0  1  0  0  0  0  0999 V2000
  161.2750  212.9370  144.7220 C   0  0  2  0  0  3  0  0  0  0  0  0
  158.7430  213.1370  144.9530 C   0  0  1  0  0  3  0  0  0  0  0  0
  160.2130  213.1890  146.9960 C   0  0  1  0  0  3  0  0  0  0  0  0
  159.0950  213.4300  149.2420 C   0  0  2  0  0  3  0  0  0  0  0  0
  158.1640  214.2540  144.1050 C   0  0  0  0  0  1  0  0  0  0  0  0
  157.7580  213.7330  147.1500 N   0  0  0  0  0  2  0  0  0  0  0  0
  160.1140  213.5640  145.5150 C   0  0  1  0  0  3  0  0  0  0  0  0
  161.5770  213.5260  147.6010 C   0  0  1  0  0  3  0  0  0  0  0  0
  162.6290  213.3050  145.3370 C   0  0  0  0  0  2  0  0  0  0  0  0
  157.7420  212.7550  146.0550 C   0  0  0  0  0  2  0  0  0  0  0  0
  160.4580  213.7450  149.8710 C   0  0  0  0  0  2  0  0  0  0  0  0
  161.6240  213.1260  149.0890 C   0  0  1  0  0  3  0  0  0  0  0  0
  159.0870  213.8880  147.7760 C   0  0  2  0  0  3  0  0  0  0  0  0
  162.7000  212.8720  146.7970 C   0  0  0  0  0  2  0  0  0  0  0  0
  161.9570  209.7560  150.8570 C   0  0  0  0  0  0  0  0  0  0  0  0
  162.0230  208.8890  149.7630 C   0  0  0  0  0  3  0  0  0  0  0  0
  161.7550  211.6480  149.3480 C   0  0  0  0  0  0  0  0  0  0  0  0
  161.9570  209.3970  148.4630 C   0  0  0  0  0  3  0  0  0  0  0  0
  161.8250  211.1310  150.6510 C   0  0  0  0  0  3  0  0  0  0  0  0
  161.8250  210.7740  148.2570 C   0  0  0  0  0  3  0  0  0  0  0  0
  162.0160  209.2610  152.1170 F   0  0  0  0  0  0  0  0  0  0  0  0
  162.3280  212.5900  142.4380 C   0  0  0  0  0  1  0  0  0  0  0  0
  161.2510  213.3100  143.2380 C   0  0  0  0  0  2  0  0  0  0  0  0
  158.0260  214.1370  150.0610 C   0  0  0  0  0  2  0  0  0  0  0  0
  157.4680  213.2290  151.0460 N   0  0  0  0  0  2  0  0  0  0  0  0
  158.5790  212.0820  152.7430 C   0  0  0  0  0  3  0  0  0  0  0  0
  158.0150  213.1680  152.3310 N   0  0  0  0  0  0  0  0  0  0  0  0
  156.7040  211.9340  155.3090 Cl  0  0  0  0  0  0  0  0  0  0  0  0
  159.1600  212.0060  154.1160 C   0  0  1  0  0  3  0  0  0  0  0  0
  158.2770  211.1430  155.0290 C   0  0  1  0  0  3  0  0  0  0  0  0
  160.3090  210.3950  156.1710 N   0  0  0  0  0  2  0  0  0  0  0  0
  161.0910  210.7370  155.0210 C   0  0  0  0  0  3  0  0  0  0  0  0
  160.5670  211.4730  154.0390 C   0  0  0  0  0  3  0  0  0  0  0  0
  158.9730  210.9490  156.3730 C   0  0  0  0  0  2  0  0  0  0  0  0
  1 23  1  6  0  0  0
  1  9  1  0  0  0  0
  1  7  1  0  0  0  0
  2  5  1  1  0  0  0
  2  7  1  0  0  0  0
  2 10  1  0  0  0  0
  3  8  1  0  0  0  0
  3 13  1  0  0  0  0
  4 11  1  0  0  0  0
  4 24  1  0  0  0  0
  6 13  1  0  0  0  0
  7  3  1  0  0  0  0
  8 12  1  0  0  0  0
  9 14  1  0  0  0  0
 10  6  1  0  0  0  0
 12 17  1  0  0  0  0
 12 11  1  0  0  0  0
 13  4  1  0  0  0  0
 14  8  1  0  0  0  0
 15 21  1  0  0  0  0
 16 15  2  0  0  0  0
 17 19  2  0  0  0  0
 18 16  1  0  0  0  0
 19 15  1  0  0  0  0
 20 18  2  0  0  0  0
 20 17  1  0  0  0  0
 22 23  1  0  0  0  0
 24 25  1  0  0  0  0
 25 27  1  0  0  0  0
 26 29  1  0  0  0  0
 27 26  2  0  0  0  0
 29 30  1  0  0  0  0
 30 28  1  0  0  0  0
 30 34  1  0  0  0  0
 31 34  1  0  0  0  0
 32 31  1  0  0  0  0
 33 29  1  0  0  0  0
 33 32  2  0  0  0  0
M  END
>  <MODEL>
4

>  <REMARK>
 VINA RESULT:      -5.7      3.957      8.662
  Name = 
  6 active torsions:
  status: ('A' for Active; 'I' for Inactive)
    1  A    between atoms: C_1  and  C_19
    2  A    between atoms: C_3  and  C_13
    3  A    between atoms: C_5  and  C_18
    4  A    between atoms: C_12  and  C_28
    5  A    between atoms: N_17  and  N_29
    6  A    between atoms: C_18  and  N_29
                            x       y       z     vdW  Elec       q    Type
                         _______ _______ _______ _____ _____    ______ ____

>  <TORSDO>
F 6

$$$$
=
 OpenBabel11062407433D

 34 38  0  0  1  0  0  0  0  0999 V2000
  160.9060  207.9750  155.0060 C   0  0  2  0  0  3  0  0  0  0  0  0
  160.7170  206.2740  153.1150 C   0  0  1  0  0  3  0  0  0  0  0  0
  161.3180  208.6670  152.6160 C   0  0  1  0  0  3  0  0  0  0  0  0
  161.7070  209.3040  150.2090 C   0  0  2  0  0  3  0  0  0  0  0  0
  161.5820  205.0480  153.3410 C   0  0  0  0  0  1  0  0  0  0  0  0
  161.4650  206.8930  150.8330 N   0  0  0  0  0  2  0  0  0  0  0  0
  161.4440  207.5300  153.6340 C   0  0  1  0  0  3  0  0  0  0  0  0
  161.9640  209.9670  153.0980 C   0  0  1  0  0  3  0  0  0  0  0  0
  161.5820  209.2670  155.4750 C   0  0  0  0  0  2  0  0  0  0  0  0
  160.3440  206.3760  151.6270 C   0  0  0  0  0  2  0  0  0  0  0  0
  162.3330  210.6230  150.6730 C   0  0  0  0  0  2  0  0  0  0  0  0
  161.8070  211.0770  152.0400 C   0  0  1  0  0  3  0  0  0  0  0  0
  161.9300  208.2230  151.2770 C   0  0  2  0  0  3  0  0  0  0  0  0
  161.3920  210.3830  154.4540 C   0  0  0  0  0  2  0  0  0  0  0  0
  158.1440  211.9100  152.7390 C   0  0  0  0  0  0  0  0  0  0  0  0
  157.8710  212.7990  151.6950 C   0  0  0  0  0  3  0  0  0  0  0  0
  160.4260  211.6730  151.9430 C   0  0  0  0  0  0  0  0  0  0  0  0
  158.8720  213.1250  150.7750 C   0  0  0  0  0  3  0  0  0  0  0  0
  159.4160  211.3480  152.8620 C   0  0  0  0  0  3  0  0  0  0  0  0
  160.1450  212.5620  150.8990 C   0  0  0  0  0  3  0  0  0  0  0  0
  157.1750  211.5990  153.6330 F   0  0  0  0  0  0  0  0  0  0  0  0
  160.0920  207.1040  157.2480 C   0  0  0  0  0  1  0  0  0  0  0  0
  161.0430  206.8900  156.0780 C   0  0  0  0  0  2  0  0  0  0  0  0
  162.3410  208.9240  148.8790 C   0  0  0  0  0  2  0  0  0  0  0  0
  161.4650  208.0310  148.1430 N   0  0  0  0  0  2  0  0  0  0  0  0
  161.1380  205.7310  147.9630 C   0  0  0  0  0  3  0  0  0  0  0  0
  161.9060  206.7540  147.7850 N   0  0  0  0  0  0  0  0  0  0  0  0
  161.2100  203.3820  150.1070 Cl  0  0  0  0  0  0  0  0  0  0  0  0
  161.6020  204.3630  147.5890 C   0  0  1  0  0  3  0  0  0  0  0  0
  160.8230  203.2950  148.3690 C   0  0  1  0  0  3  0  0  0  0  0  0
  160.9920  201.8390  146.4090 N   0  0  0  0  0  2  0  0  0  0  0  0
  161.1980  202.9800  145.5690 C   0  0  0  0  0  3  0  0  0  0  0  0
  161.4660  204.1740  146.1000 C   0  0  0  0  0  3  0  0  0  0  0  0
  161.2020  201.9100  147.8520 C   0  0  0  0  0  2  0  0  0  0  0  0
  1  9  1  0  0  0  0
  1 23  1  1  0  0  0
  2  5  1  6  0  0  0
  2  7  1  0  0  0  0
  3  8  1  0  0  0  0
  3  7  1  0  0  0  0
  4 11  1  0  0  0  0
  4 13  1  0  0  0  0
  6 13  1  0  0  0  0
  6 10  1  0  0  0  0
  7  1  1  0  0  0  0
  8 14  1  0  0  0  0
 10  2  1  0  0  0  0
 11 12  1  0  0  0  0
 12  8  1  0  0  0  0
 13  3  1  0  0  0  0
 14  9  1  0  0  0  0
 15 19  1  0  0  0  0
 15 21  1  0  0  0  0
 16 15  2  0  0  0  0
 17 12  1  0  0  0  0
 17 19  2  0  0  0  0
 18 20  2  0  0  0  0
 18 16  1  0  0  0  0
 20 17  1  0  0  0  0
 23 22  1  0  0  0  0
 24  4  1  0  0  0  0
 25 24  1  0  0  0  0
 27 26  2  0  0  0  0
 27 25  1  0  0  0  0
 29 26  1  0  0  0  0
 29 30  1  0  0  0  0
 30 28  1  0  0  0  0
 31 34  1  0  0  0  0
 32 33  2  0  0  0  0
 32 31  1  0  0  0  0
 33 29  1  0  0  0  0
 34 30  1  0  0  0  0
M  END
>  <MODEL>
5

>  <REMARK>
 VINA RESULT:      -5.7      3.750      5.862
  Name = 
  6 active torsions:
  status: ('A' for Active; 'I' for Inactive)
    1  A    between atoms: C_1  and  C_19
    2  A    between atoms: C_3  and  C_13
    3  A    between atoms: C_5  and  C_18
    4  A    between atoms: C_12  and  C_28
    5  A    between atoms: N_17  and  N_29
    6  A    between atoms: C_18  and  N_29
                            x       y       z     vdW  Elec       q    Type
                         _______ _______ _______ _____ _____    ______ ____

>  <TORSDO>
F 6

$$$$
