=
 OpenBabel11062410413D

 32 39  0  0  1  0  0  0  0  0999 V2000
  160.7940  207.1970  152.4590 C   0  0  1  0  0  3  0  0  0  0  0  0
  161.2320  202.4050  151.0230 C   0  0  0  0  0  3  0  0  0  0  0  0
  161.0090  202.7620  149.6920 C   0  0  0  0  0  3  0  0  0  0  0  0
  161.8590  208.3530  150.5420 C   0  0  1  0  0  3  0  0  0  0  0  0
  162.0850  209.5580  151.3210 C   0  0  0  0  0  0  0  0  0  0  0  0
  161.8210  209.5700  148.4750 C   0  0  0  0  0  0  0  0  0  0  0  0
  161.2680  203.3860  152.0160 C   0  0  0  0  0  3  0  0  0  0  0  0
  161.2010  205.7540  152.8140 C   0  0  0  0  0  2  0  0  0  0  0  0
  161.0800  204.7330  151.6920 C   0  0  0  0  0  0  0  0  0  0  0  0
  160.5680  206.5250  149.9600 C   0  0  2  0  0  3  0  0  0  0  0  0
  162.3320  210.8170  149.1710 C   0  0  0  0  0  2  0  0  0  0  0  0
  162.2420  210.7240  150.6850 C   0  0  0  0  0  3  0  0  0  0  0  0
  160.8270  204.1040  149.3490 C   0  0  0  0  0  3  0  0  0  0  0  0
  160.8840  205.1020  150.3300 C   0  0  0  0  0  0  0  0  0  0  0  0
  161.2290  207.0550  148.6690 C   0  0  0  0  0  2  0  0  0  0  0  0
  161.5640  208.1980  153.3700 C   0  0  1  0  0  3  0  0  0  0  0  0
  161.8100  209.4960  152.7230 N   0  0  0  0  0  2  0  0  0  0  0  0
  161.2790  209.6510  147.3850 O   0  0  0  0  0  0  0  0  0  0  0  0
  161.0870  207.4130  151.0080 C   0  0  1  0  0  3  0  0  0  0  0  0
  162.1210  208.2340  149.0990 C   0  0  2  0  0  3  0  0  0  0  0  0
  159.9930  209.4700  157.2610 C   0  0  0  0  0  2  0  0  0  0  0  0
  160.8550  208.4130  154.7020 C   0  0  1  0  0  0  0  0  0  0  0  0
  160.4520  207.1220  155.3930 C   0  0  0  0  0  2  0  0  0  0  0  0
  161.2740  208.6400  157.2600 C   0  0  0  0  0  2  0  0  0  0  0  0
  161.6220  207.9310  155.9350 C   0  0  2  0  0  3  0  0  0  0  0  0
  159.7800  209.5010  154.8090 C   0  0  0  0  0  2  0  0  0  0  0  0
  159.9670  210.3690  156.0390 C   0  0  1  0  0  3  0  0  0  0  0  0
  158.8120  211.3490  156.1350 C   0  0  0  0  0  2  0  0  0  0  0  0
  156.5610  211.3840  155.6380 C   0  0  2  0  0  3  0  0  0  0  0  0
  157.8370  211.0730  155.0940 N   0  0  0  0  0  0  0  0  0  0  0  0
  155.5750  210.7050  154.9220 O   0  0  0  0  0  1  0  0  0  0  0  0
  157.1990  212.3270  154.7870 N   0  0  0  0  0  2  0  0  0  0  0  0
  1  8  1  1  0  0  0
  1 16  1  0  0  0  0
  2  7  1  0  0  0  0
  3  2  2  0  0  0  0
  4 19  1  0  0  0  0
  4  5  1  6  0  0  0
  5 17  1  0  0  0  0
  6 20  1  0  0  0  0
  6 11  1  0  0  0  0
  9  7  2  0  0  0  0
  9  8  1  0  0  0  0
 10 15  1  6  0  0  0
 10 14  1  0  0  0  0
 10 19  1  0  0  0  0
 11 12  1  0  0  0  0
 12  5  2  0  0  0  0
 13  3  1  0  0  0  0
 13 14  2  0  0  0  0
 14  9  1  0  0  0  0
 15 20  1  0  0  0  0
 16 17  1  6  0  0  0
 16 22  1  0  0  0  0
 18  6  2  0  0  0  0
 19  1  1  0  0  0  0
 20  4  1  0  0  0  0
 22 26  1  0  0  0  0
 22 23  1  0  0  0  0
 22 25  1  0  0  0  0
 23 25  1  0  0  0  0
 24 21  1  0  0  0  0
 25 24  1  0  0  0  0
 26 27  1  0  0  0  0
 27 28  1  0  0  0  0
 27 21  1  0  0  0  0
 30 29  1  0  0  0  0
 30 28  1  0  0  0  0
 31 29  1  0  0  0  0
 32 30  1  0  0  0  0
 32 29  1  0  0  0  0
M  END
>  <MODEL>
1

>  <REMARK>
 VINA RESULT:      -9.1      0.000      0.000
  Name = 
  3 active torsions:
  status: ('A' for Active; 'I' for Inactive)
    1  A    between atoms: C_8  and  C_28
    2  A    between atoms: N_10  and  C_19
    3  A    between atoms: C_19  and  C_24
                            x       y       z     vdW  Elec       q    Type
                         _______ _______ _______ _____ _____    ______ ____

>  <TORSDO>
F 3

$$$$
=
 OpenBabel11062410413D

 32 39  0  0  1  0  0  0  0  0999 V2000
  161.4680  205.9180  149.2220 C   0  0  1  0  0  3  0  0  0  0  0  0
  160.6440  206.0380  144.2710 C   0  0  0  0  0  3  0  0  0  0  0  0
  161.0010  204.6930  144.1590 C   0  0  0  0  0  3  0  0  0  0  0  0
  160.6730  203.6350  149.7690 C   0  0  1  0  0  3  0  0  0  0  0  0
  160.5150  203.9630  151.1750 C   0  0  0  0  0  0  0  0  0  0  0  0
  160.9880  201.3040  150.2420 C   0  0  0  0  0  0  0  0  0  0  0  0
  160.6370  206.6590  145.5210 C   0  0  0  0  0  3  0  0  0  0  0  0
  160.8900  206.6680  148.0080 C   0  0  0  0  0  2  0  0  0  0  0  0
  160.9870  205.9460  146.6720 C   0  0  0  0  0  0  0  0  0  0  0  0
  161.8070  203.7980  147.7610 C   0  0  2  0  0  3  0  0  0  0  0  0
  160.5590  201.5120  151.6810 C   0  0  0  0  0  2  0  0  0  0  0  0
  160.5270  202.9790  152.0800 C   0  0  0  0  0  2  0  0  0  0  0  0
  161.3450  203.9630  145.2980 C   0  0  0  0  0  3  0  0  0  0  0  0
  161.3190  204.5660  146.5620 C   0  0  0  0  0  0  0  0  0  0  0  0
  161.3020  202.3460  147.8890 C   0  0  0  0  0  2  0  0  0  0  0  0
  160.7410  206.3810  150.5200 C   0  0  1  0  0  3  0  0  0  0  0  0
  160.6780  205.3330  151.5520 N   0  0  0  0  0  0  0  0  0  0  0  0
  161.6150  200.3070  149.9240 O   0  0  0  0  0  0  0  0  0  0  0  0
  161.3080  204.4520  148.9760 C   0  0  1  0  0  3  0  0  0  0  0  0
  160.5070  202.2840  149.2070 C   0  0  2  0  0  3  0  0  0  0  0  0
  161.8210  210.3380  152.0690 C   0  0  0  0  0  2  0  0  0  0  0  0
  161.3680  207.6410  151.1030 C   0  0  1  0  0  0  0  0  0  0  0  0
  162.8510  207.7760  150.8060 C   0  0  0  0  0  2  0  0  0  0  0  0
  161.9130  210.1260  150.5600 C   0  0  0  0  0  2  0  0  0  0  0  0
  161.8550  208.6640  150.0740 C   0  0  2  0  0  3  0  0  0  0  0  0
  161.0120  208.0610  152.5340 C   0  0  0  0  0  2  0  0  0  0  0  0
  160.6620  209.5340  152.6270 C   0  0  1  0  0  3  0  0  0  0  0  0
  160.4260  209.8970  154.0810 C   0  0  0  0  0  2  0  0  0  0  0  0
  161.3010  209.2810  156.1240 C   0  0  2  0  0  3  0  0  0  0  0  0
  160.7240  208.7590  154.9330 N   0  0  0  0  0  0  0  0  0  0  0  0
  162.0440  208.2820  156.7530 O   0  0  0  0  0  1  0  0  0  0  0  0
  159.9270  208.9170  156.1220 N   0  0  0  0  0  2  0  0  0  0  0  0
  1  8  1  6  0  0  0
  1 16  1  0  0  0  0
  2  7  1  0  0  0  0
  3  2  2  0  0  0  0
  3 13  1  0  0  0  0
  4  5  1  1  0  0  0
  5 17  2  0  0  0  0
  5 12  1  0  0  0  0
  6 11  1  0  0  0  0
  7  9  2  0  0  0  0
  9  8  1  0  0  0  0
 10 15  1  6  0  0  0
 10 19  1  0  0  0  0
 11 12  1  0  0  0  0
 13 14  2  0  0  0  0
 14  9  1  0  0  0  0
 14 10  1  0  0  0  0
 15 20  1  0  0  0  0
 16 22  1  0  0  0  0
 16 17  1  1  0  0  0
 18  6  2  0  0  0  0
 19  1  1  0  0  0  0
 19  4  1  0  0  0  0
 20  4  1  0  0  0  0
 20  6  1  0  0  0  0
 21 27  1  0  0  0  0
 22 26  1  0  0  0  0
 23 22  1  0  0  0  0
 24 21  1  0  0  0  0
 25 24  1  0  0  0  0
 25 23  1  0  0  0  0
 25 22  1  0  0  0  0
 26 27  1  0  0  0  0
 27 28  1  0  0  0  0
 28 30  1  0  0  0  0
 29 31  1  0  0  0  0
 30 32  1  0  0  0  0
 30 29  1  0  0  0  0
 32 29  1  0  0  0  0
M  END
>  <MODEL>
2

>  <REMARK>
 VINA RESULT:      -8.7      3.042      5.711
  Name = 
  3 active torsions:
  status: ('A' for Active; 'I' for Inactive)
    1  A    between atoms: C_8  and  C_28
    2  A    between atoms: N_10  and  C_19
    3  A    between atoms: C_19  and  C_24
                            x       y       z     vdW  Elec       q    Type
                         _______ _______ _______ _____ _____    ______ ____

>  <TORSDO>
F 3

$$$$
=
 OpenBabel11062410413D

 32 39  0  0  1  0  0  0  0  0999 V2000
  160.8680  208.9220  151.7230 C   0  0  1  0  0  3  0  0  0  0  0  0
  161.4150  213.1870  149.1290 C   0  0  0  0  0  3  0  0  0  0  0  0
  160.5270  213.8430  149.9830 C   0  0  0  0  0  3  0  0  0  0  0  0
  160.6700  209.8060  154.0310 C   0  0  1  0  0  3  0  0  0  0  0  0
  161.0210  208.5240  154.6140 C   0  0  0  0  0  0  0  0  0  0  0  0
  159.4390  210.4740  155.9790 C   0  0  0  0  0  0  0  0  0  0  0  0
  161.7430  211.8480  149.3540 C   0  0  0  0  0  3  0  0  0  0  0  0
  161.6440  209.7170  150.6550 C   0  0  0  0  0  2  0  0  0  0  0  0
  161.1880  211.1500  150.4310 C   0  0  0  0  0  0  0  0  0  0  0  0
  159.6050  211.0820  152.4220 C   0  0  2  0  0  3  0  0  0  0  0  0
  159.9880  209.2960  156.7600 C   0  0  0  0  0  2  0  0  0  0  0  0
  160.6470  208.2550  155.8700 C   0  0  0  0  0  2  0  0  0  0  0  0
  159.9690  213.1650  151.0690 C   0  0  0  0  0  3  0  0  0  0  0  0
  160.3070  211.8290  151.3210 C   0  0  0  0  0  0  0  0  0  0  0  0
  159.4670  211.8250  153.7670 C   0  0  0  0  0  2  0  0  0  0  0  0
  161.7870  207.8180  152.3260 C   0  0  1  0  0  3  0  0  0  0  0  0
  161.4610  207.4950  153.7240 N   0  0  0  0  0  0  0  0  0  0  0  0
  158.4390  211.0570  156.3650 O   0  0  0  0  0  0  0  0  0  0  0  0
  160.3930  209.8900  152.7600 C   0  0  1  0  0  3  0  0  0  0  0  0
  160.2310  210.9800  154.8040 C   0  0  2  0  0  3  0  0  0  0  0  0
  160.9660  204.3470  149.7760 C   0  0  0  0  0  2  0  0  0  0  0  0
  161.7700  206.5460  151.4860 C   0  0  1  0  0  0  0  0  0  0  0  0
  162.7010  205.4630  152.0030 C   0  0  0  0  0  2  0  0  0  0  0  0
  160.6060  204.2310  151.2550 C   0  0  0  0  0  2  0  0  0  0  0  0
  161.1970  205.3110  152.1840 C   0  0  2  0  0  3  0  0  0  0  0  0
  161.7880  206.6590  149.9570 C   0  0  0  0  0  2  0  0  0  0  0  0
  160.7430  205.7720  149.3070 C   0  0  1  0  0  3  0  0  0  0  0  0
  160.8900  205.8550  147.7990 C   0  0  0  0  0  2  0  0  0  0  0  0
  161.3980  204.6550  145.8960 C   0  0  2  0  0  3  0  0  0  0  0  0
  161.6020  204.6900  147.3030 N   0  0  0  0  0  0  0  0  0  0  0  0
  161.6100  203.3580  145.4300 O   0  0  0  0  0  1  0  0  0  0  0  0
  162.6160  205.1800  146.4060 N   0  0  0  0  0  2  0  0  0  0  0  0
  1  8  1  6  0  0  0
  1 16  1  0  0  0  0
  1 19  1  0  0  0  0
  2  7  2  0  0  0  0
  2  3  1  0  0  0  0
  3 13  2  0  0  0  0
  4  5  1  1  0  0  0
  4 20  1  0  0  0  0
  5 12  1  0  0  0  0
  6 18  2  0  0  0  0
  6 11  1  0  0  0  0
  7  9  1  0  0  0  0
  9  8  1  0  0  0  0
  9 14  2  0  0  0  0
 10 19  1  0  0  0  0
 10 15  1  1  0  0  0
 12 11  1  0  0  0  0
 13 14  1  0  0  0  0
 14 10  1  0  0  0  0
 15 20  1  0  0  0  0
 16 17  1  1  0  0  0
 17  5  2  0  0  0  0
 19  4  1  0  0  0  0
 20  6  1  0  0  0  0
 21 24  1  0  0  0  0
 22 23  1  0  0  0  0
 22 25  1  0  0  0  0
 22 16  1  0  0  0  0
 23 25  1  0  0  0  0
 24 25  1  0  0  0  0
 26 22  1  0  0  0  0
 27 21  1  0  0  0  0
 27 26  1  0  0  0  0
 28 27  1  0  0  0  0
 29 32  1  0  0  0  0
 29 30  1  0  0  0  0
 30 28  1  0  0  0  0
 31 29  1  0  0  0  0
 32 30  1  0  0  0  0
M  END
>  <MODEL>
3

>  <REMARK>
 VINA RESULT:      -8.2      2.858      7.816
  Name = 
  3 active torsions:
  status: ('A' for Active; 'I' for Inactive)
    1  A    between atoms: C_8  and  C_28
    2  A    between atoms: N_10  and  C_19
    3  A    between atoms: C_19  and  C_24
                            x       y       z     vdW  Elec       q    Type
                         _______ _______ _______ _____ _____    ______ ____

>  <TORSDO>
F 3

$$$$
=
 OpenBabel11062410413D

 32 39  0  0  1  0  0  0  0  0999 V2000
  160.7850  206.4360  152.2780 C   0  0  1  0  0  3  0  0  0  0  0  0
  161.2560  201.5280  151.3260 C   0  0  0  0  0  3  0  0  0  0  0  0
  161.0160  201.7480  149.9680 C   0  0  0  0  0  3  0  0  0  0  0  0
  161.8180  207.4030  150.2430 C   0  0  1  0  0  3  0  0  0  0  0  0
  162.0400  208.6820  150.8940 C   0  0  0  0  0  0  0  0  0  0  0  0
  161.7470  208.4060  148.0650 C   0  0  0  0  0  0  0  0  0  0  0  0
  161.2920  202.6040  152.2150 C   0  0  0  0  0  3  0  0  0  0  0  0
  161.2090  205.0390  152.7710 C   0  0  0  0  0  2  0  0  0  0  0  0
  161.0870  203.9110  151.7590 C   0  0  0  0  0  0  0  0  0  0  0  0
  160.5390  205.5150  149.8620 C   0  0  2  0  0  3  0  0  0  0  0  0
  162.2520  209.7210  148.6260 C   0  0  0  0  0  2  0  0  0  0  0  0
  162.1790  209.7800  150.1430 C   0  0  0  0  0  3  0  0  0  0  0  0
  160.8160  203.0460  149.4940 C   0  0  0  0  0  3  0  0  0  0  0  0
  160.8740  204.1380  150.3700 C   0  0  0  0  0  0  0  0  0  0  0  0
  161.1810  205.9180  148.5170 C   0  0  0  0  0  2  0  0  0  0  0  0
  161.5540  207.5300  153.0760 C   0  0  1  0  0  3  0  0  0  0  0  0
  161.7810  208.7590  152.2980 N   0  0  0  0  0  2  0  0  0  0  0  0
  161.1920  208.3720  146.9790 O   0  0  0  0  0  0  0  0  0  0  0  0
  161.0600  206.5080  150.8100 C   0  0  1  0  0  3  0  0  0  0  0  0
  162.0660  207.1420  148.8160 C   0  0  2  0  0  3  0  0  0  0  0  0
  160.1480  209.0440  156.9430 C   0  0  0  0  0  2  0  0  0  0  0  0
  160.8570  207.8720  154.3870 C   0  0  1  0  0  0  0  0  0  0  0  0
  160.1490  206.6900  155.0260 C   0  0  0  0  0  2  0  0  0  0  0  0
  161.2110  207.9480  156.9630 C   0  0  0  0  0  2  0  0  0  0  0  0
  161.4460  207.2060  155.6330 C   0  0  2  0  0  3  0  0  0  0  0  0
  160.0470  209.1700  154.4870 C   0  0  0  0  0  2  0  0  0  0  0  0
  160.3720  209.9500  155.7470 C   0  0  1  0  0  3  0  0  0  0  0  0
  159.4610  211.1610  155.8300 C   0  0  0  0  0  2  0  0  0  0  0  0
  157.3820  211.9340  156.4630 C   0  0  2  0  0  3  0  0  0  0  0  0
  158.1140  210.7470  156.1830 N   0  0  0  0  0  0  0  0  0  0  0  0
  156.2810  211.6210  157.2590 O   0  0  0  0  0  1  0  0  0  0  0  0
  157.2380  211.3150  155.1910 N   0  0  0  0  0  2  0  0  0  0  0  0
  1  8  1  1  0  0  0
  1 16  1  0  0  0  0
  2  7  1  0  0  0  0
  3  2  2  0  0  0  0
  4 19  1  0  0  0  0
  4  5  1  6  0  0  0
  5 17  1  0  0  0  0
  6 11  1  0  0  0  0
  6 20  1  0  0  0  0
  9  7  2  0  0  0  0
  9  8  1  0  0  0  0
 10 15  1  6  0  0  0
 10 14  1  0  0  0  0
 10 19  1  0  0  0  0
 11 12  1  0  0  0  0
 12  5  2  0  0  0  0
 13  3  1  0  0  0  0
 13 14  2  0  0  0  0
 14  9  1  0  0  0  0
 15 20  1  0  0  0  0
 16 17  1  6  0  0  0
 16 22  1  0  0  0  0
 18  6  2  0  0  0  0
 19  1  1  0  0  0  0
 20  4  1  0  0  0  0
 21 24  1  0  0  0  0
 22 26  1  0  0  0  0
 22 23  1  0  0  0  0
 22 25  1  0  0  0  0
 23 25  1  0  0  0  0
 25 24  1  0  0  0  0
 26 27  1  0  0  0  0
 27 28  1  0  0  0  0
 27 21  1  0  0  0  0
 28 30  1  0  0  0  0
 29 31  1  0  0  0  0
 30 29  1  0  0  0  0
 32 30  1  0  0  0  0
 32 29  1  0  0  0  0
M  END
>  <MODEL>
4

>  <REMARK>
 VINA RESULT:      -8.0      0.959      1.043
  Name = 
  3 active torsions:
  status: ('A' for Active; 'I' for Inactive)
    1  A    between atoms: C_8  and  C_28
    2  A    between atoms: N_10  and  C_19
    3  A    between atoms: C_19  and  C_24
                            x       y       z     vdW  Elec       q    Type
                         _______ _______ _______ _____ _____    ______ ____

>  <TORSDO>
F 3

$$$$
=
 OpenBabel11062410413D

 32 39  0  0  1  0  0  0  0  0999 V2000
  161.4280  206.2480  151.9550 C   0  0  1  0  0  3  0  0  0  0  0  0
  160.0450  207.6720  156.5670 C   0  0  0  0  0  3  0  0  0  0  0  0
  160.6900  208.8990  156.4040 C   0  0  0  0  0  3  0  0  0  0  0  0
  161.2560  208.3990  150.7350 C   0  0  1  0  0  3  0  0  0  0  0  0
  161.1860  207.7290  149.4480 C   0  0  0  0  0  0  0  0  0  0  0  0
  162.1590  210.3980  149.7640 C   0  0  0  0  0  0  0  0  0  0  0  0
  160.0340  206.7420  155.5260 C   0  0  0  0  0  3  0  0  0  0  0  0
  160.5570  205.9930  153.2000 C   0  0  0  0  0  2  0  0  0  0  0  0
  160.6690  207.0240  154.3120 C   0  0  0  0  0  0  0  0  0  0  0  0
  162.0860  208.5820  152.8860 C   0  0  2  0  0  3  0  0  0  0  0  0
  161.8590  209.8860  148.3690 C   0  0  0  0  0  2  0  0  0  0  0  0
  161.5300  208.4020  148.3440 C   0  0  0  0  0  3  0  0  0  0  0  0
  161.3230  209.2020  155.1960 C   0  0  0  0  0  3  0  0  0  0  0  0
  161.3000  208.2880  154.1340 C   0  0  0  0  0  0  0  0  0  0  0  0
  161.9530  210.0110  152.3180 C   0  0  0  0  0  2  0  0  0  0  0  0
  160.7640  205.5940  150.7070 C   0  0  1  0  0  3  0  0  0  0  0  0
  161.0660  206.3040  149.4540 N   0  0  0  0  0  2  0  0  0  0  0  0
  162.9620  211.3020  149.9290 O   0  0  0  0  0  0  0  0  0  0  0  0
  161.5880  207.7270  151.8010 C   0  0  1  0  0  3  0  0  0  0  0  0
  161.3480  209.8570  150.9100 C   0  0  2  0  0  3  0  0  0  0  0  0
  161.0840  201.2670  150.0730 C   0  0  0  0  0  2  0  0  0  0  0  0
  161.1420  204.1240  150.5690 C   0  0  1  0  0  0  0  0  0  0  0  0
  162.1850  203.6660  151.5720 C   0  0  0  0  0  2  0  0  0  0  0  0
  160.5330  201.7400  151.4150 C   0  0  0  0  0  2  0  0  0  0  0  0
  160.7360  203.2320  151.7450 C   0  0  2  0  0  3  0  0  0  0  0  0
  161.3710  203.5390  149.1700 C   0  0  0  0  0  2  0  0  0  0  0  0
  160.6460  202.2200  148.9770 C   0  0  1  0  0  3  0  0  0  0  0  0
  161.0030  201.6520  147.6150 C   0  0  0  0  0  2  0  0  0  0  0  0
  161.2060  202.7440  145.5950 C   0  0  2  0  0  3  0  0  0  0  0  0
  160.2590  202.3430  146.5770 N   0  0  0  0  0  0  0  0  0  0  0  0
  160.6810  203.8010  144.8510 O   0  0  0  0  0  1  0  0  0  0  0  0
  160.4280  201.5760  145.3710 N   0  0  0  0  0  2  0  0  0  0  0  0
  1  8  1  1  0  0  0
  3  2  1  0  0  0  0
  4  5  1  6  0  0  0
  4 20  1  0  0  0  0
  4 19  1  0  0  0  0
  5 17  1  0  0  0  0
  6 18  2  0  0  0  0
  6 20  1  0  0  0  0
  7  2  2  0  0  0  0
  8  9  1  0  0  0  0
  9  7  1  0  0  0  0
 10 15  1  6  0  0  0
 10 14  1  0  0  0  0
 11  6  1  0  0  0  0
 12 11  1  0  0  0  0
 12  5  2  0  0  0  0
 13  3  2  0  0  0  0
 14  9  2  0  0  0  0
 14 13  1  0  0  0  0
 16 17  1  6  0  0  0
 16  1  1  0  0  0  0
 19  1  1  0  0  0  0
 19 10  1  0  0  0  0
 20 15  1  0  0  0  0
 21 24  1  0  0  0  0
 22 16  1  0  0  0  0
 22 23  1  0  0  0  0
 22 25  1  0  0  0  0
 23 25  1  0  0  0  0
 24 25  1  0  0  0  0
 26 22  1  0  0  0  0
 27 26  1  0  0  0  0
 27 21  1  0  0  0  0
 28 27  1  0  0  0  0
 29 30  1  0  0  0  0
 30 28  1  0  0  0  0
 31 29  1  0  0  0  0
 32 29  1  0  0  0  0
 32 30  1  0  0  0  0
M  END
>  <MODEL>
5

>  <REMARK>
 VINA RESULT:      -7.8      3.204      7.483
  Name = 
  3 active torsions:
  status: ('A' for Active; 'I' for Inactive)
    1  A    between atoms: C_8  and  C_28
    2  A    between atoms: N_10  and  C_19
    3  A    between atoms: C_19  and  C_24
                            x       y       z     vdW  Elec       q    Type
                         _______ _______ _______ _____ _____    ______ ____

>  <TORSDO>
F 3

$$$$
=
 OpenBabel11062410413D

 32 39  0  0  1  0  0  0  0  0999 V2000
  161.2720  209.9820  151.1700 C   0  0  1  0  0  3  0  0  0  0  0  0
  162.1050  209.9620  156.1220 C   0  0  0  0  0  3  0  0  0  0  0  0
  161.5690  208.6780  156.2270 C   0  0  0  0  0  3  0  0  0  0  0  0
  161.7470  207.6140  150.6110 C   0  0  1  0  0  3  0  0  0  0  0  0
  161.9480  207.9260  149.2070 C   0  0  0  0  0  0  0  0  0  0  0  0
  161.1160  205.3510  150.1270 C   0  0  0  0  0  0  0  0  0  0  0  0
  162.1970  210.5840  154.8740 C   0  0  0  0  0  3  0  0  0  0  0  0
  161.9470  210.6400  152.3880 C   0  0  0  0  0  2  0  0  0  0  0  0
  161.7530  209.9310  153.7200 C   0  0  0  0  0  0  0  0  0  0  0  0
  160.6460  207.9210  152.6210 C   0  0  2  0  0  3  0  0  0  0  0  0
  161.5690  205.5060  148.6880 C   0  0  0  0  0  2  0  0  0  0  0  0
  161.8010  206.9560  148.2970 C   0  0  0  0  0  3  0  0  0  0  0  0
  161.1270  208.0080  155.0840 C   0  0  0  0  0  3  0  0  0  0  0  0
  161.2350  208.6080  153.8230 C   0  0  0  0  0  0  0  0  0  0  0  0
  160.9480  206.4130  152.4850 C   0  0  0  0  0  2  0  0  0  0  0  0
  162.0550  210.3480  149.8740 C   0  0  1  0  0  3  0  0  0  0  0  0
  161.9730  209.3070  148.8370 N   0  0  0  0  0  2  0  0  0  0  0  0
  160.3590  204.4470  150.4400 O   0  0  0  0  0  0  0  0  0  0  0  0
  161.2300  208.5060  151.4080 C   0  0  1  0  0  3  0  0  0  0  0  0
  161.7270  206.2510  151.1660 C   0  0  2  0  0  3  0  0  0  0  0  0
  160.0410  213.8380  148.1470 C   0  0  0  0  0  2  0  0  0  0  0  0
  161.6050  211.6850  149.2980 C   0  0  1  0  0  0  0  0  0  0  0  0
  162.6950  212.4150  148.5320 C   0  0  0  0  0  2  0  0  0  0  0  0
  160.5760  212.7870  147.1780 C   0  0  0  0  0  2  0  0  0  0  0  0
  161.5550  211.7540  147.7700 C   0  0  2  0  0  3  0  0  0  0  0  0
  160.7600  212.6260  150.1640 C   0  0  0  0  0  2  0  0  0  0  0  0
  159.5550  213.1630  149.4150 C   0  0  1  0  0  3  0  0  0  0  0  0
  158.8290  214.1650  150.2950 C   0  0  0  0  0  2  0  0  0  0  0  0
  157.7570  214.1690  152.3370 C   0  0  2  0  0  3  0  0  0  0  0  0
  157.8190  213.4880  151.0900 N   0  0  0  0  0  0  0  0  0  0  0  0
  157.2070  213.3230  153.2990 O   0  0  0  0  0  1  0  0  0  0  0  0
  156.7810  214.4530  151.3430 N   0  0  0  0  0  2  0  0  0  0  0  0
  1 19  1  0  0  0  0
  1  8  1  1  0  0  0
  2  3  1  0  0  0  0
  4  5  1  6  0  0  0
  4 20  1  0  0  0  0
  4 19  1  0  0  0  0
  6 18  2  0  0  0  0
  6 20  1  0  0  0  0
  7  2  2  0  0  0  0
  8  9  1  0  0  0  0
  9 14  2  0  0  0  0
  9  7  1  0  0  0  0
 10 15  1  1  0  0  0
 10 14  1  0  0  0  0
 11  6  1  0  0  0  0
 12 11  1  0  0  0  0
 12  5  2  0  0  0  0
 13  3  2  0  0  0  0
 14 13  1  0  0  0  0
 16 17  1  6  0  0  0
 16  1  1  0  0  0  0
 17  5  1  0  0  0  0
 19 10  1  0  0  0  0
 20 15  1  0  0  0  0
 21 27  1  0  0  0  0
 22 16  1  0  0  0  0
 22 26  1  0  0  0  0
 23 22  1  0  0  0  0
 24 25  1  0  0  0  0
 24 21  1  0  0  0  0
 25 23  1  0  0  0  0
 25 22  1  0  0  0  0
 27 26  1  0  0  0  0
 27 28  1  0  0  0  0
 28 30  1  0  0  0  0
 29 31  1  0  0  0  0
 30 32  1  0  0  0  0
 30 29  1  0  0  0  0
 32 29  1  0  0  0  0
M  END
>  <MODEL>
6

>  <REMARK>
 VINA RESULT:      -7.4      2.625      6.028
  Name = 
  3 active torsions:
  status: ('A' for Active; 'I' for Inactive)
    1  A    between atoms: C_8  and  C_28
    2  A    between atoms: N_10  and  C_19
    3  A    between atoms: C_19  and  C_24
                            x       y       z     vdW  Elec       q    Type
                         _______ _______ _______ _____ _____    ______ ____

>  <TORSDO>
F 3

$$$$
=
 OpenBabel11062410413D

 32 39  0  0  1  0  0  0  0  0999 V2000
  161.2620  208.1520  149.5600 C   0  0  1  0  0  3  0  0  0  0  0  0
  162.2810  212.9020  148.2920 C   0  0  0  0  0  3  0  0  0  0  0  0
  161.6930  213.3640  149.4700 C   0  0  0  0  0  3  0  0  0  0  0  0
  161.6120  208.2420  152.0120 C   0  0  1  0  0  3  0  0  0  0  0  0
  161.7730  206.8010  152.1000 C   0  0  0  0  0  0  0  0  0  0  0  0
  160.8650  208.4030  154.2860 C   0  0  0  0  0  0  0  0  0  0  0  0
  162.3530  211.5310  148.0340 C   0  0  0  0  0  3  0  0  0  0  0  0
  162.0120  209.1290  148.6350 C   0  0  0  0  0  2  0  0  0  0  0  0
  161.8370  210.6080  148.9490 C   0  0  0  0  0  0  0  0  0  0  0  0
  160.6030  210.1210  151.1200 C   0  0  2  0  0  3  0  0  0  0  0  0
  161.2700  206.9650  154.5480 C   0  0  0  0  0  2  0  0  0  0  0  0
  161.5500  206.1910  153.2700 C   0  0  0  0  0  2  0  0  0  0  0  0
  161.1800  212.4560  150.3990 C   0  0  0  0  0  3  0  0  0  0  0  0
  161.2660  211.0770  150.1660 C   0  0  0  0  0  0  0  0  0  0  0  0
  160.8330  210.3890  152.6220 C   0  0  0  0  0  2  0  0  0  0  0  0
  162.0110  206.7860  149.5970 C   0  0  1  0  0  3  0  0  0  0  0  0
  161.8450  206.0710  150.8730 N   0  0  0  0  0  0  0  0  0  0  0  0
  160.0810  208.9680  155.0320 O   0  0  0  0  0  0  0  0  0  0  0  0
  161.1650  208.7810  150.9130 C   0  0  1  0  0  3  0  0  0  0  0  0
  161.5540  209.1450  153.1730 C   0  0  2  0  0  3  0  0  0  0  0  0
  161.4850  203.7600  146.4690 C   0  0  0  0  0  2  0  0  0  0  0  0
  161.5990  205.8810  148.4430 C   0  0  1  0  0  0  0  0  0  0  0  0
  160.9000  206.6170  147.3130 C   0  0  0  0  0  2  0  0  0  0  0  0
  162.4150  204.9300  146.1630 C   0  0  0  0  0  2  0  0  0  0  0  0
  162.3310  206.1340  147.1220 C   0  0  2  0  0  3  0  0  0  0  0  0
  160.9580  204.5230  148.7490 C   0  0  0  0  0  2  0  0  0  0  0  0
  161.5830  203.4010  147.9400 C   0  0  1  0  0  3  0  0  0  0  0  0
  160.8310  202.1120  148.2150 C   0  0  0  0  0  2  0  0  0  0  0  0
  160.8280  202.1980  150.5200 C   0  0  2  0  0  3  0  0  0  0  0  0
  161.3540  201.4770  149.4130 N   0  0  0  0  0  0  0  0  0  0  0  0
  161.6370  201.9870  151.6360 O   0  0  0  0  0  1  0  0  0  0  0  0
  160.2180  200.9720  150.1390 N   0  0  0  0  0  2  0  0  0  0  0  0
  1  8  1  6  0  0  0
  1 16  1  0  0  0  0
  1 19  1  0  0  0  0
  2  3  1  0  0  0  0
  3 13  2  0  0  0  0
  4  5  1  1  0  0  0
  4 20  1  0  0  0  0
  5 12  1  0  0  0  0
  6 11  1  0  0  0  0
  6 18  2  0  0  0  0
  7  2  2  0  0  0  0
  7  9  1  0  0  0  0
  8  9  1  0  0  0  0
  9 14  2  0  0  0  0
 10 15  1  1  0  0  0
 12 11  1  0  0  0  0
 14 13  1  0  0  0  0
 14 10  1  0  0  0  0
 15 20  1  0  0  0  0
 16 17  1  1  0  0  0
 17  5  2  0  0  0  0
 19 10  1  0  0  0  0
 19  4  1  0  0  0  0
 20  6  1  0  0  0  0
 21 27  1  0  0  0  0
 22 26  1  0  0  0  0
 22 16  1  0  0  0  0
 23 22  1  0  0  0  0
 24 21  1  0  0  0  0
 24 25  1  0  0  0  0
 25 23  1  0  0  0  0
 25 22  1  0  0  0  0
 27 28  1  0  0  0  0
 27 26  1  0  0  0  0
 28 30  1  0  0  0  0
 29 31  1  0  0  0  0
 30 32  1  0  0  0  0
 30 29  1  0  0  0  0
 32 29  1  0  0  0  0
M  END
>  <MODEL>
7

>  <REMARK>
 VINA RESULT:      -6.9      3.282      8.175
  Name = 
  3 active torsions:
  status: ('A' for Active; 'I' for Inactive)
    1  A    between atoms: C_8  and  C_28
    2  A    between atoms: N_10  and  C_19
    3  A    between atoms: C_19  and  C_24
                            x       y       z     vdW  Elec       q    Type
                         _______ _______ _______ _____ _____    ______ ____

>  <TORSDO>
F 3

$$$$
=
 OpenBabel11062410413D

 32 39  0  0  1  0  0  0  0  0999 V2000
  161.3160  209.8650  150.4560 C   0  0  1  0  0  3  0  0  0  0  0  0
  161.8910  209.9750  155.4430 C   0  0  0  0  0  3  0  0  0  0  0  0
  161.3670  208.6850  155.5520 C   0  0  0  0  0  3  0  0  0  0  0  0
  161.8520  207.4920  149.9800 C   0  0  1  0  0  3  0  0  0  0  0  0
  162.1210  207.7730  148.5810 C   0  0  0  0  0  0  0  0  0  0  0  0
  161.2780  205.2090  149.5190 C   0  0  0  0  0  0  0  0  0  0  0  0
  162.0390  210.5680  154.1870 C   0  0  0  0  0  3  0  0  0  0  0  0
  161.9180  210.5610  151.6910 C   0  0  0  0  0  2  0  0  0  0  0  0
  161.6640  209.8810  153.0270 C   0  0  0  0  0  0  0  0  0  0  0  0
  160.6440  207.8290  151.9230 C   0  0  2  0  0  3  0  0  0  0  0  0
  161.8030  205.3360  148.1020 C   0  0  0  0  0  2  0  0  0  0  0  0
  162.0350  206.7800  147.6890 C   0  0  0  0  0  3  0  0  0  0  0  0
  160.9950  207.9820  154.4040 C   0  0  0  0  0  3  0  0  0  0  0  0
  161.1600  208.5540  153.1360 C   0  0  0  0  0  0  0  0  0  0  0  0
  160.9730  206.3240  151.8390 C   0  0  0  0  0  2  0  0  0  0  0  0
  162.1600  210.2120  149.1940 C   0  0  1  0  0  3  0  0  0  0  0  0
  162.1470  209.1450  148.1790 N   0  0  0  0  0  2  0  0  0  0  0  0
  160.5180  204.3010  149.8150 O   0  0  0  0  0  0  0  0  0  0  0  0
  161.2820  208.3950  150.7280 C   0  0  1  0  0  3  0  0  0  0  0  0
  161.8210  206.1420  150.5660 C   0  0  2  0  0  3  0  0  0  0  0  0
  161.3550  213.7630  146.7530 C   0  0  0  0  0  2  0  0  0  0  0  0
  161.7230  211.5280  148.5630 C   0  0  1  0  0  0  0  0  0  0  0  0
  161.5060  212.6430  149.5700 C   0  0  0  0  0  2  0  0  0  0  0  0
  162.6340  213.7600  147.5850 C   0  0  0  0  0  2  0  0  0  0  0  0
  162.7340  212.6720  148.6720 C   0  0  2  0  0  3  0  0  0  0  0  0
  160.6580  211.5110  147.4600 C   0  0  0  0  0  2  0  0  0  0  0  0
  161.0590  212.3570  146.2660 C   0  0  1  0  0  3  0  0  0  0  0  0
  159.9160  212.3790  145.2670 C   0  0  0  0  0  2  0  0  0  0  0  0
  160.2070  211.7770  143.0600 C   0  0  2  0  0  3  0  0  0  0  0  0
  160.3920  212.8480  143.9770 N   0  0  0  0  0  0  0  0  0  0  0  0
  161.0590  211.9500  141.9690 O   0  0  0  0  0  1  0  0  0  0  0  0
  159.2570  212.8330  143.0910 N   0  0  0  0  0  2  0  0  0  0  0  0
  1 19  1  0  0  0  0
  1  8  1  1  0  0  0
  2  3  1  0  0  0  0
  4  5  1  6  0  0  0
  4 20  1  0  0  0  0
  4 19  1  0  0  0  0
  6 18  2  0  0  0  0
  6 20  1  0  0  0  0
  7  2  2  0  0  0  0
  8  9  1  0  0  0  0
  9 14  2  0  0  0  0
  9  7  1  0  0  0  0
 10 15  1  1  0  0  0
 10 14  1  0  0  0  0
 11  6  1  0  0  0  0
 12 11  1  0  0  0  0
 12  5  2  0  0  0  0
 13  3  2  0  0  0  0
 14 13  1  0  0  0  0
 16 17  1  6  0  0  0
 16  1  1  0  0  0  0
 17  5  1  0  0  0  0
 19 10  1  0  0  0  0
 20 15  1  0  0  0  0
 21 24  1  0  0  0  0
 22 25  1  0  0  0  0
 22 16  1  0  0  0  0
 22 23  1  0  0  0  0
 24 25  1  0  0  0  0
 25 23  1  0  0  0  0
 26 22  1  0  0  0  0
 27 21  1  0  0  0  0
 27 26  1  0  0  0  0
 28 27  1  0  0  0  0
 29 32  1  0  0  0  0
 29 30  1  0  0  0  0
 30 28  1  0  0  0  0
 31 29  1  0  0  0  0
 32 30  1  0  0  0  0
M  END
>  <MODEL>
8

>  <REMARK>
 VINA RESULT:      -6.9      3.681      7.679
  Name = 
  3 active torsions:
  status: ('A' for Active; 'I' for Inactive)
    1  A    between atoms: C_8  and  C_28
    2  A    between atoms: N_10  and  C_19
    3  A    between atoms: C_19  and  C_24
                            x       y       z     vdW  Elec       q    Type
                         _______ _______ _______ _____ _____    ______ ____

>  <TORSDO>
F 3

$$$$
=
 OpenBabel11062410413D

 32 39  0  0  1  0  0  0  0  0999 V2000
  161.3280  209.6850  150.3230 C   0  0  1  0  0  3  0  0  0  0  0  0
  161.7650  209.6880  155.3250 C   0  0  0  0  0  3  0  0  0  0  0  0
  161.2170  208.4060  155.3940 C   0  0  0  0  0  3  0  0  0  0  0  0
  161.8380  207.3130  149.8150 C   0  0  1  0  0  3  0  0  0  0  0  0
  162.1510  207.6160  148.4300 C   0  0  0  0  0  0  0  0  0  0  0  0
  161.2390  205.0490  149.2930 C   0  0  0  0  0  0  0  0  0  0  0  0
  161.9580  210.3030  154.0860 C   0  0  0  0  0  3  0  0  0  0  0  0
  161.9070  210.3470  151.5880 C   0  0  0  0  0  2  0  0  0  0  0  0
  161.6040  209.6450  152.9030 C   0  0  0  0  0  0  0  0  0  0  0  0
  160.5810  207.6330  151.7300 C   0  0  2  0  0  3  0  0  0  0  0  0
  161.8060  205.1950  147.8940 C   0  0  0  0  0  2  0  0  0  0  0  0
  162.0740  206.6430  147.5160 C   0  0  0  0  0  3  0  0  0  0  0  0
  160.8650  207.7310  154.2230 C   0  0  0  0  0  3  0  0  0  0  0  0
  161.0750  208.3250  152.9710 C   0  0  0  0  0  0  0  0  0  0  0  0
  160.8880  206.1240  151.6250 C   0  0  0  0  0  2  0  0  0  0  0  0
  162.2130  210.0410  149.0920 C   0  0  1  0  0  3  0  0  0  0  0  0
  162.2110  208.9950  148.0560 N   0  0  0  0  0  2  0  0  0  0  0  0
  160.4560  204.1490  149.5500 O   0  0  0  0  0  0  0  0  0  0  0  0
  161.2620  208.2100  150.5640 C   0  0  1  0  0  3  0  0  0  0  0  0
  161.7690  205.9520  150.3740 C   0  0  2  0  0  3  0  0  0  0  0  0
  161.3140  213.5520  146.6240 C   0  0  0  0  0  2  0  0  0  0  0  0
  161.8160  211.3770  148.4750 C   0  0  1  0  0  0  0  0  0  0  0  0
  162.0120  212.5600  149.4070 C   0  0  0  0  0  2  0  0  0  0  0  0
  162.7490  213.3930  147.1210 C   0  0  0  0  0  2  0  0  0  0  0  0
  162.9680  212.3560  148.2410 C   0  0  2  0  0  3  0  0  0  0  0  0
  160.5160  211.4700  147.6670 C   0  0  0  0  0  2  0  0  0  0  0  0
  160.7170  212.1860  146.3440 C   0  0  1  0  0  3  0  0  0  0  0  0
  159.3750  212.3340  145.6510 C   0  0  0  0  0  2  0  0  0  0  0  0
  157.4770  213.5710  146.0830 C   0  0  2  0  0  3  0  0  0  0  0  0
  158.3320  212.5760  146.6330 N   0  0  0  0  0  0  0  0  0  0  0  0
  156.7770  214.1990  147.1130 O   0  0  0  0  0  1  0  0  0  0  0  0
  157.0880  212.2060  146.0100 N   0  0  0  0  0  2  0  0  0  0  0  0
  1 19  1  0  0  0  0
  1  8  1  1  0  0  0
  2  3  1  0  0  0  0
  4  5  1  6  0  0  0
  4 20  1  0  0  0  0
  4 19  1  0  0  0  0
  6 18  2  0  0  0  0
  6 20  1  0  0  0  0
  7  2  2  0  0  0  0
  8  9  1  0  0  0  0
  9 14  2  0  0  0  0
  9  7  1  0  0  0  0
 10 15  1  1  0  0  0
 10 14  1  0  0  0  0
 11  6  1  0  0  0  0
 12 11  1  0  0  0  0
 12  5  2  0  0  0  0
 13  3  2  0  0  0  0
 14 13  1  0  0  0  0
 16 17  1  6  0  0  0
 16  1  1  0  0  0  0
 17  5  1  0  0  0  0
 19 10  1  0  0  0  0
 20 15  1  0  0  0  0
 21 24  1  0  0  0  0
 22 16  1  0  0  0  0
 22 23  1  0  0  0  0
 24 25  1  0  0  0  0
 25 22  1  0  0  0  0
 25 23  1  0  0  0  0
 26 22  1  0  0  0  0
 27 21  1  0  0  0  0
 27 26  1  0  0  0  0
 28 27  1  0  0  0  0
 28 30  1  0  0  0  0
 29 30  1  0  0  0  0
 29 31  1  0  0  0  0
 32 29  1  0  0  0  0
 32 30  1  0  0  0  0
M  END
>  <MODEL>
9

>  <REMARK>
 VINA RESULT:      -6.8      3.427      6.946
  Name = 
  3 active torsions:
  status: ('A' for Active; 'I' for Inactive)
    1  A    between atoms: C_8  and  C_28
    2  A    between atoms: N_10  and  C_19
    3  A    between atoms: C_19  and  C_24
                            x       y       z     vdW  Elec       q    Type
                         _______ _______ _______ _____ _____    ______ ____

>  <TORSDO>
F 3

$$$$
