=
 OpenBabel11062409063D

 37 41  0  0  1  0  0  0  0  0999 V2000
  161.8520  210.0920  154.8080 C   0  0  0  0  0  0  0  0  0  0  0  0
  160.3590  208.6680  151.8570 C   0  0  2  0  0  3  0  0  0  0  0  0
  162.5450  208.2320  153.3700 C   0  0  0  0  0  2  0  0  0  0  0  0
  161.2940  209.5320  150.9870 C   0  0  0  0  0  2  0  0  0  0  0  0
  160.2660  209.1710  153.3140 C   0  0  2  0  0  3  0  0  0  0  0  0
  161.8440  208.7930  149.7660 C   0  0  1  0  0  3  0  0  0  0  0  0
  162.0070  205.7950  153.4050 C   0  0  0  0  0  1  0  0  0  0  0  0
  159.9120  210.6430  153.5450 C   0  0  1  0  0  3  0  0  0  0  0  0
  163.2400  210.2780  154.8170 O   0  0  0  0  0  1  0  0  0  0  0  0
  159.4630  205.8520  150.3670 C   0  0  0  0  0  1  0  0  0  0  0  0
  162.0740  207.0320  152.5300 C   0  0  1  0  0  3  0  0  0  0  0  0
  161.1940  211.2400  154.0690 C   0  0  0  0  0  2  0  0  0  0  0  0
  160.7660  207.2530  151.8850 N   0  0  2  0  0  0  0  0  0  0  0  0
  161.4440  208.8330  154.1490 N   0  0  2  0  0  0  0  0  0  0  0  0
  160.9750  207.5860  149.3740 C   0  0  2  0  0  3  0  0  0  0  0  0
  161.3930  210.0820  156.1270 O   0  0  0  0  0  1  0  0  0  0  0  0
  160.7580  206.6210  150.5570 C   0  0  2  0  0  3  0  0  0  0  0  0
  162.8160  206.2590  148.3130 C   0  0  0  0  0  3  0  0  0  0  0  0
  161.5480  206.8410  148.2010 C   0  0  0  0  0  0  0  0  0  0  0  0
  160.8340  206.7240  146.9990 C   0  0  0  0  0  3  0  0  0  0  0  0
  160.6930  205.9180  144.7610 F   0  0  0  0  0  0  0  0  0  0  0  0
  162.6510  205.4480  146.0360 C   0  0  0  0  0  3  0  0  0  0  0  0
  161.3850  206.0290  145.9190 C   0  0  0  0  0  0  0  0  0  0  0  0
  163.3670  205.5630  147.2320 C   0  0  0  0  0  3  0  0  0  0  0  0
  159.8630  212.8290  152.3210 C   0  0  0  0  0  2  0  0  0  0  0  0
  158.8060  213.6910  152.9880 C   0  0  1  0  0  3  0  0  0  0  0  0
  157.8340  211.5930  152.5250 C   0  0  0  0  0  2  0  0  0  0  0  0
  157.6100  212.8760  153.1840 N   0  0  0  0  0  0  0  0  0  0  0  0
  159.3290  211.4140  152.3520 C   0  0  2  0  0  3  0  0  0  0  0  0
  159.3060  214.1880  154.3340 C   0  0  0  0  0  2  0  0  0  0  0  0
  158.6810  213.4850  155.3650 O   0  0  0  0  0  1  0  0  0  0  0  0
  156.4300  213.5380  152.6090 C   0  0  0  0  0  2  0  0  0  0  0  0
  155.3120  213.7560  153.5900 C   0  0  0  0  0  0  0  0  0  0  0  0
  154.2400  214.2950  153.2110 O   0  0  0  0  0  0  0  0  0  0  0  0
  155.4530  213.3470  154.9100 O   0  0  0  0  0  1  0  0  0  0  0  0
  162.0410  209.7590  148.6310 C   0  0  0  0  0  3  0  0  0  0  0  0
  162.0290  211.0810  148.8160 C   0  0  0  0  0  2  0  0  0  0  0  0
  1  9  1  0  0  0  0
  1 16  1  0  0  0  0
  2  4  1  6  0  0  0
  2 13  1  0  0  0  0
  2  5  1  0  0  0  0
  3 14  1  0  0  0  0
  5  8  1  0  0  0  0
  5 14  1  0  0  0  0
  6  4  1  0  0  0  0
  8 12  1  0  0  0  0
 10 17  1  0  0  0  0
 11  3  1  0  0  0  0
 11  7  1  0  0  0  0
 12  1  1  0  0  0  0
 13 11  1  0  0  0  0
 14  1  1  0  0  0  0
 15  6  1  0  0  0  0
 15 17  1  0  0  0  0
 17 13  1  0  0  0  0
 19 18  1  0  0  0  0
 19 15  1  0  0  0  0
 20 19  2  0  0  0  0
 21 23  1  0  0  0  0
 22 24  1  0  0  0  0
 23 22  2  0  0  0  0
 23 20  1  0  0  0  0
 24 18  2  0  0  0  0
 25 29  1  0  0  0  0
 25 26  1  0  0  0  0
 26 28  1  0  0  0  0
 26 30  1  0  0  0  0
 27 28  1  0  0  0  0
 29 27  1  0  0  0  0
 29  8  1  0  0  0  0
 30 31  1  0  0  0  0
 32 28  1  0  0  0  0
 32 33  1  0  0  0  0
 33 35  1  0  0  0  0
 34 33  2  0  0  0  0
 36 37  2  0  0  0  0
 36  6  1  0  0  0  0
M  END
>  <MODEL>
1

>  <REMARK>
 VINA RESULT:      -0.7      0.000      0.000
  Name = 
  6 active torsions:
  status: ('A' for Active; 'I' for Inactive)
    1  A    between atoms: C_5  and  C_12
    2  A    between atoms: C_6  and  C_31
    3  A    between atoms: C_7  and  C_14
    4  A    between atoms: C_11  and  C_26
    5  A    between atoms: C_20  and  C_36
    6  A    between atoms: C_26  and  N_33
                            x       y       z     vdW  Elec       q    Type
                         _______ _______ _______ _____ _____    ______ ____

>  <TORSDO>
F 6

$$$$
=
 OpenBabel11062409063D

 37 41  0  0  1  0  0  0  0  0999 V2000
  161.6530  208.3760  155.1230 C   0  0  0  0  0  0  0  0  0  0  0  0
  160.3500  207.8140  151.8140 C   0  0  2  0  0  3  0  0  0  0  0  0
  162.1870  206.6860  153.4300 C   0  0  0  0  0  2  0  0  0  0  0  0
  161.5400  208.6010  151.2290 C   0  0  0  0  0  2  0  0  0  0  0  0
  160.1500  208.0690  153.3240 C   0  0  2  0  0  3  0  0  0  0  0  0
  162.1100  207.9840  149.9510 C   0  0  1  0  0  3  0  0  0  0  0  0
  161.2120  204.4420  152.9350 C   0  0  0  0  0  1  0  0  0  0  0  0
  160.0430  209.5210  153.7990 C   0  0  1  0  0  3  0  0  0  0  0  0
  163.0370  208.2680  155.3110 O   0  0  0  0  0  1  0  0  0  0  0  0
  159.1690  205.5380  149.7210 C   0  0  0  0  0  1  0  0  0  0  0  0
  161.6260  205.7700  152.3290 C   0  0  1  0  0  3  0  0  0  0  0  0
  161.3260  209.7430  154.5570 C   0  0  0  0  0  2  0  0  0  0  0  0
  160.4830  206.3610  151.6080 N   0  0  2  0  0  0  0  0  0  0  0  0
  161.1170  207.3590  154.1930 N   0  0  2  0  0  0  0  0  0  0  0  0
  161.0980  207.0670  149.2440 C   0  0  2  0  0  3  0  0  0  0  0  0
  161.0210  208.2360  156.3600 O   0  0  0  0  0  1  0  0  0  0  0  0
  160.5450  205.9800  150.1880 C   0  0  2  0  0  3  0  0  0  0  0  0
  162.8750  205.7070  148.1190 C   0  0  0  0  0  3  0  0  0  0  0  0
  161.6820  206.4310  148.0150 C   0  0  0  0  0  0  0  0  0  0  0  0
  161.0530  206.5560  146.7670 C   0  0  0  0  0  3  0  0  0  0  0  0
  161.0040  206.0800  144.4320 F   0  0  0  0  0  0  0  0  0  0  0  0
  162.8040  205.2340  145.7440 C   0  0  0  0  0  3  0  0  0  0  0  0
  161.6130  205.9580  145.6340 C   0  0  0  0  0  0  0  0  0  0  0  0
  163.4350  205.1080  146.9860 C   0  0  0  0  0  3  0  0  0  0  0  0
  160.5160  211.8670  153.0570 C   0  0  0  0  0  2  0  0  0  0  0  0
  159.5030  212.7660  153.7440 C   0  0  1  0  0  3  0  0  0  0  0  0
  158.3230  210.9920  152.7320 C   0  0  0  0  0  2  0  0  0  0  0  0
  158.1840  212.1530  153.6070 N   0  0  0  0  0  0  0  0  0  0  0  0
  159.7830  210.5870  152.7250 C   0  0  2  0  0  3  0  0  0  0  0  0
  159.8440  212.9130  155.2170 C   0  0  0  0  0  2  0  0  0  0  0  0
  159.0560  212.0480  155.9780 O   0  0  0  0  0  1  0  0  0  0  0  0
  157.2250  213.1070  153.0320 C   0  0  0  0  0  2  0  0  0  0  0  0
  156.0300  213.3740  153.9040 C   0  0  0  0  0  0  0  0  0  0  0  0
  155.0130  213.9370  153.4210 O   0  0  0  0  0  0  0  0  0  0  0  0
  156.0400  212.9860  155.2370 O   0  0  0  0  0  1  0  0  0  0  0  0
  162.6370  209.0680  149.0520 C   0  0  0  0  0  3  0  0  0  0  0  0
  162.0060  210.2350  148.9050 C   0  0  0  0  0  2  0  0  0  0  0  0
  1  9  1  0  0  0  0
  1 16  1  0  0  0  0
  2  4  1  1  0  0  0
  2  5  1  0  0  0  0
  3 14  1  0  0  0  0
  5  8  1  0  0  0  0
  5 14  1  0  0  0  0
  6  4  1  0  0  0  0
  8 12  1  0  0  0  0
 10 17  1  0  0  0  0
 11  7  1  0  0  0  0
 11  3  1  0  0  0  0
 12  1  1  0  0  0  0
 13  2  1  0  0  0  0
 13 11  1  0  0  0  0
 14  1  1  0  0  0  0
 15  6  1  0  0  0  0
 15 17  1  0  0  0  0
 17 13  1  0  0  0  0
 19 18  1  0  0  0  0
 19 15  1  0  0  0  0
 20 19  2  0  0  0  0
 21 23  1  0  0  0  0
 22 24  1  0  0  0  0
 23 22  2  0  0  0  0
 23 20  1  0  0  0  0
 24 18  2  0  0  0  0
 25 26  1  0  0  0  0
 26 30  1  0  0  0  0
 27 28  1  0  0  0  0
 28 26  1  0  0  0  0
 29 27  1  0  0  0  0
 29 25  1  0  0  0  0
 29  8  1  0  0  0  0
 30 31  1  0  0  0  0
 32 28  1  0  0  0  0
 32 33  1  0  0  0  0
 33 35  1  0  0  0  0
 34 33  2  0  0  0  0
 36  6  1  0  0  0  0
 37 36  2  0  0  0  0
M  END
>  <MODEL>
2

>  <REMARK>
 VINA RESULT:       0.4      1.071      1.144
  Name = 
  6 active torsions:
  status: ('A' for Active; 'I' for Inactive)
    1  A    between atoms: C_5  and  C_12
    2  A    between atoms: C_6  and  C_31
    3  A    between atoms: C_7  and  C_14
    4  A    between atoms: C_11  and  C_26
    5  A    between atoms: C_20  and  C_36
    6  A    between atoms: C_26  and  N_33
                            x       y       z     vdW  Elec       q    Type
                         _______ _______ _______ _____ _____    ______ ____

>  <TORSDO>
F 6

$$$$
=
 OpenBabel11062409063D

 37 41  0  0  1  0  0  0  0  0999 V2000
  160.9150  204.9990  153.0560 C   0  0  0  0  0  0  0  0  0  0  0  0
  161.5900  208.4820  153.6720 C   0  0  2  0  0  3  0  0  0  0  0  0
  160.1430  206.5200  154.8170 C   0  0  0  0  0  2  0  0  0  0  0  0
  160.2790  208.8480  152.9480 C   0  0  0  0  0  2  0  0  0  0  0  0
  162.0620  207.0450  153.3620 C   0  0  2  0  0  3  0  0  0  0  0  0
  159.5040  209.9790  153.6250 C   0  0  1  0  0  3  0  0  0  0  0  0
  161.1010  207.1390  157.0370 C   0  0  0  0  0  1  0  0  0  0  0  0
  162.1940  206.6320  151.8930 C   0  0  1  0  0  3  0  0  0  0  0  0
  159.5970  204.5490  153.2110 O   0  0  0  0  0  1  0  0  0  0  0  0
  162.4490  210.7080  155.9650 C   0  0  0  0  0  1  0  0  0  0  0  0
  160.5240  207.6860  155.7450 C   0  0  1  0  0  3  0  0  0  0  0  0
  161.0690  205.6490  151.6960 C   0  0  0  0  0  2  0  0  0  0  0  0
  161.4830  208.6250  155.1340 N   0  0  2  0  0  0  0  0  0  0  0  0
  161.3070  205.9910  154.0810 N   0  0  2  0  0  0  0  0  0  0  0  0
  160.4020  210.8440  154.5250 C   0  0  2  0  0  3  0  0  0  0  0  0
  161.7740  203.9020  153.1340 O   0  0  0  0  0  1  0  0  0  0  0  0
  161.1700  209.9980  155.5610 C   0  0  2  0  0  3  0  0  0  0  0  0
  160.0800  213.2460  155.1560 C   0  0  0  0  0  3  0  0  0  0  0  0
  159.6230  211.9250  155.2200 C   0  0  0  0  0  0  0  0  0  0  0  0
  158.4510  211.6290  155.9320 C   0  0  0  0  0  3  0  0  0  0  0  0
  156.6120  212.3600  157.2600 F   0  0  0  0  0  0  0  0  0  0  0  0
  158.2010  213.9670  156.5050 C   0  0  0  0  0  3  0  0  0  0  0  0
  157.7420  212.6490  156.5730 C   0  0  0  0  0  0  0  0  0  0  0  0
  159.3690  214.2670  155.7970 C   0  0  0  0  0  3  0  0  0  0  0  0
  160.8290  207.9250  150.2380 C   0  0  0  0  0  2  0  0  0  0  0  0
  160.8570  207.1500  148.9320 C   0  0  1  0  0  3  0  0  0  0  0  0
  163.0820  207.3850  149.6780 C   0  0  0  0  0  2  0  0  0  0  0  0
  162.2390  206.7530  148.6680 N   0  0  0  0  0  0  0  0  0  0  0  0
  162.2010  207.7610  150.8520 C   0  0  2  0  0  3  0  0  0  0  0  0
  159.9850  205.9100  149.0370 C   0  0  0  0  0  2  0  0  0  0  0  0
  160.7430  204.7690  148.7680 O   0  0  0  0  0  1  0  0  0  0  0  0
  162.6540  207.1810  147.3240 C   0  0  0  0  0  2  0  0  0  0  0  0
  162.3100  206.2020  146.2370 C   0  0  0  0  0  0  0  0  0  0  0  0
  163.1490  205.3320  145.8870 O   0  0  0  0  0  1  0  0  0  0  0  0
  161.0620  206.2440  145.6300 O   0  0  0  0  0  0  0  0  0  0  0  0
  158.7700  210.7860  152.5900 C   0  0  0  0  0  3  0  0  0  0  0  0
  159.3520  211.7900  151.9320 C   0  0  0  0  0  2  0  0  0  0  0  0
  1 16  1  0  0  0  0
  1  9  1  0  0  0  0
  1 14  1  0  0  0  0
  2  4  1  6  0  0  0
  2 13  1  0  0  0  0
  3 11  1  0  0  0  0
  4  6  1  0  0  0  0
  5  2  1  0  0  0  0
  5 14  1  0  0  0  0
  6 15  1  0  0  0  0
  8  5  1  0  0  0  0
 11  7  1  0  0  0  0
 12  8  1  0  0  0  0
 12  1  1  0  0  0  0
 13 17  1  0  0  0  0
 13 11  1  0  0  0  0
 14  3  1  0  0  0  0
 15 19  1  0  0  0  0
 15 17  1  0  0  0  0
 17 10  1  0  0  0  0
 18 19  2  0  0  0  0
 18 24  1  0  0  0  0
 19 20  1  0  0  0  0
 20 23  2  0  0  0  0
 22 23  1  0  0  0  0
 23 21  1  0  0  0  0
 24 22  2  0  0  0  0
 25 29  1  0  0  0  0
 26 30  1  0  0  0  0
 26 25  1  0  0  0  0
 27 29  1  0  0  0  0
 28 26  1  0  0  0  0
 28 27  1  0  0  0  0
 29  8  1  0  0  0  0
 31 30  1  0  0  0  0
 32 28  1  0  0  0  0
 33 32  1  0  0  0  0
 34 33  1  0  0  0  0
 35 33  2  0  0  0  0
 36  6  1  0  0  0  0
 37 36  2  0  0  0  0
M  END
>  <MODEL>
3

>  <REMARK>
 VINA RESULT:       0.6      4.472      8.435
  Name = 
  6 active torsions:
  status: ('A' for Active; 'I' for Inactive)
    1  A    between atoms: C_5  and  C_12
    2  A    between atoms: C_6  and  C_31
    3  A    between atoms: C_7  and  C_14
    4  A    between atoms: C_11  and  C_26
    5  A    between atoms: C_20  and  C_36
    6  A    between atoms: C_26  and  N_33
                            x       y       z     vdW  Elec       q    Type
                         _______ _______ _______ _____ _____    ______ ____

>  <TORSDO>
F 6

$$$$
=
 OpenBabel11062409063D

 37 41  0  0  1  0  0  0  0  0999 V2000
  161.6630  208.1560  155.0310 C   0  0  0  0  0  0  0  0  0  0  0  0
  160.3500  207.7540  151.7020 C   0  0  2  0  0  3  0  0  0  0  0  0
  162.1490  206.5130  153.2770 C   0  0  0  0  0  2  0  0  0  0  0  0
  161.5640  208.5260  151.1470 C   0  0  0  0  0  2  0  0  0  0  0  0
  160.1540  207.9610  153.2200 C   0  0  2  0  0  3  0  0  0  0  0  0
  162.1180  207.9390  149.8480 C   0  0  1  0  0  3  0  0  0  0  0  0
  161.1080  204.3190  152.7000 C   0  0  0  0  0  1  0  0  0  0  0  0
  160.0900  209.3970  153.7470 C   0  0  1  0  0  3  0  0  0  0  0  0
  163.0430  207.9990  155.2160 O   0  0  0  0  0  1  0  0  0  0  0  0
  159.1050  205.5920  149.5260 C   0  0  0  0  0  1  0  0  0  0  0  0
  161.5620  205.6550  152.1430 C   0  0  1  0  0  3  0  0  0  0  0  0
  161.3780  209.5520  154.5150 C   0  0  0  0  0  2  0  0  0  0  0  0
  160.4390  206.3070  151.4430 N   0  0  2  0  0  0  0  0  0  0  0  0
  161.0980  207.1900  154.0630 N   0  0  2  0  0  0  0  0  0  0  0  0
  161.0800  207.0790  149.1080 C   0  0  2  0  0  3  0  0  0  0  0  0
  161.0240  207.9900  156.2610 O   0  0  0  0  0  1  0  0  0  0  0  0
  160.4920  205.9750  150.0100 C   0  0  2  0  0  3  0  0  0  0  0  0
  160.9470  206.6050  146.6520 C   0  0  0  0  0  3  0  0  0  0  0  0
  161.6470  206.4710  147.8560 C   0  0  0  0  0  0  0  0  0  0  0  0
  162.8630  205.7700  147.8780 C   0  0  0  0  0  3  0  0  0  0  0  0
  164.5450  204.5350  146.7280 F   0  0  0  0  0  0  0  0  0  0  0  0
  162.6700  205.3490  145.5020 C   0  0  0  0  0  3  0  0  0  0  0  0
  163.3730  205.2110  146.7030 C   0  0  0  0  0  0  0  0  0  0  0  0
  161.4580  206.0460  145.4760 C   0  0  0  0  0  3  0  0  0  0  0  0
  160.6430  211.7490  153.0870 C   0  0  0  0  0  2  0  0  0  0  0  0
  159.6630  212.6590  153.8090 C   0  0  1  0  0  3  0  0  0  0  0  0
  158.4190  210.9630  152.7400 C   0  0  0  0  0  2  0  0  0  0  0  0
  158.3230  212.0960  153.6560 N   0  0  0  0  0  0  0  0  0  0  0  0
  159.8640  210.5090  152.7130 C   0  0  2  0  0  3  0  0  0  0  0  0
  160.0130  212.7410  155.2850 C   0  0  0  0  0  2  0  0  0  0  0  0
  159.2110  213.6960  155.9130 O   0  0  0  0  0  1  0  0  0  0  0  0
  157.3960  213.1030  153.1180 C   0  0  0  0  0  2  0  0  0  0  0  0
  157.8250  213.6880  151.8020 C   0  0  0  0  0  0  0  0  0  0  0  0
  157.1260  213.5010  150.7730 O   0  0  0  0  0  0  0  0  0  0  0  0
  158.9830  214.4510  151.7230 O   0  0  0  0  0  1  0  0  0  0  0  0
  162.6790  209.0380  148.9900 C   0  0  0  0  0  3  0  0  0  0  0  0
  162.1130  210.2450  148.9240 C   0  0  0  0  0  2  0  0  0  0  0  0
  1  9  1  0  0  0  0
  1 16  1  0  0  0  0
  2  4  1  1  0  0  0
  2  5  1  0  0  0  0
  3 14  1  0  0  0  0
  5  8  1  0  0  0  0
  5 14  1  0  0  0  0
  6  4  1  0  0  0  0
  8 12  1  0  0  0  0
 10 17  1  0  0  0  0
 11  7  1  0  0  0  0
 11  3  1  0  0  0  0
 12  1  1  0  0  0  0
 13  2  1  0  0  0  0
 13 11  1  0  0  0  0
 14  1  1  0  0  0  0
 15  6  1  0  0  0  0
 15 17  1  0  0  0  0
 17 13  1  0  0  0  0
 18 19  1  0  0  0  0
 19 20  2  0  0  0  0
 19 15  1  0  0  0  0
 22 23  2  0  0  0  0
 23 21  1  0  0  0  0
 23 20  1  0  0  0  0
 24 22  1  0  0  0  0
 24 18  2  0  0  0  0
 25 26  1  0  0  0  0
 26 30  1  0  0  0  0
 27 28  1  0  0  0  0
 28 26  1  0  0  0  0
 29 27  1  0  0  0  0
 29 25  1  0  0  0  0
 29  8  1  0  0  0  0
 30 31  1  0  0  0  0
 32 28  1  0  0  0  0
 33 32  1  0  0  0  0
 34 33  2  0  0  0  0
 35 33  1  0  0  0  0
 36  6  1  0  0  0  0
 37 36  2  0  0  0  0
M  END
>  <MODEL>
4

>  <REMARK>
 VINA RESULT:       1.3      1.627      1.993
  Name = 
  6 active torsions:
  status: ('A' for Active; 'I' for Inactive)
    1  A    between atoms: C_5  and  C_12
    2  A    between atoms: C_6  and  C_31
    3  A    between atoms: C_7  and  C_14
    4  A    between atoms: C_11  and  C_26
    5  A    between atoms: C_20  and  C_36
    6  A    between atoms: C_26  and  N_33
                            x       y       z     vdW  Elec       q    Type
                         _______ _______ _______ _____ _____    ______ ____

>  <TORSDO>
F 6

$$$$
