=
 OpenBabel11062408203D

 32 38  0  0  1  0  0  0  0  0999 V2000
  161.7960  210.3170  151.0900 C   0  0  0  0  0  0  0  0  0  0  0  0
  161.4660  207.9100  150.7910 C   0  0  1  0  0  3  0  0  0  0  0  0
  160.8250  211.0620  151.6330 C   0  0  0  0  0  3  0  0  0  0  0  0
  162.1270  208.9710  151.6460 C   0  0  2  0  0  3  0  0  0  0  0  0
  160.6250  205.5270  151.2270 C   0  0  2  0  0  3  0  0  0  0  0  0
  162.1980  205.8830  146.1440 C   0  0  0  0  0  2  0  0  0  0  0  0
  162.1290  207.9770  149.3840 C   0  0  2  0  0  3  0  0  0  0  0  0
  161.2120  204.5740  147.6780 C   0  0  0  0  0  2  0  0  0  0  0  0
  161.4570  205.5210  148.8560 C   0  0  2  0  0  3  0  0  0  0  0  0
  161.7630  208.7660  153.1060 C   0  0  2  0  0  3  0  0  0  0  0  0
  160.2390  205.4670  149.7560 C   0  0  0  0  0  2  0  0  0  0  0  0
  161.5350  206.9840  153.3560 S   0  0  0  0  0  0  0  0  0  0  0  0
  160.5390  209.5350  153.5280 C   0  0  0  0  0  3  0  0  0  0  0  0
  161.9150  209.3860  148.7750 C   0  0  0  0  0  2  0  0  0  0  0  0
  162.3420  210.5440  149.7100 C   0  0  1  0  0  3  0  0  0  0  0  0
  161.6320  206.9580  148.3390 C   0  0  2  0  0  3  0  0  0  0  0  0
  161.6650  206.6060  151.5640 C   0  0  2  0  0  3  0  0  0  0  0  0
  160.1410  210.6250  152.8650 C   0  0  0  0  0  3  0  0  0  0  0  0
  162.2840  204.6320  146.7740 O   0  0  0  0  0  0  0  0  0  0  0  0
  162.5830  206.9790  147.1340 C   0  0  0  0  0  2  0  0  0  0  0  0
  160.8630  212.2550  147.1900 C   0  0  1  0  0  0  0  0  0  0  0  0
  160.0570  211.4560  146.2550 C   0  0  0  0  0  2  0  0  0  0  0  0
  162.2750  212.5570  146.8120 C   0  0  2  0  0  3  0  0  0  0  0  0
  162.0650  211.8900  149.1770 N   0  0  1  0  0  0  0  0  0  0  0  0
  159.8130  212.8380  146.4610 O   0  0  0  0  0  0  0  0  0  0  0  0
  163.0190  212.1400  148.0770 C   0  0  0  0  0  2  0  0  0  0  0  0
  160.6950  212.0010  148.6550 C   0  0  1  0  0  3  0  0  0  0  0  0
  159.9980  213.1750  149.3220 C   0  0  0  0  0  1  0  0  0  0  0  0
  162.7100  214.4530  145.4740 O   0  0  0  0  0  0  0  0  0  0  0  0
  162.4560  214.0260  146.5890 C   0  0  0  0  0  3  0  0  0  0  0  0
  161.1120  204.1570  151.6760 C   0  0  0  0  0  2  0  0  0  0  0  0
  160.4440  203.0720  150.8550 C   0  0  0  0  0  1  0  0  0  0  0  0
  1  3  2  0  0  0  0
  1  4  1  0  0  0  0
  2 17  1  0  0  0  0
  2  4  1  0  0  0  0
  3 18  1  0  0  0  0
  4 10  1  0  0  0  0
  5 17  1  0  0  0  0
  5 31  1  0  0  0  0
  6 19  1  0  0  0  0
  6 20  1  0  0  0  0
  7  2  1  0  0  0  0
  8  9  1  0  0  0  0
  9 11  1  0  0  0  0
 10 12  1  0  0  0  0
 10 13  1  0  0  0  0
 11  5  1  0  0  0  0
 14  7  1  0  0  0  0
 14 15  1  0  0  0  0
 15  1  1  0  0  0  0
 16  9  1  0  0  0  0
 16  7  1  0  0  0  0
 17 12  1  0  0  0  0
 18 13  2  0  0  0  0
 19  8  1  0  0  0  0
 20 16  1  0  0  0  0
 21 27  1  0  0  0  0
 22 25  1  0  0  0  0
 22 21  1  0  0  0  0
 23 21  1  0  0  0  0
 23 26  1  0  0  0  0
 24 15  1  0  0  0  0
 25 21  1  0  0  0  0
 26 24  1  0  0  0  0
 27 24  1  0  0  0  0
 27 28  1  0  0  0  0
 29 30  2  0  0  0  0
 30 23  1  0  0  0  0
 32 31  1  0  0  0  0
M  END
>  <MODEL>
1

>  <REMARK>
 VINA RESULT:      -7.4      0.000      0.000
  Name = 
  3 active torsions:
  status: ('A' for Active; 'I' for Inactive)
    1  A    between atoms: C_6  and  C_13
    2  A    between atoms: C_15  and  C_26
    3  A    between atoms: N_16  and  C_27
                            x       y       z     vdW  Elec       q    Type
                         _______ _______ _______ _____ _____    ______ ____

>  <TORSDO>
F 3

$$$$
=
 OpenBabel11062408203D

 32 38  0  0  1  0  0  0  0  0999 V2000
  161.1880  205.1000  150.1900 C   0  0  0  0  0  0  0  0  0  0  0  0
  161.4120  207.3500  151.1260 C   0  0  1  0  0  3  0  0  0  0  0  0
  161.9860  204.1140  150.6210 C   0  0  0  0  0  3  0  0  0  0  0  0
  160.5940  206.0760  151.1510 C   0  0  2  0  0  3  0  0  0  0  0  0
  161.8860  209.2080  152.8280 C   0  0  2  0  0  3  0  0  0  0  0  0
  162.0610  211.2940  147.9240 C   0  0  0  0  0  2  0  0  0  0  0  0
  161.2440  207.9740  149.7100 C   0  0  2  0  0  3  0  0  0  0  0  0
  162.3990  211.6940  150.1070 C   0  0  0  0  0  2  0  0  0  0  0  0
  161.8610  210.3430  150.5860 C   0  0  2  0  0  3  0  0  0  0  0  0
  160.4530  205.5750  152.5790 C   0  0  2  0  0  3  0  0  0  0  0  0
  162.7180  209.8900  151.7520 C   0  0  0  0  0  2  0  0  0  0  0  0
  160.4530  207.0320  153.6600 S   0  0  0  0  0  0  0  0  0  0  0  0
  161.5320  204.6030  152.9780 C   0  0  0  0  0  3  0  0  0  0  0  0
  161.7490  206.9740  148.6390 C   0  0  0  0  0  2  0  0  0  0  0  0
  161.1330  205.5600  148.7620 C   0  0  1  0  0  3  0  0  0  0  0  0
  161.9710  209.3090  149.4540 C   0  0  2  0  0  3  0  0  0  0  0  0
  160.8770  208.1810  152.2930 C   0  0  2  0  0  3  0  0  0  0  0  0
  162.2020  203.8960  152.0630 C   0  0  0  0  0  3  0  0  0  0  0  0
  161.6820  212.1340  148.9830 O   0  0  0  0  0  0  0  0  0  0  0  0
  161.4630  209.9060  148.1350 C   0  0  0  0  0  2  0  0  0  0  0  0
  161.2580  204.6940  145.4910 C   0  0  1  0  0  0  0  0  0  0  0  0
  160.6770  205.6600  144.5460 C   0  0  0  0  0  2  0  0  0  0  0  0
  160.4010  203.5610  145.9470 C   0  0  2  0  0  3  0  0  0  0  0  0
  161.6690  204.5770  147.8020 N   0  0  1  0  0  0  0  0  0  0  0  0
  161.6840  204.7440  144.1530 O   0  0  0  0  0  0  0  0  0  0  0  0
  160.5750  203.6460  147.4610 C   0  0  0  0  0  2  0  0  0  0  0  0
  162.1500  205.2200  146.5710 C   0  0  1  0  0  3  0  0  0  0  0  0
  163.5910  204.8070  146.3200 C   0  0  0  0  0  1  0  0  0  0  0  0
  160.1910  201.3670  145.1030 O   0  0  0  0  0  0  0  0  0  0  0  0
  160.9470  202.2580  145.4540 C   0  0  0  0  0  3  0  0  0  0  0  0
  161.1780  210.2670  153.6620 C   0  0  0  0  0  2  0  0  0  0  0  0
  161.9100  210.4750  154.9730 C   0  0  0  0  0  1  0  0  0  0  0  0
  1  3  2  0  0  0  0
  1  4  1  0  0  0  0
  2  4  1  0  0  0  0
  2 17  1  0  0  0  0
  3 18  1  0  0  0  0
  4 10  1  0  0  0  0
  5 31  1  0  0  0  0
  6 20  1  0  0  0  0
  6 19  1  0  0  0  0
  7  2  1  0  0  0  0
  8  9  1  0  0  0  0
  9 11  1  0  0  0  0
 10 13  1  0  0  0  0
 10 12  1  0  0  0  0
 11  5  1  0  0  0  0
 14 15  1  0  0  0  0
 14  7  1  0  0  0  0
 15  1  1  0  0  0  0
 16  7  1  0  0  0  0
 16  9  1  0  0  0  0
 17  5  1  0  0  0  0
 17 12  1  0  0  0  0
 18 13  2  0  0  0  0
 19  8  1  0  0  0  0
 20 16  1  0  0  0  0
 21 23  1  0  0  0  0
 21 27  1  0  0  0  0
 22 21  1  0  0  0  0
 23 26  1  0  0  0  0
 24 15  1  0  0  0  0
 25 22  1  0  0  0  0
 25 21  1  0  0  0  0
 26 24  1  0  0  0  0
 27 24  1  0  0  0  0
 28 27  1  0  0  0  0
 29 30  2  0  0  0  0
 30 23  1  0  0  0  0
 31 32  1  0  0  0  0
M  END
>  <MODEL>
2

>  <REMARK>
 VINA RESULT:      -4.8      2.170      6.687
  Name = 
  3 active torsions:
  status: ('A' for Active; 'I' for Inactive)
    1  A    between atoms: C_6  and  C_13
    2  A    between atoms: C_15  and  C_26
    3  A    between atoms: N_16  and  C_27
                            x       y       z     vdW  Elec       q    Type
                         _______ _______ _______ _____ _____    ______ ____

>  <TORSDO>
F 3

$$$$
=
 OpenBabel11062408203D

 32 38  0  0  1  0  0  0  0  0999 V2000
  160.4950  209.9170  154.5130 C   0  0  0  0  0  0  0  0  0  0  0  0
  160.9670  207.9970  153.0710 C   0  0  1  0  0  3  0  0  0  0  0  0
  159.3690  209.9490  155.2370 C   0  0  0  0  0  3  0  0  0  0  0  0
  161.2910  208.6600  154.3940 C   0  0  2  0  0  3  0  0  0  0  0  0
  160.9950  205.5750  152.2270 C   0  0  2  0  0  3  0  0  0  0  0  0
  162.0280  208.8290  148.1300 C   0  0  0  0  0  2  0  0  0  0  0  0
  161.4770  208.9440  151.9470 C   0  0  2  0  0  3  0  0  0  0  0  0
  161.6350  206.7040  148.7390 C   0  0  0  0  0  2  0  0  0  0  0  0
  161.6270  206.9840  150.2440 C   0  0  2  0  0  3  0  0  0  0  0  0
  161.1110  207.6690  155.5320 C   0  0  2  0  0  3  0  0  0  0  0  0
  160.5570  206.1140  150.8720 C   0  0  0  0  0  2  0  0  0  0  0  0
  161.5050  206.0240  154.8770 S   0  0  0  0  0  0  0  0  0  0  0  0
  159.7300  207.6980  156.1330 C   0  0  0  0  0  3  0  0  0  0  0  0
  160.7670  210.3170  152.0630 C   0  0  0  0  0  2  0  0  0  0  0  0
  160.8440  210.9450  153.4750 C   0  0  1  0  0  3  0  0  0  0  0  0
  161.2810  208.4600  150.4960 C   0  0  2  0  0  3  0  0  0  0  0  0
  161.6370  206.6250  153.1470 C   0  0  2  0  0  3  0  0  0  0  0  0
  158.9510  208.7780  156.0300 C   0  0  0  0  0  3  0  0  0  0  0  0
  162.5660  207.5330  148.0930 O   0  0  0  0  0  0  0  0  0  0  0  0
  162.0900  209.3660  149.5570 C   0  0  0  0  0  2  0  0  0  0  0  0
  157.8080  212.2930  154.1310 C   0  0  1  0  0  0  0  0  0  0  0  0
  156.7640  211.3510  154.5590 C   0  0  0  0  0  2  0  0  0  0  0  0
  157.8640  212.6640  152.6870 C   0  0  2  0  0  3  0  0  0  0  0  0
  160.1010  212.2100  153.6210 N   0  0  1  0  0  0  0  0  0  0  0  0
  156.7230  212.7230  154.9130 O   0  0  0  0  0  0  0  0  0  0  0  0
  159.3390  212.4250  152.3740 C   0  0  0  0  0  2  0  0  0  0  0  0
  159.1640  212.1670  154.7520 C   0  0  1  0  0  3  0  0  0  0  0  0
  159.4380  213.3440  155.6750 C   0  0  0  0  0  1  0  0  0  0  0  0
  156.4750  214.4530  152.0220 O   0  0  0  0  0  0  0  0  0  0  0  0
  157.5440  214.1140  152.5030 C   0  0  0  0  0  3  0  0  0  0  0  0
  161.9390  204.3990  152.0190 C   0  0  0  0  0  2  0  0  0  0  0  0
  161.2080  203.2590  151.3360 C   0  0  0  0  0  1  0  0  0  0  0  0
  1  3  2  0  0  0  0
  2 17  1  0  0  0  0
  2  4  1  0  0  0  0
  3 18  1  0  0  0  0
  4  1  1  0  0  0  0
  4 10  1  0  0  0  0
  5 17  1  0  0  0  0
  6 20  1  0  0  0  0
  7 14  1  0  0  0  0
  7  2  1  0  0  0  0
  8  9  1  0  0  0  0
  9 16  1  0  0  0  0
  9 11  1  0  0  0  0
 10 13  1  0  0  0  0
 11  5  1  0  0  0  0
 12 10  1  0  0  0  0
 14 15  1  0  0  0  0
 15 24  1  0  0  0  0
 15  1  1  0  0  0  0
 16  7  1  0  0  0  0
 17 12  1  0  0  0  0
 18 13  2  0  0  0  0
 19  6  1  0  0  0  0
 19  8  1  0  0  0  0
 20 16  1  0  0  0  0
 21 22  1  0  0  0  0
 21 27  1  0  0  0  0
 21 25  1  0  0  0  0
 22 25  1  0  0  0  0
 23 21  1  0  0  0  0
 24 27  1  0  0  0  0
 26 23  1  0  0  0  0
 26 24  1  0  0  0  0
 27 28  1  0  0  0  0
 29 30  2  0  0  0  0
 30 23  1  0  0  0  0
 31  5  1  0  0  0  0
 32 31  1  0  0  0  0
M  END
>  <MODEL>
3

>  <REMARK>
 VINA RESULT:      -4.7      3.002      4.762
  Name = 
  3 active torsions:
  status: ('A' for Active; 'I' for Inactive)
    1  A    between atoms: C_6  and  C_13
    2  A    between atoms: C_15  and  C_26
    3  A    between atoms: N_16  and  C_27
                            x       y       z     vdW  Elec       q    Type
                         _______ _______ _______ _____ _____    ______ ____

>  <TORSDO>
F 3

$$$$
=
 OpenBabel11062408203D

 32 38  0  0  1  0  0  0  0  0999 V2000
  161.4600  208.0050  148.1990 C   0  0  0  0  0  0  0  0  0  0  0  0
  161.3690  206.7590  150.3030 C   0  0  1  0  0  3  0  0  0  0  0  0
  162.4420  207.7640  147.3210 C   0  0  0  0  0  3  0  0  0  0  0  0
  160.7820  206.8820  148.9130 C   0  0  2  0  0  3  0  0  0  0  0  0
  161.6450  204.8250  151.9650 C   0  0  2  0  0  3  0  0  0  0  0  0
  161.1070  209.3700  154.7020 C   0  0  0  0  0  2  0  0  0  0  0  0
  160.9940  208.0570  151.0750 C   0  0  2  0  0  3  0  0  0  0  0  0
  161.5320  207.1710  154.8510 C   0  0  0  0  0  2  0  0  0  0  0  0
  161.2660  206.8710  153.3740 C   0  0  2  0  0  3  0  0  0  0  0  0
  160.8310  205.5390  148.2040 C   0  0  2  0  0  3  0  0  0  0  0  0
  162.2690  205.8280  152.9250 C   0  0  0  0  0  2  0  0  0  0  0  0
  160.6650  204.2560  149.4760 S   0  0  0  0  0  0  0  0  0  0  0  0
  162.0850  205.3410  147.3930 C   0  0  0  0  0  3  0  0  0  0  0  0
  161.5810  209.2870  150.3380 C   0  0  0  0  0  2  0  0  0  0  0  0
  161.2240  209.3450  148.8330 C   0  0  1  0  0  3  0  0  0  0  0  0
  161.4660  208.1470  152.5410 C   0  0  2  0  0  3  0  0  0  0  0  0
  160.7880  205.4570  150.8580 C   0  0  2  0  0  3  0  0  0  0  0  0
  162.7970  206.3810  146.9500 C   0  0  0  0  0  3  0  0  0  0  0  0
  160.6710  208.1820  155.3070 O   0  0  0  0  0  0  0  0  0  0  0  0
  160.7690  209.3380  153.2140 C   0  0  0  0  0  2  0  0  0  0  0  0
  161.4190  212.7180  148.6130 C   0  0  1  0  0  0  0  0  0  0  0  0
  160.7470  213.4730  149.6820 C   0  0  0  0  0  2  0  0  0  0  0  0
  160.6730  212.4950  147.3410 C   0  0  2  0  0  3  0  0  0  0  0  0
  161.8460  210.4640  148.1020 N   0  0  1  0  0  0  0  0  0  0  0  0
  161.8350  214.0160  148.9530 O   0  0  0  0  0  0  0  0  0  0  0  0
  160.8420  210.9900  147.1550 C   0  0  0  0  0  2  0  0  0  0  0  0
  162.2610  211.5460  149.0070 C   0  0  1  0  0  3  0  0  0  0  0  0
  163.7340  211.8480  148.7830 C   0  0  0  0  0  1  0  0  0  0  0  0
  162.4890  212.9540  145.9030 O   0  0  0  0  0  0  0  0  0  0  0  0
  161.3360  213.2160  146.2100 C   0  0  0  0  0  3  0  0  0  0  0  0
  160.8310  203.8110  152.7570 C   0  0  0  0  0  2  0  0  0  0  0  0
  160.8580  202.4640  152.0620 C   0  0  0  0  0  1  0  0  0  0  0  0
  1 15  1  0  0  0  0
  1  4  1  0  0  0  0
  2 17  1  0  0  0  0
  2  7  1  0  0  0  0
  3  1  2  0  0  0  0
  4  2  1  0  0  0  0
  5 31  1  0  0  0  0
  5 11  1  0  0  0  0
  6 19  1  0  0  0  0
  7 16  1  0  0  0  0
  8 19  1  0  0  0  0
  9  8  1  0  0  0  0
 10  4  1  0  0  0  0
 10 12  1  0  0  0  0
 11  9  1  0  0  0  0
 12 17  1  0  0  0  0
 13 10  1  0  0  0  0
 14  7  1  0  0  0  0
 15 14  1  0  0  0  0
 16 20  1  0  0  0  0
 16  9  1  0  0  0  0
 17  5  1  0  0  0  0
 18  3  1  0  0  0  0
 18 13  2  0  0  0  0
 20  6  1  0  0  0  0
 21 25  1  0  0  0  0
 21 27  1  0  0  0  0
 21 22  1  0  0  0  0
 23 21  1  0  0  0  0
 24 15  1  0  0  0  0
 24 27  1  0  0  0  0
 25 22  1  0  0  0  0
 26 23  1  0  0  0  0
 26 24  1  0  0  0  0
 28 27  1  0  0  0  0
 29 30  2  0  0  0  0
 30 23  1  0  0  0  0
 32 31  1  0  0  0  0
M  END
>  <MODEL>
4

>  <REMARK>
 VINA RESULT:      -4.6      2.272      4.530
  Name = 
  3 active torsions:
  status: ('A' for Active; 'I' for Inactive)
    1  A    between atoms: C_6  and  C_13
    2  A    between atoms: C_15  and  C_26
    3  A    between atoms: N_16  and  C_27
                            x       y       z     vdW  Elec       q    Type
                         _______ _______ _______ _____ _____    ______ ____

>  <TORSDO>
F 3

$$$$
