=
 OpenBabel11052423173D

 27 30  0  0  1  0  0  0  0  0999 V2000
  161.7770  205.8140  149.7870 C   0  0  1  0  0  3  0  0  0  0  0  0
  161.9530  206.9830  150.7680 C   0  0  1  0  0  3  0  0  0  0  0  0
  161.7490  210.3670  153.2900 C   0  0  0  0  0  3  0  0  0  0  0  0
  161.4140  211.3160  155.4830 O   0  0  0  0  0  1  0  0  0  0  0  0
  161.8880  208.3530  150.0850 C   0  0  0  0  0  2  0  0  0  0  0  0
  160.6410  207.9530  154.1760 C   0  0  0  0  0  3  0  0  0  0  0  0
  160.7480  209.0380  155.0510 C   0  0  0  0  0  3  0  0  0  0  0  0
  161.0950  208.0680  152.8580 C   0  0  0  0  0  0  0  0  0  0  0  0
  161.3040  210.2430  154.6100 C   0  0  0  0  0  0  0  0  0  0  0  0
  161.6360  209.2890  152.4090 C   0  0  0  0  0  0  0  0  0  0  0  0
  160.9450  206.9060  151.9190 C   0  0  0  0  0  2  0  0  0  0  0  0
  162.1140  209.4090  151.0670 N   0  0  0  0  0  2  0  0  0  0  0  0
  160.6760  202.0830  151.6310 C   0  0  0  0  0  3  0  0  0  0  0  0
  161.3890  204.5220  150.4500 C   0  0  0  0  0  0  0  0  0  0  0  0
  160.8600  203.4880  149.6680 C   0  0  0  0  0  3  0  0  0  0  0  0
  160.5040  202.2720  150.2560 C   0  0  0  0  0  3  0  0  0  0  0  0
  161.2050  203.1100  152.4170 C   0  0  0  0  0  3  0  0  0  0  0  0
  161.5620  204.3260  151.8290 C   0  0  0  0  0  3  0  0  0  0  0  0
  160.8350  206.1570  148.7260 N   0  0  0  0  0  2  0  0  0  0  0  0
  162.9650  204.9040  146.1190 C   0  0  0  0  0  3  0  0  0  0  0  0
  161.4700  205.7060  144.2840 C   0  0  0  0  0  0  0  0  0  0  0  0
  161.3530  205.5910  142.9060 O   0  0  0  0  0  1  0  0  0  0  0  0
  161.0070  205.7570  147.3640 C   0  0  0  0  0  0  0  0  0  0  0  0
  162.7790  205.3790  144.8880 C   0  0  0  0  0  3  0  0  0  0  0  0
  160.4170  206.1750  144.9660 C   0  0  0  0  0  3  0  0  0  0  0  0
  160.3300  206.4150  146.4220 C   0  0  0  0  0  3  0  0  0  0  0  0
  161.8370  204.5550  147.0310 C   0  0  0  0  0  2  0  0  0  0  0  0
  1 19  1  6  0  0  0
  1 14  1  0  0  0  0
  2  1  1  6  0  0  0
  2 11  1  0  0  0  0
  3  9  1  0  0  0  0
  5  2  1  0  0  0  0
  5 12  1  0  0  0  0
  6  7  1  0  0  0  0
  8  6  2  0  0  0  0
  9  7  2  0  0  0  0
  9  4  1  0  0  0  0
 10  8  1  0  0  0  0
 10  3  2  0  0  0  0
 11  8  1  0  0  0  0
 12 10  1  0  0  0  0
 13 17  1  0  0  0  0
 14 18  1  0  0  0  0
 15 16  1  0  0  0  0
 15 14  2  0  0  0  0
 16 13  2  0  0  0  0
 18 17  2  0  0  0  0
 20 27  1  0  0  0  0
 21 24  1  0  0  0  0
 21 25  2  0  0  0  0
 22 21  1  0  0  0  0
 23 19  1  0  0  0  0
 24 20  2  0  0  0  0
 25 26  1  0  0  0  0
 26 23  2  0  0  0  0
 27 23  1  0  0  0  0
M  END
>  <MODEL>
1

>  <REMARK>
 VINA RESULT:      -9.2      0.000      0.000
  Name = 
  4 active torsions:
  status: ('A' for Active; 'I' for Inactive)
    1  A    between atoms: N_1  and  C_15
    2  A    between atoms: N_1  and  C_18
    3  A    between atoms: C_2  and  C_15
    4  A    between atoms: C_9  and  C_15
                            x       y       z     vdW  Elec       q    Type
                         _______ _______ _______ _____ _____    ______ ____

>  <TORSDO>
F 4

$$$$
=
 OpenBabel11052423173D

 27 30  0  0  1  0  0  0  0  0999 V2000
  161.3610  205.4760  150.1250 C   0  0  1  0  0  3  0  0  0  0  0  0
  161.0510  206.2610  151.4090 C   0  0  1  0  0  3  0  0  0  0  0  0
  160.8640  208.7060  154.8500 C   0  0  0  0  0  3  0  0  0  0  0  0
  160.1430  210.7420  155.9250 O   0  0  0  0  0  1  0  0  0  0  0  0
  161.9650  205.8810  152.5790 C   0  0  0  0  0  2  0  0  0  0  0  0
  160.3390  209.8500  152.3490 C   0  0  0  0  0  3  0  0  0  0  0  0
  160.1140  210.5850  153.5170 C   0  0  0  0  0  3  0  0  0  0  0  0
  160.8200  208.5390  152.4270 C   0  0  0  0  0  0  0  0  0  0  0  0
  160.3730  210.0120  154.7670 C   0  0  0  0  0  0  0  0  0  0  0  0
  161.1000  207.9710  153.6850 C   0  0  0  0  0  0  0  0  0  0  0  0
  161.0880  207.7730  151.1650 C   0  0  0  0  0  2  0  0  0  0  0  0
  161.5790  206.6260  153.7730 N   0  0  0  0  0  2  0  0  0  0  0  0
  160.6700  201.2470  150.5310 C   0  0  0  0  0  3  0  0  0  0  0  0
  161.1190  203.9980  150.2450 C   0  0  0  0  0  0  0  0  0  0  0  0
  161.5970  203.3190  151.3720 C   0  0  0  0  0  3  0  0  0  0  0  0
  161.3740  201.9470  151.5150 C   0  0  0  0  0  3  0  0  0  0  0  0
  160.1880  201.9190  149.4050 C   0  0  0  0  0  3  0  0  0  0  0  0
  160.4110  203.2910  149.2610 C   0  0  0  0  0  3  0  0  0  0  0  0
  160.6370  206.0310  148.9850 N   0  0  0  0  0  2  0  0  0  0  0  0
  162.9910  205.0280  146.4640 C   0  0  0  0  0  3  0  0  0  0  0  0
  161.4970  205.6860  144.5710 C   0  0  0  0  0  0  0  0  0  0  0  0
  161.4490  205.5710  143.1890 O   0  0  0  0  0  1  0  0  0  0  0  0
  160.9050  205.6620  147.6300 C   0  0  0  0  0  0  0  0  0  0  0  0
  162.8070  205.4920  145.2280 C   0  0  0  0  0  3  0  0  0  0  0  0
  160.3740  206.0370  145.2110 C   0  0  0  0  0  3  0  0  0  0  0  0
  160.2030  206.2540  146.6630 C   0  0  0  0  0  3  0  0  0  0  0  0
  161.8690  204.5560  147.3270 C   0  0  0  0  0  2  0  0  0  0  0  0
  1 19  1  6  0  0  0
  1 14  1  0  0  0  0
  2  1  1  6  0  0  0
  2  5  1  0  0  0  0
  5 12  1  0  0  0  0
  6  8  2  0  0  0  0
  6  7  1  0  0  0  0
  7  9  2  0  0  0  0
  8 10  1  0  0  0  0
  9  3  1  0  0  0  0
  9  4  1  0  0  0  0
 10 12  1  0  0  0  0
 10  3  2  0  0  0  0
 11  2  1  0  0  0  0
 11  8  1  0  0  0  0
 13 16  1  0  0  0  0
 14 15  1  0  0  0  0
 15 16  2  0  0  0  0
 17 13  2  0  0  0  0
 18 17  1  0  0  0  0
 18 14  2  0  0  0  0
 20 27  1  0  0  0  0
 21 25  2  0  0  0  0
 21 24  1  0  0  0  0
 22 21  1  0  0  0  0
 23 19  1  0  0  0  0
 24 20  2  0  0  0  0
 25 26  1  0  0  0  0
 26 23  2  0  0  0  0
 27 23  1  0  0  0  0
M  END
>  <MODEL>
2

>  <REMARK>
 VINA RESULT:      -9.1      1.135      1.787
  Name = 
  4 active torsions:
  status: ('A' for Active; 'I' for Inactive)
    1  A    between atoms: N_1  and  C_15
    2  A    between atoms: N_1  and  C_18
    3  A    between atoms: C_2  and  C_15
    4  A    between atoms: C_9  and  C_15
                            x       y       z     vdW  Elec       q    Type
                         _______ _______ _______ _____ _____    ______ ____

>  <TORSDO>
F 4

$$$$
=
 OpenBabel11052423173D

 27 30  0  0  1  0  0  0  0  0999 V2000
  161.0140  207.4190  149.9730 C   0  0  1  0  0  3  0  0  0  0  0  0
  160.8920  206.2800  148.9490 C   0  0  1  0  0  3  0  0  0  0  0  0
  161.2530  203.0090  146.2990 C   0  0  0  0  0  3  0  0  0  0  0  0
  160.9130  200.6700  145.8150 O   0  0  0  0  0  1  0  0  0  0  0  0
  161.7870  206.4790  147.7220 C   0  0  0  0  0  2  0  0  0  0  0  0
  160.8000  202.5040  149.0160 C   0  0  0  0  0  3  0  0  0  0  0  0
  160.7480  201.4580  148.0890 C   0  0  0  0  0  3  0  0  0  0  0  0
  161.0710  203.8070  148.5860 C   0  0  0  0  0  0  0  0  0  0  0  0
  160.9710  201.7100  146.7320 C   0  0  0  0  0  0  0  0  0  0  0  0
  161.3160  204.0570  147.2220 C   0  0  0  0  0  0  0  0  0  0  0  0
  161.1560  204.9160  149.5940 C   0  0  0  0  0  2  0  0  0  0  0  0
  161.5800  205.3890  146.7730 N   0  0  0  0  0  2  0  0  0  0  0  0
  161.1280  206.1140  154.0740 C   0  0  0  0  0  3  0  0  0  0  0  0
  161.0680  206.9480  151.3990 C   0  0  0  0  0  0  0  0  0  0  0  0
  160.8080  207.8600  152.4280 C   0  0  0  0  0  3  0  0  0  0  0  0
  160.8390  207.4460  153.7620 C   0  0  0  0  0  3  0  0  0  0  0  0
  161.3850  205.1970  153.0510 C   0  0  0  0  0  3  0  0  0  0  0  0
  161.3550  205.6110  151.7170 C   0  0  0  0  0  3  0  0  0  0  0  0
  162.1520  208.2800  149.6670 N   0  0  0  0  0  2  0  0  0  0  0  0
  161.0190  211.2960  151.2530 C   0  0  0  0  0  3  0  0  0  0  0  0
  161.3130  212.6860  149.1970 C   0  0  0  0  0  0  0  0  0  0  0  0
  161.2680  214.0220  148.8230 O   0  0  0  0  0  1  0  0  0  0  0  0
  162.0850  209.7080  149.6880 C   0  0  0  0  0  0  0  0  0  0  0  0
  160.6560  212.3090  150.4670 C   0  0  0  0  0  3  0  0  0  0  0  0
  161.8820  211.8170  148.3510 C   0  0  0  0  0  3  0  0  0  0  0  0
  162.0070  210.3540  148.5240 C   0  0  0  0  0  3  0  0  0  0  0  0
  162.2160  210.4490  150.9820 C   0  0  0  0  0  2  0  0  0  0  0  0
  1 19  1  6  0  0  0
  1 14  1  0  0  0  0
  2 11  1  0  0  0  0
  2  1  1  1  0  0  0
  3  9  2  0  0  0  0
  3 10  1  0  0  0  0
  4  9  1  0  0  0  0
  5  2  1  0  0  0  0
  7  6  2  0  0  0  0
  8  6  1  0  0  0  0
  8 11  1  0  0  0  0
  9  7  1  0  0  0  0
 10  8  2  0  0  0  0
 12 10  1  0  0  0  0
 12  5  1  0  0  0  0
 14 18  2  0  0  0  0
 14 15  1  0  0  0  0
 15 16  2  0  0  0  0
 16 13  1  0  0  0  0
 17 13  2  0  0  0  0
 18 17  1  0  0  0  0
 19 23  1  0  0  0  0
 21 24  1  0  0  0  0
 22 21  1  0  0  0  0
 23 27  1  0  0  0  0
 24 20  2  0  0  0  0
 25 26  1  0  0  0  0
 25 21  2  0  0  0  0
 26 23  2  0  0  0  0
 27 20  1  0  0  0  0
M  END
>  <MODEL>
3

>  <REMARK>
 VINA RESULT:      -8.9      2.677      7.053
  Name = 
  4 active torsions:
  status: ('A' for Active; 'I' for Inactive)
    1  A    between atoms: N_1  and  C_15
    2  A    between atoms: N_1  and  C_18
    3  A    between atoms: C_2  and  C_15
    4  A    between atoms: C_9  and  C_15
                            x       y       z     vdW  Elec       q    Type
                         _______ _______ _______ _____ _____    ______ ____

>  <TORSDO>
F 4

$$$$
=
 OpenBabel11052423173D

 27 30  0  0  1  0  0  0  0  0999 V2000
  161.8770  207.1430  151.7460 C   0  0  1  0  0  3  0  0  0  0  0  0
  161.8750  205.6910  151.2430 C   0  0  1  0  0  3  0  0  0  0  0  0
  161.1450  201.7770  149.8290 C   0  0  0  0  0  3  0  0  0  0  0  0
  161.0400  200.2050  148.0020 O   0  0  0  0  0  1  0  0  0  0  0  0
  161.1900  204.7220  152.2110 C   0  0  0  0  0  2  0  0  0  0  0  0
  161.1620  203.8940  147.9970 C   0  0  0  0  0  3  0  0  0  0  0  0
  161.1010  202.5730  147.5420 C   0  0  0  0  0  3  0  0  0  0  0  0
  161.2230  204.1600  149.3680 C   0  0  0  0  0  0  0  0  0  0  0  0
  161.0950  201.5150  148.4570 C   0  0  0  0  0  0  0  0  0  0  0  0
  161.1970  203.0950  150.2900 C   0  0  0  0  0  0  0  0  0  0  0  0
  161.2570  205.5830  149.8450 C   0  0  0  0  0  2  0  0  0  0  0  0
  161.2730  203.3600  151.6930 N   0  0  0  0  0  2  0  0  0  0  0  0
  162.1090  210.1100  148.6350 C   0  0  0  0  0  3  0  0  0  0  0  0
  161.9480  208.1650  150.6460 C   0  0  0  0  0  0  0  0  0  0  0  0
  161.9680  209.5240  150.9800 C   0  0  0  0  0  3  0  0  0  0  0  0
  162.0470  210.4940  149.9780 C   0  0  0  0  0  3  0  0  0  0  0  0
  162.0930  208.7540  148.2950 C   0  0  0  0  0  3  0  0  0  0  0  0
  162.0130  207.7840  149.2970 C   0  0  0  0  0  3  0  0  0  0  0  0
  160.7340  207.3970  152.6180 N   0  0  0  0  0  2  0  0  0  0  0  0
  160.0970  207.5120  156.1510 C   0  0  0  0  0  3  0  0  0  0  0  0
  160.3790  209.9910  156.2900 C   0  0  0  0  0  0  0  0  0  0  0  0
  160.4590  210.9810  157.2590 O   0  0  0  0  0  1  0  0  0  0  0  0
  160.8360  208.0900  153.8640 C   0  0  0  0  0  0  0  0  0  0  0  0
  159.7910  208.6930  156.6850 C   0  0  0  0  0  3  0  0  0  0  0  0
  160.7690  210.2980  155.0460 C   0  0  0  0  0  3  0  0  0  0  0  0
  160.7370  209.4200  153.8570 C   0  0  0  0  0  3  0  0  0  0  0  0
  161.1610  207.3400  155.1190 C   0  0  0  0  0  2  0  0  0  0  0  0
  1 19  1  6  0  0  0
  2  1  1  1  0  0  0
  2  5  1  0  0  0  0
  3 10  1  0  0  0  0
  4  9  1  0  0  0  0
  6  8  1  0  0  0  0
  7  6  2  0  0  0  0
  7  9  1  0  0  0  0
  8 11  1  0  0  0  0
  8 10  2  0  0  0  0
  9  3  2  0  0  0  0
 10 12  1  0  0  0  0
 11  2  1  0  0  0  0
 12  5  1  0  0  0  0
 13 16  1  0  0  0  0
 14 15  1  0  0  0  0
 14  1  1  0  0  0  0
 16 15  2  0  0  0  0
 17 13  2  0  0  0  0
 17 18  1  0  0  0  0
 18 14  2  0  0  0  0
 19 23  1  0  0  0  0
 20 24  2  0  0  0  0
 21 24  1  0  0  0  0
 21 22  1  0  0  0  0
 23 27  1  0  0  0  0
 25 21  2  0  0  0  0
 26 23  2  0  0  0  0
 26 25  1  0  0  0  0
 27 20  1  0  0  0  0
M  END
>  <MODEL>
4

>  <REMARK>
 VINA RESULT:      -8.9      2.533      8.466
  Name = 
  4 active torsions:
  status: ('A' for Active; 'I' for Inactive)
    1  A    between atoms: N_1  and  C_15
    2  A    between atoms: N_1  and  C_18
    3  A    between atoms: C_2  and  C_15
    4  A    between atoms: C_9  and  C_15
                            x       y       z     vdW  Elec       q    Type
                         _______ _______ _______ _____ _____    ______ ____

>  <TORSDO>
F 4

$$$$
=
 OpenBabel11052423173D

 27 30  0  0  1  0  0  0  0  0999 V2000
  161.6260  209.3950  149.2190 C   0  0  1  0  0  3  0  0  0  0  0  0
  161.7370  209.4240  150.7510 C   0  0  1  0  0  3  0  0  0  0  0  0
  161.3120  209.5140  154.9540 C   0  0  0  0  0  3  0  0  0  0  0  0
  161.2520  208.3550  157.0690 O   0  0  0  0  0  1  0  0  0  0  0  0
  161.2110  210.7240  151.3660 C   0  0  0  0  0  2  0  0  0  0  0  0
  161.0100  207.0720  153.6170 C   0  0  0  0  0  3  0  0  0  0  0  0
  161.0520  207.1060  155.0150 C   0  0  0  0  0  3  0  0  0  0  0  0
  161.1270  208.2570  152.8840 C   0  0  0  0  0  0  0  0  0  0  0  0
  161.2060  208.3250  155.6830 C   0  0  0  0  0  0  0  0  0  0  0  0
  161.2610  209.4870  153.5580 C   0  0  0  0  0  0  0  0  0  0  0  0
  161.0490  208.2100  151.3860 C   0  0  0  0  0  2  0  0  0  0  0  0
  161.3960  210.7000  152.8130 N   0  0  0  0  0  2  0  0  0  0  0  0
  162.4320  213.1890  147.3520 C   0  0  0  0  0  3  0  0  0  0  0  0
  161.9280  210.7140  148.5650 C   0  0  0  0  0  0  0  0  0  0  0  0
  160.9060  211.3880  147.8870 C   0  0  0  0  0  3  0  0  0  0  0  0
  161.1560  212.6220  147.2820 C   0  0  0  0  0  3  0  0  0  0  0  0
  163.4560  212.5230  148.0300 C   0  0  0  0  0  3  0  0  0  0  0  0
  163.2060  211.2890  148.6350 C   0  0  0  0  0  3  0  0  0  0  0  0
  162.4530  208.3330  148.6540 N   0  0  0  0  0  2  0  0  0  0  0  0
  160.8320  205.1930  149.2980 C   0  0  0  0  0  3  0  0  0  0  0  0
  161.5610  204.1820  147.1330 C   0  0  0  0  0  0  0  0  0  0  0  0
  161.3300  203.0370  146.3830 O   0  0  0  0  0  1  0  0  0  0  0  0
  161.9200  207.1000  148.1630 C   0  0  0  0  0  0  0  0  0  0  0  0
  161.2050  204.1440  148.5670 C   0  0  0  0  0  3  0  0  0  0  0  0
  162.1580  205.2170  146.5280 C   0  0  0  0  0  3  0  0  0  0  0  0
  162.5330  206.5110  147.1350 C   0  0  0  0  0  3  0  0  0  0  0  0
  160.6420  206.5560  148.7220 C   0  0  0  0  0  2  0  0  0  0  0  0
  1 19  1  6  0  0  0
  2  1  1  6  0  0  0
  2  5  1  0  0  0  0
  2 11  1  0  0  0  0
  3  9  1  0  0  0  0
  5 12  1  0  0  0  0
  6  7  1  0  0  0  0
  7  9  2  0  0  0  0
  8 10  1  0  0  0  0
  8  6  2  0  0  0  0
  9  4  1  0  0  0  0
 10  3  2  0  0  0  0
 11  8  1  0  0  0  0
 12 10  1  0  0  0  0
 13 17  1  0  0  0  0
 14 18  1  0  0  0  0
 14  1  1  0  0  0  0
 15 14  2  0  0  0  0
 16 13  2  0  0  0  0
 16 15  1  0  0  0  0
 17 18  2  0  0  0  0
 21 24  1  0  0  0  0
 22 21  1  0  0  0  0
 23 19  1  0  0  0  0
 23 27  1  0  0  0  0
 24 20  2  0  0  0  0
 25 21  2  0  0  0  0
 25 26  1  0  0  0  0
 26 23  2  0  0  0  0
 27 20  1  0  0  0  0
M  END
>  <MODEL>
5

>  <REMARK>
 VINA RESULT:      -8.5      2.632      5.076
  Name = 
  4 active torsions:
  status: ('A' for Active; 'I' for Inactive)
    1  A    between atoms: N_1  and  C_15
    2  A    between atoms: N_1  and  C_18
    3  A    between atoms: C_2  and  C_15
    4  A    between atoms: C_9  and  C_15
                            x       y       z     vdW  Elec       q    Type
                         _______ _______ _______ _____ _____    ______ ____

>  <TORSDO>
F 4

$$$$
=
 OpenBabel11052423173D

 27 30  0  0  1  0  0  0  0  0999 V2000
  160.8350  205.3110  148.6090 C   0  0  1  0  0  3  0  0  0  0  0  0
  161.3600  206.4220  149.5310 C   0  0  1  0  0  3  0  0  0  0  0  0
  162.1270  209.7520  152.0170 C   0  0  0  0  0  3  0  0  0  0  0  0
  162.3320  210.7030  154.2240 O   0  0  0  0  0  1  0  0  0  0  0  0
  161.3880  207.7970  148.8570 C   0  0  0  0  0  2  0  0  0  0  0  0
  160.8310  207.5220  153.1070 C   0  0  0  0  0  3  0  0  0  0  0  0
  161.2560  208.5620  153.9390 C   0  0  0  0  0  3  0  0  0  0  0  0
  161.0590  207.5890  151.7290 C   0  0  0  0  0  0  0  0  0  0  0  0
  161.9060  209.6750  153.3950 C   0  0  0  0  0  0  0  0  0  0  0  0
  161.6950  208.7200  151.1800 C   0  0  0  0  0  0  0  0  0  0  0  0
  160.5700  206.4810  150.8430 C   0  0  0  0  0  2  0  0  0  0  0  0
  161.9440  208.7890  149.7730 N   0  0  0  0  0  2  0  0  0  0  0  0
  161.9040  205.8280  144.4710 C   0  0  0  0  0  3  0  0  0  0  0  0
  161.1920  205.5060  147.1630 C   0  0  0  0  0  0  0  0  0  0  0  0
  162.5130  205.2920  146.7520 C   0  0  0  0  0  3  0  0  0  0  0  0
  162.8690  205.4530  145.4100 C   0  0  0  0  0  3  0  0  0  0  0  0
  160.5820  206.0410  144.8740 C   0  0  0  0  0  3  0  0  0  0  0  0
  160.2260  205.8790  146.2150 C   0  0  0  0  0  3  0  0  0  0  0  0
  161.2630  203.9960  149.0770 N   0  0  0  0  0  2  0  0  0  0  0  0
  161.3730  200.4080  148.9460 C   0  0  0  0  0  3  0  0  0  0  0  0
  161.0390  200.3220  146.4710 C   0  0  0  0  0  0  0  0  0  0  0  0
  160.8050  199.3800  145.4800 O   0  0  0  0  0  1  0  0  0  0  0  0
  160.9700  202.7810  148.3830 C   0  0  0  0  0  0  0  0  0  0  0  0
  161.5810  199.8410  147.7590 C   0  0  0  0  0  3  0  0  0  0  0  0
  160.8320  201.6120  146.1720 C   0  0  0  0  0  3  0  0  0  0  0  0
  161.0500  202.7790  147.0510 C   0  0  0  0  0  3  0  0  0  0  0  0
  160.4750  201.5850  149.1340 C   0  0  0  0  0  2  0  0  0  0  0  0
  1 19  1  1  0  0  0
  2  1  1  6  0  0  0
  2 11  1  0  0  0  0
  3  9  1  0  0  0  0
  5  2  1  0  0  0  0
  5 12  1  0  0  0  0
  6  7  1  0  0  0  0
  8  6  2  0  0  0  0
  9  7  2  0  0  0  0
  9  4  1  0  0  0  0
 10  8  1  0  0  0  0
 10  3  2  0  0  0  0
 11  8  1  0  0  0  0
 12 10  1  0  0  0  0
 13 17  2  0  0  0  0
 13 16  1  0  0  0  0
 14  1  1  0  0  0  0
 15 14  1  0  0  0  0
 16 15  2  0  0  0  0
 17 18  1  0  0  0  0
 18 14  2  0  0  0  0
 20 27  1  0  0  0  0
 21 24  1  0  0  0  0
 22 21  1  0  0  0  0
 23 19  1  0  0  0  0
 23 27  1  0  0  0  0
 24 20  2  0  0  0  0
 25 21  2  0  0  0  0
 25 26  1  0  0  0  0
 26 23  2  0  0  0  0
M  END
>  <MODEL>
6

>  <REMARK>
 VINA RESULT:      -8.5      2.135      4.194
  Name = 
  4 active torsions:
  status: ('A' for Active; 'I' for Inactive)
    1  A    between atoms: N_1  and  C_15
    2  A    between atoms: N_1  and  C_18
    3  A    between atoms: C_2  and  C_15
    4  A    between atoms: C_9  and  C_15
                            x       y       z     vdW  Elec       q    Type
                         _______ _______ _______ _____ _____    ______ ____

>  <TORSDO>
F 4

$$$$
=
 OpenBabel11052423173D

 27 30  0  0  1  0  0  0  0  0999 V2000
  161.2420  207.2840  150.8430 C   0  0  1  0  0  3  0  0  0  0  0  0
  161.3230  205.8670  150.2530 C   0  0  1  0  0  3  0  0  0  0  0  0
  160.8550  202.0870  148.4240 C   0  0  0  0  0  3  0  0  0  0  0  0
  161.1720  200.6380  146.5210 O   0  0  0  0  0  1  0  0  0  0  0  0
  160.3810  204.8750  150.9440 C   0  0  0  0  0  2  0  0  0  0  0  0
  161.4100  204.3090  146.8120 C   0  0  0  0  0  3  0  0  0  0  0  0
  161.4260  203.0230  146.2630 C   0  0  0  0  0  3  0  0  0  0  0  0
  161.1260  204.4880  148.1700 C   0  0  0  0  0  0  0  0  0  0  0  0
  161.1510  201.9130  147.0680 C   0  0  0  0  0  0  0  0  0  0  0  0
  160.8290  203.3710  148.9750 C   0  0  0  0  0  0  0  0  0  0  0  0
  161.0810  205.8760  148.7400 C   0  0  0  0  0  2  0  0  0  0  0  0
  160.5510  203.5460  150.3670 N   0  0  0  0  0  2  0  0  0  0  0  0
  160.8900  207.3970  155.1320 C   0  0  0  0  0  3  0  0  0  0  0  0
  161.1370  207.3110  152.3420 C   0  0  0  0  0  0  0  0  0  0  0  0
  160.5180  208.4020  152.9610 C   0  0  0  0  0  3  0  0  0  0  0  0
  160.3960  208.4470  154.3530 C   0  0  0  0  0  3  0  0  0  0  0  0
  161.5070  206.3020  154.5190 C   0  0  0  0  0  3  0  0  0  0  0  0
  161.6290  206.2580  153.1280 C   0  0  0  0  0  3  0  0  0  0  0  0
  162.3570  208.1060  150.3850 N   0  0  0  0  0  2  0  0  0  0  0  0
  161.0870  211.3390  151.3000 C   0  0  0  0  0  3  0  0  0  0  0  0
  161.3790  212.2880  149.0060 C   0  0  0  0  0  0  0  0  0  0  0  0
  161.2970  213.5150  148.3650 O   0  0  0  0  0  1  0  0  0  0  0  0
  162.2410  209.5050  150.1110 C   0  0  0  0  0  0  0  0  0  0  0  0
  160.7080  212.1540  150.3160 C   0  0  0  0  0  3  0  0  0  0  0  0
  161.9950  211.2860  148.3660 C   0  0  0  0  0  3  0  0  0  0  0  0
  162.1670  209.8950  148.8370 C   0  0  0  0  0  3  0  0  0  0  0  0
  162.3180  210.5000  151.2270 C   0  0  0  0  0  2  0  0  0  0  0  0
  1 19  1  1  0  0  0
  1 14  1  0  0  0  0
  2  1  1  1  0  0  0
  2  5  1  0  0  0  0
  3 10  1  0  0  0  0
  4  9  1  0  0  0  0
  6  8  1  0  0  0  0
  7  6  2  0  0  0  0
  7  9  1  0  0  0  0
  8 11  1  0  0  0  0
  8 10  2  0  0  0  0
  9  3  2  0  0  0  0
 10 12  1  0  0  0  0
 11  2  1  0  0  0  0
 12  5  1  0  0  0  0
 14 15  2  0  0  0  0
 14 18  1  0  0  0  0
 15 16  1  0  0  0  0
 16 13  2  0  0  0  0
 17 13  1  0  0  0  0
 18 17  2  0  0  0  0
 21 24  1  0  0  0  0
 22 21  1  0  0  0  0
 23 19  1  0  0  0  0
 23 27  1  0  0  0  0
 24 20  2  0  0  0  0
 25 26  1  0  0  0  0
 25 21  2  0  0  0  0
 26 23  2  0  0  0  0
 27 20  1  0  0  0  0
M  END
>  <MODEL>
7

>  <REMARK>
 VINA RESULT:      -8.4      2.651      7.111
  Name = 
  4 active torsions:
  status: ('A' for Active; 'I' for Inactive)
    1  A    between atoms: N_1  and  C_15
    2  A    between atoms: N_1  and  C_18
    3  A    between atoms: C_2  and  C_15
    4  A    between atoms: C_9  and  C_15
                            x       y       z     vdW  Elec       q    Type
                         _______ _______ _______ _____ _____    ______ ____

>  <TORSDO>
F 4

$$$$
=
 OpenBabel11052423173D

 27 30  0  0  1  0  0  0  0  0999 V2000
  161.7100  208.5080  150.4580 C   0  0  1  0  0  3  0  0  0  0  0  0
  161.5190  207.3740  149.4390 C   0  0  1  0  0  3  0  0  0  0  0  0
  161.6400  204.0140  146.8790 C   0  0  0  0  0  3  0  0  0  0  0  0
  160.9930  201.7420  146.3880 O   0  0  0  0  0  1  0  0  0  0  0  0
  162.5570  207.3990  148.3120 C   0  0  0  0  0  2  0  0  0  0  0  0
  160.8350  203.6590  149.5380 C   0  0  0  0  0  3  0  0  0  0  0  0
  160.7170  202.6080  148.6230 C   0  0  0  0  0  3  0  0  0  0  0  0
  161.3480  204.8930  149.1250 C   0  0  0  0  0  0  0  0  0  0  0  0
  161.1170  202.7860  147.2940 C   0  0  0  0  0  0  0  0  0  0  0  0
  161.7690  205.0650  147.7920 C   0  0  0  0  0  0  0  0  0  0  0  0
  161.4990  206.0030  150.1240 C   0  0  0  0  0  2  0  0  0  0  0  0
  162.2820  206.3280  147.3600 N   0  0  0  0  0  2  0  0  0  0  0  0
  161.6220  212.4660  148.7690 C   0  0  0  0  0  3  0  0  0  0  0  0
  161.6760  209.8810  149.8480 C   0  0  0  0  0  0  0  0  0  0  0  0
  161.2440  210.9610  150.6260 C   0  0  0  0  0  3  0  0  0  0  0  0
  161.2160  212.2500  150.0890 C   0  0  0  0  0  3  0  0  0  0  0  0
  162.0570  211.3930  147.9870 C   0  0  0  0  0  3  0  0  0  0  0  0
  162.0860  210.1040  148.5250 C   0  0  0  0  0  3  0  0  0  0  0  0
  160.7460  208.4000  151.5490 N   0  0  0  0  0  2  0  0  0  0  0  0
  160.4130  206.9260  154.8070 C   0  0  0  0  0  3  0  0  0  0  0  0
  161.3760  208.9080  155.9860 C   0  0  0  0  0  0  0  0  0  0  0  0
  161.7930  209.2660  157.2600 O   0  0  0  0  0  1  0  0  0  0  0  0
  161.1220  208.3670  152.9280 C   0  0  0  0  0  0  0  0  0  0  0  0
  160.4820  207.7370  155.8620 C   0  0  0  0  0  3  0  0  0  0  0  0
  161.7490  209.6880  154.9620 C   0  0  0  0  0  3  0  0  0  0  0  0
  161.3930  209.5220  153.5370 C   0  0  0  0  0  3  0  0  0  0  0  0
  161.3140  207.0560  153.6250 C   0  0  0  0  0  2  0  0  0  0  0  0
  1 19  1  1  0  0  0
  2 11  1  0  0  0  0
  2  1  1  1  0  0  0
  3  9  2  0  0  0  0
  3 10  1  0  0  0  0
  4  9  1  0  0  0  0
  5  2  1  0  0  0  0
  7  6  2  0  0  0  0
  8  6  1  0  0  0  0
  8 11  1  0  0  0  0
  9  7  1  0  0  0  0
 10  8  2  0  0  0  0
 12 10  1  0  0  0  0
 12  5  1  0  0  0  0
 13 16  1  0  0  0  0
 14  1  1  0  0  0  0
 14 15  1  0  0  0  0
 16 15  2  0  0  0  0
 17 18  1  0  0  0  0
 17 13  2  0  0  0  0
 18 14  2  0  0  0  0
 19 23  1  0  0  0  0
 20 24  2  0  0  0  0
 21 22  1  0  0  0  0
 23 26  2  0  0  0  0
 23 27  1  0  0  0  0
 24 21  1  0  0  0  0
 25 21  2  0  0  0  0
 26 25  1  0  0  0  0
 27 20  1  0  0  0  0
M  END
>  <MODEL>
8

>  <REMARK>
 VINA RESULT:      -8.3      2.155      8.367
  Name = 
  4 active torsions:
  status: ('A' for Active; 'I' for Inactive)
    1  A    between atoms: N_1  and  C_15
    2  A    between atoms: N_1  and  C_18
    3  A    between atoms: C_2  and  C_15
    4  A    between atoms: C_9  and  C_15
                            x       y       z     vdW  Elec       q    Type
                         _______ _______ _______ _____ _____    ______ ____

>  <TORSDO>
F 4

$$$$
=
 OpenBabel11052423173D

 27 30  0  0  1  0  0  0  0  0999 V2000
  161.4320  205.7690  150.3900 C   0  0  1  0  0  3  0  0  0  0  0  0
  161.0320  206.5360  151.6590 C   0  0  1  0  0  3  0  0  0  0  0  0
  160.5990  208.9390  155.1080 C   0  0  0  0  0  3  0  0  0  0  0  0
  159.7920  210.9570  156.1560 O   0  0  0  0  0  1  0  0  0  0  0  0
  161.8700  206.1490  152.8820 C   0  0  0  0  0  2  0  0  0  0  0  0
  160.2310  210.1090  152.5910 C   0  0  0  0  0  3  0  0  0  0  0  0
  159.9220  210.8270  153.7500 C   0  0  0  0  0  3  0  0  0  0  0  0
  160.7160  208.8010  152.6860 C   0  0  0  0  0  0  0  0  0  0  0  0
  160.1040  210.2430  155.0080 C   0  0  0  0  0  0  0  0  0  0  0  0
  160.9180  208.2200  153.9530 C   0  0  0  0  0  0  0  0  0  0  0  0
  161.0730  208.0510  151.4350 C   0  0  0  0  0  2  0  0  0  0  0  0
  161.4000  206.8770  154.0570 N   0  0  0  0  0  2  0  0  0  0  0  0
  160.7350  201.5250  150.5680 C   0  0  0  0  0  3  0  0  0  0  0  0
  161.1870  204.2890  150.4740 C   0  0  0  0  0  0  0  0  0  0  0  0
  160.6090  203.6310  149.3820 C   0  0  0  0  0  3  0  0  0  0  0  0
  160.3830  202.2530  149.4280 C   0  0  0  0  0  3  0  0  0  0  0  0
  161.3150  202.1750  151.6610 C   0  0  0  0  0  3  0  0  0  0  0  0
  161.5410  203.5530  151.6150 C   0  0  0  0  0  3  0  0  0  0  0  0
  160.7870  206.3370  149.2100 N   0  0  0  0  0  2  0  0  0  0  0  0
  160.0940  205.9920  145.7030 C   0  0  0  0  0  3  0  0  0  0  0  0
  162.2690  204.8640  145.2130 C   0  0  0  0  0  0  0  0  0  0  0  0
  163.0080  204.4500  144.1140 O   0  0  0  0  0  1  0  0  0  0  0  0
  161.2610  206.1250  147.8770 C   0  0  0  0  0  0  0  0  0  0  0  0
  160.8280  205.1210  145.0110 C   0  0  0  0  0  3  0  0  0  0  0  0
  162.8910  204.9300  146.3970 C   0  0  0  0  0  3  0  0  0  0  0  0
  162.2980  205.3060  147.6980 C   0  0  0  0  0  3  0  0  0  0  0  0
  160.6730  206.8970  146.7370 C   0  0  0  0  0  2  0  0  0  0  0  0
  1 19  1  6  0  0  0
  1 14  1  0  0  0  0
  2  1  1  6  0  0  0
  2  5  1  0  0  0  0
  5 12  1  0  0  0  0
  6  8  2  0  0  0  0
  6  7  1  0  0  0  0
  7  9  2  0  0  0  0
  8 10  1  0  0  0  0
  9  3  1  0  0  0  0
  9  4  1  0  0  0  0
 10 12  1  0  0  0  0
 10  3  2  0  0  0  0
 11  2  1  0  0  0  0
 11  8  1  0  0  0  0
 13 17  1  0  0  0  0
 14 18  1  0  0  0  0
 15 16  1  0  0  0  0
 15 14  2  0  0  0  0
 16 13  2  0  0  0  0
 18 17  2  0  0  0  0
 20 27  1  0  0  0  0
 21 25  2  0  0  0  0
 22 21  1  0  0  0  0
 23 19  1  0  0  0  0
 24 21  1  0  0  0  0
 24 20  2  0  0  0  0
 25 26  1  0  0  0  0
 26 23  2  0  0  0  0
 27 23  1  0  0  0  0
M  END
>  <MODEL>
9

>  <REMARK>
 VINA RESULT:      -8.0      1.294      2.031
  Name = 
  4 active torsions:
  status: ('A' for Active; 'I' for Inactive)
    1  A    between atoms: N_1  and  C_15
    2  A    between atoms: N_1  and  C_18
    3  A    between atoms: C_2  and  C_15
    4  A    between atoms: C_9  and  C_15
                            x       y       z     vdW  Elec       q    Type
                         _______ _______ _______ _____ _____    ______ ____

>  <TORSDO>
F 4

$$$$
