=
 OpenBabel11052423003D

 28 31  0  0  1  0  0  0  0  0999 V2000
  161.2590  204.9390  149.8390 C   0  0  0  0  0  0  0  0  0  0  0  0
  160.7700  206.7970  154.3080 C   0  0  0  0  0  2  0  0  0  0  0  0
  162.0050  209.6730  149.3850 O   0  0  0  0  0  0  0  0  0  0  0  0
  160.4070  209.1120  153.3720 C   0  0  2  0  0  3  0  0  0  0  0  0
  162.2060  207.5540  152.4250 C   0  0  1  0  0  3  0  0  0  0  0  0
  159.9300  208.8510  155.5580 C   0  0  2  0  0  3  0  0  0  0  0  0
  160.8000  207.6590  153.0350 C   0  0  1  0  0  3  0  0  0  0  0  0
  160.9160  210.1080  152.3350 C   0  0  0  0  0  2  0  0  0  0  0  0
  160.8440  209.4470  154.6630 O   0  0  0  0  0  0  0  0  0  0  0  0
  161.5680  207.3460  149.5890 C   0  0  0  0  0  0  0  0  0  0  0  0
  162.4070  206.2220  151.6960 C   0  0  0  0  0  2  0  0  0  0  0  0
  162.3070  209.9850  152.1480 O   0  0  0  0  0  0  0  0  0  0  0  0
  160.5610  206.0540  147.7980 C   0  0  0  0  0  3  0  0  0  0  0  0
  162.0240  208.6470  150.1180 C   0  0  0  0  0  0  0  0  0  0  0  0
  160.9920  207.2760  148.3140 C   0  0  0  0  0  3  0  0  0  0  0  0
  160.3600  209.1340  156.9820 C   0  0  0  0  0  1  0  0  0  0  0  0
  159.7870  207.3280  155.3560 C   0  0  0  0  0  2  0  0  0  0  0  0
  162.5760  208.7460  151.5210 C   0  0  2  0  0  3  0  0  0  0  0  0
  160.7000  204.8910  148.5540 C   0  0  0  0  0  3  0  0  0  0  0  0
  161.6990  206.1730  150.3640 C   0  0  0  0  0  0  0  0  0  0  0  0
  161.4250  203.6620  150.6120 C   0  0  0  0  0  2  0  0  0  0  0  0
  160.2600  202.7310  150.4180 C   0  0  0  0  0  3  0  0  0  0  0  0
  160.3120  201.6140  149.6820 C   0  0  0  0  0  3  0  0  0  0  0  0
  161.5460  201.1850  148.9540 C   0  0  0  0  0  2  0  0  0  0  0  0
  161.1940  200.6600  147.5740 C   0  0  0  0  0  2  0  0  0  0  0  0
  160.8730  201.8150  146.6410 C   0  0  0  0  0  2  0  0  0  0  0  0
  159.7420  202.3560  144.6210 F   0  0  0  0  0  0  0  0  0  0  0  0
  160.1960  201.2970  145.3870 C   0  0  0  0  0  2  0  0  0  0  0  0
  1 20  1  0  0  0  0
  1 21  1  0  0  0  0
  2 17  1  0  0  0  0
  3 14  2  0  0  0  0
  4  8  1  6  0  0  0
  4  9  1  0  0  0  0
  5 11  1  6  0  0  0
  5  7  1  0  0  0  0
  6 16  1  1  0  0  0
  7  4  1  0  0  0  0
  7  2  1  1  0  0  0
  9  6  1  0  0  0  0
 10 14  1  0  0  0  0
 10 20  2  0  0  0  0
 12  8  1  0  0  0  0
 13 15  2  0  0  0  0
 13 19  1  0  0  0  0
 15 10  1  0  0  0  0
 17  6  1  0  0  0  0
 18 14  1  6  0  0  0
 18 12  1  0  0  0  0
 18  5  1  0  0  0  0
 19  1  2  0  0  0  0
 20 11  1  0  0  0  0
 22 21  1  0  0  0  0
 23 22  2  0  0  0  0
 24 23  1  0  0  0  0
 25 24  1  0  0  0  0
 26 25  1  0  0  0  0
 27 28  1  0  0  0  0
 28 26  1  0  0  0  0
M  END
>  <MODEL>
1

>  <REMARK>
 VINA RESULT:      -8.8      0.000      0.000
  Name = 
  6 active torsions:
  status: ('A' for Active; 'I' for Inactive)
    1  A    between atoms: C_1  and  C_2
    2  A    between atoms: C_2  and  C_3
    3  A    between atoms: C_6  and  C_7
    4  A    between atoms: C_6  and  C_11
    5  A    between atoms: C_7  and  C_28
    6  A    between atoms: C_8  and  C_11
                            x       y       z     vdW  Elec       q    Type
                         _______ _______ _______ _____ _____    ______ ____

>  <TORSDO>
F 6

$$$$
=
 OpenBabel11052423003D

 28 31  0  0  1  0  0  0  0  0999 V2000
  160.9290  205.0870  150.7590 C   0  0  0  0  0  0  0  0  0  0  0  0
  160.4320  207.6380  154.8710 C   0  0  0  0  0  2  0  0  0  0  0  0
  162.0650  209.6280  149.6360 O   0  0  0  0  0  0  0  0  0  0  0  0
  160.2870  209.8030  153.5830 C   0  0  2  0  0  3  0  0  0  0  0  0
  161.9900  207.9910  152.9660 C   0  0  1  0  0  3  0  0  0  0  0  0
  159.7130  209.9150  155.7580 C   0  0  2  0  0  3  0  0  0  0  0  0
  160.5750  208.2900  153.4860 C   0  0  1  0  0  3  0  0  0  0  0  0
  160.9100  210.5880  152.4330 C   0  0  0  0  0  2  0  0  0  0  0  0
  160.7040  210.2990  154.8280 O   0  0  0  0  0  0  0  0  0  0  0  0
  161.4370  207.3980  150.1660 C   0  0  0  0  0  0  0  0  0  0  0  0
  162.1100  206.5520  152.4550 C   0  0  0  0  0  2  0  0  0  0  0  0
  162.2920  210.3360  152.3330 O   0  0  0  0  0  0  0  0  0  0  0  0
  160.3950  205.9250  148.5440 C   0  0  0  0  0  3  0  0  0  0  0  0
  161.9760  208.7280  150.5150 C   0  0  0  0  0  0  0  0  0  0  0  0
  160.9040  207.1760  148.8900 C   0  0  0  0  0  3  0  0  0  0  0  0
  160.1140  210.3800  157.1420 C   0  0  0  0  0  1  0  0  0  0  0  0
  159.4580  208.3930  155.7800 C   0  0  0  0  0  2  0  0  0  0  0  0
  162.4840  209.0000  151.9120 C   0  0  2  0  0  3  0  0  0  0  0  0
  160.4140  204.8840  149.4710 C   0  0  0  0  0  3  0  0  0  0  0  0
  161.4480  206.3510  151.1130 C   0  0  0  0  0  0  0  0  0  0  0  0
  160.9660  203.9340  151.7220 C   0  0  0  0  0  2  0  0  0  0  0  0
  161.9130  202.8560  151.2730 C   0  0  0  0  0  3  0  0  0  0  0  0
  161.5240  201.7260  150.6690 C   0  0  0  0  0  3  0  0  0  0  0  0
  160.0870  201.4100  150.3950 C   0  0  0  0  0  2  0  0  0  0  0  0
  159.8090  201.4540  148.9050 C   0  0  0  0  0  2  0  0  0  0  0  0
  161.1050  201.3160  148.1250 C   0  0  0  0  0  2  0  0  0  0  0  0
  161.6550  203.2520  146.8580 F   0  0  0  0  0  0  0  0  0  0  0  0
  160.9910  202.0390  146.7960 C   0  0  0  0  0  2  0  0  0  0  0  0
  1 20  1  0  0  0  0
  1 21  1  0  0  0  0
  2 17  1  0  0  0  0
  3 14  2  0  0  0  0
  4  8  1  6  0  0  0
  4  9  1  0  0  0  0
  5 11  1  6  0  0  0
  5  7  1  0  0  0  0
  6 17  1  0  0  0  0
  6 16  1  1  0  0  0
  7  4  1  0  0  0  0
  7  2  1  1  0  0  0
  9  6  1  0  0  0  0
 10 14  1  0  0  0  0
 10 20  2  0  0  0  0
 12  8  1  0  0  0  0
 13 15  2  0  0  0  0
 13 19  1  0  0  0  0
 15 10  1  0  0  0  0
 18 14  1  6  0  0  0
 18 12  1  0  0  0  0
 18  5  1  0  0  0  0
 19  1  2  0  0  0  0
 20 11  1  0  0  0  0
 22 21  1  0  0  0  0
 23 22  2  0  0  0  0
 24 23  1  0  0  0  0
 25 24  1  0  0  0  0
 26 25  1  0  0  0  0
 28 27  1  0  0  0  0
 28 26  1  0  0  0  0
M  END
>  <MODEL>
2

>  <REMARK>
 VINA RESULT:      -8.0      1.034      1.262
  Name = 
  6 active torsions:
  status: ('A' for Active; 'I' for Inactive)
    1  A    between atoms: C_1  and  C_2
    2  A    between atoms: C_2  and  C_3
    3  A    between atoms: C_6  and  C_7
    4  A    between atoms: C_6  and  C_11
    5  A    between atoms: C_7  and  C_28
    6  A    between atoms: C_8  and  C_11
                            x       y       z     vdW  Elec       q    Type
                         _______ _______ _______ _____ _____    ______ ____

>  <TORSDO>
F 6

$$$$
=
 OpenBabel11052423003D

 28 31  0  0  1  0  0  0  0  0999 V2000
  161.4420  205.2150  150.3570 C   0  0  0  0  0  0  0  0  0  0  0  0
  160.7380  207.6450  154.5120 C   0  0  0  0  0  2  0  0  0  0  0  0
  161.8360  209.8800  149.2380 O   0  0  0  0  0  0  0  0  0  0  0  0
  160.2170  209.7690  153.2540 C   0  0  2  0  0  3  0  0  0  0  0  0
  162.1450  208.2360  152.5500 C   0  0  1  0  0  3  0  0  0  0  0  0
  159.7230  209.7840  155.4510 C   0  0  2  0  0  3  0  0  0  0  0  0
  160.7240  208.3170  153.1300 C   0  0  1  0  0  3  0  0  0  0  0  0
  160.6670  210.6430  152.0890 C   0  0  0  0  0  2  0  0  0  0  0  0
  160.6050  210.3160  154.4860 O   0  0  0  0  0  0  0  0  0  0  0  0
  161.5720  207.5790  149.7680 C   0  0  0  0  0  0  0  0  0  0  0  0
  162.4580  206.8330  152.0200 C   0  0  0  0  0  2  0  0  0  0  0  0
  162.0660  210.6030  151.9300 O   0  0  0  0  0  0  0  0  0  0  0  0
  160.6970  205.9730  148.1740 C   0  0  0  0  0  3  0  0  0  0  0  0
  161.9200  208.9730  150.1090 C   0  0  0  0  0  0  0  0  0  0  0  0
  161.0260  207.2850  148.5130 C   0  0  0  0  0  3  0  0  0  0  0  0
  160.1070  210.2980  156.8230 C   0  0  0  0  0  1  0  0  0  0  0  0
  159.7000  208.2410  155.4680 C   0  0  0  0  0  2  0  0  0  0  0  0
  162.4390  209.3120  151.4880 C   0  0  2  0  0  3  0  0  0  0  0  0
  160.9100  204.9420  149.0900 C   0  0  0  0  0  3  0  0  0  0  0  0
  161.7790  206.5410  150.7030 C   0  0  0  0  0  0  0  0  0  0  0  0
  161.6900  204.0770  151.3060 C   0  0  0  0  0  2  0  0  0  0  0  0
  160.5070  203.1530  151.3990 C   0  0  0  0  0  3  0  0  0  0  0  0
  160.4620  201.9420  150.8310 C   0  0  0  0  0  3  0  0  0  0  0  0
  161.5900  201.3870  150.0210 C   0  0  0  0  0  2  0  0  0  0  0  0
  161.0600  200.6600  148.7990 C   0  0  0  0  0  2  0  0  0  0  0  0
  160.8830  201.6320  147.6460 C   0  0  0  0  0  2  0  0  0  0  0  0
  161.5560  199.6320  146.5500 F   0  0  0  0  0  0  0  0  0  0  0  0
  161.0880  200.9150  146.3250 C   0  0  0  0  0  2  0  0  0  0  0  0
  1 20  1  0  0  0  0
  1 21  1  0  0  0  0
  2 17  1  0  0  0  0
  3 14  2  0  0  0  0
  4  8  1  6  0  0  0
  4  9  1  0  0  0  0
  5 11  1  6  0  0  0
  5  7  1  0  0  0  0
  6 17  1  0  0  0  0
  6 16  1  1  0  0  0
  7  4  1  0  0  0  0
  7  2  1  1  0  0  0
  9  6  1  0  0  0  0
 10 14  1  0  0  0  0
 10 20  2  0  0  0  0
 12  8  1  0  0  0  0
 13 15  2  0  0  0  0
 13 19  1  0  0  0  0
 15 10  1  0  0  0  0
 18 14  1  6  0  0  0
 18 12  1  0  0  0  0
 18  5  1  0  0  0  0
 19  1  2  0  0  0  0
 20 11  1  0  0  0  0
 21 22  1  0  0  0  0
 23 22  2  0  0  0  0
 24 23  1  0  0  0  0
 25 24  1  0  0  0  0
 26 25  1  0  0  0  0
 28 27  1  0  0  0  0
 28 26  1  0  0  0  0
M  END
>  <MODEL>
3

>  <REMARK>
 VINA RESULT:      -7.8      1.048      1.082
  Name = 
  6 active torsions:
  status: ('A' for Active; 'I' for Inactive)
    1  A    between atoms: C_1  and  C_2
    2  A    between atoms: C_2  and  C_3
    3  A    between atoms: C_6  and  C_7
    4  A    between atoms: C_6  and  C_11
    5  A    between atoms: C_7  and  C_28
    6  A    between atoms: C_8  and  C_11
                            x       y       z     vdW  Elec       q    Type
                         _______ _______ _______ _____ _____    ______ ____

>  <TORSDO>
F 6

$$$$
=
 OpenBabel11052423003D

 28 31  0  0  1  0  0  0  0  0999 V2000
  160.7090  210.2750  152.4730 C   0  0  0  0  0  0  0  0  0  0  0  0
  161.3020  207.4030  148.5930 C   0  0  0  0  0  2  0  0  0  0  0  0
  161.4630  205.8510  154.2130 O   0  0  0  0  0  0  0  0  0  0  0  0
  160.7990  205.3440  149.9620 C   0  0  2  0  0  3  0  0  0  0  0  0
  162.2920  207.2200  150.8650 C   0  0  1  0  0  3  0  0  0  0  0  0
  160.8250  205.0540  147.7290 C   0  0  2  0  0  3  0  0  0  0  0  0
  161.0650  206.8630  150.0120 C   0  0  1  0  0  3  0  0  0  0  0  0
  161.0860  204.6600  151.2950 C   0  0  0  0  0  2  0  0  0  0  0  0
  161.5280  204.7570  148.9170 O   0  0  0  0  0  0  0  0  0  0  0  0
  161.0190  208.0240  153.3610 C   0  0  0  0  0  0  0  0  0  0  0  0
  162.2850  208.6960  151.2740 C   0  0  0  0  0  2  0  0  0  0  0  0
  162.3940  204.9350  151.7390 O   0  0  0  0  0  0  0  0  0  0  0  0
  159.5960  209.6080  154.5250 C   0  0  0  0  0  3  0  0  0  0  0  0
  161.6190  206.6780  153.2740 C   0  0  0  0  0  0  0  0  0  0  0  0
  160.1670  208.3400  154.4270 C   0  0  0  0  0  3  0  0  0  0  0  0
  161.5760  204.4860  146.5430 C   0  0  0  0  0  1  0  0  0  0  0  0
  160.5980  206.5660  147.5190 C   0  0  0  0  0  2  0  0  0  0  0  0
  162.4790  206.3030  152.0890 C   0  0  2  0  0  3  0  0  0  0  0  0
  159.8720  210.5730  153.5560 C   0  0  0  0  0  3  0  0  0  0  0  0
  161.2920  208.9930  152.3710 C   0  0  0  0  0  0  0  0  0  0  0  0
  161.0120  211.3490  151.4670 C   0  0  0  0  0  2  0  0  0  0  0  0
  160.0050  212.4650  151.5150 C   0  0  0  0  0  3  0  0  0  0  0  0
  159.9320  213.4420  150.6030 C   0  0  0  0  0  3  0  0  0  0  0  0
  160.8700  213.5340  149.4410 C   0  0  0  0  0  2  0  0  0  0  0  0
  160.1470  213.2070  148.1480 C   0  0  0  0  0  2  0  0  0  0  0  0
  160.9500  212.2040  147.3380 C   0  0  0  0  0  2  0  0  0  0  0  0
  162.2950  210.6470  148.5290 F   0  0  0  0  0  0  0  0  0  0  0  0
  162.2790  211.9320  148.0170 C   0  0  0  0  0  2  0  0  0  0  0  0
  1 19  1  0  0  0  0
  4  7  1  0  0  0  0
  4  8  1  1  0  0  0
  5 11  1  1  0  0  0
  5 18  1  0  0  0  0
  6 16  1  6  0  0  0
  6  9  1  0  0  0  0
  7  2  1  6  0  0  0
  7  5  1  0  0  0  0
  8 12  1  0  0  0  0
  9  4  1  0  0  0  0
 10 15  2  0  0  0  0
 11 20  1  0  0  0  0
 14 10  1  0  0  0  0
 14  3  2  0  0  0  0
 15 13  1  0  0  0  0
 17  6  1  0  0  0  0
 17  2  1  0  0  0  0
 18 12  1  6  0  0  0
 18 14  1  0  0  0  0
 19 13  2  0  0  0  0
 20  1  2  0  0  0  0
 20 10  1  0  0  0  0
 21 22  1  0  0  0  0
 21  1  1  0  0  0  0
 23 22  2  0  0  0  0
 24 23  1  0  0  0  0
 25 24  1  0  0  0  0
 26 28  1  0  0  0  0
 26 25  1  0  0  0  0
 28 27  1  0  0  0  0
M  END
>  <MODEL>
4

>  <REMARK>
 VINA RESULT:      -7.3      3.182      7.725
  Name = 
  6 active torsions:
  status: ('A' for Active; 'I' for Inactive)
    1  A    between atoms: C_1  and  C_2
    2  A    between atoms: C_2  and  C_3
    3  A    between atoms: C_6  and  C_7
    4  A    between atoms: C_6  and  C_11
    5  A    between atoms: C_7  and  C_28
    6  A    between atoms: C_8  and  C_11
                            x       y       z     vdW  Elec       q    Type
                         _______ _______ _______ _____ _____    ______ ____

>  <TORSDO>
F 6

$$$$
=
 OpenBabel11052423003D

 28 31  0  0  1  0  0  0  0  0999 V2000
  160.9430  204.5910  152.3150 C   0  0  0  0  0  0  0  0  0  0  0  0
  161.5840  204.1830  147.5100 C   0  0  0  0  0  2  0  0  0  0  0  0
  161.6250  209.0710  150.6930 O   0  0  0  0  0  0  0  0  0  0  0  0
  162.6710  206.4580  147.4000 C   0  0  2  0  0  3  0  0  0  0  0  0
  160.5810  206.0410  148.8230 C   0  0  1  0  0  3  0  0  0  0  0  0
  162.8760  205.1830  145.5560 C   0  0  2  0  0  3  0  0  0  0  0  0
  161.9050  205.4640  148.2980 C   0  0  1  0  0  3  0  0  0  0  0  0
  162.5530  207.8960  147.8940 C   0  0  0  0  0  2  0  0  0  0  0  0
  162.2460  206.3370  146.0680 O   0  0  0  0  0  0  0  0  0  0  0  0
  161.3590  206.8570  151.5110 C   0  0  0  0  0  0  0  0  0  0  0  0
  160.0660  205.2580  150.0340 C   0  0  0  0  0  2  0  0  0  0  0  0
  161.2050  208.2770  148.0440 O   0  0  0  0  0  0  0  0  0  0  0  0
  162.0920  206.1960  153.7280 C   0  0  0  0  0  3  0  0  0  0  0  0
  161.2540  207.8890  150.4610 C   0  0  0  0  0  0  0  0  0  0  0  0
  161.9900  207.1590  152.7240 C   0  0  0  0  0  3  0  0  0  0  0  0
  162.4320  204.9590  144.1250 C   0  0  0  0  0  1  0  0  0  0  0  0
  162.5910  203.9140  146.3880 C   0  0  0  0  0  2  0  0  0  0  0  0
  160.6430  207.5510  149.1200 C   0  0  2  0  0  3  0  0  0  0  0  0
  161.5650  204.9210  153.5260 C   0  0  0  0  0  3  0  0  0  0  0  0
  160.8340  205.5630  151.2970 C   0  0  0  0  0  0  0  0  0  0  0  0
  160.3560  203.2190  152.1450 C   0  0  0  0  0  2  0  0  0  0  0  0
  161.3700  202.2320  151.6350 C   0  0  0  0  0  3  0  0  0  0  0  0
  161.2060  201.5000  150.5270 C   0  0  0  0  0  3  0  0  0  0  0  0
  159.9720  201.5760  149.6840 C   0  0  0  0  0  2  0  0  0  0  0  0
  160.3150  201.3720  148.2200 C   0  0  0  0  0  2  0  0  0  0  0  0
  161.5650  200.5190  148.0890 C   0  0  0  0  0  2  0  0  0  0  0  0
  160.8340  200.5380  145.8270 F   0  0  0  0  0  0  0  0  0  0  0  0
  161.5750  199.8160  146.7450 C   0  0  0  0  0  2  0  0  0  0  0  0
  1 19  1  0  0  0  0
  4  8  1  1  0  0  0
  4  7  1  0  0  0  0
  5 18  1  0  0  0  0
  5 11  1  1  0  0  0
  6 16  1  6  0  0  0
  6  9  1  0  0  0  0
  6 17  1  0  0  0  0
  7  2  1  6  0  0  0
  7  5  1  0  0  0  0
  8 12  1  0  0  0  0
  9  4  1  0  0  0  0
 10 15  2  0  0  0  0
 11 20  1  0  0  0  0
 14  3  2  0  0  0  0
 14 10  1  0  0  0  0
 15 13  1  0  0  0  0
 17  2  1  0  0  0  0
 18 12  1  6  0  0  0
 18 14  1  0  0  0  0
 19 13  2  0  0  0  0
 20 10  1  0  0  0  0
 20  1  2  0  0  0  0
 21  1  1  0  0  0  0
 22 21  1  0  0  0  0
 23 22  2  0  0  0  0
 24 23  1  0  0  0  0
 25 24  1  0  0  0  0
 26 25  1  0  0  0  0
 27 28  1  0  0  0  0
 28 26  1  0  0  0  0
M  END
>  <MODEL>
5

>  <REMARK>
 VINA RESULT:      -6.4      2.108      5.475
  Name = 
  6 active torsions:
  status: ('A' for Active; 'I' for Inactive)
    1  A    between atoms: C_1  and  C_2
    2  A    between atoms: C_2  and  C_3
    3  A    between atoms: C_6  and  C_7
    4  A    between atoms: C_6  and  C_11
    5  A    between atoms: C_7  and  C_28
    6  A    between atoms: C_8  and  C_11
                            x       y       z     vdW  Elec       q    Type
                         _______ _______ _______ _____ _____    ______ ____

>  <TORSDO>
F 6

$$$$
=
 OpenBabel11052423003D

 28 31  0  0  1  0  0  0  0  0999 V2000
  161.4570  205.1660  148.2270 C   0  0  0  0  0  0  0  0  0  0  0  0
  161.3680  206.1390  152.9930 C   0  0  0  0  0  2  0  0  0  0  0  0
  161.8160  209.9510  148.6010 O   0  0  0  0  0  0  0  0  0  0  0  0
  160.7380  208.5420  152.5530 C   0  0  2  0  0  3  0  0  0  0  0  0
  162.5180  207.3470  151.1500 C   0  0  1  0  0  3  0  0  0  0  0  0
  160.5390  207.8510  154.6870 C   0  0  2  0  0  3  0  0  0  0  0  0
  161.1890  207.2140  151.9100 C   0  0  1  0  0  3  0  0  0  0  0  0
  161.0520  209.7490  151.6760 C   0  0  0  0  0  2  0  0  0  0  0  0
  161.2990  208.6780  153.8320 O   0  0  0  0  0  0  0  0  0  0  0  0
  161.5680  207.5960  148.4060 C   0  0  0  0  0  0  0  0  0  0  0  0
  162.7240  206.1910  150.1670 C   0  0  0  0  0  2  0  0  0  0  0  0
  162.4170  209.7870  151.3280 O   0  0  0  0  0  0  0  0  0  0  0  0
  160.4500  206.5620  146.5160 C   0  0  0  0  0  3  0  0  0  0  0  0
  161.9910  208.8160  149.1210 C   0  0  0  0  0  0  0  0  0  0  0  0
  160.8530  207.7050  147.2060 C   0  0  0  0  0  3  0  0  0  0  0  0
  161.1130  207.9110  156.0870 C   0  0  0  0  0  1  0  0  0  0  0  0
  160.4790  206.3820  154.2170 C   0  0  0  0  0  2  0  0  0  0  0  0
  162.6960  208.7110  150.4540 C   0  0  2  0  0  3  0  0  0  0  0  0
  160.7570  205.2990  147.0210 C   0  0  0  0  0  3  0  0  0  0  0  0
  161.8700  206.3190  148.9280 C   0  0  0  0  0  0  0  0  0  0  0  0
  161.8000  203.7900  148.7250 C   0  0  0  0  0  2  0  0  0  0  0  0
  161.2430  202.7140  147.8340 C   0  0  0  0  0  3  0  0  0  0  0  0
  160.4500  201.7260  148.2660 C   0  0  0  0  0  3  0  0  0  0  0  0
  160.0490  201.5800  149.7010 C   0  0  0  0  0  2  0  0  0  0  0  0
  161.2020  201.0330  150.5210 C   0  0  0  0  0  2  0  0  0  0  0  0
  161.6230  202.0440  151.5730 C   0  0  0  0  0  2  0  0  0  0  0  0
  160.2580  203.9500  151.1770 F   0  0  0  0  0  0  0  0  0  0  0  0
  160.4260  202.8630  152.0170 C   0  0  0  0  0  2  0  0  0  0  0  0
  1 21  1  0  0  0  0
  1 20  1  0  0  0  0
  2 17  1  0  0  0  0
  3 14  2  0  0  0  0
  4  8  1  6  0  0  0
  4  9  1  0  0  0  0
  5 11  1  6  0  0  0
  5  7  1  0  0  0  0
  6 16  1  1  0  0  0
  7  4  1  0  0  0  0
  7  2  1  1  0  0  0
  9  6  1  0  0  0  0
 10 20  2  0  0  0  0
 10 14  1  0  0  0  0
 12  8  1  0  0  0  0
 13 19  1  0  0  0  0
 13 15  2  0  0  0  0
 15 10  1  0  0  0  0
 17  6  1  0  0  0  0
 18 14  1  6  0  0  0
 18  5  1  0  0  0  0
 18 12  1  0  0  0  0
 19  1  2  0  0  0  0
 20 11  1  0  0  0  0
 22 23  2  0  0  0  0
 22 21  1  0  0  0  0
 23 24  1  0  0  0  0
 24 25  1  0  0  0  0
 25 26  1  0  0  0  0
 26 28  1  0  0  0  0
 27 28  1  0  0  0  0
M  END
>  <MODEL>
6

>  <REMARK>
 VINA RESULT:      -6.2      1.802      2.516
  Name = 
  6 active torsions:
  status: ('A' for Active; 'I' for Inactive)
    1  A    between atoms: C_1  and  C_2
    2  A    between atoms: C_2  and  C_3
    3  A    between atoms: C_6  and  C_7
    4  A    between atoms: C_6  and  C_11
    5  A    between atoms: C_7  and  C_28
    6  A    between atoms: C_8  and  C_11
                            x       y       z     vdW  Elec       q    Type
                         _______ _______ _______ _____ _____    ______ ____

>  <TORSDO>
F 6

$$$$
=
 OpenBabel11052423003D

 28 31  0  0  1  0  0  0  0  0999 V2000
  160.7020  202.4780  149.5420 C   0  0  0  0  0  0  0  0  0  0  0  0
  161.2210  207.1510  148.2940 C   0  0  0  0  0  2  0  0  0  0  0  0
  161.5160  204.8540  153.6480 O   0  0  0  0  0  0  0  0  0  0  0  0
  162.3900  207.6660  150.4710 C   0  0  2  0  0  3  0  0  0  0  0  0
  160.3180  206.1610  150.3880 C   0  0  1  0  0  3  0  0  0  0  0  0
  162.5060  209.2680  148.8920 C   0  0  2  0  0  3  0  0  0  0  0  0
  161.6070  206.6000  149.6760 C   0  0  1  0  0  3  0  0  0  0  0  0
  162.3380  207.4250  151.9750 C   0  0  0  0  0  2  0  0  0  0  0  0
  161.9310  208.9510  150.1410 O   0  0  0  0  0  0  0  0  0  0  0  0
  161.1850  203.6650  151.6180 C   0  0  0  0  0  0  0  0  0  0  0  0
  159.8000  204.8260  149.8450 C   0  0  0  0  0  2  0  0  0  0  0  0
  161.0090  207.3210  152.4310 O   0  0  0  0  0  0  0  0  0  0  0  0
  161.9420  201.3790  151.3160 C   0  0  0  0  0  3  0  0  0  0  0  0
  161.0960  204.8750  152.4600 C   0  0  0  0  0  0  0  0  0  0  0  0
  161.8530  202.5310  152.0970 C   0  0  0  0  0  3  0  0  0  0  0  0
  162.0230  210.6320  148.4460 C   0  0  0  0  0  1  0  0  0  0  0  0
  162.1920  208.2270  147.7970 C   0  0  0  0  0  2  0  0  0  0  0  0
  160.4440  206.1280  151.9230 C   0  0  2  0  0  3  0  0  0  0  0  0
  161.3630  201.3510  150.0480 C   0  0  0  0  0  3  0  0  0  0  0  0
  160.6080  203.6460  150.3300 C   0  0  0  0  0  0  0  0  0  0  0  0
  160.0600  202.4020  148.1860 C   0  0  0  0  0  2  0  0  0  0  0  0
  160.8360  201.5220  147.2450 C   0  0  0  0  0  3  0  0  0  0  0  0
  161.3320  201.9390  146.0740 C   0  0  0  0  0  3  0  0  0  0  0  0
  161.1450  203.3350  145.5680 C   0  0  0  0  0  2  0  0  0  0  0  0
  162.2300  204.2470  146.1090 C   0  0  0  0  0  2  0  0  0  0  0  0
  162.2990  205.5230  145.2890 C   0  0  0  0  0  2  0  0  0  0  0  0
  160.1240  206.4710  145.1400 F   0  0  0  0  0  0  0  0  0  0  0  0
  161.0360  205.6800  144.4640 C   0  0  0  0  0  2  0  0  0  0  0  0
  1 19  2  0  0  0  0
  1 20  1  0  0  0  0
  4  8  1  1  0  0  0
  5 11  1  6  0  0  0
  5 18  1  0  0  0  0
  6 16  1  6  0  0  0
  6  9  1  0  0  0  0
  7  2  1  6  0  0  0
  7  5  1  0  0  0  0
  7  4  1  0  0  0  0
  8 12  1  0  0  0  0
  9  4  1  0  0  0  0
 10 15  1  0  0  0  0
 10 14  1  0  0  0  0
 11 20  1  0  0  0  0
 13 15  2  0  0  0  0
 14  3  2  0  0  0  0
 17  2  1  0  0  0  0
 17  6  1  0  0  0  0
 18 12  1  6  0  0  0
 18 14  1  0  0  0  0
 19 13  1  0  0  0  0
 20 10  2  0  0  0  0
 21  1  1  0  0  0  0
 22 21  1  0  0  0  0
 23 22  2  0  0  0  0
 24 23  1  0  0  0  0
 24 25  1  0  0  0  0
 26 25  1  0  0  0  0
 28 27  1  0  0  0  0
 28 26  1  0  0  0  0
M  END
>  <MODEL>
7

>  <REMARK>
 VINA RESULT:      -6.1      2.294      4.768
  Name = 
  6 active torsions:
  status: ('A' for Active; 'I' for Inactive)
    1  A    between atoms: C_1  and  C_2
    2  A    between atoms: C_2  and  C_3
    3  A    between atoms: C_6  and  C_7
    4  A    between atoms: C_6  and  C_11
    5  A    between atoms: C_7  and  C_28
    6  A    between atoms: C_8  and  C_11
                            x       y       z     vdW  Elec       q    Type
                         _______ _______ _______ _____ _____    ______ ____

>  <TORSDO>
F 6

$$$$
