=
 OpenBabel11062409143D

 37 39  0  0  1  0  0  0  0  0999 V2000
  162.0380  209.2300  156.2990 C   0  0  0  0  0  2  0  0  0  0  0  0
  158.1720  211.0520  157.2010 C   0  0  0  0  0  2  0  0  0  0  0  0
  161.3980  208.9080  154.9350 C   0  0  2  0  0  3  0  0  0  0  0  0
  159.4190  210.4930  156.5130 C   0  0  2  0  0  3  0  0  0  0  0  0
  160.6670  211.1950  156.9640 C   0  0  0  0  0  3  0  0  0  0  0  0
  159.2840  210.4900  154.9720 C   0  0  1  0  0  3  0  0  0  0  0  0
  157.5570  212.3120  155.1370 C   0  0  0  0  0  2  0  0  0  0  0  0
  161.8750  210.6430  156.8180 C   0  0  0  0  0  0  0  0  0  0  0  0
  158.8450  211.8680  154.4590 C   0  0  0  0  0  2  0  0  0  0  0  0
  160.5980  210.0680  154.2850 C   0  0  2  0  0  3  0  0  0  0  0  0
  157.7820  212.4170  156.6400 C   0  0  1  0  0  3  0  0  0  0  0  0
  156.6120  212.8600  157.2600 O   0  0  0  0  0  0  0  0  0  0  0  0
  155.6230  211.9750  156.8310 C   0  0  0  0  0  1  0  0  0  0  0  0
  164.2200  211.3410  156.4980 C   0  0  0  0  0  1  0  0  0  0  0  0
  162.9890  211.3900  157.2050 O   0  0  0  0  0  0  0  0  0  0  0  0
  160.7680  207.5020  154.9930 C   0  0  1  0  0  3  0  0  0  0  0  0
  160.2210  206.9910  157.2610 O   0  0  0  0  0  1  0  0  0  0  0  0
  159.6630  207.2590  156.0120 C   0  0  0  0  0  2  0  0  0  0  0  0
  160.4240  206.9620  153.6100 C   0  0  0  0  0  2  0  0  0  0  0  0
  161.6650  206.6910  152.7740 C   0  0  0  0  0  2  0  0  0  0  0  0
  161.1630  204.3480  152.0570 C   0  0  0  0  0  3  0  0  0  0  0  0
  161.3650  205.6900  151.7150 C   0  0  0  0  0  0  0  0  0  0  0  0
  161.3060  206.0850  150.3750 C   0  0  0  0  0  3  0  0  0  0  0  0
  160.9750  205.5370  148.0490 O   0  0  0  0  0  1  0  0  0  0  0  0
  160.8300  203.8030  149.7200 C   0  0  0  0  0  3  0  0  0  0  0  0
  161.0370  205.1430  149.3780 C   0  0  0  0  0  0  0  0  0  0  0  0
  160.8940  203.4050  151.0600 C   0  0  0  0  0  3  0  0  0  0  0  0
  160.6140  210.1620  152.7470 C   0  0  1  0  0  3  0  0  0  0  0  0
  159.8200  211.3280  152.2420 C   0  0  0  0  0  0  0  0  0  0  0  0
  158.6330  211.2080  151.9770 O   0  0  0  0  0  0  0  0  0  0  0  0
  159.7820  213.4550  150.9870 C   0  0  0  0  0  1  0  0  0  0  0  0
  160.5000  212.6410  152.0480 C   0  0  0  0  0  2  0  0  0  0  0  0
  162.0000  210.1170  152.1200 C   0  0  0  0  0  2  0  0  0  0  0  0
  161.9060  209.7300  150.6580 C   0  0  0  0  0  2  0  0  0  0  0  0
  162.7730  210.6570  149.8350 C   0  0  0  0  0  2  0  0  0  0  0  0
  161.3670  211.9650  148.3280 C   0  0  0  0  0  2  0  0  0  0  0  0
  162.1300  210.8930  148.5130 C   0  0  0  0  0  3  0  0  0  0  0  0
  1  8  1  0  0  0  0
  3 16  1  1  0  0  0
  3  1  1  0  0  0  0
  4  5  1  6  0  0  0
  4  2  1  0  0  0  0
  6  9  1  6  0  0  0
  6  4  1  0  0  0  0
  7 11  1  0  0  0  0
  8  5  2  0  0  0  0
  8 15  1  0  0  0  0
  9  7  1  0  0  0  0
 10 28  1  6  0  0  0
 10  3  1  0  0  0  0
 10  6  1  0  0  0  0
 11  2  1  0  0  0  0
 11 12  1  1  0  0  0
 13 12  1  0  0  0  0
 14 15  1  0  0  0  0
 16 19  1  6  0  0  0
 16 18  1  0  0  0  0
 18 17  1  0  0  0  0
 20 19  1  0  0  0  0
 22 21  1  0  0  0  0
 22 20  1  0  0  0  0
 23 22  2  0  0  0  0
 24 26  1  0  0  0  0
 25 27  1  0  0  0  0
 26 25  2  0  0  0  0
 26 23  1  0  0  0  0
 27 21  2  0  0  0  0
 28 33  1  1  0  0  0
 29 28  1  0  0  0  0
 30 29  2  0  0  0  0
 31 32  1  0  0  0  0
 32 29  1  0  0  0  0
 34 33  1  0  0  0  0
 35 34  1  0  0  0  0
 36 37  2  0  0  0  0
 37 35  1  0  0  0  0
M  END
>  <MODEL>
1

>  <REMARK>
 VINA RESULT:      -5.0      0.000      0.000
  Name = 
  14 active torsions:
  status: ('A' for Active; 'I' for Inactive)
    1  A    between atoms: C_1  and  C_23
    2  A    between atoms: C_1  and  C_36
    3  A    between atoms: O_3  and  C_32
    4  A    between atoms: C_6  and  C_31
    5  A    between atoms: C_10  and  C_14
    6  A    between atoms: C_14  and  C_27
    7  A    between atoms: C_14  and  C_37
    8  A    between atoms: C_17  and  C_26
    9  A    between atoms: C_17  and  C_33
   10  A    between atoms: C_24  and  O_28
   11  A    between atoms: C_26  and  C_34
   12  A    between atoms: C_29  and  C_36
   13  A    between atoms: C_31  and  C_37
   14  A    between atoms: C_33  and  C_36
                            x       y       z     vdW  Elec       q    Type
                         _______ _______ _______ _____ _____    ______ ____

>  <TORSDO>
F 14

$$$$
=
 OpenBabel11062409143D

 37 39  0  0  1  0  0  0  0  0999 V2000
  162.3260  209.7590  152.6790 C   0  0  0  0  0  2  0  0  0  0  0  0
  158.2390  210.7100  153.8930 C   0  0  0  0  0  2  0  0  0  0  0  0
  161.8830  210.2960  151.3050 C   0  0  2  0  0  3  0  0  0  0  0  0
  159.6020  210.6590  153.2000 C   0  0  2  0  0  3  0  0  0  0  0  0
  160.7230  210.9640  154.1500 C   0  0  0  0  0  3  0  0  0  0  0  0
  159.6520  211.5580  151.9420 C   0  0  1  0  0  3  0  0  0  0  0  0
  157.7680  212.9400  152.8770 C   0  0  0  0  0  2  0  0  0  0  0  0
  161.9820  210.6010  153.8900 C   0  0  0  0  0  0  0  0  0  0  0  0
  159.1610  212.9760  152.2640 C   0  0  0  0  0  2  0  0  0  0  0  0
  161.0690  211.6180  151.3380 C   0  0  2  0  0  3  0  0  0  0  0  0
  157.8030  212.1450  154.1760 C   0  0  1  0  0  3  0  0  0  0  0  0
  156.5350  212.1420  154.7590 O   0  0  0  0  0  0  0  0  0  0  0  0
  156.0220  213.4150  154.5080 C   0  0  0  0  0  1  0  0  0  0  0  0
  162.8810  210.7040  156.1850 C   0  0  0  0  0  1  0  0  0  0  0  0
  162.9750  210.9800  154.7960 O   0  0  0  0  0  0  0  0  0  0  0  0
  161.3720  209.1230  150.4460 C   0  0  1  0  0  3  0  0  0  0  0  0
  161.4590  208.1320  148.2750 O   0  0  0  0  0  1  0  0  0  0  0  0
  162.2530  208.6440  149.3000 C   0  0  0  0  0  2  0  0  0  0  0  0
  160.8310  207.9760  151.2920 C   0  0  0  0  0  2  0  0  0  0  0  0
  161.9170  206.9830  151.6760 C   0  0  0  0  0  2  0  0  0  0  0  0
  161.1800  204.6920  152.3600 C   0  0  0  0  0  3  0  0  0  0  0  0
  161.4890  205.5980  151.3390 C   0  0  0  0  0  0  0  0  0  0  0  0
  161.4190  205.1940  150.0020 C   0  0  0  0  0  3  0  0  0  0  0  0
  160.9570  203.4890  148.3580 O   0  0  0  0  0  1  0  0  0  0  0  0
  160.7170  202.9850  150.7050 C   0  0  0  0  0  3  0  0  0  0  0  0
  161.0310  203.8890  149.6850 C   0  0  0  0  0  0  0  0  0  0  0  0
  160.7920  203.3860  152.0430 C   0  0  0  0  0  3  0  0  0  0  0  0
  161.2600  212.5940  150.1620 C   0  0  1  0  0  3  0  0  0  0  0  0
  161.5860  211.8830  148.8830 C   0  0  0  0  0  0  0  0  0  0  0  0
  160.7070  211.3510  148.2220 O   0  0  0  0  0  0  0  0  0  0  0  0
  163.3700  213.0660  147.6510 C   0  0  0  0  0  1  0  0  0  0  0  0
  163.0060  211.8160  148.4310 C   0  0  0  0  0  2  0  0  0  0  0  0
  160.1270  213.5930  149.9710 C   0  0  0  0  0  2  0  0  0  0  0  0
  160.3460  214.4040  148.7100 C   0  0  0  0  0  2  0  0  0  0  0  0
  159.0610  214.4530  147.9140 C   0  0  0  0  0  2  0  0  0  0  0  0
  156.7010  213.9460  148.2760 C   0  0  0  0  0  2  0  0  0  0  0  0
  157.9470  213.9090  148.7380 C   0  0  0  0  0  3  0  0  0  0  0  0
  1  8  1  0  0  0  0
  2 11  1  0  0  0  0
  3 16  1  1  0  0  0
  3 10  1  0  0  0  0
  3  1  1  0  0  0  0
  4  2  1  1  0  0  0
  4  5  1  0  0  0  0
  6  9  1  1  0  0  0
  6  4  1  0  0  0  0
  7 11  1  0  0  0  0
  8  5  2  0  0  0  0
  8 15  1  0  0  0  0
  9  7  1  0  0  0  0
 10 28  1  6  0  0  0
 10  6  1  0  0  0  0
 11 12  1  6  0  0  0
 13 12  1  0  0  0  0
 15 14  1  0  0  0  0
 16 18  1  1  0  0  0
 16 19  1  0  0  0  0
 17 18  1  0  0  0  0
 19 20  1  0  0  0  0
 22 20  1  0  0  0  0
 22 21  2  0  0  0  0
 23 22  1  0  0  0  0
 24 26  1  0  0  0  0
 25 27  2  0  0  0  0
 26 23  2  0  0  0  0
 26 25  1  0  0  0  0
 27 21  1  0  0  0  0
 28 33  1  6  0  0  0
 29 28  1  0  0  0  0
 30 29  2  0  0  0  0
 31 32  1  0  0  0  0
 32 29  1  0  0  0  0
 34 33  1  0  0  0  0
 35 34  1  0  0  0  0
 35 37  1  0  0  0  0
 36 37  2  0  0  0  0
M  END
>  <MODEL>
2

>  <REMARK>
 VINA RESULT:      -5.0      2.108      3.790
  Name = 
  14 active torsions:
  status: ('A' for Active; 'I' for Inactive)
    1  A    between atoms: C_1  and  C_23
    2  A    between atoms: C_1  and  C_36
    3  A    between atoms: O_3  and  C_32
    4  A    between atoms: C_6  and  C_31
    5  A    between atoms: C_10  and  C_14
    6  A    between atoms: C_14  and  C_27
    7  A    between atoms: C_14  and  C_37
    8  A    between atoms: C_17  and  C_26
    9  A    between atoms: C_17  and  C_33
   10  A    between atoms: C_24  and  O_28
   11  A    between atoms: C_26  and  C_34
   12  A    between atoms: C_29  and  C_36
   13  A    between atoms: C_31  and  C_37
   14  A    between atoms: C_33  and  C_36
                            x       y       z     vdW  Elec       q    Type
                         _______ _______ _______ _____ _____    ______ ____

>  <TORSDO>
F 14

$$$$
=
 OpenBabel11062409143D

 37 39  0  0  1  0  0  0  0  0999 V2000
  161.9330  210.4610  153.9340 C   0  0  0  0  0  2  0  0  0  0  0  0
  157.7530  210.0920  155.1480 C   0  0  0  0  0  2  0  0  0  0  0  0
  161.3490  211.0810  152.6510 C   0  0  2  0  0  3  0  0  0  0  0  0
  159.0740  210.5150  154.5010 C   0  0  2  0  0  3  0  0  0  0  0  0
  160.0840  210.9440  155.5250 C   0  0  0  0  0  3  0  0  0  0  0  0
  158.8710  211.5900  153.4080 C   0  0  1  0  0  3  0  0  0  0  0  0
  156.6980  212.2550  154.4880 C   0  0  0  0  0  2  0  0  0  0  0  0
  161.3910  210.9730  155.2530 C   0  0  0  0  0  0  0  0  0  0  0  0
  158.0250  212.7560  153.9370 C   0  0  0  0  0  2  0  0  0  0  0  0
  160.2150  212.1190  152.8690 C   0  0  2  0  0  3  0  0  0  0  0  0
  156.9560  211.2960  155.6440 C   0  0  1  0  0  3  0  0  0  0  0  0
  155.7400  210.8640  156.1750 O   0  0  0  0  0  0  0  0  0  0  0  0
  155.1810  210.0580  155.1820 C   0  0  0  0  0  1  0  0  0  0  0  0
  162.9870  210.5720  157.0910 C   0  0  0  0  0  1  0  0  0  0  0  0
  162.2580  211.4440  156.2410 O   0  0  0  0  0  0  0  0  0  0  0  0
  161.1590  209.9720  151.5970 C   0  0  1  0  0  3  0  0  0  0  0  0
  161.6230  209.4910  149.3050 O   0  0  0  0  0  1  0  0  0  0  0  0
  162.2220  209.8260  150.5180 C   0  0  0  0  0  2  0  0  0  0  0  0
  160.7660  208.6380  152.2220 C   0  0  0  0  0  2  0  0  0  0  0  0
  161.9000  207.6260  152.1730 C   0  0  0  0  0  2  0  0  0  0  0  0
  161.1140  206.3560  150.1660 C   0  0  0  0  0  3  0  0  0  0  0  0
  161.4380  206.3670  151.5270 C   0  0  0  0  0  0  0  0  0  0  0  0
  161.3070  205.1990  152.2860 C   0  0  0  0  0  3  0  0  0  0  0  0
  160.7330  202.8610  152.4350 O   0  0  0  0  0  1  0  0  0  0  0  0
  160.5400  204.0080  150.3220 C   0  0  0  0  0  3  0  0  0  0  0  0
  160.8600  204.0200  151.6830 C   0  0  0  0  0  0  0  0  0  0  0  0
  160.6660  205.1760  149.5630 C   0  0  0  0  0  3  0  0  0  0  0  0
  160.1290  213.2900  151.8720 C   0  0  1  0  0  3  0  0  0  0  0  0
  160.2260  212.8300  150.4490 C   0  0  0  0  0  0  0  0  0  0  0  0
  159.6390  211.8260  150.0740 O   0  0  0  0  0  0  0  0  0  0  0  0
  161.6770  212.6800  148.4560 C   0  0  0  0  0  1  0  0  0  0  0  0
  161.0650  213.6070  149.4900 C   0  0  0  0  0  2  0  0  0  0  0  0
  158.9400  214.2170  152.0790 C   0  0  0  0  0  2  0  0  0  0  0  0
  158.2190  214.4520  150.7670 C   0  0  0  0  0  2  0  0  0  0  0  0
  157.0800  213.4650  150.6360 C   0  0  0  0  0  2  0  0  0  0  0  0
  156.4960  214.1630  148.3700 C   0  0  0  0  0  2  0  0  0  0  0  0
  156.1070  213.9640  149.6260 C   0  0  0  0  0  3  0  0  0  0  0  0
  1  8  1  0  0  0  0
  2 11  1  0  0  0  0
  3 16  1  6  0  0  0
  3 10  1  0  0  0  0
  3  1  1  0  0  0  0
  4  2  1  1  0  0  0
  4  5  1  0  0  0  0
  6  9  1  1  0  0  0
  6  4  1  0  0  0  0
  7 11  1  0  0  0  0
  8  5  2  0  0  0  0
  8 15  1  0  0  0  0
  9  7  1  0  0  0  0
 10 28  1  6  0  0  0
 10  6  1  0  0  0  0
 11 12  1  6  0  0  0
 13 12  1  0  0  0  0
 15 14  1  0  0  0  0
 16 18  1  1  0  0  0
 16 19  1  0  0  0  0
 17 18  1  0  0  0  0
 20 19  1  0  0  0  0
 21 22  1  0  0  0  0
 22 20  1  0  0  0  0
 22 23  2  0  0  0  0
 25 26  2  0  0  0  0
 26 23  1  0  0  0  0
 26 24  1  0  0  0  0
 27 21  2  0  0  0  0
 27 25  1  0  0  0  0
 28 33  1  6  0  0  0
 29 28  1  0  0  0  0
 30 29  2  0  0  0  0
 31 32  1  0  0  0  0
 32 29  1  0  0  0  0
 34 33  1  0  0  0  0
 35 34  1  0  0  0  0
 36 37  2  0  0  0  0
 37 35  1  0  0  0  0
M  END
>  <MODEL>
3

>  <REMARK>
 VINA RESULT:      -3.7      1.955      3.575
  Name = 
  14 active torsions:
  status: ('A' for Active; 'I' for Inactive)
    1  A    between atoms: C_1  and  C_23
    2  A    between atoms: C_1  and  C_36
    3  A    between atoms: O_3  and  C_32
    4  A    between atoms: C_6  and  C_31
    5  A    between atoms: C_10  and  C_14
    6  A    between atoms: C_14  and  C_27
    7  A    between atoms: C_14  and  C_37
    8  A    between atoms: C_17  and  C_26
    9  A    between atoms: C_17  and  C_33
   10  A    between atoms: C_24  and  O_28
   11  A    between atoms: C_26  and  C_34
   12  A    between atoms: C_29  and  C_36
   13  A    between atoms: C_31  and  C_37
   14  A    between atoms: C_33  and  C_36
                            x       y       z     vdW  Elec       q    Type
                         _______ _______ _______ _____ _____    ______ ____

>  <TORSDO>
F 14

$$$$
=
 OpenBabel11062409143D

 37 39  0  0  1  0  0  0  0  0999 V2000
  160.8190  211.1160  151.6330 C   0  0  0  0  0  2  0  0  0  0  0  0
  160.4670  206.7630  151.5590 C   0  0  0  0  0  2  0  0  0  0  0  0
  160.5220  210.9640  153.1370 C   0  0  2  0  0  3  0  0  0  0  0  0
  160.6850  208.2230  151.9630 C   0  0  2  0  0  3  0  0  0  0  0  0
  161.7700  208.8690  151.1530 C   0  0  0  0  0  3  0  0  0  0  0  0
  160.9290  208.3780  153.4820 C   0  0  1  0  0  3  0  0  0  0  0  0
  161.6940  205.9830  153.5860 C   0  0  0  0  0  2  0  0  0  0  0  0
  161.8680  210.1970  151.0430 C   0  0  0  0  0  0  0  0  0  0  0  0
  162.0290  207.4200  153.9600 C   0  0  0  0  0  2  0  0  0  0  0  0
  161.2970  209.8280  153.8570 C   0  0  2  0  0  3  0  0  0  0  0  0
  161.5870  205.8620  152.0710 C   0  0  1  0  0  3  0  0  0  0  0  0
  161.3160  204.5370  151.7240 O   0  0  0  0  0  0  0  0  0  0  0  0
  160.4980  204.6220  150.5980 C   0  0  0  0  0  1  0  0  0  0  0  0
  162.7670  211.5260  149.1690 C   0  0  0  0  0  1  0  0  0  0  0  0
  162.9450  210.7190  150.3240 O   0  0  0  0  0  0  0  0  0  0  0  0
  159.0040  211.1000  153.3670 C   0  0  1  0  0  3  0  0  0  0  0  0
  157.4080  211.0890  155.1430 O   0  0  0  0  0  1  0  0  0  0  0  0
  158.5350  211.7520  154.6600 C   0  0  0  0  0  2  0  0  0  0  0  0
  158.2760  211.6380  152.1390 C   0  0  0  0  0  2  0  0  0  0  0  0
  158.3290  213.1560  152.0600 C   0  0  0  0  0  2  0  0  0  0  0  0
  156.8550  213.8070  150.1460 C   0  0  0  0  0  3  0  0  0  0  0  0
  158.1440  213.6040  150.6530 C   0  0  0  0  0  0  0  0  0  0  0  0
  159.2570  213.8010  149.8300 C   0  0  0  0  0  3  0  0  0  0  0  0
  160.1890  214.4080  147.6880 O   0  0  0  0  0  1  0  0  0  0  0  0
  157.7960  214.4170  147.9990 C   0  0  0  0  0  3  0  0  0  0  0  0
  159.0830  214.2090  148.5040 C   0  0  0  0  0  0  0  0  0  0  0  0
  156.6820  214.2150  148.8190 C   0  0  0  0  0  3  0  0  0  0  0  0
  161.6930  210.0640  155.3260 C   0  0  1  0  0  3  0  0  0  0  0  0
  161.4060  208.8730  156.1890 C   0  0  0  0  0  0  0  0  0  0  0  0
  162.3070  208.1300  156.5480 O   0  0  0  0  0  0  0  0  0  0  0  0
  159.6990  207.1100  156.4650 C   0  0  0  0  0  1  0  0  0  0  0  0
  159.9980  208.5920  156.5960 C   0  0  0  0  0  2  0  0  0  0  0  0
  163.1130  210.5720  155.5300 C   0  0  0  0  0  2  0  0  0  0  0  0
  163.4210  210.6980  157.0090 C   0  0  0  0  0  2  0  0  0  0  0  0
  164.1960  211.9730  157.2540 C   0  0  0  0  0  2  0  0  0  0  0  0
  166.5050  212.6770  156.8880 C   0  0  0  0  0  2  0  0  0  0  0  0
  165.4790  211.9260  156.5000 C   0  0  0  0  0  3  0  0  0  0  0  0
  1  3  1  0  0  0  0
  2  4  1  0  0  0  0
  2 11  1  0  0  0  0
  3 16  1  6  0  0  0
  3 10  1  0  0  0  0
  4  5  1  6  0  0  0
  4  6  1  0  0  0  0
  6 10  1  0  0  0  0
  6  9  1  6  0  0  0
  7  9  1  0  0  0  0
  8  5  2  0  0  0  0
  8  1  1  0  0  0  0
 10 28  1  1  0  0  0
 11 12  1  1  0  0  0
 11  7  1  0  0  0  0
 13 12  1  0  0  0  0
 14 15  1  0  0  0  0
 15  8  1  0  0  0  0
 16 19  1  6  0  0  0
 16 18  1  0  0  0  0
 18 17  1  0  0  0  0
 20 19  1  0  0  0  0
 21 22  1  0  0  0  0
 22 20  1  0  0  0  0
 23 22  2  0  0  0  0
 24 26  1  0  0  0  0
 25 26  2  0  0  0  0
 25 27  1  0  0  0  0
 26 23  1  0  0  0  0
 27 21  2  0  0  0  0
 28 33  1  6  0  0  0
 28 29  1  0  0  0  0
 29 30  2  0  0  0  0
 29 32  1  0  0  0  0
 31 32  1  0  0  0  0
 33 34  1  0  0  0  0
 34 35  1  0  0  0  0
 37 36  2  0  0  0  0
 37 35  1  0  0  0  0
M  END
>  <MODEL>
4

>  <REMARK>
 VINA RESULT:      -3.5      2.186      7.391
  Name = 
  14 active torsions:
  status: ('A' for Active; 'I' for Inactive)
    1  A    between atoms: C_1  and  C_23
    2  A    between atoms: C_1  and  C_36
    3  A    between atoms: O_3  and  C_32
    4  A    between atoms: C_6  and  C_31
    5  A    between atoms: C_10  and  C_14
    6  A    between atoms: C_14  and  C_27
    7  A    between atoms: C_14  and  C_37
    8  A    between atoms: C_17  and  C_26
    9  A    between atoms: C_17  and  C_33
   10  A    between atoms: C_24  and  O_28
   11  A    between atoms: C_26  and  C_34
   12  A    between atoms: C_29  and  C_36
   13  A    between atoms: C_31  and  C_37
   14  A    between atoms: C_33  and  C_36
                            x       y       z     vdW  Elec       q    Type
                         _______ _______ _______ _____ _____    ______ ____

>  <TORSDO>
F 14

$$$$
=
 OpenBabel11062409143D

 37 39  0  0  1  0  0  0  0  0999 V2000
  160.4860  211.4220  151.3770 C   0  0  0  0  0  2  0  0  0  0  0  0
  160.4460  207.0660  151.6920 C   0  0  0  0  0  2  0  0  0  0  0  0
  160.0480  211.3830  152.8540 C   0  0  2  0  0  3  0  0  0  0  0  0
  160.5190  208.5680  151.9720 C   0  0  2  0  0  3  0  0  0  0  0  0
  161.6350  209.2230  151.2100 C   0  0  0  0  0  3  0  0  0  0  0  0
  160.5960  208.8780  153.4850 C   0  0  1  0  0  3  0  0  0  0  0  0
  161.5110  206.5690  153.8930 C   0  0  0  0  0  2  0  0  0  0  0  0
  161.6510  210.5390  150.9820 C   0  0  0  0  0  0  0  0  0  0  0  0
  161.7060  208.0560  154.1560 C   0  0  0  0  0  2  0  0  0  0  0  0
  160.8230  210.3790  153.7510 C   0  0  2  0  0  3  0  0  0  0  0  0
  161.5680  206.3050  152.3940 C   0  0  1  0  0  3  0  0  0  0  0  0
  161.4270  204.9370  152.1530 O   0  0  0  0  0  0  0  0  0  0  0  0
  161.1250  204.8420  150.7940 C   0  0  0  0  0  1  0  0  0  0  0  0
  162.7190  211.4380  148.9480 C   0  0  0  0  0  1  0  0  0  0  0  0
  162.7560  211.0780  150.3210 O   0  0  0  0  0  0  0  0  0  0  0  0
  158.5090  211.4190  152.9250 C   0  0  1  0  0  3  0  0  0  0  0  0
  156.5110  211.1820  154.2110 O   0  0  0  0  0  1  0  0  0  0  0  0
  157.8350  210.7550  154.1180 C   0  0  0  0  0  2  0  0  0  0  0  0
  157.9460  212.8040  152.6250 C   0  0  0  0  0  2  0  0  0  0  0  0
  158.8270  213.5860  151.6630 C   0  0  0  0  0  2  0  0  0  0  0  0
  156.7350  213.8420  150.3160 C   0  0  0  0  0  3  0  0  0  0  0  0
  158.1320  213.7670  150.3600 C   0  0  0  0  0  0  0  0  0  0  0  0
  158.8730  213.8400  149.1760 C   0  0  0  0  0  3  0  0  0  0  0  0
  158.9560  214.0720  146.7760 O   0  0  0  0  0  1  0  0  0  0  0  0
  156.8250  214.0760  147.9060 C   0  0  0  0  0  3  0  0  0  0  0  0
  158.2200  213.9960  147.9500 C   0  0  0  0  0  0  0  0  0  0  0  0
  156.0820  213.9980  149.0890 C   0  0  0  0  0  3  0  0  0  0  0  0
  161.0500  210.7770  155.2210 C   0  0  1  0  0  3  0  0  0  0  0  0
  162.3930  210.3440  155.7250 C   0  0  0  0  0  0  0  0  0  0  0  0
  163.4160  210.8640  155.3050 O   0  0  0  0  0  0  0  0  0  0  0  0
  161.0870  208.9160  157.2590 C   0  0  0  0  0  1  0  0  0  0  0  0
  162.4720  209.2520  156.7380 C   0  0  0  0  0  2  0  0  0  0  0  0
  160.7830  212.2430  155.5340 C   0  0  0  0  0  2  0  0  0  0  0  0
  160.5780  212.4350  157.0240 C   0  0  0  0  0  2  0  0  0  0  0  0
  159.7460  213.6760  157.2610 C   0  0  0  0  0  2  0  0  0  0  0  0
  157.7410  214.2580  155.9950 C   0  0  0  0  0  2  0  0  0  0  0  0
  158.3430  213.4200  156.8330 C   0  0  0  0  0  3  0  0  0  0  0  0
  1  3  1  0  0  0  0
  2  4  1  0  0  0  0
  2 11  1  0  0  0  0
  3 16  1  6  0  0  0
  3 10  1  0  0  0  0
  4  5  1  6  0  0  0
  4  6  1  0  0  0  0
  6 10  1  0  0  0  0
  6  9  1  6  0  0  0
  7  9  1  0  0  0  0
  8  5  2  0  0  0  0
  8  1  1  0  0  0  0
 10 28  1  1  0  0  0
 11 12  1  1  0  0  0
 11  7  1  0  0  0  0
 13 12  1  0  0  0  0
 14 15  1  0  0  0  0
 15  8  1  0  0  0  0
 16 19  1  1  0  0  0
 16 18  1  0  0  0  0
 18 17  1  0  0  0  0
 20 19  1  0  0  0  0
 21 22  1  0  0  0  0
 22 20  1  0  0  0  0
 23 22  2  0  0  0  0
 24 26  1  0  0  0  0
 25 26  2  0  0  0  0
 25 27  1  0  0  0  0
 26 23  1  0  0  0  0
 27 21  2  0  0  0  0
 28 33  1  6  0  0  0
 28 29  1  0  0  0  0
 29 32  1  0  0  0  0
 30 29  2  0  0  0  0
 32 31  1  0  0  0  0
 33 34  1  0  0  0  0
 34 35  1  0  0  0  0
 36 37  2  0  0  0  0
 37 35  1  0  0  0  0
M  END
>  <MODEL>
5

>  <REMARK>
 VINA RESULT:      -3.5      2.329      7.384
  Name = 
  14 active torsions:
  status: ('A' for Active; 'I' for Inactive)
    1  A    between atoms: C_1  and  C_23
    2  A    between atoms: C_1  and  C_36
    3  A    between atoms: O_3  and  C_32
    4  A    between atoms: C_6  and  C_31
    5  A    between atoms: C_10  and  C_14
    6  A    between atoms: C_14  and  C_27
    7  A    between atoms: C_14  and  C_37
    8  A    between atoms: C_17  and  C_26
    9  A    between atoms: C_17  and  C_33
   10  A    between atoms: C_24  and  O_28
   11  A    between atoms: C_26  and  C_34
   12  A    between atoms: C_29  and  C_36
   13  A    between atoms: C_31  and  C_37
   14  A    between atoms: C_33  and  C_36
                            x       y       z     vdW  Elec       q    Type
                         _______ _______ _______ _____ _____    ______ ____

>  <TORSDO>
F 14

$$$$
=
 OpenBabel11062409143D

 37 39  0  0  1  0  0  0  0  0999 V2000
  161.8030  209.1450  155.6990 C   0  0  0  0  0  2  0  0  0  0  0  0
  158.0420  211.1610  154.7640 C   0  0  0  0  0  2  0  0  0  0  0  0
  161.7440  208.6800  154.2310 C   0  0  2  0  0  3  0  0  0  0  0  0
  159.4170  210.4920  154.7020 C   0  0  2  0  0  3  0  0  0  0  0  0
  160.4250  211.2100  155.5510 C   0  0  0  0  0  3  0  0  0  0  0  0
  159.9130  210.3090  153.2490 C   0  0  1  0  0  3  0  0  0  0  0  0
  158.4000  212.1820  152.5160 C   0  0  0  0  0  2  0  0  0  0  0  0
  161.5470  210.6140  155.9650 C   0  0  0  0  0  0  0  0  0  0  0  0
  159.8170  211.6280  152.4690 C   0  0  0  0  0  2  0  0  0  0  0  0
  161.3580  209.7750  153.2010 C   0  0  2  0  0  3  0  0  0  0  0  0
  158.0090  212.4590  153.9620 C   0  0  1  0  0  3  0  0  0  0  0  0
  156.7240  213.0020  154.0050 O   0  0  0  0  0  0  0  0  0  0  0  0
  156.3150  212.8500  155.3300 C   0  0  0  0  0  1  0  0  0  0  0  0
  163.8490  211.0720  156.7240 C   0  0  0  0  0  1  0  0  0  0  0  0
  162.4610  211.3720  156.6980 O   0  0  0  0  0  0  0  0  0  0  0  0
  161.0450  207.3080  154.1650 C   0  0  1  0  0  3  0  0  0  0  0  0
  159.4320  206.9770  155.8940 O   0  0  0  0  0  1  0  0  0  0  0  0
  159.5690  207.2430  154.5330 C   0  0  0  0  0  2  0  0  0  0  0  0
  161.3660  206.5540  152.8790 C   0  0  0  0  0  2  0  0  0  0  0  0
  161.4250  205.0500  153.0950 C   0  0  0  0  0  2  0  0  0  0  0  0
  161.0030  205.0630  150.6290 C   0  0  0  0  0  3  0  0  0  0  0  0
  161.2270  204.3370  151.8040 C   0  0  0  0  0  0  0  0  0  0  0  0
  161.2410  202.9380  151.7690 C   0  0  0  0  0  3  0  0  0  0  0  0
  161.0590  200.8790  150.5240 O   0  0  0  0  0  1  0  0  0  0  0  0
  160.8220  202.9930  149.3840 C   0  0  0  0  0  3  0  0  0  0  0  0
  161.0410  202.2670  150.5590 C   0  0  0  0  0  0  0  0  0  0  0  0
  160.8020  204.3910  149.4190 C   0  0  0  0  0  3  0  0  0  0  0  0
  161.9980  209.6860  151.8030 C   0  0  1  0  0  3  0  0  0  0  0  0
  161.9850  208.2880  151.2620 C   0  0  0  0  0  0  0  0  0  0  0  0
  162.8860  207.5060  151.5280 O   0  0  0  0  0  0  0  0  0  0  0  0
  161.3050  207.8680  148.9260 C   0  0  0  0  0  1  0  0  0  0  0  0
  160.8630  207.8610  150.3770 C   0  0  0  0  0  2  0  0  0  0  0  0
  161.4550  210.6810  150.7870 C   0  0  0  0  0  2  0  0  0  0  0  0
  162.5470  211.1040  149.8260 C   0  0  0  0  0  2  0  0  0  0  0  0
  161.9220  211.6800  148.5750 C   0  0  0  0  0  2  0  0  0  0  0  0
  161.7130  214.0910  148.2510 C   0  0  0  0  0  2  0  0  0  0  0  0
  161.3070  212.9980  148.8910 C   0  0  0  0  0  3  0  0  0  0  0  0
  1  8  1  0  0  0  0
  3 16  1  1  0  0  0
  3  1  1  0  0  0  0
  4  2  1  6  0  0  0
  4  5  1  0  0  0  0
  5  8  2  0  0  0  0
  6  9  1  1  0  0  0
  6  4  1  0  0  0  0
  7 11  1  0  0  0  0
  8 15  1  0  0  0  0
  9  7  1  0  0  0  0
 10 28  1  6  0  0  0
 10  6  1  0  0  0  0
 10  3  1  0  0  0  0
 11 12  1  6  0  0  0
 11  2  1  0  0  0  0
 12 13  1  0  0  0  0
 15 14  1  0  0  0  0
 16 19  1  6  0  0  0
 16 18  1  0  0  0  0
 18 17  1  0  0  0  0
 19 20  1  0  0  0  0
 21 22  1  0  0  0  0
 22 20  1  0  0  0  0
 23 22  2  0  0  0  0
 24 26  1  0  0  0  0
 25 27  1  0  0  0  0
 25 26  2  0  0  0  0
 26 23  1  0  0  0  0
 27 21  2  0  0  0  0
 28 33  1  6  0  0  0
 29 30  2  0  0  0  0
 29 28  1  0  0  0  0
 31 32  1  0  0  0  0
 32 29  1  0  0  0  0
 34 33  1  0  0  0  0
 35 37  1  0  0  0  0
 35 34  1  0  0  0  0
 36 37  2  0  0  0  0
M  END
>  <MODEL>
6

>  <REMARK>
 VINA RESULT:      -3.2      1.667      2.617
  Name = 
  14 active torsions:
  status: ('A' for Active; 'I' for Inactive)
    1  A    between atoms: C_1  and  C_23
    2  A    between atoms: C_1  and  C_36
    3  A    between atoms: O_3  and  C_32
    4  A    between atoms: C_6  and  C_31
    5  A    between atoms: C_10  and  C_14
    6  A    between atoms: C_14  and  C_27
    7  A    between atoms: C_14  and  C_37
    8  A    between atoms: C_17  and  C_26
    9  A    between atoms: C_17  and  C_33
   10  A    between atoms: C_24  and  O_28
   11  A    between atoms: C_26  and  C_34
   12  A    between atoms: C_29  and  C_36
   13  A    between atoms: C_31  and  C_37
   14  A    between atoms: C_33  and  C_36
                            x       y       z     vdW  Elec       q    Type
                         _______ _______ _______ _____ _____    ______ ____

>  <TORSDO>
F 14

$$$$
=
 OpenBabel11062409143D

 37 39  0  0  1  0  0  0  0  0999 V2000
  161.3500  207.3100  154.0320 C   0  0  0  0  0  2  0  0  0  0  0  0
  158.3960  210.5280  154.0450 C   0  0  0  0  0  2  0  0  0  0  0  0
  161.4300  207.5930  152.5200 C   0  0  2  0  0  3  0  0  0  0  0  0
  159.5610  209.5900  153.7190 C   0  0  2  0  0  3  0  0  0  0  0  0
  160.5530  209.5220  154.8430 C   0  0  0  0  0  3  0  0  0  0  0  0
  160.2360  209.9440  152.3740 C   0  0  1  0  0  3  0  0  0  0  0  0
  159.3630  212.2960  152.5740 C   0  0  0  0  0  2  0  0  0  0  0  0
  161.4120  208.5060  154.9590 C   0  0  0  0  0  0  0  0  0  0  0  0
  160.5930  211.4360  152.3160 C   0  0  0  0  0  2  0  0  0  0  0  0
  161.4980  209.0940  152.1270 C   0  0  2  0  0  3  0  0  0  0  0  0
  158.8120  211.9940  153.9620 C   0  0  1  0  0  3  0  0  0  0  0  0
  157.7060  212.8080  154.2140 O   0  0  0  0  0  0  0  0  0  0  0  0
  156.6560  211.9210  154.4560 C   0  0  0  0  0  1  0  0  0  0  0  0
  162.3480  209.5830  156.9720 C   0  0  0  0  0  1  0  0  0  0  0  0
  162.3450  208.5510  155.9970 O   0  0  0  0  0  0  0  0  0  0  0  0
  160.4440  206.6680  151.7810 C   0  0  1  0  0  3  0  0  0  0  0  0
  159.7300  205.7970  149.6750 O   0  0  0  0  0  1  0  0  0  0  0  0
  160.1560  206.9600  150.3140 C   0  0  0  0  0  2  0  0  0  0  0  0
  160.7230  205.1920  152.0440 C   0  0  0  0  0  2  0  0  0  0  0  0
  161.9260  204.6880  151.2620 C   0  0  0  0  0  2  0  0  0  0  0  0
  161.1800  202.3170  150.9760 C   0  0  0  0  0  3  0  0  0  0  0  0
  161.5340  203.5410  150.3980 C   0  0  0  0  0  0  0  0  0  0  0  0
  161.5410  203.6810  149.0060 C   0  0  0  0  0  3  0  0  0  0  0  0
  161.1900  202.7410  146.8120 O   0  0  0  0  0  1  0  0  0  0  0  0
  160.8270  201.3790  148.7700 C   0  0  0  0  0  3  0  0  0  0  0  0
  161.1860  202.6010  148.1930 C   0  0  0  0  0  0  0  0  0  0  0  0
  160.8250  201.2360  150.1620 C   0  0  0  0  0  3  0  0  0  0  0  0
  162.3240  209.4590  150.8790 C   0  0  1  0  0  3  0  0  0  0  0  0
  162.6230  208.2630  150.0270 C   0  0  0  0  0  0  0  0  0  0  0  0
  163.3320  207.3600  150.4440 O   0  0  0  0  0  0  0  0  0  0  0  0
  162.5610  206.9520  147.9350 C   0  0  0  0  0  1  0  0  0  0  0  0
  162.0570  208.1930  148.6480 C   0  0  0  0  0  2  0  0  0  0  0  0
  161.7590  210.6050  150.0530 C   0  0  0  0  0  2  0  0  0  0  0  0
  162.7770  211.0740  149.0330 C   0  0  0  0  0  2  0  0  0  0  0  0
  162.2230  212.2610  148.2770 C   0  0  0  0  0  2  0  0  0  0  0  0
  160.2090  213.6320  148.4330 C   0  0  0  0  0  2  0  0  0  0  0  0
  161.0990  212.8580  149.0480 C   0  0  0  0  0  3  0  0  0  0  0  0
  1  8  1  0  0  0  0
  3 16  1  6  0  0  0
  3  1  1  0  0  0  0
  4  2  1  1  0  0  0
  4  5  1  0  0  0  0
  5  8  2  0  0  0  0
  6  9  1  1  0  0  0
  6  4  1  0  0  0  0
  7 11  1  0  0  0  0
  8 15  1  0  0  0  0
  9  7  1  0  0  0  0
 10 28  1  6  0  0  0
 10  6  1  0  0  0  0
 10  3  1  0  0  0  0
 11  2  1  0  0  0  0
 11 12  1  6  0  0  0
 12 13  1  0  0  0  0
 15 14  1  0  0  0  0
 16 18  1  6  0  0  0
 16 19  1  0  0  0  0
 17 18  1  0  0  0  0
 20 19  1  0  0  0  0
 22 21  1  0  0  0  0
 22 20  1  0  0  0  0
 23 22  2  0  0  0  0
 24 26  1  0  0  0  0
 25 27  1  0  0  0  0
 26 25  2  0  0  0  0
 26 23  1  0  0  0  0
 27 21  2  0  0  0  0
 28 33  1  6  0  0  0
 29 30  2  0  0  0  0
 29 28  1  0  0  0  0
 31 32  1  0  0  0  0
 32 29  1  0  0  0  0
 34 33  1  0  0  0  0
 35 34  1  0  0  0  0
 35 37  1  0  0  0  0
 36 37  2  0  0  0  0
M  END
>  <MODEL>
7

>  <REMARK>
 VINA RESULT:      -3.1      1.772      3.585
  Name = 
  14 active torsions:
  status: ('A' for Active; 'I' for Inactive)
    1  A    between atoms: C_1  and  C_23
    2  A    between atoms: C_1  and  C_36
    3  A    between atoms: O_3  and  C_32
    4  A    between atoms: C_6  and  C_31
    5  A    between atoms: C_10  and  C_14
    6  A    between atoms: C_14  and  C_27
    7  A    between atoms: C_14  and  C_37
    8  A    between atoms: C_17  and  C_26
    9  A    between atoms: C_17  and  C_33
   10  A    between atoms: C_24  and  O_28
   11  A    between atoms: C_26  and  C_34
   12  A    between atoms: C_29  and  C_36
   13  A    between atoms: C_31  and  C_37
   14  A    between atoms: C_33  and  C_36
                            x       y       z     vdW  Elec       q    Type
                         _______ _______ _______ _____ _____    ______ ____

>  <TORSDO>
F 14

$$$$
=
 OpenBabel11062409143D

 37 39  0  0  1  0  0  0  0  0999 V2000
  160.9930  209.9150  153.5610 C   0  0  0  0  0  2  0  0  0  0  0  0
  161.0180  213.0840  150.5540 C   0  0  0  0  0  2  0  0  0  0  0  0
  160.0990  210.8840  154.3570 C   0  0  2  0  0  3  0  0  0  0  0  0
  160.6660  212.1420  151.7080 C   0  0  2  0  0  3  0  0  0  0  0  0
  160.5480  210.7180  151.2500 C   0  0  0  0  0  3  0  0  0  0  0  0
  159.4080  212.6060  152.4780 C   0  0  1  0  0  3  0  0  0  0  0  0
  158.6580  213.8860  150.4460 C   0  0  0  0  0  2  0  0  0  0  0  0
  160.6430  209.6950  152.1040 C   0  0  0  0  0  0  0  0  0  0  0  0
  158.2470  212.8820  151.5130 C   0  0  0  0  0  2  0  0  0  0  0  0
  158.9740  211.5750  153.5390 C   0  0  2  0  0  3  0  0  0  0  0  0
  159.8210  213.3250  149.6380 C   0  0  1  0  0  3  0  0  0  0  0  0
  160.1750  214.2290  148.6350 O   0  0  0  0  0  0  0  0  0  0  0  0
  160.6860  213.4380  147.6050 C   0  0  0  0  0  1  0  0  0  0  0  0
  161.2870  207.8540  150.5940 C   0  0  0  0  0  1  0  0  0  0  0  0
  160.4570  208.4040  151.6060 O   0  0  0  0  0  0  0  0  0  0  0  0
  160.9830  211.7370  155.2880 C   0  0  1  0  0  3  0  0  0  0  0  0
  160.1100  213.6860  156.3570 O   0  0  0  0  0  1  0  0  0  0  0  0
  160.3420  212.3230  156.5380 C   0  0  0  0  0  2  0  0  0  0  0  0
  162.3310  211.0830  155.5680 C   0  0  0  0  0  2  0  0  0  0  0  0
  162.2790  210.1540  156.7710 C   0  0  0  0  0  2  0  0  0  0  0  0
  160.4260  208.5450  157.2570 C   0  0  0  0  0  3  0  0  0  0  0  0
  161.4980  208.9310  156.4440 C   0  0  0  0  0  0  0  0  0  0  0  0
  161.8490  208.1530  155.3360 C   0  0  0  0  0  3  0  0  0  0  0  0
  161.4710  206.2260  153.9330 O   0  0  0  0  0  1  0  0  0  0  0  0
  160.0510  206.6130  155.8440 C   0  0  0  0  0  3  0  0  0  0  0  0
  161.1250  206.9960  155.0350 C   0  0  0  0  0  0  0  0  0  0  0  0
  159.7020  207.3870  156.9560 C   0  0  0  0  0  3  0  0  0  0  0  0
  157.6530  211.8760  154.2710 C   0  0  1  0  0  3  0  0  0  0  0  0
  157.4190  210.9470  155.4230 C   0  0  0  0  0  0  0  0  0  0  0  0
  157.8390  211.2160  156.5390 O   0  0  0  0  0  0  0  0  0  0  0  0
  155.1980  209.9520  155.0020 C   0  0  0  0  0  1  0  0  0  0  0  0
  156.6780  209.6730  155.1920 C   0  0  0  0  0  2  0  0  0  0  0  0
  157.4660  213.3300  154.6800 C   0  0  0  0  0  2  0  0  0  0  0  0
  155.9960  213.6360  154.8840 C   0  0  0  0  0  2  0  0  0  0  0  0
  155.2230  213.2450  153.6450 C   0  0  0  0  0  2  0  0  0  0  0  0
  155.0350  214.2940  151.4480 C   0  0  0  0  0  2  0  0  0  0  0  0
  155.0530  214.4370  152.7700 C   0  0  0  0  0  3  0  0  0  0  0  0
  1  3  1  0  0  0  0
  3 16  1  6  0  0  0
  4  2  1  6  0  0  0
  4  6  1  0  0  0  0
  5  4  1  0  0  0  0
  5  8  2  0  0  0  0
  6  9  1  6  0  0  0
  6 10  1  0  0  0  0
  7  9  1  0  0  0  0
  8  1  1  0  0  0  0
 10 28  1  1  0  0  0
 10  3  1  0  0  0  0
 11 12  1  6  0  0  0
 11  7  1  0  0  0  0
 11  2  1  0  0  0  0
 13 12  1  0  0  0  0
 14 15  1  0  0  0  0
 15  8  1  0  0  0  0
 16 19  1  1  0  0  0
 16 18  1  0  0  0  0
 17 18  1  0  0  0  0
 19 20  1  0  0  0  0
 22 20  1  0  0  0  0
 22 21  2  0  0  0  0
 23 22  1  0  0  0  0
 24 26  1  0  0  0  0
 25 27  2  0  0  0  0
 26 23  2  0  0  0  0
 26 25  1  0  0  0  0
 27 21  1  0  0  0  0
 28 33  1  1  0  0  0
 28 29  1  0  0  0  0
 29 30  2  0  0  0  0
 31 32  1  0  0  0  0
 32 29  1  0  0  0  0
 33 34  1  0  0  0  0
 35 34  1  0  0  0  0
 36 37  2  0  0  0  0
 37 35  1  0  0  0  0
M  END
>  <MODEL>
8

>  <REMARK>
 VINA RESULT:      -2.7      2.339      6.237
  Name = 
  14 active torsions:
  status: ('A' for Active; 'I' for Inactive)
    1  A    between atoms: C_1  and  C_23
    2  A    between atoms: C_1  and  C_36
    3  A    between atoms: O_3  and  C_32
    4  A    between atoms: C_6  and  C_31
    5  A    between atoms: C_10  and  C_14
    6  A    between atoms: C_14  and  C_27
    7  A    between atoms: C_14  and  C_37
    8  A    between atoms: C_17  and  C_26
    9  A    between atoms: C_17  and  C_33
   10  A    between atoms: C_24  and  O_28
   11  A    between atoms: C_26  and  C_34
   12  A    between atoms: C_29  and  C_36
   13  A    between atoms: C_31  and  C_37
   14  A    between atoms: C_33  and  C_36
                            x       y       z     vdW  Elec       q    Type
                         _______ _______ _______ _____ _____    ______ ____

>  <TORSDO>
F 14

$$$$
=
 OpenBabel11062409143D

 37 39  0  0  1  0  0  0  0  0999 V2000
  160.2830  210.8570  151.1420 C   0  0  0  0  0  2  0  0  0  0  0  0
  162.3430  210.4720  154.9740 C   0  0  0  0  0  2  0  0  0  0  0  0
  160.9140  209.4860  150.8350 C   0  0  2  0  0  3  0  0  0  0  0  0
  161.6400  210.2120  153.6400 C   0  0  2  0  0  3  0  0  0  0  0  0
  160.2470  210.7690  153.6260 C   0  0  0  0  0  3  0  0  0  0  0  0
  161.6670  208.7170  153.2470 C   0  0  1  0  0  3  0  0  0  0  0  0
  161.9740  208.1040  155.6680 C   0  0  0  0  0  2  0  0  0  0  0  0
  159.6000  211.0160  152.4840 C   0  0  0  0  0  0  0  0  0  0  0  0
  161.1700  207.8380  154.4030 C   0  0  0  0  0  2  0  0  0  0  0  0
  160.8290  208.4430  151.9830 C   0  0  2  0  0  3  0  0  0  0  0  0
  161.8120  209.5620  156.0790 C   0  0  1  0  0  3  0  0  0  0  0  0
  162.5190  209.7990  157.2590 O   0  0  0  0  0  0  0  0  0  0  0  0
  163.4510  210.7830  156.9270 C   0  0  0  0  0  1  0  0  0  0  0  0
  157.9560  212.7700  153.0360 C   0  0  0  0  0  1  0  0  0  0  0  0
  158.2830  211.4730  152.5600 O   0  0  0  0  0  0  0  0  0  0  0  0
  162.2600  209.6990  150.1150 C   0  0  1  0  0  3  0  0  0  0  0  0
  161.2830  209.2030  147.9930 O   0  0  0  0  0  1  0  0  0  0  0  0
  162.4450  209.0550  148.7480 C   0  0  0  0  0  2  0  0  0  0  0  0
  162.7100  211.1560  150.1450 C   0  0  0  0  0  2  0  0  0  0  0  0
  161.5850  212.1120  149.7820 C   0  0  0  0  0  2  0  0  0  0  0  0
  162.9870  212.9120  147.8700 C   0  0  0  0  0  3  0  0  0  0  0  0
  161.7280  212.5610  148.3700 C   0  0  0  0  0  0  0  0  0  0  0  0
  160.5990  212.6530  147.5480 C   0  0  0  0  0  3  0  0  0  0  0  0
  159.6110  213.1760  145.4100 O   0  0  0  0  0  1  0  0  0  0  0  0
  161.9890  213.4340  145.7250 C   0  0  0  0  0  3  0  0  0  0  0  0
  160.7300  213.0880  146.2260 C   0  0  0  0  0  0  0  0  0  0  0  0
  163.1170  213.3480  146.5470 C   0  0  0  0  0  3  0  0  0  0  0  0
  160.6770  206.9640  151.5820 C   0  0  1  0  0  3  0  0  0  0  0  0
  161.3100  206.6680  150.2560 C   0  0  0  0  0  0  0  0  0  0  0  0
  162.5240  206.7040  150.1210 O   0  0  0  0  0  0  0  0  0  0  0  0
  161.1830  205.4600  148.1060 C   0  0  0  0  0  1  0  0  0  0  0  0
  160.4380  206.3430  149.0900 C   0  0  0  0  0  2  0  0  0  0  0  0
  161.1150  205.9660  152.6440 C   0  0  0  0  0  2  0  0  0  0  0  0
  161.6550  204.7070  151.9950 C   0  0  0  0  0  2  0  0  0  0  0  0
  160.8070  203.5250  152.4070 C   0  0  0  0  0  2  0  0  0  0  0  0
  160.8310  202.7440  150.0940 C   0  0  0  0  0  2  0  0  0  0  0  0
  160.9300  202.4480  151.3870 C   0  0  0  0  0  3  0  0  0  0  0  0
  1  8  1  0  0  0  0
  2 11  1  0  0  0  0
  3 16  1  1  0  0  0
  3  1  1  0  0  0  0
  3 10  1  0  0  0  0
  4  5  1  1  0  0  0
  4  2  1  0  0  0  0
  6  4  1  0  0  0  0
  6  9  1  1  0  0  0
  7 11  1  0  0  0  0
  8 15  1  0  0  0  0
  8  5  2  0  0  0  0
  9  7  1  0  0  0  0
 10 28  1  6  0  0  0
 10  6  1  0  0  0  0
 11 12  1  1  0  0  0
 13 12  1  0  0  0  0
 15 14  1  0  0  0  0
 16 18  1  6  0  0  0
 16 19  1  0  0  0  0
 17 18  1  0  0  0  0
 20 19  1  0  0  0  0
 21 22  1  0  0  0  0
 22 20  1  0  0  0  0
 23 22  2  0  0  0  0
 24 26  1  0  0  0  0
 25 26  2  0  0  0  0
 25 27  1  0  0  0  0
 26 23  1  0  0  0  0
 27 21  2  0  0  0  0
 28 33  1  1  0  0  0
 29 28  1  0  0  0  0
 30 29  2  0  0  0  0
 31 32  1  0  0  0  0
 32 29  1  0  0  0  0
 34 35  1  0  0  0  0
 34 33  1  0  0  0  0
 36 37  2  0  0  0  0
 37 35  1  0  0  0  0
M  END
>  <MODEL>
9

>  <REMARK>
 VINA RESULT:      -2.6      2.097      6.867
  Name = 
  14 active torsions:
  status: ('A' for Active; 'I' for Inactive)
    1  A    between atoms: C_1  and  C_23
    2  A    between atoms: C_1  and  C_36
    3  A    between atoms: O_3  and  C_32
    4  A    between atoms: C_6  and  C_31
    5  A    between atoms: C_10  and  C_14
    6  A    between atoms: C_14  and  C_27
    7  A    between atoms: C_14  and  C_37
    8  A    between atoms: C_17  and  C_26
    9  A    between atoms: C_17  and  C_33
   10  A    between atoms: C_24  and  O_28
   11  A    between atoms: C_26  and  C_34
   12  A    between atoms: C_29  and  C_36
   13  A    between atoms: C_31  and  C_37
   14  A    between atoms: C_33  and  C_36
                            x       y       z     vdW  Elec       q    Type
                         _______ _______ _______ _____ _____    ______ ____

>  <TORSDO>
F 14

$$$$
