=
 OpenBabel11062409293D

 34 37  0  0  1  0  0  0  0  0999 V2000
  160.8770  209.6710  153.4440 C   0  0  2  0  0  3  0  0  0  0  0  0
  157.8370  211.9750  153.8450 N   0  0  0  0  0  2  0  0  0  0  0  0
  158.9860  210.6550  155.4870 C   0  0  0  0  0  2  0  0  0  0  0  0
  161.1060  207.7980  155.2200 C   0  0  0  0  0  0  0  0  0  0  0  0
  161.2550  207.7060  156.9910 S   0  0  0  0  0  0  0  0  0  0  0  0
  160.8270  206.6860  154.5530 C   0  0  0  0  0  2  0  0  0  0  0  0
  160.2690  209.9440  155.8500 C   0  0  2  0  0  3  0  0  0  0  0  0
  160.6320  209.0640  154.7590 N   0  0  0  0  0  0  0  0  0  0  0  0
  160.0720  209.0860  157.0910 C   0  0  0  0  0  2  0  0  0  0  0  0
  157.9920  213.1840  153.0520 C   0  0  0  0  0  2  0  0  0  0  0  0
  158.1370  212.8060  151.5870 C   0  0  2  0  0  3  0  0  0  0  0  0
  159.5570  212.4380  151.2800 C   0  0  0  0  0  3  0  0  0  0  0  0
  159.1540  211.4520  154.1940 C   0  0  1  0  0  3  0  0  0  0  0  0
  160.2380  211.4760  151.9140 C   0  0  0  0  0  3  0  0  0  0  0  0
  159.7130  210.5940  153.0230 C   0  0  1  0  0  3  0  0  0  0  0  0
  157.6980  213.9360  150.7080 C   0  0  0  0  0  0  0  0  0  0  0  0
  156.2970  214.4330  150.7990 C   0  0  0  0  0  1  0  0  0  0  0  0
  158.4730  214.4530  149.9180 O   0  0  0  0  0  0  0  0  0  0  0  0
  161.1690  208.6470  152.3460 C   0  0  0  0  0  2  0  0  0  0  0  0
  162.3270  209.1010  151.4640 C   0  0  0  0  0  2  0  0  0  0  0  0
  161.9640  209.6240  149.0690 C   0  0  0  0  0  1  0  0  0  0  0  0
  162.2130  208.5110  150.0670 C   0  0  2  0  0  3  0  0  0  0  0  0
  161.1350  207.5810  150.0200 O   0  0  0  0  0  0  0  0  0  0  0  0
  160.8080  205.4770  147.0290 N   0  0  0  0  0  2  0  0  0  0  0  0
  161.1760  203.3780  148.1890 C   0  0  0  0  0  0  0  0  0  0  0  0
  161.6220  204.2740  147.0790 C   0  0  0  0  0  2  0  0  0  0  0  0
  161.4570  206.5070  147.8330 C   0  0  1  0  0  3  0  0  0  0  0  0
  160.9850  205.2120  149.9440 C   0  0  0  0  0  3  0  0  0  0  0  0
  161.1800  206.3790  149.3020 C   0  0  0  0  0  0  0  0  0  0  0  0
  160.9450  203.8260  149.4290 C   0  0  0  0  0  3  0  0  0  0  0  0
  162.8170  206.6000  147.5790 F   0  0  0  0  0  0  0  0  0  0  0  0
  161.0650  201.9320  147.9190 C   0  0  0  0  0  0  0  0  0  0  0  0
  161.2760  200.9800  148.9580 N   0  0  0  0  0  1  0  0  0  0  0  0
  160.7800  201.5240  146.7610 O   0  0  0  0  0  0  0  0  0  0  0  0
  1 19  1  6  0  0  0
  1  8  1  0  0  0  0
  2 13  1  0  0  0  0
  4  5  1  0  0  0  0
  5  9  1  0  0  0  0
  6  4  2  0  0  0  0
  7  3  1  6  0  0  0
  7  9  1  0  0  0  0
  8  4  1  0  0  0  0
  8  7  1  0  0  0  0
 10  2  1  0  0  0  0
 11 16  1  6  0  0  0
 11 10  1  0  0  0  0
 12 11  1  0  0  0  0
 12 14  2  0  0  0  0
 13  3  1  1  0  0  0
 15 14  1  6  0  0  0
 15  1  1  0  0  0  0
 15 13  1  0  0  0  0
 16 17  1  0  0  0  0
 18 16  2  0  0  0  0
 20 19  1  0  0  0  0
 22 21  1  6  0  0  0
 22 20  1  0  0  0  0
 23 22  1  0  0  0  0
 24 26  1  0  0  0  0
 24 27  1  0  0  0  0
 25 30  2  0  0  0  0
 26 25  1  0  0  0  0
 27 31  1  1  0  0  0
 27 29  1  0  0  0  0
 29 28  2  0  0  0  0
 29 23  1  0  0  0  0
 30 28  1  0  0  0  0
 32 25  1  0  0  0  0
 32 33  1  0  0  0  0
 34 32  2  0  0  0  0
M  END
>  <MODEL>
1

>  <REMARK>
 VINA RESULT:      -8.5      0.000      0.000
  Name = 
  7 active torsions:
  status: ('A' for Active; 'I' for Inactive)
    1  A    between atoms: C_1  and  C_9
    2  A    between atoms: C_3  and  C_25
    3  A    between atoms: O_6  and  C_28
    4  A    between atoms: O_6  and  C_30
    5  A    between atoms: C_7  and  C_11
    6  A    between atoms: C_8  and  C_9
    7  A    between atoms: C_8  and  C_30
                            x       y       z     vdW  Elec       q    Type
                         _______ _______ _______ _____ _____    ______ ____

>  <TORSDO>
F 7

$$$$
=
 OpenBabel11062409293D

 34 37  0  0  1  0  0  0  0  0999 V2000
  161.0090  209.7170  153.3540 C   0  0  2  0  0  3  0  0  0  0  0  0
  158.1910  212.3010  153.6600 N   0  0  0  0  0  2  0  0  0  0  0  0
  159.3160  211.0510  155.3720 C   0  0  0  0  0  2  0  0  0  0  0  0
  161.1810  208.0100  155.2970 C   0  0  0  0  0  0  0  0  0  0  0  0
  161.4160  208.0760  157.0590 S   0  0  0  0  0  0  0  0  0  0  0  0
  160.7770  206.8670  154.7570 C   0  0  0  0  0  2  0  0  0  0  0  0
  160.5550  210.2710  155.7460 C   0  0  2  0  0  3  0  0  0  0  0  0
  160.7860  209.2620  154.7330 N   0  0  0  0  0  0  0  0  0  0  0  0
  160.3560  209.5560  157.0740 C   0  0  0  0  0  2  0  0  0  0  0  0
  158.4010  213.4100  152.7440 C   0  0  0  0  0  2  0  0  0  0  0  0
  158.4370  212.8830  151.3180 C   0  0  2  0  0  3  0  0  0  0  0  0
  159.8040  212.3660  150.9860 C   0  0  0  0  0  3  0  0  0  0  0  0
  159.4780  211.7030  153.9990 C   0  0  1  0  0  3  0  0  0  0  0  0
  160.4370  211.4150  151.6820 C   0  0  0  0  0  3  0  0  0  0  0  0
  159.9030  210.6920  152.8960 C   0  0  1  0  0  3  0  0  0  0  0  0
  158.0450  213.9560  150.3520 C   0  0  0  0  0  0  0  0  0  0  0  0
  156.6380  214.4480  150.3330 C   0  0  0  0  0  1  0  0  0  0  0  0
  158.8620  214.4330  149.5790 O   0  0  0  0  0  0  0  0  0  0  0  0
  161.1580  208.5700  152.3520 C   0  0  0  0  0  2  0  0  0  0  0  0
  162.2140  208.8930  151.3010 C   0  0  0  0  0  2  0  0  0  0  0  0
  162.0470  208.6760  148.8380 C   0  0  0  0  0  1  0  0  0  0  0  0
  162.1490  207.9110  150.1420 C   0  0  2  0  0  3  0  0  0  0  0  0
  161.0110  207.0650  150.2870 O   0  0  0  0  0  0  0  0  0  0  0  0
  161.6400  203.4930  150.8530 N   0  0  0  0  0  2  0  0  0  0  0  0
  161.0280  202.7980  148.6110 C   0  0  0  0  0  0  0  0  0  0  0  0
  160.7740  202.6250  150.0730 C   0  0  0  0  0  2  0  0  0  0  0  0
  160.9360  204.7470  151.0980 C   0  0  1  0  0  3  0  0  0  0  0  0
  161.0640  205.3430  148.6520 C   0  0  0  0  0  3  0  0  0  0  0  0
  161.0090  205.7060  149.9470 C   0  0  0  0  0  0  0  0  0  0  0  0
  161.1110  204.0020  148.0310 C   0  0  0  0  0  3  0  0  0  0  0  0
  159.6280  204.5490  151.5120 F   0  0  0  0  0  0  0  0  0  0  0  0
  161.1090  201.5910  147.7670 C   0  0  0  0  0  0  0  0  0  0  0  0
  160.7690  201.6450  146.3840 N   0  0  0  0  0  1  0  0  0  0  0  0
  161.4840  200.4950  148.2630 O   0  0  0  0  0  0  0  0  0  0  0  0
  1 19  1  6  0  0  0
  1  8  1  0  0  0  0
  2 13  1  0  0  0  0
  4  5  1  0  0  0  0
  5  9  1  0  0  0  0
  6  4  2  0  0  0  0
  7  3  1  6  0  0  0
  7  9  1  0  0  0  0
  8  4  1  0  0  0  0
  8  7  1  0  0  0  0
 10  2  1  0  0  0  0
 11 16  1  6  0  0  0
 11 10  1  0  0  0  0
 12 11  1  0  0  0  0
 12 14  2  0  0  0  0
 13  3  1  1  0  0  0
 15 14  1  6  0  0  0
 15  1  1  0  0  0  0
 15 13  1  0  0  0  0
 17 16  1  0  0  0  0
 18 16  2  0  0  0  0
 20 19  1  0  0  0  0
 22 21  1  6  0  0  0
 22 23  1  0  0  0  0
 22 20  1  0  0  0  0
 24 27  1  0  0  0  0
 25 26  1  0  0  0  0
 26 24  1  0  0  0  0
 27 31  1  6  0  0  0
 28 29  2  0  0  0  0
 29 23  1  0  0  0  0
 29 27  1  0  0  0  0
 30 25  2  0  0  0  0
 30 28  1  0  0  0  0
 32 34  2  0  0  0  0
 32 25  1  0  0  0  0
 33 32  1  0  0  0  0
M  END
>  <MODEL>
2

>  <REMARK>
 VINA RESULT:      -8.0      1.414      1.689
  Name = 
  7 active torsions:
  status: ('A' for Active; 'I' for Inactive)
    1  A    between atoms: C_1  and  C_9
    2  A    between atoms: C_3  and  C_25
    3  A    between atoms: O_6  and  C_28
    4  A    between atoms: O_6  and  C_30
    5  A    between atoms: C_7  and  C_11
    6  A    between atoms: C_8  and  C_9
    7  A    between atoms: C_8  and  C_30
                            x       y       z     vdW  Elec       q    Type
                         _______ _______ _______ _____ _____    ______ ____

>  <TORSDO>
F 7

$$$$
=
 OpenBabel11062409293D

 34 37  0  0  1  0  0  0  0  0999 V2000
  161.5380  207.1070  151.8300 C   0  0  2  0  0  3  0  0  0  0  0  0
  160.6880  205.1460  148.6460 N   0  0  0  0  0  2  0  0  0  0  0  0
  161.3880  207.4270  148.8980 C   0  0  0  0  0  2  0  0  0  0  0  0
  161.2850  209.6810  151.6630 C   0  0  0  0  0  0  0  0  0  0  0  0
  161.9670  210.9860  150.6640 S   0  0  0  0  0  0  0  0  0  0  0  0
  160.2180  209.9490  152.4050 C   0  0  0  0  0  2  0  0  0  0  0  0
  162.0800  208.4360  149.7870 C   0  0  2  0  0  3  0  0  0  0  0  0
  161.4760  208.3820  151.1010 N   0  0  0  0  0  0  0  0  0  0  0  0
  161.8880  209.8450  149.2470 C   0  0  0  0  0  2  0  0  0  0  0  0
  161.2030  203.7890  148.7180 C   0  0  0  0  0  2  0  0  0  0  0  0
  160.5860  203.0820  149.9150 C   0  0  2  0  0  3  0  0  0  0  0  0
  161.3370  203.4200  151.1660 C   0  0  0  0  0  3  0  0  0  0  0  0
  161.5060  206.0190  149.4810 C   0  0  1  0  0  3  0  0  0  0  0  0
  161.5320  204.6670  151.6120 C   0  0  0  0  0  3  0  0  0  0  0  0
  161.0340  205.9350  150.9610 C   0  0  1  0  0  3  0  0  0  0  0  0
  160.5810  201.6000  149.7030 C   0  0  0  0  0  0  0  0  0  0  0  0
  161.2250  201.0310  148.4860 C   0  0  0  0  0  1  0  0  0  0  0  0
  160.0550  200.8530  150.5140 O   0  0  0  0  0  0  0  0  0  0  0  0
  160.7980  207.1360  153.1690 C   0  0  0  0  0  2  0  0  0  0  0  0
  161.7460  207.4700  154.3150 C   0  0  0  0  0  2  0  0  0  0  0  0
  159.5890  207.0040  155.4410 C   0  0  0  0  0  1  0  0  0  0  0  0
  161.0570  207.3060  155.6600 C   0  0  2  0  0  3  0  0  0  0  0  0
  161.1870  208.5050  156.4200 O   0  0  0  0  0  0  0  0  0  0  0  0
  160.7310  212.1470  156.4060 N   0  0  0  0  0  2  0  0  0  0  0  0
  158.5530  212.0980  155.3370 C   0  0  0  0  0  0  0  0  0  0  0  0
  159.9500  212.6260  155.2770 C   0  0  0  0  0  2  0  0  0  0  0  0
  161.4080  210.9170  156.0100 C   0  0  1  0  0  3  0  0  0  0  0  0
  159.2050  209.6980  155.8840 C   0  0  0  0  0  3  0  0  0  0  0  0
  160.5340  209.7010  156.0970 C   0  0  0  0  0  0  0  0  0  0  0  0
  158.2800  210.8080  155.5690 C   0  0  0  0  0  3  0  0  0  0  0  0
  162.0120  211.0210  154.7660 F   0  0  0  0  0  0  0  0  0  0  0  0
  157.4420  213.0250  155.0500 C   0  0  0  0  0  0  0  0  0  0  0  0
  156.1880  212.5340  154.5840 N   0  0  0  0  0  1  0  0  0  0  0  0
  157.5920  214.2650  155.2150 O   0  0  0  0  0  0  0  0  0  0  0  0
  1 19  1  1  0  0  0
  2 10  1  0  0  0  0
  2 13  1  0  0  0  0
  4  6  2  0  0  0  0
  5  4  1  0  0  0  0
  7  3  1  6  0  0  0
  7  8  1  0  0  0  0
  8  4  1  0  0  0  0
  8  1  1  0  0  0  0
  9  7  1  0  0  0  0
  9  5  1  0  0  0  0
 10 11  1  0  0  0  0
 11 16  1  6  0  0  0
 11 12  1  0  0  0  0
 12 14  2  0  0  0  0
 13  3  1  6  0  0  0
 13 15  1  0  0  0  0
 15 14  1  1  0  0  0
 15  1  1  0  0  0  0
 16 18  2  0  0  0  0
 17 16  1  0  0  0  0
 19 20  1  0  0  0  0
 20 22  1  0  0  0  0
 22 21  1  6  0  0  0
 22 23  1  0  0  0  0
 25 30  2  0  0  0  0
 26 25  1  0  0  0  0
 26 24  1  0  0  0  0
 27 31  1  6  0  0  0
 27 29  1  0  0  0  0
 27 24  1  0  0  0  0
 28 29  2  0  0  0  0
 29 23  1  0  0  0  0
 30 28  1  0  0  0  0
 32 34  2  0  0  0  0
 32 25  1  0  0  0  0
 33 32  1  0  0  0  0
M  END
>  <MODEL>
3

>  <REMARK>
 VINA RESULT:      -7.7      3.137      9.224
  Name = 
  7 active torsions:
  status: ('A' for Active; 'I' for Inactive)
    1  A    between atoms: C_1  and  C_9
    2  A    between atoms: C_3  and  C_25
    3  A    between atoms: O_6  and  C_28
    4  A    between atoms: O_6  and  C_30
    5  A    between atoms: C_7  and  C_11
    6  A    between atoms: C_8  and  C_9
    7  A    between atoms: C_8  and  C_30
                            x       y       z     vdW  Elec       q    Type
                         _______ _______ _______ _____ _____    ______ ____

>  <TORSDO>
F 7

$$$$
=
 OpenBabel11062409293D

 34 37  0  0  1  0  0  0  0  0999 V2000
  160.8310  207.7970  151.5940 C   0  0  2  0  0  3  0  0  0  0  0  0
  161.5810  204.3270  153.0460 N   0  0  0  0  0  2  0  0  0  0  0  0
  161.3360  206.4360  154.1650 C   0  0  0  0  0  2  0  0  0  0  0  0
  161.6160  209.8070  153.0300 C   0  0  0  0  0  0  0  0  0  0  0  0
  161.3160  210.4170  154.6740 S   0  0  0  0  0  0  0  0  0  0  0  0
  162.6350  210.3120  152.3460 C   0  0  0  0  0  2  0  0  0  0  0  0
  160.7770  207.8380  154.0900 C   0  0  2  0  0  3  0  0  0  0  0  0
  161.2230  208.4450  152.8530 N   0  0  0  0  0  0  0  0  0  0  0  0
  161.3040  208.6860  155.2380 C   0  0  0  0  0  2  0  0  0  0  0  0
  160.7970  203.3030  152.3760 C   0  0  0  0  0  2  0  0  0  0  0  0
  161.1340  203.3030  150.8940 C   0  0  2  0  0  3  0  0  0  0  0  0
  160.3460  204.3570  150.1770 C   0  0  0  0  0  3  0  0  0  0  0  0
  160.8770  205.6030  152.9680 C   0  0  1  0  0  3  0  0  0  0  0  0
  160.3640  205.6560  150.4970 C   0  0  0  0  0  3  0  0  0  0  0  0
  161.1710  206.2910  151.6050 C   0  0  1  0  0  3  0  0  0  0  0  0
  160.8600  201.9590  150.2930 C   0  0  0  0  0  0  0  0  0  0  0  0
  159.6920  201.7860  149.3850 C   0  0  0  0  0  1  0  0  0  0  0  0
  161.5810  201.0040  150.5390 O   0  0  0  0  0  0  0  0  0  0  0  0
  161.4230  208.4700  150.3540 C   0  0  0  0  0  2  0  0  0  0  0  0
  162.4540  207.5710  149.6800 C   0  0  0  0  0  2  0  0  0  0  0  0
  160.8600  207.5850  147.7820 C   0  0  0  0  0  1  0  0  0  0  0  0
  162.3250  207.6320  148.1660 C   0  0  2  0  0  3  0  0  0  0  0  0
  163.0070  206.5280  147.5770 O   0  0  0  0  0  0  0  0  0  0  0  0
  160.5690  205.1370  145.2100 N   0  0  0  0  0  2  0  0  0  0  0  0
  161.0310  202.8170  145.7490 C   0  0  0  0  0  0  0  0  0  0  0  0
  160.9640  203.8460  144.6690 C   0  0  0  0  0  2  0  0  0  0  0  0
  161.7760  205.8830  145.5500 C   0  0  1  0  0  3  0  0  0  0  0  0
  162.2970  204.2680  147.4150 C   0  0  0  0  0  3  0  0  0  0  0  0
  162.3580  205.5010  146.8790 C   0  0  0  0  0  0  0  0  0  0  0  0
  161.6540  203.0340  146.9140 C   0  0  0  0  0  3  0  0  0  0  0  0
  162.7310  205.8340  144.5450 F   0  0  0  0  0  0  0  0  0  0  0  0
  160.4560  201.4850  145.4830 C   0  0  0  0  0  0  0  0  0  0  0  0
  160.8310  200.3590  146.2730 N   0  0  0  0  0  1  0  0  0  0  0  0
  159.6230  201.3290  144.5500 O   0  0  0  0  0  0  0  0  0  0  0  0
  1 19  1  6  0  0  0
  1 15  1  0  0  0  0
  1  8  1  0  0  0  0
  4  5  1  0  0  0  0
  5  9  1  0  0  0  0
  6  4  2  0  0  0  0
  7  3  1  1  0  0  0
  7  9  1  0  0  0  0
  8  4  1  0  0  0  0
  8  7  1  0  0  0  0
 10  2  1  0  0  0  0
 11 16  1  6  0  0  0
 11 10  1  0  0  0  0
 12 14  2  0  0  0  0
 12 11  1  0  0  0  0
 13  2  1  0  0  0  0
 13  3  1  1  0  0  0
 15 14  1  6  0  0  0
 15 13  1  0  0  0  0
 16 18  2  0  0  0  0
 17 16  1  0  0  0  0
 20 19  1  0  0  0  0
 22 21  1  1  0  0  0
 22 20  1  0  0  0  0
 23 22  1  0  0  0  0
 24 27  1  0  0  0  0
 25 30  2  0  0  0  0
 26 24  1  0  0  0  0
 26 25  1  0  0  0  0
 27 31  1  6  0  0  0
 27 29  1  0  0  0  0
 29 28  2  0  0  0  0
 29 23  1  0  0  0  0
 30 28  1  0  0  0  0
 32 25  1  0  0  0  0
 32 33  1  0  0  0  0
 34 32  2  0  0  0  0
M  END
>  <MODEL>
4

>  <REMARK>
 VINA RESULT:      -7.6      3.352      5.846
  Name = 
  7 active torsions:
  status: ('A' for Active; 'I' for Inactive)
    1  A    between atoms: C_1  and  C_9
    2  A    between atoms: C_3  and  C_25
    3  A    between atoms: O_6  and  C_28
    4  A    between atoms: O_6  and  C_30
    5  A    between atoms: C_7  and  C_11
    6  A    between atoms: C_8  and  C_9
    7  A    between atoms: C_8  and  C_30
                            x       y       z     vdW  Elec       q    Type
                         _______ _______ _______ _____ _____    ______ ____

>  <TORSDO>
F 7

$$$$
=
 OpenBabel11062409293D

 34 37  0  0  1  0  0  0  0  0999 V2000
  158.8740  213.3220  152.4880 C   0  0  2  0  0  3  0  0  0  0  0  0
  157.7630  213.5300  148.8230 N   0  0  0  0  0  2  0  0  0  0  0  0
  156.5370  214.0250  150.8250 C   0  0  0  0  0  2  0  0  0  0  0  0
  156.9710  213.0190  154.2210 C   0  0  0  0  0  0  0  0  0  0  0  0
  155.5060  213.9070  154.7030 S   0  0  0  0  0  0  0  0  0  0  0  0
  157.1190  211.7700  154.6460 C   0  0  0  0  0  2  0  0  0  0  0  0
  156.6220  214.3820  152.2920 C   0  0  2  0  0  3  0  0  0  0  0  0
  157.4820  213.4220  152.9500 N   0  0  0  0  0  0  0  0  0  0  0  0
  155.2490  214.2960  152.9430 C   0  0  0  0  0  2  0  0  0  0  0  0
  158.8270  214.0590  147.9860 C   0  0  0  0  0  2  0  0  0  0  0  0
  160.0410  213.1490  148.0850 C   0  0  2  0  0  3  0  0  0  0  0  0
  160.8490  213.4850  149.3020 C   0  0  0  0  0  3  0  0  0  0  0  0
  157.9240  214.0280  150.1850 C   0  0  1  0  0  3  0  0  0  0  0  0
  160.3630  213.4860  150.5490 C   0  0  0  0  0  3  0  0  0  0  0  0
  158.9490  213.1470  150.9560 C   0  0  1  0  0  3  0  0  0  0  0  0
  160.8890  213.2700  146.8570 C   0  0  0  0  0  0  0  0  0  0  0  0
  162.2190  213.9340  146.9470 C   0  0  0  0  0  1  0  0  0  0  0  0
  160.5020  212.8330  145.7840 O   0  0  0  0  0  0  0  0  0  0  0  0
  159.6710  212.2220  153.1910 C   0  0  0  0  0  2  0  0  0  0  0  0
  159.6020  210.9110  152.4160 C   0  0  0  0  0  2  0  0  0  0  0  0
  161.4980  210.5660  153.9730 C   0  0  0  0  0  1  0  0  0  0  0  0
  160.5720  209.8880  152.9840 C   0  0  2  0  0  3  0  0  0  0  0  0
  161.3400  209.3110  151.9320 O   0  0  0  0  0  0  0  0  0  0  0  0
  162.2760  205.7820  152.3110 N   0  0  0  0  0  2  0  0  0  0  0  0
  161.1060  205.0230  150.3250 C   0  0  0  0  0  0  0  0  0  0  0  0
  161.2720  204.8620  151.8010 C   0  0  0  0  0  2  0  0  0  0  0  0
  161.6050  207.0050  152.7380 C   0  0  1  0  0  3  0  0  0  0  0  0
  161.0260  207.5680  150.3490 C   0  0  0  0  0  3  0  0  0  0  0  0
  161.3110  207.9480  151.6090 C   0  0  0  0  0  0  0  0  0  0  0  0
  160.9660  206.2210  149.7430 C   0  0  0  0  0  3  0  0  0  0  0  0
  160.4720  206.7520  153.4960 F   0  0  0  0  0  0  0  0  0  0  0  0
  161.0120  203.8080  149.4940 C   0  0  0  0  0  0  0  0  0  0  0  0
  161.4410  203.8220  148.1350 N   0  0  0  0  0  1  0  0  0  0  0  0
  160.5490  202.7420  149.9810 O   0  0  0  0  0  0  0  0  0  0  0  0
  1  8  1  0  0  0  0
  1 19  1  1  0  0  0
  2 13  1  0  0  0  0
  4  6  2  0  0  0  0
  4  5  1  0  0  0  0
  7  3  1  6  0  0  0
  7  9  1  0  0  0  0
  7  8  1  0  0  0  0
  8  4  1  0  0  0  0
  9  5  1  0  0  0  0
 10 11  1  0  0  0  0
 10  2  1  0  0  0  0
 11 16  1  6  0  0  0
 11 12  1  0  0  0  0
 12 14  2  0  0  0  0
 13  3  1  1  0  0  0
 13 15  1  0  0  0  0
 15 14  1  6  0  0  0
 15  1  1  0  0  0  0
 16 17  1  0  0  0  0
 18 16  2  0  0  0  0
 20 22  1  0  0  0  0
 20 19  1  0  0  0  0
 22 21  1  1  0  0  0
 23 22  1  0  0  0  0
 24 27  1  0  0  0  0
 25 26  1  0  0  0  0
 26 24  1  0  0  0  0
 27 31  1  6  0  0  0
 28 29  2  0  0  0  0
 29 23  1  0  0  0  0
 29 27  1  0  0  0  0
 30 25  2  0  0  0  0
 30 28  1  0  0  0  0
 32 34  2  0  0  0  0
 32 25  1  0  0  0  0
 33 32  1  0  0  0  0
M  END
>  <MODEL>
5

>  <REMARK>
 VINA RESULT:      -7.6      3.056      4.930
  Name = 
  7 active torsions:
  status: ('A' for Active; 'I' for Inactive)
    1  A    between atoms: C_1  and  C_9
    2  A    between atoms: C_3  and  C_25
    3  A    between atoms: O_6  and  C_28
    4  A    between atoms: O_6  and  C_30
    5  A    between atoms: C_7  and  C_11
    6  A    between atoms: C_8  and  C_9
    7  A    between atoms: C_8  and  C_30
                            x       y       z     vdW  Elec       q    Type
                         _______ _______ _______ _____ _____    ______ ____

>  <TORSDO>
F 7

$$$$
=
 OpenBabel11062409293D

 34 37  0  0  1  0  0  0  0  0999 V2000
  161.7900  209.1490  152.7940 C   0  0  2  0  0  3  0  0  0  0  0  0
  159.7510  212.1830  151.6320 N   0  0  0  0  0  2  0  0  0  0  0  0
  159.9860  211.2460  153.8290 C   0  0  0  0  0  2  0  0  0  0  0  0
  160.9630  208.0100  154.9700 C   0  0  0  0  0  0  0  0  0  0  0  0
  160.6950  208.4920  156.6620 S   0  0  0  0  0  0  0  0  0  0  0  0
  160.4540  206.8560  154.5560 C   0  0  0  0  0  2  0  0  0  0  0  0
  160.8280  210.3830  154.7400 C   0  0  2  0  0  3  0  0  0  0  0  0
  161.0750  209.1190  154.0780 N   0  0  0  0  0  0  0  0  0  0  0  0
  160.0850  210.0890  156.0350 C   0  0  0  0  0  2  0  0  0  0  0  0
  160.4870  212.9570  150.6450 C   0  0  0  0  0  2  0  0  0  0  0  0
  160.7930  212.0760  149.4450 C   0  0  2  0  0  3  0  0  0  0  0  0
  162.0210  211.2550  149.6970 C   0  0  0  0  0  3  0  0  0  0  0  0
  160.6930  211.4750  152.4930 C   0  0  1  0  0  3  0  0  0  0  0  0
  162.1670  210.4220  150.7350 C   0  0  0  0  0  3  0  0  0  0  0  0
  161.1450  210.1510  151.8130 C   0  0  1  0  0  3  0  0  0  0  0  0
  160.9770  212.9110  148.2160 C   0  0  0  0  0  0  0  0  0  0  0  0
  162.2590  213.6430  148.0120 C   0  0  0  0  0  1  0  0  0  0  0  0
  160.0910  213.0000  147.3800 O   0  0  0  0  0  0  0  0  0  0  0  0
  161.9240  207.7720  152.1400 C   0  0  0  0  0  2  0  0  0  0  0  0
  160.8570  207.5650  151.0710 C   0  0  0  0  0  2  0  0  0  0  0  0
  161.5780  205.2370  151.5220 C   0  0  0  0  0  1  0  0  0  0  0  0
  160.9100  206.1510  150.5150 C   0  0  2  0  0  3  0  0  0  0  0  0
  161.6490  206.1370  149.2960 O   0  0  0  0  0  0  0  0  0  0  0  0
  160.9120  204.8670  145.9320 N   0  0  0  0  0  2  0  0  0  0  0  0
  161.0690  202.5220  146.5360 C   0  0  0  0  0  0  0  0  0  0  0  0
  161.5700  203.6050  145.6350 C   0  0  0  0  0  2  0  0  0  0  0  0
  161.7250  205.5940  146.9010 C   0  0  1  0  0  3  0  0  0  0  0  0
  161.1980  203.8880  148.6810 C   0  0  0  0  0  3  0  0  0  0  0  0
  161.5070  205.1460  148.3160 C   0  0  0  0  0  0  0  0  0  0  0  0
  160.9580  202.6810  147.8600 C   0  0  0  0  0  3  0  0  0  0  0  0
  163.0720  205.5940  146.5710 F   0  0  0  0  0  0  0  0  0  0  0  0
  160.7640  201.2060  145.9440 C   0  0  0  0  0  0  0  0  0  0  0  0
  161.2250  200.0070  146.5610 N   0  0  0  0  0  1  0  0  0  0  0  0
  160.0880  201.1290  144.8840 O   0  0  0  0  0  0  0  0  0  0  0  0
  1 19  1  6  0  0  0
  1  8  1  0  0  0  0
  2 13  1  0  0  0  0
  4  5  1  0  0  0  0
  6  4  2  0  0  0  0
  7  3  1  6  0  0  0
  7  9  1  0  0  0  0
  8  7  1  0  0  0  0
  8  4  1  0  0  0  0
  9  5  1  0  0  0  0
 10  2  1  0  0  0  0
 11 16  1  6  0  0  0
 11 12  1  0  0  0  0
 11 10  1  0  0  0  0
 12 14  2  0  0  0  0
 13  3  1  1  0  0  0
 15 14  1  6  0  0  0
 15 13  1  0  0  0  0
 15  1  1  0  0  0  0
 17 16  1  0  0  0  0
 18 16  2  0  0  0  0
 20 19  1  0  0  0  0
 22 20  1  0  0  0  0
 22 21  1  1  0  0  0
 23 22  1  0  0  0  0
 24 27  1  0  0  0  0
 25 30  2  0  0  0  0
 26 24  1  0  0  0  0
 26 25  1  0  0  0  0
 27 31  1  6  0  0  0
 27 29  1  0  0  0  0
 29 28  2  0  0  0  0
 29 23  1  0  0  0  0
 30 28  1  0  0  0  0
 32 25  1  0  0  0  0
 32 33  1  0  0  0  0
 34 32  2  0  0  0  0
M  END
>  <MODEL>
6

>  <REMARK>
 VINA RESULT:      -7.6      1.798      2.550
  Name = 
  7 active torsions:
  status: ('A' for Active; 'I' for Inactive)
    1  A    between atoms: C_1  and  C_9
    2  A    between atoms: C_3  and  C_25
    3  A    between atoms: O_6  and  C_28
    4  A    between atoms: O_6  and  C_30
    5  A    between atoms: C_7  and  C_11
    6  A    between atoms: C_8  and  C_9
    7  A    between atoms: C_8  and  C_30
                            x       y       z     vdW  Elec       q    Type
                         _______ _______ _______ _____ _____    ______ ____

>  <TORSDO>
F 7

$$$$
=
 OpenBabel11062409293D

 34 37  0  0  1  0  0  0  0  0999 V2000
  159.1100  213.0850  152.8000 C   0  0  2  0  0  3  0  0  0  0  0  0
  157.3380  213.6530  149.4470 N   0  0  0  0  0  2  0  0  0  0  0  0
  156.5290  213.9830  151.6810 C   0  0  0  0  0  2  0  0  0  0  0  0
  157.5570  212.6560  154.8300 C   0  0  0  0  0  0  0  0  0  0  0  0
  156.2420  213.5220  155.6590 S   0  0  0  0  0  0  0  0  0  0  0  0
  157.7380  211.3710  155.1080 C   0  0  0  0  0  2  0  0  0  0  0  0
  156.9010  214.2000  153.1300 C   0  0  2  0  0  3  0  0  0  0  0  0
  157.8350  213.1670  153.5260 N   0  0  0  0  0  0  0  0  0  0  0  0
  155.6730  214.0790  154.0210 C   0  0  0  0  0  2  0  0  0  0  0  0
  158.2450  214.2390  148.4720 C   0  0  0  0  0  2  0  0  0  0  0  0
  159.4230  213.3020  148.2580 C   0  0  2  0  0  3  0  0  0  0  0  0
  160.4560  213.5070  149.3230 C   0  0  0  0  0  3  0  0  0  0  0  0
  157.7710  214.0200  150.7910 C   0  0  1  0  0  3  0  0  0  0  0  0
  160.2130  213.4010  150.6350 C   0  0  0  0  0  3  0  0  0  0  0  0
  158.8890  213.0520  151.2730 C   0  0  1  0  0  3  0  0  0  0  0  0
  160.0280  213.5210  146.9060 C   0  0  0  0  0  0  0  0  0  0  0  0
  159.3850  212.9120  145.7080 C   0  0  0  0  0  1  0  0  0  0  0  0
  161.0410  214.1910  146.7750 O   0  0  0  0  0  0  0  0  0  0  0  0
  159.9850  211.9090  153.2390 C   0  0  0  0  0  2  0  0  0  0  0  0
  159.7130  210.6730  152.3890 C   0  0  0  0  0  2  0  0  0  0  0  0
  161.6940  210.0490  153.7410 C   0  0  0  0  0  1  0  0  0  0  0  0
  160.6800  209.5510  152.7310 C   0  0  2  0  0  3  0  0  0  0  0  0
  161.3540  209.1160  151.5540 O   0  0  0  0  0  0  0  0  0  0  0  0
  160.4540  206.5730  149.0650 N   0  0  0  0  0  2  0  0  0  0  0  0
  161.0530  204.6760  150.4540 C   0  0  0  0  0  0  0  0  0  0  0  0
  161.2680  205.3710  149.1490 C   0  0  0  0  0  2  0  0  0  0  0  0
  161.2440  207.7000  149.5500 C   0  0  1  0  0  3  0  0  0  0  0  0
  161.2040  206.7700  151.8930 C   0  0  0  0  0  3  0  0  0  0  0  0
  161.2630  207.8140  151.0450 C   0  0  0  0  0  0  0  0  0  0  0  0
  161.0700  205.3220  151.6260 C   0  0  0  0  0  3  0  0  0  0  0  0
  162.5270  207.7140  149.0230 F   0  0  0  0  0  0  0  0  0  0  0  0
  160.8980  203.2090  150.4480 C   0  0  0  0  0  0  0  0  0  0  0  0
  160.5040  202.5240  149.2610 N   0  0  0  0  0  1  0  0  0  0  0  0
  161.1140  202.5440  151.4960 O   0  0  0  0  0  0  0  0  0  0  0  0
  1 19  1  1  0  0  0
  1  8  1  0  0  0  0
  2 13  1  0  0  0  0
  4  6  2  0  0  0  0
  4  5  1  0  0  0  0
  7  3  1  6  0  0  0
  7  8  1  0  0  0  0
  7  9  1  0  0  0  0
  8  4  1  0  0  0  0
  9  5  1  0  0  0  0
 10  2  1  0  0  0  0
 11 16  1  6  0  0  0
 11 10  1  0  0  0  0
 11 12  1  0  0  0  0
 12 14  2  0  0  0  0
 13 15  1  0  0  0  0
 13  3  1  1  0  0  0
 15 14  1  6  0  0  0
 15  1  1  0  0  0  0
 17 16  1  0  0  0  0
 18 16  2  0  0  0  0
 20 22  1  0  0  0  0
 20 19  1  0  0  0  0
 22 21  1  1  0  0  0
 23 22  1  0  0  0  0
 24 26  1  0  0  0  0
 24 27  1  0  0  0  0
 25 30  2  0  0  0  0
 26 25  1  0  0  0  0
 27 31  1  1  0  0  0
 27 29  1  0  0  0  0
 29 23  1  0  0  0  0
 29 28  2  0  0  0  0
 30 28  1  0  0  0  0
 32 25  1  0  0  0  0
 32 34  2  0  0  0  0
 33 32  1  0  0  0  0
M  END
>  <MODEL>
7

>  <REMARK>
 VINA RESULT:      -7.4      2.701      4.217
  Name = 
  7 active torsions:
  status: ('A' for Active; 'I' for Inactive)
    1  A    between atoms: C_1  and  C_9
    2  A    between atoms: C_3  and  C_25
    3  A    between atoms: O_6  and  C_28
    4  A    between atoms: O_6  and  C_30
    5  A    between atoms: C_7  and  C_11
    6  A    between atoms: C_8  and  C_9
    7  A    between atoms: C_8  and  C_30
                            x       y       z     vdW  Elec       q    Type
                         _______ _______ _______ _____ _____    ______ ____

>  <TORSDO>
F 7

$$$$
=
 OpenBabel11062409293D

 34 37  0  0  1  0  0  0  0  0999 V2000
  161.5760  211.9260  150.3060 C   0  0  2  0  0  3  0  0  0  0  0  0
  159.5640  213.6830  147.5530 N   0  0  0  0  0  2  0  0  0  0  0  0
  159.1610  213.5810  149.9170 C   0  0  0  0  0  2  0  0  0  0  0  0
  160.2480  211.3090  152.4450 C   0  0  0  0  0  0  0  0  0  0  0  0
  159.3020  212.1780  153.6750 S   0  0  0  0  0  0  0  0  0  0  0  0
  160.1500  209.9870  152.3930 C   0  0  0  0  0  2  0  0  0  0  0  0
  159.7630  213.3380  151.2820 C   0  0  2  0  0  3  0  0  0  0  0  0
  160.4650  212.0720  151.2570 N   0  0  0  0  0  0  0  0  0  0  0  0
  158.6710  213.2400  152.3380 C   0  0  0  0  0  2  0  0  0  0  0  0
  160.4470  214.3050  146.5810 C   0  0  0  0  0  2  0  0  0  0  0  0
  161.3260  213.2380  145.9480 C   0  0  2  0  0  3  0  0  0  0  0  0
  162.5110  212.9500  146.8200 C   0  0  0  0  0  3  0  0  0  0  0  0
  160.2460  213.5950  148.8400 C   0  0  1  0  0  3  0  0  0  0  0  0
  162.4260  212.5610  148.0970 C   0  0  0  0  0  3  0  0  0  0  0  0
  161.1530  212.3320  148.8780 C   0  0  1  0  0  3  0  0  0  0  0  0
  161.7820  213.6720  144.5900 C   0  0  0  0  0  0  0  0  0  0  0  0
  163.1580  213.3280  144.1330 C   0  0  0  0  0  1  0  0  0  0  0  0
  161.0410  214.3050  143.8530 O   0  0  0  0  0  0  0  0  0  0  0  0
  162.1930  210.5250  150.3020 C   0  0  0  0  0  2  0  0  0  0  0  0
  161.7730  209.7430  149.0630 C   0  0  0  0  0  2  0  0  0  0  0  0
  162.5860  207.8940  150.4990 C   0  0  0  0  0  1  0  0  0  0  0  0
  161.6420  208.2600  149.3720 C   0  0  2  0  0  3  0  0  0  0  0  0
  161.9630  207.4930  148.2150 O   0  0  0  0  0  0  0  0  0  0  0  0
  161.2090  204.3570  146.4630 N   0  0  0  0  0  2  0  0  0  0  0  0
  161.1120  202.9960  148.4690 C   0  0  0  0  0  0  0  0  0  0  0  0
  161.7460  203.1810  147.1290 C   0  0  0  0  0  2  0  0  0  0  0  0
  162.0590  205.4980  146.7850 C   0  0  1  0  0  3  0  0  0  0  0  0
  161.3090  205.4290  149.1910 C   0  0  0  0  0  3  0  0  0  0  0  0
  161.7540  206.1120  148.1190 C   0  0  0  0  0  0  0  0  0  0  0  0
  160.9760  203.9970  149.3470 C   0  0  0  0  0  3  0  0  0  0  0  0
  163.4090  205.2060  146.6570 F   0  0  0  0  0  0  0  0  0  0  0  0
  160.6940  201.6370  148.8630 C   0  0  0  0  0  0  0  0  0  0  0  0
  161.1140  200.5000  148.1110 N   0  0  0  0  0  1  0  0  0  0  0  0
  159.9610  201.4670  149.8730 O   0  0  0  0  0  0  0  0  0  0  0  0
  1 19  1  6  0  0  0
  1  8  1  0  0  0  0
  2 13  1  0  0  0  0
  4  5  1  0  0  0  0
  6  4  2  0  0  0  0
  7  3  1  6  0  0  0
  7  9  1  0  0  0  0
  8  7  1  0  0  0  0
  8  4  1  0  0  0  0
  9  5  1  0  0  0  0
 10  2  1  0  0  0  0
 11 16  1  6  0  0  0
 11 10  1  0  0  0  0
 11 12  1  0  0  0  0
 12 14  2  0  0  0  0
 13 15  1  0  0  0  0
 13  3  1  1  0  0  0
 15 14  1  6  0  0  0
 15  1  1  0  0  0  0
 17 16  1  0  0  0  0
 18 16  2  0  0  0  0
 20 22  1  0  0  0  0
 20 19  1  0  0  0  0
 22 21  1  1  0  0  0
 23 22  1  0  0  0  0
 24 27  1  0  0  0  0
 24 26  1  0  0  0  0
 25 32  1  0  0  0  0
 25 30  2  0  0  0  0
 26 25  1  0  0  0  0
 27 31  1  1  0  0  0
 27 29  1  0  0  0  0
 28 30  1  0  0  0  0
 29 23  1  0  0  0  0
 29 28  2  0  0  0  0
 32 34  2  0  0  0  0
 33 32  1  0  0  0  0
M  END
>  <MODEL>
8

>  <REMARK>
 VINA RESULT:      -7.1      3.178      4.554
  Name = 
  7 active torsions:
  status: ('A' for Active; 'I' for Inactive)
    1  A    between atoms: C_1  and  C_9
    2  A    between atoms: C_3  and  C_25
    3  A    between atoms: O_6  and  C_28
    4  A    between atoms: O_6  and  C_30
    5  A    between atoms: C_7  and  C_11
    6  A    between atoms: C_8  and  C_9
    7  A    between atoms: C_8  and  C_30
                            x       y       z     vdW  Elec       q    Type
                         _______ _______ _______ _____ _____    ______ ____

>  <TORSDO>
F 7

$$$$
=
 OpenBabel11062409293D

 34 37  0  0  1  0  0  0  0  0999 V2000
  160.9650  211.0210  150.5120 C   0  0  2  0  0  3  0  0  0  0  0  0
  160.2060  211.8730  154.1730 N   0  0  0  0  0  2  0  0  0  0  0  0
  159.7100  213.1110  152.1780 C   0  0  0  0  0  2  0  0  0  0  0  0
  161.1100  213.0430  148.8970 C   0  0  0  0  0  0  0  0  0  0  0  0
  160.0370  214.3640  148.3790 S   0  0  0  0  0  0  0  0  0  0  0  0
  162.4020  213.1280  148.6040 C   0  0  0  0  0  2  0  0  0  0  0  0
  159.5210  213.0510  150.6800 C   0  0  2  0  0  3  0  0  0  0  0  0
  160.6750  212.4000  150.0960 N   0  0  0  0  0  0  0  0  0  0  0  0
  159.4360  214.4530  150.0950 C   0  0  0  0  0  2  0  0  0  0  0  0
  159.7850  210.6900  154.9060 C   0  0  0  0  0  2  0  0  0  0  0  0
  160.8950  209.6510  154.8590 C   0  0  2  0  0  3  0  0  0  0  0  0
  160.8260  208.8690  153.5830 C   0  0  0  0  0  3  0  0  0  0  0  0
  159.8810  211.7080  152.7600 C   0  0  1  0  0  3  0  0  0  0  0  0
  160.8660  209.4180  152.3630 C   0  0  0  0  0  3  0  0  0  0  0  0
  160.9970  210.8900  152.0490 C   0  0  1  0  0  3  0  0  0  0  0  0
  160.7980  208.7280  156.0330 C   0  0  0  0  0  0  0  0  0  0  0  0
  160.4020  207.3080  155.8180 C   0  0  0  0  0  1  0  0  0  0  0  0
  161.0390  209.1240  157.1630 O   0  0  0  0  0  0  0  0  0  0  0  0
  162.2510  210.4590  149.9010 C   0  0  0  0  0  2  0  0  0  0  0  0
  161.9560  209.6620  148.6360 C   0  0  0  0  0  2  0  0  0  0  0  0
  162.7050  207.6920  149.9390 C   0  0  0  0  0  1  0  0  0  0  0  0
  161.6670  208.2050  148.9630 C   0  0  2  0  0  3  0  0  0  0  0  0
  161.7080  207.4240  147.7720 O   0  0  0  0  0  0  0  0  0  0  0  0
  161.3930  204.1240  146.1950 N   0  0  0  0  0  2  0  0  0  0  0  0
  161.2070  202.8950  148.2780 C   0  0  0  0  0  0  0  0  0  0  0  0
  161.9550  203.0470  146.9940 C   0  0  0  0  0  2  0  0  0  0  0  0
  162.1110  205.3550  146.5090 C   0  0  1  0  0  3  0  0  0  0  0  0
  161.1300  205.3790  148.8320 C   0  0  0  0  0  3  0  0  0  0  0  0
  161.6230  206.0260  147.7590 C   0  0  0  0  0  0  0  0  0  0  0  0
  160.9020  203.9360  149.0630 C   0  0  0  0  0  3  0  0  0  0  0  0
  163.4860  205.1760  146.5330 F   0  0  0  0  0  0  0  0  0  0  0  0
  160.8650  201.5340  148.7320 C   0  0  0  0  0  0  0  0  0  0  0  0
  159.5960  201.2600  149.3200 N   0  0  0  0  0  1  0  0  0  0  0  0
  161.6960  200.5950  148.6020 O   0  0  0  0  0  0  0  0  0  0  0  0
  1 19  1  6  0  0  0
  1 15  1  0  0  0  0
  2 10  1  0  0  0  0
  4  8  1  0  0  0  0
  5  4  1  0  0  0  0
  5  9  1  0  0  0  0
  6  4  2  0  0  0  0
  7  9  1  6  0  0  0
  7  3  1  0  0  0  0
  8  1  1  0  0  0  0
  8  7  1  0  0  0  0
 11 10  1  0  0  0  0
 11 16  1  1  0  0  0
 12 11  1  0  0  0  0
 13  3  1  6  0  0  0
 13  2  1  0  0  0  0
 14 12  2  0  0  0  0
 15 14  1  6  0  0  0
 15 13  1  0  0  0  0
 16 18  2  0  0  0  0
 17 16  1  0  0  0  0
 20 22  1  0  0  0  0
 20 19  1  0  0  0  0
 22 21  1  1  0  0  0
 23 22  1  0  0  0  0
 24 27  1  0  0  0  0
 24 26  1  0  0  0  0
 25 32  1  0  0  0  0
 25 30  2  0  0  0  0
 26 25  1  0  0  0  0
 27 31  1  1  0  0  0
 27 29  1  0  0  0  0
 28 30  1  0  0  0  0
 29 23  1  0  0  0  0
 29 28  2  0  0  0  0
 32 33  1  0  0  0  0
 34 32  2  0  0  0  0
M  END
>  <MODEL>
9

>  <REMARK>
 VINA RESULT:      -7.0      2.816      4.913
  Name = 
  7 active torsions:
  status: ('A' for Active; 'I' for Inactive)
    1  A    between atoms: C_1  and  C_9
    2  A    between atoms: C_3  and  C_25
    3  A    between atoms: O_6  and  C_28
    4  A    between atoms: O_6  and  C_30
    5  A    between atoms: C_7  and  C_11
    6  A    between atoms: C_8  and  C_9
    7  A    between atoms: C_8  and  C_30
                            x       y       z     vdW  Elec       q    Type
                         _______ _______ _______ _____ _____    ______ ____

>  <TORSDO>
F 7

$$$$
