=
 OpenBabel11052423153D

 27 31  0  0  1  0  0  0  0  0999 V2000
  160.9240  207.0540  152.3500 N   0  0  0  0  0  2  0  0  0  0  0  0
  161.0870  209.4900  152.4880 C   0  0  0  0  0  0  0  0  0  0  0  0
  162.6730  208.8740  150.6540 C   0  0  0  0  0  2  0  0  0  0  0  0
  159.9770  213.1570  150.5610 C   0  0  0  0  0  2  0  0  0  0  0  0
  160.4070  214.4530  148.6050 O   0  0  0  0  0  0  0  0  0  0  0  0
  160.1280  210.3570  153.0300 C   0  0  0  0  0  3  0  0  0  0  0  0
  161.9460  211.3660  149.3640 N   0  0  0  0  0  0  0  0  0  0  0  0
  161.5930  206.1770  148.2480 C   0  0  0  0  0  0  0  0  0  0  0  0
  161.6540  212.4550  148.7220 C   0  0  0  0  0  3  0  0  0  0  0  0
  161.7890  205.8720  146.9090 O   0  0  0  0  0  1  0  0  0  0  0  0
  161.3400  211.0170  150.6180 C   0  0  0  0  0  0  0  0  0  0  0  0
  161.4420  208.1720  153.1330 C   0  0  1  0  0  3  0  0  0  0  0  0
  160.6710  213.4080  149.2550 C   0  0  0  0  0  0  0  0  0  0  0  0
  160.3830  211.8640  151.2110 C   0  0  0  0  0  0  0  0  0  0  0  0
  161.1950  206.7930  150.9620 C   0  0  0  0  0  0  0  0  0  0  0  0
  161.6890  209.8230  151.2680 C   0  0  0  0  0  0  0  0  0  0  0  0
  162.1790  207.3190  148.7960 C   0  0  0  0  0  3  0  0  0  0  0  0
  159.8070  211.5120  152.3910 N   0  0  0  0  0  0  0  0  0  0  0  0
  160.8110  205.3440  149.0470 C   0  0  0  0  0  3  0  0  0  0  0  0
  160.6140  205.6530  150.3950 C   0  0  0  0  0  3  0  0  0  0  0  0
  161.9890  207.6420  150.1440 C   0  0  0  0  0  0  0  0  0  0  0  0
  160.2980  207.7690  157.2610 C   0  0  0  0  0  3  0  0  0  0  0  0
  161.0410  208.0550  154.5750 C   0  0  0  0  0  0  0  0  0  0  0  0
  160.0920  207.0950  154.9430 C   0  0  0  0  0  3  0  0  0  0  0  0
  159.7190  206.9540  156.2840 C   0  0  0  0  0  3  0  0  0  0  0  0
  161.2520  208.7250  156.8990 C   0  0  0  0  0  3  0  0  0  0  0  0
  161.6250  208.8670  155.5600 C   0  0  0  0  0  3  0  0  0  0  0  0
  1 12  1  0  0  0  0
  2  6  1  0  0  0  0
  2 12  1  0  0  0  0
  3 16  1  0  0  0  0
  4 14  1  0  0  0  0
  5 13  2  0  0  0  0
  7 11  1  0  0  0  0
  8 17  2  0  0  0  0
  8 19  1  0  0  0  0
  9 13  1  0  0  0  0
  9  7  2  0  0  0  0
 10  8  1  0  0  0  0
 11 14  2  0  0  0  0
 11 16  1  0  0  0  0
 12 23  1  1  0  0  0
 13  4  1  0  0  0  0
 14 18  1  0  0  0  0
 15  1  1  0  0  0  0
 16  2  2  0  0  0  0
 17 21  1  0  0  0  0
 18  6  2  0  0  0  0
 19 20  2  0  0  0  0
 20 15  1  0  0  0  0
 21  3  1  0  0  0  0
 21 15  2  0  0  0  0
 23 24  2  0  0  0  0
 23 27  1  0  0  0  0
 24 25  1  0  0  0  0
 25 22  2  0  0  0  0
 26 22  1  0  0  0  0
 27 26  2  0  0  0  0
M  END
>  <MODEL>
1

>  <REMARK>
 VINA RESULT:      -7.8      0.000      0.000
  Name = 
  1 active torsions:
  status: ('A' for Active; 'I' for Inactive)
    1  A    between atoms: C_9  and  C_15
                            x       y       z     vdW  Elec       q    Type
                         _______ _______ _______ _____ _____    ______ ____

>  <TORSDO>
F 1

$$$$
=
 OpenBabel11052423153D

 27 31  0  0  1  0  0  0  0  0999 V2000
  160.7250  211.7860  150.6490 N   0  0  0  0  0  2  0  0  0  0  0  0
  161.8030  209.7180  149.9130 C   0  0  0  0  0  0  0  0  0  0  0  0
  162.1590  209.7450  152.3900 C   0  0  0  0  0  2  0  0  0  0  0  0
  161.4200  205.4480  149.8180 C   0  0  0  0  0  2  0  0  0  0  0  0
  161.4530  203.5290  151.2360 O   0  0  0  0  0  0  0  0  0  0  0  0
  161.5370  209.0190  148.7280 C   0  0  0  0  0  3  0  0  0  0  0  0
  161.9290  206.8560  152.3230 N   0  0  0  0  0  0  0  0  0  0  0  0
  159.2910  210.9030  154.5490 C   0  0  0  0  0  0  0  0  0  0  0  0
  161.8180  205.5640  152.3700 C   0  0  0  0  0  3  0  0  0  0  0  0
  158.7970  210.6290  155.8160 O   0  0  0  0  0  1  0  0  0  0  0  0
  161.8070  207.6020  151.1030 C   0  0  0  0  0  0  0  0  0  0  0  0
  161.8860  211.2250  149.9630 C   0  0  1  0  0  3  0  0  0  0  0  0
  161.5590  204.7810  151.1550 C   0  0  0  0  0  0  0  0  0  0  0  0
  161.5560  206.9430  149.8830 C   0  0  0  0  0  0  0  0  0  0  0  0
  160.2910  211.4640  151.9820 C   0  0  0  0  0  0  0  0  0  0  0  0
  161.9310  209.0000  151.1090 C   0  0  0  0  0  0  0  0  0  0  0  0
  160.4210  210.2320  154.0800 C   0  0  0  0  0  3  0  0  0  0  0  0
  161.4280  207.6660  148.7390 N   0  0  0  0  0  0  0  0  0  0  0  0
  158.6610  211.8510  153.7440 C   0  0  0  0  0  3  0  0  0  0  0  0
  159.1580  212.1270  152.4690 C   0  0  0  0  0  3  0  0  0  0  0  0
  160.9300  210.4960  152.8040 C   0  0  0  0  0  0  0  0  0  0  0  0
  162.4440  213.1580  146.1600 C   0  0  0  0  0  3  0  0  0  0  0  0
  162.0960  211.8820  148.6300 C   0  0  0  0  0  0  0  0  0  0  0  0
  160.9840  212.3130  147.8990 C   0  0  0  0  0  3  0  0  0  0  0  0
  161.1570  212.9470  146.6640 C   0  0  0  0  0  3  0  0  0  0  0  0
  163.5590  212.7360  146.8900 C   0  0  0  0  0  3  0  0  0  0  0  0
  163.3870  212.1020  148.1240 C   0  0  0  0  0  3  0  0  0  0  0  0
  1 15  1  0  0  0  0
  2 12  1  0  0  0  0
  2 16  1  0  0  0  0
  3 21  1  0  0  0  0
  4 14  1  0  0  0  0
  4 13  1  0  0  0  0
  6 18  1  0  0  0  0
  6  2  2  0  0  0  0
  7  9  2  0  0  0  0
  8 10  1  0  0  0  0
 11 16  2  0  0  0  0
 11  7  1  0  0  0  0
 12 23  1  6  0  0  0
 12  1  1  0  0  0  0
 13  5  2  0  0  0  0
 13  9  1  0  0  0  0
 14 11  1  0  0  0  0
 15 20  2  0  0  0  0
 15 21  1  0  0  0  0
 16  3  1  0  0  0  0
 17  8  1  0  0  0  0
 18 14  2  0  0  0  0
 19  8  2  0  0  0  0
 20 19  1  0  0  0  0
 21 17  2  0  0  0  0
 22 25  2  0  0  0  0
 22 26  1  0  0  0  0
 24 23  2  0  0  0  0
 25 24  1  0  0  0  0
 26 27  2  0  0  0  0
 27 23  1  0  0  0  0
M  END
>  <MODEL>
2

>  <REMARK>
 VINA RESULT:      -6.7      2.669      7.427
  Name = 
  1 active torsions:
  status: ('A' for Active; 'I' for Inactive)
    1  A    between atoms: C_9  and  C_15
                            x       y       z     vdW  Elec       q    Type
                         _______ _______ _______ _____ _____    ______ ____

>  <TORSDO>
F 1

$$$$
=
 OpenBabel11052423153D

 27 31  0  0  1  0  0  0  0  0999 V2000
  160.8750  209.5680  152.4460 N   0  0  0  0  0  2  0  0  0  0  0  0
  161.4700  207.8420  150.8190 C   0  0  0  0  0  0  0  0  0  0  0  0
  162.3410  206.9590  152.9920 C   0  0  0  0  0  2  0  0  0  0  0  0
  160.4760  203.9190  149.3990 C   0  0  0  0  0  2  0  0  0  0  0  0
  160.5350  201.6210  150.0390 O   0  0  0  0  0  0  0  0  0  0  0  0
  160.8640  207.6310  149.5730 C   0  0  0  0  0  3  0  0  0  0  0  0
  161.6950  204.3040  152.0220 N   0  0  0  0  0  0  0  0  0  0  0  0
  160.1860  207.4310  156.0520 C   0  0  0  0  0  0  0  0  0  0  0  0
  161.4160  203.0900  151.6610 C   0  0  0  0  0  3  0  0  0  0  0  0
  159.9370  206.7500  157.2350 O   0  0  0  0  0  1  0  0  0  0  0  0
  161.4260  205.4440  151.1920 C   0  0  0  0  0  0  0  0  0  0  0  0
  161.7730  209.2240  151.3470 C   0  0  1  0  0  3  0  0  0  0  0  0
  160.7980  202.8100  150.3580 C   0  0  0  0  0  0  0  0  0  0  0  0
  160.8320  205.2810  149.9240 C   0  0  0  0  0  0  0  0  0  0  0  0
  160.6910  208.8150  153.6580 C   0  0  0  0  0  0  0  0  0  0  0  0
  161.7440  206.7370  151.6350 C   0  0  0  0  0  0  0  0  0  0  0  0
  161.0850  206.9080  155.1210 C   0  0  0  0  0  3  0  0  0  0  0  0
  160.5690  206.3720  149.1570 N   0  0  0  0  0  0  0  0  0  0  0  0
  159.5400  208.6390  155.7920 C   0  0  0  0  0  3  0  0  0  0  0  0
  159.7910  209.3240  154.6020 C   0  0  0  0  0  3  0  0  0  0  0  0
  161.3450  207.5810  153.9230 C   0  0  0  0  0  0  0  0  0  0  0  0
  161.8370  212.3580  148.4010 C   0  0  0  0  0  3  0  0  0  0  0  0
  161.7880  210.3010  150.3030 C   0  0  0  0  0  0  0  0  0  0  0  0
  161.2110  211.5420  150.5940 C   0  0  0  0  0  3  0  0  0  0  0  0
  161.2330  212.5680  149.6440 C   0  0  0  0  0  3  0  0  0  0  0  0
  162.4220  211.1220  148.1070 C   0  0  0  0  0  3  0  0  0  0  0  0
  162.4010  210.0970  149.0560 C   0  0  0  0  0  3  0  0  0  0  0  0
  1 15  1  0  0  0  0
  2 12  1  0  0  0  0
  2 16  1  0  0  0  0
  3 21  1  0  0  0  0
  4 14  1  0  0  0  0
  4 13  1  0  0  0  0
  5 13  2  0  0  0  0
  6  2  2  0  0  0  0
  8 10  1  0  0  0  0
  9  7  2  0  0  0  0
 11 16  2  0  0  0  0
 11  7  1  0  0  0  0
 12 23  1  6  0  0  0
 12  1  1  0  0  0  0
 13  9  1  0  0  0  0
 14 11  1  0  0  0  0
 15 21  2  0  0  0  0
 15 20  1  0  0  0  0
 16  3  1  0  0  0  0
 17  8  2  0  0  0  0
 18  6  1  0  0  0  0
 18 14  2  0  0  0  0
 19  8  1  0  0  0  0
 20 19  2  0  0  0  0
 21 17  1  0  0  0  0
 22 25  1  0  0  0  0
 23 24  1  0  0  0  0
 25 24  2  0  0  0  0
 26 22  2  0  0  0  0
 26 27  1  0  0  0  0
 27 23  2  0  0  0  0
M  END
>  <MODEL>
3

>  <REMARK>
 VINA RESULT:      -6.6      2.873      7.188
  Name = 
  1 active torsions:
  status: ('A' for Active; 'I' for Inactive)
    1  A    between atoms: C_9  and  C_15
                            x       y       z     vdW  Elec       q    Type
                         _______ _______ _______ _____ _____    ______ ____

>  <TORSDO>
F 1

$$$$
=
 OpenBabel11052423153D

 27 31  0  0  1  0  0  0  0  0999 V2000
  161.2530  208.3050  153.7950 N   0  0  0  0  0  2  0  0  0  0  0  0
  161.0430  209.0710  151.4830 C   0  0  0  0  0  0  0  0  0  0  0  0
  159.5820  210.6350  152.7790 C   0  0  0  0  0  2  0  0  0  0  0  0
  162.2100  212.1410  148.7230 C   0  0  0  0  0  2  0  0  0  0  0  0
  161.8800  214.4530  148.2400 O   0  0  0  0  0  0  0  0  0  0  0  0
  161.9520  208.8330  150.4430 C   0  0  0  0  0  3  0  0  0  0  0  0
  160.3480  212.7030  150.8980 N   0  0  0  0  0  0  0  0  0  0  0  0
  160.8530  211.8360  156.1220 C   0  0  0  0  0  0  0  0  0  0  0  0
  160.6610  213.6810  150.1050 C   0  0  0  0  0  3  0  0  0  0  0  0
  160.7440  212.9810  156.8990 O   0  0  0  0  0  1  0  0  0  0  0  0
  160.8800  211.3790  150.7460 C   0  0  0  0  0  0  0  0  0  0  0  0
  160.6700  208.0100  152.4900 C   0  0  1  0  0  3  0  0  0  0  0  0
  161.5940  213.4820  148.9880 C   0  0  0  0  0  0  0  0  0  0  0  0
  161.7850  211.0860  149.7070 C   0  0  0  0  0  0  0  0  0  0  0  0
  161.0720  209.5150  154.5510 C   0  0  0  0  0  0  0  0  0  0  0  0
  160.5110  210.3590  151.6360 C   0  0  0  0  0  0  0  0  0  0  0  0
  160.2150  211.7720  154.8820 C   0  0  0  0  0  3  0  0  0  0  0  0
  162.2930  209.8310  149.5870 N   0  0  0  0  0  0  0  0  0  0  0  0
  161.5970  210.7490  156.5790 C   0  0  0  0  0  3  0  0  0  0  0  0
  161.7060  209.5980  155.7960 C   0  0  0  0  0  3  0  0  0  0  0  0
  160.3170  210.6260  154.0860 C   0  0  0  0  0  0  0  0  0  0  0  0
  161.5270  203.9620  151.3120 C   0  0  0  0  0  3  0  0  0  0  0  0
  160.9830  206.6060  152.0610 C   0  0  0  0  0  0  0  0  0  0  0  0
  161.2980  205.6510  153.0330 C   0  0  0  0  0  3  0  0  0  0  0  0
  161.5720  204.3310  152.6590 C   0  0  0  0  0  3  0  0  0  0  0  0
  161.2060  204.9110  150.3370 C   0  0  0  0  0  3  0  0  0  0  0  0
  160.9310  206.2300  150.7100 C   0  0  0  0  0  3  0  0  0  0  0  0
  1 15  1  0  0  0  0
  2 16  1  0  0  0  0
  2 12  1  0  0  0  0
  3 21  1  0  0  0  0
  4 13  1  0  0  0  0
  4 14  1  0  0  0  0
  5 13  2  0  0  0  0
  6  2  2  0  0  0  0
  8 19  1  0  0  0  0
  8 10  1  0  0  0  0
  9  7  2  0  0  0  0
 11  7  1  0  0  0  0
 11 16  2  0  0  0  0
 12 23  1  6  0  0  0
 12  1  1  0  0  0  0
 13  9  1  0  0  0  0
 14 11  1  0  0  0  0
 15 20  1  0  0  0  0
 16  3  1  0  0  0  0
 17  8  2  0  0  0  0
 18 14  2  0  0  0  0
 18  6  1  0  0  0  0
 20 19  2  0  0  0  0
 21 15  2  0  0  0  0
 21 17  1  0  0  0  0
 22 25  1  0  0  0  0
 23 24  1  0  0  0  0
 25 24  2  0  0  0  0
 26 27  1  0  0  0  0
 26 22  2  0  0  0  0
 27 23  2  0  0  0  0
M  END
>  <MODEL>
4

>  <REMARK>
 VINA RESULT:      -6.2      2.290      5.267
  Name = 
  1 active torsions:
  status: ('A' for Active; 'I' for Inactive)
    1  A    between atoms: C_9  and  C_15
                            x       y       z     vdW  Elec       q    Type
                         _______ _______ _______ _____ _____    ______ ____

>  <TORSDO>
F 1

$$$$
=
 OpenBabel11052423153D

 27 31  0  0  1  0  0  0  0  0999 V2000
  161.3400  207.6250  153.6230 N   0  0  0  0  0  2  0  0  0  0  0  0
  161.1010  208.4850  151.3460 C   0  0  0  0  0  0  0  0  0  0  0  0
  159.8040  210.1010  152.7490 C   0  0  0  0  0  2  0  0  0  0  0  0
  162.3840  211.5590  148.6440 C   0  0  0  0  0  2  0  0  0  0  0  0
  162.2030  213.9050  148.2500 O   0  0  0  0  0  0  0  0  0  0  0  0
  161.9530  208.2200  150.2640 C   0  0  0  0  0  3  0  0  0  0  0  0
  160.6470  212.1750  150.9070 N   0  0  0  0  0  0  0  0  0  0  0  0
  161.2780  211.0910  156.0760 C   0  0  0  0  0  0  0  0  0  0  0  0
  161.0000  213.1560  150.1350 C   0  0  0  0  0  3  0  0  0  0  0  0
  161.2810  212.2130  156.8940 O   0  0  0  0  0  1  0  0  0  0  0  0
  161.0770  210.8220  150.6920 C   0  0  0  0  0  0  0  0  0  0  0  0
  160.6900  207.4180  152.3320 C   0  0  1  0  0  3  0  0  0  0  0  0
  161.8750  212.9310  148.9770 C   0  0  0  0  0  0  0  0  0  0  0  0
  161.9210  210.5040  149.6090 C   0  0  0  0  0  0  0  0  0  0  0  0
  161.2730  208.8170  154.4240 C   0  0  0  0  0  0  0  0  0  0  0  0
  160.6690  209.8000  151.5620 C   0  0  0  0  0  0  0  0  0  0  0  0
  160.5930  211.1160  154.8610 C   0  0  0  0  0  3  0  0  0  0  0  0
  162.3320  209.2210  149.4290 N   0  0  0  0  0  0  0  0  0  0  0  0
  161.9590  209.9400  156.4690 C   0  0  0  0  0  3  0  0  0  0  0  0
  161.9570  208.8120  155.6460 C   0  0  0  0  0  3  0  0  0  0  0  0
  160.5830  209.9940  154.0240 C   0  0  0  0  0  0  0  0  0  0  0  0
  161.2920  203.4100  150.8890 C   0  0  0  0  0  3  0  0  0  0  0  0
  160.8860  206.0110  151.8460 C   0  0  0  0  0  0  0  0  0  0  0  0
  160.7690  205.7390  150.4790 C   0  0  0  0  0  3  0  0  0  0  0  0
  160.9690  204.4400  150.0010 C   0  0  0  0  0  3  0  0  0  0  0  0
  161.4170  203.6770  152.2550 C   0  0  0  0  0  3  0  0  0  0  0  0
  161.2170  204.9750  152.7340 C   0  0  0  0  0  3  0  0  0  0  0  0
  1 15  1  0  0  0  0
  2 16  1  0  0  0  0
  2 12  1  0  0  0  0
  3 21  1  0  0  0  0
  4 13  1  0  0  0  0
  4 14  1  0  0  0  0
  5 13  2  0  0  0  0
  6  2  2  0  0  0  0
  8 19  1  0  0  0  0
  8 10  1  0  0  0  0
  9  7  2  0  0  0  0
 11  7  1  0  0  0  0
 11 16  2  0  0  0  0
 12 23  1  6  0  0  0
 12  1  1  0  0  0  0
 13  9  1  0  0  0  0
 14 11  1  0  0  0  0
 15 20  1  0  0  0  0
 16  3  1  0  0  0  0
 17  8  2  0  0  0  0
 18 14  2  0  0  0  0
 18  6  1  0  0  0  0
 20 19  2  0  0  0  0
 21 15  2  0  0  0  0
 21 17  1  0  0  0  0
 22 26  1  0  0  0  0
 23 27  1  0  0  0  0
 24 23  2  0  0  0  0
 25 24  1  0  0  0  0
 25 22  2  0  0  0  0
 26 27  2  0  0  0  0
M  END
>  <MODEL>
5

>  <REMARK>
 VINA RESULT:      -5.8      2.239      5.223
  Name = 
  1 active torsions:
  status: ('A' for Active; 'I' for Inactive)
    1  A    between atoms: C_9  and  C_15
                            x       y       z     vdW  Elec       q    Type
                         _______ _______ _______ _____ _____    ______ ____

>  <TORSDO>
F 1

$$$$
=
 OpenBabel11052423153D

 27 31  0  0  1  0  0  0  0  0999 V2000
  158.3730  213.7270  149.6230 N   0  0  0  0  0  2  0  0  0  0  0  0
  160.1450  212.7650  151.0070 C   0  0  0  0  0  0  0  0  0  0  0  0
  158.8840  214.2520  152.5750 C   0  0  0  0  0  2  0  0  0  0  0  0
  160.9740  209.8950  154.0850 C   0  0  0  0  0  2  0  0  0  0  0  0
  160.6020  209.4700  156.4030 O   0  0  0  0  0  0  0  0  0  0  0  0
  160.8470  211.5790  150.7520 C   0  0  0  0  0  3  0  0  0  0  0  0
  159.4680  212.3270  154.6630 N   0  0  0  0  0  0  0  0  0  0  0  0
  155.1220  214.2820  152.2990 C   0  0  0  0  0  0  0  0  0  0  0  0
  159.6760  211.5000  155.6410 C   0  0  0  0  0  3  0  0  0  0  0  0
  154.0410  214.4530  153.1530 O   0  0  0  0  0  1  0  0  0  0  0  0
  159.9410  212.0870  153.3290 C   0  0  0  0  0  0  0  0  0  0  0  0
  159.8030  213.7530  149.9180 C   0  0  1  0  0  3  0  0  0  0  0  0
  160.4220  210.2530  155.4330 C   0  0  0  0  0  0  0  0  0  0  0  0
  160.6660  210.9170  153.0260 C   0  0  0  0  0  0  0  0  0  0  0  0
  157.3090  213.9380  150.5670 C   0  0  0  0  0  0  0  0  0  0  0  0
  159.6840  213.0130  152.3060 C   0  0  0  0  0  0  0  0  0  0  0  0
  156.4230  214.3330  152.8020 C   0  0  0  0  0  3  0  0  0  0  0  0
  161.0930  210.6970  151.7550 N   0  0  0  0  0  0  0  0  0  0  0  0
  154.9090  214.0610  150.9390 C   0  0  0  0  0  3  0  0  0  0  0  0
  155.9970  213.8890  150.0810 C   0  0  0  0  0  3  0  0  0  0  0  0
  157.5230  214.1600  151.9550 C   0  0  0  0  0  0  0  0  0  0  0  0
  162.0820  213.3530  146.2900 C   0  0  0  0  0  3  0  0  0  0  0  0
  160.6170  213.6070  148.6650 C   0  0  0  0  0  0  0  0  0  0  0  0
  160.0570  212.9580  147.5600 C   0  0  0  0  0  3  0  0  0  0  0  0
  160.7880  212.8290  146.3750 C   0  0  0  0  0  3  0  0  0  0  0  0
  162.6440  214.0090  147.3900 C   0  0  0  0  0  3  0  0  0  0  0  0
  161.9130  214.1390  148.5740 C   0  0  0  0  0  3  0  0  0  0  0  0
  1 12  1  0  0  0  0
  1 15  1  0  0  0  0
  2 16  1  0  0  0  0
  4 13  1  0  0  0  0
  6  2  2  0  0  0  0
  6 18  1  0  0  0  0
  7  9  2  0  0  0  0
  8 17  1  0  0  0  0
  8 10  1  0  0  0  0
 11  7  1  0  0  0  0
 12 23  1  6  0  0  0
 12  2  1  0  0  0  0
 13  9  1  0  0  0  0
 13  5  2  0  0  0  0
 14 11  1  0  0  0  0
 14  4  1  0  0  0  0
 15 21  1  0  0  0  0
 16  3  1  0  0  0  0
 16 11  2  0  0  0  0
 18 14  2  0  0  0  0
 19  8  2  0  0  0  0
 20 15  2  0  0  0  0
 20 19  1  0  0  0  0
 21  3  1  0  0  0  0
 21 17  2  0  0  0  0
 22 25  2  0  0  0  0
 22 26  1  0  0  0  0
 24 23  2  0  0  0  0
 25 24  1  0  0  0  0
 26 27  2  0  0  0  0
 27 23  1  0  0  0  0
M  END
>  <MODEL>
6

>  <REMARK>
 VINA RESULT:      -5.1      3.982      8.210
  Name = 
  1 active torsions:
  status: ('A' for Active; 'I' for Inactive)
    1  A    between atoms: C_9  and  C_15
                            x       y       z     vdW  Elec       q    Type
                         _______ _______ _______ _____ _____    ______ ____

>  <TORSDO>
F 1

$$$$
=
 OpenBabel11052423153D

 27 31  0  0  1  0  0  0  0  0999 V2000
  159.3000  213.5000  147.0840 N   0  0  0  0  0  2  0  0  0  0  0  0
  161.0990  212.3850  148.3090 C   0  0  0  0  0  0  0  0  0  0  0  0
  160.0740  213.9210  149.9960 C   0  0  0  0  0  2  0  0  0  0  0  0
  161.9530  209.3950  151.2630 C   0  0  0  0  0  2  0  0  0  0  0  0
  161.7320  208.9460  153.5960 O   0  0  0  0  0  0  0  0  0  0  0  0
  161.6910  211.1580  147.9790 C   0  0  0  0  0  3  0  0  0  0  0  0
  160.6760  211.9140  151.9980 N   0  0  0  0  0  0  0  0  0  0  0  0
  156.3140  214.2240  150.0170 C   0  0  0  0  0  0  0  0  0  0  0  0
  160.8990  211.0530  152.9440 C   0  0  0  0  0  3  0  0  0  0  0  0
  155.3170  214.4520  150.9560 O   0  0  0  0  0  1  0  0  0  0  0  0
  161.0270  211.6710  150.6280 C   0  0  0  0  0  0  0  0  0  0  0  0
  160.7460  213.4190  147.2670 C   0  0  1  0  0  3  0  0  0  0  0  0
  161.5340  209.7610  152.6570 C   0  0  0  0  0  0  0  0  0  0  0  0
  161.6390  210.4600  150.2500 C   0  0  0  0  0  0  0  0  0  0  0  0
  158.3300  213.7660  148.1130 C   0  0  0  0  0  0  0  0  0  0  0  0
  160.7590  212.6360  149.6440 C   0  0  0  0  0  0  0  0  0  0  0  0
  157.6500  214.1710  150.4170 C   0  0  0  0  0  3  0  0  0  0  0  0
  161.9500  210.2390  148.9450 N   0  0  0  0  0  0  0  0  0  0  0  0
  155.9810  214.0490  148.6740 C   0  0  0  0  0  3  0  0  0  0  0  0
  156.9840  213.8200  147.7310 C   0  0  0  0  0  3  0  0  0  0  0  0
  158.6650  213.9400  149.4830 C   0  0  0  0  0  0  0  0  0  0  0  0
  162.7060  212.9460  143.4660 C   0  0  0  0  0  3  0  0  0  0  0  0
  161.4480  213.2430  145.9520 C   0  0  0  0  0  0  0  0  0  0  0  0
  160.7240  212.7790  144.8490 C   0  0  0  0  0  3  0  0  0  0  0  0
  161.3520  212.6280  143.6080 C   0  0  0  0  0  3  0  0  0  0  0  0
  163.4320  213.4180  144.5630 C   0  0  0  0  0  3  0  0  0  0  0  0
  162.8060  213.5690  145.8030 C   0  0  0  0  0  3  0  0  0  0  0  0
  1 12  1  0  0  0  0
  1 15  1  0  0  0  0
  2 16  1  0  0  0  0
  4 13  1  0  0  0  0
  6  2  2  0  0  0  0
  6 18  1  0  0  0  0
  7  9  2  0  0  0  0
  8 17  1  0  0  0  0
  8 10  1  0  0  0  0
 11  7  1  0  0  0  0
 12 23  1  6  0  0  0
 12  2  1  0  0  0  0
 13  9  1  0  0  0  0
 13  5  2  0  0  0  0
 14 11  1  0  0  0  0
 14  4  1  0  0  0  0
 15 21  1  0  0  0  0
 16  3  1  0  0  0  0
 16 11  2  0  0  0  0
 18 14  2  0  0  0  0
 19  8  2  0  0  0  0
 20 15  2  0  0  0  0
 20 19  1  0  0  0  0
 21  3  1  0  0  0  0
 21 17  2  0  0  0  0
 22 25  2  0  0  0  0
 22 26  1  0  0  0  0
 24 23  2  0  0  0  0
 25 24  1  0  0  0  0
 26 27  2  0  0  0  0
 27 23  1  0  0  0  0
M  END
>  <MODEL>
7

>  <REMARK>
 VINA RESULT:      -5.0      3.342      8.473
  Name = 
  1 active torsions:
  status: ('A' for Active; 'I' for Inactive)
    1  A    between atoms: C_9  and  C_15
                            x       y       z     vdW  Elec       q    Type
                         _______ _______ _______ _____ _____    ______ ____

>  <TORSDO>
F 1

$$$$
