=
 OpenBabel11062408223D

 32 37  0  0  1  0  0  0  0  0999 V2000
  161.7340  207.2100  151.7160 C   0  0  0  0  0  0  0  0  0  0  0  0
  161.4920  209.7430  151.9200 C   0  0  0  0  0  0  0  0  0  0  0  0
  161.6050  205.9330  152.2500 C   0  0  0  0  0  3  0  0  0  0  0  0
  161.3790  208.3910  152.4660 C   0  0  0  0  0  0  0  0  0  0  0  0
  161.1730  210.9440  152.7770 C   0  0  1  0  0  3  0  0  0  0  0  0
  159.6670  213.2760  147.3320 C   0  0  0  0  0  1  0  0  0  0  0  0
  161.9160  210.0090  150.5740 C   0  0  0  0  0  0  0  0  0  0  0  0
  160.0100  212.8180  149.6850 N   0  0  0  0  0  0  0  0  0  0  0  0
  160.7900  212.1360  150.6180 N   0  0  0  0  0  0  0  0  0  0  0  0
  160.8750  208.2240  153.7600 C   0  0  0  0  0  0  0  0  0  0  0  0
  162.6130  207.7420  149.1540 C   0  0  1  0  0  3  0  0  0  0  0  0
  160.3010  211.9400  151.9910 C   0  0  0  0  0  2  0  0  0  0  0  0
  160.4770  209.3620  154.5350 N   0  0  0  0  0  0  0  0  0  0  0  0
  160.7460  206.9360  154.2980 C   0  0  0  0  0  3  0  0  0  0  0  0
  162.2510  208.8640  149.9140 C   0  0  0  0  0  0  0  0  0  0  0  0
  162.1630  207.5160  150.4630 C   0  0  0  0  0  0  0  0  0  0  0  0
  161.9220  211.4090  150.0420 C   0  0  2  0  0  3  0  0  0  0  0  0
  160.5880  210.5990  154.1400 C   0  0  0  0  0  0  0  0  0  0  0  0
  161.1100  205.8020  153.5530 C   0  0  0  0  0  3  0  0  0  0  0  0
  160.3710  212.6220  148.4660 C   0  0  0  0  0  0  0  0  0  0  0  0
  161.7300  211.4860  148.2220 S   0  0  0  0  0  0  0  0  0  0  0  0
  160.2050  211.6030  155.0360 O   0  0  0  0  0  0  0  0  0  0  0  0
  160.8010  211.7780  156.3130 C   0  0  0  0  0  1  0  0  0  0  0  0
  161.5050  207.4070  148.1720 C   0  0  0  0  0  2  0  0  0  0  0  0
  161.9270  205.0950  147.2250 C   0  0  0  0  0  0  0  0  0  0  0  0
  162.7660  205.5500  146.4040 O   0  0  0  0  0  0  0  0  0  0  0  0
  161.6440  203.6950  147.2330 N   0  0  0  0  0  2  0  0  0  0  0  0
  161.2690  205.9710  148.1470 N   0  0  0  0  0  2  0  0  0  0  0  0
  161.0810  203.3180  149.5980 C   0  0  0  0  0  1  0  0  0  0  0  0
  160.6770  203.0940  148.1470 C   0  0  2  0  0  3  0  0  0  0  0  0
  160.4360  201.7330  147.8530 O   0  0  0  0  0  0  0  0  0  0  0  0
  161.1530  200.9310  148.7580 C   0  0  0  0  0  1  0  0  0  0  0  0
  1  3  2  0  0  0  0
  1  4  1  0  0  0  0
  2  4  1  0  0  0  0
  2  5  1  0  0  0  0
  3 19  1  0  0  0  0
  4 10  2  0  0  0  0
  5 12  1  6  0  0  0
  5 18  1  0  0  0  0
  6 20  1  0  0  0  0
  7  2  2  0  0  0  0
  8  9  1  0  0  0  0
  9 12  1  0  0  0  0
 10 14  1  0  0  0  0
 10 13  1  0  0  0  0
 11 24  1  6  0  0  0
 11 15  1  0  0  0  0
 11 16  1  0  0  0  0
 15 16  2  0  0  0  0
 15  7  1  0  0  0  0
 16  1  1  0  0  0  0
 17 21  1  6  0  0  0
 17  7  1  0  0  0  0
 17  9  1  0  0  0  0
 18 13  2  0  0  0  0
 18 22  1  0  0  0  0
 19 14  2  0  0  0  0
 20  8  2  0  0  0  0
 21 20  1  0  0  0  0
 22 23  1  0  0  0  0
 25 27  1  0  0  0  0
 25 28  1  0  0  0  0
 26 25  2  0  0  0  0
 27 30  1  0  0  0  0
 28 24  1  0  0  0  0
 30 29  1  1  0  0  0
 31 30  1  0  0  0  0
 31 32  1  0  0  0  0
M  END
>  <MODEL>
1

>  <REMARK>
 VINA RESULT:      -8.1      0.000      0.000
  Name = 
  5 active torsions:
  status: ('A' for Active; 'I' for Inactive)
    1  A    between atoms: O_13  and  C_29
    2  A    between atoms: O_15  and  C_26
    3  A    between atoms: C_16  and  C_23
    4  A    between atoms: N_19  and  C_26
    5  A    between atoms: N_22  and  C_23
                            x       y       z     vdW  Elec       q    Type
                         _______ _______ _______ _____ _____    ______ ____

>  <TORSDO>
F 5

$$$$
=
 OpenBabel11062408223D

 32 37  0  0  1  0  0  0  0  0999 V2000
  161.6350  207.0200  151.7080 C   0  0  0  0  0  0  0  0  0  0  0  0
  161.5550  209.5500  152.0420 C   0  0  0  0  0  0  0  0  0  0  0  0
  161.4610  205.7280  152.1890 C   0  0  0  0  0  3  0  0  0  0  0  0
  161.3920  208.1810  152.5300 C   0  0  0  0  0  0  0  0  0  0  0  0
  161.3550  210.7230  152.9700 C   0  0  1  0  0  3  0  0  0  0  0  0
  159.6940  213.4020  147.7350 C   0  0  0  0  0  1  0  0  0  0  0  0
  161.9200  209.8580  150.6870 C   0  0  0  0  0  0  0  0  0  0  0  0
  160.1370  212.8100  150.0400 N   0  0  0  0  0  0  0  0  0  0  0  0
  160.9260  212.0400  150.8950 N   0  0  0  0  0  0  0  0  0  0  0  0
  160.9510  207.9790  153.8420 C   0  0  0  0  0  0  0  0  0  0  0  0
  162.4030  207.6280  149.1270 C   0  0  1  0  0  3  0  0  0  0  0  0
  160.5010  211.8040  152.2820 C   0  0  0  0  0  2  0  0  0  0  0  0
  160.6640  209.0980  154.6900 N   0  0  0  0  0  0  0  0  0  0  0  0
  160.7760  206.6750  154.3260 C   0  0  0  0  0  3  0  0  0  0  0  0
  162.1500  208.7300  149.9560 C   0  0  0  0  0  0  0  0  0  0  0  0
  162.0130  207.3630  150.4470 C   0  0  0  0  0  0  0  0  0  0  0  0
  161.9790  211.2800  150.2210 C   0  0  2  0  0  3  0  0  0  0  0  0
  160.8250  210.3440  154.3470 C   0  0  0  0  0  0  0  0  0  0  0  0
  161.0310  205.5610  153.5100 C   0  0  0  0  0  3  0  0  0  0  0  0
  160.4180  212.6550  148.7950 C   0  0  0  0  0  0  0  0  0  0  0  0
  161.6930  211.4580  148.4200 S   0  0  0  0  0  0  0  0  0  0  0  0
  160.5530  211.3230  155.3090 O   0  0  0  0  0  0  0  0  0  0  0  0
  161.2740  211.4430  156.5270 C   0  0  0  0  0  1  0  0  0  0  0  0
  161.2250  207.4050  148.1950 C   0  0  0  0  0  2  0  0  0  0  0  0
  161.1830  204.8910  147.8880 C   0  0  0  0  0  0  0  0  0  0  0  0
  160.7410  204.7240  149.0560 O   0  0  0  0  0  0  0  0  0  0  0  0
  161.4240  203.7510  147.0620 N   0  0  0  0  0  2  0  0  0  0  0  0
  161.4350  206.2090  147.3920 N   0  0  0  0  0  2  0  0  0  0  0  0
  163.1940  204.7330  145.6630 C   0  0  0  0  0  1  0  0  0  0  0  0
  161.9450  203.8610  145.7030 C   0  0  2  0  0  3  0  0  0  0  0  0
  160.9580  204.2800  144.7820 O   0  0  0  0  0  0  0  0  0  0  0  0
  161.4360  205.3940  144.0710 C   0  0  0  0  0  1  0  0  0  0  0  0
  1  3  2  0  0  0  0
  1  4  1  0  0  0  0
  2  4  1  0  0  0  0
  2  5  1  0  0  0  0
  3 19  1  0  0  0  0
  4 10  2  0  0  0  0
  5 12  1  6  0  0  0
  5 18  1  0  0  0  0
  6 20  1  0  0  0  0
  7  2  2  0  0  0  0
  8  9  1  0  0  0  0
  9 12  1  0  0  0  0
 10 14  1  0  0  0  0
 10 13  1  0  0  0  0
 11 24  1  6  0  0  0
 11 15  1  0  0  0  0
 11 16  1  0  0  0  0
 15 16  2  0  0  0  0
 15  7  1  0  0  0  0
 16  1  1  0  0  0  0
 17 21  1  6  0  0  0
 17  7  1  0  0  0  0
 17  9  1  0  0  0  0
 18 13  2  0  0  0  0
 18 22  1  0  0  0  0
 19 14  2  0  0  0  0
 20  8  2  0  0  0  0
 21 20  1  0  0  0  0
 22 23  1  0  0  0  0
 25 26  2  0  0  0  0
 27 25  1  0  0  0  0
 28 25  1  0  0  0  0
 28 24  1  0  0  0  0
 30 29  1  1  0  0  0
 30 27  1  0  0  0  0
 31 30  1  0  0  0  0
 32 31  1  0  0  0  0
M  END
>  <MODEL>
2

>  <REMARK>
 VINA RESULT:      -8.0      1.221      1.806
  Name = 
  5 active torsions:
  status: ('A' for Active; 'I' for Inactive)
    1  A    between atoms: O_13  and  C_29
    2  A    between atoms: O_15  and  C_26
    3  A    between atoms: C_16  and  C_23
    4  A    between atoms: N_19  and  C_26
    5  A    between atoms: N_22  and  C_23
                            x       y       z     vdW  Elec       q    Type
                         _______ _______ _______ _____ _____    ______ ____

>  <TORSDO>
F 5

$$$$
=
 OpenBabel11062408223D

 32 37  0  0  1  0  0  0  0  0999 V2000
  161.6250  208.7160  149.1610 C   0  0  0  0  0  0  0  0  0  0  0  0
  161.0020  207.2570  151.1610 C   0  0  0  0  0  0  0  0  0  0  0  0
  162.1310  209.8980  148.6340 C   0  0  0  0  0  3  0  0  0  0  0  0
  161.5170  208.4970  150.5840 C   0  0  0  0  0  0  0  0  0  0  0  0
  160.8460  207.1130  152.6550 C   0  0  1  0  0  3  0  0  0  0  0  0
  161.8680  201.2490  151.2750 C   0  0  0  0  0  1  0  0  0  0  0  0
  160.6070  206.1290  150.3640 C   0  0  0  0  0  0  0  0  0  0  0  0
  161.5350  203.3910  152.3530 N   0  0  0  0  0  0  0  0  0  0  0  0
  160.9610  204.6570  152.2350 N   0  0  0  0  0  0  0  0  0  0  0  0
  161.9570  209.5100  151.4420 C   0  0  0  0  0  0  0  0  0  0  0  0
  160.7980  206.5650  147.6410 C   0  0  1  0  0  3  0  0  0  0  0  0
  161.3920  205.7500  153.1180 C   0  0  0  0  0  2  0  0  0  0  0  0
  161.9030  209.3320  152.8620 N   0  0  0  0  0  0  0  0  0  0  0  0
  162.4670  210.7030  150.9090 C   0  0  0  0  0  3  0  0  0  0  0  0
  160.7160  206.3900  149.0290 C   0  0  0  0  0  0  0  0  0  0  0  0
  161.2060  207.6350  148.4500 C   0  0  0  0  0  0  0  0  0  0  0  0
  160.1760  204.8510  151.0160 C   0  0  2  0  0  3  0  0  0  0  0  0
  161.4170  208.2770  153.4550 C   0  0  0  0  0  0  0  0  0  0  0  0
  162.5510  210.8970  149.5200 C   0  0  0  0  0  3  0  0  0  0  0  0
  161.3440  202.6380  151.3280 C   0  0  0  0  0  0  0  0  0  0  0  0
  160.4560  203.3780  149.9630 S   0  0  0  0  0  0  0  0  0  0  0  0
  161.3830  208.2760  154.8540 O   0  0  0  0  0  0  0  0  0  0  0  0
  161.5760  209.4440  155.6390 C   0  0  0  0  0  1  0  0  0  0  0  0
  162.0190  205.8410  147.1030 C   0  0  0  0  0  2  0  0  0  0  0  0
  160.8550  204.4090  145.3680 C   0  0  0  0  0  0  0  0  0  0  0  0
  160.4790  205.4290  144.7310 O   0  0  0  0  0  0  0  0  0  0  0  0
  160.4960  203.1130  144.8860 N   0  0  0  0  0  2  0  0  0  0  0  0
  161.6390  204.5460  146.5560 N   0  0  0  0  0  2  0  0  0  0  0  0
  160.0810  200.6940  145.0610 C   0  0  0  0  0  1  0  0  0  0  0  0
  160.8830  201.8840  145.5720 C   0  0  2  0  0  3  0  0  0  0  0  0
  160.8290  202.0140  146.9780 O   0  0  0  0  0  0  0  0  0  0  0  0
  161.2060  200.7960  147.5690 C   0  0  0  0  0  1  0  0  0  0  0  0
  1  4  1  0  0  0  0
  2  5  1  0  0  0  0
  3  1  2  0  0  0  0
  3 19  1  0  0  0  0
  4  2  1  0  0  0  0
  4 10  2  0  0  0  0
  5 12  1  1  0  0  0
  5 18  1  0  0  0  0
  6 20  1  0  0  0  0
  7 17  1  0  0  0  0
  7  2  2  0  0  0  0
  9  8  1  0  0  0  0
  9 12  1  0  0  0  0
 10 13  1  0  0  0  0
 11 24  1  1  0  0  0
 11 16  1  0  0  0  0
 11 15  1  0  0  0  0
 13 18  2  0  0  0  0
 14 10  1  0  0  0  0
 15  7  1  0  0  0  0
 16 15  2  0  0  0  0
 16  1  1  0  0  0  0
 17 21  1  6  0  0  0
 17  9  1  0  0  0  0
 18 22  1  0  0  0  0
 19 14  2  0  0  0  0
 20  8  2  0  0  0  0
 21 20  1  0  0  0  0
 22 23  1  0  0  0  0
 25 28  1  0  0  0  0
 26 25  2  0  0  0  0
 27 25  1  0  0  0  0
 27 30  1  0  0  0  0
 28 24  1  0  0  0  0
 30 29  1  6  0  0  0
 30 31  1  0  0  0  0
 31 32  1  0  0  0  0
M  END
>  <MODEL>
3

>  <REMARK>
 VINA RESULT:      -7.1      2.607      5.213
  Name = 
  5 active torsions:
  status: ('A' for Active; 'I' for Inactive)
    1  A    between atoms: O_13  and  C_29
    2  A    between atoms: O_15  and  C_26
    3  A    between atoms: C_16  and  C_23
    4  A    between atoms: N_19  and  C_26
    5  A    between atoms: N_22  and  C_23
                            x       y       z     vdW  Elec       q    Type
                         _______ _______ _______ _____ _____    ______ ____

>  <TORSDO>
F 5

$$$$
=
 OpenBabel11062408223D

 32 37  0  0  1  0  0  0  0  0999 V2000
  161.7770  207.3530  148.1220 C   0  0  0  0  0  0  0  0  0  0  0  0
  161.7970  206.8430  150.6230 C   0  0  0  0  0  0  0  0  0  0  0  0
  161.5850  206.9530  146.8050 C   0  0  0  0  0  3  0  0  0  0  0  0
  161.6140  206.4410  149.2290 C   0  0  0  0  0  0  0  0  0  0  0  0
  161.6820  205.8280  151.7350 C   0  0  1  0  0  3  0  0  0  0  0  0
  159.8510  210.7740  154.8200 C   0  0  0  0  0  1  0  0  0  0  0  0
  162.1040  208.1910  151.0150 C   0  0  0  0  0  0  0  0  0  0  0  0
  160.3890  208.5410  154.0560 N   0  0  0  0  0  0  0  0  0  0  0  0
  161.1930  207.7830  153.2050 N   0  0  0  0  0  0  0  0  0  0  0  0
  161.2320  205.1250  148.9490 C   0  0  0  0  0  0  0  0  0  0  0  0
  162.4340  209.9230  148.8860 C   0  0  1  0  0  3  0  0  0  0  0  0
  160.8320  206.3950  152.8850 C   0  0  0  0  0  2  0  0  0  0  0  0
  161.0250  204.1890  150.0130 N   0  0  0  0  0  0  0  0  0  0  0  0
  161.0390  204.7230  147.6200 C   0  0  0  0  0  3  0  0  0  0  0  0
  162.2600  209.0080  149.9340 C   0  0  0  0  0  0  0  0  0  0  0  0
  162.1020  208.6050  148.5410 C   0  0  0  0  0  0  0  0  0  0  0  0
  162.1860  208.5610  152.4630 C   0  0  2  0  0  3  0  0  0  0  0  0
  161.2100  204.4540  151.2760 C   0  0  0  0  0  0  0  0  0  0  0  0
  161.2160  205.6250  146.5590 C   0  0  0  0  0  3  0  0  0  0  0  0
  160.6020  209.8070  153.9800 C   0  0  0  0  0  0  0  0  0  0  0  0
  161.8170  210.3280  152.7750 S   0  0  0  0  0  0  0  0  0  0  0  0
  161.0180  203.4150  152.1930 O   0  0  0  0  0  0  0  0  0  0  0  0
  161.2060  202.0450  151.8700 C   0  0  0  0  0  1  0  0  0  0  0  0
  161.2050  210.8050  148.7640 C   0  0  0  0  0  2  0  0  0  0  0  0
  161.6670  212.9040  147.4220 C   0  0  0  0  0  0  0  0  0  0  0  0
  162.0640  213.5120  148.4510 O   0  0  0  0  0  0  0  0  0  0  0  0
  161.6590  213.5860  146.1670 N   0  0  0  0  0  2  0  0  0  0  0  0
  161.2350  211.5430  147.5090 N   0  0  0  0  0  2  0  0  0  0  0  0
  162.2960  212.9710  143.8710 C   0  0  0  0  0  1  0  0  0  0  0  0
  161.2040  212.9530  144.9320 C   0  0  2  0  0  3  0  0  0  0  0  0
  159.9850  213.4980  144.4690 O   0  0  0  0  0  0  0  0  0  0  0  0
  158.9250  212.6700  144.8760 C   0  0  0  0  0  1  0  0  0  0  0  0
  1 16  2  0  0  0  0
  1  4  1  0  0  0  0
  2  7  1  0  0  0  0
  2  5  1  0  0  0  0
  3  1  1  0  0  0  0
  4  2  2  0  0  0  0
  5 12  1  1  0  0  0
  9  8  1  0  0  0  0
 10  4  1  0  0  0  0
 10 13  1  0  0  0  0
 11 24  1  1  0  0  0
 11 15  1  0  0  0  0
 12  9  1  0  0  0  0
 13 18  2  0  0  0  0
 14 10  2  0  0  0  0
 15  7  2  0  0  0  0
 16 11  1  0  0  0  0
 16 15  1  0  0  0  0
 17  7  1  6  0  0  0
 17 21  1  0  0  0  0
 17  9  1  0  0  0  0
 18  5  1  0  0  0  0
 18 22  1  0  0  0  0
 19  3  2  0  0  0  0
 19 14  1  0  0  0  0
 20  8  2  0  0  0  0
 20  6  1  0  0  0  0
 21 20  1  0  0  0  0
 23 22  1  0  0  0  0
 25 28  1  0  0  0  0
 25 26  2  0  0  0  0
 27 25  1  0  0  0  0
 28 24  1  0  0  0  0
 30 29  1  6  0  0  0
 30 27  1  0  0  0  0
 31 32  1  0  0  0  0
 31 30  1  0  0  0  0
M  END
>  <MODEL>
4

>  <REMARK>
 VINA RESULT:      -7.0      2.922      7.008
  Name = 
  5 active torsions:
  status: ('A' for Active; 'I' for Inactive)
    1  A    between atoms: O_13  and  C_29
    2  A    between atoms: O_15  and  C_26
    3  A    between atoms: C_16  and  C_23
    4  A    between atoms: N_19  and  C_26
    5  A    between atoms: N_22  and  C_23
                            x       y       z     vdW  Elec       q    Type
                         _______ _______ _______ _____ _____    ______ ____

>  <TORSDO>
F 5

$$$$
=
 OpenBabel11062408223D

 32 37  0  0  1  0  0  0  0  0999 V2000
  161.7010  207.3940  148.8730 C   0  0  0  0  0  0  0  0  0  0  0  0
  161.7030  205.7980  150.8650 C   0  0  0  0  0  0  0  0  0  0  0  0
  161.5230  207.6400  147.5160 C   0  0  0  0  0  3  0  0  0  0  0  0
  161.5350  206.0770  149.4390 C   0  0  0  0  0  0  0  0  0  0  0  0
  161.5880  204.3870  151.3880 C   0  0  1  0  0  3  0  0  0  0  0  0
  159.6900  207.3710  156.3720 C   0  0  0  0  0  1  0  0  0  0  0  0
  161.9960  206.8190  151.8320 C   0  0  0  0  0  0  0  0  0  0  0  0
  160.2530  205.7360  154.6780 N   0  0  0  0  0  0  0  0  0  0  0  0
  161.0710  205.4530  153.5840 N   0  0  0  0  0  0  0  0  0  0  0  0
  161.1670  205.0330  148.5850 C   0  0  0  0  0  0  0  0  0  0  0  0
  162.3310  209.3330  150.7340 C   0  0  1  0  0  3  0  0  0  0  0  0
  160.7230  204.3630  152.6610 C   0  0  0  0  0  2  0  0  0  0  0  0
  160.9580  203.7130  149.1010 N   0  0  0  0  0  0  0  0  0  0  0  0
  160.9880  205.2820  147.2160 C   0  0  0  0  0  3  0  0  0  0  0  0
  162.1550  208.0400  151.2460 C   0  0  0  0  0  0  0  0  0  0  0  0
  162.0120  208.3180  149.8210 C   0  0  0  0  0  0  0  0  0  0  0  0
  162.0630  206.4870  153.2910 C   0  0  2  0  0  3  0  0  0  0  0  0
  161.1310  203.3730  150.3480 C   0  0  0  0  0  0  0  0  0  0  0  0
  161.1670  206.5700  146.6870 C   0  0  0  0  0  3  0  0  0  0  0  0
  160.4560  206.8970  155.1910 C   0  0  0  0  0  0  0  0  0  0  0  0
  161.6770  207.9150  154.3710 S   0  0  0  0  0  0  0  0  0  0  0  0
  160.9390  202.0290  150.6860 O   0  0  0  0  0  0  0  0  0  0  0  0
  160.8300  200.9900  149.7240 C   0  0  0  0  0  1  0  0  0  0  0  0
  161.0960  210.1700  151.0140 C   0  0  0  0  0  2  0  0  0  0  0  0
  160.4140  211.6680  152.9400 C   0  0  0  0  0  0  0  0  0  0  0  0
  159.9440  212.5270  152.1480 O   0  0  0  0  0  0  0  0  0  0  0  0
  160.3560  211.9090  154.3470 N   0  0  0  0  0  2  0  0  0  0  0  0
  160.9930  210.4600  152.4370 N   0  0  0  0  0  2  0  0  0  0  0  0
  160.1480  211.0820  156.6550 C   0  0  0  0  0  1  0  0  0  0  0  0
  160.8870  210.9670  155.3280 C   0  0  2  0  0  3  0  0  0  0  0  0
  162.2890  211.0780  155.4740 O   0  0  0  0  0  0  0  0  0  0  0  0
  162.6480  210.6970  156.7780 C   0  0  0  0  0  1  0  0  0  0  0  0
  1  4  1  0  0  0  0
  1 16  2  0  0  0  0
  2  5  1  0  0  0  0
  2  7  1  0  0  0  0
  3  1  1  0  0  0  0
  4  2  2  0  0  0  0
  5 12  1  1  0  0  0
  8 20  2  0  0  0  0
  9  8  1  0  0  0  0
 10 13  1  0  0  0  0
 10  4  1  0  0  0  0
 11 24  1  1  0  0  0
 11 15  1  0  0  0  0
 12  9  1  0  0  0  0
 13 18  2  0  0  0  0
 14 10  2  0  0  0  0
 15  7  2  0  0  0  0
 16 11  1  0  0  0  0
 16 15  1  0  0  0  0
 17  7  1  6  0  0  0
 17  9  1  0  0  0  0
 17 21  1  0  0  0  0
 18 22  1  0  0  0  0
 18  5  1  0  0  0  0
 19 14  1  0  0  0  0
 19  3  2  0  0  0  0
 20  6  1  0  0  0  0
 21 20  1  0  0  0  0
 23 22  1  0  0  0  0
 24 28  1  0  0  0  0
 25 27  1  0  0  0  0
 26 25  2  0  0  0  0
 27 30  1  0  0  0  0
 28 25  1  0  0  0  0
 30 31  1  0  0  0  0
 30 29  1  1  0  0  0
 31 32  1  0  0  0  0
M  END
>  <MODEL>
5

>  <REMARK>
 VINA RESULT:      -7.0      2.509      7.928
  Name = 
  5 active torsions:
  status: ('A' for Active; 'I' for Inactive)
    1  A    between atoms: O_13  and  C_29
    2  A    between atoms: O_15  and  C_26
    3  A    between atoms: C_16  and  C_23
    4  A    between atoms: N_19  and  C_26
    5  A    between atoms: N_22  and  C_23
                            x       y       z     vdW  Elec       q    Type
                         _______ _______ _______ _____ _____    ______ ____

>  <TORSDO>
F 5

$$$$
=
 OpenBabel11062408223D

 32 37  0  0  1  0  0  0  0  0999 V2000
  161.2060  206.6060  152.8920 C   0  0  0  0  0  0  0  0  0  0  0  0
  161.8990  207.7820  150.7340 C   0  0  0  0  0  0  0  0  0  0  0  0
  160.7630  206.6520  154.2080 C   0  0  0  0  0  3  0  0  0  0  0  0
  161.4470  207.8050  152.1250 C   0  0  0  0  0  0  0  0  0  0  0  0
  162.2040  209.0690  150.0060 C   0  0  1  0  0  3  0  0  0  0  0  0
  160.4680  205.6930  145.2160 C   0  0  0  0  0  1  0  0  0  0  0  0
  162.0920  206.5650  149.9950 C   0  0  0  0  0  0  0  0  0  0  0  0
  161.1260  207.4550  146.7420 N   0  0  0  0  0  0  0  0  0  0  0  0
  161.8040  207.7550  147.9230 N   0  0  0  0  0  0  0  0  0  0  0  0
  161.2050  209.0390  152.7360 C   0  0  0  0  0  0  0  0  0  0  0  0
  161.6470  204.2760  151.4790 C   0  0  1  0  0  3  0  0  0  0  0  0
  161.5810  209.0420  148.5980 C   0  0  0  0  0  2  0  0  0  0  0  0
  161.3970  210.2590  152.0090 N   0  0  0  0  0  0  0  0  0  0  0  0
  160.7580  209.0840  154.0650 C   0  0  0  0  0  3  0  0  0  0  0  0
  161.8640  205.4640  150.7660 C   0  0  0  0  0  0  0  0  0  0  0  0
  161.4360  205.4830  152.1600 C   0  0  0  0  0  0  0  0  0  0  0  0
  162.4650  206.6080  148.5460 C   0  0  2  0  0  3  0  0  0  0  0  0
  161.8390  210.3260  150.7850 C   0  0  0  0  0  0  0  0  0  0  0  0
  160.5420  207.9030  154.7940 C   0  0  0  0  0  3  0  0  0  0  0  0
  161.1280  206.2030  146.4460 C   0  0  0  0  0  0  0  0  0  0  0  0
  161.9290  205.1200  147.6220 S   0  0  0  0  0  0  0  0  0  0  0  0
  162.0260  211.5970  150.2310 O   0  0  0  0  0  0  0  0  0  0  0  0
  160.9560  212.4780  149.9220 C   0  0  0  0  0  1  0  0  0  0  0  0
  160.3090  203.6760  151.0840 C   0  0  0  0  0  2  0  0  0  0  0  0
  161.2960  201.5450  150.1350 C   0  0  0  0  0  0  0  0  0  0  0  0
  161.8790  201.2930  151.2230 O   0  0  0  0  0  0  0  0  0  0  0  0
  161.4480  200.6440  149.0360 N   0  0  0  0  0  2  0  0  0  0  0  0
  160.4850  202.7160  150.0040 N   0  0  0  0  0  2  0  0  0  0  0  0
  161.2060  199.7910  146.7410 C   0  0  0  0  0  1  0  0  0  0  0  0
  160.8140  200.8720  147.7410 C   0  0  2  0  0  3  0  0  0  0  0  0
  161.0460  202.1770  147.2520 O   0  0  0  0  0  0  0  0  0  0  0  0
  160.8310  202.1930  145.8630 C   0  0  0  0  0  1  0  0  0  0  0  0
  1  3  1  0  0  0  0
  2  4  1  0  0  0  0
  3 19  2  0  0  0  0
  4 10  1  0  0  0  0
  4  1  2  0  0  0  0
  5 12  1  6  0  0  0
  5  2  1  0  0  0  0
  5 18  1  0  0  0  0
  6 20  1  0  0  0  0
  7  2  2  0  0  0  0
  7 15  1  0  0  0  0
  8  9  1  0  0  0  0
  9 17  1  0  0  0  0
  9 12  1  0  0  0  0
 10 14  2  0  0  0  0
 11 24  1  6  0  0  0
 11 16  1  0  0  0  0
 13 10  1  0  0  0  0
 14 19  1  0  0  0  0
 15 11  1  0  0  0  0
 15 16  2  0  0  0  0
 16  1  1  0  0  0  0
 17 21  1  6  0  0  0
 17  7  1  0  0  0  0
 18 13  2  0  0  0  0
 20  8  2  0  0  0  0
 20 21  1  0  0  0  0
 22 18  1  0  0  0  0
 23 22  1  0  0  0  0
 25 26  2  0  0  0  0
 27 25  1  0  0  0  0
 28 25  1  0  0  0  0
 28 24  1  0  0  0  0
 30 29  1  6  0  0  0
 30 27  1  0  0  0  0
 31 30  1  0  0  0  0
 32 31  1  0  0  0  0
M  END
>  <MODEL>
6

>  <REMARK>
 VINA RESULT:      -7.0      2.379      4.299
  Name = 
  5 active torsions:
  status: ('A' for Active; 'I' for Inactive)
    1  A    between atoms: O_13  and  C_29
    2  A    between atoms: O_15  and  C_26
    3  A    between atoms: C_16  and  C_23
    4  A    between atoms: N_19  and  C_26
    5  A    between atoms: N_22  and  C_23
                            x       y       z     vdW  Elec       q    Type
                         _______ _______ _______ _____ _____    ______ ____

>  <TORSDO>
F 5

$$$$
=
 OpenBabel11062408223D

 32 37  0  0  1  0  0  0  0  0999 V2000
  161.8800  206.1150  151.0380 C   0  0  0  0  0  0  0  0  0  0  0  0
  161.4240  208.0140  152.6830 C   0  0  0  0  0  0  0  0  0  0  0  0
  161.8660  204.7640  150.7130 C   0  0  0  0  0  3  0  0  0  0  0  0
  161.4310  206.5960  152.3230 C   0  0  0  0  0  0  0  0  0  0  0  0
  161.0110  208.4510  154.0670 C   0  0  1  0  0  3  0  0  0  0  0  0
  159.2630  213.4250  150.9770 C   0  0  0  0  0  1  0  0  0  0  0  0
  161.8120  209.0530  151.7700 C   0  0  0  0  0  0  0  0  0  0  0  0
  159.6650  211.6940  152.6220 N   0  0  0  0  0  0  0  0  0  0  0  0
  160.5080  210.6540  153.0090 N   0  0  0  0  0  0  0  0  0  0  0  0
  160.9550  205.6610  153.2480 C   0  0  0  0  0  0  0  0  0  0  0  0
  162.6880  208.1200  149.3210 C   0  0  1  0  0  3  0  0  0  0  0  0
  160.0500  209.6500  153.9800 C   0  0  0  0  0  2  0  0  0  0  0  0
  160.4680  206.0890  154.5260 N   0  0  0  0  0  0  0  0  0  0  0  0
  160.9420  204.2980  152.9180 C   0  0  0  0  0  3  0  0  0  0  0  0
  162.2380  208.5470  150.5780 C   0  0  0  0  0  0  0  0  0  0  0  0
  162.2700  207.1320  150.2250 C   0  0  0  0  0  0  0  0  0  0  0  0
  161.6930  210.4930  152.1650 C   0  0  2  0  0  3  0  0  0  0  0  0
  160.4690  207.3260  154.9390 C   0  0  0  0  0  0  0  0  0  0  0  0
  161.3950  203.8530  151.6660 C   0  0  0  0  0  3  0  0  0  0  0  0
  160.0300  212.2830  151.5380 C   0  0  0  0  0  0  0  0  0  0  0  0
  161.4800  211.6150  150.7320 S   0  0  0  0  0  0  0  0  0  0  0  0
  160.0100  207.5760  156.2370 O   0  0  0  0  0  0  0  0  0  0  0  0
  160.8270  208.1250  157.2610 C   0  0  0  0  0  1  0  0  0  0  0  0
  161.6040  208.3470  148.2820 C   0  0  0  0  0  2  0  0  0  0  0  0
  160.6390  206.2190  147.3030 C   0  0  0  0  0  0  0  0  0  0  0  0
  159.7170  206.2050  148.1610 O   0  0  0  0  0  0  0  0  0  0  0  0
  160.7030  205.1780  146.3270 N   0  0  0  0  0  2  0  0  0  0  0  0
  161.6090  207.2710  147.3020 N   0  0  0  0  0  2  0  0  0  0  0  0
  161.2000  205.5110  143.9410 C   0  0  0  0  0  1  0  0  0  0  0  0
  161.7460  205.1180  145.3080 C   0  0  2  0  0  3  0  0  0  0  0  0
  162.4100  203.8710  145.2920 O   0  0  0  0  0  0  0  0  0  0  0  0
  161.5590  202.8890  145.8290 C   0  0  0  0  0  1  0  0  0  0  0  0
  1  4  1  0  0  0  0
  2  5  1  0  0  0  0
  3  1  2  0  0  0  0
  3 19  1  0  0  0  0
  4  2  1  0  0  0  0
  4 10  2  0  0  0  0
  5 12  1  6  0  0  0
  5 18  1  0  0  0  0
  6 20  1  0  0  0  0
  7 17  1  0  0  0  0
  7  2  2  0  0  0  0
  8  9  1  0  0  0  0
  9 12  1  0  0  0  0
 10 13  1  0  0  0  0
 11 24  1  6  0  0  0
 11 16  1  0  0  0  0
 11 15  1  0  0  0  0
 13 18  2  0  0  0  0
 14 10  1  0  0  0  0
 15  7  1  0  0  0  0
 16 15  2  0  0  0  0
 16  1  1  0  0  0  0
 17 21  1  6  0  0  0
 17  9  1  0  0  0  0
 18 22  1  0  0  0  0
 19 14  2  0  0  0  0
 20  8  2  0  0  0  0
 21 20  1  0  0  0  0
 22 23  1  0  0  0  0
 25 26  2  0  0  0  0
 27 25  1  0  0  0  0
 28 25  1  0  0  0  0
 28 24  1  0  0  0  0
 30 29  1  6  0  0  0
 30 27  1  0  0  0  0
 31 30  1  0  0  0  0
 31 32  1  0  0  0  0
M  END
>  <MODEL>
7

>  <REMARK>
 VINA RESULT:      -6.9      2.106      2.870
  Name = 
  5 active torsions:
  status: ('A' for Active; 'I' for Inactive)
    1  A    between atoms: O_13  and  C_29
    2  A    between atoms: O_15  and  C_26
    3  A    between atoms: C_16  and  C_23
    4  A    between atoms: N_19  and  C_26
    5  A    between atoms: N_22  and  C_23
                            x       y       z     vdW  Elec       q    Type
                         _______ _______ _______ _____ _____    ______ ____

>  <TORSDO>
F 5

$$$$
=
 OpenBabel11062408223D

 32 37  0  0  1  0  0  0  0  0999 V2000
  161.7710  207.6210  149.0350 C   0  0  0  0  0  0  0  0  0  0  0  0
  161.6930  206.2340  151.1770 C   0  0  0  0  0  0  0  0  0  0  0  0
  161.6380  207.7290  147.6550 C   0  0  0  0  0  3  0  0  0  0  0  0
  161.5730  206.3690  149.7260 C   0  0  0  0  0  0  0  0  0  0  0  0
  161.5460  204.8840  151.8360 C   0  0  1  0  0  3  0  0  0  0  0  0
  159.5240  208.3720  156.4290 C   0  0  0  0  0  1  0  0  0  0  0  0
  161.9660  207.3460  152.0450 C   0  0  0  0  0  0  0  0  0  0  0  0
  160.1220  206.5690  154.9280 N   0  0  0  0  0  0  0  0  0  0  0  0
  160.9710  206.1710  153.8950 N   0  0  0  0  0  0  0  0  0  0  0  0
  161.2210  205.2460  148.9700 C   0  0  0  0  0  0  0  0  0  0  0  0
  162.3630  209.7330  150.7100 C   0  0  1  0  0  3  0  0  0  0  0  0
  160.6410  204.9950  153.0760 C   0  0  0  0  0  2  0  0  0  0  0  0
  160.9810  203.9870  149.6100 N   0  0  0  0  0  0  0  0  0  0  0  0
  161.0880  205.3570  147.5780 C   0  0  0  0  0  3  0  0  0  0  0  0
  162.1570  208.5000  151.3440 C   0  0  0  0  0  0  0  0  0  0  0  0
  162.0620  208.6330  149.8950 C   0  0  0  0  0  0  0  0  0  0  0  0
  161.9840  207.1620  153.5310 C   0  0  2  0  0  3  0  0  0  0  0  0
  161.1100  203.7740  150.8890 C   0  0  0  0  0  0  0  0  0  0  0  0
  161.2970  206.5840  146.9270 C   0  0  0  0  0  3  0  0  0  0  0  0
  160.3220  207.7750  155.3270 C   0  0  0  0  0  0  0  0  0  0  0  0
  161.5790  208.6960  154.4490 S   0  0  0  0  0  0  0  0  0  0  0  0
  160.8940  202.4720  151.3550 O   0  0  0  0  0  0  0  0  0  0  0  0
  160.8380  201.3370  150.5030 C   0  0  0  0  0  1  0  0  0  0  0  0
  161.1280  210.6030  150.8640 C   0  0  0  0  0  2  0  0  0  0  0  0
  160.5180  212.9540  150.1410 C   0  0  0  0  0  0  0  0  0  0  0  0
  159.9180  213.1660  151.2280 O   0  0  0  0  0  0  0  0  0  0  0  0
  160.5620  213.9850  149.1540 N   0  0  0  0  0  2  0  0  0  0  0  0
  161.1560  211.6950  149.9020 N   0  0  0  0  0  2  0  0  0  0  0  0
  162.6500  214.3570  147.9070 C   0  0  0  0  0  1  0  0  0  0  0  0
  161.2290  213.8120  147.8660 C   0  0  2  0  0  3  0  0  0  0  0  0
  160.4730  214.3410  146.7950 O   0  0  0  0  0  0  0  0  0  0  0  0
  159.6360  213.3350  146.2810 C   0  0  0  0  0  1  0  0  0  0  0  0
  1  4  1  0  0  0  0
  1 16  2  0  0  0  0
  2  5  1  0  0  0  0
  2  7  1  0  0  0  0
  3  1  1  0  0  0  0
  4  2  2  0  0  0  0
  5 12  1  1  0  0  0
  8 20  2  0  0  0  0
  9  8  1  0  0  0  0
 10 13  1  0  0  0  0
 10  4  1  0  0  0  0
 11 24  1  1  0  0  0
 11 15  1  0  0  0  0
 12  9  1  0  0  0  0
 13 18  2  0  0  0  0
 14 10  2  0  0  0  0
 15  7  2  0  0  0  0
 16 11  1  0  0  0  0
 16 15  1  0  0  0  0
 17  7  1  6  0  0  0
 17  9  1  0  0  0  0
 17 21  1  0  0  0  0
 18 22  1  0  0  0  0
 18  5  1  0  0  0  0
 19 14  1  0  0  0  0
 19  3  2  0  0  0  0
 20  6  1  0  0  0  0
 21 20  1  0  0  0  0
 23 22  1  0  0  0  0
 25 26  2  0  0  0  0
 27 25  1  0  0  0  0
 28 25  1  0  0  0  0
 28 24  1  0  0  0  0
 30 29  1  1  0  0  0
 30 27  1  0  0  0  0
 31 30  1  0  0  0  0
 32 31  1  0  0  0  0
M  END
>  <MODEL>
8

>  <REMARK>
 VINA RESULT:      -6.7      2.678      7.697
  Name = 
  5 active torsions:
  status: ('A' for Active; 'I' for Inactive)
    1  A    between atoms: O_13  and  C_29
    2  A    between atoms: O_15  and  C_26
    3  A    between atoms: C_16  and  C_23
    4  A    between atoms: N_19  and  C_26
    5  A    between atoms: N_22  and  C_23
                            x       y       z     vdW  Elec       q    Type
                         _______ _______ _______ _____ _____    ______ ____

>  <TORSDO>
F 5

$$$$
=
 OpenBabel11062408223D

 32 37  0  0  1  0  0  0  0  0999 V2000
  161.0060  203.3150  150.9460 C   0  0  0  0  0  0  0  0  0  0  0  0
  160.9530  205.1130  149.1350 C   0  0  0  0  0  0  0  0  0  0  0  0
  161.1820  201.9920  151.3370 C   0  0  0  0  0  3  0  0  0  0  0  0
  161.1200  203.7260  149.5670 C   0  0  0  0  0  0  0  0  0  0  0  0
  161.0120  205.4710  147.6700 C   0  0  1  0  0  3  0  0  0  0  0  0
  163.0830  210.7340  149.9840 C   0  0  0  0  0  1  0  0  0  0  0  0
  160.7130  206.1940  150.0500 C   0  0  0  0  0  0  0  0  0  0  0  0
  162.4340  208.8730  148.5780 N   0  0  0  0  0  0  0  0  0  0  0  0
  161.5950  207.7660  148.4560 N   0  0  0  0  0  0  0  0  0  0  0  0
  161.4350  202.7530  148.6130 C   0  0  0  0  0  0  0  0  0  0  0  0
  160.4780  205.3920  152.6850 C   0  0  1  0  0  3  0  0  0  0  0  0
  161.8870  206.7210  147.4640 C   0  0  0  0  0  2  0  0  0  0  0  0
  161.5910  203.1140  147.2350 N   0  0  0  0  0  0  0  0  0  0  0  0
  161.6120  201.4190  149.0080 C   0  0  0  0  0  3  0  0  0  0  0  0
  160.6020  205.7520  151.3360 C   0  0  0  0  0  0  0  0  0  0  0  0
  160.7440  204.3660  151.7680 C   0  0  0  0  0  0  0  0  0  0  0  0
  160.6450  207.6060  149.5570 C   0  0  2  0  0  3  0  0  0  0  0  0
  161.4160  204.3160  146.7630 C   0  0  0  0  0  0  0  0  0  0  0  0
  161.4840  201.0420  150.3550 C   0  0  0  0  0  3  0  0  0  0  0  0
  162.2860  209.5180  149.6810 C   0  0  0  0  0  0  0  0  0  0  0  0
  161.1030  208.8360  150.8360 S   0  0  0  0  0  0  0  0  0  0  0  0
  161.5520  204.4970  145.3820 O   0  0  0  0  0  0  0  0  0  0  0  0
  160.4510  204.7190  144.5120 C   0  0  0  0  0  1  0  0  0  0  0  0
  161.7510  205.7480  153.4320 C   0  0  0  0  0  2  0  0  0  0  0  0
  160.7710  207.5580  154.9090 C   0  0  0  0  0  0  0  0  0  0  0  0
  159.9780  206.7380  155.4430 O   0  0  0  0  0  0  0  0  0  0  0  0
  160.7440  208.9260  155.3220 N   0  0  0  0  0  2  0  0  0  0  0  0
  161.6920  207.1240  153.9040 N   0  0  0  0  0  2  0  0  0  0  0  0
  162.7070  210.3520  155.7300 C   0  0  0  0  0  1  0  0  0  0  0  0
  161.6230  209.9380  154.7440 C   0  0  2  0  0  3  0  0  0  0  0  0
  160.9040  211.0410  154.2300 O   0  0  0  0  0  0  0  0  0  0  0  0
  159.6210  210.6170  153.8450 C   0  0  0  0  0  1  0  0  0  0  0  0
  1  3  1  0  0  0  0
  1 16  2  0  0  0  0
  2  4  2  0  0  0  0
  2  7  1  0  0  0  0
  4  1  1  0  0  0  0
  5 12  1  1  0  0  0
  5  2  1  0  0  0  0
  7 15  2  0  0  0  0
  8 20  2  0  0  0  0
  9  8  1  0  0  0  0
  9 17  1  0  0  0  0
 10 14  2  0  0  0  0
 10  4  1  0  0  0  0
 11 24  1  1  0  0  0
 12  9  1  0  0  0  0
 13 10  1  0  0  0  0
 14 19  1  0  0  0  0
 15 16  1  0  0  0  0
 15 11  1  0  0  0  0
 16 11  1  0  0  0  0
 17  7  1  1  0  0  0
 17 21  1  0  0  0  0
 18 13  2  0  0  0  0
 18  5  1  0  0  0  0
 19  3  2  0  0  0  0
 20  6  1  0  0  0  0
 20 21  1  0  0  0  0
 22 18  1  0  0  0  0
 23 22  1  0  0  0  0
 24 28  1  0  0  0  0
 25 27  1  0  0  0  0
 25 26  2  0  0  0  0
 28 25  1  0  0  0  0
 30 27  1  0  0  0  0
 30 29  1  1  0  0  0
 31 30  1  0  0  0  0
 32 31  1  0  0  0  0
M  END
>  <MODEL>
9

>  <REMARK>
 VINA RESULT:      -6.6      2.295      7.504
  Name = 
  5 active torsions:
  status: ('A' for Active; 'I' for Inactive)
    1  A    between atoms: O_13  and  C_29
    2  A    between atoms: O_15  and  C_26
    3  A    between atoms: C_16  and  C_23
    4  A    between atoms: N_19  and  C_26
    5  A    between atoms: N_22  and  C_23
                            x       y       z     vdW  Elec       q    Type
                         _______ _______ _______ _____ _____    ______ ____

>  <TORSDO>
F 5

$$$$
