=
 OpenBabel11062409483D

 34 39  0  0  0  0  0  0  0  0999 V2000
  161.2840  207.7690  150.0570 C   0  0  0  0  0  0  0  0  0  0  0  0
  161.2660  203.9230  149.1280 C   0  0  0  0  0  3  0  0  0  0  0  0
  161.0570  205.1290  151.1540 C   0  0  0  0  0  3  0  0  0  0  0  0
  161.9090  210.1260  150.4850 C   0  0  0  0  0  0  0  0  0  0  0  0
  161.6450  209.1340  149.6070 C   0  0  0  0  0  3  0  0  0  0  0  0
  161.3050  208.5920  152.3120 N   0  0  0  0  0  0  0  0  0  0  0  0
  161.4330  207.8500  153.5300 C   0  0  0  0  0  3  0  0  0  0  0  0
  161.9600  209.8550  151.9800 C   0  0  0  0  0  2  0  0  0  0  0  0
  160.9490  206.3240  151.9270 N   0  0  0  0  0  0  0  0  0  0  0  0
  161.0740  207.5930  151.3500 C   0  0  0  0  0  0  0  0  0  0  0  0
  161.2220  206.5400  153.3110 C   0  0  0  0  0  3  0  0  0  0  0  0
  161.3190  203.6480  147.8300 C   0  0  0  0  0  3  0  0  0  0  0  0
  161.2910  204.5450  146.6670 C   0  0  0  0  0  0  0  0  0  0  0  0
  161.2880  205.8770  146.7140 C   0  0  0  0  0  3  0  0  0  0  0  0
  161.1680  205.2130  149.8150 C   0  0  0  0  0  0  0  0  0  0  0  0
  161.2980  206.7980  147.8540 C   0  0  0  0  0  3  0  0  0  0  0  0
  161.2490  206.5710  149.1680 C   0  0  0  0  0  0  0  0  0  0  0  0
  161.2850  203.9010  145.3370 C   0  0  0  0  0  0  0  0  0  0  0  0
  160.9200  202.5650  145.2080 O   0  0  0  0  0  1  0  0  0  0  0  0
  161.6110  204.5480  144.3050 O   0  0  0  0  0  0  0  0  0  0  0  0
  162.2670  211.4440  150.0380 N   0  0  0  0  0  2  0  0  0  0  0  0
  163.2170  212.7830  146.6600 C   0  0  0  0  0  3  0  0  0  0  0  0
  160.9350  212.2350  148.1580 C   0  0  0  0  0  3  0  0  0  0  0  0
  160.9920  213.6670  143.8050 C   0  0  0  0  0  0  0  0  0  0  0  0
  159.6330  213.0950  143.9330 C   0  0  0  0  0  0  0  0  0  0  0  0
  161.9600  213.5960  144.7300 C   0  0  0  0  0  3  0  0  0  0  0  0
  158.7980  213.3020  143.0130 O   0  0  0  0  0  0  0  0  0  0  0  0
  161.9590  213.0210  146.0950 C   0  0  0  0  0  0  0  0  0  0  0  0
  161.3020  214.3210  142.6200 O   0  0  0  0  0  1  0  0  0  0  0  0
  159.4270  213.0170  146.3700 C   0  0  0  0  0  2  0  0  0  0  0  0
  160.8040  212.7510  146.8640 C   0  0  0  0  0  0  0  0  0  0  0  0
  159.2040  212.2570  145.0850 C   0  0  0  0  0  2  0  0  0  0  0  0
  162.1930  211.9890  148.7110 C   0  0  0  0  0  0  0  0  0  0  0  0
  163.3360  212.2670  147.9510 C   0  0  0  0  0  3  0  0  0  0  0  0
  1 10  2  0  0  0  0
  2 15  1  0  0  0  0
  3  9  1  0  0  0  0
  4  8  1  0  0  0  0
  5  1  1  0  0  0  0
  5  4  2  0  0  0  0
  6  7  1  0  0  0  0
  8  6  1  0  0  0  0
  9 11  1  0  0  0  0
 10  9  1  0  0  0  0
 10  6  1  0  0  0  0
 11  7  2  0  0  0  0
 12  2  2  0  0  0  0
 13 14  2  0  0  0  0
 13 12  1  0  0  0  0
 14 16  1  0  0  0  0
 15  3  2  0  0  0  0
 16 17  2  0  0  0  0
 17 15  1  0  0  0  0
 17  1  1  0  0  0  0
 18 13  1  0  0  0  0
 19 18  1  0  0  0  0
 20 18  2  0  0  0  0
 21  4  1  0  0  0  0
 22 34  1  0  0  0  0
 23 33  1  0  0  0  0
 24 25  1  0  0  0  0
 24 26  2  0  0  0  0
 25 32  1  0  0  0  0
 26 28  1  0  0  0  0
 27 25  2  0  0  0  0
 28 22  2  0  0  0  0
 28 31  1  0  0  0  0
 29 24  1  0  0  0  0
 30 31  1  0  0  0  0
 31 23  2  0  0  0  0
 32 30  1  0  0  0  0
 33 21  1  0  0  0  0
 34 33  2  0  0  0  0
M  END
>  <MODEL>
1

>  <REMARK>
 VINA RESULT:     -10.0      0.000      0.000
  Name = 
  3 active torsions:
  status: ('A' for Active; 'I' for Inactive)
    1  A    between atoms: C_3  and  C_25
    2  A    between atoms: C_8  and  N_18
    3  A    between atoms: N_18  and  C_30
                            x       y       z     vdW  Elec       q    Type
                         _______ _______ _______ _____ _____    ______ ____

>  <TORSDO>
F 3

$$$$
=
 OpenBabel11062409483D

 34 39  0  0  0  0  0  0  0  0999 V2000
  161.0350  209.3950  152.8660 C   0  0  0  0  0  0  0  0  0  0  0  0
  160.1880  213.0070  151.4920 C   0  0  0  0  0  3  0  0  0  0  0  0
  159.9730  211.9560  153.6010 C   0  0  0  0  0  3  0  0  0  0  0  0
  161.0750  206.9690  153.3560 C   0  0  0  0  0  0  0  0  0  0  0  0
  161.3270  207.9880  152.5060 C   0  0  0  0  0  3  0  0  0  0  0  0
  160.4100  208.6250  155.0520 N   0  0  0  0  0  0  0  0  0  0  0  0
  159.5960  209.2820  156.0300 C   0  0  0  0  0  3  0  0  0  0  0  0
  160.3700  207.2110  154.6820 C   0  0  0  0  0  2  0  0  0  0  0  0
  160.1480  210.8740  154.5160 N   0  0  0  0  0  0  0  0  0  0  0  0
  160.6640  209.6380  154.1110 C   0  0  0  0  0  0  0  0  0  0  0  0
  159.4470  210.5830  155.7250 C   0  0  0  0  0  3  0  0  0  0  0  0
  160.5540  213.2420  150.2380 C   0  0  0  0  0  3  0  0  0  0  0  0
  161.3090  212.4060  149.2950 C   0  0  0  0  0  0  0  0  0  0  0  0
  161.7160  211.1570  149.5200 C   0  0  0  0  0  3  0  0  0  0  0  0
  160.4170  211.8340  152.3360 C   0  0  0  0  0  0  0  0  0  0  0  0
  161.5610  210.2940  150.6950 C   0  0  0  0  0  3  0  0  0  0  0  0
  161.0270  210.5280  151.8950 C   0  0  0  0  0  0  0  0  0  0  0  0
  161.6210  213.0080  147.9820 C   0  0  0  0  0  0  0  0  0  0  0  0
  162.4710  214.1050  147.9000 O   0  0  0  0  0  1  0  0  0  0  0  0
  161.1240  212.5380  146.9230 O   0  0  0  0  0  0  0  0  0  0  0  0
  161.3540  205.6070  152.9940 N   0  0  0  0  0  2  0  0  0  0  0  0
  161.0300  203.1140  150.2040 C   0  0  0  0  0  3  0  0  0  0  0  0
  161.6060  205.8120  150.5790 C   0  0  0  0  0  3  0  0  0  0  0  0
  161.1700  203.7130  146.5290 C   0  0  0  0  0  0  0  0  0  0  0  0
  160.9940  205.1370  146.1690 C   0  0  0  0  0  0  0  0  0  0  0  0
  161.2650  203.2280  147.7760 C   0  0  0  0  0  3  0  0  0  0  0  0
  160.9940  205.4610  144.9520 O   0  0  0  0  0  0  0  0  0  0  0  0
  161.2860  203.9170  149.0860 C   0  0  0  0  0  0  0  0  0  0  0  0
  161.2260  202.7920  145.4910 O   0  0  0  0  0  1  0  0  0  0  0  0
  161.9230  206.2050  148.1650 C   0  0  0  0  0  2  0  0  0  0  0  0
  161.5880  205.2830  149.2840 C   0  0  0  0  0  0  0  0  0  0  0  0
  160.7850  206.2160  147.1740 C   0  0  0  0  0  2  0  0  0  0  0  0
  161.3380  205.0070  151.6890 C   0  0  0  0  0  0  0  0  0  0  0  0
  161.0480  203.6510  151.4910 C   0  0  0  0  0  3  0  0  0  0  0  0
  1 10  2  0  0  0  0
  2 15  1  0  0  0  0
  3  9  1  0  0  0  0
  4  8  1  0  0  0  0
  5  1  1  0  0  0  0
  5  4  2  0  0  0  0
  6  7  1  0  0  0  0
  8  6  1  0  0  0  0
  9 11  1  0  0  0  0
 10  9  1  0  0  0  0
 10  6  1  0  0  0  0
 11  7  2  0  0  0  0
 12  2  2  0  0  0  0
 13 14  2  0  0  0  0
 13 12  1  0  0  0  0
 14 16  1  0  0  0  0
 15  3  2  0  0  0  0
 16 17  2  0  0  0  0
 17 15  1  0  0  0  0
 17  1  1  0  0  0  0
 18 13  1  0  0  0  0
 19 18  1  0  0  0  0
 20 18  2  0  0  0  0
 21  4  1  0  0  0  0
 22 34  1  0  0  0  0
 23 33  1  0  0  0  0
 24 26  2  0  0  0  0
 25 24  1  0  0  0  0
 25 32  1  0  0  0  0
 26 28  1  0  0  0  0
 27 25  2  0  0  0  0
 28 31  1  0  0  0  0
 28 22  2  0  0  0  0
 29 24  1  0  0  0  0
 30 31  1  0  0  0  0
 31 23  2  0  0  0  0
 32 30  1  0  0  0  0
 33 21  1  0  0  0  0
 34 33  2  0  0  0  0
M  END
>  <MODEL>
2

>  <REMARK>
 VINA RESULT:     -10.0      2.331      7.664
  Name = 
  3 active torsions:
  status: ('A' for Active; 'I' for Inactive)
    1  A    between atoms: C_3  and  C_25
    2  A    between atoms: C_8  and  N_18
    3  A    between atoms: N_18  and  C_30
                            x       y       z     vdW  Elec       q    Type
                         _______ _______ _______ _____ _____    ______ ____

>  <TORSDO>
F 3

$$$$
=
 OpenBabel11062409483D

 34 39  0  0  0  0  0  0  0  0999 V2000
  161.0820  209.3100  152.6890 C   0  0  0  0  0  0  0  0  0  0  0  0
  160.1260  212.9960  151.6130 C   0  0  0  0  0  3  0  0  0  0  0  0
  159.9870  211.7840  153.6410 C   0  0  0  0  0  3  0  0  0  0  0  0
  161.1850  206.8550  152.9940 C   0  0  0  0  0  0  0  0  0  0  0  0
  161.3940  207.9410  152.2180 C   0  0  0  0  0  3  0  0  0  0  0  0
  160.5300  208.3640  154.8250 N   0  0  0  0  0  0  0  0  0  0  0  0
  159.7270  208.9270  155.8690 C   0  0  0  0  0  3  0  0  0  0  0  0
  160.5100  206.9820  154.3500 C   0  0  0  0  0  2  0  0  0  0  0  0
  160.2080  210.6410  154.4670 N   0  0  0  0  0  0  0  0  0  0  0  0
  160.7380  209.4510  153.9580 C   0  0  0  0  0  0  0  0  0  0  0  0
  159.5450  210.2440  155.6670 C   0  0  0  0  0  3  0  0  0  0  0  0
  160.4560  213.3320  150.3720 C   0  0  0  0  0  3  0  0  0  0  0  0
  161.2030  212.5860  149.3510 C   0  0  0  0  0  0  0  0  0  0  0  0
  161.6420  211.3330  149.4710 C   0  0  0  0  0  3  0  0  0  0  0  0
  160.4020  211.7670  152.3610 C   0  0  0  0  0  0  0  0  0  0  0  0
  161.5340  210.3810  150.5810 C   0  0  0  0  0  3  0  0  0  0  0  0
  161.0270  210.5130  151.8070 C   0  0  0  0  0  0  0  0  0  0  0  0
  161.4690  213.2920  148.0800 C   0  0  0  0  0  0  0  0  0  0  0  0
  162.5930  214.1010  147.9510 O   0  0  0  0  0  1  0  0  0  0  0  0
  160.6860  213.1730  147.1000 O   0  0  0  0  0  0  0  0  0  0  0  0
  161.4830  205.5310  152.5230 N   0  0  0  0  0  2  0  0  0  0  0  0
  161.4460  205.2390  148.7790 C   0  0  0  0  0  3  0  0  0  0  0  0
  161.0360  203.6560  151.0330 C   0  0  0  0  0  3  0  0  0  0  0  0
  161.0210  202.1800  146.6950 C   0  0  0  0  0  0  0  0  0  0  0  0
  161.2360  200.9290  147.4550 C   0  0  0  0  0  0  0  0  0  0  0  0
  161.0090  203.4170  147.2130 C   0  0  0  0  0  3  0  0  0  0  0  0
  161.1470  199.8280  146.8490 O   0  0  0  0  0  0  0  0  0  0  0  0
  161.1340  203.8850  148.6120 C   0  0  0  0  0  0  0  0  0  0  0  0
  160.8320  202.0720  145.3230 O   0  0  0  0  0  1  0  0  0  0  0  0
  160.5340  201.6540  149.6840 C   0  0  0  0  0  2  0  0  0  0  0  0
  160.9170  203.0890  149.7590 C   0  0  0  0  0  0  0  0  0  0  0  0
  161.5820  200.9000  148.9020 C   0  0  0  0  0  2  0  0  0  0  0  0
  161.3590  205.0060  151.1920 C   0  0  0  0  0  0  0  0  0  0  0  0
  161.5640  205.7940  150.0530 C   0  0  0  0  0  3  0  0  0  0  0  0
  1 10  2  0  0  0  0
  2 15  1  0  0  0  0
  3  9  1  0  0  0  0
  4  8  1  0  0  0  0
  5  1  1  0  0  0  0
  5  4  2  0  0  0  0
  6  7  1  0  0  0  0
  8  6  1  0  0  0  0
  9 11  1  0  0  0  0
 10  9  1  0  0  0  0
 10  6  1  0  0  0  0
 11  7  2  0  0  0  0
 12  2  2  0  0  0  0
 13 14  2  0  0  0  0
 13 12  1  0  0  0  0
 14 16  1  0  0  0  0
 15  3  2  0  0  0  0
 16 17  2  0  0  0  0
 17 15  1  0  0  0  0
 17  1  1  0  0  0  0
 18 13  1  0  0  0  0
 19 18  1  0  0  0  0
 20 18  2  0  0  0  0
 21  4  1  0  0  0  0
 22 34  1  0  0  0  0
 23 33  1  0  0  0  0
 24 26  2  0  0  0  0
 24 25  1  0  0  0  0
 25 32  1  0  0  0  0
 26 28  1  0  0  0  0
 27 25  2  0  0  0  0
 28 22  2  0  0  0  0
 28 31  1  0  0  0  0
 29 24  1  0  0  0  0
 30 31  1  0  0  0  0
 31 23  2  0  0  0  0
 32 30  1  0  0  0  0
 33 21  1  0  0  0  0
 34 33  2  0  0  0  0
M  END
>  <MODEL>
3

>  <REMARK>
 VINA RESULT:     -10.0      2.438      8.475
  Name = 
  3 active torsions:
  status: ('A' for Active; 'I' for Inactive)
    1  A    between atoms: C_3  and  C_25
    2  A    between atoms: C_8  and  N_18
    3  A    between atoms: N_18  and  C_30
                            x       y       z     vdW  Elec       q    Type
                         _______ _______ _______ _____ _____    ______ ____

>  <TORSDO>
F 3

$$$$
=
 OpenBabel11062409483D

 34 39  0  0  0  0  0  0  0  0999 V2000
  161.8010  207.2410  151.0230 C   0  0  0  0  0  0  0  0  0  0  0  0
  161.3550  204.9350  147.8380 C   0  0  0  0  0  3  0  0  0  0  0  0
  162.0020  207.1890  148.1620 C   0  0  0  0  0  3  0  0  0  0  0  0
  161.4450  208.6410  153.0340 C   0  0  0  0  0  0  0  0  0  0  0  0
  161.4770  207.4200  152.4570 C   0  0  0  0  0  3  0  0  0  0  0  0
  162.2300  209.6000  150.9060 N   0  0  0  0  0  0  0  0  0  0  0  0
  162.2530  210.4450  149.7510 C   0  0  0  0  0  3  0  0  0  0  0  0
  161.6290  209.9020  152.2040 C   0  0  0  0  0  2  0  0  0  0  0  0
  162.3340  208.3230  148.9630 N   0  0  0  0  0  0  0  0  0  0  0  0
  162.2130  208.3050  150.3570 C   0  0  0  0  0  0  0  0  0  0  0  0
  162.3190  209.7090  148.6270 C   0  0  0  0  0  3  0  0  0  0  0  0
  161.0610  203.6650  148.0890 C   0  0  0  0  0  3  0  0  0  0  0  0
  160.9600  202.9460  149.3660 C   0  0  0  0  0  0  0  0  0  0  0  0
  161.0760  203.4950  150.5760 C   0  0  0  0  0  3  0  0  0  0  0  0
  161.6710  206.0290  148.7600 C   0  0  0  0  0  0  0  0  0  0  0  0
  161.3340  204.8790  150.9820 C   0  0  0  0  0  3  0  0  0  0  0  0
  161.5890  205.9740  150.2630 C   0  0  0  0  0  0  0  0  0  0  0  0
  160.6880  201.4970  149.2880 C   0  0  0  0  0  0  0  0  0  0  0  0
  161.2730  200.7280  148.2880 O   0  0  0  0  0  0  0  0  0  0  0  0
  159.9250  200.9370  150.1210 O   0  0  0  0  0  1  0  0  0  0  0  0
  161.1210  208.8040  154.4240 N   0  0  0  0  0  2  0  0  0  0  0  0
  159.4850  211.1290  156.8780 C   0  0  0  0  0  3  0  0  0  0  0  0
  159.1390  210.2110  154.2720 C   0  0  0  0  0  3  0  0  0  0  0  0
  156.6030  213.4250  156.3310 C   0  0  0  0  0  0  0  0  0  0  0  0
  156.3220  213.6690  154.8990 C   0  0  0  0  0  0  0  0  0  0  0  0
  157.5120  212.5650  156.8140 C   0  0  0  0  0  3  0  0  0  0  0  0
  155.3860  214.4530  154.5890 O   0  0  0  0  0  0  0  0  0  0  0  0
  158.4110  211.6140  156.1230 C   0  0  0  0  0  0  0  0  0  0  0  0
  155.8770  214.1590  157.2610 O   0  0  0  0  0  1  0  0  0  0  0  0
  157.0960  211.5540  153.9430 C   0  0  0  0  0  2  0  0  0  0  0  0
  158.2340  211.1370  154.8050 C   0  0  0  0  0  0  0  0  0  0  0  0
  157.1090  213.0560  153.7950 C   0  0  0  0  0  2  0  0  0  0  0  0
  160.2150  209.7410  155.0270 C   0  0  0  0  0  0  0  0  0  0  0  0
  160.3830  210.2080  156.3360 C   0  0  0  0  0  3  0  0  0  0  0  0
  1  5  1  0  0  0  0
  2 12  2  0  0  0  0
  2 15  1  0  0  0  0
  3 15  2  0  0  0  0
  3  9  1  0  0  0  0
  4 21  1  0  0  0  0
  5  4  2  0  0  0  0
  6  8  1  0  0  0  0
  7  6  1  0  0  0  0
  8  4  1  0  0  0  0
  9 10  1  0  0  0  0
 10  6  1  0  0  0  0
 10  1  2  0  0  0  0
 11  9  1  0  0  0  0
 11  7  2  0  0  0  0
 12 13  1  0  0  0  0
 13 14  2  0  0  0  0
 14 16  1  0  0  0  0
 15 17  1  0  0  0  0
 17 16  2  0  0  0  0
 17  1  1  0  0  0  0
 18 13  1  0  0  0  0
 18 20  1  0  0  0  0
 19 18  2  0  0  0  0
 21 33  1  0  0  0  0
 23 31  2  0  0  0  0
 23 33  1  0  0  0  0
 24 26  2  0  0  0  0
 24 29  1  0  0  0  0
 25 24  1  0  0  0  0
 27 25  2  0  0  0  0
 28 26  1  0  0  0  0
 28 22  2  0  0  0  0
 30 31  1  0  0  0  0
 31 28  1  0  0  0  0
 32 30  1  0  0  0  0
 32 25  1  0  0  0  0
 33 34  2  0  0  0  0
 34 22  1  0  0  0  0
M  END
>  <MODEL>
4

>  <REMARK>
 VINA RESULT:      -9.4      4.798      7.217
  Name = 
  3 active torsions:
  status: ('A' for Active; 'I' for Inactive)
    1  A    between atoms: C_3  and  C_25
    2  A    between atoms: C_8  and  N_18
    3  A    between atoms: N_18  and  C_30
                            x       y       z     vdW  Elec       q    Type
                         _______ _______ _______ _____ _____    ______ ____

>  <TORSDO>
F 3

$$$$
=
 OpenBabel11062409483D

 34 39  0  0  0  0  0  0  0  0999 V2000
  161.2350  207.6950  151.4660 C   0  0  0  0  0  0  0  0  0  0  0  0
  161.1170  203.7410  151.5310 C   0  0  0  0  0  3  0  0  0  0  0  0
  160.8910  205.4220  153.1810 C   0  0  0  0  0  3  0  0  0  0  0  0
  161.9260  210.0670  151.3110 C   0  0  0  0  0  0  0  0  0  0  0  0
  161.6540  208.8930  150.7020 C   0  0  0  0  0  3  0  0  0  0  0  0
  161.2210  209.0580  153.4420 N   0  0  0  0  0  0  0  0  0  0  0  0
  161.2910  208.6430  154.8110 C   0  0  0  0  0  3  0  0  0  0  0  0
  161.9270  210.1800  152.8270 C   0  0  0  0  0  2  0  0  0  0  0  0
  160.8010  206.7760  153.6260 N   0  0  0  0  0  0  0  0  0  0  0  0
  160.9840  207.8550  152.7530 C   0  0  0  0  0  0  0  0  0  0  0  0
  161.0430  207.3260  154.9200 C   0  0  0  0  0  3  0  0  0  0  0  0
  161.1960  203.1470  150.3470 C   0  0  0  0  0  3  0  0  0  0  0  0
  161.2310  203.7220  148.9950 C   0  0  0  0  0  0  0  0  0  0  0  0
  161.2700  205.0230  148.7060 C   0  0  0  0  0  3  0  0  0  0  0  0
  161.0420  205.1640  151.8690 C   0  0  0  0  0  0  0  0  0  0  0  0
  161.2790  206.2000  149.5790 C   0  0  0  0  0  3  0  0  0  0  0  0
  161.1850  206.3130  150.9050 C   0  0  0  0  0  0  0  0  0  0  0  0
  161.2400  202.7640  147.8700 C   0  0  0  0  0  0  0  0  0  0  0  0
  161.4490  203.2130  146.5710 O   0  0  0  0  0  0  0  0  0  0  0  0
  161.0590  201.5320  148.0700 O   0  0  0  0  0  1  0  0  0  0  0  0
  162.3400  211.2210  150.5600 N   0  0  0  0  0  2  0  0  0  0  0  0
  161.6570  212.1940  146.9980 C   0  0  0  0  0  3  0  0  0  0  0  0
  160.5460  212.5090  149.5310 C   0  0  0  0  0  3  0  0  0  0  0  0
  158.6730  213.9310  145.5990 C   0  0  0  0  0  0  0  0  0  0  0  0
  157.5110  213.9120  146.5150 C   0  0  0  0  0  0  0  0  0  0  0  0
  159.9010  213.4740  145.8840 C   0  0  0  0  0  3  0  0  0  0  0  0
  156.4330  214.4450  146.1390 O   0  0  0  0  0  0  0  0  0  0  0  0
  160.4590  212.9050  147.1320 C   0  0  0  0  0  0  0  0  0  0  0  0
  158.4770  214.4520  144.3260 O   0  0  0  0  0  1  0  0  0  0  0  0
  158.6650  213.8520  148.6720 C   0  0  0  0  0  2  0  0  0  0  0  0
  159.9050  213.0710  148.4220 C   0  0  0  0  0  0  0  0  0  0  0  0
  157.5370  213.2680  147.8560 C   0  0  0  0  0  2  0  0  0  0  0  0
  161.7350  211.7900  149.3880 C   0  0  0  0  0  0  0  0  0  0  0  0
  162.2860  211.6350  148.1110 C   0  0  0  0  0  3  0  0  0  0  0  0
  1 10  2  0  0  0  0
  2 15  1  0  0  0  0
  3  9  1  0  0  0  0
  4  8  1  0  0  0  0
  5  4  2  0  0  0  0
  5  1  1  0  0  0  0
  6  7  1  0  0  0  0
  7 11  2  0  0  0  0
  8  6  1  0  0  0  0
  9 11  1  0  0  0  0
 10  6  1  0  0  0  0
 10  9  1  0  0  0  0
 12  2  2  0  0  0  0
 13 12  1  0  0  0  0
 14 13  2  0  0  0  0
 14 16  1  0  0  0  0
 15  3  2  0  0  0  0
 16 17  2  0  0  0  0
 17  1  1  0  0  0  0
 17 15  1  0  0  0  0
 18 20  1  0  0  0  0
 18 13  1  0  0  0  0
 19 18  2  0  0  0  0
 21  4  1  0  0  0  0
 22 28  2  0  0  0  0
 22 34  1  0  0  0  0
 24 26  2  0  0  0  0
 24 25  1  0  0  0  0
 25 32  1  0  0  0  0
 26 28  1  0  0  0  0
 27 25  2  0  0  0  0
 28 31  1  0  0  0  0
 29 24  1  0  0  0  0
 31 30  1  0  0  0  0
 31 23  2  0  0  0  0
 32 30  1  0  0  0  0
 33 23  1  0  0  0  0
 33 21  1  0  0  0  0
 34 33  2  0  0  0  0
M  END
>  <MODEL>
5

>  <REMARK>
 VINA RESULT:      -9.4      1.578      2.268
  Name = 
  3 active torsions:
  status: ('A' for Active; 'I' for Inactive)
    1  A    between atoms: C_3  and  C_25
    2  A    between atoms: C_8  and  N_18
    3  A    between atoms: N_18  and  C_30
                            x       y       z     vdW  Elec       q    Type
                         _______ _______ _______ _____ _____    ______ ____

>  <TORSDO>
F 3

$$$$
=
 OpenBabel11062409483D

 34 39  0  0  0  0  0  0  0  0999 V2000
  161.1660  210.7110  151.3620 C   0  0  0  0  0  0  0  0  0  0  0  0
  160.1000  213.9580  149.3680 C   0  0  0  0  0  3  0  0  0  0  0  0
  159.8220  213.2330  151.6040 C   0  0  0  0  0  3  0  0  0  0  0  0
  161.3900  208.4080  152.2420 C   0  0  0  0  0  0  0  0  0  0  0  0
  161.6120  209.3020  151.2540 C   0  0  0  0  0  3  0  0  0  0  0  0
  160.4500  210.2310  153.6020 N   0  0  0  0  0  0  0  0  0  0  0  0
  159.5060  210.9460  154.4080 C   0  0  0  0  0  3  0  0  0  0  0  0
  160.5670  208.7810  153.4650 C   0  0  0  0  0  2  0  0  0  0  0  0
  160.0250  212.3310  152.6920 N   0  0  0  0  0  0  0  0  0  0  0  0
  160.6810  211.1060  152.5250 C   0  0  0  0  0  0  0  0  0  0  0  0
  159.2640  212.1620  153.8870 C   0  0  0  0  0  3  0  0  0  0  0  0
  160.5380  214.0310  148.1170 C   0  0  0  0  0  3  0  0  0  0  0  0
  161.4360  213.1390  147.3710 C   0  0  0  0  0  0  0  0  0  0  0  0
  161.9370  211.9880  147.8210 C   0  0  0  0  0  3  0  0  0  0  0  0
  160.3710  212.9600  150.4050 C   0  0  0  0  0  0  0  0  0  0  0  0
  161.7720  211.3080  149.1090 C   0  0  0  0  0  3  0  0  0  0  0  0
  161.1290  211.6710  150.2200 C   0  0  0  0  0  0  0  0  0  0  0  0
  161.7910  213.5570  145.9990 C   0  0  0  0  0  0  0  0  0  0  0  0
  160.8800  213.3940  144.9610 O   0  0  0  0  0  0  0  0  0  0  0  0
  162.9180  214.0630  145.7500 O   0  0  0  0  0  1  0  0  0  0  0  0
  161.8190  207.0420  152.1240 N   0  0  0  0  0  2  0  0  0  0  0  0
  161.1680  204.0000  150.0190 C   0  0  0  0  0  3  0  0  0  0  0  0
  161.9490  206.6560  149.7220 C   0  0  0  0  0  3  0  0  0  0  0  0
  161.1430  203.7110  146.3050 C   0  0  0  0  0  0  0  0  0  0  0  0
  161.0450  205.0210  145.6240 C   0  0  0  0  0  0  0  0  0  0  0  0
  161.2740  203.5250  147.6270 C   0  0  0  0  0  3  0  0  0  0  0  0
  160.9990  205.0500  144.3660 O   0  0  0  0  0  0  0  0  0  0  0  0
  161.4160  204.4960  148.7350 C   0  0  0  0  0  0  0  0  0  0  0  0
  161.0770  202.5710  145.5140 O   0  0  0  0  0  1  0  0  0  0  0  0
  162.1560  206.4470  147.2740 C   0  0  0  0  0  2  0  0  0  0  0  0
  161.8220  205.8420  148.5910 C   0  0  0  0  0  0  0  0  0  0  0  0
  160.9680  206.3170  146.3520 C   0  0  0  0  0  2  0  0  0  0  0  0
  161.6880  206.1570  151.0000 C   0  0  0  0  0  0  0  0  0  0  0  0
  161.2950  204.8200  151.1410 C   0  0  0  0  0  3  0  0  0  0  0  0
  1 10  2  0  0  0  0
  2 15  1  0  0  0  0
  3  9  1  0  0  0  0
  4  8  1  0  0  0  0
  5  1  1  0  0  0  0
  5  4  2  0  0  0  0
  6  7  1  0  0  0  0
  8  6  1  0  0  0  0
  9 11  1  0  0  0  0
 10  9  1  0  0  0  0
 10  6  1  0  0  0  0
 11  7  2  0  0  0  0
 12  2  2  0  0  0  0
 13 14  2  0  0  0  0
 13 12  1  0  0  0  0
 14 16  1  0  0  0  0
 15  3  2  0  0  0  0
 16 17  2  0  0  0  0
 17 15  1  0  0  0  0
 17  1  1  0  0  0  0
 18 13  1  0  0  0  0
 19 18  2  0  0  0  0
 20 18  1  0  0  0  0
 21  4  1  0  0  0  0
 22 34  1  0  0  0  0
 23 33  1  0  0  0  0
 24 26  2  0  0  0  0
 25 24  1  0  0  0  0
 25 32  1  0  0  0  0
 26 28  1  0  0  0  0
 27 25  2  0  0  0  0
 28 22  2  0  0  0  0
 29 24  1  0  0  0  0
 30 31  1  0  0  0  0
 31 28  1  0  0  0  0
 31 23  2  0  0  0  0
 32 30  1  0  0  0  0
 33 34  2  0  0  0  0
 33 21  1  0  0  0  0
M  END
>  <MODEL>
6

>  <REMARK>
 VINA RESULT:      -9.0      1.884      7.532
  Name = 
  3 active torsions:
  status: ('A' for Active; 'I' for Inactive)
    1  A    between atoms: C_3  and  C_25
    2  A    between atoms: C_8  and  N_18
    3  A    between atoms: N_18  and  C_30
                            x       y       z     vdW  Elec       q    Type
                         _______ _______ _______ _____ _____    ______ ____

>  <TORSDO>
F 3

$$$$
=
 OpenBabel11062409483D

 34 39  0  0  0  0  0  0  0  0999 V2000
  160.7760  208.4480  152.3930 C   0  0  0  0  0  0  0  0  0  0  0  0
  161.5910  204.5810  152.1990 C   0  0  0  0  0  3  0  0  0  0  0  0
  161.3280  206.1210  153.9770 C   0  0  0  0  0  3  0  0  0  0  0  0
  160.8520  210.9200  152.2750 C   0  0  0  0  0  0  0  0  0  0  0  0
  160.7390  209.7280  151.6490 C   0  0  0  0  0  3  0  0  0  0  0  0
  160.8540  209.7220  154.4260 N   0  0  0  0  0  0  0  0  0  0  0  0
  161.2990  209.3060  155.7220 C   0  0  0  0  0  3  0  0  0  0  0  0
  161.1380  210.9950  153.7660 C   0  0  0  0  0  2  0  0  0  0  0  0
  161.0210  207.4030  154.5250 N   0  0  0  0  0  0  0  0  0  0  0  0
  160.7650  208.5140  153.7130 C   0  0  0  0  0  0  0  0  0  0  0  0
  161.3900  207.9660  155.7830 C   0  0  0  0  0  3  0  0  0  0  0  0
  161.5600  204.0500  150.9830 C   0  0  0  0  0  3  0  0  0  0  0  0
  161.1810  204.6470  149.6950 C   0  0  0  0  0  0  0  0  0  0  0  0
  160.8580  205.9250  149.4970 C   0  0  0  0  0  3  0  0  0  0  0  0
  161.2610  205.9360  152.6450 C   0  0  0  0  0  0  0  0  0  0  0  0
  160.7740  207.0500  150.4330 C   0  0  0  0  0  3  0  0  0  0  0  0
  160.9320  207.1070  151.7560 C   0  0  0  0  0  0  0  0  0  0  0  0
  161.1800  203.7450  148.5250 C   0  0  0  0  0  0  0  0  0  0  0  0
  160.6540  202.4620  148.6300 O   0  0  0  0  0  1  0  0  0  0  0  0
  161.6540  204.1220  147.4180 O   0  0  0  0  0  0  0  0  0  0  0  0
  160.8230  212.1550  151.5420 N   0  0  0  0  0  2  0  0  0  0  0  0
  161.9340  211.9370  147.9610 C   0  0  0  0  0  3  0  0  0  0  0  0
  159.9920  213.2010  149.5050 C   0  0  0  0  0  3  0  0  0  0  0  0
  160.3220  213.4030  144.9390 C   0  0  0  0  0  0  0  0  0  0  0  0
  158.9210  213.8150  145.1740 C   0  0  0  0  0  0  0  0  0  0  0  0
  161.1690  212.9430  145.8720 C   0  0  0  0  0  3  0  0  0  0  0  0
  158.2610  214.2990  144.2160 O   0  0  0  0  0  0  0  0  0  0  0  0
  161.0030  212.7730  147.3330 C   0  0  0  0  0  0  0  0  0  0  0  0
  160.8040  213.4820  143.6390 O   0  0  0  0  0  1  0  0  0  0  0  0
  159.0270  214.3640  147.5560 C   0  0  0  0  0  2  0  0  0  0  0  0
  160.0270  213.4200  148.1230 C   0  0  0  0  0  0  0  0  0  0  0  0
  158.2310  213.6610  146.4840 C   0  0  0  0  0  2  0  0  0  0  0  0
  160.9160  212.3560  150.1230 C   0  0  0  0  0  0  0  0  0  0  0  0
  161.8890  211.7230  149.3390 C   0  0  0  0  0  3  0  0  0  0  0  0
  1 10  2  0  0  0  0
  2 15  1  0  0  0  0
  3  9  1  0  0  0  0
  4  8  1  0  0  0  0
  5  4  2  0  0  0  0
  5  1  1  0  0  0  0
  6  7  1  0  0  0  0
  7 11  2  0  0  0  0
  8  6  1  0  0  0  0
  9 11  1  0  0  0  0
 10  6  1  0  0  0  0
 10  9  1  0  0  0  0
 12  2  2  0  0  0  0
 13 12  1  0  0  0  0
 14 13  2  0  0  0  0
 14 16  1  0  0  0  0
 15  3  2  0  0  0  0
 16 17  2  0  0  0  0
 17  1  1  0  0  0  0
 17 15  1  0  0  0  0
 18 19  1  0  0  0  0
 18 13  1  0  0  0  0
 20 18  2  0  0  0  0
 21  4  1  0  0  0  0
 22 34  1  0  0  0  0
 23 33  1  0  0  0  0
 24 25  1  0  0  0  0
 24 26  2  0  0  0  0
 25 32  1  0  0  0  0
 26 28  1  0  0  0  0
 27 25  2  0  0  0  0
 28 22  2  0  0  0  0
 28 31  1  0  0  0  0
 29 24  1  0  0  0  0
 30 31  1  0  0  0  0
 31 23  2  0  0  0  0
 32 30  1  0  0  0  0
 33 21  1  0  0  0  0
 34 33  2  0  0  0  0
M  END
>  <MODEL>
7

>  <REMARK>
 VINA RESULT:      -8.9      1.730      2.446
  Name = 
  3 active torsions:
  status: ('A' for Active; 'I' for Inactive)
    1  A    between atoms: C_3  and  C_25
    2  A    between atoms: C_8  and  N_18
    3  A    between atoms: N_18  and  C_30
                            x       y       z     vdW  Elec       q    Type
                         _______ _______ _______ _____ _____    ______ ____

>  <TORSDO>
F 3

$$$$
=
 OpenBabel11062409483D

 34 39  0  0  0  0  0  0  0  0999 V2000
  160.6040  208.6110  152.6260 C   0  0  0  0  0  0  0  0  0  0  0  0
  161.6220  204.8310  152.0500 C   0  0  0  0  0  3  0  0  0  0  0  0
  161.2790  206.1700  153.9720 C   0  0  0  0  0  3  0  0  0  0  0  0
  160.5500  211.0830  152.7550 C   0  0  0  0  0  0  0  0  0  0  0  0
  160.5000  209.9560  152.0130 C   0  0  0  0  0  3  0  0  0  0  0  0
  160.6180  209.6780  154.7760 N   0  0  0  0  0  0  0  0  0  0  0  0
  161.0850  209.1590  156.0260 C   0  0  0  0  0  3  0  0  0  0  0  0
  160.8340  211.0240  154.2480 C   0  0  0  0  0  2  0  0  0  0  0  0
  160.9060  207.3730  154.6440 N   0  0  0  0  0  0  0  0  0  0  0  0
  160.5920  208.5440  153.9460 C   0  0  0  0  0  0  0  0  0  0  0  0
  161.2470  207.8260  155.9540 C   0  0  0  0  0  3  0  0  0  0  0  0
  161.6170  204.4240  150.7870 C   0  0  0  0  0  3  0  0  0  0  0  0
  161.2060  205.1250  149.5630 C   0  0  0  0  0  0  0  0  0  0  0  0
  160.8160  206.3980  149.4930 C   0  0  0  0  0  3  0  0  0  0  0  0
  161.2210  206.1160  152.6280 C   0  0  0  0  0  0  0  0  0  0  0  0
  160.6740  207.4180  150.5360 C   0  0  0  0  0  3  0  0  0  0  0  0
  160.8300  207.3510  151.8590 C   0  0  0  0  0  0  0  0  0  0  0  0
  161.2510  204.3460  148.3090 C   0  0  0  0  0  0  0  0  0  0  0  0
  161.2580  202.9560  148.3490 O   0  0  0  0  0  1  0  0  0  0  0  0
  161.2840  204.9260  147.1900 O   0  0  0  0  0  0  0  0  0  0  0  0
  160.4560  212.3820  152.1500 N   0  0  0  0  0  2  0  0  0  0  0  0
  158.9290  213.7040  148.9840 C   0  0  0  0  0  3  0  0  0  0  0  0
  161.2090  212.3500  149.8330 C   0  0  0  0  0  3  0  0  0  0  0  0
  160.4020  213.8070  145.5630 C   0  0  0  0  0  0  0  0  0  0  0  0
  161.8690  213.6110  145.5600 C   0  0  0  0  0  0  0  0  0  0  0  0
  159.6040  213.7160  146.6370 C   0  0  0  0  0  3  0  0  0  0  0  0
  162.4850  213.6540  144.4620 O   0  0  0  0  0  0  0  0  0  0  0  0
  159.9040  213.3560  148.0420 C   0  0  0  0  0  0  0  0  0  0  0  0
  159.7960  214.1280  144.3560 O   0  0  0  0  0  1  0  0  0  0  0  0
  162.1200  212.2040  147.5460 C   0  0  0  0  0  2  0  0  0  0  0  0
  161.0540  212.6600  148.4770 C   0  0  0  0  0  0  0  0  0  0  0  0
  162.6680  213.3940  146.7970 C   0  0  0  0  0  2  0  0  0  0  0  0
  160.2370  212.7120  150.7690 C   0  0  0  0  0  0  0  0  0  0  0  0
  159.0940  213.3930  150.3340 C   0  0  0  0  0  3  0  0  0  0  0  0
  1 10  2  0  0  0  0
  2 15  1  0  0  0  0
  3  9  1  0  0  0  0
  4  8  1  0  0  0  0
  5  1  1  0  0  0  0
  5  4  2  0  0  0  0
  6  7  1  0  0  0  0
  8  6  1  0  0  0  0
  9 11  1  0  0  0  0
 10  9  1  0  0  0  0
 10  6  1  0  0  0  0
 11  7  2  0  0  0  0
 12  2  2  0  0  0  0
 13 12  1  0  0  0  0
 14 13  2  0  0  0  0
 14 16  1  0  0  0  0
 15  3  2  0  0  0  0
 16 17  2  0  0  0  0
 17  1  1  0  0  0  0
 17 15  1  0  0  0  0
 18 19  1  0  0  0  0
 18 13  1  0  0  0  0
 20 18  2  0  0  0  0
 21  4  1  0  0  0  0
 22 34  1  0  0  0  0
 23 33  1  0  0  0  0
 24 26  2  0  0  0  0
 25 24  1  0  0  0  0
 25 32  1  0  0  0  0
 26 28  1  0  0  0  0
 27 25  2  0  0  0  0
 28 31  1  0  0  0  0
 28 22  2  0  0  0  0
 29 24  1  0  0  0  0
 30 31  1  0  0  0  0
 31 23  2  0  0  0  0
 32 30  1  0  0  0  0
 33 21  1  0  0  0  0
 34 33  2  0  0  0  0
M  END
>  <MODEL>
8

>  <REMARK>
 VINA RESULT:      -8.9      1.896      3.054
  Name = 
  3 active torsions:
  status: ('A' for Active; 'I' for Inactive)
    1  A    between atoms: C_3  and  C_25
    2  A    between atoms: C_8  and  N_18
    3  A    between atoms: N_18  and  C_30
                            x       y       z     vdW  Elec       q    Type
                         _______ _______ _______ _____ _____    ______ ____

>  <TORSDO>
F 3

$$$$
=
 OpenBabel11062409483D

 34 39  0  0  0  0  0  0  0  0999 V2000
  160.0680  210.0210  153.4960 C   0  0  0  0  0  0  0  0  0  0  0  0
  157.1140  211.3710  155.7550 C   0  0  0  0  0  3  0  0  0  0  0  0
  158.9330  209.9040  156.1270 C   0  0  0  0  0  3  0  0  0  0  0  0
  161.4440  208.8600  151.7970 C   0  0  0  0  0  0  0  0  0  0  0  0
  160.5580  209.8300  152.1110 C   0  0  0  0  0  3  0  0  0  0  0  0
  161.5940  208.3040  154.1900 N   0  0  0  0  0  0  0  0  0  0  0  0
  161.5600  207.5090  155.3810 C   0  0  0  0  0  3  0  0  0  0  0  0
  161.8920  207.8430  152.8360 C   0  0  0  0  0  2  0  0  0  0  0  0
  160.1330  209.2300  155.7470 N   0  0  0  0  0  0  0  0  0  0  0  0
  160.6460  209.3100  154.4470 C   0  0  0  0  0  0  0  0  0  0  0  0
  160.7200  208.0460  156.2840 C   0  0  0  0  0  3  0  0  0  0  0  0
  156.3280  212.2790  155.1880 C   0  0  0  0  0  3  0  0  0  0  0  0
  156.4280  212.9370  153.8780 C   0  0  0  0  0  0  0  0  0  0  0  0
  157.3360  212.6650  152.9410 C   0  0  0  0  0  3  0  0  0  0  0  0
  158.3320  210.7330  155.2530 C   0  0  0  0  0  0  0  0  0  0  0  0
  158.4440  211.7050  152.9260 C   0  0  0  0  0  3  0  0  0  0  0  0
  158.9010  210.8760  153.8660 C   0  0  0  0  0  0  0  0  0  0  0  0
  155.4190  213.9740  153.5820 C   0  0  0  0  0  0  0  0  0  0  0  0
  154.5740  214.4350  154.5860 O   0  0  0  0  0  1  0  0  0  0  0  0
  155.3070  214.4530  152.4210 O   0  0  0  0  0  0  0  0  0  0  0  0
  161.9070  208.6780  150.4490 N   0  0  0  0  0  2  0  0  0  0  0  0
  162.2190  206.3040  147.5550 C   0  0  0  0  0  3  0  0  0  0  0  0
  161.1250  206.3950  150.1140 C   0  0  0  0  0  3  0  0  0  0  0  0
  161.1940  202.7270  147.3680 C   0  0  0  0  0  0  0  0  0  0  0  0
  160.9600  202.1230  148.6980 C   0  0  0  0  0  0  0  0  0  0  0  0
  161.4710  204.0180  147.1340 C   0  0  0  0  0  3  0  0  0  0  0  0
  160.6360  200.9080  148.7640 O   0  0  0  0  0  0  0  0  0  0  0  0
  161.5610  205.1740  148.0540 C   0  0  0  0  0  0  0  0  0  0  0  0
  161.1410  201.8860  146.2640 O   0  0  0  0  0  1  0  0  0  0  0  0
  160.2390  204.0990  149.9470 C   0  0  0  0  0  2  0  0  0  0  0  0
  160.9990  205.2290  149.3500 C   0  0  0  0  0  0  0  0  0  0  0  0
  161.1150  202.8710  149.9750 C   0  0  0  0  0  2  0  0  0  0  0  0
  161.7940  207.5140  149.6140 C   0  0  0  0  0  0  0  0  0  0  0  0
  162.3420  207.4600  148.3270 C   0  0  0  0  0  3  0  0  0  0  0  0
  1 17  1  0  0  0  0
  1 10  2  0  0  0  0
  4  5  2  0  0  0  0
  4  8  1  0  0  0  0
  5  1  1  0  0  0  0
  6 10  1  0  0  0  0
  6  7  1  0  0  0  0
  7 11  2  0  0  0  0
  8  6  1  0  0  0  0
  9  3  1  0  0  0  0
  9 11  1  0  0  0  0
 10  9  1  0  0  0  0
 12  2  2  0  0  0  0
 13 12  1  0  0  0  0
 14 13  2  0  0  0  0
 15  2  1  0  0  0  0
 15  3  2  0  0  0  0
 16 14  1  0  0  0  0
 16 17  2  0  0  0  0
 17 15  1  0  0  0  0
 18 13  1  0  0  0  0
 18 19  1  0  0  0  0
 20 18  2  0  0  0  0
 21  4  1  0  0  0  0
 22 28  2  0  0  0  0
 22 34  1  0  0  0  0
 24 25  1  0  0  0  0
 25 27  2  0  0  0  0
 25 32  1  0  0  0  0
 26 24  2  0  0  0  0
 26 28  1  0  0  0  0
 28 31  1  0  0  0  0
 29 24  1  0  0  0  0
 30 32  1  0  0  0  0
 31 30  1  0  0  0  0
 31 23  2  0  0  0  0
 33 23  1  0  0  0  0
 33 21  1  0  0  0  0
 34 33  2  0  0  0  0
M  END
>  <MODEL>
9

>  <REMARK>
 VINA RESULT:      -8.8      4.585      8.931
  Name = 
  3 active torsions:
  status: ('A' for Active; 'I' for Inactive)
    1  A    between atoms: C_3  and  C_25
    2  A    between atoms: C_8  and  N_18
    3  A    between atoms: N_18  and  C_30
                            x       y       z     vdW  Elec       q    Type
                         _______ _______ _______ _____ _____    ______ ____

>  <TORSDO>
F 3

$$$$
