=
 OpenBabel11052416033D

 34 39  0  0  1  0  0  0  0  0999 V2000
  181.3810  176.9350  138.4590 C   0  0  0  0  0  0  0  0  0  0  0  0
  182.2930  177.5570  135.8240 C   0  0  0  0  0  3  0  0  0  0  0  0
  185.8010  178.3310  139.5110 C   0  0  0  0  0  0  0  0  0  0  0  0
  181.2450  178.3690  137.9870 C   0  0  1  0  0  0  0  0  0  0  0  0
  184.0750  180.5750  138.7340 O   0  0  0  0  0  1  0  0  0  0  0  0
  185.9360  177.4170  136.0320 C   0  0  1  0  0  3  0  0  0  0  0  0
  183.5750  179.2740  138.8140 C   0  0  2  0  0  3  0  0  0  0  0  0
  183.8080  177.2070  140.0320 F   0  0  0  0  0  0  0  0  0  0  0  0
  182.0300  179.3260  138.9510 C   0  0  2  0  0  3  0  0  0  0  0  0
  187.3170  178.0110  136.2570 C   0  0  1  0  0  0  0  0  0  0  0  0
  185.3380  177.1610  137.3460 N   0  0  2  0  0  0  0  0  0  0  0  0
  188.5490  177.5920  135.4830 C   0  0  0  0  0  1  0  0  0  0  0  0
  186.2250  177.7700  138.2550 N   0  0  0  0  0  0  0  0  0  0  0  0
  181.5510  179.3540  140.4030 C   0  0  0  0  0  1  0  0  0  0  0  0
  184.2520  179.1200  141.1040 F   0  0  0  0  0  0  0  0  0  0  0  0
  180.8990  176.5840  139.5720 O   0  0  0  0  0  0  0  0  0  0  0  0
  185.1500  178.3240  135.3210 O   0  0  0  0  0  1  0  0  0  0  0  0
  182.2300  176.1180  136.2330 C   0  0  1  0  0  3  0  0  0  0  0  0
  183.5340  175.4200  135.8740 C   0  0  1  0  0  3  0  0  0  0  0  0
  187.3620  179.2750  136.8640 O   0  0  0  0  0  0  0  0  0  0  0  0
  184.1620  174.9470  137.1930 C   0  0  1  0  0  3  0  0  0  0  0  0
  187.5120  178.1450  137.6990 C   0  0  2  0  0  3  0  0  0  0  0  0
  185.4430  175.7150  137.5540 C   0  0  0  0  0  2  0  0  0  0  0  0
  184.3440  178.4670  139.8830 C   0  0  0  0  0  0  0  0  0  0  0  0
  186.6740  178.7370  140.3250 O   0  0  0  0  0  0  0  0  0  0  0  0
  181.8470  178.5490  136.6040 C   0  0  0  0  0  3  0  0  0  0  0  0
  183.1090  175.1360  138.2650 C   0  0  0  0  0  2  0  0  0  0  0  0
  182.0990  175.9840  137.6720 N   0  0  0  0  0  0  0  0  0  0  0  0
  183.3050  174.2760  134.8820 C   0  0  1  0  0  3  0  0  0  0  0  0
  183.9460  173.1210  135.3300 O   0  0  0  0  0  1  0  0  0  0  0  0
  181.8310  173.9840  134.6410 C   0  0  0  0  0  1  0  0  0  0  0  0
  179.3020  180.1010  138.0540 C   0  0  0  0  0  2  0  0  0  0  0  0
  179.7320  178.6690  137.7880 C   0  0  0  0  0  3  0  0  0  0  0  0
  179.4550  179.6090  136.6270 C   0  0  0  0  0  2  0  0  0  0  0  0
  1 16  2  0  0  0  0
  2 26  2  0  0  0  0
  3 24  1  0  0  0  0
  3 25  2  0  0  0  0
  4 33  1  6  0  0  0
  4  1  1  0  0  0  0
  4  9  1  0  0  0  0
  6 17  1  6  0  0  0
  6 10  1  0  0  0  0
  6 11  1  0  0  0  0
  7  5  1  1  0  0  0
  7  9  1  0  0  0  0
  7 24  1  0  0  0  0
  9 14  1  1  0  0  0
 10 12  1  6  0  0  0
 10 20  1  0  0  0  0
 10 22  1  0  0  0  0
 11 23  1  1  0  0  0
 11 13  1  0  0  0  0
 13  3  1  0  0  0  0
 18  2  1  1  0  0  0
 18 28  1  0  0  0  0
 19 29  1  6  0  0  0
 19 18  1  0  0  0  0
 19 21  1  0  0  0  0
 21 23  1  1  0  0  0
 21 27  1  0  0  0  0
 22 20  1  6  0  0  0
 22 13  1  0  0  0  0
 24  8  1  0  0  0  0
 24 15  1  0  0  0  0
 26  4  1  0  0  0  0
 28 27  1  0  0  0  0
 28  1  1  0  0  0  0
 29 31  1  1  0  0  0
 29 30  1  0  0  0  0
 33 32  1  0  0  0  0
 34 33  1  0  0  0  0
 34 32  1  0  0  0  0
M  END
>  <MODEL>
1

>  <REMARK>
 VINA RESULT:      -4.8      0.000      0.000
  Name = 
  2 active torsions:
  status: ('A' for Active; 'I' for Inactive)
    1  A    between atoms: C_3  and  C_25
    2  A    between atoms: C_5  and  C_19
                            x       y       z     vdW  Elec       q    Type
                         _______ _______ _______ _____ _____    ______ ____

>  <TORSDO>
F 2

$$$$
=
 OpenBabel11052416033D

 34 39  0  0  1  0  0  0  0  0999 V2000
  189.0280  178.4170  137.5970 C   0  0  0  0  0  0  0  0  0  0  0  0
  190.2130  175.9860  138.5200 C   0  0  0  0  0  3  0  0  0  0  0  0
  186.3090  175.3180  135.2330 C   0  0  0  0  0  0  0  0  0  0  0  0
  188.4090  177.7460  138.8060 C   0  0  1  0  0  0  0  0  0  0  0  0
  185.7210  175.3540  138.1090 O   0  0  0  0  0  1  0  0  0  0  0  0
  189.3080  173.4880  136.0150 C   0  0  1  0  0  3  0  0  0  0  0  0
  186.6710  176.2150  137.5550 C   0  0  2  0  0  3  0  0  0  0  0  0
  187.1830  177.4700  135.5630 F   0  0  0  0  0  0  0  0  0  0  0  0
  186.9040  177.4090  138.5180 C   0  0  2  0  0  3  0  0  0  0  0  0
  188.4220  172.4050  135.4210 C   0  0  1  0  0  0  0  0  0  0  0  0
  188.7140  174.7870  135.6810 N   0  0  2  0  0  0  0  0  0  0  0  0
  188.9530  171.1920  134.6880 C   0  0  0  0  0  1  0  0  0  0  0  0
  187.4600  174.4610  135.1260 N   0  0  0  0  0  0  0  0  0  0  0  0
  185.9930  178.6040  138.2350 C   0  0  0  0  0  1  0  0  0  0  0  0
  185.0320  177.1180  136.0640 F   0  0  0  0  0  0  0  0  0  0  0  0
  188.6120  179.5440  137.2120 O   0  0  0  0  0  0  0  0  0  0  0  0
  189.3660  173.3340  137.4000 O   0  0  0  0  0  1  0  0  0  0  0  0
  190.9270  176.7670  137.4600 C   0  0  1  0  0  3  0  0  0  0  0  0
  191.3450  175.8410  136.3280 C   0  0  1  0  0  3  0  0  0  0  0  0
  187.1280  172.2940  135.9530 O   0  0  0  0  0  0  0  0  0  0  0  0
  190.6070  176.3180  135.0680 C   0  0  1  0  0  3  0  0  0  0  0  0
  187.2870  173.0640  134.7790 C   0  0  2  0  0  3  0  0  0  0  0  0
  189.5320  175.3290  134.5940 C   0  0  0  0  0  2  0  0  0  0  0  0
  186.3000  176.5570  136.0960 C   0  0  0  0  0  0  0  0  0  0  0  0
  185.2630  175.0180  134.5950 O   0  0  0  0  0  0  0  0  0  0  0  0
  189.1010  176.4300  139.1180 C   0  0  0  0  0  3  0  0  0  0  0  0
  189.9850  177.6550  135.4140 C   0  0  0  0  0  2  0  0  0  0  0  0
  190.0530  177.7550  136.8550 N   0  0  0  0  0  0  0  0  0  0  0  0
  192.8660  175.8180  136.1510 C   0  0  1  0  0  3  0  0  0  0  0  0
  193.4690  176.6530  137.0910 O   0  0  0  0  0  1  0  0  0  0  0  0
  193.4550  174.4190  136.2550 C   0  0  0  0  0  1  0  0  0  0  0  0
  187.6530  178.5880  141.1510 C   0  0  0  0  0  2  0  0  0  0  0  0
  188.6970  178.6340  140.0500 C   0  0  0  0  0  3  0  0  0  0  0  0
  188.9580  177.8300  141.3130 C   0  0  0  0  0  2  0  0  0  0  0  0
  1  4  1  0  0  0  0
  2 26  2  0  0  0  0
  3 24  1  0  0  0  0
  4 26  1  0  0  0  0
  4 33  1  1  0  0  0
  6 17  1  1  0  0  0
  7  5  1  1  0  0  0
  7  9  1  0  0  0  0
  8 24  1  0  0  0  0
  9 14  1  6  0  0  0
  9  4  1  0  0  0  0
 10 12  1  6  0  0  0
 10 20  1  0  0  0  0
 10  6  1  0  0  0  0
 11 23  1  6  0  0  0
 11  6  1  0  0  0  0
 13  3  1  0  0  0  0
 13 11  1  0  0  0  0
 15 24  1  0  0  0  0
 16  1  2  0  0  0  0
 18  2  1  1  0  0  0
 19 29  1  6  0  0  0
 19 18  1  0  0  0  0
 21 23  1  1  0  0  0
 21 27  1  0  0  0  0
 21 19  1  0  0  0  0
 22 13  1  0  0  0  0
 22 10  1  0  0  0  0
 22 20  1  1  0  0  0
 24  7  1  0  0  0  0
 25  3  2  0  0  0  0
 27 28  1  0  0  0  0
 28 18  1  0  0  0  0
 28  1  1  0  0  0  0
 29 31  1  1  0  0  0
 29 30  1  0  0  0  0
 32 34  1  0  0  0  0
 33 32  1  0  0  0  0
 33 34  1  0  0  0  0
M  END
>  <MODEL>
2

>  <REMARK>
 VINA RESULT:      -4.7      4.071      7.326
  Name = 
  2 active torsions:
  status: ('A' for Active; 'I' for Inactive)
    1  A    between atoms: C_3  and  C_25
    2  A    between atoms: C_5  and  C_19
                            x       y       z     vdW  Elec       q    Type
                         _______ _______ _______ _____ _____    ______ ____

>  <TORSDO>
F 2

$$$$
=
 OpenBabel11052416033D

 34 39  0  0  1  0  0  0  0  0999 V2000
  181.7710  177.8820  137.3050 C   0  0  0  0  0  0  0  0  0  0  0  0
  184.0140  176.5770  138.5020 C   0  0  0  0  0  3  0  0  0  0  0  0
  180.9250  173.4440  135.8310 C   0  0  0  0  0  0  0  0  0  0  0  0
  181.5770  177.2600  138.6740 C   0  0  1  0  0  0  0  0  0  0  0  0
  180.4230  173.7820  138.7030 O   0  0  0  0  0  1  0  0  0  0  0  0
  184.4440  173.4980  136.5850 C   0  0  1  0  0  3  0  0  0  0  0  0
  180.8160  174.8600  137.9070 C   0  0  2  0  0  3  0  0  0  0  0  0
  180.6200  175.7650  135.6830 F   0  0  0  0  0  0  0  0  0  0  0  0
  180.4350  176.1870  138.6160 C   0  0  2  0  0  3  0  0  0  0  0  0
  184.2060  172.0270  136.2900 C   0  0  1  0  0  0  0  0  0  0  0  0
  183.2810  174.2470  136.0980 N   0  0  2  0  0  0  0  0  0  0  0  0
  185.2620  171.1000  135.7260 C   0  0  0  0  0  1  0  0  0  0  0  0
  182.3490  173.2500  135.7490 N   0  0  0  0  0  0  0  0  0  0  0  0
  179.0490  176.7040  138.2310 C   0  0  0  0  0  1  0  0  0  0  0  0
  178.9310  174.5280  136.4710 F   0  0  0  0  0  0  0  0  0  0  0  0
  180.8470  178.5600  136.7780 O   0  0  0  0  0  0  0  0  0  0  0  0
  184.5830  173.6810  137.9610 O   0  0  0  0  0  1  0  0  0  0  0  0
  184.2360  177.3690  137.2500 C   0  0  1  0  0  3  0  0  0  0  0  0
  185.0480  176.5500  136.2570 C   0  0  1  0  0  3  0  0  0  0  0  0
  183.1430  171.4160  136.9730 O   0  0  0  0  0  0  0  0  0  0  0  0
  184.1590  176.3400  135.0230 C   0  0  1  0  0  3  0  0  0  0  0  0
  182.8880  171.9060  135.6720 C   0  0  2  0  0  3  0  0  0  0  0  0
  183.7130  174.8810  134.8490 C   0  0  0  0  0  2  0  0  0  0  0  0
  180.3110  174.6710  136.4600 C   0  0  0  0  0  0  0  0  0  0  0  0
  180.1600  172.5510  135.3750 O   0  0  0  0  0  0  0  0  0  0  0  0
  182.8340  176.5400  139.1320 C   0  0  0  0  0  3  0  0  0  0  0  0
  182.9590  177.2470  135.1960 C   0  0  0  0  0  2  0  0  0  0  0  0
  182.9820  177.6610  136.5810 N   0  0  0  0  0  0  0  0  0  0  0  0
  186.3790  177.2300  135.9210 C   0  0  1  0  0  3  0  0  0  0  0  0
  186.2980  177.8470  134.6730 O   0  0  0  0  0  1  0  0  0  0  0  0
  186.8070  178.2470  136.9690 C   0  0  0  0  0  1  0  0  0  0  0  0
  180.8050  178.0130  141.0440 C   0  0  0  0  0  2  0  0  0  0  0  0
  181.3980  178.4120  139.7040 C   0  0  0  0  0  3  0  0  0  0  0  0
  182.2960  178.2700  140.9220 C   0  0  0  0  0  2  0  0  0  0  0  0
  1  4  1  0  0  0  0
  2 26  2  0  0  0  0
  3 24  1  0  0  0  0
  4 26  1  0  0  0  0
  4 33  1  1  0  0  0
  6 17  1  1  0  0  0
  7  9  1  0  0  0  0
  7  5  1  1  0  0  0
  8 24  1  0  0  0  0
  9 14  1  6  0  0  0
  9  4  1  0  0  0  0
 10 12  1  6  0  0  0
 10  6  1  0  0  0  0
 10 20  1  0  0  0  0
 11 23  1  6  0  0  0
 11  6  1  0  0  0  0
 13  3  1  0  0  0  0
 13 11  1  0  0  0  0
 16  1  2  0  0  0  0
 18  2  1  1  0  0  0
 19 29  1  6  0  0  0
 19 18  1  0  0  0  0
 21 23  1  1  0  0  0
 21 27  1  0  0  0  0
 21 19  1  0  0  0  0
 22 13  1  0  0  0  0
 22 10  1  0  0  0  0
 22 20  1  1  0  0  0
 24 15  1  0  0  0  0
 24  7  1  0  0  0  0
 25  3  2  0  0  0  0
 27 28  1  0  0  0  0
 28 18  1  0  0  0  0
 28  1  1  0  0  0  0
 29 31  1  1  0  0  0
 30 29  1  0  0  0  0
 33 34  1  0  0  0  0
 33 32  1  0  0  0  0
 34 32  1  0  0  0  0
M  END
>  <MODEL>
3

>  <REMARK>
 VINA RESULT:      -4.6      2.746      5.438
  Name = 
  2 active torsions:
  status: ('A' for Active; 'I' for Inactive)
    1  A    between atoms: C_3  and  C_25
    2  A    between atoms: C_5  and  C_19
                            x       y       z     vdW  Elec       q    Type
                         _______ _______ _______ _____ _____    ______ ____

>  <TORSDO>
F 2

$$$$
=
 OpenBabel11052416033D

 34 39  0  0  1  0  0  0  0  0999 V2000
  180.5730  174.7240  136.4620 C   0  0  0  0  0  0  0  0  0  0  0  0
  181.6640  176.5710  138.3490 C   0  0  0  0  0  3  0  0  0  0  0  0
  185.1610  174.3880  135.2660 C   0  0  0  0  0  0  0  0  0  0  0  0
  181.0740  174.1700  137.7810 C   0  0  1  0  0  0  0  0  0  0  0  0
  184.5810  173.1090  137.8450 O   0  0  0  0  0  1  0  0  0  0  0  0
  184.8840  177.5620  136.9410 C   0  0  1  0  0  3  0  0  0  0  0  0
  183.5650  173.6890  137.0820 C   0  0  2  0  0  3  0  0  0  0  0  0
  182.8780  174.0980  134.8090 F   0  0  0  0  0  0  0  0  0  0  0  0
  182.1970  173.1060  137.5230 C   0  0  2  0  0  3  0  0  0  0  0  0
  186.3860  177.4390  136.7420 C   0  0  1  0  0  0  0  0  0  0  0  0
  184.2350  176.5660  136.0830 N   0  0  2  0  0  0  0  0  0  0  0  0
  187.3130  178.6250  136.5830 C   0  0  0  0  0  1  0  0  0  0  0  0
  185.2990  175.7820  135.5960 N   0  0  0  0  0  0  0  0  0  0  0  0
  181.7780  171.8710  136.7250 C   0  0  0  0  0  1  0  0  0  0  0  0
  184.1090  172.2780  135.2270 F   0  0  0  0  0  0  0  0  0  0  0  0
  179.9870  173.9690  135.6380 O   0  0  0  0  0  0  0  0  0  0  0  0
  184.5700  177.3140  138.2780 O   0  0  0  0  0  1  0  0  0  0  0  0
  180.9820  177.1170  137.1320 C   0  0  1  0  0  3  0  0  0  0  0  0
  181.8530  178.1840  136.4860 C   0  0  1  0  0  3  0  0  0  0  0  0
  186.9760  176.2390  137.1670 O   0  0  0  0  0  0  0  0  0  0  0  0
  182.2140  177.6730  135.0840 C   0  0  1  0  0  3  0  0  0  0  0  0
  186.6200  176.3440  135.8030 C   0  0  2  0  0  3  0  0  0  0  0  0
  183.7010  177.3150  134.9420 C   0  0  0  0  0  2  0  0  0  0  0  0
  183.9080  173.6050  135.5780 C   0  0  0  0  0  0  0  0  0  0  0  0
  186.1240  173.7930  134.7110 O   0  0  0  0  0  0  0  0  0  0  0  0
  181.6930  175.2640  138.6350 C   0  0  0  0  0  3  0  0  0  0  0  0
  181.3470  176.4560  134.8310 C   0  0  0  0  0  2  0  0  0  0  0  0
  180.8060  176.0900  136.1220 N   0  0  0  0  0  0  0  0  0  0  0  0
  181.1490  179.5440  136.4580 C   0  0  1  0  0  3  0  0  0  0  0  0
  181.0720  180.0150  135.1480 O   0  0  0  0  0  1  0  0  0  0  0  0
  179.7580  179.5050  137.0720 C   0  0  0  0  0  1  0  0  0  0  0  0
  179.8050  174.1380  140.0550 C   0  0  0  0  0  2  0  0  0  0  0  0
  179.8410  173.6960  138.6030 C   0  0  0  0  0  3  0  0  0  0  0  0
  178.9310  174.8350  139.0290 C   0  0  0  0  0  2  0  0  0  0  0  0
  1  4  1  0  0  0  0
  2 26  2  0  0  0  0
  3 24  1  0  0  0  0
  3 13  1  0  0  0  0
  4 33  1  1  0  0  0
  4 26  1  0  0  0  0
  6 17  1  1  0  0  0
  7  9  1  0  0  0  0
  7  5  1  1  0  0  0
  8 24  1  0  0  0  0
  9 14  1  6  0  0  0
  9  4  1  0  0  0  0
 10 12  1  6  0  0  0
 10  6  1  0  0  0  0
 10 20  1  0  0  0  0
 11 23  1  6  0  0  0
 11  6  1  0  0  0  0
 13 22  1  0  0  0  0
 13 11  1  0  0  0  0
 15 24  1  0  0  0  0
 16  1  2  0  0  0  0
 18  2  1  1  0  0  0
 19 29  1  6  0  0  0
 19 18  1  0  0  0  0
 21 27  1  1  0  0  0
 21 19  1  0  0  0  0
 22 10  1  0  0  0  0
 22 20  1  1  0  0  0
 23 21  1  0  0  0  0
 24  7  1  0  0  0  0
 25  3  2  0  0  0  0
 27 28  1  0  0  0  0
 28  1  1  0  0  0  0
 28 18  1  0  0  0  0
 29 31  1  6  0  0  0
 30 29  1  0  0  0  0
 33 34  1  0  0  0  0
 33 32  1  0  0  0  0
 34 32  1  0  0  0  0
M  END
>  <MODEL>
4

>  <REMARK>
 VINA RESULT:      -4.3      2.784      5.041
  Name = 
  2 active torsions:
  status: ('A' for Active; 'I' for Inactive)
    1  A    between atoms: C_3  and  C_25
    2  A    between atoms: C_5  and  C_19
                            x       y       z     vdW  Elec       q    Type
                         _______ _______ _______ _____ _____    ______ ____

>  <TORSDO>
F 2

$$$$
=
 OpenBabel11052416033D

 34 39  0  0  1  0  0  0  0  0999 V2000
  180.1440  177.0780  137.3270 C   0  0  0  0  0  0  0  0  0  0  0  0
  180.4430  176.9160  140.1640 C   0  0  0  0  0  3  0  0  0  0  0  0
  184.8190  177.8780  137.6290 C   0  0  0  0  0  0  0  0  0  0  0  0
  180.5280  175.7370  137.9190 C   0  0  1  0  0  0  0  0  0  0  0  0
  184.1240  175.0840  138.2020 O   0  0  0  0  0  1  0  0  0  0  0  0
  183.5380  178.7140  140.8870 C   0  0  1  0  0  3  0  0  0  0  0  0
  183.1450  176.0110  137.8370 C   0  0  2  0  0  3  0  0  0  0  0  0
  182.7760  177.9670  136.4790 F   0  0  0  0  0  0  0  0  0  0  0  0
  181.8940  175.2570  137.3140 C   0  0  2  0  0  3  0  0  0  0  0  0
  185.0390  178.8230  141.0990 C   0  0  1  0  0  0  0  0  0  0  0  0
  183.2910  178.6810  139.4420 N   0  0  2  0  0  0  0  0  0  0  0  0
  185.6810  179.7530  142.1080 C   0  0  0  0  0  1  0  0  0  0  0  0
  184.5740  178.5570  138.8740 N   0  0  0  0  0  0  0  0  0  0  0  0
  181.9130  175.0270  135.8030 C   0  0  0  0  0  1  0  0  0  0  0  0
  184.3050  176.4830  135.7980 F   0  0  0  0  0  0  0  0  0  0  0  0
  179.8950  177.1800  136.0940 O   0  0  0  0  0  0  0  0  0  0  0  0
  183.0680  177.5400  141.4760 O   0  0  0  0  0  1  0  0  0  0  0  0
  179.8690  178.1700  139.5800 C   0  0  1  0  0  3  0  0  0  0  0  0
  180.5670  179.3840  140.1760 C   0  0  1  0  0  3  0  0  0  0  0  0
  185.8100  177.7280  140.6830 O   0  0  0  0  0  0  0  0  0  0  0  0
  181.2670  180.1070  139.0160 C   0  0  1  0  0  3  0  0  0  0  0  0
  185.6750  178.8090  139.7840 C   0  0  2  0  0  3  0  0  0  0  0  0
  182.7990  180.0170  139.0940 C   0  0  0  0  0  2  0  0  0  0  0  0
  183.7470  177.0920  136.9130 C   0  0  0  0  0  0  0  0  0  0  0  0
  185.9730  177.9270  137.1230 O   0  0  0  0  0  0  0  0  0  0  0  0
  180.7250  175.8380  139.4220 C   0  0  0  0  0  3  0  0  0  0  0  0
  180.7610  179.4670  137.7400 C   0  0  0  0  0  2  0  0  0  0  0  0
  180.1090  178.2440  138.1510 N   0  0  0  0  0  0  0  0  0  0  0  0
  179.5830  180.2860  140.9280 C   0  0  1  0  0  3  0  0  0  0  0  0
  180.0560  180.5390  142.2150 O   0  0  0  0  0  1  0  0  0  0  0  0
  179.3160  181.6010  140.2110 C   0  0  0  0  0  1  0  0  0  0  0  0
  179.6620  173.3070  137.5640 C   0  0  0  0  0  2  0  0  0  0  0  0
  179.3180  174.7730  137.7560 C   0  0  0  0  0  3  0  0  0  0  0  0
  179.1680  173.7990  138.9120 C   0  0  0  0  0  2  0  0  0  0  0  0
  1  4  1  0  0  0  0
  1 28  1  0  0  0  0
  3 13  1  0  0  0  0
  4 33  1  6  0  0  0
  4 26  1  0  0  0  0
  6 10  1  0  0  0  0
  6 17  1  1  0  0  0
  7  5  1  6  0  0  0
  8 24  1  0  0  0  0
  9 14  1  6  0  0  0
  9  7  1  0  0  0  0
  9  4  1  0  0  0  0
 10 12  1  1  0  0  0
 11 23  1  6  0  0  0
 11  6  1  0  0  0  0
 13 11  1  0  0  0  0
 13 22  1  0  0  0  0
 15 24  1  0  0  0  0
 16  1  2  0  0  0  0
 18  2  1  1  0  0  0
 18 19  1  0  0  0  0
 19 29  1  6  0  0  0
 20 10  1  0  0  0  0
 21 27  1  6  0  0  0
 21 23  1  0  0  0  0
 21 19  1  0  0  0  0
 22 20  1  1  0  0  0
 22 10  1  0  0  0  0
 24  3  1  0  0  0  0
 24  7  1  0  0  0  0
 25  3  2  0  0  0  0
 26  2  2  0  0  0  0
 27 28  1  0  0  0  0
 28 18  1  0  0  0  0
 29 31  1  6  0  0  0
 29 30  1  0  0  0  0
 32 33  1  0  0  0  0
 32 34  1  0  0  0  0
 33 34  1  0  0  0  0
M  END
>  <MODEL>
5

>  <REMARK>
 VINA RESULT:      -4.1      2.515      5.444
  Name = 
  2 active torsions:
  status: ('A' for Active; 'I' for Inactive)
    1  A    between atoms: C_3  and  C_25
    2  A    between atoms: C_5  and  C_19
                            x       y       z     vdW  Elec       q    Type
                         _______ _______ _______ _____ _____    ______ ____

>  <TORSDO>
F 2

$$$$
=
 OpenBabel11052416033D

 34 39  0  0  1  0  0  0  0  0999 V2000
  185.2130  176.9030  137.1200 C   0  0  0  0  0  0  0  0  0  0  0  0
  183.1110  177.1900  135.2050 C   0  0  0  0  0  3  0  0  0  0  0  0
  183.6560  172.4140  137.0460 C   0  0  0  0  0  0  0  0  0  0  0  0
  185.5380  176.6130  135.6680 C   0  0  1  0  0  0  0  0  0  0  0  0
  185.0980  173.1370  134.5940 O   0  0  0  0  0  1  0  0  0  0  0  0
  180.8870  174.3600  135.8200 C   0  0  1  0  0  3  0  0  0  0  0  0
  184.9650  174.0440  135.6470 C   0  0  2  0  0  3  0  0  0  0  0  0
  184.8330  174.1780  138.0490 F   0  0  0  0  0  0  0  0  0  0  0  0
  186.0570  175.1400  135.5210 C   0  0  2  0  0  3  0  0  0  0  0  0
  180.3920  172.9390  135.6110 C   0  0  1  0  0  0  0  0  0  0  0  0
  182.0470  174.3040  136.7160 N   0  0  2  0  0  0  0  0  0  0  0  0
  178.9310  172.5430  135.6400 C   0  0  0  0  0  1  0  0  0  0  0  0
  182.3290  172.9280  136.8310 N   0  0  0  0  0  0  0  0  0  0  0  0
  187.3430  174.8040  136.2750 C   0  0  0  0  0  1  0  0  0  0  0  0
  186.0100  172.5020  137.1490 F   0  0  0  0  0  0  0  0  0  0  0  0
  186.1280  176.8950  137.9890 O   0  0  0  0  0  0  0  0  0  0  0  0
  181.2610  174.9090  134.5940 O   0  0  0  0  0  1  0  0  0  0  0  0
  182.8680  177.6650  136.6050 C   0  0  1  0  0  3  0  0  0  0  0  0
  181.5310  177.1380  137.1050 C   0  0  1  0  0  3  0  0  0  0  0  0
  181.2590  172.0690  134.9310 O   0  0  0  0  0  0  0  0  0  0  0  0
  181.8330  176.2330  138.3090 C   0  0  1  0  0  3  0  0  0  0  0  0
  181.2860  172.0450  136.3440 C   0  0  2  0  0  3  0  0  0  0  0  0
  181.5600  174.7490  138.0240 C   0  0  0  0  0  2  0  0  0  0  0  0
  184.8810  173.2940  136.9940 C   0  0  0  0  0  0  0  0  0  0  0  0
  183.8040  171.1820  137.2720 O   0  0  0  0  0  0  0  0  0  0  0  0
  184.3010  176.7320  134.7950 C   0  0  0  0  0  3  0  0  0  0  0  0
  183.2910  176.4490  138.6560 C   0  0  0  0  0  2  0  0  0  0  0  0
  183.8630  177.1380  137.5210 N   0  0  0  0  0  0  0  0  0  0  0  0
  180.5690  178.2790  137.4480 C   0  0  1  0  0  3  0  0  0  0  0  0
  179.9690  178.0430  138.6840 O   0  0  0  0  0  1  0  0  0  0  0  0
  181.2450  179.6430  137.4580 C   0  0  0  0  0  1  0  0  0  0  0  0
  187.4990  178.2570  136.1500 C   0  0  0  0  0  2  0  0  0  0  0  0
  186.4810  177.7370  135.1510 C   0  0  0  0  0  3  0  0  0  0  0  0
  187.9340  177.3030  135.0530 C   0  0  0  0  0  2  0  0  0  0  0  0
  1 28  1  0  0  0  0
  1 16  2  0  0  0  0
  3 25  2  0  0  0  0
  4 33  1  6  0  0  0
  4  1  1  0  0  0  0
  6 17  1  6  0  0  0
  6 11  1  0  0  0  0
  7  5  1  6  0  0  0
  7 24  1  0  0  0  0
  9  7  1  0  0  0  0
  9  4  1  0  0  0  0
  9 14  1  1  0  0  0
 10 12  1  6  0  0  0
 10  6  1  0  0  0  0
 10 22  1  0  0  0  0
 11 13  1  0  0  0  0
 11 23  1  1  0  0  0
 13  3  1  0  0  0  0
 18  2  1  6  0  0  0
 18 19  1  0  0  0  0
 18 28  1  0  0  0  0
 19 29  1  1  0  0  0
 19 21  1  0  0  0  0
 20 10  1  0  0  0  0
 21 23  1  6  0  0  0
 21 27  1  0  0  0  0
 22 20  1  6  0  0  0
 22 13  1  0  0  0  0
 24  3  1  0  0  0  0
 24 15  1  0  0  0  0
 24  8  1  0  0  0  0
 26  2  2  0  0  0  0
 26  4  1  0  0  0  0
 28 27  1  0  0  0  0
 29 31  1  1  0  0  0
 29 30  1  0  0  0  0
 33 32  1  0  0  0  0
 34 33  1  0  0  0  0
 34 32  1  0  0  0  0
M  END
>  <MODEL>
6

>  <REMARK>
 VINA RESULT:      -3.6      2.315      6.429
  Name = 
  2 active torsions:
  status: ('A' for Active; 'I' for Inactive)
    1  A    between atoms: C_3  and  C_25
    2  A    between atoms: C_5  and  C_19
                            x       y       z     vdW  Elec       q    Type
                         _______ _______ _______ _____ _____    ______ ____

>  <TORSDO>
F 2

$$$$
=
 OpenBabel11052416033D

 34 39  0  0  1  0  0  0  0  0999 V2000
  181.4630  176.8090  136.2580 C   0  0  0  0  0  0  0  0  0  0  0  0
  181.0670  176.2360  139.0290 C   0  0  0  0  0  3  0  0  0  0  0  0
  185.6520  178.3050  137.9320 C   0  0  0  0  0  0  0  0  0  0  0  0
  181.9490  175.4710  136.7780 C   0  0  1  0  0  0  0  0  0  0  0  0
  185.4140  175.3790  137.9690 O   0  0  0  0  0  1  0  0  0  0  0  0
  183.4530  178.3760  140.7810 C   0  0  1  0  0  3  0  0  0  0  0  0
  184.3920  176.1800  137.4560 C   0  0  2  0  0  3  0  0  0  0  0  0
  183.9880  178.2440  136.2790 F   0  0  0  0  0  0  0  0  0  0  0  0
  183.4910  175.3270  136.5240 C   0  0  2  0  0  3  0  0  0  0  0  0
  184.7980  178.6940  141.4120 C   0  0  1  0  0  0  0  0  0  0  0  0
  183.5880  178.5390  139.3300 N   0  0  2  0  0  0  0  0  0  0  0  0
  184.9650  179.5380  142.6570 C   0  0  0  0  0  1  0  0  0  0  0  0
  184.9700  178.7220  139.1290 N   0  0  0  0  0  0  0  0  0  0  0  0
  183.9340  175.3530  135.0610 C   0  0  0  0  0  1  0  0  0  0  0  0
  185.9070  177.1630  135.8850 F   0  0  0  0  0  0  0  0  0  0  0  0
  181.5170  177.0690  135.0240 O   0  0  0  0  0  0  0  0  0  0  0  0
  183.0970  177.0610  141.0790 O   0  0  0  0  0  1  0  0  0  0  0  0
  180.4180  177.4580  138.4560 C   0  0  1  0  0  3  0  0  0  0  0  0
  180.6830  178.6560  139.3550 C   0  0  1  0  0  3  0  0  0  0  0  0
  185.8540  177.8220  141.1040 O   0  0  0  0  0  0  0  0  0  0  0  0
  181.4910  179.6640  138.5250 C   0  0  1  0  0  3  0  0  0  0  0  0
  185.7330  178.9990  140.3320 C   0  0  2  0  0  3  0  0  0  0  0  0
  182.9400  179.8150  139.0130 C   0  0  0  0  0  2  0  0  0  0  0  0
  184.9750  177.4810  136.8630 C   0  0  0  0  0  0  0  0  0  0  0  0
  186.8610  178.6250  137.7750 O   0  0  0  0  0  0  0  0  0  0  0  0
  181.7380  175.3550  138.2770 C   0  0  0  0  0  3  0  0  0  0  0  0
  181.4610  179.1670  137.0940 C   0  0  0  0  0  2  0  0  0  0  0  0
  180.9880  177.8020  137.1670 N   0  0  0  0  0  0  0  0  0  0  0  0
  179.3810  179.2490  139.9030 C   0  0  1  0  0  3  0  0  0  0  0  0
  179.5250  179.5480  141.2570 O   0  0  0  0  0  1  0  0  0  0  0  0
  178.9310  180.4910  139.1480 C   0  0  0  0  0  1  0  0  0  0  0  0
  181.6690  172.9860  136.0510 C   0  0  0  0  0  2  0  0  0  0  0  0
  181.0390  174.3610  136.1770 C   0  0  0  0  0  3  0  0  0  0  0  0
  180.6890  173.2690  137.1740 C   0  0  0  0  0  2  0  0  0  0  0  0
  1  4  1  0  0  0  0
  1 28  1  0  0  0  0
  3 13  1  0  0  0  0
  4 33  1  6  0  0  0
  4 26  1  0  0  0  0
  6 17  1  6  0  0  0
  6 10  1  0  0  0  0
  7  5  1  6  0  0  0
  8 24  1  0  0  0  0
  9 14  1  6  0  0  0
  9  4  1  0  0  0  0
  9  7  1  0  0  0  0
 10 12  1  1  0  0  0
 11 23  1  1  0  0  0
 11  6  1  0  0  0  0
 13 11  1  0  0  0  0
 13 22  1  0  0  0  0
 15 24  1  0  0  0  0
 16  1  2  0  0  0  0
 18  2  1  1  0  0  0
 18 19  1  0  0  0  0
 19 29  1  6  0  0  0
 20 10  1  0  0  0  0
 21 27  1  6  0  0  0
 21 23  1  0  0  0  0
 21 19  1  0  0  0  0
 22 20  1  1  0  0  0
 22 10  1  0  0  0  0
 24  7  1  0  0  0  0
 24  3  1  0  0  0  0
 25  3  2  0  0  0  0
 26  2  2  0  0  0  0
 27 28  1  0  0  0  0
 28 18  1  0  0  0  0
 29 31  1  6  0  0  0
 29 30  1  0  0  0  0
 32 33  1  0  0  0  0
 32 34  1  0  0  0  0
 33 34  1  0  0  0  0
M  END
>  <MODEL>
7

>  <REMARK>
 VINA RESULT:      -3.5      2.160      5.265
  Name = 
  2 active torsions:
  status: ('A' for Active; 'I' for Inactive)
    1  A    between atoms: C_3  and  C_25
    2  A    between atoms: C_5  and  C_19
                            x       y       z     vdW  Elec       q    Type
                         _______ _______ _______ _____ _____    ______ ____

>  <TORSDO>
F 2

$$$$
=
 OpenBabel11052416033D

 34 39  0  0  1  0  0  0  0  0999 V2000
  183.2590  173.4510  136.5500 C   0  0  0  0  0  0  0  0  0  0  0  0
  182.8380  175.4910  134.5940 C   0  0  0  0  0  3  0  0  0  0  0  0
  180.5510  176.3940  139.1170 C   0  0  0  0  0  0  0  0  0  0  0  0
  182.0120  173.3580  135.6930 C   0  0  1  0  0  0  0  0  0  0  0  0
  179.0220  174.9990  137.0350 O   0  0  0  0  0  1  0  0  0  0  0  0
  181.9340  178.4620  136.5160 C   0  0  1  0  0  3  0  0  0  0  0  0
  180.3810  174.7410  137.2280 C   0  0  2  0  0  3  0  0  0  0  0  0
  182.0820  174.6250  138.9310 F   0  0  0  0  0  0  0  0  0  0  0  0
  180.7360  173.3650  136.6040 C   0  0  2  0  0  3  0  0  0  0  0  0
  180.9550  179.4100  137.1880 C   0  0  1  0  0  0  0  0  0  0  0  0
  182.1320  177.3150  137.4090 N   0  0  2  0  0  0  0  0  0  0  0  0
  181.1360  180.9130  137.2330 C   0  0  0  0  0  1  0  0  0  0  0  0
  181.1660  177.4920  138.4180 N   0  0  0  0  0  0  0  0  0  0  0  0
  180.6090  172.2020  137.5890 C   0  0  0  0  0  1  0  0  0  0  0  0
  179.9760  174.1400  139.5090 F   0  0  0  0  0  0  0  0  0  0  0  0
  183.5480  172.5210  137.3540 O   0  0  0  0  0  0  0  0  0  0  0  0
  181.4040  178.0300  135.3000 O   0  0  0  0  0  1  0  0  0  0  0  0
  184.1540  175.4500  135.3070 C   0  0  1  0  0  3  0  0  0  0  0  0
  184.5140  176.8400  135.8100 C   0  0  1  0  0  3  0  0  0  0  0  0
  179.6470  178.9350  137.3680 O   0  0  0  0  0  0  0  0  0  0  0  0
  184.5790  176.7550  137.3420 C   0  0  1  0  0  3  0  0  0  0  0  0
  180.5450  178.8020  138.4520 C   0  0  2  0  0  3  0  0  0  0  0  0
  183.4420  177.5210  138.0330 C   0  0  0  0  0  2  0  0  0  0  0  0
  180.7640  174.9560  138.7080 C   0  0  0  0  0  0  0  0  0  0  0  0
  179.7960  176.6390  140.0970 O   0  0  0  0  0  0  0  0  0  0  0  0
  181.8960  174.5550  134.7650 C   0  0  0  0  0  3  0  0  0  0  0  0
  184.5200  175.2830  137.6950 C   0  0  0  0  0  2  0  0  0  0  0  0
  184.0880  174.6120  136.4900 N   0  0  0  0  0  0  0  0  0  0  0  0
  185.8200  177.3440  135.1890 C   0  0  1  0  0  3  0  0  0  0  0  0
  186.5640  178.0400  136.1400 O   0  0  0  0  0  1  0  0  0  0  0  0
  186.6640  176.2260  134.5940 C   0  0  0  0  0  1  0  0  0  0  0  0
  182.1050  170.7750  135.3830 C   0  0  0  0  0  2  0  0  0  0  0  0
  182.1760  172.1450  134.7330 C   0  0  0  0  0  3  0  0  0  0  0  0
  180.9140  171.3070  134.6070 C   0  0  0  0  0  2  0  0  0  0  0  0
  1 16  2  0  0  0  0
  2 26  2  0  0  0  0
  3 25  2  0  0  0  0
  4 33  1  6  0  0  0
  4  1  1  0  0  0  0
  4  9  1  0  0  0  0
  6 17  1  6  0  0  0
  6 10  1  0  0  0  0
  6 11  1  0  0  0  0
  7  5  1  1  0  0  0
  7 24  1  0  0  0  0
  9  7  1  0  0  0  0
  9 14  1  1  0  0  0
 10 12  1  6  0  0  0
 10 20  1  0  0  0  0
 10 22  1  0  0  0  0
 11 23  1  1  0  0  0
 11 13  1  0  0  0  0
 13 22  1  0  0  0  0
 13  3  1  0  0  0  0
 18  2  1  1  0  0  0
 18 19  1  0  0  0  0
 18 28  1  0  0  0  0
 19 29  1  6  0  0  0
 19 21  1  0  0  0  0
 21 27  1  6  0  0  0
 21 23  1  0  0  0  0
 22 20  1  6  0  0  0
 24  8  1  0  0  0  0
 24  3  1  0  0  0  0
 24 15  1  0  0  0  0
 26  4  1  0  0  0  0
 28  1  1  0  0  0  0
 28 27  1  0  0  0  0
 29 31  1  1  0  0  0
 29 30  1  0  0  0  0
 33 32  1  0  0  0  0
 34 33  1  0  0  0  0
 34 32  1  0  0  0  0
M  END
>  <MODEL>
8

>  <REMARK>
 VINA RESULT:      -3.4      2.329      5.674
  Name = 
  2 active torsions:
  status: ('A' for Active; 'I' for Inactive)
    1  A    between atoms: C_3  and  C_25
    2  A    between atoms: C_5  and  C_19
                            x       y       z     vdW  Elec       q    Type
                         _______ _______ _______ _____ _____    ______ ____

>  <TORSDO>
F 2

$$$$
=
 OpenBabel11052416033D

 34 39  0  0  1  0  0  0  0  0999 V2000
  183.6160  178.9160  138.8580 C   0  0  0  0  0  0  0  0  0  0  0  0
  183.0570  176.1620  139.3740 C   0  0  0  0  0  3  0  0  0  0  0  0
  180.0870  178.2760  135.7400 C   0  0  0  0  0  0  0  0  0  0  0  0
  182.5290  178.5940  139.8640 C   0  0  1  0  0  0  0  0  0  0  0  0
  179.1330  178.3110  138.5150 O   0  0  0  0  0  1  0  0  0  0  0  0
  181.3590  174.9690  136.3690 C   0  0  1  0  0  3  0  0  0  0  0  0
  180.4800  178.5170  138.2130 C   0  0  2  0  0  3  0  0  0  0  0  0
  181.9430  179.4630  136.5480 F   0  0  0  0  0  0  0  0  0  0  0  0
  181.1700  179.2310  139.4050 C   0  0  2  0  0  3  0  0  0  0  0  0
  180.1380  174.6810  135.5110 C   0  0  1  0  0  0  0  0  0  0  0  0
  181.6620  176.3990  136.2530 N   0  0  2  0  0  0  0  0  0  0  0  0
  180.0170  173.4800  134.5960 C   0  0  0  0  0  1  0  0  0  0  0  0
  180.5600  176.9300  135.5540 N   0  0  0  0  0  0  0  0  0  0  0  0
  181.1490  180.7560  139.2940 C   0  0  0  0  0  1  0  0  0  0  0  0
  179.9150  180.3710  136.8090 F   0  0  0  0  0  0  0  0  0  0  0  0
  183.9750  180.1120  138.6720 O   0  0  0  0  0  0  0  0  0  0  0  0
  181.0800  174.6490  137.6980 O   0  0  0  0  0  1  0  0  0  0  0  0
  184.2550  176.5010  138.5430 C   0  0  1  0  0  3  0  0  0  0  0  0
  184.2720  175.6440  137.2860 C   0  0  1  0  0  3  0  0  0  0  0  0
  178.9360  175.2800  135.9140 O   0  0  0  0  0  0  0  0  0  0  0  0
  184.1600  176.6040  136.0930 C   0  0  1  0  0  3  0  0  0  0  0  0
  179.6980  175.9450  134.9280 C   0  0  2  0  0  3  0  0  0  0  0  0
  182.8170  176.4870  135.3560 C   0  0  0  0  0  2  0  0  0  0  0  0
  180.6240  179.1780  136.8250 C   0  0  0  0  0  0  0  0  0  0  0  0
  179.1820  178.7160  134.9800 O   0  0  0  0  0  0  0  0  0  0  0  0
  182.3000  177.0960  139.9640 C   0  0  0  0  0  3  0  0  0  0  0  0
  184.3430  178.0030  136.6450 C   0  0  0  0  0  2  0  0  0  0  0  0
  184.2050  177.8750  138.0790 N   0  0  0  0  0  0  0  0  0  0  0  0
  185.5240  174.7630  137.2210 C   0  0  1  0  0  3  0  0  0  0  0  0
  185.2160  173.4660  137.6300 O   0  0  0  0  0  1  0  0  0  0  0  0
  186.1540  174.7280  135.8370 C   0  0  0  0  0  1  0  0  0  0  0  0
  183.7300  177.8980  142.0670 C   0  0  0  0  0  2  0  0  0  0  0  0
  183.0440  178.9970  141.2760 C   0  0  0  0  0  3  0  0  0  0  0  0
  184.5590  178.9740  141.3890 C   0  0  0  0  0  2  0  0  0  0  0  0
  1  4  1  0  0  0  0
  2 26  2  0  0  0  0
  3 24  1  0  0  0  0
  4 26  1  0  0  0  0
  4 33  1  1  0  0  0
  6 17  1  1  0  0  0
  7  5  1  1  0  0  0
  7  9  1  0  0  0  0
  8 24  1  0  0  0  0
  9 14  1  6  0  0  0
  9  4  1  0  0  0  0
 10 12  1  6  0  0  0
 10 20  1  0  0  0  0
 10  6  1  0  0  0  0
 11 23  1  6  0  0  0
 11  6  1  0  0  0  0
 13  3  1  0  0  0  0
 13 11  1  0  0  0  0
 15 24  1  0  0  0  0
 16  1  2  0  0  0  0
 18  2  1  1  0  0  0
 19 29  1  6  0  0  0
 19 18  1  0  0  0  0
 21 23  1  1  0  0  0
 21 27  1  0  0  0  0
 21 19  1  0  0  0  0
 22 10  1  0  0  0  0
 22 13  1  0  0  0  0
 22 20  1  1  0  0  0
 24  7  1  0  0  0  0
 25  3  2  0  0  0  0
 27 28  1  0  0  0  0
 28 18  1  0  0  0  0
 28  1  1  0  0  0  0
 29 31  1  6  0  0  0
 29 30  1  0  0  0  0
 33 34  1  0  0  0  0
 33 32  1  0  0  0  0
 34 32  1  0  0  0  0
M  END
>  <MODEL>
9

>  <REMARK>
 VINA RESULT:      -3.0      2.417      5.310
  Name = 
  2 active torsions:
  status: ('A' for Active; 'I' for Inactive)
    1  A    between atoms: C_3  and  C_25
    2  A    between atoms: C_5  and  C_19
                            x       y       z     vdW  Elec       q    Type
                         _______ _______ _______ _____ _____    ______ ____

>  <TORSDO>
F 2

$$$$
