=
 OpenBabel11052415373D

 34 39  0  0  0  0  0  0  0  0999 V2000
  186.5200  178.1380  144.0430 C   0  0  0  0  0  0  0  0  0  0  0  0
  187.9300  177.5790  147.5070 C   0  0  0  0  0  3  0  0  0  0  0  0
  185.7970  178.2620  146.7840 C   0  0  0  0  0  3  0  0  0  0  0  0
  185.4900  178.5540  141.7180 C   0  0  0  0  0  0  0  0  0  0  0  0
  186.7290  178.1340  142.5330 C   0  0  0  0  0  2  0  0  0  0  0  0
  184.2250  178.8620  143.7520 C   0  0  0  0  0  0  0  0  0  0  0  0
  183.1930  179.1570  144.5760 N   0  0  0  0  0  0  0  0  0  0  0  0
  184.3150  178.9020  142.2920 C   0  0  0  0  0  3  0  0  0  0  0  0
  184.9030  178.5730  145.7710 C   0  0  0  0  0  0  0  0  0  0  0  0
  185.2810  178.5020  144.4910 C   0  0  0  0  0  0  0  0  0  0  0  0
  183.6150  178.9770  145.8340 N   0  0  0  0  0  0  0  0  0  0  0  0
  189.2520  177.1690  147.5720 C   0  0  0  0  0  3  0  0  0  0  0  0
  190.1660  176.9260  146.5560 C   0  0  0  0  0  0  0  0  0  0  0  0
  189.9050  177.0570  145.1970 C   0  0  0  0  0  3  0  0  0  0  0  0
  187.1150  177.8690  146.4200 C   0  0  0  0  0  0  0  0  0  0  0  0
  188.7450  177.4370  144.5410 C   0  0  0  0  0  3  0  0  0  0  0  0
  187.4920  177.8040  145.0260 C   0  0  0  0  0  0  0  0  0  0  0  0
  191.5200  176.4950  146.9560 C   0  0  0  0  0  0  0  0  0  0  0  0
  192.1040  176.9970  148.1140 O   0  0  0  0  0  1  0  0  0  0  0  0
  192.1640  175.6680  146.2560 O   0  0  0  0  0  0  0  0  0  0  0  0
  185.6050  178.6150  140.2320 C   0  0  0  0  0  2  0  0  0  0  0  0
  188.5350  177.6230  138.0410 C   0  0  0  0  0  3  0  0  0  0  0  0
  188.0220  178.1980  140.7380 C   0  0  0  0  0  3  0  0  0  0  0  0
  191.9030  177.1400  139.5100 C   0  0  0  0  0  0  0  0  0  0  0  0
  190.8630  177.2070  138.5720 C   0  0  0  0  0  3  0  0  0  0  0  0
  189.5720  177.5580  138.9750 C   0  0  0  0  0  0  0  0  0  0  0  0
  190.3490  177.7800  141.2690 C   0  0  0  0  0  3  0  0  0  0  0  0
  189.3130  177.8480  140.3340 C   0  0  0  0  0  0  0  0  0  0  0  0
  191.6380  177.4280  140.8580 C   0  0  0  0  0  3  0  0  0  0  0  0
  186.9890  178.2660  139.7970 C   0  0  0  0  0  0  0  0  0  0  0  0
  187.2460  177.9740  138.4510 C   0  0  0  0  0  3  0  0  0  0  0  0
  193.2600  176.7700  139.0790 C   0  0  0  0  0  0  0  0  0  0  0  0
  193.4910  176.4800  137.8750 O   0  0  0  0  0  0  0  0  0  0  0  0
  194.3030  176.7360  139.9990 O   0  0  0  0  0  1  0  0  0  0  0  0
  1 10  1  0  0  0  0
  1 17  2  0  0  0  0
  2 12  1  0  0  0  0
  4  8  2  0  0  0  0
  4  5  1  0  0  0  0
  5  1  1  0  0  0  0
  6 10  2  0  0  0  0
  6  7  1  0  0  0  0
  7 11  2  0  0  0  0
  8  6  1  0  0  0  0
  9 11  1  0  0  0  0
  9  3  2  0  0  0  0
 10  9  1  0  0  0  0
 13 18  1  0  0  0  0
 13 12  2  0  0  0  0
 14 13  1  0  0  0  0
 15  3  1  0  0  0  0
 15  2  2  0  0  0  0
 16 17  1  0  0  0  0
 16 14  2  0  0  0  0
 17 15  1  0  0  0  0
 18 19  1  0  0  0  0
 20 18  2  0  0  0  0
 21  4  1  0  0  0  0
 22 31  2  0  0  0  0
 22 26  1  0  0  0  0
 24 29  1  0  0  0  0
 25 26  1  0  0  0  0
 25 24  2  0  0  0  0
 26 28  2  0  0  0  0
 28 23  1  0  0  0  0
 28 27  1  0  0  0  0
 29 27  2  0  0  0  0
 30 21  1  0  0  0  0
 30 23  2  0  0  0  0
 31 30  1  0  0  0  0
 32 24  1  0  0  0  0
 32 34  1  0  0  0  0
 33 32  2  0  0  0  0
M  END
>  <MODEL>
1

>  <REMARK>
 VINA RESULT:     -12.5      0.000      0.000
  Name = 
  4 active torsions:
  status: ('A' for Active; 'I' for Inactive)
    1  A    between atoms: C_3  and  C_25
    2  A    between atoms: C_7  and  C_11
    3  A    between atoms: C_8  and  C_18
    4  A    between atoms: C_18  and  C_30
                            x       y       z     vdW  Elec       q    Type
                         _______ _______ _______ _____ _____    ______ ____

>  <TORSDO>
F 4

$$$$
=
 OpenBabel11052415373D

 34 39  0  0  0  0  0  0  0  0999 V2000
  184.3990  178.6610  141.6160 C   0  0  0  0  0  0  0  0  0  0  0  0
  185.6070  178.3140  138.0500 C   0  0  0  0  0  3  0  0  0  0  0  0
  183.4430  178.5360  138.9480 C   0  0  0  0  0  3  0  0  0  0  0  0
  183.4960  178.8860  144.0190 C   0  0  0  0  0  0  0  0  0  0  0  0
  184.7270  178.7400  143.1030 C   0  0  0  0  0  2  0  0  0  0  0  0
  182.0310  178.8610  142.0990 C   0  0  0  0  0  0  0  0  0  0  0  0
  180.8950  178.8850  141.3650 N   0  0  0  0  0  0  0  0  0  0  0  0
  182.2290  178.9380  143.5460 C   0  0  0  0  0  3  0  0  0  0  0  0
  182.5890  178.6770  140.0310 C   0  0  0  0  0  0  0  0  0  0  0  0
  183.0770  178.7340  141.2740 C   0  0  0  0  0  0  0  0  0  0  0  0
  181.2420  178.7700  140.0770 N   0  0  0  0  0  0  0  0  0  0  0  0
  186.9770  178.2020  137.8750 C   0  0  0  0  0  3  0  0  0  0  0  0
  188.0020  178.1940  138.8100 C   0  0  0  0  0  0  0  0  0  0  0  0
  187.8320  178.3050  140.1850 C   0  0  0  0  0  3  0  0  0  0  0  0
  184.8400  178.4530  139.2000 C   0  0  0  0  0  0  0  0  0  0  0  0
  186.6750  178.4440  140.9350 C   0  0  0  0  0  3  0  0  0  0  0  0
  185.3360  178.5150  140.5560 C   0  0  0  0  0  0  0  0  0  0  0  0
  189.3800  178.0560  138.2990 C   0  0  0  0  0  0  0  0  0  0  0  0
  190.4230  177.7450  139.1640 O   0  0  0  0  0  1  0  0  0  0  0  0
  189.6290  178.2160  137.0740 O   0  0  0  0  0  0  0  0  0  0  0  0
  183.7110  178.9370  145.4940 C   0  0  0  0  0  2  0  0  0  0  0  0
  186.8870  178.3280  147.4720 C   0  0  0  0  0  3  0  0  0  0  0  0
  185.9600  178.0510  144.8390 C   0  0  0  0  0  3  0  0  0  0  0  0
  189.9160  176.9970  145.8020 C   0  0  0  0  0  0  0  0  0  0  0  0
  189.0570  177.4870  146.7960 C   0  0  0  0  0  3  0  0  0  0  0  0
  187.7420  177.8380  146.4810 C   0  0  0  0  0  0  0  0  0  0  0  0
  188.1300  177.2120  144.1640 C   0  0  0  0  0  3  0  0  0  0  0  0
  187.2750  177.6980  145.1550 C   0  0  0  0  0  0  0  0  0  0  0  0
  189.4450  176.8620  144.4870 C   0  0  0  0  0  3  0  0  0  0  0  0
  185.1070  178.5370  145.8370 C   0  0  0  0  0  0  0  0  0  0  0  0
  185.5730  178.6790  147.1500 C   0  0  0  0  0  3  0  0  0  0  0  0
  191.3000  176.6280  146.1400 C   0  0  0  0  0  0  0  0  0  0  0  0
  192.0220  176.0260  145.3030 O   0  0  0  0  0  0  0  0  0  0  0  0
  191.8230  176.9430  147.3890 O   0  0  0  0  0  1  0  0  0  0  0  0
  1  5  1  0  0  0  0
  2 15  1  0  0  0  0
  3 15  2  0  0  0  0
  3  9  1  0  0  0  0
  4 21  1  0  0  0  0
  5  4  1  0  0  0  0
  6  8  1  0  0  0  0
  7  6  2  0  0  0  0
  8  4  2  0  0  0  0
  9 11  2  0  0  0  0
  9 10  1  0  0  0  0
 10  1  2  0  0  0  0
 10  6  1  0  0  0  0
 11  7  1  0  0  0  0
 12  2  2  0  0  0  0
 12 13  1  0  0  0  0
 13 14  2  0  0  0  0
 14 16  1  0  0  0  0
 15 17  1  0  0  0  0
 17 16  2  0  0  0  0
 17  1  1  0  0  0  0
 18 13  1  0  0  0  0
 18 19  1  0  0  0  0
 20 18  2  0  0  0  0
 21 30  1  0  0  0  0
 23 28  2  0  0  0  0
 23 30  1  0  0  0  0
 24 32  1  0  0  0  0
 24 25  2  0  0  0  0
 26 25  1  0  0  0  0
 26 22  2  0  0  0  0
 27 29  2  0  0  0  0
 27 28  1  0  0  0  0
 28 26  1  0  0  0  0
 29 24  1  0  0  0  0
 30 31  2  0  0  0  0
 31 22  1  0  0  0  0
 32 34  1  0  0  0  0
 33 32  2  0  0  0  0
M  END
>  <MODEL>
2

>  <REMARK>
 VINA RESULT:     -12.5      2.035      6.729
  Name = 
  4 active torsions:
  status: ('A' for Active; 'I' for Inactive)
    1  A    between atoms: C_3  and  C_25
    2  A    between atoms: C_7  and  C_11
    3  A    between atoms: C_8  and  C_18
    4  A    between atoms: C_18  and  C_30
                            x       y       z     vdW  Elec       q    Type
                         _______ _______ _______ _____ _____    ______ ____

>  <TORSDO>
F 4

$$$$
=
 OpenBabel11052415373D

 34 39  0  0  0  0  0  0  0  0999 V2000
  189.0650  177.5860  143.9300 C   0  0  0  0  0  0  0  0  0  0  0  0
  191.4190  177.1970  140.9950 C   0  0  0  0  0  3  0  0  0  0  0  0
  191.7240  176.8220  143.2980 C   0  0  0  0  0  3  0  0  0  0  0  0
  187.5270  177.8390  145.9810 C   0  0  0  0  0  0  0  0  0  0  0  0
  187.6850  177.9650  144.4530 C   0  0  0  0  0  3  0  0  0  0  0  0
  189.8120  177.0840  146.1800 C   0  0  0  0  0  0  0  0  0  0  0  0
  190.9670  176.6560  146.7420 N   0  0  0  0  0  2  0  0  0  0  0  0
  188.5300  177.4300  146.7930 C   0  0  0  0  0  3  0  0  0  0  0  0
  191.2440  176.8150  144.6000 C   0  0  0  0  0  0  0  0  0  0  0  0
  189.9840  177.1810  144.8570 C   0  0  0  0  0  0  0  0  0  0  0  0
  191.8590  176.4890  145.7570 N   0  0  0  0  0  0  0  0  0  0  0  0
  190.9020  177.5120  139.7490 C   0  0  0  0  0  3  0  0  0  0  0  0
  189.6370  177.9580  139.3900 C   0  0  0  0  0  0  0  0  0  0  0  0
  188.5880  178.1840  140.2720 C   0  0  0  0  0  3  0  0  0  0  0  0
  190.8420  177.2270  142.2590 C   0  0  0  0  0  0  0  0  0  0  0  0
  188.5280  178.0350  141.6490 C   0  0  0  0  0  3  0  0  0  0  0  0
  189.4860  177.6190  142.5710 C   0  0  0  0  0  0  0  0  0  0  0  0
  189.3940  178.2090  137.9560 C   0  0  0  0  0  0  0  0  0  0  0  0
  188.9530  179.4560  137.5260 O   0  0  0  0  0  1  0  0  0  0  0  0
  189.5820  177.3010  137.1030 O   0  0  0  0  0  0  0  0  0  0  0  0
  186.2220  178.2210  146.5950 C   0  0  0  0  0  2  0  0  0  0  0  0
  182.9130  179.0070  144.9200 C   0  0  0  0  0  3  0  0  0  0  0  0
  185.4970  178.1880  144.1980 C   0  0  0  0  0  3  0  0  0  0  0  0
  182.5480  178.7070  141.2440 C   0  0  0  0  0  0  0  0  0  0  0  0
  182.2420  178.9430  142.5920 C   0  0  0  0  0  3  0  0  0  0  0  0
  183.2190  178.7730  143.5770 C   0  0  0  0  0  0  0  0  0  0  0  0
  184.8250  178.1220  141.8710 C   0  0  0  0  0  3  0  0  0  0  0  0
  184.5210  178.3600  143.2130 C   0  0  0  0  0  0  0  0  0  0  0  0
  183.8430  178.2960  140.8910 C   0  0  0  0  0  3  0  0  0  0  0  0
  185.1860  178.4290  145.5410 C   0  0  0  0  0  0  0  0  0  0  0  0
  183.8950  178.8340  145.9000 C   0  0  0  0  0  3  0  0  0  0  0  0
  181.5150  178.8880  140.2120 C   0  0  0  0  0  0  0  0  0  0  0  0
  181.5760  178.2470  139.1290 O   0  0  0  0  0  0  0  0  0  0  0  0
  180.4620  179.7700  140.4230 O   0  0  0  0  0  1  0  0  0  0  0  0
  1  5  2  0  0  0  0
  1 10  1  0  0  0  0
  2 15  1  0  0  0  0
  3  9  1  0  0  0  0
  4 21  1  0  0  0  0
  4  8  2  0  0  0  0
  5  4  1  0  0  0  0
  6  7  1  0  0  0  0
  6  8  1  0  0  0  0
  9 10  1  0  0  0  0
  9 11  2  0  0  0  0
 10  6  2  0  0  0  0
 11  7  1  0  0  0  0
 12  2  2  0  0  0  0
 13 12  1  0  0  0  0
 13 14  2  0  0  0  0
 14 16  1  0  0  0  0
 15 17  1  0  0  0  0
 15  3  2  0  0  0  0
 16 17  2  0  0  0  0
 17  1  1  0  0  0  0
 18 13  1  0  0  0  0
 19 18  1  0  0  0  0
 20 18  2  0  0  0  0
 22 31  1  0  0  0  0
 23 30  1  0  0  0  0
 24 25  2  0  0  0  0
 25 26  1  0  0  0  0
 26 22  2  0  0  0  0
 27 28  1  0  0  0  0
 28 26  1  0  0  0  0
 28 23  2  0  0  0  0
 29 24  1  0  0  0  0
 29 27  2  0  0  0  0
 30 31  2  0  0  0  0
 30 21  1  0  0  0  0
 32 34  1  0  0  0  0
 32 24  1  0  0  0  0
 33 32  2  0  0  0  0
M  END
>  <MODEL>
3

>  <REMARK>
 VINA RESULT:     -12.4      4.074      7.757
  Name = 
  4 active torsions:
  status: ('A' for Active; 'I' for Inactive)
    1  A    between atoms: C_3  and  C_25
    2  A    between atoms: C_7  and  C_11
    3  A    between atoms: C_8  and  C_18
    4  A    between atoms: C_18  and  C_30
                            x       y       z     vdW  Elec       q    Type
                         _______ _______ _______ _____ _____    ______ ____

>  <TORSDO>
F 4

$$$$
=
 OpenBabel11052415373D

 34 39  0  0  0  0  0  0  0  0999 V2000
  187.6560  177.8500  145.2680 C   0  0  0  0  0  0  0  0  0  0  0  0
  184.0670  178.8870  145.8510 C   0  0  0  0  0  3  0  0  0  0  0  0
  185.8620  178.5780  147.3410 C   0  0  0  0  0  3  0  0  0  0  0  0
  190.1120  177.1360  144.9540 C   0  0  0  0  0  0  0  0  0  0  0  0
  188.7520  177.4340  144.2930 C   0  0  0  0  0  3  0  0  0  0  0  0
  189.1960  177.6480  147.1290 C   0  0  0  0  0  0  0  0  0  0  0  0
  189.1200  177.8210  148.4690 N   0  0  0  0  0  2  0  0  0  0  0  0
  190.3190  177.2320  146.2880 C   0  0  0  0  0  3  0  0  0  0  0  0
  187.1860  178.2520  147.5930 C   0  0  0  0  0  0  0  0  0  0  0  0
  188.0010  177.9150  146.5890 C   0  0  0  0  0  0  0  0  0  0  0  0
  187.8680  178.1970  148.7580 N   0  0  0  0  0  0  0  0  0  0  0  0
  183.2620  178.9710  144.7260 C   0  0  0  0  0  3  0  0  0  0  0  0
  183.5600  178.7320  143.3920 C   0  0  0  0  0  0  0  0  0  0  0  0
  184.8010  178.3380  142.9070 C   0  0  0  0  0  3  0  0  0  0  0  0
  185.4050  178.5430  145.9950 C   0  0  0  0  0  0  0  0  0  0  0  0
  185.9890  178.0980  143.5790 C   0  0  0  0  0  3  0  0  0  0  0  0
  186.3120  178.1730  144.9320 C   0  0  0  0  0  0  0  0  0  0  0  0
  182.4680  178.9100  142.4150 C   0  0  0  0  0  0  0  0  0  0  0  0
  181.2300  179.3930  142.8250 O   0  0  0  0  0  1  0  0  0  0  0  0
  182.6410  178.6280  141.1990 O   0  0  0  0  0  0  0  0  0  0  0  0
  191.2400  176.6870  144.0870 C   0  0  0  0  0  2  0  0  0  0  0  0
  191.7590  177.4390  140.4080 C   0  0  0  0  0  3  0  0  0  0  0  0
  189.6380  177.1860  142.2270 C   0  0  0  0  0  3  0  0  0  0  0  0
  188.8600  178.1280  138.2020 C   0  0  0  0  0  0  0  0  0  0  0  0
  190.1800  177.9390  138.6380 C   0  0  0  0  0  3  0  0  0  0  0  0
  190.4430  177.6260  139.9740 C   0  0  0  0  0  0  0  0  0  0  0  0
  188.0610  177.6890  140.4580 C   0  0  0  0  0  3  0  0  0  0  0  0
  189.3750  177.4980  140.8900 C   0  0  0  0  0  0  0  0  0  0  0  0
  187.8050  178.0010  139.1190 C   0  0  0  0  0  3  0  0  0  0  0  0
  190.9570  176.9960  142.6540 C   0  0  0  0  0  0  0  0  0  0  0  0
  192.0150  177.1270  141.7460 C   0  0  0  0  0  3  0  0  0  0  0  0
  188.5900  178.4580  136.7940 C   0  0  0  0  0  0  0  0  0  0  0  0
  189.2530  177.9140  135.8730 O   0  0  0  0  0  0  0  0  0  0  0  0
  187.5970  179.3760  136.4680 O   0  0  0  0  0  1  0  0  0  0  0  0
  1 10  1  0  0  0  0
  2 15  1  0  0  0  0
  3  9  1  0  0  0  0
  4  8  2  0  0  0  0
  5  4  1  0  0  0  0
  5  1  2  0  0  0  0
  6  7  1  0  0  0  0
  7 11  1  0  0  0  0
  8  6  1  0  0  0  0
  9 11  2  0  0  0  0
 10  6  2  0  0  0  0
 10  9  1  0  0  0  0
 12  2  2  0  0  0  0
 13 12  1  0  0  0  0
 14 13  2  0  0  0  0
 14 16  1  0  0  0  0
 15  3  2  0  0  0  0
 16 17  2  0  0  0  0
 17  1  1  0  0  0  0
 17 15  1  0  0  0  0
 18 19  1  0  0  0  0
 18 13  1  0  0  0  0
 20 18  2  0  0  0  0
 21  4  1  0  0  0  0
 22 31  1  0  0  0  0
 23 30  1  0  0  0  0
 24 25  2  0  0  0  0
 24 29  1  0  0  0  0
 25 26  1  0  0  0  0
 26 22  2  0  0  0  0
 26 28  1  0  0  0  0
 27 28  1  0  0  0  0
 28 23  2  0  0  0  0
 29 27  2  0  0  0  0
 30 21  1  0  0  0  0
 31 30  2  0  0  0  0
 32 24  1  0  0  0  0
 33 32  2  0  0  0  0
 34 32  1  0  0  0  0
M  END
>  <MODEL>
4

>  <REMARK>
 VINA RESULT:     -12.3      3.568      5.643
  Name = 
  4 active torsions:
  status: ('A' for Active; 'I' for Inactive)
    1  A    between atoms: C_3  and  C_25
    2  A    between atoms: C_7  and  C_11
    3  A    between atoms: C_8  and  C_18
    4  A    between atoms: C_18  and  C_30
                            x       y       z     vdW  Elec       q    Type
                         _______ _______ _______ _____ _____    ______ ____

>  <TORSDO>
F 4

$$$$
=
 OpenBabel11052415373D

 34 39  0  0  0  0  0  0  0  0999 V2000
  188.1380  177.6810  144.8690 C   0  0  0  0  0  0  0  0  0  0  0  0
  191.3460  176.8440  143.0490 C   0  0  0  0  0  3  0  0  0  0  0  0
  190.8730  177.0930  145.3410 C   0  0  0  0  0  3  0  0  0  0  0  0
  185.9970  178.2600  146.1800 C   0  0  0  0  0  0  0  0  0  0  0  0
  186.6530  178.0180  144.8060 C   0  0  0  0  0  3  0  0  0  0  0  0
  188.1030  177.8440  147.2870 C   0  0  0  0  0  0  0  0  0  0  0  0
  189.0140  177.7050  148.2780 N   0  0  0  0  0  2  0  0  0  0  0  0
  186.6810  178.1830  147.3460 C   0  0  0  0  0  3  0  0  0  0  0  0
  189.9870  177.3560  146.3740 C   0  0  0  0  0  0  0  0  0  0  0  0
  188.7050  177.6280  146.1110 C   0  0  0  0  0  0  0  0  0  0  0  0
  190.1880  177.4010  147.7090 N   0  0  0  0  0  0  0  0  0  0  0  0
  191.2670  176.7780  141.6670 C   0  0  0  0  0  3  0  0  0  0  0  0
  190.1840  176.9720  140.8210 C   0  0  0  0  0  0  0  0  0  0  0  0
  188.8960  177.2900  141.2300 C   0  0  0  0  0  3  0  0  0  0  0  0
  190.3800  177.1220  144.0080 C   0  0  0  0  0  0  0  0  0  0  0  0
  188.3830  177.4830  142.5030 C   0  0  0  0  0  3  0  0  0  0  0  0
  188.9880  177.4220  143.7570 C   0  0  0  0  0  0  0  0  0  0  0  0
  190.4270  176.8290  139.3720 C   0  0  0  0  0  0  0  0  0  0  0  0
  190.9270  175.6380  138.8560 O   0  0  0  0  0  1  0  0  0  0  0  0
  190.1860  177.7820  138.5830 O   0  0  0  0  0  0  0  0  0  0  0  0
  184.5530  178.6310  146.2220 C   0  0  0  0  0  2  0  0  0  0  0  0
  182.0690  178.6920  143.3590 C   0  0  0  0  0  3  0  0  0  0  0  0
  184.8460  178.8060  143.7410 C   0  0  0  0  0  3  0  0  0  0  0  0
  183.2470  178.9450  139.8540 C   0  0  0  0  0  0  0  0  0  0  0  0
  182.3940  178.8420  140.9620 C   0  0  0  0  0  3  0  0  0  0  0  0
  182.9200  178.7960  142.2550 C   0  0  0  0  0  0  0  0  0  0  0  0
  185.1690  178.9550  141.3450 C   0  0  0  0  0  3  0  0  0  0  0  0
  184.3190  178.8540  142.4480 C   0  0  0  0  0  0  0  0  0  0  0  0
  184.6350  179.0010  140.0530 C   0  0  0  0  0  3  0  0  0  0  0  0
  183.9890  178.7070  144.8430 C   0  0  0  0  0  0  0  0  0  0  0  0
  182.6030  178.6460  144.6500 C   0  0  0  0  0  3  0  0  0  0  0  0
  182.6860  178.9940  138.4940 C   0  0  0  0  0  0  0  0  0  0  0  0
  182.8970  178.0540  137.6830 O   0  0  0  0  0  0  0  0  0  0  0  0
  181.9160  180.0790  138.0920 O   0  0  0  0  0  1  0  0  0  0  0  0
  1 10  1  0  0  0  0
  2 15  1  0  0  0  0
  3  9  1  0  0  0  0
  4 21  1  0  0  0  0
  4  8  2  0  0  0  0
  5  1  2  0  0  0  0
  5  4  1  0  0  0  0
  6  8  1  0  0  0  0
  6  7  1  0  0  0  0
  9 11  2  0  0  0  0
 10  9  1  0  0  0  0
 10  6  2  0  0  0  0
 11  7  1  0  0  0  0
 12  2  2  0  0  0  0
 13 14  2  0  0  0  0
 13 12  1  0  0  0  0
 14 16  1  0  0  0  0
 15  3  2  0  0  0  0
 16 17  2  0  0  0  0
 17 15  1  0  0  0  0
 17  1  1  0  0  0  0
 18 13  1  0  0  0  0
 19 18  1  0  0  0  0
 20 18  2  0  0  0  0
 22 31  1  0  0  0  0
 23 30  1  0  0  0  0
 24 29  1  0  0  0  0
 24 25  2  0  0  0  0
 25 26  1  0  0  0  0
 26 28  1  0  0  0  0
 26 22  2  0  0  0  0
 27 28  1  0  0  0  0
 28 23  2  0  0  0  0
 29 27  2  0  0  0  0
 30 21  1  0  0  0  0
 31 30  2  0  0  0  0
 32 24  1  0  0  0  0
 33 32  2  0  0  0  0
 34 32  1  0  0  0  0
M  END
>  <MODEL>
5

>  <REMARK>
 VINA RESULT:     -12.1      3.544      6.795
  Name = 
  4 active torsions:
  status: ('A' for Active; 'I' for Inactive)
    1  A    between atoms: C_3  and  C_25
    2  A    between atoms: C_7  and  C_11
    3  A    between atoms: C_8  and  C_18
    4  A    between atoms: C_18  and  C_30
                            x       y       z     vdW  Elec       q    Type
                         _______ _______ _______ _____ _____    ______ ____

>  <TORSDO>
F 4

$$$$
=
 OpenBabel11052415373D

 34 39  0  0  0  0  0  0  0  0999 V2000
  188.9110  177.6600  143.8640 C   0  0  0  0  0  0  0  0  0  0  0  0
  185.8900  178.0000  146.1140 C   0  0  0  0  0  3  0  0  0  0  0  0
  188.1490  177.5450  146.5940 C   0  0  0  0  0  3  0  0  0  0  0  0
  191.0130  177.4000  142.3970 C   0  0  0  0  0  0  0  0  0  0  0  0
  189.4980  177.6790  142.4570 C   0  0  0  0  0  3  0  0  0  0  0  0
  191.0930  177.1720  144.8000 C   0  0  0  0  0  0  0  0  0  0  0  0
  191.5860  176.9610  146.0420 N   0  0  0  0  0  2  0  0  0  0  0  0
  191.7610  177.1570  143.4980 C   0  0  0  0  0  3  0  0  0  0  0  0
  189.4590  177.3470  146.1850 C   0  0  0  0  0  0  0  0  0  0  0  0
  189.7790  177.4100  144.8890 C   0  0  0  0  0  0  0  0  0  0  0  0
  190.5680  177.0700  146.9050 N   0  0  0  0  0  0  0  0  0  0  0  0
  184.6860  178.2760  145.4860 C   0  0  0  0  0  3  0  0  0  0  0  0
  184.3970  178.4520  144.1400 C   0  0  0  0  0  0  0  0  0  0  0  0
  185.3230  178.3780  143.1060 C   0  0  0  0  0  3  0  0  0  0  0  0
  187.1680  177.8150  145.6010 C   0  0  0  0  0  0  0  0  0  0  0  0
  186.6850  178.1290  143.1410 C   0  0  0  0  0  3  0  0  0  0  0  0
  187.5470  177.8750  144.2070 C   0  0  0  0  0  0  0  0  0  0  0  0
  182.9940  178.7380  143.7840 C   0  0  0  0  0  0  0  0  0  0  0  0
  182.6190  178.8750  142.4520 O   0  0  0  0  0  0  0  0  0  0  0  0
  182.1160  178.8630  144.6800 O   0  0  0  0  0  1  0  0  0  0  0  0
  191.6760  177.3620  141.0610 C   0  0  0  0  0  2  0  0  0  0  0  0
  190.0620  175.8900  137.9620 C   0  0  0  0  0  3  0  0  0  0  0  0
  189.4580  177.7580  139.9670 C   0  0  0  0  0  3  0  0  0  0  0  0
  186.6880  176.9920  136.8950 C   0  0  0  0  0  0  0  0  0  0  0  0
  187.9160  176.3150  136.9200 C   0  0  0  0  0  3  0  0  0  0  0  0
  188.8390  176.5650  137.9390 C   0  0  0  0  0  0  0  0  0  0  0  0
  187.3130  178.1830  138.9230 C   0  0  0  0  0  3  0  0  0  0  0  0
  188.5340  177.5060  138.9490 C   0  0  0  0  0  0  0  0  0  0  0  0
  186.3940  177.9260  137.9010 C   0  0  0  0  0  3  0  0  0  0  0  0
  190.6790  177.0750  139.9880 C   0  0  0  0  0  0  0  0  0  0  0  0
  190.9810  176.1470  138.9840 C   0  0  0  0  0  3  0  0  0  0  0  0
  185.7210  176.7240  135.8190 C   0  0  0  0  0  0  0  0  0  0  0  0
  186.1190  176.3940  134.6710 O   0  0  0  0  0  0  0  0  0  0  0  0
  184.3560  176.8330  136.0620 O   0  0  0  0  0  1  0  0  0  0  0  0
  1 17  1  0  0  0  0
  1 10  1  0  0  0  0
  4  5  1  0  0  0  0
  4  8  2  0  0  0  0
  5  1  2  0  0  0  0
  6 10  2  0  0  0  0
  6  7  1  0  0  0  0
  7 11  1  0  0  0  0
  8  6  1  0  0  0  0
  9  3  1  0  0  0  0
  9 11  2  0  0  0  0
 10  9  1  0  0  0  0
 12  2  2  0  0  0  0
 13 12  1  0  0  0  0
 14 16  1  0  0  0  0
 14 13  2  0  0  0  0
 15  2  1  0  0  0  0
 15  3  2  0  0  0  0
 16 17  2  0  0  0  0
 17 15  1  0  0  0  0
 18 13  1  0  0  0  0
 18 20  1  0  0  0  0
 19 18  2  0  0  0  0
 21  4  1  0  0  0  0
 22 31  1  0  0  0  0
 23 30  1  0  0  0  0
 24 25  2  0  0  0  0
 24 29  1  0  0  0  0
 25 26  1  0  0  0  0
 26 22  2  0  0  0  0
 26 28  1  0  0  0  0
 27 28  1  0  0  0  0
 28 23  2  0  0  0  0
 29 27  2  0  0  0  0
 30 21  1  0  0  0  0
 31 30  2  0  0  0  0
 32 34  1  0  0  0  0
 32 24  1  0  0  0  0
 33 32  2  0  0  0  0
M  END
>  <MODEL>
6

>  <REMARK>
 VINA RESULT:     -11.5      4.019      5.950
  Name = 
  4 active torsions:
  status: ('A' for Active; 'I' for Inactive)
    1  A    between atoms: C_3  and  C_25
    2  A    between atoms: C_7  and  C_11
    3  A    between atoms: C_8  and  C_18
    4  A    between atoms: C_18  and  C_30
                            x       y       z     vdW  Elec       q    Type
                         _______ _______ _______ _____ _____    ______ ____

>  <TORSDO>
F 4

$$$$
=
 OpenBabel11052415373D

 34 39  0  0  0  0  0  0  0  0999 V2000
  188.5470  177.8990  141.5080 C   0  0  0  0  0  0  0  0  0  0  0  0
  188.2530  177.7670  145.2760 C   0  0  0  0  0  3  0  0  0  0  0  0
  190.0920  177.4430  143.8440 C   0  0  0  0  0  3  0  0  0  0  0  0
  188.8260  177.9570  138.9470 C   0  0  0  0  0  0  0  0  0  0  0  0
  187.8790  178.1080  140.1540 C   0  0  0  0  0  2  0  0  0  0  0  0
  190.6770  177.4880  140.4260 C   0  0  0  0  0  0  0  0  0  0  0  0
  191.9300  177.1900  140.8410 N   0  0  0  0  0  0  0  0  0  0  0  0
  190.1410  177.6600  139.0760 C   0  0  0  0  0  3  0  0  0  0  0  0
  190.6440  177.3910  142.5730 C   0  0  0  0  0  0  0  0  0  0  0  0
  189.8840  177.6120  141.4970 C   0  0  0  0  0  0  0  0  0  0  0  0
  191.9100  177.1290  142.1790 N   0  0  0  0  0  0  0  0  0  0  0  0
  186.9940  178.0120  145.8020 C   0  0  0  0  0  3  0  0  0  0  0  0
  185.7970  178.3020  145.1620 C   0  0  0  0  0  0  0  0  0  0  0  0
  185.6300  178.4080  143.7870 C   0  0  0  0  0  3  0  0  0  0  0  0
  188.7060  177.7370  143.9630 C   0  0  0  0  0  0  0  0  0  0  0  0
  186.5490  178.2640  142.7600 C   0  0  0  0  0  3  0  0  0  0  0  0
  187.9110  177.9700  142.7790 C   0  0  0  0  0  0  0  0  0  0  0  0
  184.6120  178.5130  146.0150 C   0  0  0  0  0  0  0  0  0  0  0  0
  183.4300  179.0020  145.4690 O   0  0  0  0  0  0  0  0  0  0  0  0
  184.6530  178.2540  147.2480 O   0  0  0  0  0  1  0  0  0  0  0  0
  188.2590  178.1090  137.5760 C   0  0  0  0  0  2  0  0  0  0  0  0
  184.7600  176.7620  137.0170 C   0  0  0  0  0  3  0  0  0  0  0  0
  187.3620  175.7790  137.3800 C   0  0  0  0  0  3  0  0  0  0  0  0
  184.1530  173.1090  136.8610 C   0  0  0  0  0  0  0  0  0  0  0  0
  183.9250  174.4930  136.8530 C   0  0  0  0  0  3  0  0  0  0  0  0
  184.9880  175.3840  137.0240 C   0  0  0  0  0  0  0  0  0  0  0  0
  186.5260  173.5100  137.2170 C   0  0  0  0  0  3  0  0  0  0  0  0
  186.2990  174.8880  137.2070 C   0  0  0  0  0  0  0  0  0  0  0  0
  185.4580  172.6250  137.0440 C   0  0  0  0  0  3  0  0  0  0  0  0
  187.1280  177.1580  137.3670 C   0  0  0  0  0  0  0  0  0  0  0  0
  185.8270  177.6480  137.1900 C   0  0  0  0  0  3  0  0  0  0  0  0
  183.0300  172.1760  136.6800 C   0  0  0  0  0  0  0  0  0  0  0  0
  181.8530  172.6100  136.5610 O   0  0  0  0  0  0  0  0  0  0  0  0
  183.2570  170.8050  136.6400 O   0  0  0  0  0  1  0  0  0  0  0  0
  1 17  2  0  0  0  0
  2 12  1  0  0  0  0
  3 15  1  0  0  0  0
  4  8  2  0  0  0  0
  4  5  1  0  0  0  0
  5  1  1  0  0  0  0
  6  7  1  0  0  0  0
  6 10  2  0  0  0  0
  7 11  2  0  0  0  0
  8  6  1  0  0  0  0
  9  3  2  0  0  0  0
 10  1  1  0  0  0  0
 10  9  1  0  0  0  0
 11  9  1  0  0  0  0
 13 12  2  0  0  0  0
 13 18  1  0  0  0  0
 14 13  1  0  0  0  0
 15  2  2  0  0  0  0
 16 17  1  0  0  0  0
 16 14  2  0  0  0  0
 17 15  1  0  0  0  0
 18 20  1  0  0  0  0
 19 18  2  0  0  0  0
 21  4  1  0  0  0  0
 22 26  2  0  0  0  0
 22 31  1  0  0  0  0
 24 29  1  0  0  0  0
 25 24  2  0  0  0  0
 25 26  1  0  0  0  0
 26 28  1  0  0  0  0
 28 27  1  0  0  0  0
 28 23  2  0  0  0  0
 29 27  2  0  0  0  0
 30 23  1  0  0  0  0
 30 21  1  0  0  0  0
 31 30  2  0  0  0  0
 32 24  1  0  0  0  0
 33 32  2  0  0  0  0
 34 32  1  0  0  0  0
M  END
>  <MODEL>
7

>  <REMARK>
 VINA RESULT:     -11.3      4.985      6.730
  Name = 
  4 active torsions:
  status: ('A' for Active; 'I' for Inactive)
    1  A    between atoms: C_3  and  C_25
    2  A    between atoms: C_7  and  C_11
    3  A    between atoms: C_8  and  C_18
    4  A    between atoms: C_18  and  C_30
                            x       y       z     vdW  Elec       q    Type
                         _______ _______ _______ _____ _____    ______ ____

>  <TORSDO>
F 4

$$$$
=
 OpenBabel11052415373D

 34 39  0  0  0  0  0  0  0  0999 V2000
  187.1710  178.1500  140.5810 C   0  0  0  0  0  0  0  0  0  0  0  0
  189.4380  177.4110  137.6450 C   0  0  0  0  0  3  0  0  0  0  0  0
  187.1460  177.9380  137.7520 C   0  0  0  0  0  3  0  0  0  0  0  0
  185.5610  178.6500  142.5290 C   0  0  0  0  0  0  0  0  0  0  0  0
  186.9950  178.3010  142.0870 C   0  0  0  0  0  2  0  0  0  0  0  0
  184.8250  178.6480  140.2280 C   0  0  0  0  0  0  0  0  0  0  0  0
  184.0090  178.7440  139.1530 N   0  0  0  0  0  0  0  0  0  0  0  0
  184.5400  178.8080  141.6540 C   0  0  0  0  0  3  0  0  0  0  0  0
  186.0070  178.2530  138.4770 C   0  0  0  0  0  0  0  0  0  0  0  0
  186.0590  178.3450  139.8100 C   0  0  0  0  0  0  0  0  0  0  0  0
  184.7450  178.4980  138.0620 N   0  0  0  0  0  0  0  0  0  0  0  0
  190.7610  177.1340  137.9470 C   0  0  0  0  0  3  0  0  0  0  0  0
  191.4080  177.0810  139.1740 C   0  0  0  0  0  0  0  0  0  0  0  0
  190.8080  177.3100  140.4050 C   0  0  0  0  0  3  0  0  0  0  0  0
  188.3580  177.7190  138.4630 C   0  0  0  0  0  0  0  0  0  0  0  0
  189.4960  177.6320  140.7160 C   0  0  0  0  0  3  0  0  0  0  0  0
  188.3800  177.8240  139.9050 C   0  0  0  0  0  0  0  0  0  0  0  0
  192.8470  176.7530  139.1630 C   0  0  0  0  0  0  0  0  0  0  0  0
  193.6640  177.1340  140.2220 O   0  0  0  0  0  1  0  0  0  0  0  0
  193.3550  176.1230  138.1960 O   0  0  0  0  0  0  0  0  0  0  0  0
  185.2790  178.7840  143.9870 C   0  0  0  0  0  2  0  0  0  0  0  0
  187.3190  177.5040  146.9150 C   0  0  0  0  0  3  0  0  0  0  0  0
  187.6870  178.1300  144.2050 C   0  0  0  0  0  3  0  0  0  0  0  0
  190.9260  176.7530  146.5070 C   0  0  0  0  0  0  0  0  0  0  0  0
  189.6600  176.9000  147.0920 C   0  0  0  0  0  3  0  0  0  0  0  0
  188.5800  177.3570  146.3310 C   0  0  0  0  0  0  0  0  0  0  0  0
  190.0270  177.5280  144.3840 C   0  0  0  0  0  3  0  0  0  0  0  0
  188.7660  177.6720  144.9660 C   0  0  0  0  0  0  0  0  0  0  0  0
  191.1020  177.0700  145.1510 C   0  0  0  0  0  3  0  0  0  0  0  0
  186.4250  178.2710  144.7940 C   0  0  0  0  0  0  0  0  0  0  0  0
  186.2440  177.9620  146.1480 C   0  0  0  0  0  3  0  0  0  0  0  0
  192.0580  176.2720  147.3140 C   0  0  0  0  0  0  0  0  0  0  0  0
  192.7000  175.2450  146.9650 O   0  0  0  0  0  0  0  0  0  0  0  0
  192.4310  176.9470  148.4710 O   0  0  0  0  0  1  0  0  0  0  0  0
  1  5  1  0  0  0  0
  2 12  2  0  0  0  0
  2 15  1  0  0  0  0
  3 15  2  0  0  0  0
  3  9  1  0  0  0  0
  4 21  1  0  0  0  0
  5  4  1  0  0  0  0
  6  8  1  0  0  0  0
  7  6  2  0  0  0  0
  8  4  2  0  0  0  0
  9 10  1  0  0  0  0
 10  6  1  0  0  0  0
 10  1  2  0  0  0  0
 11  9  2  0  0  0  0
 11  7  1  0  0  0  0
 12 13  1  0  0  0  0
 13 14  2  0  0  0  0
 14 16  1  0  0  0  0
 15 17  1  0  0  0  0
 17  1  1  0  0  0  0
 17 16  2  0  0  0  0
 18 13  1  0  0  0  0
 18 19  1  0  0  0  0
 20 18  2  0  0  0  0
 21 30  1  0  0  0  0
 23 30  2  0  0  0  0
 23 28  1  0  0  0  0
 24 25  1  0  0  0  0
 24 32  1  0  0  0  0
 26 22  1  0  0  0  0
 26 25  2  0  0  0  0
 27 28  2  0  0  0  0
 27 29  1  0  0  0  0
 28 26  1  0  0  0  0
 29 24  2  0  0  0  0
 30 31  1  0  0  0  0
 31 22  2  0  0  0  0
 32 34  1  0  0  0  0
 33 32  2  0  0  0  0
M  END
>  <MODEL>
8

>  <REMARK>
 VINA RESULT:     -11.1      1.680      6.656
  Name = 
  4 active torsions:
  status: ('A' for Active; 'I' for Inactive)
    1  A    between atoms: C_3  and  C_25
    2  A    between atoms: C_7  and  C_11
    3  A    between atoms: C_8  and  C_18
    4  A    between atoms: C_18  and  C_30
                            x       y       z     vdW  Elec       q    Type
                         _______ _______ _______ _____ _____    ______ ____

>  <TORSDO>
F 4

$$$$
=
 OpenBabel11052415373D

 34 39  0  0  0  0  0  0  0  0999 V2000
  184.5420  178.4300  142.2420 C   0  0  0  0  0  0  0  0  0  0  0  0
  185.4690  178.3030  145.9060 C   0  0  0  0  0  3  0  0  0  0  0  0
  183.4330  178.7840  144.8290 C   0  0  0  0  0  3  0  0  0  0  0  0
  183.8360  178.5500  139.7660 C   0  0  0  0  0  0  0  0  0  0  0  0
  184.9640  178.2870  140.7840 C   0  0  0  0  0  2  0  0  0  0  0  0
  182.2820  178.9830  141.5630 C   0  0  0  0  0  0  0  0  0  0  0  0
  181.1310  179.2970  142.2020 N   0  0  0  0  0  0  0  0  0  0  0  0
  182.5760  178.8820  140.1340 C   0  0  0  0  0  3  0  0  0  0  0  0
  182.6780  178.9380  143.6750 C   0  0  0  0  0  0  0  0  0  0  0  0
  183.2370  178.7620  142.4740 C   0  0  0  0  0  0  0  0  0  0  0  0
  181.3780  179.2690  143.5180 N   0  0  0  0  0  0  0  0  0  0  0  0
  186.7860  177.9820  146.1940 C   0  0  0  0  0  3  0  0  0  0  0  0
  187.8440  177.6930  145.3440 C   0  0  0  0  0  0  0  0  0  0  0  0
  187.7740  177.6720  143.9570 C   0  0  0  0  0  3  0  0  0  0  0  0
  184.8040  178.4350  144.6930 C   0  0  0  0  0  0  0  0  0  0  0  0
  186.7040  177.9150  143.1110 C   0  0  0  0  0  3  0  0  0  0  0  0
  185.3790  178.2540  143.3790 C   0  0  0  0  0  0  0  0  0  0  0  0
  189.1460  177.3860  145.9700 C   0  0  0  0  0  0  0  0  0  0  0  0
  190.2580  177.1130  145.1810 O   0  0  0  0  0  0  0  0  0  0  0  0
  189.2670  177.3670  147.2240 O   0  0  0  0  0  1  0  0  0  0  0  0
  184.1580  178.4690  138.3120 C   0  0  0  0  0  2  0  0  0  0  0  0
  186.8210  176.0600  137.1000 C   0  0  0  0  0  3  0  0  0  0  0  0
  186.6190  178.3170  138.7530 C   0  0  0  0  0  3  0  0  0  0  0  0
  190.3380  176.4280  138.2120 C   0  0  0  0  0  0  0  0  0  0  0  0
  189.1960  175.9320  137.5660 C   0  0  0  0  0  3  0  0  0  0  0  0
  187.9590  176.5560  137.7420 C   0  0  0  0  0  0  0  0  0  0  0  0
  188.9930  178.1870  139.2200 C   0  0  0  0  0  3  0  0  0  0  0  0
  187.8570  177.6930  138.5750 C   0  0  0  0  0  0  0  0  0  0  0  0
  190.2280  177.5580  139.0380 C   0  0  0  0  0  3  0  0  0  0  0  0
  185.4840  177.8180  138.1030 C   0  0  0  0  0  0  0  0  0  0  0  0
  185.5870  176.6880  137.2810 C   0  0  0  0  0  3  0  0  0  0  0  0
  191.6380  175.7660  138.0220 C   0  0  0  0  0  0  0  0  0  0  0  0
  191.7090  174.5120  137.9370 O   0  0  0  0  0  1  0  0  0  0  0  0
  192.8020  176.5220  137.9350 O   0  0  0  0  0  0  0  0  0  0  0  0
  1 10  1  0  0  0  0
  1 17  2  0  0  0  0
  2 12  1  0  0  0  0
  4  8  2  0  0  0  0
  4  5  1  0  0  0  0
  5  1  1  0  0  0  0
  6  7  1  0  0  0  0
  6 10  2  0  0  0  0
  7 11  2  0  0  0  0
  8  6  1  0  0  0  0
  9  3  2  0  0  0  0
 10  9  1  0  0  0  0
 11  9  1  0  0  0  0
 13 18  1  0  0  0  0
 13 12  2  0  0  0  0
 14 13  1  0  0  0  0
 15  3  1  0  0  0  0
 15  2  2  0  0  0  0
 16 17  1  0  0  0  0
 16 14  2  0  0  0  0
 17 15  1  0  0  0  0
 18 20  1  0  0  0  0
 19 18  2  0  0  0  0
 21  4  1  0  0  0  0
 22 31  2  0  0  0  0
 22 26  1  0  0  0  0
 24 29  1  0  0  0  0
 25 26  1  0  0  0  0
 25 24  2  0  0  0  0
 26 28  2  0  0  0  0
 28 23  1  0  0  0  0
 28 27  1  0  0  0  0
 29 27  2  0  0  0  0
 30 21  1  0  0  0  0
 30 23  2  0  0  0  0
 31 30  1  0  0  0  0
 32 24  1  0  0  0  0
 33 32  1  0  0  0  0
 34 32  2  0  0  0  0
M  END
>  <MODEL>
9

>  <REMARK>
 VINA RESULT:     -11.1      1.690      2.708
  Name = 
  4 active torsions:
  status: ('A' for Active; 'I' for Inactive)
    1  A    between atoms: C_3  and  C_25
    2  A    between atoms: C_7  and  C_11
    3  A    between atoms: C_8  and  C_18
    4  A    between atoms: C_18  and  C_30
                            x       y       z     vdW  Elec       q    Type
                         _______ _______ _______ _____ _____    ______ ____

>  <TORSDO>
F 4

$$$$
