=
 OpenBabel11052413363D

 28 29  0  0  1  0  0  0  0  0999 V2000
  188.2990  177.4520  144.4020 C   0  0  0  0  0  2  0  0  0  0  0  0
  189.8220  177.7490  142.3740 C   0  0  2  0  0  0  0  0  0  0  0  0
  191.4240  178.1920  144.2910 C   0  0  0  0  0  0  0  0  0  0  0  0
  190.7920  179.1870  142.9510 S   0  0  0  0  0  0  0  0  0  0  0  0
  192.4100  178.5360  144.9240 O   0  0  0  0  0  0  0  0  0  0  0  0
  190.7090  176.9170  144.5820 C   0  0  2  0  0  3  0  0  0  0  0  0
  189.1150  175.4310  143.2110 C   0  0  0  0  0  1  0  0  0  0  0  0
  191.6650  175.7310  144.4810 C   0  0  0  0  0  1  0  0  0  0  0  0
  188.5560  178.2800  141.7120 C   0  0  0  0  0  1  0  0  0  0  0  0
  189.4930  176.8590  143.6270 C   0  0  1  0  0  0  0  0  0  0  0  0
  190.5800  177.0080  141.2530 C   0  0  0  0  0  2  0  0  0  0  0  0
  189.8980  177.0110  139.8910 C   0  0  0  0  0  2  0  0  0  0  0  0
  190.5400  176.0580  139.0020 N   0  0  0  0  0  2  0  0  0  0  0  0
  191.8060  176.3150  138.4570 C   0  0  0  0  0  0  0  0  0  0  0  0
  192.8930  176.5360  137.9880 C   0  0  0  0  0  3  0  0  0  0  0  0
  188.4770  177.4120  145.9230 C   0  0  0  0  0  2  0  0  0  0  0  0
  187.1390  177.4070  146.6650 C   0  0  1  0  0  3  0  0  0  0  0  0
  187.0910  178.4820  147.7410 C   0  0  0  0  0  2  0  0  0  0  0  0
  187.9810  178.1690  148.7690 O   0  0  0  0  0  1  0  0  0  0  0  0
  185.9590  177.5680  145.7150 C   0  0  0  0  0  2  0  0  0  0  0  0
  185.3050  178.9370  145.8520 C   0  0  0  0  0  2  0  0  0  0  0  0
  182.3470  179.1590  143.3900 C   0  0  0  0  0  2  0  0  0  0  0  0
  184.5390  179.3110  144.5930 C   0  0  2  0  0  3  0  0  0  0  0  0
  184.4770  179.0100  142.1320 C   0  0  0  0  0  0  0  0  0  0  0  0
  183.1200  178.7370  144.6380 C   0  0  0  0  0  2  0  0  0  0  0  0
  185.2890  178.7820  143.3710 C   0  0  0  0  0  2  0  0  0  0  0  0
  185.0060  179.4350  141.1190 O   0  0  0  0  0  0  0  0  0  0  0  0
  183.0270  178.6320  142.1280 C   0  0  0  0  0  2  0  0  0  0  0  0
  1 16  1  0  0  0  0
  2  9  1  6  0  0  0
  2  4  1  0  0  0  0
  2 10  1  0  0  0  0
  3  6  1  0  0  0  0
  3  5  2  0  0  0  0
  4  3  1  0  0  0  0
  6  8  1  6  0  0  0
 10  7  1  6  0  0  0
 10  1  1  0  0  0  0
 10  6  1  0  0  0  0
 11  2  1  0  0  0  0
 12 11  1  0  0  0  0
 13 12  1  0  0  0  0
 14 13  1  0  0  0  0
 15 14  3  0  0  0  0
 16 17  1  0  0  0  0
 17 20  1  6  0  0  0
 17 18  1  0  0  0  0
 18 19  1  0  0  0  0
 20 21  1  0  0  0  0
 22 25  1  0  0  0  0
 23 25  1  0  0  0  0
 23 21  1  1  0  0  0
 24 26  1  0  0  0  0
 26 23  1  0  0  0  0
 27 24  2  0  0  0  0
 28 24  1  0  0  0  0
 28 22  1  0  0  0  0
M  END
>  <MODEL>
1

>  <REMARK>
 VINA RESULT:      -6.9      0.000      0.000
  Name = 
  11 active torsions:
  status: ('A' for Active; 'I' for Inactive)
    1  A    between atoms: C_1  and  C_11
    2  A    between atoms: C_5  and  C_25
    3  A    between atoms: N_6  and  C_8
    4  A    between atoms: N_6  and  C_22
    5  A    between atoms: C_8  and  C_11
    6  A    between atoms: C_9  and  C_18
    7  A    between atoms: C_10  and  C_17
    8  A    between atoms: C_10  and  C_25
    9  A    between atoms: C_14  and  C_18
   10  A    between atoms: C_14  and  C_25
   11  A    between atoms: C_17  and  C_27
                            x       y       z     vdW  Elec       q    Type
                         _______ _______ _______ _____ _____    ______ ____

>  <TORSDO>
F 11

$$$$
=
 OpenBabel11052413363D

 28 29  0  0  1  0  0  0  0  0999 V2000
  188.2090  177.3390  144.5260 C   0  0  0  0  0  2  0  0  0  0  0  0
  189.5850  177.8940  142.4480 C   0  0  2  0  0  0  0  0  0  0  0  0
  191.2990  178.1910  144.2950 C   0  0  0  0  0  0  0  0  0  0  0  0
  190.5520  179.2970  143.1100 S   0  0  0  0  0  0  0  0  0  0  0  0
  192.3150  178.5010  144.8960 O   0  0  0  0  0  0  0  0  0  0  0  0
  190.6390  176.8690  144.4960 C   0  0  2  0  0  3  0  0  0  0  0  0
  188.9980  175.4800  143.0790 C   0  0  0  0  0  1  0  0  0  0  0  0
  191.6170  175.7330  144.2090 C   0  0  0  0  0  1  0  0  0  0  0  0
  188.2630  178.4480  141.9280 C   0  0  0  0  0  1  0  0  0  0  0  0
  189.3640  176.8700  143.6190 C   0  0  1  0  0  0  0  0  0  0  0  0
  190.2850  177.2990  141.2090 C   0  0  0  0  0  2  0  0  0  0  0  0
  189.4270  177.2100  139.9530 C   0  0  0  0  0  2  0  0  0  0  0  0
  189.9260  178.1200  138.9360 N   0  0  0  0  0  2  0  0  0  0  0  0
  189.1850  178.3860  137.7760 C   0  0  0  0  0  0  0  0  0  0  0  0
  188.5480  178.6130  136.7790 C   0  0  0  0  0  3  0  0  0  0  0  0
  188.4820  177.1320  146.0190 C   0  0  0  0  0  2  0  0  0  0  0  0
  187.3590  177.6850  146.8980 C   0  0  1  0  0  3  0  0  0  0  0  0
  187.8940  178.2360  148.2120 C   0  0  0  0  0  2  0  0  0  0  0  0
  189.2260  177.8570  148.3810 O   0  0  0  0  0  1  0  0  0  0  0  0
  186.5450  178.7540  146.1780 C   0  0  0  0  0  2  0  0  0  0  0  0
  185.0480  178.5620  146.3870 C   0  0  0  0  0  2  0  0  0  0  0  0
  184.5540  178.2070  142.5800 C   0  0  0  0  0  2  0  0  0  0  0  0
  184.3440  178.2500  145.0760 C   0  0  2  0  0  3  0  0  0  0  0  0
  182.4210  178.8840  143.6450 C   0  0  0  0  0  0  0  0  0  0  0  0
  185.2560  178.5690  143.8880 C   0  0  0  0  0  2  0  0  0  0  0  0
  183.0530  179.0640  144.9920 C   0  0  0  0  0  2  0  0  0  0  0  0
  181.2190  178.7000  143.5490 O   0  0  0  0  0  0  0  0  0  0  0  0
  183.2670  179.0140  142.4160 C   0  0  0  0  0  2  0  0  0  0  0  0
  1 16  1  0  0  0  0
  2  9  1  6  0  0  0
  2  4  1  0  0  0  0
  2 10  1  0  0  0  0
  3  6  1  0  0  0  0
  3  5  2  0  0  0  0
  4  3  1  0  0  0  0
  6  8  1  6  0  0  0
 10  7  1  6  0  0  0
 10  6  1  0  0  0  0
 10  1  1  0  0  0  0
 11  2  1  0  0  0  0
 12 11  1  0  0  0  0
 13 12  1  0  0  0  0
 14 13  1  0  0  0  0
 15 14  3  0  0  0  0
 17 16  1  6  0  0  0
 17 18  1  0  0  0  0
 18 19  1  0  0  0  0
 20 21  1  0  0  0  0
 20 17  1  0  0  0  0
 22 25  1  0  0  0  0
 23 21  1  1  0  0  0
 24 26  1  0  0  0  0
 25 23  1  0  0  0  0
 26 23  1  0  0  0  0
 27 24  2  0  0  0  0
 28 22  1  0  0  0  0
 28 24  1  0  0  0  0
M  END
>  <MODEL>
2

>  <REMARK>
 VINA RESULT:      -6.5      1.465      1.848
  Name = 
  11 active torsions:
  status: ('A' for Active; 'I' for Inactive)
    1  A    between atoms: C_1  and  C_11
    2  A    between atoms: C_5  and  C_25
    3  A    between atoms: N_6  and  C_8
    4  A    between atoms: N_6  and  C_22
    5  A    between atoms: C_8  and  C_11
    6  A    between atoms: C_9  and  C_18
    7  A    between atoms: C_10  and  C_17
    8  A    between atoms: C_10  and  C_25
    9  A    between atoms: C_14  and  C_18
   10  A    between atoms: C_14  and  C_25
   11  A    between atoms: C_17  and  C_27
                            x       y       z     vdW  Elec       q    Type
                         _______ _______ _______ _____ _____    ______ ____

>  <TORSDO>
F 11

$$$$
=
 OpenBabel11052413363D

 28 29  0  0  1  0  0  0  0  0999 V2000
  183.3890  177.8340  140.9050 C   0  0  0  0  0  2  0  0  0  0  0  0
  182.1970  179.1090  139.0410 C   0  0  2  0  0  0  0  0  0  0  0  0
  181.3810  176.7390  138.6470 C   0  0  0  0  0  0  0  0  0  0  0  0
  182.3700  177.8810  137.6970 S   0  0  0  0  0  0  0  0  0  0  0  0
  180.8740  175.7570  138.1280 O   0  0  0  0  0  0  0  0  0  0  0  0
  181.1860  177.0530  140.0920 C   0  0  2  0  0  3  0  0  0  0  0  0
  181.4030  179.2120  141.4760 C   0  0  0  0  0  1  0  0  0  0  0  0
  179.6990  177.1680  140.4180 C   0  0  0  0  0  1  0  0  0  0  0  0
  183.4580  179.9650  139.0500 C   0  0  0  0  0  1  0  0  0  0  0  0
  182.0200  178.3220  140.3890 C   0  0  1  0  0  0  0  0  0  0  0  0
  181.0490  180.0900  138.7250 C   0  0  0  0  0  2  0  0  0  0  0  0
  181.4740  181.5270  138.4520 C   0  0  0  0  0  2  0  0  0  0  0  0
  180.7960  182.0390  137.2740 N   0  0  0  0  0  2  0  0  0  0  0  0
  180.9930  183.3580  136.8410 C   0  0  0  0  0  0  0  0  0  0  0  0
  181.1640  184.4910  136.4690 C   0  0  0  0  0  3  0  0  0  0  0  0
  183.7400  178.3610  142.2990 C   0  0  0  0  0  2  0  0  0  0  0  0
  185.2320  178.2320  142.6120 C   0  0  1  0  0  3  0  0  0  0  0  0
  186.0850  178.9680  141.5880 C   0  0  0  0  0  2  0  0  0  0  0  0
  187.4170  178.5700  141.7030 O   0  0  0  0  0  1  0  0  0  0  0  0
  185.5650  178.7220  144.0160 C   0  0  0  0  0  2  0  0  0  0  0  0
  186.0660  177.5910  144.9060 C   0  0  0  0  0  2  0  0  0  0  0  0
  189.8980  177.4550  145.2960 C   0  0  0  0  0  2  0  0  0  0  0  0
  187.4400  177.9030  145.4750 C   0  0  2  0  0  3  0  0  0  0  0  0
  188.8370  177.7410  147.5180 C   0  0  0  0  0  0  0  0  0  0  0  0
  188.5190  177.0960  144.7470 C   0  0  0  0  0  2  0  0  0  0  0  0
  187.4510  177.5820  146.9690 C   0  0  0  0  0  2  0  0  0  0  0  0
  189.0160  178.3090  148.5820 O   0  0  0  0  0  0  0  0  0  0  0  0
  189.9900  177.1250  146.7850 C   0  0  0  0  0  2  0  0  0  0  0  0
  1 16  1  0  0  0  0
  2  9  1  1  0  0  0
  2 10  1  0  0  0  0
  3  6  1  0  0  0  0
  4  3  1  0  0  0  0
  4  2  1  0  0  0  0
  5  3  2  0  0  0  0
  6 10  1  0  0  0  0
  6  8  1  6  0  0  0
 10  1  1  0  0  0  0
 10  7  1  1  0  0  0
 11  2  1  0  0  0  0
 12 11  1  0  0  0  0
 13 12  1  0  0  0  0
 14 13  1  0  0  0  0
 15 14  3  0  0  0  0
 16 17  1  0  0  0  0
 17 18  1  6  0  0  0
 17 20  1  0  0  0  0
 18 19  1  0  0  0  0
 20 21  1  0  0  0  0
 22 28  1  0  0  0  0
 23 21  1  6  0  0  0
 23 26  1  0  0  0  0
 24 27  2  0  0  0  0
 25 22  1  0  0  0  0
 25 23  1  0  0  0  0
 26 24  1  0  0  0  0
 28 24  1  0  0  0  0
M  END
>  <MODEL>
3

>  <REMARK>
 VINA RESULT:      -6.4      4.387      8.793
  Name = 
  11 active torsions:
  status: ('A' for Active; 'I' for Inactive)
    1  A    between atoms: C_1  and  C_11
    2  A    between atoms: C_5  and  C_25
    3  A    between atoms: N_6  and  C_8
    4  A    between atoms: N_6  and  C_22
    5  A    between atoms: C_8  and  C_11
    6  A    between atoms: C_9  and  C_18
    7  A    between atoms: C_10  and  C_17
    8  A    between atoms: C_10  and  C_25
    9  A    between atoms: C_14  and  C_18
   10  A    between atoms: C_14  and  C_25
   11  A    between atoms: C_17  and  C_27
                            x       y       z     vdW  Elec       q    Type
                         _______ _______ _______ _____ _____    ______ ____

>  <TORSDO>
F 11

$$$$
=
 OpenBabel11052413363D

 28 29  0  0  1  0  0  0  0  0999 V2000
  183.9520  178.0780  140.9760 C   0  0  0  0  0  2  0  0  0  0  0  0
  182.8620  178.5830  138.7220 C   0  0  2  0  0  0  0  0  0  0  0  0
  183.3460  176.1010  138.5160 C   0  0  0  0  0  0  0  0  0  0  0  0
  183.9260  177.5510  137.6510 S   0  0  0  0  0  0  0  0  0  0  0  0
  183.4990  174.9840  138.0490 O   0  0  0  0  0  0  0  0  0  0  0  0
  182.6500  176.3220  139.8160 C   0  0  2  0  0  3  0  0  0  0  0  0
  181.4860  178.3600  140.8730 C   0  0  0  0  0  1  0  0  0  0  0  0
  181.2460  175.7240  139.7790 C   0  0  0  0  0  1  0  0  0  0  0  0
  183.5450  179.9370  138.8860 C   0  0  0  0  0  1  0  0  0  0  0  0
  182.7060  177.8420  140.0990 C   0  0  1  0  0  0  0  0  0  0  0  0
  181.5260  178.8910  138.0130 C   0  0  0  0  0  2  0  0  0  0  0  0
  181.2950  180.3560  137.6640 C   0  0  0  0  0  2  0  0  0  0  0  0
  180.7790  180.4770  136.3110 N   0  0  0  0  0  2  0  0  0  0  0  0
  180.6340  181.7300  135.7010 C   0  0  0  0  0  0  0  0  0  0  0  0
  180.5110  182.8080  135.1770 C   0  0  0  0  0  3  0  0  0  0  0  0
  183.6190  178.4030  142.4350 C   0  0  0  0  0  2  0  0  0  0  0  0
  184.8380  178.9080  143.2110 C   0  0  1  0  0  3  0  0  0  0  0  0
  184.4610  179.3650  144.6130 C   0  0  0  0  0  2  0  0  0  0  0  0
  183.1510  178.9820  144.9030 O   0  0  0  0  0  1  0  0  0  0  0  0
  185.9410  177.8580  143.2840 C   0  0  0  0  0  2  0  0  0  0  0  0
  186.4290  177.6490  144.7120 C   0  0  0  0  0  2  0  0  0  0  0  0
  190.1200  177.1180  145.6890 C   0  0  0  0  0  2  0  0  0  0  0  0
  187.8060  177.0060  144.7360 C   0  0  2  0  0  3  0  0  0  0  0  0
  189.7700  176.4450  143.3300 C   0  0  0  0  0  0  0  0  0  0  0  0
  188.7550  177.8020  145.6370 C   0  0  0  0  0  2  0  0  0  0  0  0
  188.3550  176.9390  143.3110 C   0  0  0  0  0  2  0  0  0  0  0  0
  190.1410  175.6090  142.5230 O   0  0  0  0  0  0  0  0  0  0  0  0
  190.7440  177.0490  144.2960 C   0  0  0  0  0  2  0  0  0  0  0  0
  1 16  1  0  0  0  0
  2  9  1  1  0  0  0
  2 10  1  0  0  0  0
  3  6  1  0  0  0  0
  4  3  1  0  0  0  0
  4  2  1  0  0  0  0
  5  3  2  0  0  0  0
  6  8  1  6  0  0  0
  6 10  1  0  0  0  0
 10  7  1  1  0  0  0
 10  1  1  0  0  0  0
 11  2  1  0  0  0  0
 12 11  1  0  0  0  0
 13 12  1  0  0  0  0
 14 13  1  0  0  0  0
 15 14  3  0  0  0  0
 17 16  1  1  0  0  0
 17 20  1  0  0  0  0
 17 18  1  0  0  0  0
 18 19  1  0  0  0  0
 20 21  1  0  0  0  0
 23 21  1  6  0  0  0
 23 25  1  0  0  0  0
 24 28  1  0  0  0  0
 25 22  1  0  0  0  0
 26 24  1  0  0  0  0
 26 23  1  0  0  0  0
 27 24  2  0  0  0  0
 28 22  1  0  0  0  0
M  END
>  <MODEL>
4

>  <REMARK>
 VINA RESULT:      -6.3      4.364      8.175
  Name = 
  11 active torsions:
  status: ('A' for Active; 'I' for Inactive)
    1  A    between atoms: C_1  and  C_11
    2  A    between atoms: C_5  and  C_25
    3  A    between atoms: N_6  and  C_8
    4  A    between atoms: N_6  and  C_22
    5  A    between atoms: C_8  and  C_11
    6  A    between atoms: C_9  and  C_18
    7  A    between atoms: C_10  and  C_17
    8  A    between atoms: C_10  and  C_25
    9  A    between atoms: C_14  and  C_18
   10  A    between atoms: C_14  and  C_25
   11  A    between atoms: C_17  and  C_27
                            x       y       z     vdW  Elec       q    Type
                         _______ _______ _______ _____ _____    ______ ____

>  <TORSDO>
F 11

$$$$
=
 OpenBabel11052413363D

 28 29  0  0  1  0  0  0  0  0999 V2000
  190.1170  177.3930  145.4520 C   0  0  0  0  0  2  0  0  0  0  0  0
  191.0730  176.7500  143.1730 C   0  0  2  0  0  0  0  0  0  0  0  0
  188.6030  176.9910  142.6460 C   0  0  0  0  0  0  0  0  0  0  0  0
  189.7470  175.6220  142.6130 S   0  0  0  0  0  0  0  0  0  0  0  0
  187.5280  176.9310  142.0710 O   0  0  0  0  0  0  0  0  0  0  0  0
  189.0320  178.2140  143.3850 C   0  0  2  0  0  3  0  0  0  0  0  0
  191.3250  179.1150  144.1300 C   0  0  0  0  0  1  0  0  0  0  0  0
  189.0190  179.4300  142.4610 C   0  0  0  0  0  1  0  0  0  0  0  0
  192.0550  175.9320  144.0050 C   0  0  0  0  0  1  0  0  0  0  0  0
  190.4050  177.8920  144.0210 C   0  0  1  0  0  0  0  0  0  0  0  0
  191.8920  177.2540  141.9660 C   0  0  0  0  0  2  0  0  0  0  0  0
  191.4230  176.7560  140.6050 C   0  0  0  0  0  2  0  0  0  0  0  0
  190.8270  177.8430  139.8480 N   0  0  0  0  0  2  0  0  0  0  0  0
  189.5830  177.6900  139.2190 C   0  0  0  0  0  0  0  0  0  0  0  0
  188.5150  177.5600  138.6780 C   0  0  0  0  0  3  0  0  0  0  0  0
  189.1110  178.2640  146.2110 C   0  0  0  0  0  2  0  0  0  0  0  0
  188.0610  177.4300  146.9490 C   0  0  1  0  0  3  0  0  0  0  0  0
  187.9140  177.8680  148.3990 C   0  0  0  0  0  2  0  0  0  0  0  0
  189.0370  178.5950  148.7930 O   0  0  0  0  0  1  0  0  0  0  0  0
  186.7060  177.4750  146.2520 C   0  0  0  0  0  2  0  0  0  0  0  0
  185.9540  178.7640  146.5600 C   0  0  0  0  0  2  0  0  0  0  0  0
  182.8170  179.1110  144.3460 C   0  0  0  0  0  2  0  0  0  0  0  0
  185.0960  179.1970  145.3820 C   0  0  2  0  0  3  0  0  0  0  0  0
  184.8430  179.0050  142.9220 C   0  0  0  0  0  0  0  0  0  0  0  0
  183.6800  178.6290  145.5110 C   0  0  0  0  0  2  0  0  0  0  0  0
  185.7460  178.7180  144.0840 C   0  0  0  0  0  2  0  0  0  0  0  0
  185.2960  179.4720  141.8910 O   0  0  0  0  0  0  0  0  0  0  0  0
  183.3930  178.6360  143.0130 C   0  0  0  0  0  2  0  0  0  0  0  0
  1 16  1  0  0  0  0
  2  9  1  1  0  0  0
  2 10  1  0  0  0  0
  3  6  1  0  0  0  0
  4  3  1  0  0  0  0
  4  2  1  0  0  0  0
  5  3  2  0  0  0  0
  6  8  1  6  0  0  0
  6 10  1  0  0  0  0
 10  7  1  1  0  0  0
 10  1  1  0  0  0  0
 11  2  1  0  0  0  0
 12 11  1  0  0  0  0
 13 12  1  0  0  0  0
 14 13  1  0  0  0  0
 15 14  3  0  0  0  0
 17 16  1  6  0  0  0
 17 18  1  0  0  0  0
 18 19  1  0  0  0  0
 20 21  1  0  0  0  0
 20 17  1  0  0  0  0
 22 25  1  0  0  0  0
 23 25  1  0  0  0  0
 23 21  1  1  0  0  0
 24 28  1  0  0  0  0
 24 26  1  0  0  0  0
 26 23  1  0  0  0  0
 27 24  2  0  0  0  0
 28 22  1  0  0  0  0
M  END
>  <MODEL>
5

>  <REMARK>
 VINA RESULT:      -6.2      1.740      2.629
  Name = 
  11 active torsions:
  status: ('A' for Active; 'I' for Inactive)
    1  A    between atoms: C_1  and  C_11
    2  A    between atoms: C_5  and  C_25
    3  A    between atoms: N_6  and  C_8
    4  A    between atoms: N_6  and  C_22
    5  A    between atoms: C_8  and  C_11
    6  A    between atoms: C_9  and  C_18
    7  A    between atoms: C_10  and  C_17
    8  A    between atoms: C_10  and  C_25
    9  A    between atoms: C_14  and  C_18
   10  A    between atoms: C_14  and  C_25
   11  A    between atoms: C_17  and  C_27
                            x       y       z     vdW  Elec       q    Type
                         _______ _______ _______ _____ _____    ______ ____

>  <TORSDO>
F 11

$$$$
=
 OpenBabel11052413363D

 28 29  0  0  1  0  0  0  0  0999 V2000
  188.3150  177.3010  139.2500 C   0  0  0  0  0  2  0  0  0  0  0  0
  189.6190  176.4040  137.2470 C   0  0  2  0  0  0  0  0  0  0  0  0
  187.2510  175.6920  136.6800 C   0  0  0  0  0  0  0  0  0  0  0  0
  188.7580  174.8050  137.0360 S   0  0  0  0  0  0  0  0  0  0  0  0
  186.3010  175.1380  136.1490 O   0  0  0  0  0  0  0  0  0  0  0  0
  187.2170  177.1390  137.0380 C   0  0  2  0  0  3  0  0  0  0  0  0
  189.0490  178.8910  137.4880 C   0  0  0  0  0  1  0  0  0  0  0  0
  186.9140  177.9880  135.8060 C   0  0  0  0  0  1  0  0  0  0  0  0
  190.7280  176.2000  138.2740 C   0  0  0  0  0  1  0  0  0  0  0  0
  188.5610  177.4570  137.7360 C   0  0  1  0  0  0  0  0  0  0  0  0
  190.3470  176.7950  135.9430 C   0  0  0  0  0  2  0  0  0  0  0  0
  190.7290  175.6340  135.0340 C   0  0  0  0  0  2  0  0  0  0  0  0
  192.1070  175.7690  134.5940 N   0  0  0  0  0  2  0  0  0  0  0  0
  193.1590  175.8290  135.5180 C   0  0  0  0  0  0  0  0  0  0  0  0
  194.0630  175.8810  136.3130 C   0  0  0  0  0  3  0  0  0  0  0  0
  188.6200  178.5700  140.0520 C   0  0  0  0  0  2  0  0  0  0  0  0
  187.9120  178.5840  141.4090 C   0  0  1  0  0  3  0  0  0  0  0  0
  186.4010  178.4880  141.2540 C   0  0  0  0  0  2  0  0  0  0  0  0
  185.7980  179.6570  141.7170 O   0  0  0  0  0  1  0  0  0  0  0  0
  188.4140  177.4750  142.3260 C   0  0  0  0  0  2  0  0  0  0  0  0
  187.3540  177.0560  143.3380 C   0  0  0  0  0  2  0  0  0  0  0  0
  188.7810  177.8910  146.8210 C   0  0  0  0  0  2  0  0  0  0  0  0
  187.5260  177.7960  144.6550 C   0  0  2  0  0  3  0  0  0  0  0  0
  186.3640  178.4350  146.7500 C   0  0  0  0  0  0  0  0  0  0  0  0
  188.5850  177.1100  145.5220 C   0  0  0  0  0  2  0  0  0  0  0  0
  186.1850  177.8410  145.3860 C   0  0  0  0  0  2  0  0  0  0  0  0
  185.5700  179.2590  147.1720 O   0  0  0  0  0  0  0  0  0  0  0  0
  187.4810  177.9440  147.6210 C   0  0  0  0  0  2  0  0  0  0  0  0
  1 16  1  0  0  0  0
  2 10  1  0  0  0  0
  2  9  1  1  0  0  0
  3  4  1  0  0  0  0
  3  6  1  0  0  0  0
  4  2  1  0  0  0  0
  5  3  2  0  0  0  0
  6  8  1  6  0  0  0
  6 10  1  0  0  0  0
 10  7  1  6  0  0  0
 10  1  1  0  0  0  0
 11  2  1  0  0  0  0
 12 11  1  0  0  0  0
 13 12  1  0  0  0  0
 13 14  1  0  0  0  0
 14 15  3  0  0  0  0
 17 16  1  6  0  0  0
 17 20  1  0  0  0  0
 18 17  1  0  0  0  0
 18 19  1  0  0  0  0
 20 21  1  0  0  0  0
 22 28  1  0  0  0  0
 23 21  1  6  0  0  0
 23 26  1  0  0  0  0
 23 25  1  0  0  0  0
 24 27  2  0  0  0  0
 24 28  1  0  0  0  0
 25 22  1  0  0  0  0
 26 24  1  0  0  0  0
M  END
>  <MODEL>
6

>  <REMARK>
 VINA RESULT:      -6.2      3.122      6.267
  Name = 
  11 active torsions:
  status: ('A' for Active; 'I' for Inactive)
    1  A    between atoms: C_1  and  C_11
    2  A    between atoms: C_5  and  C_25
    3  A    between atoms: N_6  and  C_8
    4  A    between atoms: N_6  and  C_22
    5  A    between atoms: C_8  and  C_11
    6  A    between atoms: C_9  and  C_18
    7  A    between atoms: C_10  and  C_17
    8  A    between atoms: C_10  and  C_25
    9  A    between atoms: C_14  and  C_18
   10  A    between atoms: C_14  and  C_25
   11  A    between atoms: C_17  and  C_27
                            x       y       z     vdW  Elec       q    Type
                         _______ _______ _______ _____ _____    ______ ____

>  <TORSDO>
F 11

$$$$
=
 OpenBabel11052413363D

 28 29  0  0  1  0  0  0  0  0999 V2000
  183.0420  178.8930  141.8830 C   0  0  0  0  0  2  0  0  0  0  0  0
  180.8470  178.3990  140.6760 C   0  0  2  0  0  0  0  0  0  0  0  0
  181.8550  180.1950  139.1960 C   0  0  0  0  0  0  0  0  0  0  0  0
  180.3870  180.1040  140.2060 S   0  0  0  0  0  0  0  0  0  0  0  0
  181.9840  181.0590  138.3420 O   0  0  0  0  0  0  0  0  0  0  0  0
  182.9000  179.1570  139.4270 C   0  0  2  0  0  3  0  0  0  0  0  0
  182.8650  176.8260  140.5180 C   0  0  0  0  0  1  0  0  0  0  0  0
  183.1850  178.3880  138.1390 C   0  0  0  0  0  1  0  0  0  0  0  0
  180.3230  178.1500  142.0860 C   0  0  0  0  0  1  0  0  0  0  0  0
  182.4130  178.2900  140.6110 C   0  0  1  0  0  0  0  0  0  0  0  0
  180.1030  177.3800  139.7870 C   0  0  0  0  0  2  0  0  0  0  0  0
  179.2050  176.3980  140.5290 C   0  0  0  0  0  2  0  0  0  0  0  0
  179.2470  175.0940  139.8900 N   0  0  0  0  0  2  0  0  0  0  0  0
  180.2150  174.7930  138.9220 C   0  0  0  0  0  0  0  0  0  0  0  0
  181.0480  174.5350  138.0900 C   0  0  0  0  0  3  0  0  0  0  0  0
  184.4600  178.3870  142.1630 C   0  0  0  0  0  2  0  0  0  0  0  0
  185.0140  178.9130  143.4890 C   0  0  1  0  0  3  0  0  0  0  0  0
  183.9650  179.6980  144.2630 C   0  0  0  0  0  2  0  0  0  0  0  0
  183.6810  179.0540  145.4680 O   0  0  0  0  0  1  0  0  0  0  0  0
  185.5730  177.7920  144.3580 C   0  0  0  0  0  2  0  0  0  0  0  0
  187.0530  177.5500  144.0850 C   0  0  0  0  0  2  0  0  0  0  0  0
  187.9330  177.5130  147.8380 C   0  0  0  0  0  2  0  0  0  0  0  0
  187.7950  177.1790  145.3590 C   0  0  2  0  0  3  0  0  0  0  0  0
  190.0000  177.2940  146.4880 C   0  0  0  0  0  0  0  0  0  0  0  0
  187.2090  177.9300  146.5590 C   0  0  0  0  0  2  0  0  0  0  0  0
  189.2770  177.5120  145.1930 C   0  0  0  0  0  2  0  0  0  0  0  0
  191.0790  176.7270  146.5020 O   0  0  0  0  0  0  0  0  0  0  0  0
  189.4200  177.8510  147.7530 C   0  0  0  0  0  2  0  0  0  0  0  0
  1 16  1  0  0  0  0
  2  9  1  1  0  0  0
  3  6  1  0  0  0  0
  3  4  1  0  0  0  0
  4  2  1  0  0  0  0
  5  3  2  0  0  0  0
  6  8  1  6  0  0  0
  6 10  1  0  0  0  0
 10  7  1  6  0  0  0
 10  2  1  0  0  0  0
 10  1  1  0  0  0  0
 11 12  1  0  0  0  0
 11  2  1  0  0  0  0
 13 12  1  0  0  0  0
 14 13  1  0  0  0  0
 15 14  3  0  0  0  0
 17 16  1  6  0  0  0
 17 18  1  0  0  0  0
 17 20  1  0  0  0  0
 18 19  1  0  0  0  0
 21 20  1  0  0  0  0
 23 21  1  6  0  0  0
 23 25  1  0  0  0  0
 24 27  2  0  0  0  0
 24 28  1  0  0  0  0
 25 22  1  0  0  0  0
 26 23  1  0  0  0  0
 26 24  1  0  0  0  0
 28 22  1  0  0  0  0
M  END
>  <MODEL>
7

>  <REMARK>
 VINA RESULT:      -6.1      4.283      8.378
  Name = 
  11 active torsions:
  status: ('A' for Active; 'I' for Inactive)
    1  A    between atoms: C_1  and  C_11
    2  A    between atoms: C_5  and  C_25
    3  A    between atoms: N_6  and  C_8
    4  A    between atoms: N_6  and  C_22
    5  A    between atoms: C_8  and  C_11
    6  A    between atoms: C_9  and  C_18
    7  A    between atoms: C_10  and  C_17
    8  A    between atoms: C_10  and  C_25
    9  A    between atoms: C_14  and  C_18
   10  A    between atoms: C_14  and  C_25
   11  A    between atoms: C_17  and  C_27
                            x       y       z     vdW  Elec       q    Type
                         _______ _______ _______ _____ _____    ______ ____

>  <TORSDO>
F 11

$$$$
=
 OpenBabel11052413363D

 28 29  0  0  1  0  0  0  0  0999 V2000
  183.8650  178.0900  141.0490 C   0  0  0  0  0  2  0  0  0  0  0  0
  182.6750  178.7150  138.8780 C   0  0  2  0  0  0  0  0  0  0  0  0
  183.1600  176.2520  138.5090 C   0  0  0  0  0  0  0  0  0  0  0  0
  183.6940  177.7530  137.7040 S   0  0  0  0  0  0  0  0  0  0  0  0
  183.2960  175.1640  137.9730 O   0  0  0  0  0  0  0  0  0  0  0  0
  182.5200  176.3940  139.8490 C   0  0  2  0  0  3  0  0  0  0  0  0
  181.3950  178.3610  141.0710 C   0  0  0  0  0  1  0  0  0  0  0  0
  181.1190  175.7900  139.8400 C   0  0  0  0  0  1  0  0  0  0  0  0
  183.3580  180.0620  139.0880 C   0  0  0  0  0  1  0  0  0  0  0  0
  182.5820  177.8960  140.2160 C   0  0  1  0  0  0  0  0  0  0  0  0
  181.3080  179.0540  138.2460 C   0  0  0  0  0  2  0  0  0  0  0  0
  181.3560  179.5260  136.7990 C   0  0  0  0  0  2  0  0  0  0  0  0
  180.3890  180.5890  136.5820 N   0  0  0  0  0  2  0  0  0  0  0  0
  180.6370  181.8950  137.0270 C   0  0  0  0  0  0  0  0  0  0  0  0
  180.8490  183.0170  137.4110 C   0  0  0  0  0  3  0  0  0  0  0  0
  183.5990  178.5980  142.4700 C   0  0  0  0  0  2  0  0  0  0  0  0
  184.8470  179.2070  143.1130 C   0  0  1  0  0  3  0  0  0  0  0  0
  184.5750  179.6680  144.5380 C   0  0  0  0  0  2  0  0  0  0  0  0
  183.4300  179.0430  145.0310 O   0  0  0  0  0  1  0  0  0  0  0  0
  186.0260  178.2420  143.0930 C   0  0  0  0  0  2  0  0  0  0  0  0
  186.1740  177.5020  144.4170 C   0  0  0  0  0  2  0  0  0  0  0  0
  189.9660  177.4630  145.1120 C   0  0  0  0  0  2  0  0  0  0  0  0
  187.4900  177.8440  145.0970 C   0  0  2  0  0  3  0  0  0  0  0  0
  188.7230  177.6970  147.2440 C   0  0  0  0  0  0  0  0  0  0  0  0
  188.6440  177.0740  144.4510 C   0  0  0  0  0  2  0  0  0  0  0  0
  187.3900  177.5070  146.5850 C   0  0  0  0  0  2  0  0  0  0  0  0
  188.8010  178.2580  148.3240 O   0  0  0  0  0  0  0  0  0  0  0  0
  189.9470  177.1190  146.6000 C   0  0  0  0  0  2  0  0  0  0  0  0
  1 16  1  0  0  0  0
  2  9  1  1  0  0  0
  2 10  1  0  0  0  0
  3  6  1  0  0  0  0
  4  3  1  0  0  0  0
  4  2  1  0  0  0  0
  5  3  2  0  0  0  0
  6  8  1  6  0  0  0
  6 10  1  0  0  0  0
 10  1  1  0  0  0  0
 10  7  1  1  0  0  0
 11  2  1  0  0  0  0
 12 11  1  0  0  0  0
 13 12  1  0  0  0  0
 13 14  1  0  0  0  0
 14 15  3  0  0  0  0
 17 16  1  1  0  0  0
 17 18  1  0  0  0  0
 18 19  1  0  0  0  0
 20 17  1  0  0  0  0
 20 21  1  0  0  0  0
 22 28  1  0  0  0  0
 23 21  1  6  0  0  0
 23 26  1  0  0  0  0
 24 27  2  0  0  0  0
 25 23  1  0  0  0  0
 25 22  1  0  0  0  0
 26 24  1  0  0  0  0
 28 24  1  0  0  0  0
M  END
>  <MODEL>
8

>  <REMARK>
 VINA RESULT:      -6.1      4.174      8.263
  Name = 
  11 active torsions:
  status: ('A' for Active; 'I' for Inactive)
    1  A    between atoms: C_1  and  C_11
    2  A    between atoms: C_5  and  C_25
    3  A    between atoms: N_6  and  C_8
    4  A    between atoms: N_6  and  C_22
    5  A    between atoms: C_8  and  C_11
    6  A    between atoms: C_9  and  C_18
    7  A    between atoms: C_10  and  C_17
    8  A    between atoms: C_10  and  C_25
    9  A    between atoms: C_14  and  C_18
   10  A    between atoms: C_14  and  C_25
   11  A    between atoms: C_17  and  C_27
                            x       y       z     vdW  Elec       q    Type
                         _______ _______ _______ _____ _____    ______ ____

>  <TORSDO>
F 11

$$$$
=
 OpenBabel11052413363D

 28 29  0  0  1  0  0  0  0  0999 V2000
  183.3580  177.7400  141.0870 C   0  0  0  0  0  2  0  0  0  0  0  0
  181.8190  177.1960  139.1230 C   0  0  2  0  0  0  0  0  0  0  0  0
  180.1550  177.4820  141.0170 C   0  0  0  0  0  0  0  0  0  0  0  0
  180.6290  176.1060  139.9840 S   0  0  0  0  0  0  0  0  0  0  0  0
  179.1230  177.4570  141.6690 O   0  0  0  0  0  0  0  0  0  0  0  0
  181.0630  178.6650  141.0270 C   0  0  2  0  0  3  0  0  0  0  0  0
  182.8800  179.5110  139.4110 C   0  0  0  0  0  1  0  0  0  0  0  0
  180.3080  179.9220  140.6020 C   0  0  0  0  0  1  0  0  0  0  0  0
  182.9890  176.3320  138.6640 C   0  0  0  0  0  1  0  0  0  0  0  0
  182.2780  178.3020  140.1400 C   0  0  1  0  0  0  0  0  0  0  0  0
  181.1950  177.7480  137.8240 C   0  0  0  0  0  2  0  0  0  0  0  0
  181.9930  177.4870  136.5530 C   0  0  0  0  0  2  0  0  0  0  0  0
  181.4670  178.2780  135.4550 N   0  0  0  0  0  2  0  0  0  0  0  0
  180.9930  179.5810  135.6630 C   0  0  0  0  0  0  0  0  0  0  0  0
  180.5870  180.7010  135.8420 C   0  0  0  0  0  3  0  0  0  0  0  0
  184.1910  178.8250  141.7750 C   0  0  0  0  0  2  0  0  0  0  0  0
  185.4740  178.2680  142.3940 C   0  0  1  0  0  3  0  0  0  0  0  0
  186.7090  178.7110  141.6220 C   0  0  0  0  0  2  0  0  0  0  0  0
  186.4290  178.7480  140.2560 O   0  0  0  0  0  1  0  0  0  0  0  0
  185.6120  178.6520  143.8630 C   0  0  0  0  0  2  0  0  0  0  0  0
  186.1480  177.4990  144.7020 C   0  0  0  0  0  2  0  0  0  0  0  0
  189.9450  177.5310  145.3670 C   0  0  0  0  0  2  0  0  0  0  0  0
  187.4620  177.8670  145.3710 C   0  0  2  0  0  3  0  0  0  0  0  0
  188.7150  177.7470  147.5080 C   0  0  0  0  0  0  0  0  0  0  0  0
  188.6260  177.1160  144.7160 C   0  0  0  0  0  2  0  0  0  0  0  0
  187.3810  177.5310  146.8590 C   0  0  0  0  0  2  0  0  0  0  0  0
  188.7910  178.3110  148.5860 O   0  0  0  0  0  0  0  0  0  0  0  0
  189.9440  177.1900  146.8560 C   0  0  0  0  0  2  0  0  0  0  0  0
  1 16  1  0  0  0  0
  2  9  1  6  0  0  0
  2  4  1  0  0  0  0
  2 10  1  0  0  0  0
  3  6  1  0  0  0  0
  3  5  2  0  0  0  0
  4  3  1  0  0  0  0
  6  8  1  6  0  0  0
 10  7  1  6  0  0  0
 10  6  1  0  0  0  0
 10  1  1  0  0  0  0
 11  2  1  0  0  0  0
 12 11  1  0  0  0  0
 13 14  1  0  0  0  0
 13 12  1  0  0  0  0
 14 15  3  0  0  0  0
 16 17  1  0  0  0  0
 17 18  1  6  0  0  0
 17 20  1  0  0  0  0
 19 18  1  0  0  0  0
 20 21  1  0  0  0  0
 22 28  1  0  0  0  0
 23 21  1  6  0  0  0
 23 26  1  0  0  0  0
 24 27  2  0  0  0  0
 25 22  1  0  0  0  0
 25 23  1  0  0  0  0
 26 24  1  0  0  0  0
 28 24  1  0  0  0  0
M  END
>  <MODEL>
9

>  <REMARK>
 VINA RESULT:      -6.0      4.245      8.643
  Name = 
  11 active torsions:
  status: ('A' for Active; 'I' for Inactive)
    1  A    between atoms: C_1  and  C_11
    2  A    between atoms: C_5  and  C_25
    3  A    between atoms: N_6  and  C_8
    4  A    between atoms: N_6  and  C_22
    5  A    between atoms: C_8  and  C_11
    6  A    between atoms: C_9  and  C_18
    7  A    between atoms: C_10  and  C_17
    8  A    between atoms: C_10  and  C_25
    9  A    between atoms: C_14  and  C_18
   10  A    between atoms: C_14  and  C_25
   11  A    between atoms: C_17  and  C_27
                            x       y       z     vdW  Elec       q    Type
                         _______ _______ _______ _____ _____    ______ ____

>  <TORSDO>
F 11

$$$$
