=
 OpenBabel11052413563D

 34 40  0  0  1  0  0  0  0  0999 V2000
  184.9830  178.3640  143.4590 C   0  0  0  0  0  0  0  0  0  0  0  0
  185.3280  178.6090  141.0540 C   0  0  0  0  0  0  0  0  0  0  0  0
  187.1950  178.0690  142.5130 C   0  0  0  0  0  0  0  0  0  0  0  0
  189.3280  177.7770  141.4510 C   0  0  0  0  0  0  0  0  0  0  0  0
  183.1460  178.8990  142.0470 C   0  0  0  0  0  3  0  0  0  0  0  0
  183.9680  178.8880  140.9100 C   0  0  0  0  0  3  0  0  0  0  0  0
  187.4940  178.2950  140.1380 C   0  0  0  0  0  0  0  0  0  0  0  0
  185.8360  178.3480  142.3480 C   0  0  0  0  0  0  0  0  0  0  0  0
  190.1310  177.8200  139.8540 S   0  0  0  0  0  0  0  0  0  0  0  0
  183.6620  178.6390  143.2840 N   0  0  0  0  0  0  0  0  0  0  0  0
  187.7500  177.8060  143.7820 C   0  0  0  0  0  0  0  0  0  0  0  0
  185.5070  178.0920  144.7300 C   0  0  0  0  0  3  0  0  0  0  0  0
  186.1670  178.5800  139.9720 N   0  0  0  0  0  0  0  0  0  0  0  0
  189.9280  177.5080  142.6860 C   0  0  0  0  0  3  0  0  0  0  0  0
  189.1510  177.5230  143.8760 C   0  0  0  0  0  0  0  0  0  0  0  0
  188.5100  178.2250  139.0440 C   0  0  1  0  0  3  0  0  0  0  0  0
  187.9980  178.0480  141.3870 C   0  0  0  0  0  0  0  0  0  0  0  0
  186.8770  177.8130  144.8890 C   0  0  0  0  0  3  0  0  0  0  0  0
  189.9710  177.4010  147.5920 C   0  0  0  0  0  0  0  0  0  0  0  0
  191.2050  176.7490  147.5760 C   0  0  0  0  0  3  0  0  0  0  0  0
  189.8430  177.2430  145.1640 C   0  0  0  0  0  0  0  0  0  0  0  0
  191.7670  176.3480  146.3630 C   0  0  0  0  0  3  0  0  0  0  0  0
  189.2970  177.6500  146.3940 C   0  0  0  0  0  3  0  0  0  0  0  0
  191.0910  176.5960  145.1640 C   0  0  0  0  0  3  0  0  0  0  0  0
  189.4280  177.7950  148.7690 F   0  0  0  0  0  0  0  0  0  0  0  0
  188.1360  177.1280  138.0620 C   0  0  0  0  0  2  0  0  0  0  0  0
  189.1300  177.0530  137.0030 N   0  0  0  0  0  2  0  0  0  0  0  0
  190.4910  176.6250  134.5940 F   0  0  0  0  0  0  0  0  0  0  0  0
  189.9210  175.8850  136.7750 C   0  0  0  0  0  0  0  0  0  0  0  0
  190.9550  175.9020  135.6790 C   0  0  1  0  0  3  0  0  0  0  0  0
  191.6810  173.6520  136.4370 C   0  0  0  0  0  2  0  0  0  0  0  0
  190.5850  173.6950  137.3980 N   0  0  0  0  0  2  0  0  0  0  0  0
  189.7990  174.8500  137.5580 N   0  0  0  0  0  0  0  0  0  0  0  0
  191.3120  174.4900  135.2250 C   0  0  0  0  0  2  0  0  0  0  0  0
  1 12  1  0  0  0  0
  2  8  1  0  0  0  0
  3 11  2  0  0  0  0
  4 14  1  0  0  0  0
  5 10  2  0  0  0  0
  6  2  2  0  0  0  0
  6  5  1  0  0  0  0
  7 17  1  0  0  0  0
  8  3  1  0  0  0  0
  8  1  2  0  0  0  0
  9  4  1  0  0  0  0
 10  1  1  0  0  0  0
 11 15  1  0  0  0  0
 11 18  1  0  0  0  0
 12 18  2  0  0  0  0
 13  7  2  0  0  0  0
 13  2  1  0  0  0  0
 14 15  2  0  0  0  0
 15 21  1  0  0  0  0
 16 26  1  6  0  0  0
 16  9  1  0  0  0  0
 16  7  1  0  0  0  0
 17  4  2  0  0  0  0
 17  3  1  0  0  0  0
 19 25  1  0  0  0  0
 20 19  1  0  0  0  0
 21 23  1  0  0  0  0
 22 20  2  0  0  0  0
 23 19  2  0  0  0  0
 24 21  2  0  0  0  0
 24 22  1  0  0  0  0
 27 26  1  0  0  0  0
 29 27  1  0  0  0  0
 29 33  2  0  0  0  0
 30 28  1  6  0  0  0
 30 29  1  0  0  0  0
 31 32  1  0  0  0  0
 32 33  1  0  0  0  0
 34 30  1  0  0  0  0
 34 31  1  0  0  0  0
M  END
>  <MODEL>
1

>  <REMARK>
 VINA RESULT:     -11.2      0.000      0.000
  Name = 
  3 active torsions:
  status: ('A' for Active; 'I' for Inactive)
    1  A    between atoms: N_3  and  C_17
    2  A    between atoms: C_12  and  C_28
    3  A    between atoms: C_17  and  C_29
                            x       y       z     vdW  Elec       q    Type
                         _______ _______ _______ _____ _____    ______ ____

>  <TORSDO>
F 3

$$$$
=
 OpenBabel11052413563D

 34 40  0  0  1  0  0  0  0  0999 V2000
  189.4550  177.1850  146.6360 C   0  0  0  0  0  0  0  0  0  0  0  0
  191.1270  176.5700  144.9670 C   0  0  0  0  0  0  0  0  0  0  0  0
  188.8890  177.2220  144.2800 C   0  0  0  0  0  0  0  0  0  0  0  0
  188.4620  177.2430  141.9180 C   0  0  0  0  0  0  0  0  0  0  0  0
  191.6390  176.5440  147.3260 C   0  0  0  0  0  3  0  0  0  0  0  0
  192.0410  176.3440  145.9970 C   0  0  0  0  0  3  0  0  0  0  0  0
  190.5680  176.6330  142.6620 C   0  0  0  0  0  0  0  0  0  0  0  0
  189.8190  176.9920  145.2970 C   0  0  0  0  0  0  0  0  0  0  0  0
  189.2360  176.9240  140.3370 S   0  0  0  0  0  0  0  0  0  0  0  0
  190.3690  176.9560  147.6170 N   0  0  0  0  0  0  0  0  0  0  0  0
  187.5720  177.6400  144.5580 C   0  0  0  0  0  0  0  0  0  0  0  0
  188.1560  177.6130  146.9400 C   0  0  0  0  0  3  0  0  0  0  0  0
  191.4770  176.3950  143.6540 N   0  0  0  0  0  0  0  0  0  0  0  0
  187.1450  177.6600  142.1400 C   0  0  0  0  0  3  0  0  0  0  0  0
  186.6740  177.8610  143.4650 C   0  0  0  0  0  0  0  0  0  0  0  0
  190.8230  176.4880  141.1960 C   0  0  1  0  0  3  0  0  0  0  0  0
  189.2950  177.0350  142.9710 C   0  0  0  0  0  0  0  0  0  0  0  0
  187.2240  177.8420  145.9100 C   0  0  0  0  0  3  0  0  0  0  0  0
  183.0650  178.8320  142.7330 C   0  0  0  0  0  0  0  0  0  0  0  0
  182.6080  179.1620  144.0110 C   0  0  0  0  0  3  0  0  0  0  0  0
  185.2590  178.2910  143.6440 C   0  0  0  0  0  0  0  0  0  0  0  0
  183.4700  179.0670  145.1050 C   0  0  0  0  0  3  0  0  0  0  0  0
  184.3830  178.4030  142.5510 C   0  0  0  0  0  3  0  0  0  0  0  0
  184.7870  178.6370  144.9220 C   0  0  0  0  0  3  0  0  0  0  0  0
  182.2320  178.9280  141.6690 F   0  0  0  0  0  0  0  0  0  0  0  0
  191.9210  177.4460  140.7670 C   0  0  0  0  0  2  0  0  0  0  0  0
  192.0980  177.3810  139.3250 N   0  0  0  0  0  2  0  0  0  0  0  0
  192.0060  176.6800  136.6160 F   0  0  0  0  0  0  0  0  0  0  0  0
  193.1150  176.5860  138.7120 C   0  0  0  0  0  0  0  0  0  0  0  0
  193.2530  176.6030  137.2110 C   0  0  1  0  0  3  0  0  0  0  0  0
  195.2810  175.1920  137.4620 C   0  0  0  0  0  2  0  0  0  0  0  0
  194.9990  175.1570  138.8920 N   0  0  0  0  0  2  0  0  0  0  0  0
  193.9570  175.9200  139.4490 N   0  0  0  0  0  0  0  0  0  0  0  0
  193.9760  175.3590  136.7030 C   0  0  0  0  0  2  0  0  0  0  0  0
  1 12  1  0  0  0  0
  1 10  1  0  0  0  0
  2  8  1  0  0  0  0
  2  6  2  0  0  0  0
  3 11  1  0  0  0  0
  3  8  1  0  0  0  0
  4 14  2  0  0  0  0
  4 17  1  0  0  0  0
  5 10  2  0  0  0  0
  6  5  1  0  0  0  0
  7 17  1  0  0  0  0
  7 13  2  0  0  0  0
  8  1  2  0  0  0  0
  9 16  1  0  0  0  0
  9  4  1  0  0  0  0
 11 18  1  0  0  0  0
 13  2  1  0  0  0  0
 14 15  1  0  0  0  0
 15 21  1  0  0  0  0
 15 11  2  0  0  0  0
 16 26  1  6  0  0  0
 16  7  1  0  0  0  0
 17  3  2  0  0  0  0
 18 12  2  0  0  0  0
 19 20  1  0  0  0  0
 20 22  2  0  0  0  0
 21 24  2  0  0  0  0
 23 19  2  0  0  0  0
 23 21  1  0  0  0  0
 24 22  1  0  0  0  0
 25 19  1  0  0  0  0
 27 26  1  0  0  0  0
 29 27  1  0  0  0  0
 29 33  2  0  0  0  0
 30 28  1  6  0  0  0
 30 29  1  0  0  0  0
 31 32  1  0  0  0  0
 32 33  1  0  0  0  0
 34 30  1  0  0  0  0
 34 31  1  0  0  0  0
M  END
>  <MODEL>
2

>  <REMARK>
 VINA RESULT:     -11.0      3.249      5.674
  Name = 
  3 active torsions:
  status: ('A' for Active; 'I' for Inactive)
    1  A    between atoms: N_3  and  C_17
    2  A    between atoms: C_12  and  C_28
    3  A    between atoms: C_17  and  C_29
                            x       y       z     vdW  Elec       q    Type
                         _______ _______ _______ _____ _____    ______ ____

>  <TORSDO>
F 3

$$$$
=
 OpenBabel11052413563D

 34 40  0  0  1  0  0  0  0  0999 V2000
  185.3980  178.4530  142.8010 C   0  0  0  0  0  0  0  0  0  0  0  0
  186.0380  178.5380  140.4460 C   0  0  0  0  0  0  0  0  0  0  0  0
  187.6840  177.9840  142.1450 C   0  0  0  0  0  0  0  0  0  0  0  0
  189.9050  177.5150  141.3650 C   0  0  0  0  0  0  0  0  0  0  0  0
  183.7760  179.0030  141.1510 C   0  0  0  0  0  3  0  0  0  0  0  0
  184.7230  178.8810  140.1240 C   0  0  0  0  0  3  0  0  0  0  0  0
  188.2730  178.0540  139.8150 C   0  0  0  0  0  0  0  0  0  0  0  0
  186.3730  178.3260  141.8030 C   0  0  0  0  0  0  0  0  0  0  0  0
  190.8910  177.4210  139.8760 S   0  0  0  0  0  0  0  0  0  0  0  0
  184.1260  178.7880  142.4540 N   0  0  0  0  0  0  0  0  0  0  0  0
  188.0690  177.7660  143.4830 C   0  0  0  0  0  0  0  0  0  0  0  0
  185.7510  178.2280  144.1380 C   0  0  0  0  0  3  0  0  0  0  0  0
  186.9950  178.4010  139.4750 N   0  0  0  0  0  0  0  0  0  0  0  0
  190.3380  177.2870  142.6760 C   0  0  0  0  0  3  0  0  0  0  0  0
  189.4290  177.4130  143.7600 C   0  0  0  0  0  0  0  0  0  0  0  0
  189.4050  177.8650  138.8560 C   0  0  1  0  0  3  0  0  0  0  0  0
  188.6110  177.8540  141.1270 C   0  0  0  0  0  0  0  0  0  0  0  0
  187.0740  177.8850  144.4760 C   0  0  0  0  0  3  0  0  0  0  0  0
  189.7450  177.3780  147.5550 C   0  0  0  0  0  0  0  0  0  0  0  0
  190.9820  176.7520  147.7190 C   0  0  0  0  0  3  0  0  0  0  0  0
  189.9470  177.1720  145.1360 C   0  0  0  0  0  0  0  0  0  0  0  0
  191.7080  176.3410  146.6000 C   0  0  0  0  0  3  0  0  0  0  0  0
  189.2330  177.5900  146.2720 C   0  0  0  0  0  3  0  0  0  0  0  0
  191.1960  176.5520  145.3170 C   0  0  0  0  0  3  0  0  0  0  0  0
  189.0400  177.7820  148.6390 F   0  0  0  0  0  0  0  0  0  0  0  0
  189.0820  176.7350  137.8950 C   0  0  0  0  0  2  0  0  0  0  0  0
  188.4170  177.2650  136.7140 N   0  0  0  0  0  2  0  0  0  0  0  0
  186.8110  178.7070  134.9320 F   0  0  0  0  0  0  0  0  0  0  0  0
  187.1580  176.7690  136.2570 C   0  0  0  0  0  0  0  0  0  0  0  0
  186.5530  177.3500  135.0040 C   0  0  1  0  0  3  0  0  0  0  0  0
  184.7540  175.6480  135.1790 C   0  0  0  0  0  2  0  0  0  0  0  0
  185.3640  175.2280  136.4340 N   0  0  0  0  0  2  0  0  0  0  0  0
  186.5830  175.7760  136.8730 N   0  0  0  0  0  0  0  0  0  0  0  0
  185.0460  177.1210  134.9530 C   0  0  0  0  0  2  0  0  0  0  0  0
  1 12  1  0  0  0  0
  2  8  1  0  0  0  0
  3 11  2  0  0  0  0
  4 14  1  0  0  0  0
  5 10  2  0  0  0  0
  6  2  2  0  0  0  0
  6  5  1  0  0  0  0
  7 17  1  0  0  0  0
  8  3  1  0  0  0  0
  8  1  2  0  0  0  0
  9  4  1  0  0  0  0
 10  1  1  0  0  0  0
 11 15  1  0  0  0  0
 11 18  1  0  0  0  0
 12 18  2  0  0  0  0
 13  7  2  0  0  0  0
 13  2  1  0  0  0  0
 14 15  2  0  0  0  0
 15 21  1  0  0  0  0
 16 26  1  6  0  0  0
 16  7  1  0  0  0  0
 16  9  1  0  0  0  0
 17  4  2  0  0  0  0
 17  3  1  0  0  0  0
 19 20  1  0  0  0  0
 19 25  1  0  0  0  0
 21 24  2  0  0  0  0
 21 23  1  0  0  0  0
 22 20  2  0  0  0  0
 23 19  2  0  0  0  0
 24 22  1  0  0  0  0
 27 26  1  0  0  0  0
 29 27  1  0  0  0  0
 29 33  2  0  0  0  0
 30 28  1  1  0  0  0
 30 29  1  0  0  0  0
 31 32  1  0  0  0  0
 32 33  1  0  0  0  0
 34 30  1  0  0  0  0
 34 31  1  0  0  0  0
M  END
>  <MODEL>
3

>  <REMARK>
 VINA RESULT:     -10.9      1.826      2.450
  Name = 
  3 active torsions:
  status: ('A' for Active; 'I' for Inactive)
    1  A    between atoms: N_3  and  C_17
    2  A    between atoms: C_12  and  C_28
    3  A    between atoms: C_17  and  C_29
                            x       y       z     vdW  Elec       q    Type
                         _______ _______ _______ _____ _____    ______ ____

>  <TORSDO>
F 3

$$$$
=
 OpenBabel11052413563D

 34 40  0  0  1  0  0  0  0  0999 V2000
  184.7720  178.7390  141.6960 C   0  0  0  0  0  0  0  0  0  0  0  0
  186.0540  178.5260  139.6290 C   0  0  0  0  0  0  0  0  0  0  0  0
  187.1230  178.1580  141.7790 C   0  0  0  0  0  0  0  0  0  0  0  0
  189.4480  177.5630  141.7260 C   0  0  0  0  0  0  0  0  0  0  0  0
  183.7110  179.1080  139.6000 C   0  0  0  0  0  3  0  0  0  0  0  0
  184.9020  178.8470  138.9080 C   0  0  0  0  0  3  0  0  0  0  0  0
  188.3490  177.9340  139.7230 C   0  0  0  0  0  0  0  0  0  0  0  0
  185.9810  178.4760  141.0400 C   0  0  0  0  0  0  0  0  0  0  0  0
  190.8090  177.2730  140.6020 S   0  0  0  0  0  0  0  0  0  0  0  0
  183.6680  179.0490  140.9640 N   0  0  0  0  0  0  0  0  0  0  0  0
  187.1030  178.0980  143.1870 C   0  0  0  0  0  0  0  0  0  0  0  0
  184.7210  178.6730  143.0950 C   0  0  0  0  0  3  0  0  0  0  0  0
  187.2380  178.2560  138.9950 N   0  0  0  0  0  0  0  0  0  0  0  0
  189.4820  177.4900  143.1220 C   0  0  0  0  0  3  0  0  0  0  0  0
  188.3110  177.7610  143.8800 C   0  0  0  0  0  0  0  0  0  0  0  0
  189.6950  177.6130  139.1560 C   0  0  1  0  0  3  0  0  0  0  0  0
  188.2930  177.8900  141.0900 C   0  0  0  0  0  0  0  0  0  0  0  0
  185.8760  178.3530  143.8330 C   0  0  0  0  0  3  0  0  0  0  0  0
  189.6910  177.3040  147.3990 C   0  0  0  0  0  0  0  0  0  0  0  0
  188.5390  177.4840  148.1680 C   0  0  0  0  0  3  0  0  0  0  0  0
  188.4060  177.6820  145.3640 C   0  0  0  0  0  0  0  0  0  0  0  0
  187.3200  177.7550  147.5440 C   0  0  0  0  0  3  0  0  0  0  0  0
  189.6240  177.3990  146.0070 C   0  0  0  0  0  3  0  0  0  0  0  0
  187.2540  177.8500  146.1510 C   0  0  0  0  0  3  0  0  0  0  0  0
  190.8740  177.0370  148.0030 F   0  0  0  0  0  0  0  0  0  0  0  0
  189.6020  176.3780  138.2760 C   0  0  0  0  0  2  0  0  0  0  0  0
  190.8590  175.6470  138.3160 N   0  0  0  0  0  2  0  0  0  0  0  0
  193.5420  174.8670  138.1470 F   0  0  0  0  0  0  0  0  0  0  0  0
  191.3760  174.9500  137.1810 C   0  0  0  0  0  0  0  0  0  0  0  0
  192.6690  174.1870  137.3160 C   0  0  1  0  0  3  0  0  0  0  0  0
  192.3280  173.3540  135.0020 C   0  0  0  0  0  2  0  0  0  0  0  0
  191.1470  174.2070  134.9400 N   0  0  0  0  0  2  0  0  0  0  0  0
  190.6970  174.9140  136.0700 N   0  0  0  0  0  0  0  0  0  0  0  0
  193.3330  173.9680  135.9610 C   0  0  0  0  0  2  0  0  0  0  0  0
  1 12  1  0  0  0  0
  2  8  1  0  0  0  0
  3 11  2  0  0  0  0
  4 14  1  0  0  0  0
  5 10  2  0  0  0  0
  6  5  1  0  0  0  0
  6  2  2  0  0  0  0
  7 17  1  0  0  0  0
  8  1  2  0  0  0  0
  8  3  1  0  0  0  0
  9  4  1  0  0  0  0
 10  1  1  0  0  0  0
 11 18  1  0  0  0  0
 11 15  1  0  0  0  0
 12 18  2  0  0  0  0
 13  2  1  0  0  0  0
 13  7  2  0  0  0  0
 14 15  2  0  0  0  0
 15 21  1  0  0  0  0
 16 26  1  6  0  0  0
 16  7  1  0  0  0  0
 16  9  1  0  0  0  0
 17  4  2  0  0  0  0
 17  3  1  0  0  0  0
 19 25  1  0  0  0  0
 19 20  1  0  0  0  0
 21 23  1  0  0  0  0
 21 24  2  0  0  0  0
 22 20  2  0  0  0  0
 23 19  2  0  0  0  0
 24 22  1  0  0  0  0
 26 27  1  0  0  0  0
 29 30  1  0  0  0  0
 29 27  1  0  0  0  0
 30 28  1  1  0  0  0
 31 34  1  0  0  0  0
 32 31  1  0  0  0  0
 32 33  1  0  0  0  0
 33 29  2  0  0  0  0
 34 30  1  0  0  0  0
M  END
>  <MODEL>
4

>  <REMARK>
 VINA RESULT:     -10.6      1.621      2.151
  Name = 
  3 active torsions:
  status: ('A' for Active; 'I' for Inactive)
    1  A    between atoms: N_3  and  C_17
    2  A    between atoms: C_12  and  C_28
    3  A    between atoms: C_17  and  C_29
                            x       y       z     vdW  Elec       q    Type
                         _______ _______ _______ _____ _____    ______ ____

>  <TORSDO>
F 3

$$$$
=
 OpenBabel11052413563D

 34 40  0  0  1  0  0  0  0  0999 V2000
  189.4070  177.1120  145.6960 C   0  0  0  0  0  0  0  0  0  0  0  0
  187.1440  178.0220  145.8110 C   0  0  0  0  0  0  0  0  0  0  0  0
  188.2520  177.7580  143.6660 C   0  0  0  0  0  0  0  0  0  0  0  0
  186.9940  178.4090  141.7280 C   0  0  0  0  0  0  0  0  0  0  0  0
  188.3380  177.3690  147.8060 C   0  0  0  0  0  3  0  0  0  0  0  0
  187.1840  177.8880  147.2000 C   0  0  0  0  0  3  0  0  0  0  0  0
  186.0150  178.6280  143.8140 C   0  0  0  0  0  0  0  0  0  0  0  0
  188.2730  177.6300  145.0570 C   0  0  0  0  0  0  0  0  0  0  0  0
  185.4140  179.0820  141.2270 S   0  0  0  0  0  0  0  0  0  0  0  0
  189.4140  176.9950  147.0520 N   0  0  0  0  0  0  0  0  0  0  0  0
  189.3540  177.3850  142.8690 C   0  0  0  0  0  0  0  0  0  0  0  0
  190.5110  176.7210  144.9270 C   0  0  0  0  0  3  0  0  0  0  0  0
  186.0350  178.5160  145.1760 N   0  0  0  0  0  0  0  0  0  0  0  0
  188.0590  178.0540  140.8930 C   0  0  0  0  0  3  0  0  0  0  0  0
  189.2610  177.5390  141.4480 C   0  0  0  0  0  0  0  0  0  0  0  0
  184.8710  179.1430  143.0010 C   0  0  1  0  0  3  0  0  0  0  0  0
  187.1070  178.2590  143.0730 C   0  0  0  0  0  0  0  0  0  0  0  0
  190.4830  176.8540  143.5260 C   0  0  0  0  0  3  0  0  0  0  0  0
  192.7280  177.1890  139.9130 C   0  0  0  0  0  0  0  0  0  0  0  0
  192.4260  176.5650  138.7010 C   0  0  0  0  0  3  0  0  0  0  0  0
  190.3670  177.1900  140.5140 C   0  0  0  0  0  0  0  0  0  0  0  0
  191.1020  176.2570  138.3860 C   0  0  0  0  0  3  0  0  0  0  0  0
  191.7050  177.5030  140.8110 C   0  0  0  0  0  3  0  0  0  0  0  0
  190.0790  176.5700  139.2860 C   0  0  0  0  0  3  0  0  0  0  0  0
  194.0130  177.4930  140.2180 F   0  0  0  0  0  0  0  0  0  0  0  0
  183.6570  178.2530  143.2000 C   0  0  0  0  0  2  0  0  0  0  0  0
  182.8390  178.2580  141.9970 N   0  0  0  0  0  2  0  0  0  0  0  0
  181.6740  178.8430  139.5190 F   0  0  0  0  0  0  0  0  0  0  0  0
  181.6480  179.0410  141.8830 C   0  0  0  0  0  0  0  0  0  0  0  0
  180.8380  178.9630  140.6140 C   0  0  1  0  0  3  0  0  0  0  0  0
  179.1400  180.4110  141.7030 C   0  0  0  0  0  2  0  0  0  0  0  0
  180.0450  180.5030  142.8420 N   0  0  0  0  0  2  0  0  0  0  0  0
  181.2330  179.7500  142.8940 N   0  0  0  0  0  0  0  0  0  0  0  0
  179.9540  180.1930  140.4390 C   0  0  0  0  0  2  0  0  0  0  0  0
  1 10  1  0  0  0  0
  2  6  2  0  0  0  0
  3  8  1  0  0  0  0
  4 17  1  0  0  0  0
  6  5  1  0  0  0  0
  7 13  2  0  0  0  0
  8  1  2  0  0  0  0
  8  2  1  0  0  0  0
  9  4  1  0  0  0  0
  9 16  1  0  0  0  0
 10  5  2  0  0  0  0
 11 18  1  0  0  0  0
 11  3  1  0  0  0  0
 12  1  1  0  0  0  0
 13  2  1  0  0  0  0
 14 15  1  0  0  0  0
 14  4  2  0  0  0  0
 15 11  2  0  0  0  0
 16 26  1  6  0  0  0
 16  7  1  0  0  0  0
 17  3  2  0  0  0  0
 17  7  1  0  0  0  0
 18 12  2  0  0  0  0
 19 25  1  0  0  0  0
 19 23  1  0  0  0  0
 20 19  2  0  0  0  0
 21 23  2  0  0  0  0
 21 15  1  0  0  0  0
 22 20  1  0  0  0  0
 22 24  2  0  0  0  0
 24 21  1  0  0  0  0
 27 26  1  0  0  0  0
 29 27  1  0  0  0  0
 29 33  2  0  0  0  0
 30 28  1  6  0  0  0
 30 29  1  0  0  0  0
 31 32  1  0  0  0  0
 32 33  1  0  0  0  0
 34 30  1  0  0  0  0
 34 31  1  0  0  0  0
M  END
>  <MODEL>
5

>  <REMARK>
 VINA RESULT:     -10.4      3.869      7.655
  Name = 
  3 active torsions:
  status: ('A' for Active; 'I' for Inactive)
    1  A    between atoms: N_3  and  C_17
    2  A    between atoms: C_12  and  C_28
    3  A    between atoms: C_17  and  C_29
                            x       y       z     vdW  Elec       q    Type
                         _______ _______ _______ _____ _____    ______ ____

>  <TORSDO>
F 3

$$$$
=
 OpenBabel11052413563D

 34 40  0  0  1  0  0  0  0  0999 V2000
  187.5310  178.2510  139.8960 C   0  0  0  0  0  0  0  0  0  0  0  0
  185.3940  178.4710  138.7350 C   0  0  0  0  0  0  0  0  0  0  0  0
  185.4750  178.4520  141.1640 C   0  0  0  0  0  0  0  0  0  0  0  0
  183.3740  178.6840  142.3030 C   0  0  0  0  0  0  0  0  0  0  0  0
  187.4690  178.2620  137.5190 C   0  0  0  0  0  3  0  0  0  0  0  0
  186.0730  178.4050  137.5180 C   0  0  0  0  0  3  0  0  0  0  0  0
  183.3910  178.6900  139.9880 C   0  0  0  0  0  0  0  0  0  0  0  0
  186.1370  178.3890  139.9350 C   0  0  0  0  0  0  0  0  0  0  0  0
  181.6200  178.8730  142.0110 S   0  0  0  0  0  0  0  0  0  0  0  0
  188.1620  178.1900  138.6930 N   0  0  0  0  0  0  0  0  0  0  0  0
  186.1700  178.3720  142.3870 C   0  0  0  0  0  0  0  0  0  0  0  0
  188.2480  178.1820  141.0980 C   0  0  0  0  0  3  0  0  0  0  0  0
  184.0320  178.6180  138.7830 N   0  0  0  0  0  0  0  0  0  0  0  0
  184.0160  178.6100  143.5430 C   0  0  0  0  0  3  0  0  0  0  0  0
  185.4260  178.4480  143.6090 C   0  0  0  0  0  0  0  0  0  0  0  0
  181.9170  178.8560  140.1780 C   0  0  1  0  0  3  0  0  0  0  0  0
  184.1000  178.6040  141.1560 C   0  0  0  0  0  0  0  0  0  0  0  0
  187.5730  178.2450  142.3320 C   0  0  0  0  0  3  0  0  0  0  0  0
  187.7730  177.4980  146.4530 C   0  0  0  0  0  0  0  0  0  0  0  0
  187.1880  178.1750  147.5250 C   0  0  0  0  0  3  0  0  0  0  0  0
  186.0560  178.3610  144.9560 C   0  0  0  0  0  0  0  0  0  0  0  0
  186.0370  178.9390  147.3230 C   0  0  0  0  0  3  0  0  0  0  0  0
  187.2090  177.5880  145.1780 C   0  0  0  0  0  3  0  0  0  0  0  0
  185.4730  179.0290  146.0470 C   0  0  0  0  0  3  0  0  0  0  0  0
  188.8870  176.7530  146.6490 F   0  0  0  0  0  0  0  0  0  0  0  0
  181.4640  180.1720  139.5700 C   0  0  0  0  0  2  0  0  0  0  0  0
  181.0730  179.9670  138.1840 N   0  0  0  0  0  2  0  0  0  0  0  0
  181.0370  179.5870  135.4110 F   0  0  0  0  0  0  0  0  0  0  0  0
  180.8880  181.0520  137.2710 C   0  0  0  0  0  0  0  0  0  0  0  0
  180.4480  180.7550  135.8610 C   0  0  1  0  0  3  0  0  0  0  0  0
  180.2830  183.2030  135.4820 C   0  0  0  0  0  2  0  0  0  0  0  0
  180.8110  183.3800  136.8290 N   0  0  0  0  0  2  0  0  0  0  0  0
  181.0240  182.2810  137.6800 N   0  0  0  0  0  0  0  0  0  0  0  0
  180.8050  181.8950  134.9130 C   0  0  0  0  0  2  0  0  0  0  0  0
  1  8  2  0  0  0  0
  1 12  1  0  0  0  0
  2 13  1  0  0  0  0
  2  8  1  0  0  0  0
  3 11  2  0  0  0  0
  4 14  1  0  0  0  0
  5 10  2  0  0  0  0
  6  5  1  0  0  0  0
  6  2  2  0  0  0  0
  7 16  1  0  0  0  0
  7 17  1  0  0  0  0
  8  3  1  0  0  0  0
  9  4  1  0  0  0  0
 10  1  1  0  0  0  0
 11 15  1  0  0  0  0
 12 18  2  0  0  0  0
 13  7  2  0  0  0  0
 14 15  2  0  0  0  0
 15 21  1  0  0  0  0
 16 26  1  1  0  0  0
 16  9  1  0  0  0  0
 17  3  1  0  0  0  0
 17  4  2  0  0  0  0
 18 11  1  0  0  0  0
 19 25  1  0  0  0  0
 19 20  1  0  0  0  0
 21 23  1  0  0  0  0
 21 24  2  0  0  0  0
 22 20  2  0  0  0  0
 23 19  2  0  0  0  0
 24 22  1  0  0  0  0
 27 26  1  0  0  0  0
 29 33  2  0  0  0  0
 29 27  1  0  0  0  0
 30 28  1  6  0  0  0
 30 29  1  0  0  0  0
 31 32  1  0  0  0  0
 32 33  1  0  0  0  0
 34 31  1  0  0  0  0
 34 30  1  0  0  0  0
M  END
>  <MODEL>
6

>  <REMARK>
 VINA RESULT:     -10.3      4.095      7.129
  Name = 
  3 active torsions:
  status: ('A' for Active; 'I' for Inactive)
    1  A    between atoms: N_3  and  C_17
    2  A    between atoms: C_12  and  C_28
    3  A    between atoms: C_17  and  C_29
                            x       y       z     vdW  Elec       q    Type
                         _______ _______ _______ _____ _____    ______ ____

>  <TORSDO>
F 3

$$$$
=
 OpenBabel11052413563D

 34 40  0  0  1  0  0  0  0  0999 V2000
  186.9120  178.1620  147.2000 C   0  0  0  0  0  0  0  0  0  0  0  0
  188.9980  177.5600  146.0820 C   0  0  0  0  0  0  0  0  0  0  0  0
  186.9790  177.9470  144.7870 C   0  0  0  0  0  0  0  0  0  0  0  0
  187.1830  177.7300  142.4050 C   0  0  0  0  0  0  0  0  0  0  0  0
  188.8770  177.7800  148.4840 C   0  0  0  0  0  3  0  0  0  0  0  0
  189.6240  177.5050  147.3290 C   0  0  0  0  0  3  0  0  0  0  0  0
  189.0570  177.3770  143.7180 C   0  0  0  0  0  0  0  0  0  0  0  0
  187.6250  177.8900  146.0250 C   0  0  0  0  0  0  0  0  0  0  0  0
  188.3610  177.3490  141.1140 S   0  0  0  0  0  0  0  0  0  0  0  0
  187.5520  178.1000  148.3990 N   0  0  0  0  0  0  0  0  0  0  0  0
  185.6110  178.2680  144.6770 C   0  0  0  0  0  0  0  0  0  0  0  0
  185.5540  178.4960  147.1180 C   0  0  0  0  0  3  0  0  0  0  0  0
  189.6900  177.3070  144.9270 N   0  0  0  0  0  0  0  0  0  0  0  0
  185.8300  178.0440  142.2410 C   0  0  0  0  0  3  0  0  0  0  0  0
  185.0170  178.3140  143.3740 C   0  0  0  0  0  0  0  0  0  0  0  0
  189.6950  177.1310  142.3880 C   0  0  1  0  0  3  0  0  0  0  0  0
  187.7240  177.6870  143.6500 C   0  0  0  0  0  0  0  0  0  0  0  0
  184.9100  178.5520  145.8670 C   0  0  0  0  0  3  0  0  0  0  0  0
  181.6830  178.9500  141.6490 C   0  0  0  0  0  0  0  0  0  0  0  0
  180.8730  179.2840  142.7360 C   0  0  0  0  0  3  0  0  0  0  0  0
  183.5800  178.6290  143.1430 C   0  0  0  0  0  0  0  0  0  0  0  0
  181.4100  179.3010  144.0250 C   0  0  0  0  0  3  0  0  0  0  0  0
  183.0270  178.6280  141.8510 C   0  0  0  0  0  3  0  0  0  0  0  0
  182.7550  178.9780  144.2270 C   0  0  0  0  0  3  0  0  0  0  0  0
  181.1650  178.9380  140.3960 F   0  0  0  0  0  0  0  0  0  0  0  0
  190.8020  178.1440  142.1530 C   0  0  0  0  0  2  0  0  0  0  0  0
  191.9240  177.5030  141.4870 N   0  0  0  0  0  2  0  0  0  0  0  0
  194.2760  176.9530  140.0700 F   0  0  0  0  0  0  0  0  0  0  0  0
  191.9160  177.2030  140.0890 C   0  0  0  0  0  0  0  0  0  0  0  0
  193.1060  176.5040  139.4830 C   0  0  1  0  0  3  0  0  0  0  0  0
  191.8440  176.3780  137.3480 C   0  0  0  0  0  2  0  0  0  0  0  0
  190.7910  177.1460  138.0020 N   0  0  0  0  0  2  0  0  0  0  0  0
  190.8600  177.4610  139.3710 N   0  0  0  0  0  0  0  0  0  0  0  0
  193.1810  176.7330  137.9770 C   0  0  0  0  0  2  0  0  0  0  0  0
  1 10  1  0  0  0  0
  2  6  2  0  0  0  0
  3  8  1  0  0  0  0
  4 17  1  0  0  0  0
  6  5  1  0  0  0  0
  7 13  2  0  0  0  0
  8  2  1  0  0  0  0
  8  1  2  0  0  0  0
  9 16  1  0  0  0  0
  9  4  1  0  0  0  0
 10  5  2  0  0  0  0
 11  3  1  0  0  0  0
 11 18  1  0  0  0  0
 12  1  1  0  0  0  0
 13  2  1  0  0  0  0
 14  4  2  0  0  0  0
 14 15  1  0  0  0  0
 15 11  2  0  0  0  0
 16 26  1  6  0  0  0
 16  7  1  0  0  0  0
 17  7  1  0  0  0  0
 17  3  2  0  0  0  0
 18 12  2  0  0  0  0
 19 23  2  0  0  0  0
 19 20  1  0  0  0  0
 20 22  2  0  0  0  0
 21 15  1  0  0  0  0
 21 24  2  0  0  0  0
 22 24  1  0  0  0  0
 23 21  1  0  0  0  0
 25 19  1  0  0  0  0
 27 26  1  0  0  0  0
 29 27  1  0  0  0  0
 30 28  1  1  0  0  0
 30 29  1  0  0  0  0
 31 34  1  0  0  0  0
 31 32  1  0  0  0  0
 32 33  1  0  0  0  0
 33 29  2  0  0  0  0
 34 30  1  0  0  0  0
M  END
>  <MODEL>
7

>  <REMARK>
 VINA RESULT:     -10.3      3.334      6.127
  Name = 
  3 active torsions:
  status: ('A' for Active; 'I' for Inactive)
    1  A    between atoms: N_3  and  C_17
    2  A    between atoms: C_12  and  C_28
    3  A    between atoms: C_17  and  C_29
                            x       y       z     vdW  Elec       q    Type
                         _______ _______ _______ _____ _____    ______ ____

>  <TORSDO>
F 3

$$$$
=
 OpenBabel11052413563D

 34 40  0  0  1  0  0  0  0  0999 V2000
  185.4910  178.4590  140.6430 C   0  0  0  0  0  0  0  0  0  0  0  0
  187.2740  178.1750  138.9990 C   0  0  0  0  0  0  0  0  0  0  0  0
  187.7570  178.0090  141.3750 C   0  0  0  0  0  0  0  0  0  0  0  0
  190.0330  177.5330  141.9700 C   0  0  0  0  0  0  0  0  0  0  0  0
  185.0020  178.6300  138.3210 C   0  0  0  0  0  3  0  0  0  0  0  0
  186.3410  178.3860  137.9830 C   0  0  0  0  0  3  0  0  0  0  0  0
  189.4840  177.7100  139.7280 C   0  0  0  0  0  0  0  0  0  0  0  0
  186.8380  178.2160  140.3430 C   0  0  0  0  0  0  0  0  0  0  0  0
  191.6490  177.2390  141.2620 S   0  0  0  0  0  0  0  0  0  0  0  0
  184.6070  178.6610  139.6280 N   0  0  0  0  0  0  0  0  0  0  0  0
  187.3720  178.0440  142.7300 C   0  0  0  0  0  0  0  0  0  0  0  0
  185.0790  178.4860  141.9820 C   0  0  0  0  0  3  0  0  0  0  0  0
  188.5910  177.9240  138.7160 N   0  0  0  0  0  0  0  0  0  0  0  0
  189.7030  177.5570  143.3290 C   0  0  0  0  0  3  0  0  0  0  0  0
  188.3670  177.8180  143.7350 C   0  0  0  0  0  0  0  0  0  0  0  0
  190.9400  177.4220  139.5550 C   0  0  1  0  0  3  0  0  0  0  0  0
  189.0740  177.7560  141.0340 C   0  0  0  0  0  0  0  0  0  0  0  0
  186.0110  178.2770  143.0160 C   0  0  0  0  0  3  0  0  0  0  0  0
  186.5540  178.2420  147.0570 C   0  0  0  0  0  0  0  0  0  0  0  0
  187.5720  177.9390  147.9630 C   0  0  0  0  0  3  0  0  0  0  0  0
  188.0740  177.8440  145.1950 C   0  0  0  0  0  0  0  0  0  0  0  0
  188.8420  177.5960  147.4950 C   0  0  0  0  0  3  0  0  0  0  0  0
  186.8050  178.1980  145.6830 C   0  0  0  0  0  3  0  0  0  0  0  0
  189.0920  177.5520  146.1200 C   0  0  0  0  0  3  0  0  0  0  0  0
  185.3220  178.5800  147.5090 F   0  0  0  0  0  0  0  0  0  0  0  0
  191.1210  176.1280  138.7810 C   0  0  0  0  0  2  0  0  0  0  0  0
  191.7380  176.4050  137.4930 N   0  0  0  0  0  2  0  0  0  0  0  0
  192.6400  176.2970  134.8450 F   0  0  0  0  0  0  0  0  0  0  0  0
  193.0470  175.9410  137.1560 C   0  0  0  0  0  0  0  0  0  0  0  0
  193.6290  176.3020  135.8130 C   0  0  1  0  0  3  0  0  0  0  0  0
  195.7490  175.2280  136.5310 C   0  0  0  0  0  2  0  0  0  0  0  0
  195.0610  174.8410  137.7570 N   0  0  0  0  0  2  0  0  0  0  0  0
  193.7530  175.2810  138.0300 N   0  0  0  0  0  0  0  0  0  0  0  0
  194.7360  175.3350  135.4050 C   0  0  0  0  0  2  0  0  0  0  0  0
  1 12  1  0  0  0  0
  2  8  1  0  0  0  0
  3 11  2  0  0  0  0
  4 14  1  0  0  0  0
  5 10  2  0  0  0  0
  6  5  1  0  0  0  0
  6  2  2  0  0  0  0
  7 17  1  0  0  0  0
  8  1  2  0  0  0  0
  8  3  1  0  0  0  0
  9  4  1  0  0  0  0
 10  1  1  0  0  0  0
 11 18  1  0  0  0  0
 11 15  1  0  0  0  0
 12 18  2  0  0  0  0
 13  2  1  0  0  0  0
 13  7  2  0  0  0  0
 14 15  2  0  0  0  0
 15 21  1  0  0  0  0
 16 26  1  6  0  0  0
 16  7  1  0  0  0  0
 16  9  1  0  0  0  0
 17  3  1  0  0  0  0
 17  4  2  0  0  0  0
 19 25  1  0  0  0  0
 19 20  1  0  0  0  0
 21 23  1  0  0  0  0
 21 24  2  0  0  0  0
 22 20  2  0  0  0  0
 23 19  2  0  0  0  0
 24 22  1  0  0  0  0
 27 26  1  0  0  0  0
 29 27  1  0  0  0  0
 29 33  2  0  0  0  0
 30 28  1  6  0  0  0
 30 29  1  0  0  0  0
 31 32  1  0  0  0  0
 32 33  1  0  0  0  0
 34 30  1  0  0  0  0
 34 31  1  0  0  0  0
M  END
>  <MODEL>
8

>  <REMARK>
 VINA RESULT:     -10.1      2.211      2.937
  Name = 
  3 active torsions:
  status: ('A' for Active; 'I' for Inactive)
    1  A    between atoms: N_3  and  C_17
    2  A    between atoms: C_12  and  C_28
    3  A    between atoms: C_17  and  C_29
                            x       y       z     vdW  Elec       q    Type
                         _______ _______ _______ _____ _____    ______ ____

>  <TORSDO>
F 3

$$$$
=
 OpenBabel11052413563D

 34 40  0  0  1  0  0  0  0  0999 V2000
  183.5330  178.6210  143.8260 C   0  0  0  0  0  0  0  0  0  0  0  0
  183.7020  178.8870  141.4050 C   0  0  0  0  0  0  0  0  0  0  0  0
  185.6790  178.3820  142.7250 C   0  0  0  0  0  0  0  0  0  0  0  0
  187.7380  178.1440  141.5140 C   0  0  0  0  0  0  0  0  0  0  0  0
  181.5890  179.1210  142.5500 C   0  0  0  0  0  3  0  0  0  0  0  0
  182.3290  179.1340  141.3580 C   0  0  0  0  0  3  0  0  0  0  0  0
  185.8050  178.6270  140.3360 C   0  0  0  0  0  0  0  0  0  0  0  0
  184.3060  178.6310  142.6580 C   0  0  0  0  0  0  0  0  0  0  0  0
  188.4250  178.2140  139.8640 S   0  0  0  0  0  0  0  0  0  0  0  0
  182.1980  178.8660  143.7460 N   0  0  0  0  0  0  0  0  0  0  0  0
  186.3270  178.1250  143.9500 C   0  0  0  0  0  0  0  0  0  0  0  0
  184.1510  178.3550  145.0550 C   0  0  0  0  0  3  0  0  0  0  0  0
  184.4640  178.8830  140.2660 N   0  0  0  0  0  0  0  0  0  0  0  0
  188.4290  177.8830  142.7020 C   0  0  0  0  0  3  0  0  0  0  0  0
  187.7380  177.8730  143.9430 C   0  0  0  0  0  0  0  0  0  0  0  0
  186.7430  178.5860  139.1730 C   0  0  1  0  0  3  0  0  0  0  0  0
  186.4010  178.3850  141.5450 C   0  0  0  0  0  0  0  0  0  0  0  0
  185.5350  178.1060  145.1160 C   0  0  0  0  0  3  0  0  0  0  0  0
  188.6880  177.4090  147.6010 C   0  0  0  0  0  0  0  0  0  0  0  0
  190.0550  177.1440  147.4950 C   0  0  0  0  0  3  0  0  0  0  0  0
  188.5250  177.6030  145.1780 C   0  0  0  0  0  0  0  0  0  0  0  0
  190.6630  177.1140  146.2390 C   0  0  0  0  0  3  0  0  0  0  0  0
  187.9300  177.6410  146.4510 C   0  0  0  0  0  3  0  0  0  0  0  0
  189.9040  177.3450  145.0880 C   0  0  0  0  0  3  0  0  0  0  0  0
  188.0970  177.4430  148.8200 F   0  0  0  0  0  0  0  0  0  0  0  0
  186.3250  177.4860  138.2130 C   0  0  0  0  0  2  0  0  0  0  0  0
  187.4990  176.9310  137.5570 N   0  0  0  0  0  2  0  0  0  0  0  0
  189.4190  176.0910  135.7010 F   0  0  0  0  0  0  0  0  0  0  0  0
  187.5360  175.5920  137.0560 C   0  0  0  0  0  0  0  0  0  0  0  0
  188.8050  175.0830  136.4220 C   0  0  1  0  0  3  0  0  0  0  0  0
  187.7280  172.8520  136.2500 C   0  0  0  0  0  2  0  0  0  0  0  0
  186.5180  173.4690  136.7790 N   0  0  0  0  0  2  0  0  0  0  0  0
  186.5110  174.8050  137.2180 N   0  0  0  0  0  0  0  0  0  0  0  0
  188.5310  173.9000  135.4990 C   0  0  0  0  0  2  0  0  0  0  0  0
  1 12  1  0  0  0  0
  2  8  1  0  0  0  0
  3 11  2  0  0  0  0
  4 17  2  0  0  0  0
  4 14  1  0  0  0  0
  5 10  2  0  0  0  0
  6  2  2  0  0  0  0
  6  5  1  0  0  0  0
  7 17  1  0  0  0  0
  8  3  1  0  0  0  0
  8  1  2  0  0  0  0
  9  4  1  0  0  0  0
 10  1  1  0  0  0  0
 11 18  1  0  0  0  0
 12 18  2  0  0  0  0
 13  7  2  0  0  0  0
 13  2  1  0  0  0  0
 14 15  2  0  0  0  0
 15 11  1  0  0  0  0
 15 21  1  0  0  0  0
 16 26  1  6  0  0  0
 16  9  1  0  0  0  0
 16  7  1  0  0  0  0
 17  3  1  0  0  0  0
 19 25  1  0  0  0  0
 20 19  1  0  0  0  0
 21 23  1  0  0  0  0
 22 20  2  0  0  0  0
 23 19  2  0  0  0  0
 24 21  2  0  0  0  0
 24 22  1  0  0  0  0
 27 26  1  0  0  0  0
 29 33  2  0  0  0  0
 29 27  1  0  0  0  0
 30 28  1  6  0  0  0
 30 29  1  0  0  0  0
 31 32  1  0  0  0  0
 32 33  1  0  0  0  0
 34 31  1  0  0  0  0
 34 30  1  0  0  0  0
M  END
>  <MODEL>
9

>  <REMARK>
 VINA RESULT:     -10.1      1.687      1.972
  Name = 
  3 active torsions:
  status: ('A' for Active; 'I' for Inactive)
    1  A    between atoms: N_3  and  C_17
    2  A    between atoms: C_12  and  C_28
    3  A    between atoms: C_17  and  C_29
                            x       y       z     vdW  Elec       q    Type
                         _______ _______ _______ _____ _____    ______ ____

>  <TORSDO>
F 3

$$$$
