=
 OpenBabel11052413393D

 27 31  0  0  1  0  0  0  0  0999 V2000
  191.8240  177.5820  139.2000 N   0  0  0  0  0  2  0  0  0  0  0  0
  189.4210  177.6950  139.0060 C   0  0  0  0  0  0  0  0  0  0  0  0
  189.8420  175.3490  138.1260 C   0  0  0  0  0  2  0  0  0  0  0  0
  186.6480  178.0810  135.9540 N   0  0  0  0  0  0  0  0  0  0  0  0
  185.4790  176.4120  134.5950 C   0  0  0  0  0  1  0  0  0  0  0  0
  189.0390  178.9020  138.6660 N   0  0  0  0  0  0  0  0  0  0  0  0
  187.2170  175.9940  136.3470 C   0  0  0  0  0  0  0  0  0  0  0  0
  193.1060  174.8980  136.2060 C   0  0  0  0  0  2  0  0  0  0  0  0
  187.1700  174.5030  136.3090 C   0  0  0  0  0  1  0  0  0  0  0  0
  194.0170  175.0930  137.4020 C   0  0  1  0  0  3  0  0  0  0  0  0
  187.9760  176.7710  137.1950 C   0  0  0  0  0  0  0  0  0  0  0  0
  190.5720  177.5360  139.8350 N   0  0  0  0  0  0  0  0  0  0  0  0
  186.4460  176.8170  135.6010 N   0  0  0  0  0  0  0  0  0  0  0  0
  187.5770  178.0430  136.9260 C   0  0  0  0  0  0  0  0  0  0  0  0
  192.1510  176.2640  138.6470 C   0  0  2  0  0  3  0  0  0  0  0  0
  188.8070  176.4450  138.3960 C   0  0  2  0  0  3  0  0  0  0  0  0
  191.6920  174.6580  136.7040 C   0  0  0  0  0  2  0  0  0  0  0  0
  188.0530  179.1440  137.6860 N   0  0  0  0  0  2  0  0  0  0  0  0
  195.3330  175.2350  136.9640 O   0  0  0  0  0  1  0  0  0  0  0  0
  193.5930  176.3490  138.1410 C   0  0  0  0  0  2  0  0  0  0  0  0
  191.1600  175.8390  137.5190 C   0  0  1  0  0  3  0  0  0  0  0  0
  190.2670  176.4770  143.9010 N   0  0  0  0  0  0  0  0  0  0  0  0
  190.4630  177.1710  141.2240 C   0  0  0  0  0  0  0  0  0  0  0  0
  191.5920  177.2090  142.0540 C   0  0  0  0  0  3  0  0  0  0  0  0
  191.4720  176.8550  143.4000 C   0  0  0  0  0  3  0  0  0  0  0  0
  189.1540  176.4350  143.1210 C   0  0  0  0  0  3  0  0  0  0  0  0
  189.2310  176.7800  141.7710 C   0  0  0  0  0  3  0  0  0  0  0  0
  1 12  1  0  0  0  0
  2 12  1  0  0  0  0
  4 14  2  0  0  0  0
  5 13  1  0  0  0  0
  6  2  2  0  0  0  0
  7 11  2  0  0  0  0
  8 17  1  0  0  0  0
  8 10  1  0  0  0  0
  9  7  1  0  0  0  0
 10 19  1  6  0  0  0
 10 20  1  0  0  0  0
 11 16  1  0  0  0  0
 12 23  1  0  0  0  0
 13  4  1  0  0  0  0
 13  7  1  0  0  0  0
 14 11  1  0  0  0  0
 14 18  1  0  0  0  0
 15 20  1  6  0  0  0
 15  1  1  0  0  0  0
 16  3  1  6  0  0  0
 16  2  1  0  0  0  0
 18  6  1  0  0  0  0
 21 17  1  1  0  0  0
 21  3  1  0  0  0  0
 21 15  1  0  0  0  0
 23 27  2  0  0  0  0
 23 24  1  0  0  0  0
 24 25  2  0  0  0  0
 25 22  1  0  0  0  0
 26 22  2  0  0  0  0
 27 26  1  0  0  0  0
M  END
>  <MODEL>
1

>  <REMARK>
 VINA RESULT:      -6.5      0.000      0.000
  Name = 
  1 active torsions:
  status: ('A' for Active; 'I' for Inactive)
    1  A    between atoms: C_9  and  N_15
                            x       y       z     vdW  Elec       q    Type
                         _______ _______ _______ _____ _____    ______ ____

>  <TORSDO>
F 1

$$$$
=
 OpenBabel11052413393D

 27 31  0  0  1  0  0  0  0  0999 V2000
  180.6190  179.6900  140.7790 N   0  0  0  0  0  2  0  0  0  0  0  0
  180.7310  177.2920  141.0230 C   0  0  0  0  0  0  0  0  0  0  0  0
  181.9660  177.5880  138.8220 C   0  0  0  0  0  2  0  0  0  0  0  0
  178.9310  173.9890  139.2870 N   0  0  0  0  0  0  0  0  0  0  0  0
  179.5560  172.6210  137.3560 C   0  0  0  0  0  1  0  0  0  0  0  0
  179.6320  176.8280  141.5670 N   0  0  0  0  0  0  0  0  0  0  0  0
  180.7230  174.6640  138.2080 C   0  0  0  0  0  0  0  0  0  0  0  0
  180.7120  180.4440  136.6280 C   0  0  0  0  0  2  0  0  0  0  0  0
  181.8700  174.6400  137.2530 C   0  0  0  0  0  1  0  0  0  0  0  0
  181.1700  181.5580  137.5470 C   0  0  1  0  0  3  0  0  0  0  0  0
  180.5350  175.5520  139.2450 C   0  0  0  0  0  0  0  0  0  0  0  0
  181.2090  178.5800  141.4060 N   0  0  0  0  0  0  0  0  0  0  0  0
  179.7270  173.7510  138.2530 N   0  0  0  0  0  0  0  0  0  0  0  0
  179.4310  175.0850  139.8870 C   0  0  0  0  0  0  0  0  0  0  0  0
  181.2660  179.9340  139.4860 C   0  0  2  0  0  3  0  0  0  0  0  0
  181.4140  176.5990  139.8530 C   0  0  2  0  0  3  0  0  0  0  0  0
  181.3910  179.1530  137.0490 C   0  0  0  0  0  2  0  0  0  0  0  0
  178.9740  175.6720  141.0960 N   0  0  0  0  0  2  0  0  0  0  0  0
  180.6180  182.7650  137.1240 O   0  0  0  0  0  1  0  0  0  0  0  0
  180.6990  181.2540  138.9580 C   0  0  0  0  0  2  0  0  0  0  0  0
  181.0380  178.7580  138.4860 C   0  0  1  0  0  3  0  0  0  0  0  0
  184.5590  179.0440  143.9180 N   0  0  0  0  0  0  0  0  0  0  0  0
  182.3580  178.7400  142.2600 C   0  0  0  0  0  0  0  0  0  0  0  0
  182.1890  179.0030  143.6270 C   0  0  0  0  0  3  0  0  0  0  0  0
  183.3110  179.1540  144.4450 C   0  0  0  0  0  3  0  0  0  0  0  0
  184.7530  178.7850  142.5980 C   0  0  0  0  0  3  0  0  0  0  0  0
  183.6580  178.6290  141.7460 C   0  0  0  0  0  3  0  0  0  0  0  0
  1 12  1  0  0  0  0
  2 12  1  0  0  0  0
  2  6  2  0  0  0  0
  4 14  2  0  0  0  0
  5 13  1  0  0  0  0
  7 13  1  0  0  0  0
  7 11  2  0  0  0  0
  8 17  1  0  0  0  0
  8 10  1  0  0  0  0
  9  7  1  0  0  0  0
 10 19  1  6  0  0  0
 10 20  1  0  0  0  0
 11 16  1  0  0  0  0
 11 14  1  0  0  0  0
 12 23  1  0  0  0  0
 13  4  1  0  0  0  0
 14 18  1  0  0  0  0
 15 20  1  6  0  0  0
 15  1  1  0  0  0  0
 16  3  1  6  0  0  0
 16  2  1  0  0  0  0
 18  6  1  0  0  0  0
 21 17  1  6  0  0  0
 21  3  1  0  0  0  0
 21 15  1  0  0  0  0
 22 25  1  0  0  0  0
 23 24  1  0  0  0  0
 24 25  2  0  0  0  0
 26 22  2  0  0  0  0
 27 23  2  0  0  0  0
 27 26  1  0  0  0  0
M  END
>  <MODEL>
2

>  <REMARK>
 VINA RESULT:      -6.4      8.044      9.859
  Name = 
  1 active torsions:
  status: ('A' for Active; 'I' for Inactive)
    1  A    between atoms: C_9  and  N_15
                            x       y       z     vdW  Elec       q    Type
                         _______ _______ _______ _____ _____    ______ ____

>  <TORSDO>
F 1

$$$$
=
 OpenBabel11052413393D

 27 31  0  0  1  0  0  0  0  0999 V2000
  181.1340  178.1390  137.7450 N   0  0  0  0  0  2  0  0  0  0  0  0
  181.9280  179.3150  139.6980 C   0  0  0  0  0  0  0  0  0  0  0  0
  184.1370  178.6890  138.6100 C   0  0  0  0  0  2  0  0  0  0  0  0
  183.7050  178.3280  143.3070 N   0  0  0  0  0  0  0  0  0  0  0  0
  186.0550  178.1100  143.9590 C   0  0  0  0  0  1  0  0  0  0  0  0
  181.1510  179.0830  140.7280 N   0  0  0  0  0  0  0  0  0  0  0  0
  185.1550  178.6220  141.6800 C   0  0  0  0  0  0  0  0  0  0  0  0
  184.1470  175.3540  136.7600 C   0  0  0  0  0  2  0  0  0  0  0  0
  186.4670  178.8270  140.9990 C   0  0  0  0  0  1  0  0  0  0  0  0
  183.2130  175.7900  135.6480 C   0  0  1  0  0  3  0  0  0  0  0  0
  183.9050  178.7780  141.1210 C   0  0  0  0  0  0  0  0  0  0  0  0
  181.3570  179.3670  138.3910 N   0  0  0  0  0  0  0  0  0  0  0  0
  184.9940  178.3310  142.9910 N   0  0  0  0  0  0  0  0  0  0  0  0
  183.0500  178.6050  142.1640 C   0  0  0  0  0  0  0  0  0  0  0  0
  182.3670  177.6890  137.0910 C   0  0  2  0  0  3  0  0  0  0  0  0
  183.4450  179.3370  139.8120 C   0  0  2  0  0  3  0  0  0  0  0  0
  184.6450  176.5870  137.4920 C   0  0  0  0  0  2  0  0  0  0  0  0
  181.6520  178.8030  142.0160 N   0  0  0  0  0  2  0  0  0  0  0  0
  182.8110  174.6750  134.9160 O   0  0  0  0  0  1  0  0  0  0  0  0
  181.9960  176.4550  136.2650 C   0  0  0  0  0  2  0  0  0  0  0  0
  183.4990  177.3860  138.1200 C   0  0  1  0  0  3  0  0  0  0  0  0
  180.8220  183.0010  136.3290 N   0  0  0  0  0  0  0  0  0  0  0  0
  181.1780  180.6120  137.6900 C   0  0  0  0  0  0  0  0  0  0  0  0
  180.7670  180.6140  136.3490 C   0  0  0  0  0  3  0  0  0  0  0  0
  180.5950  181.8280  135.6810 C   0  0  0  0  0  3  0  0  0  0  0  0
  181.2180  183.0310  137.6290 C   0  0  0  0  0  3  0  0  0  0  0  0
  181.4030  181.8390  138.3320 C   0  0  0  0  0  3  0  0  0  0  0  0
  1 12  1  0  0  0  0
  2 16  1  0  0  0  0
  2  6  2  0  0  0  0
  6 18  1  0  0  0  0
  7 13  1  0  0  0  0
  8 17  1  0  0  0  0
  9  7  1  0  0  0  0
 10 19  1  1  0  0  0
 10 20  1  0  0  0  0
 10  8  1  0  0  0  0
 11  7  2  0  0  0  0
 11 14  1  0  0  0  0
 12  2  1  0  0  0  0
 13  4  1  0  0  0  0
 13  5  1  0  0  0  0
 14  4  2  0  0  0  0
 15 20  1  1  0  0  0
 15  1  1  0  0  0  0
 15 21  1  0  0  0  0
 16  3  1  6  0  0  0
 16 11  1  0  0  0  0
 18 14  1  0  0  0  0
 21 17  1  6  0  0  0
 21  3  1  0  0  0  0
 22 26  1  0  0  0  0
 23 27  1  0  0  0  0
 23 12  1  0  0  0  0
 24 23  2  0  0  0  0
 25 22  2  0  0  0  0
 25 24  1  0  0  0  0
 26 27  2  0  0  0  0
M  END
>  <MODEL>
3

>  <REMARK>
 VINA RESULT:      -6.0      6.145      9.561
  Name = 
  1 active torsions:
  status: ('A' for Active; 'I' for Inactive)
    1  A    between atoms: C_9  and  N_15
                            x       y       z     vdW  Elec       q    Type
                         _______ _______ _______ _____ _____    ______ ____

>  <TORSDO>
F 1

$$$$
=
 OpenBabel11052413393D

 27 31  0  0  1  0  0  0  0  0999 V2000
  181.4760  178.0420  140.3210 N   0  0  0  0  0  2  0  0  0  0  0  0
  183.4850  179.1910  139.6390 C   0  0  0  0  0  0  0  0  0  0  0  0
  183.0700  177.7420  137.5940 C   0  0  0  0  0  2  0  0  0  0  0  0
  187.4950  178.2580  139.1830 N   0  0  0  0  0  0  0  0  0  0  0  0
  188.7630  177.4120  137.2660 C   0  0  0  0  0  1  0  0  0  0  0  0
  184.2840  179.3760  140.6610 N   0  0  0  0  0  0  0  0  0  0  0  0
  186.2970  177.8270  137.3900 C   0  0  0  0  0  0  0  0  0  0  0  0
  181.5180  174.3330  138.3090 C   0  0  0  0  0  2  0  0  0  0  0  0
  185.9780  177.5010  135.9700 C   0  0  0  0  0  1  0  0  0  0  0  0
  180.1710  174.8660  138.7560 C   0  0  1  0  0  3  0  0  0  0  0  0
  185.4170  178.2820  138.3470 C   0  0  0  0  0  0  0  0  0  0  0  0
  182.0730  179.2200  139.8420 N   0  0  0  0  0  0  0  0  0  0  0  0
  187.5350  177.8060  137.9360 N   0  0  0  0  0  0  0  0  0  0  0  0
  186.2040  178.5490  139.4240 C   0  0  0  0  0  0  0  0  0  0  0  0
  181.2050  177.1320  139.2030 C   0  0  2  0  0  3  0  0  0  0  0  0
  183.9970  178.7510  138.2760 C   0  0  2  0  0  3  0  0  0  0  0  0
  182.2710  175.4430  137.5990 C   0  0  0  0  0  2  0  0  0  0  0  0
  185.6750  179.1530  140.5950 N   0  0  0  0  0  2  0  0  0  0  0  0
  179.4350  173.8360  139.3390 O   0  0  0  0  0  1  0  0  0  0  0  0
  180.3950  175.9670  139.7760 C   0  0  0  0  0  2  0  0  0  0  0  0
  182.5170  176.6480  138.5110 C   0  0  1  0  0  3  0  0  0  0  0  0
  179.7090  182.4840  138.6150 N   0  0  0  0  0  0  0  0  0  0  0  0
  181.2680  180.3360  139.4180 C   0  0  0  0  0  0  0  0  0  0  0  0
  180.0590  180.6220  140.0680 C   0  0  0  0  0  3  0  0  0  0  0  0
  179.2880  181.7080  139.6480 C   0  0  0  0  0  3  0  0  0  0  0  0
  180.8780  182.2330  137.9670 C   0  0  0  0  0  3  0  0  0  0  0  0
  181.6780  181.1570  138.3560 C   0  0  0  0  0  3  0  0  0  0  0  0
  2 12  1  0  0  0  0
  2  6  2  0  0  0  0
  4 14  2  0  0  0  0
  5 13  1  0  0  0  0
  7 13  1  0  0  0  0
  7 11  2  0  0  0  0
  8 10  1  0  0  0  0
  9  7  1  0  0  0  0
 10 19  1  1  0  0  0
 10 20  1  0  0  0  0
 11 14  1  0  0  0  0
 12  1  1  0  0  0  0
 13  4  1  0  0  0  0
 14 18  1  0  0  0  0
 15 20  1  1  0  0  0
 15  1  1  0  0  0  0
 16  3  1  1  0  0  0
 16 11  1  0  0  0  0
 16  2  1  0  0  0  0
 17  8  1  0  0  0  0
 17 21  1  0  0  0  0
 18  6  1  0  0  0  0
 21  3  1  6  0  0  0
 21 15  1  0  0  0  0
 22 25  1  0  0  0  0
 23 12  1  0  0  0  0
 23 24  1  0  0  0  0
 25 24  2  0  0  0  0
 26 27  1  0  0  0  0
 26 22  2  0  0  0  0
 27 23  2  0  0  0  0
M  END
>  <MODEL>
4

>  <REMARK>
 VINA RESULT:      -5.9      6.330      9.223
  Name = 
  1 active torsions:
  status: ('A' for Active; 'I' for Inactive)
    1  A    between atoms: C_9  and  N_15
                            x       y       z     vdW  Elec       q    Type
                         _______ _______ _______ _____ _____    ______ ____

>  <TORSDO>
F 1

$$$$
=
 OpenBabel11052413393D

 27 31  0  0  1  0  0  0  0  0999 V2000
  180.7500  177.7690  139.8690 N   0  0  0  0  0  2  0  0  0  0  0  0
  182.2320  179.0040  141.3190 C   0  0  0  0  0  0  0  0  0  0  0  0
  183.8530  178.3100  139.4900 C   0  0  0  0  0  2  0  0  0  0  0  0
  185.2620  178.1260  144.0030 N   0  0  0  0  0  0  0  0  0  0  0  0
  187.6820  177.9000  143.7100 C   0  0  0  0  0  1  0  0  0  0  0  0
  181.9110  178.8200  142.5760 N   0  0  0  0  0  0  0  0  0  0  0  0
  185.9740  178.3400  141.9340 C   0  0  0  0  0  0  0  0  0  0  0  0
  183.1570  174.9100  137.9090 C   0  0  0  0  0  2  0  0  0  0  0  0
  186.9230  178.5030  140.7940 C   0  0  0  0  0  1  0  0  0  0  0  0
  181.8670  175.3180  137.2260 C   0  0  1  0  0  3  0  0  0  0  0  0
  184.6050  178.4930  141.8930 C   0  0  0  0  0  0  0  0  0  0  0  0
  181.2020  179.0170  140.3310 N   0  0  0  0  0  0  0  0  0  0  0  0
  186.3300  178.0990  143.2160 N   0  0  0  0  0  0  0  0  0  0  0  0
  184.2170  178.3690  143.1900 C   0  0  0  0  0  0  0  0  0  0  0  0
  181.6380  177.2800  138.8080 C   0  0  2  0  0  3  0  0  0  0  0  0
  183.6750  179.0100  140.8400 C   0  0  2  0  0  3  0  0  0  0  0  0
  183.8960  176.1620  138.3460 C   0  0  0  0  0  2  0  0  0  0  0  0
  182.8690  178.5800  143.5830 N   0  0  0  0  0  2  0  0  0  0  0  0
  181.2160  174.1820  136.7480 O   0  0  0  0  0  1  0  0  0  0  0  0
  180.9790  176.0210  138.2360 C   0  0  0  0  0  2  0  0  0  0  0  0
  183.0790  176.9980  139.3340 C   0  0  1  0  0  3  0  0  0  0  0  0
  179.9330  182.5850  138.4860 N   0  0  0  0  0  0  0  0  0  0  0  0
  180.7650  180.2380  139.7050 C   0  0  0  0  0  0  0  0  0  0  0  0
  181.4760  180.7680  138.6190 C   0  0  0  0  0  3  0  0  0  0  0  0
  181.0410  181.9520  138.0200 C   0  0  0  0  0  3  0  0  0  0  0  0
  179.2210  182.0930  139.5350 C   0  0  0  0  0  3  0  0  0  0  0  0
  179.6230  180.9120  140.1620 C   0  0  0  0  0  3  0  0  0  0  0  0
  1 12  1  0  0  0  0
  2  6  2  0  0  0  0
  6 18  1  0  0  0  0
  7 13  1  0  0  0  0
  8 17  1  0  0  0  0
  9  7  1  0  0  0  0
 10 19  1  1  0  0  0
 10  8  1  0  0  0  0
 10 20  1  0  0  0  0
 11  7  2  0  0  0  0
 11 14  1  0  0  0  0
 12  2  1  0  0  0  0
 13  5  1  0  0  0  0
 13  4  1  0  0  0  0
 14 18  1  0  0  0  0
 14  4  2  0  0  0  0
 15 20  1  1  0  0  0
 15 21  1  0  0  0  0
 15  1  1  0  0  0  0
 16  3  1  6  0  0  0
 16  2  1  0  0  0  0
 16 11  1  0  0  0  0
 21 17  1  6  0  0  0
 21  3  1  0  0  0  0
 22 26  1  0  0  0  0
 23 27  1  0  0  0  0
 23 12  1  0  0  0  0
 24 23  2  0  0  0  0
 25 22  2  0  0  0  0
 25 24  1  0  0  0  0
 26 27  2  0  0  0  0
M  END
>  <MODEL>
5

>  <REMARK>
 VINA RESULT:      -5.9      6.692      9.709
  Name = 
  1 active torsions:
  status: ('A' for Active; 'I' for Inactive)
    1  A    between atoms: C_9  and  N_15
                            x       y       z     vdW  Elec       q    Type
                         _______ _______ _______ _____ _____    ______ ____

>  <TORSDO>
F 1

$$$$
=
 OpenBabel11052413393D

 27 31  0  0  1  0  0  0  0  0999 V2000
  182.4140  178.9270  137.5270 N   0  0  0  0  0  2  0  0  0  0  0  0
  183.6830  177.9350  139.3230 C   0  0  0  0  0  0  0  0  0  0  0  0
  181.5340  178.5160  140.5480 C   0  0  0  0  0  2  0  0  0  0  0  0
  185.6790  179.2550  142.7040 N   0  0  0  0  0  0  0  0  0  0  0  0
  184.9330  179.5780  145.0140 C   0  0  0  0  0  1  0  0  0  0  0  0
  184.9550  178.2340  139.2140 N   0  0  0  0  0  0  0  0  0  0  0  0
  183.5460  178.8600  143.0580 C   0  0  0  0  0  0  0  0  0  0  0  0
  179.7880  181.6860  139.3440 C   0  0  0  0  0  2  0  0  0  0  0  0
  182.2740  178.6280  143.8030 C   0  0  0  0  0  1  0  0  0  0  0  0
  179.3910  181.1390  137.9870 C   0  0  1  0  0  3  0  0  0  0  0  0
  183.7680  178.6310  141.7180 C   0  0  0  0  0  0  0  0  0  0  0  0
  182.9030  177.7620  138.1410 N   0  0  0  0  0  0  0  0  0  0  0  0
  184.7140  179.2550  143.6140 N   0  0  0  0  0  0  0  0  0  0  0  0
  185.0960  178.8710  141.5540 C   0  0  0  0  0  0  0  0  0  0  0  0
  181.1690  179.3480  138.1790 C   0  0  2  0  0  3  0  0  0  0  0  0
  182.9550  177.9550  140.6580 C   0  0  2  0  0  3  0  0  0  0  0  0
  180.2010  180.5290  140.2360 C   0  0  0  0  0  2  0  0  0  0  0  0
  185.7440  178.6310  140.3140 N   0  0  0  0  0  2  0  0  0  0  0  0
  178.9330  182.1810  137.1830 O   0  0  0  0  0  1  0  0  0  0  0  0
  180.6080  180.5010  137.3420 C   0  0  0  0  0  2  0  0  0  0  0  0
  181.3970  179.7600  139.6660 C   0  0  1  0  0  3  0  0  0  0  0  0
  181.6990  173.9490  136.8160 N   0  0  0  0  0  0  0  0  0  0  0  0
  182.4860  176.4600  137.6900 C   0  0  0  0  0  0  0  0  0  0  0  0
  183.2070  175.7960  136.6880 C   0  0  0  0  0  3  0  0  0  0  0  0
  182.7940  174.5320  136.2600 C   0  0  0  0  0  3  0  0  0  0  0  0
  180.9830  174.5670  137.7930 C   0  0  0  0  0  3  0  0  0  0  0  0
  181.3620  175.8310  138.2470 C   0  0  0  0  0  3  0  0  0  0  0  0
  1 12  1  0  0  0  0
  1 15  1  0  0  0  0
  2 16  1  0  0  0  0
  4 13  1  0  0  0  0
  6  2  2  0  0  0  0
  6 18  1  0  0  0  0
  7 13  1  0  0  0  0
  7  9  1  0  0  0  0
  8 17  1  0  0  0  0
 10 19  1  6  0  0  0
 10  8  1  0  0  0  0
 11  7  2  0  0  0  0
 12  2  1  0  0  0  0
 13  5  1  0  0  0  0
 14 11  1  0  0  0  0
 14  4  2  0  0  0  0
 15 20  1  6  0  0  0
 15 21  1  0  0  0  0
 16  3  1  6  0  0  0
 16 11  1  0  0  0  0
 18 14  1  0  0  0  0
 20 10  1  0  0  0  0
 21 17  1  1  0  0  0
 21  3  1  0  0  0  0
 22 26  1  0  0  0  0
 23 12  1  0  0  0  0
 23 27  1  0  0  0  0
 24 23  2  0  0  0  0
 25 24  1  0  0  0  0
 25 22  2  0  0  0  0
 26 27  2  0  0  0  0
M  END
>  <MODEL>
6

>  <REMARK>
 VINA RESULT:      -5.7      7.022     10.263
  Name = 
  1 active torsions:
  status: ('A' for Active; 'I' for Inactive)
    1  A    between atoms: C_9  and  N_15
                            x       y       z     vdW  Elec       q    Type
                         _______ _______ _______ _____ _____    ______ ____

>  <TORSDO>
F 1

$$$$
=
 OpenBabel11052413393D

 27 31  0  0  1  0  0  0  0  0999 V2000
  186.3080  178.9960  138.8920 N   0  0  0  0  0  2  0  0  0  0  0  0
  183.9490  179.2630  139.3230 C   0  0  0  0  0  0  0  0  0  0  0  0
  183.9790  176.9030  138.3810 C   0  0  0  0  0  2  0  0  0  0  0  0
  180.5140  179.8520  137.0850 N   0  0  0  0  0  0  0  0  0  0  0  0
  178.9310  178.2730  136.0860 C   0  0  0  0  0  1  0  0  0  0  0  0
  183.5690  180.4940  139.0840 N   0  0  0  0  0  0  0  0  0  0  0  0
  181.0310  177.7290  137.3340 C   0  0  0  0  0  0  0  0  0  0  0  0
  186.6030  176.2640  135.6890 C   0  0  0  0  0  2  0  0  0  0  0  0
  180.8800  176.2450  137.3200 C   0  0  0  0  0  1  0  0  0  0  0  0
  187.8020  176.3900  136.6080 C   0  0  1  0  0  3  0  0  0  0  0  0
  182.0300  178.4490  137.9520 C   0  0  0  0  0  0  0  0  0  0  0  0
  185.2620  179.0230  139.8290 N   0  0  0  0  0  0  0  0  0  0  0  0
  180.1480  178.6070  136.8060 N   0  0  0  0  0  0  0  0  0  0  0  0
  181.6580  179.7460  137.7850 C   0  0  0  0  0  0  0  0  0  0  0  0
  186.3970  177.6640  138.2830 C   0  0  2  0  0  3  0  0  0  0  0  0
  183.1200  178.0590  138.9010 C   0  0  2  0  0  3  0  0  0  0  0  0
  185.3530  176.1090  136.5350 C   0  0  0  0  0  2  0  0  0  0  0  0
  182.3820  180.8080  138.3890 N   0  0  0  0  0  2  0  0  0  0  0  0
  188.9670  176.4520  135.8450 O   0  0  0  0  0  1  0  0  0  0  0  0
  187.6630  177.6630  137.4220 C   0  0  0  0  0  2  0  0  0  0  0  0
  185.1240  177.3140  137.4520 C   0  0  1  0  0  3  0  0  0  0  0  0
  185.9140  177.9360  143.8460 N   0  0  0  0  0  0  0  0  0  0  0  0
  185.4910  178.6530  141.2010 C   0  0  0  0  0  0  0  0  0  0  0  0
  184.4300  178.6530  142.1180 C   0  0  0  0  0  3  0  0  0  0  0  0
  184.6640  178.2900  143.4460 C   0  0  0  0  0  3  0  0  0  0  0  0
  186.9610  177.9240  142.9790 C   0  0  0  0  0  3  0  0  0  0  0  0
  186.7690  178.2810  141.6430 C   0  0  0  0  0  3  0  0  0  0  0  0
  1 12  1  0  0  0  0
  2 12  1  0  0  0  0
  4 14  2  0  0  0  0
  5 13  1  0  0  0  0
  6  2  2  0  0  0  0
  7 11  2  0  0  0  0
  8 17  1  0  0  0  0
  8 10  1  0  0  0  0
  9  7  1  0  0  0  0
 10 19  1  6  0  0  0
 10 20  1  0  0  0  0
 11 16  1  0  0  0  0
 12 23  1  0  0  0  0
 13  4  1  0  0  0  0
 13  7  1  0  0  0  0
 14 11  1  0  0  0  0
 14 18  1  0  0  0  0
 15 20  1  6  0  0  0
 15  1  1  0  0  0  0
 16  3  1  6  0  0  0
 16  2  1  0  0  0  0
 18  6  1  0  0  0  0
 21 17  1  6  0  0  0
 21 15  1  0  0  0  0
 21  3  1  0  0  0  0
 23 27  2  0  0  0  0
 23 24  1  0  0  0  0
 24 25  2  0  0  0  0
 25 22  1  0  0  0  0
 26 22  2  0  0  0  0
 27 26  1  0  0  0  0
M  END
>  <MODEL>
7

>  <REMARK>
 VINA RESULT:      -5.6      4.514      6.028
  Name = 
  1 active torsions:
  status: ('A' for Active; 'I' for Inactive)
    1  A    between atoms: C_9  and  N_15
                            x       y       z     vdW  Elec       q    Type
                         _______ _______ _______ _____ _____    ______ ____

>  <TORSDO>
F 1

$$$$
=
 OpenBabel11052413393D

 27 31  0  0  1  0  0  0  0  0999 V2000
  179.5760  178.1210  139.1730 N   0  0  0  0  0  2  0  0  0  0  0  0
  180.7680  179.4490  140.7980 C   0  0  0  0  0  0  0  0  0  0  0  0
  182.7130  178.3450  139.5920 C   0  0  0  0  0  2  0  0  0  0  0  0
  182.8710  178.7700  144.3010 N   0  0  0  0  0  0  0  0  0  0  0  0
  185.2390  178.3080  144.7150 C   0  0  0  0  0  1  0  0  0  0  0  0
  180.1120  179.4940  141.9320 N   0  0  0  0  0  0  0  0  0  0  0  0
  184.1160  178.5950  142.4970 C   0  0  0  0  0  0  0  0  0  0  0  0
  182.0480  174.8030  138.3440 C   0  0  0  0  0  2  0  0  0  0  0  0
  185.3400  178.4970  141.6500 C   0  0  0  0  0  1  0  0  0  0  0  0
  181.0380  175.1990  137.2850 C   0  0  1  0  0  3  0  0  0  0  0  0
  182.8330  178.8480  142.0630 C   0  0  0  0  0  0  0  0  0  0  0  0
  180.0390  179.3860  139.5720 N   0  0  0  0  0  0  0  0  0  0  0  0
  184.0950  178.5330  143.8480 N   0  0  0  0  0  0  0  0  0  0  0  0
  182.1100  178.9630  143.2080 C   0  0  0  0  0  0  0  0  0  0  0  0
  180.6430  177.3990  138.4710 C   0  0  2  0  0  3  0  0  0  0  0  0
  182.2770  179.2630  140.7370 C   0  0  2  0  0  3  0  0  0  0  0  0
  182.7930  176.0460  138.7970 C   0  0  0  0  0  2  0  0  0  0  0  0
  180.7410  179.3420  143.1850 N   0  0  0  0  0  2  0  0  0  0  0  0
  180.4010  174.0570  136.8020 O   0  0  0  0  0  1  0  0  0  0  0  0
  180.0100  176.1230  137.9120 C   0  0  0  0  0  2  0  0  0  0  0  0
  181.8540  177.0910  139.4050 C   0  0  1  0  0  3  0  0  0  0  0  0
  179.7120  182.7220  137.0210 N   0  0  0  0  0  0  0  0  0  0  0  0
  179.9290  180.5230  138.6960 C   0  0  0  0  0  0  0  0  0  0  0  0
  179.1830  181.6440  139.0850 C   0  0  0  0  0  3  0  0  0  0  0  0
  179.0850  182.7410  138.2260 C   0  0  0  0  0  3  0  0  0  0  0  0
  180.4460  181.6500  136.6180 C   0  0  0  0  0  3  0  0  0  0  0  0
  180.5670  180.5330  137.4470 C   0  0  0  0  0  3  0  0  0  0  0  0
  1 12  1  0  0  0  0
  2  6  2  0  0  0  0
  6 18  1  0  0  0  0
  7 13  1  0  0  0  0
  8 17  1  0  0  0  0
  9  7  1  0  0  0  0
 10 19  1  1  0  0  0
 10 20  1  0  0  0  0
 10  8  1  0  0  0  0
 11  7  2  0  0  0  0
 11 14  1  0  0  0  0
 12  2  1  0  0  0  0
 13  4  1  0  0  0  0
 13  5  1  0  0  0  0
 14  4  2  0  0  0  0
 15 20  1  1  0  0  0
 15  1  1  0  0  0  0
 15 21  1  0  0  0  0
 16  3  1  6  0  0  0
 16  2  1  0  0  0  0
 16 11  1  0  0  0  0
 18 14  1  0  0  0  0
 21 17  1  6  0  0  0
 21  3  1  0  0  0  0
 22 25  1  0  0  0  0
 23 24  1  0  0  0  0
 23 12  1  0  0  0  0
 25 24  2  0  0  0  0
 26 22  2  0  0  0  0
 26 27  1  0  0  0  0
 27 23  2  0  0  0  0
M  END
>  <MODEL>
8

>  <REMARK>
 VINA RESULT:      -5.5      7.554     10.757
  Name = 
  1 active torsions:
  status: ('A' for Active; 'I' for Inactive)
    1  A    between atoms: C_9  and  N_15
                            x       y       z     vdW  Elec       q    Type
                         _______ _______ _______ _____ _____    ______ ____

>  <TORSDO>
F 1

$$$$
=
 OpenBabel11052413393D

 27 31  0  0  1  0  0  0  0  0999 V2000
  190.8240  175.4160  139.0360 N   0  0  0  0  0  2  0  0  0  0  0  0
  189.4830  174.8570  137.1090 C   0  0  0  0  0  0  0  0  0  0  0  0
  188.6110  177.1900  137.6130 C   0  0  0  0  0  2  0  0  0  0  0  0
  185.5440  173.8110  136.3670 N   0  0  0  0  0  0  0  0  0  0  0  0
  183.5690  175.1640  135.8540 C   0  0  0  0  0  1  0  0  0  0  0  0
  189.1680  173.5850  137.1150 N   0  0  0  0  0  0  0  0  0  0  0  0
  185.8740  175.9850  136.3780 C   0  0  0  0  0  0  0  0  0  0  0  0
  188.5220  178.1250  141.3090 C   0  0  0  0  0  2  0  0  0  0  0  0
  185.6120  177.4380  136.1640 C   0  0  0  0  0  1  0  0  0  0  0  0
  190.0250  178.1630  141.4960 C   0  0  1  0  0  3  0  0  0  0  0  0
  187.0850  175.4050  136.6900 C   0  0  0  0  0  0  0  0  0  0  0  0
  190.7420  175.2680  137.6410 N   0  0  0  0  0  0  0  0  0  0  0  0
  184.9670  174.9960  136.2120 N   0  0  0  0  0  0  0  0  0  0  0  0
  186.8330  174.0690  136.6540 C   0  0  0  0  0  0  0  0  0  0  0  0
  190.3290  176.7410  139.4260 C   0  0  2  0  0  3  0  0  0  0  0  0
  188.4810  175.9410  136.7380 C   0  0  2  0  0  3  0  0  0  0  0  0
  188.2140  178.1300  139.8230 C   0  0  0  0  0  2  0  0  0  0  0  0
  187.8730  173.1150  136.8110 N   0  0  0  0  0  2  0  0  0  0  0  0
  190.3220  178.2400  142.8560 O   0  0  0  0  0  1  0  0  0  0  0  0
  190.6220  176.8920  140.9200 C   0  0  0  0  0  2  0  0  0  0  0  0
  188.8120  176.9170  139.1060 C   0  0  1  0  0  3  0  0  0  0  0  0
  193.9290  176.4710  135.1640 N   0  0  0  0  0  0  0  0  0  0  0  0
  191.8270  175.6800  136.7900 C   0  0  0  0  0  0  0  0  0  0  0  0
  193.0510  176.0760  137.3490 C   0  0  0  0  0  3  0  0  0  0  0  0
  194.0970  176.4720  136.5130 C   0  0  0  0  0  3  0  0  0  0  0  0
  192.7560  176.0880  134.5930 C   0  0  0  0  0  3  0  0  0  0  0  0
  191.6860  175.6870  135.3950 C   0  0  0  0  0  3  0  0  0  0  0  0
  1 15  1  0  0  0  0
  2  6  2  0  0  0  0
  2 12  1  0  0  0  0
  4 14  2  0  0  0  0
  5 13  1  0  0  0  0
  7 11  2  0  0  0  0
  8 10  1  0  0  0  0
  9  7  1  0  0  0  0
 10 19  1  1  0  0  0
 11 16  1  0  0  0  0
 12  1  1  0  0  0  0
 13  4  1  0  0  0  0
 13  7  1  0  0  0  0
 14 11  1  0  0  0  0
 14 18  1  0  0  0  0
 15 20  1  1  0  0  0
 16  2  1  0  0  0  0
 16  3  1  1  0  0  0
 17  8  1  0  0  0  0
 18  6  1  0  0  0  0
 20 10  1  0  0  0  0
 21  3  1  6  0  0  0
 21 15  1  0  0  0  0
 21 17  1  0  0  0  0
 22 25  1  0  0  0  0
 23 24  1  0  0  0  0
 23 12  1  0  0  0  0
 25 24  2  0  0  0  0
 26 22  2  0  0  0  0
 26 27  1  0  0  0  0
 27 23  2  0  0  0  0
M  END
>  <MODEL>
9

>  <REMARK>
 VINA RESULT:      -5.4      2.721      5.191
  Name = 
  1 active torsions:
  status: ('A' for Active; 'I' for Inactive)
    1  A    between atoms: C_9  and  N_15
                            x       y       z     vdW  Elec       q    Type
                         _______ _______ _______ _____ _____    ______ ____

>  <TORSDO>
F 1

$$$$
