=
 OpenBabel11052414403D

 32 37  0  0  1  0  0  0  0  0999 V2000
  189.7310  177.6730  141.3530 C   0  0  0  0  0  0  0  0  0  0  0  0
  187.6500  178.0340  142.5830 C   0  0  0  0  0  0  0  0  0  0  0  0
  191.1240  177.3170  141.3200 N   0  0  0  0  0  2  0  0  0  0  0  0
  189.0880  177.7150  142.5290 C   0  0  0  0  0  0  0  0  0  0  0  0
  186.9920  177.9710  143.7660 C   0  0  0  0  0  0  0  0  0  0  0  0
  183.2430  178.8710  140.5540 C   0  0  0  0  0  2  0  0  0  0  0  0
  186.9550  178.3790  141.3200 C   0  0  0  0  0  0  0  0  0  0  0  0
  183.6340  179.4640  142.8450 O   0  0  0  0  0  0  0  0  0  0  0  0
  185.0250  179.1780  142.7590 C   0  0  1  0  0  3  0  0  0  0  0  0
  187.0270  177.5150  146.2190 C   0  0  0  0  0  3  0  0  0  0  0  0
  189.7940  177.3550  143.7660 C   0  0  0  0  0  0  0  0  0  0  0  0
  185.4890  178.1840  143.8230 C   0  0  0  0  0  2  0  0  0  0  0  0
  189.1220  177.2890  144.9150 C   0  0  0  0  0  3  0  0  0  0  0  0
  191.1840  177.0320  143.7090 N   0  0  0  0  0  2  0  0  0  0  0  0
  187.6220  178.3130  140.1630 C   0  0  0  0  0  3  0  0  0  0  0  0
  187.6320  177.1890  147.2750 O   0  0  0  0  0  0  0  0  0  0  0  0
  189.0150  177.9380  140.1290 N   0  0  0  0  0  0  0  0  0  0  0  0
  185.5410  178.7780  141.3910 C   0  0  0  0  0  0  0  0  0  0  0  0
  187.7140  177.5920  144.9640 N   0  0  0  0  0  0  0  0  0  0  0  0
  191.9630  177.3650  142.5190 C   0  0  0  0  0  2  0  0  0  0  0  0
  182.8940  178.5980  142.0130 C   0  0  0  0  0  2  0  0  0  0  0  0
  184.7000  178.6060  140.3680 C   0  0  0  0  0  3  0  0  0  0  0  0
  188.1540  177.7960  136.8320 N   0  0  0  0  0  0  0  0  0  0  0  0
  189.3640  176.1370  135.4960 C   0  0  0  0  0  1  0  0  0  0  0  0
  188.8270  175.6710  137.9020 C   0  0  0  0  0  2  0  0  0  0  0  0
  189.7190  177.8390  138.8490 C   0  0  1  0  0  3  0  0  0  0  0  0
  190.0390  176.3840  138.4980 C   0  0  0  0  0  2  0  0  0  0  0  0
  188.9680  178.5440  137.7540 C   0  0  0  0  0  0  0  0  0  0  0  0
  189.0060  179.8010  137.6950 O   0  0  0  0  0  0  0  0  0  0  0  0
  188.3660  176.3640  136.6200 C   0  0  1  0  0  3  0  0  0  0  0  0
  186.1040  177.6170  135.7320 O   0  0  0  0  0  1  0  0  0  0  0  0
  187.1720  178.4750  135.9960 C   0  0  0  0  0  2  0  0  0  0  0  0
  1  4  2  0  0  0  0
  2  5  2  0  0  0  0
  3  1  1  0  0  0  0
  3 20  1  0  0  0  0
  4  2  1  0  0  0  0
  4 11  1  0  0  0  0
  5 12  1  0  0  0  0
  5 19  1  0  0  0  0
  6 21  1  0  0  0  0
  7 18  1  0  0  0  0
  7  2  1  0  0  0  0
  9  8  1  0  0  0  0
  9 12  1  1  0  0  0
 10 16  2  0  0  0  0
 11 13  2  0  0  0  0
 13 19  1  0  0  0  0
 14 11  1  0  0  0  0
 15  7  2  0  0  0  0
 17 15  1  0  0  0  0
 17  1  1  0  0  0  0
 18  9  1  0  0  0  0
 19 10  1  0  0  0  0
 20 14  1  0  0  0  0
 21  8  1  0  0  0  0
 22  6  1  0  0  0  0
 22 18  2  0  0  0  0
 23 28  1  0  0  0  0
 25 27  1  0  0  0  0
 26 27  1  6  0  0  0
 26 17  1  0  0  0  0
 28 26  1  0  0  0  0
 29 28  2  0  0  0  0
 30 24  1  6  0  0  0
 30 23  1  0  0  0  0
 30 25  1  0  0  0  0
 31 32  1  0  0  0  0
 32 23  1  0  0  0  0
M  END
>  <MODEL>
1

>  <REMARK>
 VINA RESULT:      -9.5      0.000      0.000
  Name = 
  2 active torsions:
  status: ('A' for Active; 'I' for Inactive)
    1  A    between atoms: N_3  and  C_19
    2  A    between atoms: C_16  and  N_27
                            x       y       z     vdW  Elec       q    Type
                         _______ _______ _______ _____ _____    ______ ____

>  <TORSDO>
F 2

$$$$
=
 OpenBabel11052414403D

 32 37  0  0  1  0  0  0  0  0999 V2000
  184.5430  178.6550  143.1040 C   0  0  0  0  0  0  0  0  0  0  0  0
  186.7730  177.9190  143.7830 C   0  0  0  0  0  0  0  0  0  0  0  0
  183.2250  179.1300  143.4280 N   0  0  0  0  0  2  0  0  0  0  0  0
  185.4020  178.3640  144.0920 C   0  0  0  0  0  0  0  0  0  0  0  0
  187.6590  177.7290  144.7900 C   0  0  0  0  0  0  0  0  0  0  0  0
  190.5450  177.0570  140.7380 C   0  0  0  0  0  2  0  0  0  0  0  0
  187.1510  177.7300  142.3620 C   0  0  0  0  0  0  0  0  0  0  0  0
  190.5590  176.1280  142.9500 O   0  0  0  0  0  0  0  0  0  0  0  0
  189.2240  176.5420  143.2130 C   0  0  1  0  0  3  0  0  0  0  0  0
  188.1780  177.7730  147.2300 C   0  0  0  0  0  3  0  0  0  0  0  0
  185.0090  178.5730  145.4910 C   0  0  0  0  0  0  0  0  0  0  0  0
  189.1070  177.3820  144.4840 C   0  0  0  0  0  2  0  0  0  0  0  0
  185.9030  178.3910  146.4620 C   0  0  0  0  0  3  0  0  0  0  0  0
  183.6860  179.0190  145.7870 N   0  0  0  0  0  2  0  0  0  0  0  0
  186.2760  178.0440  141.4010 C   0  0  0  0  0  3  0  0  0  0  0  0
  187.8430  177.9710  148.4280 O   0  0  0  0  0  0  0  0  0  0  0  0
  184.9590  178.5370  141.7270 N   0  0  0  0  0  0  0  0  0  0  0  0
  188.4920  177.2050  142.0640 C   0  0  0  0  0  0  0  0  0  0  0  0
  187.2470  177.9640  146.1580 N   0  0  0  0  0  0  0  0  0  0  0  0
  182.6470  178.9560  144.7620 C   0  0  0  0  0  2  0  0  0  0  0  0
  191.2130  177.0530  142.1100 C   0  0  0  0  0  2  0  0  0  0  0  0
  189.1220  177.4720  140.9160 C   0  0  0  0  0  3  0  0  0  0  0  0
  183.3490  176.9390  139.1800 N   0  0  0  0  0  0  0  0  0  0  0  0
  183.3500  178.1140  137.0300 C   0  0  0  0  0  1  0  0  0  0  0  0
  185.3190  178.3040  138.5730 C   0  0  0  0  0  2  0  0  0  0  0  0
  184.0270  178.9070  140.6600 C   0  0  1  0  0  3  0  0  0  0  0  0
  184.7660  179.4400  139.4310 C   0  0  0  0  0  2  0  0  0  0  0  0
  183.0980  177.7720  140.3270 C   0  0  0  0  0  0  0  0  0  0  0  0
  182.1370  177.5180  141.1000 O   0  0  0  0  0  0  0  0  0  0  0  0
  184.1910  177.4000  138.0760 C   0  0  1  0  0  3  0  0  0  0  0  0
  183.4440  174.8020  138.2490 O   0  0  0  0  0  1  0  0  0  0  0  0
  182.6720  175.6570  139.0370 C   0  0  0  0  0  2  0  0  0  0  0  0
  1  3  1  0  0  0  0
  1  4  2  0  0  0  0
  2  4  1  0  0  0  0
  2  5  2  0  0  0  0
  3 20  1  0  0  0  0
  4 11  1  0  0  0  0
  5 19  1  0  0  0  0
  6 22  1  0  0  0  0
  6 21  1  0  0  0  0
  7  2  1  0  0  0  0
  8  9  1  0  0  0  0
  9 12  1  1  0  0  0
 10 16  2  0  0  0  0
 11 14  1  0  0  0  0
 11 13  2  0  0  0  0
 12  5  1  0  0  0  0
 15 17  1  0  0  0  0
 15  7  2  0  0  0  0
 17  1  1  0  0  0  0
 18  7  1  0  0  0  0
 18  9  1  0  0  0  0
 19 13  1  0  0  0  0
 19 10  1  0  0  0  0
 20 14  1  0  0  0  0
 21  8  1  0  0  0  0
 22 18  2  0  0  0  0
 23 28  1  0  0  0  0
 25 27  1  0  0  0  0
 26 27  1  6  0  0  0
 26 17  1  0  0  0  0
 28 26  1  0  0  0  0
 28 29  2  0  0  0  0
 30 24  1  6  0  0  0
 30 25  1  0  0  0  0
 30 23  1  0  0  0  0
 31 32  1  0  0  0  0
 32 23  1  0  0  0  0
M  END
>  <MODEL>
2

>  <REMARK>
 VINA RESULT:      -9.2      3.034      5.484
  Name = 
  2 active torsions:
  status: ('A' for Active; 'I' for Inactive)
    1  A    between atoms: N_3  and  C_19
    2  A    between atoms: C_16  and  N_27
                            x       y       z     vdW  Elec       q    Type
                         _______ _______ _______ _____ _____    ______ ____

>  <TORSDO>
F 2

$$$$
=
 OpenBabel11052414403D

 32 37  0  0  1  0  0  0  0  0999 V2000
  187.1350  178.2730  139.7390 C   0  0  0  0  0  0  0  0  0  0  0  0
  187.2190  178.2000  142.1810 C   0  0  0  0  0  0  0  0  0  0  0  0
  187.7630  178.1020  138.4560 N   0  0  0  0  0  2  0  0  0  0  0  0
  187.8510  178.0750  140.8560 C   0  0  0  0  0  0  0  0  0  0  0  0
  187.9280  177.8960  143.2950 C   0  0  0  0  0  0  0  0  0  0  0  0
  183.3560  178.7400  145.1870 C   0  0  0  0  0  2  0  0  0  0  0  0
  185.7990  178.6220  142.2490 C   0  0  0  0  0  0  0  0  0  0  0  0
  185.5780  179.0650  146.0290 O   0  0  0  0  0  0  0  0  0  0  0  0
  186.1630  178.9700  144.7350 C   0  0  1  0  0  3  0  0  0  0  0  0
  190.0580  177.1240  144.3380 C   0  0  0  0  0  3  0  0  0  0  0  0
  189.2520  177.6440  140.7630 C   0  0  0  0  0  0  0  0  0  0  0  0
  187.2600  177.9090  144.6600 C   0  0  0  0  0  2  0  0  0  0  0  0
  189.9250  177.3410  141.8730 C   0  0  0  0  0  3  0  0  0  0  0  0
  189.8590  177.5090  139.4780 N   0  0  0  0  0  2  0  0  0  0  0  0
  185.1100  178.7960  141.1170 C   0  0  0  0  0  3  0  0  0  0  0  0
  191.2540  176.7380  144.2540 O   0  0  0  0  0  0  0  0  0  0  0  0
  185.7350  178.6070  139.8300 N   0  0  0  0  0  0  0  0  0  0  0  0
  185.1970  178.8260  143.5760 C   0  0  0  0  0  0  0  0  0  0  0  0
  189.3010  177.4550  143.1680 N   0  0  0  0  0  0  0  0  0  0  0  0
  189.2180  178.0940  138.3030 C   0  0  0  0  0  2  0  0  0  0  0  0
  184.4440  178.2320  146.1270 C   0  0  0  0  0  2  0  0  0  0  0  0
  183.8860  178.6880  143.7920 C   0  0  0  0  0  3  0  0  0  0  0  0
  182.4460  179.0080  139.0190 N   0  0  0  0  0  0  0  0  0  0  0  0
  181.6570  177.6720  137.1230 C   0  0  0  0  0  1  0  0  0  0  0  0
  183.4180  176.7630  138.6610 C   0  0  0  0  0  2  0  0  0  0  0  0
  184.9540  178.7700  138.6020 C   0  0  1  0  0  3  0  0  0  0  0  0
  184.6140  177.4180  137.9720 C   0  0  0  0  0  2  0  0  0  0  0  0
  183.7360  179.6190  138.8350 C   0  0  0  0  0  0  0  0  0  0  0  0
  183.8680  180.8680  138.9350 O   0  0  0  0  0  0  0  0  0  0  0  0
  182.1780  177.6480  138.5510 C   0  0  1  0  0  3  0  0  0  0  0  0
  181.1510  179.4330  140.9120 O   0  0  0  0  0  1  0  0  0  0  0  0
  181.3370  179.7750  139.5720 C   0  0  0  0  0  2  0  0  0  0  0  0
  1 17  1  0  0  0  0
  1  4  2  0  0  0  0
  2  7  1  0  0  0  0
  2  5  2  0  0  0  0
  3  1  1  0  0  0  0
  4  2  1  0  0  0  0
  5 12  1  0  0  0  0
  6 21  1  0  0  0  0
  7 18  1  0  0  0  0
  8 21  1  0  0  0  0
  9 12  1  1  0  0  0
  9  8  1  0  0  0  0
 11  4  1  0  0  0  0
 11 13  2  0  0  0  0
 13 19  1  0  0  0  0
 14 11  1  0  0  0  0
 15  7  2  0  0  0  0
 16 10  2  0  0  0  0
 17 15  1  0  0  0  0
 18 22  2  0  0  0  0
 18  9  1  0  0  0  0
 19  5  1  0  0  0  0
 19 10  1  0  0  0  0
 20  3  1  0  0  0  0
 20 14  1  0  0  0  0
 22  6  1  0  0  0  0
 23 32  1  0  0  0  0
 26 27  1  1  0  0  0
 26 28  1  0  0  0  0
 26 17  1  0  0  0  0
 27 25  1  0  0  0  0
 28 29  2  0  0  0  0
 28 23  1  0  0  0  0
 30 24  1  6  0  0  0
 30 25  1  0  0  0  0
 30 23  1  0  0  0  0
 32 31  1  0  0  0  0
M  END
>  <MODEL>
3

>  <REMARK>
 VINA RESULT:      -9.2      2.445      4.467
  Name = 
  2 active torsions:
  status: ('A' for Active; 'I' for Inactive)
    1  A    between atoms: N_3  and  C_19
    2  A    between atoms: C_16  and  N_27
                            x       y       z     vdW  Elec       q    Type
                         _______ _______ _______ _____ _____    ______ ____

>  <TORSDO>
F 2

$$$$
=
 OpenBabel11052414403D

 32 37  0  0  1  0  0  0  0  0999 V2000
  186.1250  178.4850  140.2480 C   0  0  0  0  0  0  0  0  0  0  0  0
  186.9980  178.0610  142.4910 C   0  0  0  0  0  0  0  0  0  0  0  0
  185.0630  178.9000  139.3720 N   0  0  0  0  0  2  0  0  0  0  0  0
  185.9110  178.4400  141.5710 C   0  0  0  0  0  0  0  0  0  0  0  0
  186.7960  178.1210  143.8300 C   0  0  0  0  0  0  0  0  0  0  0  0
  191.6810  176.9940  143.5790 C   0  0  0  0  0  2  0  0  0  0  0  0
  188.3040  177.6600  141.9150 C   0  0  0  0  0  0  0  0  0  0  0  0
  189.9410  176.4660  145.1440 O   0  0  0  0  0  0  0  0  0  0  0  0
  188.9090  176.8100  144.2270 C   0  0  1  0  0  3  0  0  0  0  0  0
  185.2880  178.6290  145.7510 C   0  0  0  0  0  3  0  0  0  0  0  0
  184.6140  178.8560  142.1190 C   0  0  0  0  0  0  0  0  0  0  0  0
  187.9380  177.8450  144.7930 C   0  0  0  0  0  2  0  0  0  0  0  0
  184.4440  178.9170  143.4390 C   0  0  0  0  0  3  0  0  0  0  0  0
  183.5670  179.2370  141.2260 N   0  0  0  0  0  2  0  0  0  0  0  0
  188.4890  177.7310  140.5930 C   0  0  0  0  0  3  0  0  0  0  0  0
  184.1800  179.0030  146.2180 O   0  0  0  0  0  0  0  0  0  0  0  0
  187.4280  178.1640  139.7160 N   0  0  0  0  0  0  0  0  0  0  0  0
  189.3580  177.2020  142.8340 C   0  0  0  0  0  0  0  0  0  0  0  0
  185.5110  178.5550  144.3380 N   0  0  0  0  0  0  0  0  0  0  0  0
  183.6650  178.9130  139.8050 C   0  0  0  0  0  2  0  0  0  0  0  0
  191.0750  177.2820  144.9490 C   0  0  0  0  0  2  0  0  0  0  0  0
  190.6560  177.3170  142.5410 C   0  0  0  0  0  3  0  0  0  0  0  0
  188.4670  176.0850  137.2200 N   0  0  0  0  0  0  0  0  0  0  0  0
  190.0950  177.0420  135.6600 C   0  0  0  0  0  1  0  0  0  0  0  0
  190.1190  177.7130  138.0770 C   0  0  0  0  0  2  0  0  0  0  0  0
  187.6600  178.2670  138.2740 C   0  0  1  0  0  3  0  0  0  0  0  0
  189.0590  178.8070  137.9700 C   0  0  0  0  0  2  0  0  0  0  0  0
  187.3840  176.9610  137.5810 C   0  0  0  0  0  0  0  0  0  0  0  0
  186.1900  176.6150  137.3790 O   0  0  0  0  0  0  0  0  0  0  0  0
  189.8360  176.5850  137.0860 C   0  0  1  0  0  3  0  0  0  0  0  0
  189.2990  173.9050  137.2190 O   0  0  0  0  0  1  0  0  0  0  0  0
  188.2060  174.6960  136.8640 C   0  0  0  0  0  2  0  0  0  0  0  0
  1  4  2  0  0  0  0
  2  5  2  0  0  0  0
  3 20  1  0  0  0  0
  3  1  1  0  0  0  0
  4 11  1  0  0  0  0
  4  2  1  0  0  0  0
  5 19  1  0  0  0  0
  5 12  1  0  0  0  0
  6 21  1  0  0  0  0
  7  2  1  0  0  0  0
  7 18  1  0  0  0  0
  9 12  1  1  0  0  0
  9  8  1  0  0  0  0
 10 16  2  0  0  0  0
 11 13  2  0  0  0  0
 13 19  1  0  0  0  0
 14 11  1  0  0  0  0
 15  7  2  0  0  0  0
 17  1  1  0  0  0  0
 17 15  1  0  0  0  0
 18  9  1  0  0  0  0
 19 10  1  0  0  0  0
 20 14  1  0  0  0  0
 21  8  1  0  0  0  0
 22 18  2  0  0  0  0
 22  6  1  0  0  0  0
 23 28  1  0  0  0  0
 26 27  1  1  0  0  0
 26 17  1  0  0  0  0
 27 25  1  0  0  0  0
 28 26  1  0  0  0  0
 29 28  2  0  0  0  0
 30 24  1  6  0  0  0
 30 23  1  0  0  0  0
 30 25  1  0  0  0  0
 32 31  1  0  0  0  0
 32 23  1  0  0  0  0
M  END
>  <MODEL>
4

>  <REMARK>
 VINA RESULT:      -9.2      2.129      4.698
  Name = 
  2 active torsions:
  status: ('A' for Active; 'I' for Inactive)
    1  A    between atoms: N_3  and  C_19
    2  A    between atoms: C_16  and  N_27
                            x       y       z     vdW  Elec       q    Type
                         _______ _______ _______ _____ _____    ______ ____

>  <TORSDO>
F 2

$$$$
=
 OpenBabel11052414403D

 32 37  0  0  1  0  0  0  0  0999 V2000
  186.6820  178.3600  144.7860 C   0  0  0  0  0  0  0  0  0  0  0  0
  185.2530  178.6510  142.8250 C   0  0  0  0  0  0  0  0  0  0  0  0
  186.8530  178.2620  146.2110 N   0  0  0  0  0  2  0  0  0  0  0  0
  185.4600  178.5930  144.2820 C   0  0  0  0  0  0  0  0  0  0  0  0
  183.9980  178.7840  142.3300 C   0  0  0  0  0  0  0  0  0  0  0  0
  186.6870  178.1260  138.1440 C   0  0  0  0  0  2  0  0  0  0  0  0
  186.4330  178.5240  141.9370 C   0  0  0  0  0  0  0  0  0  0  0  0
  184.6920  179.3580  138.6500 O   0  0  0  0  0  0  0  0  0  0  0  0
  184.9310  179.3130  140.0520 C   0  0  1  0  0  3  0  0  0  0  0  0
  181.5450  179.0000  142.7320 C   0  0  0  0  0  3  0  0  0  0  0  0
  184.3040  178.7010  145.1810 C   0  0  0  0  0  0  0  0  0  0  0  0
  183.7520  178.7320  140.8320 C   0  0  0  0  0  2  0  0  0  0  0  0
  183.0790  178.8190  144.6700 C   0  0  0  0  0  3  0  0  0  0  0  0
  184.5060  178.6280  146.5930 N   0  0  0  0  0  2  0  0  0  0  0  0
  187.6340  178.2780  142.4710 C   0  0  0  0  0  3  0  0  0  0  0  0
  180.5540  179.0750  143.5050 O   0  0  0  0  0  0  0  0  0  0  0  0
  187.8020  178.1620  143.8990 N   0  0  0  0  0  0  0  0  0  0  0  0
  186.2310  178.6690  140.4870 C   0  0  0  0  0  0  0  0  0  0  0  0
  182.8770  178.8670  143.2430 N   0  0  0  0  0  0  0  0  0  0  0  0
  185.8500  178.7720  147.1470 C   0  0  0  0  0  2  0  0  0  0  0  0
  185.1680  178.1870  138.0240 C   0  0  0  0  0  2  0  0  0  0  0  0
  187.0370  178.0860  139.5950 C   0  0  0  0  0  3  0  0  0  0  0  0
  190.8980  177.3940  142.6900 N   0  0  0  0  0  0  0  0  0  0  0  0
  192.0550  175.5660  143.8400 C   0  0  0  0  0  1  0  0  0  0  0  0
  189.5580  175.5240  143.5980 C   0  0  0  0  0  2  0  0  0  0  0  0
  189.1200  177.8590  144.4630 C   0  0  1  0  0  3  0  0  0  0  0  0
  189.2450  176.3770  144.8260 C   0  0  0  0  0  2  0  0  0  0  0  0
  190.2240  178.3250  143.5560 C   0  0  0  0  0  0  0  0  0  0  0  0
  190.5080  179.5520  143.5150 O   0  0  0  0  0  0  0  0  0  0  0  0
  190.8780  175.9560  142.9600 C   0  0  1  0  0  3  0  0  0  0  0  0
  191.1350  177.5030  140.3720 O   0  0  0  0  0  1  0  0  0  0  0  0
  191.7170  177.8730  141.5850 C   0  0  0  0  0  2  0  0  0  0  0  0
  1  3  1  0  0  0  0
  2  4  1  0  0  0  0
  3 20  1  0  0  0  0
  4  1  2  0  0  0  0
  4 11  1  0  0  0  0
  5  2  2  0  0  0  0
  5 19  1  0  0  0  0
  6 22  1  0  0  0  0
  7 15  2  0  0  0  0
  7  2  1  0  0  0  0
  8  9  1  0  0  0  0
  9 18  1  0  0  0  0
  9 12  1  1  0  0  0
 10 19  1  0  0  0  0
 10 16  2  0  0  0  0
 11 14  1  0  0  0  0
 12  5  1  0  0  0  0
 13 11  2  0  0  0  0
 14 20  1  0  0  0  0
 15 17  1  0  0  0  0
 17  1  1  0  0  0  0
 18  7  1  0  0  0  0
 19 13  1  0  0  0  0
 21  6  1  0  0  0  0
 21  8  1  0  0  0  0
 22 18  2  0  0  0  0
 23 30  1  0  0  0  0
 23 28  1  0  0  0  0
 25 27  1  0  0  0  0
 26 17  1  6  0  0  0
 26 27  1  0  0  0  0
 28 26  1  0  0  0  0
 29 28  2  0  0  0  0
 30 25  1  0  0  0  0
 30 24  1  1  0  0  0
 31 32  1  0  0  0  0
 32 23  1  0  0  0  0
M  END
>  <MODEL>
5

>  <REMARK>
 VINA RESULT:      -8.6      2.582      5.528
  Name = 
  2 active torsions:
  status: ('A' for Active; 'I' for Inactive)
    1  A    between atoms: N_3  and  C_19
    2  A    between atoms: C_16  and  N_27
                            x       y       z     vdW  Elec       q    Type
                         _______ _______ _______ _____ _____    ______ ____

>  <TORSDO>
F 2

$$$$
=
 OpenBabel11052414403D

 32 37  0  0  1  0  0  0  0  0999 V2000
  189.1250  177.8550  141.0470 C   0  0  0  0  0  0  0  0  0  0  0  0
  187.6580  178.0580  142.9910 C   0  0  0  0  0  0  0  0  0  0  0  0
  190.4000  177.5320  140.4650 N   0  0  0  0  0  2  0  0  0  0  0  0
  188.9670  177.7750  142.3770 C   0  0  0  0  0  0  0  0  0  0  0  0
  187.4870  177.8720  144.3230 C   0  0  0  0  0  0  0  0  0  0  0  0
  182.8260  178.9930  142.8360 C   0  0  0  0  0  2  0  0  0  0  0  0
  186.5480  178.5060  142.1160 C   0  0  0  0  0  0  0  0  0  0  0  0
  184.0510  179.3780  144.8610 O   0  0  0  0  0  0  0  0  0  0  0  0
  185.3050  179.1280  144.2380 C   0  0  1  0  0  3  0  0  0  0  0  0
  188.4240  177.1910  146.5320 C   0  0  0  0  0  3  0  0  0  0  0  0
  190.0760  177.3160  143.2220 C   0  0  0  0  0  0  0  0  0  0  0  0
  186.1160  178.0490  144.9540 C   0  0  0  0  0  2  0  0  0  0  0  0
  189.8790  177.1290  144.5270 C   0  0  0  0  0  3  0  0  0  0  0  0
  191.3400  177.0260  142.6230 N   0  0  0  0  0  2  0  0  0  0  0  0
  186.7350  178.5610  140.7930 C   0  0  0  0  0  3  0  0  0  0  0  0
  189.3730  176.7800  147.2510 O   0  0  0  0  0  0  0  0  0  0  0  0
  188.0090  178.2190  140.2080 N   0  0  0  0  0  0  0  0  0  0  0  0
  185.2690  178.8690  142.7450 C   0  0  0  0  0  0  0  0  0  0  0  0
  188.5950  177.3990  145.1250 N   0  0  0  0  0  0  0  0  0  0  0  0
  191.6250  177.4850  141.2650 C   0  0  0  0  0  2  0  0  0  0  0  0
  183.0410  178.5780  144.2880 C   0  0  0  0  0  2  0  0  0  0  0  0
  184.1050  178.7760  142.0970 C   0  0  0  0  0  3  0  0  0  0  0  0
  186.5370  176.7600  137.5000 N   0  0  0  0  0  0  0  0  0  0  0  0
  188.0750  175.9170  135.7890 C   0  0  0  0  0  1  0  0  0  0  0  0
  188.7190  175.8420  138.2130 C   0  0  0  0  0  2  0  0  0  0  0  0
  188.1850  178.2530  138.7550 C   0  0  1  0  0  3  0  0  0  0  0  0
  189.2620  177.2670  138.2980 C   0  0  0  0  0  2  0  0  0  0  0  0
  186.8780  178.0490  138.0400 C   0  0  0  0  0  0  0  0  0  0  0  0
  186.0570  179.0030  137.9790 O   0  0  0  0  0  0  0  0  0  0  0  0
  187.5660  175.7600  137.2130 C   0  0  1  0  0  3  0  0  0  0  0  0
  184.9320  175.0900  137.2230 O   0  0  0  0  0  1  0  0  0  0  0  0
  185.1640  176.4610  137.1130 C   0  0  0  0  0  2  0  0  0  0  0  0
  1  4  2  0  0  0  0
  2  5  2  0  0  0  0
  3  1  1  0  0  0  0
  3 20  1  0  0  0  0
  4  2  1  0  0  0  0
  4 11  1  0  0  0  0
  5 12  1  0  0  0  0
  5 19  1  0  0  0  0
  6 21  1  0  0  0  0
  7 18  1  0  0  0  0
  7  2  1  0  0  0  0
  9  8  1  0  0  0  0
  9 12  1  1  0  0  0
 10 16  2  0  0  0  0
 11 13  2  0  0  0  0
 13 19  1  0  0  0  0
 14 11  1  0  0  0  0
 15  7  2  0  0  0  0
 17 15  1  0  0  0  0
 17  1  1  0  0  0  0
 18  9  1  0  0  0  0
 19 10  1  0  0  0  0
 20 14  1  0  0  0  0
 21  8  1  0  0  0  0
 22 18  2  0  0  0  0
 22  6  1  0  0  0  0
 23 28  1  0  0  0  0
 25 27  1  0  0  0  0
 26 27  1  6  0  0  0
 26 17  1  0  0  0  0
 28 26  1  0  0  0  0
 29 28  2  0  0  0  0
 30 24  1  6  0  0  0
 30 23  1  0  0  0  0
 30 25  1  0  0  0  0
 32 31  1  0  0  0  0
 32 23  1  0  0  0  0
M  END
>  <MODEL>
6

>  <REMARK>
 VINA RESULT:      -8.3      1.474      1.628
  Name = 
  2 active torsions:
  status: ('A' for Active; 'I' for Inactive)
    1  A    between atoms: N_3  and  C_19
    2  A    between atoms: C_16  and  N_27
                            x       y       z     vdW  Elec       q    Type
                         _______ _______ _______ _____ _____    ______ ____

>  <TORSDO>
F 2

$$$$
=
 OpenBabel11052414403D

 32 37  0  0  1  0  0  0  0  0999 V2000
  187.0090  177.9900  137.6330 C   0  0  0  0  0  0  0  0  0  0  0  0
  188.5550  177.7430  139.5100 C   0  0  0  0  0  0  0  0  0  0  0  0
  186.7340  177.9660  136.2220 N   0  0  0  0  0  2  0  0  0  0  0  0
  188.2590  177.7680  138.0670 C   0  0  0  0  0  0  0  0  0  0  0  0
  189.8000  177.4140  139.9340 C   0  0  0  0  0  0  0  0  0  0  0  0
  187.2930  177.7510  144.2690 C   0  0  0  0  0  2  0  0  0  0  0  0
  187.4600  178.0450  140.4620 C   0  0  0  0  0  0  0  0  0  0  0  0
  189.5650  178.1870  143.6360 O   0  0  0  0  0  0  0  0  0  0  0  0
  189.2480  178.2350  142.2500 C   0  0  1  0  0  3  0  0  0  0  0  0
  192.1400  176.7370  139.3980 C   0  0  0  0  0  3  0  0  0  0  0  0
  189.3250  177.4570  137.1050 C   0  0  0  0  0  0  0  0  0  0  0  0
  190.0940  177.2720  141.4180 C   0  0  0  0  0  2  0  0  0  0  0  0
  190.5370  177.1250  137.5480 C   0  0  0  0  0  3  0  0  0  0  0  0
  189.0320  177.4660  135.7080 N   0  0  0  0  0  2  0  0  0  0  0  0
  186.2220  178.2470  139.9970 C   0  0  0  0  0  3  0  0  0  0  0  0
  193.0480  176.4540  138.5710 O   0  0  0  0  0  0  0  0  0  0  0  0
  185.9440  178.2050  138.5820 N   0  0  0  0  0  0  0  0  0  0  0  0
  187.7810  178.1020  141.8960 C   0  0  0  0  0  0  0  0  0  0  0  0
  190.8230  177.0930  138.9610 N   0  0  0  0  0  0  0  0  0  0  0  0
  187.7990  178.0850  135.2240 C   0  0  0  0  0  2  0  0  0  0  0  0
  188.7370  177.2620  144.3060 C   0  0  0  0  0  2  0  0  0  0  0  0
  186.8710  177.8450  142.8400 C   0  0  0  0  0  3  0  0  0  0  0  0
  182.8300  178.4170  139.9590 N   0  0  0  0  0  0  0  0  0  0  0  0
  181.0750  177.1650  138.7950 C   0  0  0  0  0  1  0  0  0  0  0  0
  183.4230  176.2820  138.8610 C   0  0  0  0  0  2  0  0  0  0  0  0
  184.5760  178.3970  138.0950 C   0  0  1  0  0  3  0  0  0  0  0  0
  183.9450  177.0710  137.6630 C   0  0  0  0  0  2  0  0  0  0  0  0
  183.7350  179.1340  139.1000 C   0  0  0  0  0  0  0  0  0  0  0  0
  183.8810  180.3790  139.2260 O   0  0  0  0  0  0  0  0  0  0  0  0
  182.3550  177.0770  139.6110 C   0  0  1  0  0  3  0  0  0  0  0  0
  183.0330  178.7230  142.2630 O   0  0  0  0  0  1  0  0  0  0  0  0
  182.2720  179.0580  141.1420 C   0  0  0  0  0  2  0  0  0  0  0  0
  1  4  2  0  0  0  0
  1 17  1  0  0  0  0
  2  5  2  0  0  0  0
  2  7  1  0  0  0  0
  3  1  1  0  0  0  0
  4  2  1  0  0  0  0
  5 12  1  0  0  0  0
  6 21  1  0  0  0  0
  7 18  1  0  0  0  0
  8 21  1  0  0  0  0
  9 12  1  6  0  0  0
  9  8  1  0  0  0  0
 11 13  2  0  0  0  0
 11  4  1  0  0  0  0
 13 19  1  0  0  0  0
 14 11  1  0  0  0  0
 15  7  2  0  0  0  0
 16 10  2  0  0  0  0
 17 15  1  0  0  0  0
 18  9  1  0  0  0  0
 18 22  2  0  0  0  0
 19 10  1  0  0  0  0
 19  5  1  0  0  0  0
 20 14  1  0  0  0  0
 20  3  1  0  0  0  0
 22  6  1  0  0  0  0
 23 32  1  0  0  0  0
 25 30  1  0  0  0  0
 26 27  1  1  0  0  0
 26 17  1  0  0  0  0
 26 28  1  0  0  0  0
 27 25  1  0  0  0  0
 28 29  2  0  0  0  0
 28 23  1  0  0  0  0
 30 24  1  6  0  0  0
 30 23  1  0  0  0  0
 32 31  1  0  0  0  0
M  END
>  <MODEL>
7

>  <REMARK>
 VINA RESULT:      -7.8      2.488      6.121
  Name = 
  2 active torsions:
  status: ('A' for Active; 'I' for Inactive)
    1  A    between atoms: N_3  and  C_19
    2  A    between atoms: C_16  and  N_27
                            x       y       z     vdW  Elec       q    Type
                         _______ _______ _______ _____ _____    ______ ____

>  <TORSDO>
F 2

$$$$
=
 OpenBabel11052414403D

 32 37  0  0  1  0  0  0  0  0999 V2000
  185.1230  178.4590  140.6840 C   0  0  0  0  0  0  0  0  0  0  0  0
  186.5050  178.0220  142.6520 C   0  0  0  0  0  0  0  0  0  0  0  0
  183.8670  178.8260  140.0890 N   0  0  0  0  0  2  0  0  0  0  0  0
  185.2170  178.3520  142.0180 C   0  0  0  0  0  0  0  0  0  0  0  0
  186.6070  178.0200  144.0040 C   0  0  0  0  0  0  0  0  0  0  0  0
  191.3700  177.2610  142.6140 C   0  0  0  0  0  2  0  0  0  0  0  0
  187.6700  177.7370  141.7800 C   0  0  0  0  0  0  0  0  0  0  0  0
  190.0650  176.5540  144.4990 O   0  0  0  0  0  0  0  0  0  0  0  0
  188.8340  176.8530  143.8540 C   0  0  1  0  0  3  0  0  0  0  0  0
  185.5430  178.3480  146.2360 C   0  0  0  0  0  3  0  0  0  0  0  0
  184.0530  178.6530  142.8620 C   0  0  0  0  0  0  0  0  0  0  0  0
  187.9520  177.7940  144.6730 C   0  0  0  0  0  2  0  0  0  0  0  0
  184.1820  178.6550  144.1880 C   0  0  0  0  0  3  0  0  0  0  0  0
  182.8090  178.9880  142.2450 N   0  0  0  0  0  2  0  0  0  0  0  0
  187.5470  177.8680  140.4560 C   0  0  0  0  0  3  0  0  0  0  0  0
  184.5470  178.6240  146.9570 O   0  0  0  0  0  0  0  0  0  0  0  0
  186.2900  178.2530  139.8600 N   0  0  0  0  0  0  0  0  0  0  0  0
  188.9300  177.3260  142.4170 C   0  0  0  0  0  0  0  0  0  0  0  0
  185.4450  178.3410  144.8070 N   0  0  0  0  0  0  0  0  0  0  0  0
  182.6040  178.7220  140.8230 C   0  0  0  0  0  2  0  0  0  0  0  0
  191.0720  177.4560  144.0980 C   0  0  0  0  0  2  0  0  0  0  0  0
  190.1200  177.5450  141.8490 C   0  0  0  0  0  3  0  0  0  0  0  0
  186.7550  176.3070  137.0980 N   0  0  0  0  0  0  0  0  0  0  0  0
  187.9690  177.3680  135.2530 C   0  0  0  0  0  1  0  0  0  0  0  0
  188.5390  177.9350  137.6300 C   0  0  0  0  0  2  0  0  0  0  0  0
  186.1840  178.4230  138.4100 C   0  0  1  0  0  3  0  0  0  0  0  0
  187.4690  179.0080  137.8190 C   0  0  0  0  0  2  0  0  0  0  0  0
  185.7720  177.1430  137.7370 C   0  0  0  0  0  0  0  0  0  0  0  0
  184.5680  176.7780  137.7980 O   0  0  0  0  0  0  0  0  0  0  0  0
  188.0490  176.8440  136.6780 C   0  0  1  0  0  3  0  0  0  0  0  0
  185.7760  174.8990  135.5170 O   0  0  0  0  0  1  0  0  0  0  0  0
  186.4360  174.9300  136.7460 C   0  0  0  0  0  2  0  0  0  0  0  0
  1  4  2  0  0  0  0
  2  5  2  0  0  0  0
  3  1  1  0  0  0  0
  3 20  1  0  0  0  0
  4  2  1  0  0  0  0
  4 11  1  0  0  0  0
  5 12  1  0  0  0  0
  5 19  1  0  0  0  0
  6 21  1  0  0  0  0
  7 18  1  0  0  0  0
  7  2  1  0  0  0  0
  9  8  1  0  0  0  0
  9 12  1  1  0  0  0
 10 16  2  0  0  0  0
 11 13  2  0  0  0  0
 13 19  1  0  0  0  0
 14 11  1  0  0  0  0
 15  7  2  0  0  0  0
 17 15  1  0  0  0  0
 17  1  1  0  0  0  0
 18  9  1  0  0  0  0
 19 10  1  0  0  0  0
 20 14  1  0  0  0  0
 21  8  1  0  0  0  0
 22 18  2  0  0  0  0
 22  6  1  0  0  0  0
 23 28  1  0  0  0  0
 25 27  1  0  0  0  0
 26 27  1  6  0  0  0
 26 17  1  0  0  0  0
 28 29  2  0  0  0  0
 28 26  1  0  0  0  0
 30 24  1  6  0  0  0
 30 23  1  0  0  0  0
 30 25  1  0  0  0  0
 31 32  1  0  0  0  0
 32 23  1  0  0  0  0
M  END
>  <MODEL>
8

>  <REMARK>
 VINA RESULT:      -7.6      2.366      4.783
  Name = 
  2 active torsions:
  status: ('A' for Active; 'I' for Inactive)
    1  A    between atoms: N_3  and  C_19
    2  A    between atoms: C_16  and  N_27
                            x       y       z     vdW  Elec       q    Type
                         _______ _______ _______ _____ _____    ______ ____

>  <TORSDO>
F 2

$$$$
=
 OpenBabel11052414403D

 32 37  0  0  1  0  0  0  0  0999 V2000
  186.3380  178.3870  142.5980 C   0  0  0  0  0  0  0  0  0  0  0  0
  185.9570  178.4190  140.1840 C   0  0  0  0  0  0  0  0  0  0  0  0
  185.8460  178.4610  143.9470 N   0  0  0  0  0  2  0  0  0  0  0  0
  185.4840  178.5360  141.5740 C   0  0  0  0  0  0  0  0  0  0  0  0
  185.0650  178.4680  139.1650 C   0  0  0  0  0  0  0  0  0  0  0  0
  189.3260  177.3750  136.7480 C   0  0  0  0  0  2  0  0  0  0  0  0
  187.4050  178.2110  139.9450 C   0  0  0  0  0  0  0  0  0  0  0  0
  187.3620  178.6190  136.1560 O   0  0  0  0  0  0  0  0  0  0  0  0
  186.9420  178.7440  137.5090 C   0  0  1  0  0  3  0  0  0  0  0  0
  182.7030  178.6820  138.3890 C   0  0  0  0  0  3  0  0  0  0  0  0
  184.0510  178.7260  141.8360 C   0  0  0  0  0  0  0  0  0  0  0  0
  185.5180  178.2350  137.7340 C   0  0  0  0  0  2  0  0  0  0  0  0
  183.1930  178.7590  140.8170 C   0  0  0  0  0  3  0  0  0  0  0  0
  183.5920  178.8230  143.1840 N   0  0  0  0  0  2  0  0  0  0  0  0
  188.2270  178.0520  140.9880 C   0  0  0  0  0  3  0  0  0  0  0  0
  181.4730  178.8280  138.6170 O   0  0  0  0  0  0  0  0  0  0  0  0
  187.7300  178.1090  142.3410 N   0  0  0  0  0  0  0  0  0  0  0  0
  187.8830  178.1800  138.5540 C   0  0  0  0  0  0  0  0  0  0  0  0
  183.6560  178.6360  139.4570 N   0  0  0  0  0  0  0  0  0  0  0  0
  184.5470  179.0570  144.2650 C   0  0  0  0  0  2  0  0  0  0  0  0
  188.0260  177.3920  135.9490 C   0  0  0  0  0  2  0  0  0  0  0  0
  188.9830  177.5130  138.1940 C   0  0  0  0  0  3  0  0  0  0  0  0
  191.0360  177.3770  142.7540 N   0  0  0  0  0  0  0  0  0  0  0  0
  191.5370  175.6850  144.4530 C   0  0  0  0  0  1  0  0  0  0  0  0
  189.4310  175.5270  143.0980 C   0  0  0  0  0  2  0  0  0  0  0  0
  188.6400  177.8990  143.4690 C   0  0  1  0  0  3  0  0  0  0  0  0
  188.5870  176.4550  143.9700 C   0  0  0  0  0  2  0  0  0  0  0  0
  190.0380  178.3420  143.1340 C   0  0  0  0  0  0  0  0  0  0  0  0
  190.3060  179.5720  143.1260 O   0  0  0  0  0  0  0  0  0  0  0  0
  190.8960  175.9630  143.1030 C   0  0  1  0  0  3  0  0  0  0  0  0
  192.1800  177.6060  140.7340 O   0  0  0  0  0  1  0  0  0  0  0  0
  192.2710  177.8060  142.1120 C   0  0  0  0  0  2  0  0  0  0  0  0
  1  3  1  0  0  0  0
  2  4  1  0  0  0  0
  3 20  1  0  0  0  0
  4 11  1  0  0  0  0
  4  1  2  0  0  0  0
  5 19  1  0  0  0  0
  5  2  2  0  0  0  0
  6 22  1  0  0  0  0
  7  2  1  0  0  0  0
  7 15  2  0  0  0  0
  8  9  1  0  0  0  0
  9 12  1  6  0  0  0
  9 18  1  0  0  0  0
 10 16  2  0  0  0  0
 10 19  1  0  0  0  0
 11 14  1  0  0  0  0
 12  5  1  0  0  0  0
 13 11  2  0  0  0  0
 14 20  1  0  0  0  0
 15 17  1  0  0  0  0
 17  1  1  0  0  0  0
 18  7  1  0  0  0  0
 19 13  1  0  0  0  0
 21  8  1  0  0  0  0
 21  6  1  0  0  0  0
 22 18  2  0  0  0  0
 23 30  1  0  0  0  0
 23 28  1  0  0  0  0
 25 30  1  0  0  0  0
 25 27  1  0  0  0  0
 26 17  1  6  0  0  0
 26 27  1  0  0  0  0
 28 26  1  0  0  0  0
 29 28  2  0  0  0  0
 30 24  1  1  0  0  0
 31 32  1  0  0  0  0
 32 23  1  0  0  0  0
M  END
>  <MODEL>
9

>  <REMARK>
 VINA RESULT:      -7.5      2.439      6.369
  Name = 
  2 active torsions:
  status: ('A' for Active; 'I' for Inactive)
    1  A    between atoms: N_3  and  C_19
    2  A    between atoms: C_16  and  N_27
                            x       y       z     vdW  Elec       q    Type
                         _______ _______ _______ _____ _____    ______ ____

>  <TORSDO>
F 2

$$$$
