=
 OpenBabel11052416503D

 32 37  0  0  1  0  0  0  0  0999 V2000
  190.7960  176.5140  138.8850 C   0  0  0  0  0  3  0  0  0  0  0  0
  188.5260  177.6740  143.2790 C   0  0  0  0  0  0  0  0  0  0  0  0
  192.0070  176.0280  146.5060 C   0  0  0  0  0  2  0  0  0  0  0  0
  191.2190  176.7380  147.5950 C   0  0  0  0  0  2  0  0  0  0  0  0
  186.2800  178.2200  144.0500 C   0  0  0  0  0  0  0  0  0  0  0  0
  185.8840  178.3270  142.6990 C   0  0  0  0  0  0  0  0  0  0  0  0
  189.0100  177.5250  140.8540 C   0  0  0  0  0  0  0  0  0  0  0  0
  190.7210  176.8690  142.4160 N   0  0  0  0  0  0  0  0  0  0  0  0
  183.9050  178.8360  144.6910 C   0  0  0  0  0  0  0  0  0  0  0  0
  191.1170  176.3740  140.1370 N   0  0  0  0  0  0  0  0  0  0  0  0
  191.7360  176.7010  145.1690 C   0  0  0  0  0  2  0  0  0  0  0  0
  190.0020  177.4650  143.5530 C   0  0  2  0  0  3  0  0  0  0  0  0
  190.2450  176.6450  144.8230 C   0  0  2  0  0  3  0  0  0  0  0  0
  188.1560  177.7570  145.7260 C   0  0  0  0  0  0  0  0  0  0  0  0
  183.5790  178.9180  143.2640 C   0  0  0  0  0  3  0  0  0  0  0  0
  190.3280  176.9560  141.1810 C   0  0  0  0  0  0  0  0  0  0  0  0
  184.5010  178.6750  142.3370 C   0  0  0  0  0  3  0  0  0  0  0  0
  188.6530  177.6530  139.5740 C   0  0  0  0  0  3  0  0  0  0  0  0
  189.6230  177.3620  138.4560 C   0  0  2  0  0  3  0  0  0  0  0  0
  189.7300  176.6380  147.2940 C   0  0  0  0  0  2  0  0  0  0  0  0
  189.4400  177.1460  145.9510 N   0  0  0  0  0  0  0  0  0  0  0  0
  187.4930  178.1810  146.7110 O   0  0  0  0  0  0  0  0  0  0  0  0
  188.0750  177.7950  141.9560 C   0  0  0  0  0  0  0  0  0  0  0  0
  186.7790  178.1140  141.7040 N   0  0  0  0  0  0  0  0  0  0  0  0
  183.0230  179.1180  145.5420 O   0  0  0  0  0  0  0  0  0  0  0  0
  187.6310  177.8980  144.3410 C   0  0  0  0  0  0  0  0  0  0  0  0
  185.2620  178.3960  145.1570 C   0  0  0  0  0  2  0  0  0  0  0  0
  188.9160  176.7720  137.2420 C   0  0  0  0  0  2  0  0  0  0  0  0
  188.8530  177.7450  136.1510 N   0  0  0  0  0  2  0  0  0  0  0  0
  187.5030  178.2980  136.0380 C   0  0  1  0  0  3  0  0  0  0  0  0
  186.4500  177.2910  136.4730 C   0  0  0  0  0  1  0  0  0  0  0  0
  187.3820  179.4820  136.7690 O   0  0  0  0  0  1  0  0  0  0  0  0
  1 10  2  0  0  0  0
  2 12  1  0  0  0  0
  2 26  1  0  0  0  0
  3  4  1  0  0  0  0
  5 26  2  0  0  0  0
  5 27  1  0  0  0  0
  6  5  1  0  0  0  0
  7 16  1  0  0  0  0
  7 23  1  0  0  0  0
  9 27  1  0  0  0  0
  9 25  2  0  0  0  0
 10 16  1  0  0  0  0
 11  3  1  0  0  0  0
 12  8  1  6  0  0  0
 12 13  1  0  0  0  0
 13 11  1  1  0  0  0
 13 21  1  0  0  0  0
 14 21  1  0  0  0  0
 14 22  2  0  0  0  0
 15  9  1  0  0  0  0
 16  8  2  0  0  0  0
 17  6  1  0  0  0  0
 17 15  2  0  0  0  0
 18  7  2  0  0  0  0
 19 28  1  6  0  0  0
 19  1  1  0  0  0  0
 19 18  1  0  0  0  0
 20  4  1  0  0  0  0
 21 20  1  0  0  0  0
 23  2  2  0  0  0  0
 24 23  1  0  0  0  0
 24  6  2  0  0  0  0
 26 14  1  0  0  0  0
 29 28  1  0  0  0  0
 30 29  1  0  0  0  0
 30 31  1  1  0  0  0
 30 32  1  0  0  0  0
M  END
>  <MODEL>
1

>  <REMARK>
 VINA RESULT:     -11.0      0.000      0.000
  Name = 
  3 active torsions:
  status: ('A' for Active; 'I' for Inactive)
    1  A    between atoms: C_1  and  N_10
    2  A    between atoms: N_10  and  C_19
    3  A    between atoms: C_19  and  C_24
                            x       y       z     vdW  Elec       q    Type
                         _______ _______ _______ _____ _____    ______ ____

>  <TORSDO>
F 3

$$$$
=
 OpenBabel11052416503D

 32 37  0  0  1  0  0  0  0  0999 V2000
  190.5190  177.0800  140.0720 C   0  0  0  0  0  3  0  0  0  0  0  0
  186.9980  178.2130  143.5540 C   0  0  0  0  0  0  0  0  0  0  0  0
  189.5870  177.2290  147.7460 C   0  0  0  0  0  2  0  0  0  0  0  0
  188.4550  177.8990  148.5080 C   0  0  0  0  0  2  0  0  0  0  0  0
  184.5810  178.5140  143.6330 C   0  0  0  0  0  0  0  0  0  0  0  0
  184.5700  178.4860  142.2210 C   0  0  0  0  0  0  0  0  0  0  0  0
  188.1560  177.9770  141.3780 C   0  0  0  0  0  0  0  0  0  0  0  0
  189.4190  177.6430  143.4000 N   0  0  0  0  0  0  0  0  0  0  0  0
  182.0710  178.8610  143.5430 C   0  0  0  0  0  0  0  0  0  0  0  0
  190.4880  177.0620  141.3710 N   0  0  0  0  0  0  0  0  0  0  0  0
  189.6330  177.7770  146.3280 C   0  0  0  0  0  2  0  0  0  0  0  0
  188.3510  178.2110  144.2370 C   0  0  2  0  0  3  0  0  0  0  0  0
  188.3130  177.5100  145.5970 C   0  0  2  0  0  3  0  0  0  0  0  0
  185.9490  178.4000  145.7900 C   0  0  0  0  0  0  0  0  0  0  0  0
  182.1510  178.8120  142.0800 C   0  0  0  0  0  3  0  0  0  0  0  0
  189.3810  177.6020  142.1020 C   0  0  0  0  0  0  0  0  0  0  0  0
  183.3160  178.6320  141.4660 C   0  0  0  0  0  3  0  0  0  0  0  0
  188.1610  177.9780  140.0420 C   0  0  0  0  0  3  0  0  0  0  0  0
  189.4300  177.7440  139.2620 C   0  0  2  0  0  3  0  0  0  0  0  0
  187.1290  177.5910  147.8250 C   0  0  0  0  0  2  0  0  0  0  0  0
  187.1750  177.9730  146.4120 N   0  0  0  0  0  0  0  0  0  0  0  0
  184.9960  178.7970  146.5140 O   0  0  0  0  0  0  0  0  0  0  0  0
  186.9260  178.1920  142.1530 C   0  0  0  0  0  0  0  0  0  0  0  0
  185.7270  178.3270  141.5300 N   0  0  0  0  0  0  0  0  0  0  0  0
  180.9610  179.0810  144.0920 O   0  0  0  0  0  0  0  0  0  0  0  0
  185.8230  178.3860  144.3070 C   0  0  0  0  0  0  0  0  0  0  0  0
  183.2810  178.6280  144.4000 C   0  0  0  0  0  2  0  0  0  0  0  0
  189.1580  176.9940  137.9640 C   0  0  0  0  0  2  0  0  0  0  0  0
  189.2660  177.8890  136.8120 N   0  0  0  0  0  2  0  0  0  0  0  0
  187.9370  178.2040  136.2850 C   0  0  1  0  0  3  0  0  0  0  0  0
  186.9560  177.0700  136.5330 C   0  0  0  0  0  1  0  0  0  0  0  0
  187.4530  179.3990  136.8240 O   0  0  0  0  0  1  0  0  0  0  0  0
  1 10  2  0  0  0  0
  2 12  1  0  0  0  0
  2 26  1  0  0  0  0
  3  4  1  0  0  0  0
  5 26  2  0  0  0  0
  5 27  1  0  0  0  0
  6  5  1  0  0  0  0
  7 16  1  0  0  0  0
  7 23  1  0  0  0  0
  9 25  2  0  0  0  0
  9 27  1  0  0  0  0
 10 16  1  0  0  0  0
 11  3  1  0  0  0  0
 12  8  1  6  0  0  0
 12 13  1  0  0  0  0
 13 11  1  1  0  0  0
 13 21  1  0  0  0  0
 14 21  1  0  0  0  0
 14 22  2  0  0  0  0
 15  9  1  0  0  0  0
 16  8  2  0  0  0  0
 17 15  2  0  0  0  0
 17  6  1  0  0  0  0
 18  7  2  0  0  0  0
 19 28  1  6  0  0  0
 19 18  1  0  0  0  0
 19  1  1  0  0  0  0
 20  4  1  0  0  0  0
 21 20  1  0  0  0  0
 23  2  2  0  0  0  0
 24 23  1  0  0  0  0
 24  6  2  0  0  0  0
 26 14  1  0  0  0  0
 29 28  1  0  0  0  0
 30 31  1  1  0  0  0
 30 29  1  0  0  0  0
 30 32  1  0  0  0  0
M  END
>  <MODEL>
2

>  <REMARK>
 VINA RESULT:     -10.6      1.393      1.851
  Name = 
  3 active torsions:
  status: ('A' for Active; 'I' for Inactive)
    1  A    between atoms: C_1  and  N_10
    2  A    between atoms: N_10  and  C_19
    3  A    between atoms: C_19  and  C_24
                            x       y       z     vdW  Elec       q    Type
                         _______ _______ _______ _____ _____    ______ ____

>  <TORSDO>
F 3

$$$$
=
 OpenBabel11052416503D

 32 37  0  0  1  0  0  0  0  0999 V2000
  183.5020  178.9470  145.2500 C   0  0  0  0  0  3  0  0  0  0  0  0
  188.0490  177.4680  143.5340 C   0  0  0  0  0  0  0  0  0  0  0  0
  190.5510  177.1620  147.8790 C   0  0  0  0  0  2  0  0  0  0  0  0
  191.6600  176.4730  147.1020 C   0  0  0  0  0  2  0  0  0  0  0  0
  189.2440  177.4390  141.4110 C   0  0  0  0  0  0  0  0  0  0  0  0
  188.0360  177.7900  140.7690 C   0  0  0  0  0  0  0  0  0  0  0  0
  185.6440  178.0580  143.6030 C   0  0  0  0  0  0  0  0  0  0  0  0
  186.8240  177.7720  145.6820 N   0  0  0  0  0  0  0  0  0  0  0  0
  190.3340  177.4170  139.1210 C   0  0  0  0  0  0  0  0  0  0  0  0
  184.6400  178.6720  145.8150 N   0  0  0  0  0  0  0  0  0  0  0  0
  189.2260  176.9510  147.1630 C   0  0  0  0  0  2  0  0  0  0  0  0
  187.9810  177.1560  145.0160 C   0  0  2  0  0  3  0  0  0  0  0  0
  189.2750  177.5290  145.7450 C   0  0  2  0  0  3  0  0  0  0  0  0
  190.4580  176.8990  143.5960 C   0  0  0  0  0  0  0  0  0  0  0  0
  189.0410  177.7890  138.5400 C   0  0  0  0  0  3  0  0  0  0  0  0
  185.7280  178.1130  145.0720 C   0  0  0  0  0  0  0  0  0  0  0  0
  187.9720  177.9670  139.3100 C   0  0  0  0  0  3  0  0  0  0  0  0
  184.4890  178.3600  143.0040 C   0  0  0  0  0  3  0  0  0  0  0  0
  183.2350  178.6170  143.8010 C   0  0  2  0  0  3  0  0  0  0  0  0
  191.7580  177.0800  145.7090 C   0  0  0  0  0  2  0  0  0  0  0  0
  190.4620  177.0270  145.0290 N   0  0  0  0  0  0  0  0  0  0  0  0
  191.4870  176.4610  143.0120 O   0  0  0  0  0  0  0  0  0  0  0  0
  186.8780  177.8150  142.8420 C   0  0  0  0  0  0  0  0  0  0  0  0
  186.9020  177.9670  141.4930 N   0  0  0  0  0  0  0  0  0  0  0  0
  191.3140  177.2080  138.3610 O   0  0  0  0  0  0  0  0  0  0  0  0
  189.2430  177.2650  142.8190 C   0  0  0  0  0  0  0  0  0  0  0  0
  190.5200  177.3060  140.6060 C   0  0  0  0  0  2  0  0  0  0  0  0
  182.3560  179.6690  143.1370 C   0  0  0  0  0  2  0  0  0  0  0  0
  181.3350  179.0420  142.2970 N   0  0  0  0  0  2  0  0  0  0  0  0
  180.0000  179.4830  142.7030 C   0  0  1  0  0  3  0  0  0  0  0  0
  179.5660  178.8220  144.0020 C   0  0  0  0  0  1  0  0  0  0  0  0
  179.9430  180.8740  142.8160 O   0  0  0  0  0  1  0  0  0  0  0  0
  1 10  2  0  0  0  0
  4  3  1  0  0  0  0
  5 26  1  0  0  0  0
  6  5  2  0  0  0  0
  6 24  1  0  0  0  0
  7 16  1  0  0  0  0
  9 27  1  0  0  0  0
 11  3  1  0  0  0  0
 12  2  1  6  0  0  0
 12  8  1  0  0  0  0
 12 13  1  0  0  0  0
 13 11  1  1  0  0  0
 14 21  1  0  0  0  0
 15  9  1  0  0  0  0
 15 17  2  0  0  0  0
 16  8  2  0  0  0  0
 16 10  1  0  0  0  0
 17  6  1  0  0  0  0
 18  7  2  0  0  0  0
 18 19  1  0  0  0  0
 19 28  1  6  0  0  0
 19  1  1  0  0  0  0
 20  4  1  0  0  0  0
 21 20  1  0  0  0  0
 21 13  1  0  0  0  0
 22 14  2  0  0  0  0
 23  2  1  0  0  0  0
 23  7  1  0  0  0  0
 24 23  2  0  0  0  0
 25  9  2  0  0  0  0
 26  2  2  0  0  0  0
 26 14  1  0  0  0  0
 27  5  1  0  0  0  0
 29 30  1  0  0  0  0
 29 28  1  0  0  0  0
 30 32  1  0  0  0  0
 30 31  1  1  0  0  0
M  END
>  <MODEL>
3

>  <REMARK>
 VINA RESULT:     -10.4      2.395      6.326
  Name = 
  3 active torsions:
  status: ('A' for Active; 'I' for Inactive)
    1  A    between atoms: C_1  and  N_10
    2  A    between atoms: N_10  and  C_19
    3  A    between atoms: C_19  and  C_24
                            x       y       z     vdW  Elec       q    Type
                         _______ _______ _______ _____ _____    ______ ____

>  <TORSDO>
F 3

$$$$
=
 OpenBabel11052416503D

 32 37  0  0  1  0  0  0  0  0999 V2000
  182.8970  178.9020  141.4430 C   0  0  0  0  0  3  0  0  0  0  0  0
  187.7200  178.0920  142.8150 C   0  0  0  0  0  0  0  0  0  0  0  0
  189.8010  177.4240  138.2910 C   0  0  0  0  0  2  0  0  0  0  0  0
  191.1500  177.5050  138.9860 C   0  0  0  0  0  2  0  0  0  0  0  0
  188.9340  177.4850  144.8390 C   0  0  0  0  0  0  0  0  0  0  0  0
  187.7430  177.6900  145.5690 C   0  0  0  0  0  0  0  0  0  0  0  0
  185.3110  178.6550  142.9270 C   0  0  0  0  0  0  0  0  0  0  0  0
  186.3540  178.4680  140.7650 N   0  0  0  0  0  0  0  0  0  0  0  0
  190.0620  176.9140  147.0370 C   0  0  0  0  0  0  0  0  0  0  0  0
  183.9960  178.6570  140.7940 N   0  0  0  0  0  0  0  0  0  0  0  0
  188.7660  178.1800  139.1100 C   0  0  0  0  0  2  0  0  0  0  0  0
  187.7060  178.4650  141.3460 C   0  0  2  0  0  3  0  0  0  0  0  0
  188.6390  177.5810  140.5150 C   0  0  2  0  0  3  0  0  0  0  0  0
  190.1160  177.5140  142.5710 C   0  0  0  0  0  0  0  0  0  0  0  0
  188.7810  177.1410  147.7130 C   0  0  0  0  0  3  0  0  0  0  0  0
  185.2660  178.6320  141.4560 C   0  0  0  0  0  0  0  0  0  0  0  0
  187.7010  177.4980  147.0270 C   0  0  0  0  0  3  0  0  0  0  0  0
  184.1860  178.8810  143.6110 C   0  0  0  0  0  3  0  0  0  0  0  0
  182.9030  179.2530  142.9120 C   0  0  2  0  0  3  0  0  0  0  0  0
  191.0520  176.8580  140.3620 C   0  0  0  0  0  2  0  0  0  0  0  0
  189.9680  177.4610  141.1400 N   0  0  0  0  0  0  0  0  0  0  0  0
  191.2670  177.4140  143.0770 O   0  0  0  0  0  0  0  0  0  0  0  0
  186.5680  178.2810  143.5920 C   0  0  0  0  0  0  0  0  0  0  0  0
  186.6080  178.0760  144.9330 N   0  0  0  0  0  0  0  0  0  0  0  0
  191.0770  176.6240  147.7210 O   0  0  0  0  0  0  0  0  0  0  0  0
  188.9200  177.7030  143.4370 C   0  0  0  0  0  0  0  0  0  0  0  0
  190.1810  176.9930  145.5430 C   0  0  0  0  0  2  0  0  0  0  0  0
  181.6880  178.6830  143.6320 C   0  0  0  0  0  2  0  0  0  0  0  0
  180.5580  178.5380  142.7150 N   0  0  0  0  0  2  0  0  0  0  0  0
  179.5370  179.5470  143.0010 C   0  0  1  0  0  3  0  0  0  0  0  0
  178.9570  179.3750  144.3960 C   0  0  0  0  0  1  0  0  0  0  0  0
  180.0460  180.8380  142.8350 O   0  0  0  0  0  1  0  0  0  0  0  0
  1 19  1  0  0  0  0
  2 26  2  0  0  0  0
  2 23  1  0  0  0  0
  3  4  1  0  0  0  0
  3 11  1  0  0  0  0
  4 20  1  0  0  0  0
  5 27  1  0  0  0  0
  5  6  2  0  0  0  0
  6 17  1  0  0  0  0
  7 23  1  0  0  0  0
  7 18  2  0  0  0  0
  8 16  2  0  0  0  0
  9 15  1  0  0  0  0
  9 25  2  0  0  0  0
 10  1  2  0  0  0  0
 10 16  1  0  0  0  0
 12  8  1  6  0  0  0
 12  2  1  0  0  0  0
 13 11  1  6  0  0  0
 13 21  1  0  0  0  0
 13 12  1  0  0  0  0
 14 22  2  0  0  0  0
 14 26  1  0  0  0  0
 16  7  1  0  0  0  0
 17 15  2  0  0  0  0
 19 18  1  0  0  0  0
 19 28  1  1  0  0  0
 20 21  1  0  0  0  0
 21 14  1  0  0  0  0
 23 24  2  0  0  0  0
 24  6  1  0  0  0  0
 26  5  1  0  0  0  0
 27  9  1  0  0  0  0
 29 30  1  0  0  0  0
 29 28  1  0  0  0  0
 30 31  1  1  0  0  0
 32 30  1  0  0  0  0
M  END
>  <MODEL>
4

>  <REMARK>
 VINA RESULT:     -10.1      2.429      6.767
  Name = 
  3 active torsions:
  status: ('A' for Active; 'I' for Inactive)
    1  A    between atoms: C_1  and  N_10
    2  A    between atoms: N_10  and  C_19
    3  A    between atoms: C_19  and  C_24
                            x       y       z     vdW  Elec       q    Type
                         _______ _______ _______ _____ _____    ______ ____

>  <TORSDO>
F 3

$$$$
=
 OpenBabel11052416503D

 32 37  0  0  1  0  0  0  0  0999 V2000
  187.0550  177.5040  147.4200 C   0  0  0  0  0  3  0  0  0  0  0  0
  186.8150  178.2230  142.3970 C   0  0  0  0  0  0  0  0  0  0  0  0
  181.8470  178.7160  141.8350 C   0  0  0  0  0  2  0  0  0  0  0  0
  182.1320  179.1750  140.4150 C   0  0  0  0  0  2  0  0  0  0  0  0
  188.2520  177.8680  140.4620 C   0  0  0  0  0  0  0  0  0  0  0  0
  189.3160  177.5950  141.3500 C   0  0  0  0  0  0  0  0  0  0  0  0
  187.7140  177.9380  144.6870 C   0  0  0  0  0  0  0  0  0  0  0  0
  185.3520  178.3130  144.4120 N   0  0  0  0  0  0  0  0  0  0  0  0
  189.8830  177.5010  138.5550 C   0  0  0  0  0  0  0  0  0  0  0  0
  186.0860  177.7020  146.5770 N   0  0  0  0  0  0  0  0  0  0  0  0
  183.0580  179.0030  142.7110 C   0  0  0  0  0  2  0  0  0  0  0  0
  185.5130  178.7060  143.0040 C   0  0  2  0  0  3  0  0  0  0  0  0
  184.2950  178.2660  142.1880 C   0  0  2  0  0  3  0  0  0  0  0  0
  185.7930  178.5030  140.1590 C   0  0  0  0  0  0  0  0  0  0  0  0
  190.9270  177.2230  139.5470 C   0  0  0  0  0  3  0  0  0  0  0  0
  186.3420  178.0400  145.2090 C   0  0  0  0  0  0  0  0  0  0  0  0
  190.6580  177.2630  140.8490 C   0  0  0  0  0  3  0  0  0  0  0  0
  188.7200  177.7100  145.5360 C   0  0  0  0  0  3  0  0  0  0  0  0
  188.5010  177.6970  147.0280 C   0  0  2  0  0  3  0  0  0  0  0  0
  183.3250  178.4070  139.8620 C   0  0  0  0  0  2  0  0  0  0  0  0
  184.4820  178.5380  140.7510 N   0  0  0  0  0  0  0  0  0  0  0  0
  185.9210  178.7450  138.9280 O   0  0  0  0  0  0  0  0  0  0  0  0
  187.9090  177.9430  143.2300 C   0  0  0  0  0  0  0  0  0  0  0  0
  189.1170  177.6380  142.6900 N   0  0  0  0  0  0  0  0  0  0  0  0
  190.1810  177.5030  137.3330 O   0  0  0  0  0  0  0  0  0  0  0  0
  186.9820  178.1990  141.0010 C   0  0  0  0  0  0  0  0  0  0  0  0
  188.4620  177.7560  138.9660 C   0  0  0  0  0  2  0  0  0  0  0  0
  189.4110  176.6900  147.7190 C   0  0  0  0  0  2  0  0  0  0  0  0
  190.8060  177.1280  147.6700 N   0  0  0  0  0  2  0  0  0  0  0  0
  191.6820  176.0030  147.3390 C   0  0  1  0  0  3  0  0  0  0  0  0
  192.0560  176.0020  145.8650 C   0  0  0  0  0  1  0  0  0  0  0  0
  192.8300  176.0090  148.1370 O   0  0  0  0  0  1  0  0  0  0  0  0
  2 23  1  0  0  0  0
  3 11  1  0  0  0  0
  4  3  1  0  0  0  0
  5 26  1  0  0  0  0
  5  6  2  0  0  0  0
  6 24  1  0  0  0  0
  7 16  1  0  0  0  0
  7 18  2  0  0  0  0
  8 16  2  0  0  0  0
  9 27  1  0  0  0  0
  9 15  1  0  0  0  0
 10  1  2  0  0  0  0
 12  2  1  6  0  0  0
 12  8  1  0  0  0  0
 13 11  1  1  0  0  0
 13 12  1  0  0  0  0
 14 21  1  0  0  0  0
 14 26  1  0  0  0  0
 15 17  2  0  0  0  0
 16 10  1  0  0  0  0
 17  6  1  0  0  0  0
 18 19  1  0  0  0  0
 19  1  1  0  0  0  0
 19 28  1  1  0  0  0
 20  4  1  0  0  0  0
 20 21  1  0  0  0  0
 21 13  1  0  0  0  0
 22 14  2  0  0  0  0
 23  7  1  0  0  0  0
 24 23  2  0  0  0  0
 25  9  2  0  0  0  0
 26  2  2  0  0  0  0
 27  5  1  0  0  0  0
 29 28  1  0  0  0  0
 30 31  1  6  0  0  0
 30 29  1  0  0  0  0
 30 32  1  0  0  0  0
M  END
>  <MODEL>
5

>  <REMARK>
 VINA RESULT:      -9.9      2.564      8.166
  Name = 
  3 active torsions:
  status: ('A' for Active; 'I' for Inactive)
    1  A    between atoms: C_1  and  N_10
    2  A    between atoms: N_10  and  C_19
    3  A    between atoms: C_19  and  C_24
                            x       y       z     vdW  Elec       q    Type
                         _______ _______ _______ _____ _____    ______ ____

>  <TORSDO>
F 3

$$$$
=
 OpenBabel11052416503D

 32 37  0  0  1  0  0  0  0  0999 V2000
  187.9280  177.4340  147.5710 C   0  0  0  0  0  3  0  0  0  0  0  0
  186.3120  178.4340  142.8590 C   0  0  0  0  0  0  0  0  0  0  0  0
  181.3640  178.7030  143.6860 C   0  0  0  0  0  2  0  0  0  0  0  0
  181.2380  179.2590  142.2770 C   0  0  0  0  0  2  0  0  0  0  0  0
  187.1820  178.2670  140.5900 C   0  0  0  0  0  0  0  0  0  0  0  0
  188.4550  177.9970  141.1380 C   0  0  0  0  0  0  0  0  0  0  0  0
  187.8070  178.0610  144.7980 C   0  0  0  0  0  0  0  0  0  0  0  0
  185.4480  178.3290  145.1940 N   0  0  0  0  0  0  0  0  0  0  0  0
  188.2470  178.0970  138.2940 C   0  0  0  0  0  0  0  0  0  0  0  0
  186.7600  177.6310  147.0340 N   0  0  0  0  0  0  0  0  0  0  0  0
  182.7560  178.9990  144.2230 C   0  0  0  0  0  2  0  0  0  0  0  0
  185.2070  178.8130  143.8260 C   0  0  2  0  0  3  0  0  0  0  0  0
  183.8300  178.3590  143.3370 C   0  0  2  0  0  3  0  0  0  0  0  0
  184.7130  178.7910  141.0030 C   0  0  0  0  0  0  0  0  0  0  0  0
  189.5290  177.8150  138.9480 C   0  0  0  0  0  3  0  0  0  0  0  0
  186.6250  178.0610  145.6750 C   0  0  0  0  0  0  0  0  0  0  0  0
  189.6220  177.7640  140.2740 C   0  0  0  0  0  3  0  0  0  0  0  0
  189.0120  177.8360  145.3280 C   0  0  0  0  0  3  0  0  0  0  0  0
  189.2060  177.7240  146.8200 C   0  0  2  0  0  3  0  0  0  0  0  0
  182.2620  178.5860  141.3720 C   0  0  0  0  0  2  0  0  0  0  0  0
  183.6110  178.7240  141.9250 N   0  0  0  0  0  0  0  0  0  0  0  0
  184.4950  179.1110  139.8020 O   0  0  0  0  0  0  0  0  0  0  0  0
  187.5990  178.1610  143.3470 C   0  0  0  0  0  0  0  0  0  0  0  0
  188.6250  177.9510  142.4830 N   0  0  0  0  0  0  0  0  0  0  0  0
  188.2020  178.1860  137.0410 O   0  0  0  0  0  0  0  0  0  0  0  0
  186.0950  178.5000  141.4710 C   0  0  0  0  0  0  0  0  0  0  0  0
  186.9830  178.2540  139.0880 C   0  0  0  0  0  2  0  0  0  0  0  0
  190.3020  176.7260  147.1680 C   0  0  0  0  0  2  0  0  0  0  0  0
  191.3530  176.7280  146.1500 N   0  0  0  0  0  2  0  0  0  0  0  0
  192.4300  175.8110  146.5260 C   0  0  1  0  0  3  0  0  0  0  0  0
  192.4770  175.5940  148.0300 C   0  0  0  0  0  1  0  0  0  0  0  0
  192.3060  174.5900  145.8570 O   0  0  0  0  0  1  0  0  0  0  0  0
  2 23  1  0  0  0  0
  3 11  1  0  0  0  0
  4  3  1  0  0  0  0
  5  6  2  0  0  0  0
  5 26  1  0  0  0  0
  6 24  1  0  0  0  0
  7 18  2  0  0  0  0
  7 16  1  0  0  0  0
  8 16  2  0  0  0  0
  9 15  1  0  0  0  0
  9 27  1  0  0  0  0
 10  1  2  0  0  0  0
 12  2  1  6  0  0  0
 12  8  1  0  0  0  0
 13 12  1  0  0  0  0
 13 11  1  1  0  0  0
 14 26  1  0  0  0  0
 14 21  1  0  0  0  0
 15 17  2  0  0  0  0
 16 10  1  0  0  0  0
 17  6  1  0  0  0  0
 18 19  1  0  0  0  0
 19 28  1  6  0  0  0
 19  1  1  0  0  0  0
 20 21  1  0  0  0  0
 20  4  1  0  0  0  0
 21 13  1  0  0  0  0
 22 14  2  0  0  0  0
 23  7  1  0  0  0  0
 24 23  2  0  0  0  0
 25  9  2  0  0  0  0
 26  2  2  0  0  0  0
 27  5  1  0  0  0  0
 29 30  1  0  0  0  0
 29 28  1  0  0  0  0
 30 31  1  1  0  0  0
 32 30  1  0  0  0  0
M  END
>  <MODEL>
6

>  <REMARK>
 VINA RESULT:      -9.8      2.426      7.887
  Name = 
  3 active torsions:
  status: ('A' for Active; 'I' for Inactive)
    1  A    between atoms: C_1  and  N_10
    2  A    between atoms: N_10  and  C_19
    3  A    between atoms: C_19  and  C_24
                            x       y       z     vdW  Elec       q    Type
                         _______ _______ _______ _____ _____    ______ ____

>  <TORSDO>
F 3

$$$$
=
 OpenBabel11052416503D

 32 37  0  0  1  0  0  0  0  0999 V2000
  188.0880  178.0610  138.0700 C   0  0  0  0  0  3  0  0  0  0  0  0
  187.7520  177.5470  143.1130 C   0  0  0  0  0  0  0  0  0  0  0  0
  183.2190  179.5730  143.8830 C   0  0  0  0  0  2  0  0  0  0  0  0
  183.3040  179.0310  145.3000 C   0  0  0  0  0  2  0  0  0  0  0  0
  189.2620  177.1430  144.9810 C   0  0  0  0  0  0  0  0  0  0  0  0
  190.2810  176.8570  144.0460 C   0  0  0  0  0  0  0  0  0  0  0  0
  188.5700  177.3540  140.7830 C   0  0  0  0  0  0  0  0  0  0  0  0
  186.3460  178.1950  141.1600 N   0  0  0  0  0  0  0  0  0  0  0  0
  190.9460  176.6540  146.8130 C   0  0  0  0  0  0  0  0  0  0  0  0
  187.1870  178.3670  138.9560 N   0  0  0  0  0  0  0  0  0  0  0  0
  184.0890  178.7270  142.9660 C   0  0  0  0  0  2  0  0  0  0  0  0
  186.3540  177.7720  142.5690 C   0  0  2  0  0  3  0  0  0  0  0  0
  185.5510  178.7550  143.4240 C   0  0  2  0  0  3  0  0  0  0  0  0
  186.8270  177.8060  145.3950 C   0  0  0  0  0  0  0  0  0  0  0  0
  191.9450  176.3810  145.7740 C   0  0  0  0  0  3  0  0  0  0  0  0
  187.3040  177.9450  140.3190 C   0  0  0  0  0  0  0  0  0  0  0  0
  191.6330  176.4810  144.4860 C   0  0  0  0  0  3  0  0  0  0  0  0
  189.5180  177.0570  139.8900 C   0  0  0  0  0  3  0  0  0  0  0  0
  189.2660  177.1780  138.4080 C   0  0  2  0  0  3  0  0  0  0  0  0
  184.7450  179.1090  145.7890 C   0  0  0  0  0  2  0  0  0  0  0  0
  185.6440  178.4250  144.8570 N   0  0  0  0  0  0  0  0  0  0  0  0
  186.8750  177.5310  146.6260 O   0  0  0  0  0  0  0  0  0  0  0  0
  188.8020  177.2520  142.2310 C   0  0  0  0  0  0  0  0  0  0  0  0
  190.0260  176.9190  142.7160 N   0  0  0  0  0  0  0  0  0  0  0  0
  191.2590  176.5030  148.0220 O   0  0  0  0  0  0  0  0  0  0  0  0
  187.9710  177.4840  144.5010 C   0  0  0  0  0  0  0  0  0  0  0  0
  189.5680  177.1340  146.4650 C   0  0  0  0  0  2  0  0  0  0  0  0
  190.5220  177.6050  137.6610 C   0  0  0  0  0  2  0  0  0  0  0  0
  190.9630  176.5580  136.7390 N   0  0  0  0  0  2  0  0  0  0  0  0
  192.0520  175.7810  137.3310 C   0  0  1  0  0  3  0  0  0  0  0  0
  192.9110  176.6360  138.2500 C   0  0  0  0  0  1  0  0  0  0  0  0
  191.5600  174.6660  138.0150 O   0  0  0  0  0  1  0  0  0  0  0  0
  1 19  1  0  0  0  0
  1 10  2  0  0  0  0
  2 26  1  0  0  0  0
  3  4  1  0  0  0  0
  4 20  1  0  0  0  0
  5 27  1  0  0  0  0
  6 17  1  0  0  0  0
  6  5  1  0  0  0  0
  7 23  1  0  0  0  0
  9 25  2  0  0  0  0
 10 16  1  0  0  0  0
 11  3  1  0  0  0  0
 12  8  1  6  0  0  0
 12  2  1  0  0  0  0
 12 13  1  0  0  0  0
 13 11  1  6  0  0  0
 13 21  1  0  0  0  0
 14 22  2  0  0  0  0
 15  9  1  0  0  0  0
 16  7  1  0  0  0  0
 16  8  2  0  0  0  0
 17 15  2  0  0  0  0
 18  7  2  0  0  0  0
 19 28  1  6  0  0  0
 19 18  1  0  0  0  0
 21 14  1  0  0  0  0
 21 20  1  0  0  0  0
 23 24  1  0  0  0  0
 23  2  2  0  0  0  0
 24  6  2  0  0  0  0
 26  5  2  0  0  0  0
 26 14  1  0  0  0  0
 27  9  1  0  0  0  0
 29 30  1  0  0  0  0
 29 28  1  0  0  0  0
 30 32  1  0  0  0  0
 30 31  1  1  0  0  0
M  END
>  <MODEL>
7

>  <REMARK>
 VINA RESULT:      -9.7      1.927      5.241
  Name = 
  3 active torsions:
  status: ('A' for Active; 'I' for Inactive)
    1  A    between atoms: C_1  and  N_10
    2  A    between atoms: N_10  and  C_19
    3  A    between atoms: C_19  and  C_24
                            x       y       z     vdW  Elec       q    Type
                         _______ _______ _______ _____ _____    ______ ____

>  <TORSDO>
F 3

$$$$
=
 OpenBabel11052416503D

 32 37  0  0  1  0  0  0  0  0999 V2000
  182.8730  178.8760  139.6320 C   0  0  0  0  0  3  0  0  0  0  0  0
  187.2600  178.1970  142.1020 C   0  0  0  0  0  0  0  0  0  0  0  0
  190.3020  177.2670  138.2140 C   0  0  0  0  0  2  0  0  0  0  0  0
  191.4600  177.4020  139.1880 C   0  0  0  0  0  2  0  0  0  0  0  0
  187.9830  177.7280  144.3810 C   0  0  0  0  0  0  0  0  0  0  0  0
  186.6590  177.9680  144.8100 C   0  0  0  0  0  0  0  0  0  0  0  0
  184.8900  178.7440  141.6340 C   0  0  0  0  0  0  0  0  0  0  0  0
  186.3920  178.4310  139.7780 N   0  0  0  0  0  0  0  0  0  0  0  0
  188.5850  177.3050  146.8080 C   0  0  0  0  0  0  0  0  0  0  0  0
  184.0890  178.6010  139.2640 N   0  0  0  0  0  0  0  0  0  0  0  0
  189.1130  178.0630  138.7300 C   0  0  0  0  0  2  0  0  0  0  0  0
  187.5780  178.4770  140.6470 C   0  0  2  0  0  3  0  0  0  0  0  0
  188.6700  177.5510  140.1040 C   0  0  2  0  0  3  0  0  0  0  0  0
  189.6450  177.6260  142.4410 C   0  0  0  0  0  0  0  0  0  0  0  0
  187.1860  177.5630  147.1640 C   0  0  0  0  0  3  0  0  0  0  0  0
  185.1770  178.6290  140.1940 C   0  0  0  0  0  0  0  0  0  0  0  0
  186.2890  177.8660  146.2300 C   0  0  0  0  0  3  0  0  0  0  0  0
  183.6420  179.0020  142.0320 C   0  0  0  0  0  3  0  0  0  0  0  0
  182.5510  179.3180  141.0390 C   0  0  2  0  0  3  0  0  0  0  0  0
  191.0520  176.8420  140.5450 C   0  0  0  0  0  2  0  0  0  0  0  0
  189.8230  177.4820  141.0200 N   0  0  0  0  0  0  0  0  0  0  0  0
  190.6530  177.5680  143.1980 O   0  0  0  0  0  0  0  0  0  0  0  0
  185.9630  178.4230  142.5860 C   0  0  0  0  0  0  0  0  0  0  0  0
  185.6990  178.3030  143.9130 N   0  0  0  0  0  0  0  0  0  0  0  0
  189.4180  177.0670  147.7200 O   0  0  0  0  0  0  0  0  0  0  0  0
  188.2870  177.8580  143.0010 C   0  0  0  0  0  0  0  0  0  0  0  0
  189.0370  177.2930  145.3770 C   0  0  0  0  0  2  0  0  0  0  0  0
  181.2020  178.7840  141.5020 C   0  0  0  0  0  2  0  0  0  0  0  0
  180.6820  179.5750  142.6180 N   0  0  0  0  0  2  0  0  0  0  0  0
  180.0900  178.7000  143.6310 C   0  0  1  0  0  3  0  0  0  0  0  0
  178.9310  179.3780  144.3440 C   0  0  0  0  0  1  0  0  0  0  0  0
  179.6800  177.4880  143.0700 O   0  0  0  0  0  1  0  0  0  0  0  0
  1 19  1  0  0  0  0
  2 23  2  0  0  0  0
  2 26  1  0  0  0  0
  3 11  1  0  0  0  0
  3  4  1  0  0  0  0
  4 20  1  0  0  0  0
  5  6  1  0  0  0  0
  5 27  1  0  0  0  0
  6 17  1  0  0  0  0
  7 18  2  0  0  0  0
  7 23  1  0  0  0  0
  8 16  2  0  0  0  0
  9 15  1  0  0  0  0
  9 25  2  0  0  0  0
 10  1  2  0  0  0  0
 10 16  1  0  0  0  0
 12  8  1  6  0  0  0
 12  2  1  0  0  0  0
 13 11  1  6  0  0  0
 13 12  1  0  0  0  0
 13 21  1  0  0  0  0
 14 26  1  0  0  0  0
 14 22  2  0  0  0  0
 16  7  1  0  0  0  0
 17 15  2  0  0  0  0
 19 28  1  1  0  0  0
 19 18  1  0  0  0  0
 20 21  1  0  0  0  0
 21 14  1  0  0  0  0
 23 24  1  0  0  0  0
 24  6  2  0  0  0  0
 26  5  2  0  0  0  0
 27  9  1  0  0  0  0
 28 29  1  0  0  0  0
 29 30  1  0  0  0  0
 30 31  1  6  0  0  0
 32 30  1  0  0  0  0
M  END
>  <MODEL>
8

>  <REMARK>
 VINA RESULT:      -9.6      2.553      6.468
  Name = 
  3 active torsions:
  status: ('A' for Active; 'I' for Inactive)
    1  A    between atoms: C_1  and  N_10
    2  A    between atoms: N_10  and  C_19
    3  A    between atoms: C_19  and  C_24
                            x       y       z     vdW  Elec       q    Type
                         _______ _______ _______ _____ _____    ______ ____

>  <TORSDO>
F 3

$$$$
=
 OpenBabel11052416503D

 32 37  0  0  1  0  0  0  0  0999 V2000
  182.2980  179.1240  143.2720 C   0  0  0  0  0  3  0  0  0  0  0  0
  187.2010  177.8150  143.5050 C   0  0  0  0  0  0  0  0  0  0  0  0
  187.9420  178.1350  148.4640 C   0  0  0  0  0  2  0  0  0  0  0  0
  189.2790  177.4530  148.2290 C   0  0  0  0  0  2  0  0  0  0  0  0
  189.0920  177.6590  141.9780 C   0  0  0  0  0  0  0  0  0  0  0  0
  188.1930  177.8530  140.9060 C   0  0  0  0  0  0  0  0  0  0  0  0
  184.9210  178.2310  142.6300 C   0  0  0  0  0  0  0  0  0  0  0  0
  185.2640  178.2450  145.0130 N   0  0  0  0  0  0  0  0  0  0  0  0
  190.9470  177.4840  140.2570 C   0  0  0  0  0  0  0  0  0  0  0  0
  183.1570  178.9920  144.2390 N   0  0  0  0  0  0  0  0  0  0  0  0
  186.9790  177.7560  147.3490 C   0  0  0  0  0  2  0  0  0  0  0  0
  186.6040  177.6510  144.8890 C   0  0  2  0  0  3  0  0  0  0  0  0
  187.5270  178.1890  145.9860 C   0  0  2  0  0  3  0  0  0  0  0  0
  189.4350  177.4330  144.5010 C   0  0  0  0  0  0  0  0  0  0  0  0
  189.9460  177.6990  139.2070 C   0  0  0  0  0  3  0  0  0  0  0  0
  184.4590  178.4410  144.0120 C   0  0  0  0  0  0  0  0  0  0  0  0
  188.6640  177.8770  139.5120 C   0  0  0  0  0  3  0  0  0  0  0  0
  184.0590  178.3860  141.6230 C   0  0  0  0  0  3  0  0  0  0  0  0
  182.5920  178.6300  141.8760 C   0  0  2  0  0  3  0  0  0  0  0  0
  189.8630  177.9220  146.9030 C   0  0  0  0  0  2  0  0  0  0  0  0
  188.9090  177.7060  145.8130 N   0  0  0  0  0  0  0  0  0  0  0  0
  190.6200  177.0150  144.3870 O   0  0  0  0  0  0  0  0  0  0  0  0
  186.3560  178.0040  142.4020 C   0  0  0  0  0  0  0  0  0  0  0  0
  186.8690  178.0190  141.1450 N   0  0  0  0  0  0  0  0  0  0  0  0
  192.1430  177.2720  139.9330 O   0  0  0  0  0  0  0  0  0  0  0  0
  188.5800  177.6290  143.3000 C   0  0  0  0  0  0  0  0  0  0  0  0
  190.5780  177.5380  141.7110 C   0  0  0  0  0  2  0  0  0  0  0  0
  181.9860  179.5420  140.8170 C   0  0  0  0  0  2  0  0  0  0  0  0
  181.8800  178.8520  139.5320 N   0  0  0  0  0  2  0  0  0  0  0  0
  182.3930  179.6990  138.4540 C   0  0  1  0  0  3  0  0  0  0  0  0
  181.2970  180.5680  137.8580 C   0  0  0  0  0  1  0  0  0  0  0  0
  183.4580  180.4860  138.8980 O   0  0  0  0  0  1  0  0  0  0  0  0
  1 10  2  0  0  0  0
  4  3  1  0  0  0  0
  5 26  2  0  0  0  0
  6 24  2  0  0  0  0
  6  5  1  0  0  0  0
  7 16  1  0  0  0  0
  9 27  1  0  0  0  0
 11  3  1  0  0  0  0
 12  2  1  6  0  0  0
 12  8  1  0  0  0  0
 12 13  1  0  0  0  0
 13 11  1  1  0  0  0
 14 21  1  0  0  0  0
 15 17  2  0  0  0  0
 15  9  1  0  0  0  0
 16 10  1  0  0  0  0
 16  8  2  0  0  0  0
 17  6  1  0  0  0  0
 18 19  1  0  0  0  0
 18  7  2  0  0  0  0
 19 28  1  6  0  0  0
 19  1  1  0  0  0  0
 20  4  1  0  0  0  0
 21 13  1  0  0  0  0
 21 20  1  0  0  0  0
 22 14  2  0  0  0  0
 23  7  1  0  0  0  0
 23  2  2  0  0  0  0
 24 23  1  0  0  0  0
 25  9  2  0  0  0  0
 26  2  1  0  0  0  0
 26 14  1  0  0  0  0
 27  5  1  0  0  0  0
 29 28  1  0  0  0  0
 30 31  1  1  0  0  0
 30 32  1  0  0  0  0
 30 29  1  0  0  0  0
M  END
>  <MODEL>
9

>  <REMARK>
 VINA RESULT:      -9.5      2.696      5.726
  Name = 
  3 active torsions:
  status: ('A' for Active; 'I' for Inactive)
    1  A    between atoms: C_1  and  N_10
    2  A    between atoms: N_10  and  C_19
    3  A    between atoms: C_19  and  C_24
                            x       y       z     vdW  Elec       q    Type
                         _______ _______ _______ _____ _____    ______ ____

>  <TORSDO>
F 3

$$$$
