=
 OpenBabel11052417053D

 32 37  0  0  1  0  0  0  0  0999 V2000
  188.9960  177.1290  147.0810 C   0  0  2  0  0  3  0  0  0  0  0  0
  184.9980  178.4490  144.0600 C   0  0  0  0  0  0  0  0  0  0  0  0
  188.2190  178.2110  140.8780 O   0  0  0  0  0  0  0  0  0  0  0  0
  186.2940  178.5560  139.5370 N   0  0  0  0  0  0  0  0  0  0  0  0
  182.5380  178.7570  144.1560 C   0  0  0  0  0  3  0  0  0  0  0  0
  181.3210  178.9540  143.5030 C   0  0  0  0  0  0  0  0  0  0  0  0
  186.5200  178.1630  146.0970 C   0  0  0  0  0  0  0  0  0  0  0  0
  187.4970  178.1200  143.8540 C   0  0  0  0  0  3  0  0  0  0  0  0
  178.9320  179.3420  142.1750 N   0  0  0  0  0  0  0  0  0  0  0  0
  189.0540  177.8050  145.7120 C   0  0  0  0  0  2  0  0  0  0  0  0
  186.9770  178.3860  140.7770 C   0  0  0  0  0  0  0  0  0  0  0  0
  186.1660  178.3420  143.2540 C   0  0  0  0  0  0  0  0  0  0  0  0
  186.0290  178.4470  141.8690 C   0  0  0  0  0  0  0  0  0  0  0  0
  183.6490  178.7520  142.0070 C   0  0  0  0  0  0  0  0  0  0  0  0
  178.9330  179.2550  143.5340 C   0  0  0  0  0  3  0  0  0  0  0  0
  188.0860  177.9330  148.0130 C   0  0  0  0  0  2  0  0  0  0  0  0
  187.6710  178.0200  145.1720 C   0  0  0  0  0  0  0  0  0  0  0  0
  180.1320  179.0580  144.2250 C   0  0  0  0  0  3  0  0  0  0  0  0
  186.7110  178.0780  147.4200 C   0  0  0  0  0  3  0  0  0  0  0  0
  185.0330  178.7090  139.8140 C   0  0  0  0  0  3  0  0  0  0  0  0
  184.8210  178.6470  141.2650 C   0  0  0  0  0  0  0  0  0  0  0  0
  182.4520  178.9440  141.3890 N   0  0  0  0  0  0  0  0  0  0  0  0
  185.1650  178.3500  145.5390 C   0  0  0  0  0  0  0  0  0  0  0  0
  184.1750  178.4300  146.3170 O   0  0  0  0  0  0  0  0  0  0  0  0
  180.0790  179.2420  141.4490 C   0  0  0  0  0  3  0  0  0  0  0  0
  183.7300  178.6520  143.4260 C   0  0  0  0  0  0  0  0  0  0  0  0
  181.2990  179.0450  142.0990 C   0  0  0  0  0  0  0  0  0  0  0  0
  190.3970  177.0340  147.6590 C   0  0  0  0  0  2  0  0  0  0  0  0
  191.4180  176.8600  146.5500 C   0  0  0  0  0  2  0  0  0  0  0  0
  192.2980  175.7000  146.8520 C   0  0  0  0  0  0  0  0  0  0  0  0
  192.9830  175.6410  148.0580 O   0  0  0  0  0  1  0  0  0  0  0  0
  192.4400  174.7800  146.0030 O   0  0  0  0  0  0  0  0  0  0  0  0
  1 28  1  1  0  0  0
  1 16  1  0  0  0  0
  2 23  1  0  0  0  0
  4 20  2  0  0  0  0
  4 11  1  0  0  0  0
  6  5  1  0  0  0  0
  6 18  1  0  0  0  0
  7 19  2  0  0  0  0
  8 17  2  0  0  0  0
  9 15  1  0  0  0  0
 10  1  1  0  0  0  0
 11  3  2  0  0  0  0
 11 13  1  0  0  0  0
 12  8  1  0  0  0  0
 12  2  2  0  0  0  0
 13 12  1  0  0  0  0
 14 26  1  0  0  0  0
 15 18  2  0  0  0  0
 17 10  1  0  0  0  0
 17  7  1  0  0  0  0
 19 16  1  0  0  0  0
 20 21  1  0  0  0  0
 21 13  2  0  0  0  0
 21 14  1  0  0  0  0
 22 14  2  0  0  0  0
 22 27  1  0  0  0  0
 23  7  1  0  0  0  0
 23 24  2  0  0  0  0
 25 27  1  0  0  0  0
 25  9  2  0  0  0  0
 26  2  1  0  0  0  0
 26  5  2  0  0  0  0
 27  6  2  0  0  0  0
 29 30  1  0  0  0  0
 29 28  1  0  0  0  0
 30 31  1  0  0  0  0
 32 30  2  0  0  0  0
M  END
>  <MODEL>
1

>  <REMARK>
 VINA RESULT:     -12.1      0.000      0.000
  Name = 
  3 active torsions:
  status: ('A' for Active; 'I' for Inactive)
    1  A    between atoms: C_1  and  C_10
    2  A    between atoms: C_2  and  C_24
    3  A    between atoms: C_10  and  C_24
                            x       y       z     vdW  Elec       q    Type
                         _______ _______ _______ _____ _____    ______ ____

>  <TORSDO>
F 3

$$$$
=
 OpenBabel11052417053D

 32 37  0  0  1  0  0  0  0  0999 V2000
  181.5860  179.6460  142.8320 C   0  0  2  0  0  3  0  0  0  0  0  0
  186.4550  178.0610  143.6300 C   0  0  0  0  0  0  0  0  0  0  0  0
  186.6050  178.5060  139.1210 O   0  0  0  0  0  0  0  0  0  0  0  0
  188.8790  178.0330  139.5960 N   0  0  0  0  0  0  0  0  0  0  0  0
  188.0440  177.5900  145.4780 C   0  0  0  0  0  3  0  0  0  0  0  0
  189.3400  177.3130  145.9120 C   0  0  0  0  0  0  0  0  0  0  0  0
  183.9430  178.4490  143.9210 C   0  0  0  0  0  0  0  0  0  0  0  0
  184.9220  178.5540  141.6810 C   0  0  0  0  0  3  0  0  0  0  0  0
  191.9180  176.7670  146.7330 N   0  0  0  0  0  0  0  0  0  0  0  0
  182.5180  178.9730  141.8250 C   0  0  0  0  0  2  0  0  0  0  0  0
  187.5150  178.2500  139.9510 C   0  0  0  0  0  0  0  0  0  0  0  0
  186.2550  178.2440  142.2330 C   0  0  0  0  0  0  0  0  0  0  0  0
  187.3570  178.1270  141.3850 C   0  0  0  0  0  0  0  0  0  0  0  0
  188.8610  177.6660  143.2020 C   0  0  0  0  0  0  0  0  0  0  0  0
  190.9270  176.8550  147.6630 C   0  0  0  0  0  3  0  0  0  0  0  0
  181.4870  178.7850  144.0940 C   0  0  0  0  0  2  0  0  0  0  0  0
  183.8440  178.6670  142.4570 C   0  0  0  0  0  0  0  0  0  0  0  0
  189.6150  177.1310  147.2680 C   0  0  0  0  0  3  0  0  0  0  0  0
  182.8480  178.5480  144.6870 C   0  0  0  0  0  3  0  0  0  0  0  0
  189.5270  177.7970  140.6990 C   0  0  0  0  0  3  0  0  0  0  0  0
  188.6120  177.8470  141.8460 C   0  0  0  0  0  0  0  0  0  0  0  0
  190.1180  177.3940  143.6470 N   0  0  0  0  0  0  0  0  0  0  0  0
  185.2640  178.1730  144.5210 C   0  0  0  0  0  0  0  0  0  0  0  0
  185.3630  178.0280  145.7710 O   0  0  0  0  0  0  0  0  0  0  0  0
  191.6740  176.9400  145.4060 C   0  0  0  0  0  3  0  0  0  0  0  0
  187.7720  177.7730  144.1150 C   0  0  0  0  0  0  0  0  0  0  0  0
  190.3780  177.2180  144.9670 C   0  0  0  0  0  0  0  0  0  0  0  0
  180.2150  179.8340  142.2080 C   0  0  0  0  0  2  0  0  0  0  0  0
  179.3260  178.6420  142.5110 C   0  0  0  0  0  2  0  0  0  0  0  0
  179.1720  177.8050  141.2910 C   0  0  0  0  0  0  0  0  0  0  0  0
  179.1580  176.4200  141.3930 O   0  0  0  0  0  1  0  0  0  0  0  0
  179.0780  178.3520  140.1610 O   0  0  0  0  0  0  0  0  0  0  0  0
  1 28  1  6  0  0  0
  1 16  1  0  0  0  0
  2 26  1  0  0  0  0
  2 23  1  0  0  0  0
  3 11  2  0  0  0  0
  4 11  1  0  0  0  0
  4 20  2  0  0  0  0
  5  6  1  0  0  0  0
  6 18  1  0  0  0  0
  7 23  1  0  0  0  0
  7 19  2  0  0  0  0
  8 12  1  0  0  0  0
  8 17  2  0  0  0  0
  9 15  1  0  0  0  0
 10 17  1  0  0  0  0
 10  1  1  0  0  0  0
 11 13  1  0  0  0  0
 12  2  2  0  0  0  0
 13 21  2  0  0  0  0
 13 12  1  0  0  0  0
 14 22  2  0  0  0  0
 14 26  1  0  0  0  0
 16 19  1  0  0  0  0
 17  7  1  0  0  0  0
 18 15  2  0  0  0  0
 20 21  1  0  0  0  0
 21 14  1  0  0  0  0
 22 27  1  0  0  0  0
 23 24  2  0  0  0  0
 25  9  2  0  0  0  0
 26  5  2  0  0  0  0
 27 25  1  0  0  0  0
 27  6  2  0  0  0  0
 28 29  1  0  0  0  0
 30 31  1  0  0  0  0
 30 29  1  0  0  0  0
 32 30  2  0  0  0  0
M  END
>  <MODEL>
2

>  <REMARK>
 VINA RESULT:     -10.8      3.208      8.360
  Name = 
  3 active torsions:
  status: ('A' for Active; 'I' for Inactive)
    1  A    between atoms: C_1  and  C_10
    2  A    between atoms: C_2  and  C_24
    3  A    between atoms: C_10  and  C_24
                            x       y       z     vdW  Elec       q    Type
                         _______ _______ _______ _____ _____    ______ ____

>  <TORSDO>
F 3

$$$$
=
 OpenBabel11052417053D

 32 37  0  0  1  0  0  0  0  0999 V2000
  188.1030  177.1200  146.6410 C   0  0  2  0  0  3  0  0  0  0  0  0
  184.7630  178.5200  142.9350 C   0  0  0  0  0  0  0  0  0  0  0  0
  188.4680  178.0160  140.3710 O   0  0  0  0  0  0  0  0  0  0  0  0
  186.8240  178.4050  138.7060 N   0  0  0  0  0  0  0  0  0  0  0  0
  182.3430  178.9490  142.5930 C   0  0  0  0  0  3  0  0  0  0  0  0
  181.2690  179.1800  141.7330 C   0  0  0  0  0  0  0  0  0  0  0  0
  185.8930  178.2350  145.2140 C   0  0  0  0  0  0  0  0  0  0  0  0
  187.2390  178.0660  143.1770 C   0  0  0  0  0  3  0  0  0  0  0  0
  179.1700  179.6340  139.9990 N   0  0  0  0  0  0  0  0  0  0  0  0
  188.4330  177.7430  145.2860 C   0  0  0  0  0  2  0  0  0  0  0  0
  187.2730  178.2470  140.0500 C   0  0  0  0  0  0  0  0  0  0  0  0
  186.0450  178.3290  142.3490 C   0  0  0  0  0  0  0  0  0  0  0  0
  186.1550  178.3920  140.9590 C   0  0  0  0  0  0  0  0  0  0  0  0
  183.8070  178.8150  140.6720 C   0  0  0  0  0  0  0  0  0  0  0  0
  178.9320  179.5950  141.3390 C   0  0  0  0  0  3  0  0  0  0  0  0
  187.0890  177.9980  147.3780 C   0  0  0  0  0  2  0  0  0  0  0  0
  187.1770  178.0040  144.5070 C   0  0  0  0  0  0  0  0  0  0  0  0
  179.9810  179.3670  142.2330 C   0  0  0  0  0  3  0  0  0  0  0  0
  185.8480  178.1880  146.5520 C   0  0  0  0  0  3  0  0  0  0  0  0
  185.5440  178.6280  138.7550 C   0  0  0  0  0  3  0  0  0  0  0  0
  185.0820  178.6280  140.1480 C   0  0  0  0  0  0  0  0  0  0  0  0
  182.7460  179.0420  139.8490 N   0  0  0  0  0  0  0  0  0  0  0  0
  184.6660  178.4660  144.4230 C   0  0  0  0  0  0  0  0  0  0  0  0
  183.5630  178.6210  145.0140 O   0  0  0  0  0  0  0  0  0  0  0  0
  180.4180  179.4540  139.4870 C   0  0  0  0  0  3  0  0  0  0  0  0
  183.6360  178.7610  142.0850 C   0  0  0  0  0  0  0  0  0  0  0  0
  181.4950  179.2230  140.3440 C   0  0  0  0  0  0  0  0  0  0  0  0
  189.3760  176.9780  147.4570 C   0  0  0  0  0  2  0  0  0  0  0  0
  190.5700  177.4850  146.6690 C   0  0  0  0  0  2  0  0  0  0  0  0
  191.5850  176.4050  146.5420 C   0  0  0  0  0  0  0  0  0  0  0  0
  192.1280  175.8230  147.6800 O   0  0  0  0  0  1  0  0  0  0  0  0
  191.9690  176.0340  145.4020 O   0  0  0  0  0  0  0  0  0  0  0  0
  1 16  1  0  0  0  0
  1 28  1  1  0  0  0
  2 23  1  0  0  0  0
  4 20  2  0  0  0  0
  4 11  1  0  0  0  0
  6 18  1  0  0  0  0
  6  5  2  0  0  0  0
  7 19  2  0  0  0  0
  8 17  2  0  0  0  0
  9 15  1  0  0  0  0
 10  1  1  0  0  0  0
 11  3  2  0  0  0  0
 11 13  1  0  0  0  0
 12  2  1  0  0  0  0
 12  8  1  0  0  0  0
 13 12  2  0  0  0  0
 14 26  1  0  0  0  0
 15 18  2  0  0  0  0
 17  7  1  0  0  0  0
 17 10  1  0  0  0  0
 19 16  1  0  0  0  0
 20 21  1  0  0  0  0
 21 14  2  0  0  0  0
 21 13  1  0  0  0  0
 22 27  2  0  0  0  0
 22 14  1  0  0  0  0
 23 24  2  0  0  0  0
 23  7  1  0  0  0  0
 25  9  2  0  0  0  0
 25 27  1  0  0  0  0
 26  5  1  0  0  0  0
 26  2  2  0  0  0  0
 27  6  1  0  0  0  0
 29 28  1  0  0  0  0
 30 29  1  0  0  0  0
 30 31  1  0  0  0  0
 32 30  2  0  0  0  0
M  END
>  <MODEL>
3

>  <REMARK>
 VINA RESULT:     -10.5      1.090      1.339
  Name = 
  3 active torsions:
  status: ('A' for Active; 'I' for Inactive)
    1  A    between atoms: C_1  and  C_10
    2  A    between atoms: C_2  and  C_24
    3  A    between atoms: C_10  and  C_24
                            x       y       z     vdW  Elec       q    Type
                         _______ _______ _______ _____ _____    ______ ____

>  <TORSDO>
F 3

$$$$
=
 OpenBabel11052417053D

 32 37  0  0  1  0  0  0  0  0999 V2000
  180.9210  179.7830  140.6970 C   0  0  2  0  0  3  0  0  0  0  0  0
  185.2760  178.3750  143.1270 C   0  0  0  0  0  0  0  0  0  0  0  0
  186.8370  178.3930  138.8710 O   0  0  0  0  0  0  0  0  0  0  0  0
  188.8420  178.0110  140.0770 N   0  0  0  0  0  0  0  0  0  0  0  0
  186.2000  178.1140  145.4160 C   0  0  0  0  0  3  0  0  0  0  0  0
  187.2910  177.9040  146.2590 C   0  0  0  0  0  0  0  0  0  0  0  0
  182.8040  178.7420  142.5780 C   0  0  0  0  0  0  0  0  0  0  0  0
  184.4370  178.6510  140.7580 C   0  0  0  0  0  3  0  0  0  0  0  0
  189.4760  177.4880  147.8940 N   0  0  0  0  0  0  0  0  0  0  0  0
  182.1140  179.0360  140.1010 C   0  0  0  0  0  2  0  0  0  0  0  0
  187.4380  178.2340  139.9650 C   0  0  0  0  0  0  0  0  0  0  0  0
  185.5260  178.4210  141.7270 C   0  0  0  0  0  0  0  0  0  0  0  0
  186.8370  178.2450  141.2820 C   0  0  0  0  0  0  0  0  0  0  0  0
  187.6900  177.9880  143.5140 C   0  0  0  0  0  0  0  0  0  0  0  0
  188.2440  177.6450  148.4530 C   0  0  0  0  0  3  0  0  0  0  0  0
  180.4210  179.0450  141.9400 C   0  0  0  0  0  2  0  0  0  0  0  0
  183.1710  178.8170  141.1430 C   0  0  0  0  0  0  0  0  0  0  0  0
  187.1250  177.8570  147.6430 C   0  0  0  0  0  3  0  0  0  0  0  0
  181.5250  178.8920  142.9500 C   0  0  0  0  0  3  0  0  0  0  0  0
  189.1080  177.8930  141.3450 C   0  0  0  0  0  3  0  0  0  0  0  0
  187.8810  178.0350  142.1370 C   0  0  0  0  0  0  0  0  0  0  0  0
  188.7410  177.7840  144.3540 N   0  0  0  0  0  0  0  0  0  0  0  0
  183.8670  178.5490  143.5850 C   0  0  0  0  0  0  0  0  0  0  0  0
  183.5680  178.5250  144.8110 O   0  0  0  0  0  0  0  0  0  0  0  0
  189.6620  177.5300  146.5470 C   0  0  0  0  0  3  0  0  0  0  0  0
  186.3710  178.1610  144.0250 C   0  0  0  0  0  0  0  0  0  0  0  0
  188.5720  177.7390  145.7000 C   0  0  0  0  0  0  0  0  0  0  0  0
  179.8180  179.8850  139.6590 C   0  0  0  0  0  2  0  0  0  0  0  0
  180.3710  180.4030  138.3440 C   0  0  0  0  0  2  0  0  0  0  0  0
  180.5050  181.8830  138.4020 C   0  0  0  0  0  0  0  0  0  0  0  0
  179.4060  182.6700  138.7190 O   0  0  0  0  0  1  0  0  0  0  0  0
  181.6110  182.4250  138.1410 O   0  0  0  0  0  0  0  0  0  0  0  0
  1 28  1  6  0  0  0
  1 16  1  0  0  0  0
  2 23  1  0  0  0  0
  2 26  1  0  0  0  0
  3 11  2  0  0  0  0
  4 20  2  0  0  0  0
  5  6  1  0  0  0  0
  6 18  1  0  0  0  0
  7 19  2  0  0  0  0
  7 23  1  0  0  0  0
  8 17  2  0  0  0  0
  8 12  1  0  0  0  0
  9 15  1  0  0  0  0
 10  1  1  0  0  0  0
 10 17  1  0  0  0  0
 11  4  1  0  0  0  0
 11 13  1  0  0  0  0
 12  2  2  0  0  0  0
 13 12  1  0  0  0  0
 13 21  2  0  0  0  0
 14 26  1  0  0  0  0
 14 22  2  0  0  0  0
 16 19  1  0  0  0  0
 17  7  1  0  0  0  0
 18 15  2  0  0  0  0
 20 21  1  0  0  0  0
 21 14  1  0  0  0  0
 22 27  1  0  0  0  0
 23 24  2  0  0  0  0
 25  9  2  0  0  0  0
 26  5  2  0  0  0  0
 27  6  2  0  0  0  0
 27 25  1  0  0  0  0
 29 30  1  0  0  0  0
 29 28  1  0  0  0  0
 30 31  1  0  0  0  0
 32 30  2  0  0  0  0
M  END
>  <MODEL>
4

>  <REMARK>
 VINA RESULT:     -10.0      3.544      8.513
  Name = 
  3 active torsions:
  status: ('A' for Active; 'I' for Inactive)
    1  A    between atoms: C_1  and  C_10
    2  A    between atoms: C_2  and  C_24
    3  A    between atoms: C_10  and  C_24
                            x       y       z     vdW  Elec       q    Type
                         _______ _______ _______ _____ _____    ______ ____

>  <TORSDO>
F 3

$$$$
=
 OpenBabel11052417053D

 32 37  0  0  1  0  0  0  0  0999 V2000
  180.9180  178.5470  141.7950 C   0  0  2  0  0  3  0  0  0  0  0  0
  186.0190  178.2560  142.6590 C   0  0  0  0  0  0  0  0  0  0  0  0
  184.5960  178.3630  146.9620 O   0  0  0  0  0  0  0  0  0  0  0  0
  186.9130  177.9650  147.2700 N   0  0  0  0  0  0  0  0  0  0  0  0
  188.1570  177.9150  141.4440 C   0  0  0  0  0  3  0  0  0  0  0  0
  189.5300  177.6740  141.4660 C   0  0  0  0  0  0  0  0  0  0  0  0
  183.7600  178.7160  141.5480 C   0  0  0  0  0  0  0  0  0  0  0  0
  183.8910  178.5690  143.9870 C   0  0  0  0  0  3  0  0  0  0  0  0
  192.2480  177.1960  141.5490 N   0  0  0  0  0  0  0  0  0  0  0  0
  181.6710  178.9830  143.0520 C   0  0  0  0  0  2  0  0  0  0  0  0
  185.7460  178.1850  146.4820 C   0  0  0  0  0  0  0  0  0  0  0  0
  185.3460  178.3310  143.9100 C   0  0  0  0  0  0  0  0  0  0  0  0
  186.0950  178.1710  145.0770 C   0  0  0  0  0  0  0  0  0  0  0  0
  188.1440  177.8540  143.8630 C   0  0  0  0  0  0  0  0  0  0  0  0
  191.6320  177.3350  140.3430 C   0  0  0  0  0  3  0  0  0  0  0  0
  181.5340  179.2220  140.5670 C   0  0  0  0  0  2  0  0  0  0  0  0
  183.1420  178.7340  142.8970 C   0  0  0  0  0  0  0  0  0  0  0  0
  190.2570  177.5770  140.2790 C   0  0  0  0  0  3  0  0  0  0  0  0
  182.9990  178.9010  140.4610 C   0  0  0  0  0  3  0  0  0  0  0  0
  187.9090  177.8230  146.4450 C   0  0  0  0  0  3  0  0  0  0  0  0
  187.4410  177.9430  145.0590 C   0  0  0  0  0  0  0  0  0  0  0  0
  189.4850  177.6200  143.8620 N   0  0  0  0  0  0  0  0  0  0  0  0
  185.2070  178.4460  141.4220 C   0  0  0  0  0  0  0  0  0  0  0  0
  185.7330  178.3870  140.2760 O   0  0  0  0  0  0  0  0  0  0  0  0
  191.5600  177.2870  142.7200 C   0  0  0  0  0  3  0  0  0  0  0  0
  187.4310  178.0110  142.6400 C   0  0  0  0  0  0  0  0  0  0  0  0
  190.1860  177.5270  142.7030 C   0  0  0  0  0  0  0  0  0  0  0  0
  179.4520  178.9200  141.9270 C   0  0  0  0  0  2  0  0  0  0  0  0
  178.9750  179.6460  140.6820 C   0  0  0  0  0  2  0  0  0  0  0  0
  179.0130  181.1160  140.9100 C   0  0  0  0  0  0  0  0  0  0  0  0
  178.9310  181.9900  139.8340 O   0  0  0  0  0  0  0  0  0  0  0  0
  179.1420  181.5680  142.0780 O   0  0  0  0  0  1  0  0  0  0  0  0
  1 28  1  1  0  0  0
  1 10  1  0  0  0  0
  2 12  1  0  0  0  0
  5  6  2  0  0  0  0
  5 26  1  0  0  0  0
  6 27  1  0  0  0  0
  7 17  1  0  0  0  0
  9 25  2  0  0  0  0
 11  3  2  0  0  0  0
 11  4  1  0  0  0  0
 12  8  1  0  0  0  0
 12 13  2  0  0  0  0
 13 11  1  0  0  0  0
 14 21  2  0  0  0  0
 15  9  1  0  0  0  0
 16  1  1  0  0  0  0
 17 10  1  0  0  0  0
 17  8  2  0  0  0  0
 18 15  2  0  0  0  0
 18  6  1  0  0  0  0
 19 16  1  0  0  0  0
 19  7  2  0  0  0  0
 20  4  2  0  0  0  0
 21 13  1  0  0  0  0
 21 20  1  0  0  0  0
 22 14  1  0  0  0  0
 23  7  1  0  0  0  0
 23  2  1  0  0  0  0
 24 23  2  0  0  0  0
 26  2  2  0  0  0  0
 26 14  1  0  0  0  0
 27 25  1  0  0  0  0
 27 22  2  0  0  0  0
 29 30  1  0  0  0  0
 29 28  1  0  0  0  0
 30 32  1  0  0  0  0
 31 30  2  0  0  0  0
M  END
>  <MODEL>
5

>  <REMARK>
 VINA RESULT:      -9.9      3.568      9.225
  Name = 
  3 active torsions:
  status: ('A' for Active; 'I' for Inactive)
    1  A    between atoms: C_1  and  C_10
    2  A    between atoms: C_2  and  C_24
    3  A    between atoms: C_10  and  C_24
                            x       y       z     vdW  Elec       q    Type
                         _______ _______ _______ _____ _____    ______ ____

>  <TORSDO>
F 3

$$$$
=
 OpenBabel11052417053D

 32 37  0  0  1  0  0  0  0  0999 V2000
  187.3380  177.8460  137.1180 C   0  0  2  0  0  3  0  0  0  0  0  0
  186.9720  178.2040  142.2750 C   0  0  0  0  0  0  0  0  0  0  0  0
  182.6250  178.9470  141.2210 O   0  0  0  0  0  0  0  0  0  0  0  0
  182.4960  178.8340  143.5860 N   0  0  0  0  0  0  0  0  0  0  0  0
  188.3260  177.8560  144.3260 C   0  0  0  0  0  3  0  0  0  0  0  0
  188.4060  177.7550  145.7140 C   0  0  0  0  0  0  0  0  0  0  0  0
  187.9040  178.2390  139.8920 C   0  0  0  0  0  0  0  0  0  0  0  0
  185.5020  178.5460  140.2450 C   0  0  0  0  0  3  0  0  0  0  0  0
  188.5250  177.5630  148.4660 N   0  0  0  0  0  0  0  0  0  0  0  0
  186.2590  178.5710  137.9210 C   0  0  0  0  0  2  0  0  0  0  0  0
  183.1850  178.7960  142.3380 C   0  0  0  0  0  0  0  0  0  0  0  0
  185.6890  178.4390  141.7060 C   0  0  0  0  0  0  0  0  0  0  0  0
  184.5950  178.5630  142.5650 C   0  0  0  0  0  0  0  0  0  0  0  0
  185.9440  178.2310  144.5260 C   0  0  0  0  0  0  0  0  0  0  0  0
  189.6670  177.4220  147.7370 C   0  0  0  0  0  3  0  0  0  0  0  0
  188.7200  178.3450  137.5470 C   0  0  0  0  0  2  0  0  0  0  0  0
  186.5210  178.4400  139.3930 C   0  0  0  0  0  0  0  0  0  0  0  0
  189.6280  177.5160  146.3430 C   0  0  0  0  0  3  0  0  0  0  0  0
  188.9220  178.1510  139.0250 C   0  0  0  0  0  3  0  0  0  0  0  0
  183.3840  178.6420  144.5170 C   0  0  0  0  0  3  0  0  0  0  0  0
  184.7140  178.4660  143.9220 C   0  0  0  0  0  0  0  0  0  0  0  0
  186.0440  178.1300  145.8800 N   0  0  0  0  0  0  0  0  0  0  0  0
  188.1320  178.0890  141.3440 C   0  0  0  0  0  0  0  0  0  0  0  0
  189.2990  177.8770  141.7730 O   0  0  0  0  0  0  0  0  0  0  0  0
  187.3220  177.7960  147.8740 C   0  0  0  0  0  3  0  0  0  0  0  0
  187.0950  178.0960  143.6980 C   0  0  0  0  0  0  0  0  0  0  0  0
  187.2370  177.8970  146.4850 C   0  0  0  0  0  0  0  0  0  0  0  0
  187.1200  178.0950  135.6360 C   0  0  0  0  0  2  0  0  0  0  0  0
  186.0220  177.1930  135.1030 C   0  0  0  0  0  2  0  0  0  0  0  0
  186.4240  175.7690  135.2500 C   0  0  0  0  0  0  0  0  0  0  0  0
  187.5950  175.3110  134.6620 O   0  0  0  0  0  0  0  0  0  0  0  0
  185.6900  174.9710  135.8900 O   0  0  0  0  0  1  0  0  0  0  0  0
  1 28  1  6  0  0  0
  1 16  1  0  0  0  0
  1 10  1  0  0  0  0
  2 26  1  0  0  0  0
  3 11  2  0  0  0  0
  4 20  2  0  0  0  0
  5  6  1  0  0  0  0
  6 18  2  0  0  0  0
  6 27  1  0  0  0  0
  7 23  1  0  0  0  0
  8 12  1  0  0  0  0
 10 17  1  0  0  0  0
 11 13  1  0  0  0  0
 11  4  1  0  0  0  0
 12  2  2  0  0  0  0
 12 13  1  0  0  0  0
 13 21  2  0  0  0  0
 14 22  2  0  0  0  0
 15  9  2  0  0  0  0
 16 19  1  0  0  0  0
 17  7  1  0  0  0  0
 17  8  2  0  0  0  0
 18 15  1  0  0  0  0
 19  7  2  0  0  0  0
 21 20  1  0  0  0  0
 21 14  1  0  0  0  0
 22 27  1  0  0  0  0
 23 24  2  0  0  0  0
 23  2  1  0  0  0  0
 25  9  1  0  0  0  0
 26  5  2  0  0  0  0
 26 14  1  0  0  0  0
 27 25  2  0  0  0  0
 29 30  1  0  0  0  0
 29 28  1  0  0  0  0
 30 32  1  0  0  0  0
 31 30  2  0  0  0  0
M  END
>  <MODEL>
6

>  <REMARK>
 VINA RESULT:      -9.7      3.434      8.211
  Name = 
  3 active torsions:
  status: ('A' for Active; 'I' for Inactive)
    1  A    between atoms: C_1  and  C_10
    2  A    between atoms: C_2  and  C_24
    3  A    between atoms: C_10  and  C_24
                            x       y       z     vdW  Elec       q    Type
                         _______ _______ _______ _____ _____    ______ ____

>  <TORSDO>
F 3

$$$$
=
 OpenBabel11052417053D

 32 37  0  0  1  0  0  0  0  0999 V2000
  185.4670  177.8870  137.9320 C   0  0  2  0  0  3  0  0  0  0  0  0
  187.3140  177.9490  142.7730 C   0  0  0  0  0  0  0  0  0  0  0  0
  183.0520  179.2260  143.6440 O   0  0  0  0  0  0  0  0  0  0  0  0
  183.8990  178.9750  145.8450 N   0  0  0  0  0  0  0  0  0  0  0  0
  189.3390  177.3250  144.0650 C   0  0  0  0  0  3  0  0  0  0  0  0
  189.9740  177.1280  145.2910 C   0  0  0  0  0  0  0  0  0  0  0  0
  187.1740  178.0370  140.2190 C   0  0  0  0  0  0  0  0  0  0  0  0
  185.1920  178.5790  141.5490 C   0  0  0  0  0  3  0  0  0  0  0  0
  191.1940  176.7460  147.7370 N   0  0  0  0  0  0  0  0  0  0  0  0
  184.9170  178.6710  139.1220 C   0  0  0  0  0  2  0  0  0  0  0  0
  183.9990  178.9430  144.4220 C   0  0  0  0  0  0  0  0  0  0  0  0
  185.9510  178.3580  142.7970 C   0  0  0  0  0  0  0  0  0  0  0  0
  185.3360  178.5440  144.0360 C   0  0  0  0  0  0  0  0  0  0  0  0
  187.3220  177.9420  145.2480 C   0  0  0  0  0  0  0  0  0  0  0  0
  191.9050  176.5300  146.5960 C   0  0  0  0  0  3  0  0  0  0  0  0
  186.9540  178.2050  137.7500 C   0  0  0  0  0  2  0  0  0  0  0  0
  185.7460  178.4180  140.3470 C   0  0  0  0  0  0  0  0  0  0  0  0
  191.3060  176.7170  145.3480 C   0  0  0  0  0  3  0  0  0  0  0  0
  187.7220  177.8960  139.0050 C   0  0  0  0  0  3  0  0  0  0  0  0
  185.0600  178.6280  146.3160 C   0  0  0  0  0  3  0  0  0  0  0  0
  185.9910  178.3480  145.2170 C   0  0  0  0  0  0  0  0  0  0  0  0
  187.9590  177.7440  146.4340 N   0  0  0  0  0  0  0  0  0  0  0  0
  187.9610  177.7700  141.4400 C   0  0  0  0  0  0  0  0  0  0  0  0
  189.1640  177.4050  141.3400 O   0  0  0  0  0  0  0  0  0  0  0  0
  189.8940  177.1460  147.7070 C   0  0  0  0  0  3  0  0  0  0  0  0
  188.0000  177.7370  144.0130 C   0  0  0  0  0  0  0  0  0  0  0  0
  189.2560  177.3450  146.4820 C   0  0  0  0  0  0  0  0  0  0  0  0
  184.6890  178.2530  136.6800 C   0  0  0  0  0  2  0  0  0  0  0  0
  183.7710  177.1150  136.2750 C   0  0  0  0  0  2  0  0  0  0  0  0
  182.4070  177.3490  136.8200 C   0  0  0  0  0  0  0  0  0  0  0  0
  181.6440  176.2810  137.2700 O   0  0  0  0  0  1  0  0  0  0  0  0
  181.9340  178.5160  136.8510 O   0  0  0  0  0  0  0  0  0  0  0  0
  1 28  1  6  0  0  0
  1 10  1  0  0  0  0
  2 12  2  0  0  0  0
  2 26  1  0  0  0  0
  3 11  2  0  0  0  0
  4 20  2  0  0  0  0
  5  6  1  0  0  0  0
  6 18  2  0  0  0  0
  6 27  1  0  0  0  0
  7 17  1  0  0  0  0
  7 23  1  0  0  0  0
  8 12  1  0  0  0  0
 10 17  1  0  0  0  0
 11  4  1  0  0  0  0
 12 13  1  0  0  0  0
 13 11  1  0  0  0  0
 13 21  2  0  0  0  0
 14 22  2  0  0  0  0
 15  9  2  0  0  0  0
 16  1  1  0  0  0  0
 16 19  1  0  0  0  0
 17  8  2  0  0  0  0
 18 15  1  0  0  0  0
 19  7  2  0  0  0  0
 21 14  1  0  0  0  0
 21 20  1  0  0  0  0
 22 27  1  0  0  0  0
 23  2  1  0  0  0  0
 24 23  2  0  0  0  0
 25  9  1  0  0  0  0
 26  5  2  0  0  0  0
 26 14  1  0  0  0  0
 27 25  2  0  0  0  0
 29 28  1  0  0  0  0
 29 30  1  0  0  0  0
 30 32  2  0  0  0  0
 30 31  1  0  0  0  0
M  END
>  <MODEL>
7

>  <REMARK>
 VINA RESULT:      -9.7      3.404      9.006
  Name = 
  3 active torsions:
  status: ('A' for Active; 'I' for Inactive)
    1  A    between atoms: C_1  and  C_10
    2  A    between atoms: C_2  and  C_24
    3  A    between atoms: C_10  and  C_24
                            x       y       z     vdW  Elec       q    Type
                         _______ _______ _______ _____ _____    ______ ____

>  <TORSDO>
F 3

$$$$
=
 OpenBabel11052417053D

 32 37  0  0  1  0  0  0  0  0999 V2000
  192.1510  177.5320  140.1750 C   0  0  2  0  0  3  0  0  0  0  0  0
  187.6390  177.8260  142.7060 C   0  0  0  0  0  0  0  0  0  0  0  0
  190.3810  177.1740  146.2570 O   0  0  0  0  0  0  0  0  0  0  0  0
  188.3190  177.5810  147.3560 N   0  0  0  0  0  0  0  0  0  0  0  0
  185.2470  178.3550  142.3120 C   0  0  0  0  0  3  0  0  0  0  0  0
  183.9720  178.6200  142.8120 C   0  0  0  0  0  0  0  0  0  0  0  0
  189.3800  177.4540  140.8670 C   0  0  0  0  0  0  0  0  0  0  0  0
  190.0630  177.3100  143.2130 C   0  0  0  0  0  3  0  0  0  0  0  0
  181.4640  179.1410  143.8420 N   0  0  0  0  0  0  0  0  0  0  0  0
  191.8260  176.9650  141.5560 C   0  0  0  0  0  2  0  0  0  0  0  0
  189.1500  177.4320  146.2070 C   0  0  0  0  0  0  0  0  0  0  0  0
  188.6790  177.5870  143.6470 C   0  0  0  0  0  0  0  0  0  0  0  0
  188.3630  177.6220  145.0070 C   0  0  0  0  0  0  0  0  0  0  0  0
  186.0520  178.1250  144.5810 C   0  0  0  0  0  0  0  0  0  0  0  0
  181.6430  179.1360  142.4920 C   0  0  0  0  0  3  0  0  0  0  0  0
  191.1290  177.0230  139.1560 C   0  0  0  0  0  2  0  0  0  0  0  0
  190.4020  177.2620  141.9250 C   0  0  0  0  0  0  0  0  0  0  0  0
  182.9050  178.8740  141.9510 C   0  0  0  0  0  3  0  0  0  0  0  0
  189.7320  177.3850  139.5760 C   0  0  0  0  0  3  0  0  0  0  0  0
  187.1200  177.8420  146.9280 C   0  0  0  0  0  3  0  0  0  0  0  0
  187.1010  177.8780  145.4610 C   0  0  0  0  0  0  0  0  0  0  0  0
  184.8010  178.3850  145.0500 N   0  0  0  0  0  0  0  0  0  0  0  0
  187.9900  177.7690  141.2570 C   0  0  0  0  0  0  0  0  0  0  0  0
  187.1230  177.9750  140.3640 O   0  0  0  0  0  0  0  0  0  0  0  0
  182.4900  178.8970  144.7020 C   0  0  0  0  0  3  0  0  0  0  0  0
  186.3160  178.1010  143.1820 C   0  0  0  0  0  0  0  0  0  0  0  0
  183.7670  178.6310  144.2050 C   0  0  0  0  0  0  0  0  0  0  0  0
  193.5550  177.1150  139.7730 C   0  0  0  0  0  2  0  0  0  0  0  0
  193.5450  176.4740  138.3970 C   0  0  0  0  0  2  0  0  0  0  0  0
  194.3950  175.2540  138.4040 C   0  0  0  0  0  0  0  0  0  0  0  0
  194.0260  174.1440  137.6540 O   0  0  0  0  0  0  0  0  0  0  0  0
  195.4380  175.2170  139.1080 O   0  0  0  0  0  1  0  0  0  0  0  0
  1 28  1  6  0  0  0
  1 10  1  0  0  0  0
  2 26  2  0  0  0  0
  2 12  1  0  0  0  0
  5  6  2  0  0  0  0
  5 26  1  0  0  0  0
  6 27  1  0  0  0  0
  7 23  1  0  0  0  0
  7 17  1  0  0  0  0
  8 12  1  0  0  0  0
  9 25  2  0  0  0  0
 10 17  1  0  0  0  0
 11  3  2  0  0  0  0
 11  4  1  0  0  0  0
 12 13  2  0  0  0  0
 13 21  1  0  0  0  0
 13 11  1  0  0  0  0
 14 22  1  0  0  0  0
 14 21  2  0  0  0  0
 15  9  1  0  0  0  0
 16 19  1  0  0  0  0
 16  1  1  0  0  0  0
 17  8  2  0  0  0  0
 18 15  2  0  0  0  0
 18  6  1  0  0  0  0
 19  7  2  0  0  0  0
 20  4  2  0  0  0  0
 21 20  1  0  0  0  0
 23  2  1  0  0  0  0
 24 23  2  0  0  0  0
 26 14  1  0  0  0  0
 27 25  1  0  0  0  0
 27 22  2  0  0  0  0
 29 30  1  0  0  0  0
 29 28  1  0  0  0  0
 30 32  1  0  0  0  0
 31 30  2  0  0  0  0
M  END
>  <MODEL>
8

>  <REMARK>
 VINA RESULT:      -9.6      4.005      5.934
  Name = 
  3 active torsions:
  status: ('A' for Active; 'I' for Inactive)
    1  A    between atoms: C_1  and  C_10
    2  A    between atoms: C_2  and  C_24
    3  A    between atoms: C_10  and  C_24
                            x       y       z     vdW  Elec       q    Type
                         _______ _______ _______ _____ _____    ______ ____

>  <TORSDO>
F 3

$$$$
=
 OpenBabel11052417053D

 32 37  0  0  1  0  0  0  0  0999 V2000
  192.0080  177.1080  138.3640 C   0  0  2  0  0  3  0  0  0  0  0  0
  188.4730  177.5290  142.1290 C   0  0  0  0  0  0  0  0  0  0  0  0
  192.0550  176.4020  144.6690 O   0  0  0  0  0  0  0  0  0  0  0  0
  190.4490  176.8700  146.3500 N   0  0  0  0  0  0  0  0  0  0  0  0
  186.1280  178.2590  142.4900 C   0  0  0  0  0  3  0  0  0  0  0  0
  185.0850  178.5760  143.3590 C   0  0  0  0  0  0  0  0  0  0  0  0
  189.5620  177.1770  139.8410 C   0  0  0  0  0  0  0  0  0  0  0  0
  190.8800  176.8010  141.8680 C   0  0  0  0  0  3  0  0  0  0  0  0
  183.0430  179.1950  145.1120 N   0  0  0  0  0  0  0  0  0  0  0  0
  192.0470  176.4600  139.7470 C   0  0  0  0  0  2  0  0  0  0  0  0
  190.8930  176.7530  145.0000 C   0  0  0  0  0  0  0  0  0  0  0  0
  189.7140  177.1420  142.7070 C   0  0  0  0  0  0  0  0  0  0  0  0
  189.8120  177.0930  144.0980 C   0  0  0  0  0  0  0  0  0  0  0  0
  187.5340  177.7930  144.4040 C   0  0  0  0  0  0  0  0  0  0  0  0
  182.8210  179.2830  143.7710 C   0  0  0  0  0  3  0  0  0  0  0  0
  190.6920  176.7560  137.6680 C   0  0  0  0  0  2  0  0  0  0  0  0
  190.8250  176.8290  140.5360 C   0  0  0  0  0  0  0  0  0  0  0  0
  183.8410  178.9730  142.8670 C   0  0  0  0  0  3  0  0  0  0  0  0
  189.5160  177.1840  138.5020 C   0  0  0  0  0  3  0  0  0  0  0  0
  189.2060  177.2510  146.3100 C   0  0  0  0  0  3  0  0  0  0  0  0
  188.7650  177.4030  144.9190 C   0  0  0  0  0  0  0  0  0  0  0  0
  186.5020  178.1070  145.2350 N   0  0  0  0  0  0  0  0  0  0  0  0
  188.3810  177.5600  140.6400 C   0  0  0  0  0  0  0  0  0  0  0  0
  187.3150  177.8980  140.0560 O   0  0  0  0  0  0  0  0  0  0  0  0
  184.2470  178.8100  145.6150 C   0  0  0  0  0  3  0  0  0  0  0  0
  187.3760  177.8610  142.9900 C   0  0  0  0  0  0  0  0  0  0  0  0
  185.2950  178.4920  144.7490 C   0  0  0  0  0  0  0  0  0  0  0  0
  193.1900  176.6230  137.5430 C   0  0  0  0  0  2  0  0  0  0  0  0
  193.2830  175.1090  137.5910 C   0  0  0  0  0  2  0  0  0  0  0  0
  194.7050  174.6970  137.7400 C   0  0  0  0  0  0  0  0  0  0  0  0
  195.0530  173.7160  138.6600 O   0  0  0  0  0  1  0  0  0  0  0  0
  195.5970  175.2530  137.0480 O   0  0  0  0  0  0  0  0  0  0  0  0
  1 28  1  6  0  0  0
  1 10  1  0  0  0  0
  2 12  2  0  0  0  0
  2 26  1  0  0  0  0
  3 11  2  0  0  0  0
  5 26  2  0  0  0  0
  5  6  1  0  0  0  0
  6 27  1  0  0  0  0
  7 17  1  0  0  0  0
  7 23  1  0  0  0  0
  8 12  1  0  0  0  0
  9 25  1  0  0  0  0
 10 17  1  0  0  0  0
 11  4  1  0  0  0  0
 12 13  1  0  0  0  0
 13 21  2  0  0  0  0
 13 11  1  0  0  0  0
 14 21  1  0  0  0  0
 14 22  2  0  0  0  0
 15  9  2  0  0  0  0
 16  1  1  0  0  0  0
 16 19  1  0  0  0  0
 17  8  2  0  0  0  0
 18  6  2  0  0  0  0
 18 15  1  0  0  0  0
 19  7  2  0  0  0  0
 20  4  2  0  0  0  0
 21 20  1  0  0  0  0
 23  2  1  0  0  0  0
 24 23  2  0  0  0  0
 26 14  1  0  0  0  0
 27 22  1  0  0  0  0
 27 25  2  0  0  0  0
 28 29  1  0  0  0  0
 29 30  1  0  0  0  0
 30 31  1  0  0  0  0
 32 30  2  0  0  0  0
M  END
>  <MODEL>
9

>  <REMARK>
 VINA RESULT:      -9.5      4.425      6.809
  Name = 
  3 active torsions:
  status: ('A' for Active; 'I' for Inactive)
    1  A    between atoms: C_1  and  C_10
    2  A    between atoms: C_2  and  C_24
    3  A    between atoms: C_10  and  C_24
                            x       y       z     vdW  Elec       q    Type
                         _______ _______ _______ _____ _____    ______ ____

>  <TORSDO>
F 3

$$$$
