=
 OpenBabel11052412303D

 30 34  0  0  1  0  0  0  0  0999 V2000
  182.1860  178.0210  139.9540 C   0  0  1  0  0  3  0  0  0  0  0  0
  182.3850  180.1920  138.6360 C   0  0  1  0  0  3  0  0  0  0  0  0
  181.1170  177.0720  140.3190 N   0  0  0  0  0  0  0  0  0  0  0  0
  181.9340  181.6490  138.5450 C   0  0  0  0  0  2  0  0  0  0  0  0
  183.9010  180.1670  138.7190 C   0  0  0  0  0  1  0  0  0  0  0  0
  179.5970  178.9800  141.0500 C   0  0  2  0  0  3  0  0  0  0  0  0
  180.4140  181.7420  138.4850 C   0  0  0  0  0  2  0  0  0  0  0  0
  181.7530  179.5050  139.8580 C   0  0  1  0  0  3  0  0  0  0  0  0
  179.9500  177.5280  141.0350 C   0  0  0  0  0  0  0  0  0  0  0  0
  179.2270  176.7120  141.6690 O   0  0  0  0  0  0  0  0  0  0  0  0
  179.8070  181.1150  139.7330 C   0  0  0  0  0  2  0  0  0  0  0  0
  180.2220  179.6500  139.8290 C   0  0  2  0  0  3  0  0  0  0  0  0
  181.3750  175.6370  140.1390 C   0  0  1  0  0  3  0  0  0  0  0  0
  180.3380  174.9950  139.2300 C   0  0  0  0  0  2  0  0  0  0  0  0
  181.7260  175.2520  138.6880 C   0  0  1  0  0  3  0  0  0  0  0  0
  182.9540  176.4280  136.8650 C   0  0  0  0  0  2  0  0  0  0  0  0
  180.5840  176.1630  136.6500 C   0  0  0  0  0  2  0  0  0  0  0  0
  181.0660  176.8350  135.3800 C   0  0  0  0  0  2  0  0  0  0  0  0
  181.6760  176.3920  137.6710 C   0  0  0  0  0  3  0  0  0  0  0  0
  182.5700  177.0070  135.5170 C   0  0  0  0  0  2  0  0  0  0  0  0
  180.0640  179.5660  142.2320 O   0  0  0  0  0  0  0  0  0  0  0  0
  178.9320  179.7140  143.0350 C   0  0  0  0  0  2  0  0  0  0  0  0
  179.1580  179.0080  144.3560 C   0  0  0  0  0  1  0  0  0  0  0  0
  183.3510  177.8430  140.7320 O   0  0  0  0  0  0  0  0  0  0  0  0
  183.3660  178.8100  141.7520 C   0  0  0  0  0  2  0  0  0  0  0  0
  185.5320  178.2790  142.8300 C   0  0  0  0  0  2  0  0  0  0  0  0
  183.7140  179.1090  144.2030 C   0  0  0  0  0  2  0  0  0  0  0  0
  184.0340  178.2540  142.9960 C   0  0  1  0  0  3  0  0  0  0  0  0
  186.1180  178.0580  144.2060 C   0  0  0  0  0  2  0  0  0  0  0  0
  185.0520  178.8980  145.4180 S   0  0  0  0  0  0  0  0  0  0  0  0
  1  3  1  0  0  0  0
  1 24  1  1  0  0  0
  2  5  1  1  0  0  0
  2  8  1  0  0  0  0
  3  9  1  0  0  0  0
  4  2  1  0  0  0  0
  6 21  1  1  0  0  0
  7  4  1  0  0  0  0
  7 11  1  0  0  0  0
  8  1  1  0  0  0  0
  9  6  1  0  0  0  0
  9 10  2  0  0  0  0
 11 12  1  0  0  0  0
 12  8  1  0  0  0  0
 12  6  1  0  0  0  0
 13  3  1  0  0  0  0
 14 13  1  0  0  0  0
 15 14  1  0  0  0  0
 15 13  1  0  0  0  0
 16 19  1  0  0  0  0
 17 19  1  0  0  0  0
 18 20  1  0  0  0  0
 18 17  1  0  0  0  0
 19 15  1  0  0  0  0
 20 16  1  0  0  0  0
 21 22  1  0  0  0  0
 22 23  1  0  0  0  0
 24 25  1  0  0  0  0
 25 28  1  0  0  0  0
 26 28  1  0  0  0  0
 26 29  1  0  0  0  0
 27 30  1  0  0  0  0
 28 27  1  0  0  0  0
 29 30  1  0  0  0  0
M  END
>  <MODEL>
1

>  <REMARK>
 VINA RESULT:      -5.1      0.000      0.000
  Name = 
  7 active torsions:
  status: ('A' for Active; 'I' for Inactive)
    1  A    between atoms: C_1  and  O_6
    2  A    between atoms: O_3  and  C_11
    3  A    between atoms: O_3  and  C_19
    4  A    between atoms: N_4  and  C_13
    5  A    between atoms: O_6  and  C_8
    6  A    between atoms: C_8  and  C_12
    7  A    between atoms: C_16  and  C_30
                            x       y       z     vdW  Elec       q    Type
                         _______ _______ _______ _____ _____    ______ ____

>  <TORSDO>
F 7

$$$$
=
 OpenBabel11052412303D

 30 34  0  0  1  0  0  0  0  0999 V2000
  181.6270  179.4590  138.7660 C   0  0  1  0  0  3  0  0  0  0  0  0
  180.2390  179.7870  140.8760 C   0  0  1  0  0  3  0  0  0  0  0  0
  182.5430  178.4390  138.2220 N   0  0  0  0  0  0  0  0  0  0  0  0
  180.2840  179.9340  142.3970 C   0  0  0  0  0  2  0  0  0  0  0  0
  179.5540  181.0130  140.3000 C   0  0  0  0  0  1  0  0  0  0  0  0
  183.8020  178.3130  140.4330 C   0  0  2  0  0  3  0  0  0  0  0  0
  180.9870  178.7420  143.0350 C   0  0  0  0  0  2  0  0  0  0  0  0
  181.6580  179.6280  140.3060 C   0  0  1  0  0  3  0  0  0  0  0  0
  183.7140  178.0390  138.9660 C   0  0  0  0  0  0  0  0  0  0  0  0
  184.6800  177.4720  138.3870 O   0  0  0  0  0  0  0  0  0  0  0  0
  182.4110  178.6370  142.5060 C   0  0  0  0  0  2  0  0  0  0  0  0
  182.3880  178.4610  140.9910 C   0  0  2  0  0  3  0  0  0  0  0  0
  182.3590  178.0160  136.8270 C   0  0  1  0  0  3  0  0  0  0  0  0
  182.9320  176.6270  136.5870 C   0  0  0  0  0  2  0  0  0  0  0  0
  181.4310  176.7940  136.6720 C   0  0  1  0  0  3  0  0  0  0  0  0
  179.4250  176.3680  138.0890 C   0  0  0  0  0  2  0  0  0  0  0  0
  181.1250  174.6830  137.9900 C   0  0  0  0  0  2  0  0  0  0  0  0
  180.0080  174.1290  138.8530 C   0  0  0  0  0  2  0  0  0  0  0  0
  180.9220  176.1820  137.9770 C   0  0  0  0  0  3  0  0  0  0  0  0
  178.9310  175.1980  138.9190 C   0  0  0  0  0  2  0  0  0  0  0  0
  184.5470  179.4770  140.6500 O   0  0  0  0  0  0  0  0  0  0  0  0
  185.8260  179.0320  140.9860 C   0  0  0  0  0  2  0  0  0  0  0  0
  185.8620  178.6660  142.4550 C   0  0  0  0  0  1  0  0  0  0  0  0
  181.7270  180.6900  138.0810 O   0  0  0  0  0  0  0  0  0  0  0  0
  180.6920  180.7670  137.1340 C   0  0  0  0  0  2  0  0  0  0  0  0
  181.2150  183.1280  137.6720 C   0  0  0  0  0  2  0  0  0  0  0  0
  180.4930  182.5720  135.4250 C   0  0  0  0  0  2  0  0  0  0  0  0
  180.3110  182.2150  136.8850 C   0  0  1  0  0  3  0  0  0  0  0  0
  181.0170  184.5160  137.1080 C   0  0  0  0  0  2  0  0  0  0  0  0
  180.7660  184.3680  135.3120 S   0  0  0  0  0  0  0  0  0  0  0  0
  1 24  1  6  0  0  0
  1  8  1  0  0  0  0
  2  5  1  6  0  0  0
  2  4  1  0  0  0  0
  3  1  1  0  0  0  0
  3  9  1  0  0  0  0
  4  7  1  0  0  0  0
  6 21  1  6  0  0  0
  6 12  1  0  0  0  0
  8  2  1  0  0  0  0
  8 12  1  0  0  0  0
  9  6  1  0  0  0  0
 10  9  2  0  0  0  0
 11  7  1  0  0  0  0
 12 11  1  0  0  0  0
 13  3  1  0  0  0  0
 14 15  1  0  0  0  0
 14 13  1  0  0  0  0
 15 13  1  0  0  0  0
 15 19  1  0  0  0  0
 16 20  1  0  0  0  0
 17 18  1  0  0  0  0
 18 20  1  0  0  0  0
 19 17  1  0  0  0  0
 19 16  1  0  0  0  0
 21 22  1  0  0  0  0
 22 23  1  0  0  0  0
 25 24  1  0  0  0  0
 27 28  1  0  0  0  0
 28 25  1  0  0  0  0
 28 26  1  0  0  0  0
 29 26  1  0  0  0  0
 30 27  1  0  0  0  0
 30 29  1  0  0  0  0
M  END
>  <MODEL>
2

>  <REMARK>
 VINA RESULT:      -4.9      3.020      5.734
  Name = 
  7 active torsions:
  status: ('A' for Active; 'I' for Inactive)
    1  A    between atoms: C_1  and  O_6
    2  A    between atoms: O_3  and  C_11
    3  A    between atoms: O_3  and  C_19
    4  A    between atoms: N_4  and  C_13
    5  A    between atoms: O_6  and  C_8
    6  A    between atoms: C_8  and  C_12
    7  A    between atoms: C_16  and  C_30
                            x       y       z     vdW  Elec       q    Type
                         _______ _______ _______ _____ _____    ______ ____

>  <TORSDO>
F 7

$$$$
=
 OpenBabel11052412303D

 30 34  0  0  1  0  0  0  0  0999 V2000
  182.1070  177.7190  138.7170 C   0  0  1  0  0  3  0  0  0  0  0  0
  182.4380  178.8000  140.9990 C   0  0  1  0  0  3  0  0  0  0  0  0
  180.9830  177.4550  137.7980 N   0  0  0  0  0  0  0  0  0  0  0  0
  182.0740  178.7350  142.4820 C   0  0  0  0  0  2  0  0  0  0  0  0
  183.9500  178.7220  140.8770 C   0  0  0  0  0  1  0  0  0  0  0  0
  179.5740  176.5230  139.7040 C   0  0  2  0  0  3  0  0  0  0  0  0
  180.5620  178.7820  142.6700 C   0  0  0  0  0  2  0  0  0  0  0  0
  181.7620  177.6560  140.2250 C   0  0  1  0  0  3  0  0  0  0  0  0
  179.8420  176.6920  138.2430 C   0  0  0  0  0  0  0  0  0  0  0  0
  179.0690  176.1480  137.4090 O   0  0  0  0  0  0  0  0  0  0  0  0
  179.9140  177.6070  141.9500 C   0  0  0  0  0  2  0  0  0  0  0  0
  180.2420  177.6680  140.4620 C   0  0  2  0  0  3  0  0  0  0  0  0
  181.1580  177.7860  136.3770 C   0  0  1  0  0  3  0  0  0  0  0  0
  179.8310  178.1430  135.7230 C   0  0  0  0  0  2  0  0  0  0  0  0
  180.8110  179.2510  136.0410 C   0  0  1  0  0  3  0  0  0  0  0  0
  181.2830  181.1510  137.5840 C   0  0  0  0  0  2  0  0  0  0  0  0
  179.0400  180.8570  136.7960 C   0  0  0  0  0  2  0  0  0  0  0  0
  179.0460  182.1140  137.6430 C   0  0  0  0  0  2  0  0  0  0  0  0
  180.2770  180.0870  137.2030 C   0  0  0  0  0  3  0  0  0  0  0  0
  180.4670  182.2990  138.1460 C   0  0  0  0  0  2  0  0  0  0  0  0
  180.0690  175.2860  140.1330 O   0  0  0  0  0  0  0  0  0  0  0  0
  178.9390  174.5420  140.4740 C   0  0  0  0  0  2  0  0  0  0  0  0
  179.2280  173.7320  141.7200 C   0  0  0  0  0  1  0  0  0  0  0  0
  183.2560  176.9660  138.3890 O   0  0  0  0  0  0  0  0  0  0  0  0
  183.0260  175.6200  138.7240 C   0  0  0  0  0  2  0  0  0  0  0  0
  184.3710  173.7850  137.7450 C   0  0  0  0  0  2  0  0  0  0  0  0
  181.9970  173.8810  137.2640 C   0  0  0  0  0  2  0  0  0  0  0  0
  183.2230  174.7330  137.5090 C   0  0  1  0  0  3  0  0  0  0  0  0
  184.2760  172.7240  136.6730 C   0  0  0  0  0  2  0  0  0  0  0  0
  182.5150  172.3880  136.3620 S   0  0  0  0  0  0  0  0  0  0  0  0
  1 24  1  1  0  0  0
  1  8  1  0  0  0  0
  2  5  1  1  0  0  0
  2  4  1  0  0  0  0
  3  9  1  0  0  0  0
  3  1  1  0  0  0  0
  4  7  1  0  0  0  0
  6 21  1  1  0  0  0
  6 12  1  0  0  0  0
  8 12  1  0  0  0  0
  8  2  1  0  0  0  0
  9  6  1  0  0  0  0
 10  9  2  0  0  0  0
 11  7  1  0  0  0  0
 12 11  1  0  0  0  0
 13  3  1  0  0  0  0
 14 15  1  0  0  0  0
 14 13  1  0  0  0  0
 15 13  1  0  0  0  0
 15 19  1  0  0  0  0
 16 20  1  0  0  0  0
 17 19  1  0  0  0  0
 17 18  1  0  0  0  0
 18 20  1  0  0  0  0
 19 16  1  0  0  0  0
 21 22  1  0  0  0  0
 22 23  1  0  0  0  0
 24 25  1  0  0  0  0
 27 28  1  0  0  0  0
 28 26  1  0  0  0  0
 28 25  1  0  0  0  0
 29 26  1  0  0  0  0
 30 29  1  0  0  0  0
 30 27  1  0  0  0  0
M  END
>  <MODEL>
3

>  <REMARK>
 VINA RESULT:      -4.5      2.967      5.307
  Name = 
  7 active torsions:
  status: ('A' for Active; 'I' for Inactive)
    1  A    between atoms: C_1  and  O_6
    2  A    between atoms: O_3  and  C_11
    3  A    between atoms: O_3  and  C_19
    4  A    between atoms: N_4  and  C_13
    5  A    between atoms: O_6  and  C_8
    6  A    between atoms: C_8  and  C_12
    7  A    between atoms: C_16  and  C_30
                            x       y       z     vdW  Elec       q    Type
                         _______ _______ _______ _____ _____    ______ ____

>  <TORSDO>
F 7

$$$$
=
 OpenBabel11052412303D

 30 34  0  0  1  0  0  0  0  0999 V2000
  182.1620  177.7310  139.0180 C   0  0  1  0  0  3  0  0  0  0  0  0
  182.1950  178.8410  141.3090 C   0  0  1  0  0  3  0  0  0  0  0  0
  181.1500  177.3600  138.0100 N   0  0  0  0  0  0  0  0  0  0  0  0
  181.7140  178.7440  142.7570 C   0  0  0  0  0  2  0  0  0  0  0  0
  183.7120  178.9060  141.3160 C   0  0  0  0  0  1  0  0  0  0  0  0
  179.6770  176.3020  139.7980 C   0  0  2  0  0  3  0  0  0  0  0  0
  180.1940  178.6480  142.8160 C   0  0  0  0  0  2  0  0  0  0  0  0
  181.6970  177.6370  140.4920 C   0  0  1  0  0  3  0  0  0  0  0  0
  180.0510  176.4930  138.3640 C   0  0  0  0  0  0  0  0  0  0  0  0
  179.4070  175.8770  137.4730 O   0  0  0  0  0  0  0  0  0  0  0  0
  179.7230  177.4160  142.0550 C   0  0  0  0  0  2  0  0  0  0  0  0
  180.1690  177.5050  140.6000 C   0  0  2  0  0  3  0  0  0  0  0  0
  181.4120  177.7040  136.6060 C   0  0  1  0  0  3  0  0  0  0  0  0
  180.1290  178.0670  135.8730 C   0  0  0  0  0  2  0  0  0  0  0  0
  181.0870  179.1720  136.2620 C   0  0  1  0  0  3  0  0  0  0  0  0
  181.4070  181.1380  137.7600 C   0  0  0  0  0  2  0  0  0  0  0  0
  179.2000  180.6690  136.9560 C   0  0  0  0  0  2  0  0  0  0  0  0
  179.1080  181.9450  137.7710 C   0  0  0  0  0  2  0  0  0  0  0  0
  180.4820  179.9980  137.3960 C   0  0  0  0  0  3  0  0  0  0  0  0
  180.5070  182.2410  138.2840 C   0  0  0  0  0  2  0  0  0  0  0  0
  180.2480  175.1180  140.2790 O   0  0  0  0  0  0  0  0  0  0  0  0
  179.1730  174.2510  140.4770 C   0  0  0  0  0  2  0  0  0  0  0  0
  179.2820  173.6200  141.8500 C   0  0  0  0  0  1  0  0  0  0  0  0
  183.4000  177.0890  138.7950 O   0  0  0  0  0  0  0  0  0  0  0  0
  184.2860  178.0070  138.2050 C   0  0  0  0  0  2  0  0  0  0  0  0
  184.9620  177.0460  136.0250 C   0  0  0  0  0  2  0  0  0  0  0  0
  186.6470  178.1040  137.4090 C   0  0  0  0  0  2  0  0  0  0  0  0
  185.3830  177.2750  137.4540 C   0  0  1  0  0  3  0  0  0  0  0  0
  186.2100  176.6490  135.2710 C   0  0  0  0  0  2  0  0  0  0  0  0
  187.6090  177.5940  135.9510 S   0  0  0  0  0  0  0  0  0  0  0  0
  1 24  1  1  0  0  0
  1  8  1  0  0  0  0
  2  5  1  1  0  0  0
  2  4  1  0  0  0  0
  3  9  1  0  0  0  0
  3  1  1  0  0  0  0
  4  7  1  0  0  0  0
  6 21  1  1  0  0  0
  6 12  1  0  0  0  0
  8 12  1  0  0  0  0
  8  2  1  0  0  0  0
  9  6  1  0  0  0  0
 10  9  2  0  0  0  0
 11  7  1  0  0  0  0
 12 11  1  0  0  0  0
 13  3  1  0  0  0  0
 14 15  1  0  0  0  0
 14 13  1  0  0  0  0
 15 13  1  0  0  0  0
 15 19  1  0  0  0  0
 16 20  1  0  0  0  0
 17 19  1  0  0  0  0
 17 18  1  0  0  0  0
 18 20  1  0  0  0  0
 19 16  1  0  0  0  0
 21 22  1  0  0  0  0
 22 23  1  0  0  0  0
 25 24  1  0  0  0  0
 26 28  1  0  0  0  0
 27 28  1  0  0  0  0
 28 25  1  0  0  0  0
 29 30  1  0  0  0  0
 29 26  1  0  0  0  0
 30 27  1  0  0  0  0
M  END
>  <MODEL>
4

>  <REMARK>
 VINA RESULT:      -4.3      2.767      5.063
  Name = 
  7 active torsions:
  status: ('A' for Active; 'I' for Inactive)
    1  A    between atoms: C_1  and  O_6
    2  A    between atoms: O_3  and  C_11
    3  A    between atoms: O_3  and  C_19
    4  A    between atoms: N_4  and  C_13
    5  A    between atoms: O_6  and  C_8
    6  A    between atoms: C_8  and  C_12
    7  A    between atoms: C_16  and  C_30
                            x       y       z     vdW  Elec       q    Type
                         _______ _______ _______ _____ _____    ______ ____

>  <TORSDO>
F 7

$$$$
=
 OpenBabel11052412303D

 30 34  0  0  1  0  0  0  0  0999 V2000
  180.7740  178.2340  139.2370 C   0  0  1  0  0  3  0  0  0  0  0  0
  180.9240  178.9200  141.6850 C   0  0  1  0  0  3  0  0  0  0  0  0
  181.3260  177.1700  138.3760 N   0  0  0  0  0  0  0  0  0  0  0  0
  181.8590  179.3790  142.8040 C   0  0  0  0  0  2  0  0  0  0  0  0
  179.8370  179.9670  141.5140 C   0  0  0  0  0  1  0  0  0  0  0  0
  183.6680  177.5630  139.2970 C   0  0  2  0  0  3  0  0  0  0  0  0
  182.9910  178.3790  143.0060 C   0  0  0  0  0  2  0  0  0  0  0  0
  181.7060  178.7170  140.3760 C   0  0  1  0  0  3  0  0  0  0  0  0
  182.7530  176.9900  138.2630 C   0  0  0  0  0  0  0  0  0  0  0  0
  183.2460  176.3640  137.2860 O   0  0  0  0  0  0  0  0  0  0  0  0
  183.7930  178.2380  141.7190 C   0  0  0  0  0  2  0  0  0  0  0  0
  182.8840  177.7530  140.5940 C   0  0  2  0  0  3  0  0  0  0  0  0
  180.4060  176.4610  137.4770 C   0  0  1  0  0  3  0  0  0  0  0  0
  180.8370  175.0170  137.2660 C   0  0  0  0  0  2  0  0  0  0  0  0
  179.6500  175.3030  138.1590 C   0  0  1  0  0  3  0  0  0  0  0  0
  178.9690  175.5900  140.5390 C   0  0  0  0  0  2  0  0  0  0  0  0
  180.0500  173.5490  139.9050 C   0  0  0  0  0  2  0  0  0  0  0  0
  179.6870  173.4160  141.3720 C   0  0  0  0  0  2  0  0  0  0  0  0
  180.0280  175.0330  139.6140 C   0  0  0  0  0  3  0  0  0  0  0  0
  179.0060  174.7120  141.7760 C   0  0  0  0  0  2  0  0  0  0  0  0
  184.1840  178.7830  138.8450 O   0  0  0  0  0  0  0  0  0  0  0  0
  185.5670  178.6630  138.9820 C   0  0  0  0  0  2  0  0  0  0  0  0
  186.1630  178.1920  137.6720 C   0  0  0  0  0  1  0  0  0  0  0  0
  180.2310  179.3020  138.4880 O   0  0  0  0  0  0  0  0  0  0  0  0
  181.2230  180.2810  138.3120 C   0  0  0  0  0  2  0  0  0  0  0  0
  181.4950  182.7220  137.9850 C   0  0  0  0  0  2  0  0  0  0  0  0
  180.5820  181.3930  136.1740 C   0  0  0  0  0  2  0  0  0  0  0  0
  180.6290  181.5270  137.6800 C   0  0  1  0  0  3  0  0  0  0  0  0
  181.0500  183.8220  137.0490 C   0  0  0  0  0  2  0  0  0  0  0  0
  180.6030  183.0650  135.4560 S   0  0  0  0  0  0  0  0  0  0  0  0
  1 24  1  6  0  0  0
  1  8  1  0  0  0  0
  2  5  1  6  0  0  0
  2  4  1  0  0  0  0
  3  1  1  0  0  0  0
  4  7  1  0  0  0  0
  6 21  1  6  0  0  0
  6 12  1  0  0  0  0
  8 12  1  0  0  0  0
  8  2  1  0  0  0  0
  9  3  1  0  0  0  0
  9  6  1  0  0  0  0
 10  9  2  0  0  0  0
 11  7  1  0  0  0  0
 12 11  1  0  0  0  0
 13 15  1  0  0  0  0
 13  3  1  0  0  0  0
 14 13  1  0  0  0  0
 14 15  1  0  0  0  0
 15 19  1  0  0  0  0
 16 20  1  0  0  0  0
 17 18  1  0  0  0  0
 18 20  1  0  0  0  0
 19 17  1  0  0  0  0
 19 16  1  0  0  0  0
 21 22  1  0  0  0  0
 23 22  1  0  0  0  0
 25 24  1  0  0  0  0
 27 28  1  0  0  0  0
 28 26  1  0  0  0  0
 28 25  1  0  0  0  0
 29 26  1  0  0  0  0
 30 27  1  0  0  0  0
 30 29  1  0  0  0  0
M  END
>  <MODEL>
5

>  <REMARK>
 VINA RESULT:      -4.2      2.915      5.932
  Name = 
  7 active torsions:
  status: ('A' for Active; 'I' for Inactive)
    1  A    between atoms: C_1  and  O_6
    2  A    between atoms: O_3  and  C_11
    3  A    between atoms: O_3  and  C_19
    4  A    between atoms: N_4  and  C_13
    5  A    between atoms: O_6  and  C_8
    6  A    between atoms: C_8  and  C_12
    7  A    between atoms: C_16  and  C_30
                            x       y       z     vdW  Elec       q    Type
                         _______ _______ _______ _____ _____    ______ ____

>  <TORSDO>
F 7

$$$$
=
 OpenBabel11052412303D

 30 34  0  0  1  0  0  0  0  0999 V2000
  181.5710  177.6240  140.0940 C   0  0  1  0  0  3  0  0  0  0  0  0
  183.2540  177.4280  138.1920 C   0  0  1  0  0  3  0  0  0  0  0  0
  181.2210  178.6140  141.1310 N   0  0  0  0  0  0  0  0  0  0  0  0
  184.7380  177.3860  137.8300 C   0  0  0  0  0  2  0  0  0  0  0  0
  182.6020  176.1580  137.6740 C   0  0  0  0  0  1  0  0  0  0  0  0
  183.6730  178.9050  141.7570 C   0  0  2  0  0  3  0  0  0  0  0  0
  185.4560  178.6270  138.3480 C   0  0  0  0  0  2  0  0  0  0  0  0
  183.0710  177.5620  139.7130 C   0  0  1  0  0  3  0  0  0  0  0  0
  182.2200  179.0760  142.0650 C   0  0  0  0  0  0  0  0  0  0  0  0
  181.8810  179.6120  143.1540 O   0  0  0  0  0  0  0  0  0  0  0  0
  185.3180  178.7100  139.8630 C   0  0  0  0  0  2  0  0  0  0  0  0
  183.8440  178.7810  140.2450 C   0  0  2  0  0  3  0  0  0  0  0  0
  179.8020  178.9380  141.3280 C   0  0  1  0  0  3  0  0  0  0  0  0
  179.6040  180.4190  141.6120 C   0  0  0  0  0  2  0  0  0  0  0  0
  179.2310  179.8810  140.2490 C   0  0  1  0  0  3  0  0  0  0  0  0
  179.8760  179.8450  137.8420 C   0  0  0  0  0  2  0  0  0  0  0  0
  180.1630  181.8840  139.0650 C   0  0  0  0  0  2  0  0  0  0  0  0
  180.5600  182.1740  137.6300 C   0  0  0  0  0  2  0  0  0  0  0  0
  180.2340  180.3800  139.2100 C   0  0  0  0  0  3  0  0  0  0  0  0
  180.3820  180.8800  136.8550 C   0  0  0  0  0  2  0  0  0  0  0  0
  184.1600  177.7660  142.4080 O   0  0  0  0  0  0  0  0  0  0  0  0
  184.9080  178.2530  143.4810 C   0  0  0  0  0  2  0  0  0  0  0  0
  186.3620  177.8750  143.2920 C   0  0  0  0  0  1  0  0  0  0  0  0
  181.0240  176.3500  140.3630 O   0  0  0  0  0  0  0  0  0  0  0  0
  179.6260  176.4230  140.2410 C   0  0  0  0  0  2  0  0  0  0  0  0
  179.0980  175.7940  137.9040 C   0  0  0  0  0  2  0  0  0  0  0  0
  180.0370  174.1180  139.3830 C   0  0  0  0  0  2  0  0  0  0  0  0
  179.1170  175.3180  139.3330 C   0  0  1  0  0  3  0  0  0  0  0  0
  178.9320  174.5610  137.0450 C   0  0  0  0  0  2  0  0  0  0  0  0
  179.8550  173.1990  137.8230 S   0  0  0  0  0  0  0  0  0  0  0  0
  1 24  1  1  0  0  0
  1  3  1  0  0  0  0
  2  5  1  1  0  0  0
  2  8  1  0  0  0  0
  3 13  1  0  0  0  0
  3  9  1  0  0  0  0
  4  2  1  0  0  0  0
  4  7  1  0  0  0  0
  6  9  1  0  0  0  0
  6 21  1  1  0  0  0
  7 11  1  0  0  0  0
  8  1  1  0  0  0  0
  8 12  1  0  0  0  0
  9 10  2  0  0  0  0
 11 12  1  0  0  0  0
 12  6  1  0  0  0  0
 13 14  1  0  0  0  0
 15 13  1  0  0  0  0
 15 14  1  0  0  0  0
 16 19  1  0  0  0  0
 17 19  1  0  0  0  0
 18 17  1  0  0  0  0
 19 15  1  0  0  0  0
 20 18  1  0  0  0  0
 20 16  1  0  0  0  0
 21 22  1  0  0  0  0
 23 22  1  0  0  0  0
 25 24  1  0  0  0  0
 26 28  1  0  0  0  0
 28 27  1  0  0  0  0
 28 25  1  0  0  0  0
 29 30  1  0  0  0  0
 29 26  1  0  0  0  0
 30 27  1  0  0  0  0
M  END
>  <MODEL>
6

>  <REMARK>
 VINA RESULT:      -4.2      2.569      5.666
  Name = 
  7 active torsions:
  status: ('A' for Active; 'I' for Inactive)
    1  A    between atoms: C_1  and  O_6
    2  A    between atoms: O_3  and  C_11
    3  A    between atoms: O_3  and  C_19
    4  A    between atoms: N_4  and  C_13
    5  A    between atoms: O_6  and  C_8
    6  A    between atoms: C_8  and  C_12
    7  A    between atoms: C_16  and  C_30
                            x       y       z     vdW  Elec       q    Type
                         _______ _______ _______ _____ _____    ______ ____

>  <TORSDO>
F 7

$$$$
=
 OpenBabel11052412303D

 30 34  0  0  1  0  0  0  0  0999 V2000
  182.1820  178.8160  138.2830 C   0  0  1  0  0  3  0  0  0  0  0  0
  180.2010  177.3150  137.7290 C   0  0  1  0  0  3  0  0  0  0  0  0
  183.3290  178.7950  139.2120 N   0  0  0  0  0  0  0  0  0  0  0  0
  178.9310  176.6620  138.2750 C   0  0  0  0  0  2  0  0  0  0  0  0
  179.8210  178.1670  136.5310 C   0  0  0  0  0  1  0  0  0  0  0  0
  181.8110  178.1650  141.1570 C   0  0  2  0  0  3  0  0  0  0  0  0
  179.2440  175.8110  139.5000 C   0  0  0  0  0  2  0  0  0  0  0  0
  180.8830  178.1620  138.8160 C   0  0  1  0  0  3  0  0  0  0  0  0
  183.1130  178.6790  140.6340 C   0  0  0  0  0  0  0  0  0  0  0  0
  184.0110  179.0250  141.4500 O   0  0  0  0  0  0  0  0  0  0  0  0
  179.8610  176.6790  140.5890 C   0  0  0  0  0  2  0  0  0  0  0  0
  181.1460  177.3190  140.0740 C   0  0  2  0  0  3  0  0  0  0  0  0
  184.6590  179.1200  138.6770 C   0  0  1  0  0  3  0  0  0  0  0  0
  185.6540  178.0020  138.9470 C   0  0  0  0  0  2  0  0  0  0  0  0
  185.1140  178.1770  137.5460 C   0  0  1  0  0  3  0  0  0  0  0  0
  183.6990  177.1280  135.7820 C   0  0  0  0  0  2  0  0  0  0  0  0
  184.8660  175.6930  137.3040 C   0  0  0  0  0  2  0  0  0  0  0  0
  184.1580  174.7940  136.3100 C   0  0  0  0  0  2  0  0  0  0  0  0
  184.1600  177.0280  137.2190 C   0  0  0  0  0  3  0  0  0  0  0  0
  183.4140  175.7030  135.3460 C   0  0  0  0  0  2  0  0  0  0  0  0
  180.9920  179.2400  141.5210 O   0  0  0  0  0  0  0  0  0  0  0  0
  181.1580  179.3720  142.9000 C   0  0  0  0  0  2  0  0  0  0  0  0
  180.0180  178.6750  143.6120 C   0  0  0  0  0  1  0  0  0  0  0  0
  181.9610  180.0980  137.7330 O   0  0  0  0  0  0  0  0  0  0  0  0
  181.0810  180.8040  138.5710 C   0  0  0  0  0  2  0  0  0  0  0  0
  181.5880  183.1530  137.9670 C   0  0  0  0  0  2  0  0  0  0  0  0
  180.3530  181.7800  136.3950 C   0  0  0  0  0  2  0  0  0  0  0  0
  180.5670  182.0480  137.8690 C   0  0  1  0  0  3  0  0  0  0  0  0
  181.1740  184.2060  136.9650 C   0  0  0  0  0  2  0  0  0  0  0  0
  180.4850  183.3630  135.5070 S   0  0  0  0  0  0  0  0  0  0  0  0
  1 24  1  1  0  0  0
  1  8  1  0  0  0  0
  1  3  1  0  0  0  0
  2  5  1  6  0  0  0
  2  4  1  0  0  0  0
  2  8  1  0  0  0  0
  3  9  1  0  0  0  0
  4  7  1  0  0  0  0
  6 21  1  6  0  0  0
  7 11  1  0  0  0  0
  8 12  1  0  0  0  0
  9  6  1  0  0  0  0
  9 10  2  0  0  0  0
 12 11  1  0  0  0  0
 12  6  1  0  0  0  0
 13 14  1  0  0  0  0
 13  3  1  0  0  0  0
 15 13  1  0  0  0  0
 15 14  1  0  0  0  0
 16 19  1  0  0  0  0
 18 17  1  0  0  0  0
 19 17  1  0  0  0  0
 19 15  1  0  0  0  0
 20 16  1  0  0  0  0
 20 18  1  0  0  0  0
 21 22  1  0  0  0  0
 22 23  1  0  0  0  0
 24 25  1  0  0  0  0
 27 28  1  0  0  0  0
 28 26  1  0  0  0  0
 28 25  1  0  0  0  0
 29 26  1  0  0  0  0
 30 27  1  0  0  0  0
 30 29  1  0  0  0  0
M  END
>  <MODEL>
7

>  <REMARK>
 VINA RESULT:      -4.2      2.962      5.228
  Name = 
  7 active torsions:
  status: ('A' for Active; 'I' for Inactive)
    1  A    between atoms: C_1  and  O_6
    2  A    between atoms: O_3  and  C_11
    3  A    between atoms: O_3  and  C_19
    4  A    between atoms: N_4  and  C_13
    5  A    between atoms: O_6  and  C_8
    6  A    between atoms: C_8  and  C_12
    7  A    between atoms: C_16  and  C_30
                            x       y       z     vdW  Elec       q    Type
                         _______ _______ _______ _____ _____    ______ ____

>  <TORSDO>
F 7

$$$$
=
 OpenBabel11052412303D

 30 34  0  0  1  0  0  0  0  0999 V2000
  181.4100  176.9880  137.4010 C   0  0  1  0  0  3  0  0  0  0  0  0
  179.9440  174.9310  137.7280 C   0  0  1  0  0  3  0  0  0  0  0  0
  182.5360  177.6360  138.1010 N   0  0  0  0  0  0  0  0  0  0  0  0
  178.9380  174.2410  138.6490 C   0  0  0  0  0  2  0  0  0  0  0  0
  179.2980  175.1080  136.3660 C   0  0  0  0  0  1  0  0  0  0  0  0
  181.3240  177.4560  140.3340 C   0  0  2  0  0  3  0  0  0  0  0  0
  179.5210  174.0580  140.0460 C   0  0  0  0  0  2  0  0  0  0  0  0
  180.3750  176.2850  138.3150 C   0  0  1  0  0  3  0  0  0  0  0  0
  182.4020  178.0410  139.4800 C   0  0  0  0  0  0  0  0  0  0  0  0
  183.1800  178.9020  139.9740 O   0  0  0  0  0  0  0  0  0  0  0  0
  179.8830  175.4140  140.6370 C   0  0  0  0  0  2  0  0  0  0  0  0
  180.9080  176.1090  139.7470 C   0  0  2  0  0  3  0  0  0  0  0  0
  183.6960  178.0570  137.3030 C   0  0  1  0  0  3  0  0  0  0  0  0
  185.0010  177.5990  137.9370 C   0  0  0  0  0  2  0  0  0  0  0  0
  184.4930  176.8790  136.7080 C   0  0  1  0  0  3  0  0  0  0  0  0
  183.3560  174.8080  135.9110 C   0  0  0  0  0  2  0  0  0  0  0  0
  185.1610  174.5850  137.4690 C   0  0  0  0  0  2  0  0  0  0  0  0
  184.7170  173.1810  137.1080 C   0  0  0  0  0  2  0  0  0  0  0  0
  184.0030  175.4850  137.0990 C   0  0  0  0  0  3  0  0  0  0  0  0
  183.5700  173.3220  136.1230 C   0  0  0  0  0  2  0  0  0  0  0  0
  180.2350  178.3340  140.3830 O   0  0  0  0  0  0  0  0  0  0  0  0
  180.4420  179.1050  141.5270 C   0  0  0  0  0  2  0  0  0  0  0  0
  180.1820  178.2590  142.7570 C   0  0  0  0  0  1  0  0  0  0  0  0
  180.8060  177.8410  136.4510 O   0  0  0  0  0  0  0  0  0  0  0  0
  179.6740  178.4370  137.0340 C   0  0  0  0  0  2  0  0  0  0  0  0
  180.6650  180.6730  137.4300 C   0  0  0  0  0  2  0  0  0  0  0  0
  179.8930  180.1130  135.2010 C   0  0  0  0  0  2  0  0  0  0  0  0
  179.6080  179.9100  136.6730 C   0  0  1  0  0  3  0  0  0  0  0  0
  180.7730  182.0260  136.7660 C   0  0  0  0  0  2  0  0  0  0  0  0
  180.5370  181.8010  134.9760 S   0  0  0  0  0  0  0  0  0  0  0  0
  1 24  1  1  0  0  0
  1  3  1  0  0  0  0
  1  8  1  0  0  0  0
  2  5  1  6  0  0  0
  2  8  1  0  0  0  0
  2  4  1  0  0  0  0
  3  9  1  0  0  0  0
  4  7  1  0  0  0  0
  6 21  1  6  0  0  0
  7 11  1  0  0  0  0
  8 12  1  0  0  0  0
  9 10  2  0  0  0  0
  9  6  1  0  0  0  0
 12  6  1  0  0  0  0
 12 11  1  0  0  0  0
 13 14  1  0  0  0  0
 13  3  1  0  0  0  0
 15 19  1  0  0  0  0
 15 13  1  0  0  0  0
 15 14  1  0  0  0  0
 16 20  1  0  0  0  0
 16 19  1  0  0  0  0
 18 17  1  0  0  0  0
 19 17  1  0  0  0  0
 20 18  1  0  0  0  0
 21 22  1  0  0  0  0
 22 23  1  0  0  0  0
 24 25  1  0  0  0  0
 27 28  1  0  0  0  0
 28 25  1  0  0  0  0
 28 26  1  0  0  0  0
 29 26  1  0  0  0  0
 30 27  1  0  0  0  0
 30 29  1  0  0  0  0
M  END
>  <MODEL>
8

>  <REMARK>
 VINA RESULT:      -3.6      3.218      5.773
  Name = 
  7 active torsions:
  status: ('A' for Active; 'I' for Inactive)
    1  A    between atoms: C_1  and  O_6
    2  A    between atoms: O_3  and  C_11
    3  A    between atoms: O_3  and  C_19
    4  A    between atoms: N_4  and  C_13
    5  A    between atoms: O_6  and  C_8
    6  A    between atoms: C_8  and  C_12
    7  A    between atoms: C_16  and  C_30
                            x       y       z     vdW  Elec       q    Type
                         _______ _______ _______ _____ _____    ______ ____

>  <TORSDO>
F 7

$$$$
=
 OpenBabel11052412303D

 30 34  0  0  1  0  0  0  0  0999 V2000
  189.0490  176.0420  135.9510 C   0  0  1  0  0  3  0  0  0  0  0  0
  191.0130  174.4210  135.9680 C   0  0  1  0  0  3  0  0  0  0  0  0
  188.8260  177.4740  136.2290 N   0  0  0  0  0  0  0  0  0  0  0  0
  192.0920  173.7680  136.8300 C   0  0  0  0  0  2  0  0  0  0  0  0
  190.1800  173.3210  135.3350 C   0  0  0  0  0  1  0  0  0  0  0  0
  190.1360  177.3110  138.4070 C   0  0  2  0  0  3  0  0  0  0  0  0
  192.9490  174.8250  137.5170 C   0  0  0  0  0  2  0  0  0  0  0  0
  190.1370  175.3590  136.8150 C   0  0  1  0  0  3  0  0  0  0  0  0
  189.1800  178.0320  137.5120 C   0  0  0  0  0  0  0  0  0  0  0  0
  188.6760  179.1200  137.9000 O   0  0  0  0  0  0  0  0  0  0  0  0
  192.0750  175.7050  138.4010 C   0  0  0  0  0  2  0  0  0  0  0  0
  191.0060  176.3890  137.5550 C   0  0  2  0  0  3  0  0  0  0  0  0
  188.0380  178.2530  135.2640 C   0  0  1  0  0  3  0  0  0  0  0  0
  186.9740  177.3950  134.5940 C   0  0  0  0  0  2  0  0  0  0  0  0
  186.5520  178.3900  135.6520 C   0  0  1  0  0  3  0  0  0  0  0  0
  185.6470  178.6240  137.9630 C   0  0  0  0  0  2  0  0  0  0  0  0
  184.9340  176.7530  136.6470 C   0  0  0  0  0  2  0  0  0  0  0  0
  184.1770  176.6820  137.9580 C   0  0  0  0  0  2  0  0  0  0  0  0
  186.1270  177.6440  136.9160 C   0  0  0  0  0  3  0  0  0  0  0  0
  184.6310  177.8650  138.7950 C   0  0  0  0  0  2  0  0  0  0  0  0
  189.4250  176.5790  139.3640 O   0  0  0  0  0  0  0  0  0  0  0  0
  189.7010  177.2070  140.5790 C   0  0  0  0  0  2  0  0  0  0  0  0
  188.4200  177.7760  141.1530 C   0  0  0  0  0  1  0  0  0  0  0  0
  187.8420  175.3090  135.9130 O   0  0  0  0  0  0  0  0  0  0  0  0
  187.7510  174.5280  137.0790 C   0  0  0  0  0  2  0  0  0  0  0  0
  185.6390  173.3430  137.5990 C   0  0  0  0  0  2  0  0  0  0  0  0
  186.5440  173.1910  135.3540 C   0  0  0  0  0  2  0  0  0  0  0  0
  186.9260  173.2820  136.8160 C   0  0  1  0  0  3  0  0  0  0  0  0
  184.7380  172.2760  137.0230 C   0  0  0  0  0  2  0  0  0  0  0  0
  185.0220  172.2010  135.2270 S   0  0  0  0  0  0  0  0  0  0  0  0
  1 24  1  1  0  0  0
  1  3  1  0  0  0  0
  1  8  1  0  0  0  0
  2  5  1  1  0  0  0
  2  8  1  0  0  0  0
  2  4  1  0  0  0  0
  3  9  1  0  0  0  0
  4  7  1  0  0  0  0
  6 21  1  1  0  0  0
  7 11  1  0  0  0  0
  8 12  1  0  0  0  0
  9 10  2  0  0  0  0
  9  6  1  0  0  0  0
 12 11  1  0  0  0  0
 12  6  1  0  0  0  0
 13 15  1  0  0  0  0
 13  3  1  0  0  0  0
 14 13  1  0  0  0  0
 14 15  1  0  0  0  0
 15 19  1  0  0  0  0
 16 20  1  0  0  0  0
 17 19  1  0  0  0  0
 17 18  1  0  0  0  0
 18 20  1  0  0  0  0
 19 16  1  0  0  0  0
 21 22  1  0  0  0  0
 22 23  1  0  0  0  0
 24 25  1  0  0  0  0
 27 28  1  0  0  0  0
 28 25  1  0  0  0  0
 28 26  1  0  0  0  0
 29 26  1  0  0  0  0
 30 27  1  0  0  0  0
 30 29  1  0  0  0  0
M  END
>  <MODEL>
9

>  <REMARK>
 VINA RESULT:      -3.5      6.378      9.423
  Name = 
  7 active torsions:
  status: ('A' for Active; 'I' for Inactive)
    1  A    between atoms: C_1  and  O_6
    2  A    between atoms: O_3  and  C_11
    3  A    between atoms: O_3  and  C_19
    4  A    between atoms: N_4  and  C_13
    5  A    between atoms: O_6  and  C_8
    6  A    between atoms: C_8  and  C_12
    7  A    between atoms: C_16  and  C_30
                            x       y       z     vdW  Elec       q    Type
                         _______ _______ _______ _____ _____    ______ ____

>  <TORSDO>
F 7

$$$$
