=
 OpenBabel11052412373D

 30 33  0  0  1  0  0  0  0  0999 V2000
  184.9370  178.2280  145.3810 C   0  0  0  0  0  0  0  0  0  0  0  0
  183.5630  178.7360  143.3910 C   0  0  0  0  0  3  0  0  0  0  0  0
  186.9240  178.5180  140.8740 O   0  0  0  0  0  0  0  0  0  0  0  0
  187.2890  176.4360  143.4950 O   0  0  0  0  0  1  0  0  0  0  0  0
  185.3750  179.3270  146.1880 N   0  0  0  0  0  0  0  0  0  0  0  0
  188.2620  177.8240  147.4970 C   0  0  1  0  0  0  0  0  0  0  0  0
  186.8150  177.9850  147.5190 N   0  0  0  0  0  2  0  0  0  0  0  0
  186.5860  180.4750  147.9100 C   0  0  0  0  0  1  0  0  0  0  0  0
  189.8460  178.0550  143.3460 C   0  0  2  0  0  3  0  0  0  0  0  0
  188.2230  178.4360  141.3860 C   0  0  0  0  0  0  0  0  0  0  0  0
  186.1930  179.2320  147.1920 C   0  0  0  0  0  0  0  0  0  0  0  0
  188.8030  177.2430  146.1990 C   0  0  2  0  0  3  0  0  0  0  0  0
  183.4300  178.9610  142.0180 C   0  0  0  0  0  3  0  0  0  0  0  0
  190.3120  178.6250  144.7000 C   0  0  0  0  0  2  0  0  0  0  0  0
  189.1050  178.6670  148.4450 C   0  0  0  0  0  1  0  0  0  0  0  0
  184.6910  177.1030  145.8940 O   0  0  0  0  0  0  0  0  0  0  0  0
  185.8030  178.5700  141.7130 C   0  0  0  0  0  0  0  0  0  0  0  0
  184.5450  178.8780  141.1800 C   0  0  0  0  0  0  0  0  0  0  0  0
  188.6970  176.3790  147.4540 C   0  0  0  0  0  2  0  0  0  0  0  0
  184.8100  178.4170  143.9350 C   0  0  0  0  0  0  0  0  0  0  0  0
  187.2580  177.8260  143.6230 C   0  0  1  0  0  3  0  0  0  0  0  0
  189.2010  178.4170  140.5940 O   0  0  0  0  0  0  0  0  0  0  0  0
  188.4350  178.4750  142.8800 C   0  0  1  0  0  3  0  0  0  0  0  0
  191.0980  176.6150  145.7920 O   0  0  0  0  0  1  0  0  0  0  0  0
  184.3980  179.1110  139.8180 O   0  0  0  0  0  1  0  0  0  0  0  0
  185.9380  178.3250  143.0960 C   0  0  0  0  0  0  0  0  0  0  0  0
  190.2300  177.7000  145.9230 C   0  0  2  0  0  3  0  0  0  0  0  0
  190.3530  176.6940  142.9500 C   0  0  0  0  0  0  0  0  0  0  0  0
  191.7540  176.5480  142.4660 C   0  0  0  0  0  1  0  0  0  0  0  0
  189.6410  175.7070  143.0340 O   0  0  0  0  0  0  0  0  0  0  0  0
  1 16  2  0  0  0  0
  1  5  1  0  0  0  0
  2 20  1  0  0  0  0
  3 10  1  0  0  0  0
  3 17  1  0  0  0  0
  5 11  2  0  0  0  0
  6  7  1  0  0  0  0
  6 15  1  1  0  0  0
  9 28  1  1  0  0  0
  9 14  1  0  0  0  0
 11  7  1  0  0  0  0
 11  8  1  0  0  0  0
 12 19  1  1  0  0  0
 12  6  1  0  0  0  0
 13  2  2  0  0  0  0
 14 27  1  0  0  0  0
 17 26  1  0  0  0  0
 18 17  2  0  0  0  0
 18 13  1  0  0  0  0
 19  6  1  0  0  0  0
 20  1  1  0  0  0  0
 21  4  1  6  0  0  0
 22 10  2  0  0  0  0
 23 10  1  6  0  0  0
 23  9  1  0  0  0  0
 23 21  1  0  0  0  0
 25 18  1  0  0  0  0
 26 21  1  0  0  0  0
 26 20  2  0  0  0  0
 27 24  1  6  0  0  0
 27 12  1  0  0  0  0
 28 30  2  0  0  0  0
 29 28  1  0  0  0  0
M  END
>  <MODEL>
1

>  <REMARK>
 VINA RESULT:      -8.0      0.000      0.000
  Name = 
  1 active torsions:
  status: ('A' for Active; 'I' for Inactive)
    1  A    between atoms: C_7  and  C_10
                            x       y       z     vdW  Elec       q    Type
                         _______ _______ _______ _____ _____    ______ ____

>  <TORSDO>
F 1

$$$$
=
 OpenBabel11052412373D

 30 33  0  0  1  0  0  0  0  0999 V2000
  184.6080  178.9220  139.6600 C   0  0  0  0  0  0  0  0  0  0  0  0
  182.9030  179.0840  141.4410 C   0  0  0  0  0  3  0  0  0  0  0  0
  185.6990  177.9720  144.3770 O   0  0  0  0  0  0  0  0  0  0  0  0
  187.2250  179.6390  141.8820 O   0  0  0  0  0  1  0  0  0  0  0  0
  184.6530  177.7160  138.8880 N   0  0  0  0  0  0  0  0  0  0  0  0
  188.0460  177.8550  138.0040 C   0  0  1  0  0  0  0  0  0  0  0  0
  186.6780  178.3040  137.7910 N   0  0  0  0  0  2  0  0  0  0  0  0
  185.4940  176.1200  137.3080 C   0  0  0  0  0  1  0  0  0  0  0  0
  188.8440  177.1160  142.3180 C   0  0  2  0  0  3  0  0  0  0  0  0
  186.9700  177.4960  144.0400 C   0  0  0  0  0  0  0  0  0  0  0  0
  185.5600  177.4350  138.0020 C   0  0  0  0  0  0  0  0  0  0  0  0
  188.6070  178.2000  139.3770 C   0  0  2  0  0  3  0  0  0  0  0  0
  182.5130  178.9760  142.7780 C   0  0  0  0  0  3  0  0  0  0  0  0
  189.2040  176.3640  141.0220 C   0  0  0  0  0  2  0  0  0  0  0  0
  188.5810  176.7110  137.1530 C   0  0  0  0  0  1  0  0  0  0  0  0
  184.9170  180.0310  139.1490 O   0  0  0  0  0  0  0  0  0  0  0  0
  184.7750  178.3620  143.3990 C   0  0  0  0  0  0  0  0  0  0  0  0
  183.4450  178.6170  143.7560 C   0  0  0  0  0  0  0  0  0  0  0  0
  189.0290  178.9920  138.1410 C   0  0  0  0  0  2  0  0  0  0  0  0
  184.2300  178.8450  141.0720 C   0  0  0  0  0  0  0  0  0  0  0  0
  186.6400  178.3830  141.7140 C   0  0  1  0  0  3  0  0  0  0  0  0
  187.7580  177.1340  144.9540 O   0  0  0  0  0  0  0  0  0  0  0  0
  187.3380  177.3290  142.5860 C   0  0  1  0  0  3  0  0  0  0  0  0
  190.8830  177.8370  140.0940 O   0  0  0  0  0  1  0  0  0  0  0  0
  183.0410  178.5050  145.0810 O   0  0  0  0  0  1  0  0  0  0  0  0
  185.1760  178.4890  142.0530 C   0  0  0  0  0  0  0  0  0  0  0  0
  189.6690  177.2030  139.8240 C   0  0  2  0  0  3  0  0  0  0  0  0
  189.8120  178.1570  142.8130 C   0  0  0  0  0  0  0  0  0  0  0  0
  191.0240  177.7310  143.5650 C   0  0  0  0  0  1  0  0  0  0  0  0
  189.6280  179.3430  142.5930 O   0  0  0  0  0  0  0  0  0  0  0  0
  1 20  1  0  0  0  0
  2 13  1  0  0  0  0
  5  1  1  0  0  0  0
  6 15  1  6  0  0  0
  6 19  1  0  0  0  0
  6 12  1  0  0  0  0
  7 11  1  0  0  0  0
  7  6  1  0  0  0  0
  8 11  1  0  0  0  0
  9 23  1  0  0  0  0
  9 28  1  6  0  0  0
 10  3  1  0  0  0  0
 10 22  2  0  0  0  0
 11  5  2  0  0  0  0
 12 19  1  6  0  0  0
 12 27  1  0  0  0  0
 13 18  2  0  0  0  0
 14  9  1  0  0  0  0
 16  1  2  0  0  0  0
 17 18  1  0  0  0  0
 17  3  1  0  0  0  0
 18 25  1  0  0  0  0
 20  2  2  0  0  0  0
 20 26  1  0  0  0  0
 21  4  1  1  0  0  0
 21 26  1  0  0  0  0
 21 23  1  0  0  0  0
 23 10  1  1  0  0  0
 26 17  2  0  0  0  0
 27 24  1  1  0  0  0
 27 14  1  0  0  0  0
 28 29  1  0  0  0  0
 30 28  2  0  0  0  0
M  END
>  <MODEL>
2

>  <REMARK>
 VINA RESULT:      -7.1      3.152      5.944
  Name = 
  1 active torsions:
  status: ('A' for Active; 'I' for Inactive)
    1  A    between atoms: C_7  and  C_10
                            x       y       z     vdW  Elec       q    Type
                         _______ _______ _______ _____ _____    ______ ____

>  <TORSDO>
F 1

$$$$
=
 OpenBabel11052412373D

 30 33  0  0  1  0  0  0  0  0999 V2000
  187.0110  178.2160  138.3830 C   0  0  0  0  0  0  0  0  0  0  0  0
  184.6830  178.7890  138.9850 C   0  0  0  0  0  3  0  0  0  0  0  0
  185.4950  178.2820  143.0790 O   0  0  0  0  0  0  0  0  0  0  0  0
  188.2510  179.3460  141.4640 O   0  0  0  0  0  1  0  0  0  0  0  0
  187.2810  176.8730  137.9680 N   0  0  0  0  0  0  0  0  0  0  0  0
  190.6530  176.7560  138.9310 C   0  0  1  0  0  0  0  0  0  0  0  0
  189.6390  177.1740  137.9740 N   0  0  0  0  0  2  0  0  0  0  0  0
  188.5870  174.9590  137.3470 C   0  0  0  0  0  1  0  0  0  0  0  0
  189.1110  176.9460  143.1000 C   0  0  2  0  0  3  0  0  0  0  0  0
  186.6950  177.7210  143.5270 C   0  0  0  0  0  0  0  0  0  0  0  0
  188.4640  176.3920  137.7340 C   0  0  0  0  0  0  0  0  0  0  0  0
  190.4990  177.3770  140.3130 C   0  0  2  0  0  3  0  0  0  0  0  0
  183.6730  178.9780  139.9310 C   0  0  0  0  0  3  0  0  0  0  0  0
  189.9680  175.9260  142.3240 C   0  0  0  0  0  2  0  0  0  0  0  0
  191.3910  175.4470  138.6880 C   0  0  0  0  0  1  0  0  0  0  0  0
  187.6680  179.1850  137.9160 O   0  0  0  0  0  0  0  0  0  0  0  0
  185.2330  178.4700  141.7150 C   0  0  0  0  0  0  0  0  0  0  0  0
  183.9450  178.8200  141.2920 C   0  0  0  0  0  0  0  0  0  0  0  0
  191.5720  177.8780  139.3490 C   0  0  0  0  0  2  0  0  0  0  0  0
  185.9770  178.4520  139.3930 C   0  0  0  0  0  0  0  0  0  0  0  0
  187.6740  178.0940  141.2440 C   0  0  1  0  0  3  0  0  0  0  0  0
  186.8750  177.5500  144.7620 O   0  0  0  0  0  0  0  0  0  0  0  0
  187.7100  177.2390  142.5200 C   0  0  1  0  0  3  0  0  0  0  0  0
  192.0550  177.1350  142.1410 O   0  0  0  0  0  1  0  0  0  0  0  0
  182.9280  179.0030  142.2210 O   0  0  0  0  0  1  0  0  0  0  0  0
  186.2600  178.2970  140.7640 C   0  0  0  0  0  0  0  0  0  0  0  0
  191.0660  176.4800  141.4050 C   0  0  2  0  0  3  0  0  0  0  0  0
  189.8280  178.0510  143.8270 C   0  0  0  0  0  0  0  0  0  0  0  0
  190.2340  177.8510  145.2460 C   0  0  0  0  0  1  0  0  0  0  0  0
  190.0980  179.1020  143.2690 O   0  0  0  0  0  0  0  0  0  0  0  0
  1 20  1  0  0  0  0
  2 20  2  0  0  0  0
  2 13  1  0  0  0  0
  3 10  1  0  0  0  0
  5  1  1  0  0  0  0
  6 15  1  6  0  0  0
  6 19  1  0  0  0  0
  6 12  1  0  0  0  0
  7  6  1  0  0  0  0
  8 11  1  0  0  0  0
  9 28  1  6  0  0  0
 10 22  2  0  0  0  0
 11  5  2  0  0  0  0
 11  7  1  0  0  0  0
 12 19  1  6  0  0  0
 12 27  1  0  0  0  0
 13 18  2  0  0  0  0
 14  9  1  0  0  0  0
 16  1  2  0  0  0  0
 17  3  1  0  0  0  0
 18 17  1  0  0  0  0
 18 25  1  0  0  0  0
 20 26  1  0  0  0  0
 21  4  1  1  0  0  0
 21 23  1  0  0  0  0
 23  9  1  0  0  0  0
 23 10  1  1  0  0  0
 26 21  1  0  0  0  0
 26 17  2  0  0  0  0
 27 24  1  1  0  0  0
 27 14  1  0  0  0  0
 28 29  1  0  0  0  0
 30 28  2  0  0  0  0
M  END
>  <MODEL>
3

>  <REMARK>
 VINA RESULT:      -6.2      3.373      5.943
  Name = 
  1 active torsions:
  status: ('A' for Active; 'I' for Inactive)
    1  A    between atoms: C_7  and  C_10
                            x       y       z     vdW  Elec       q    Type
                         _______ _______ _______ _____ _____    ______ ____

>  <TORSDO>
F 1

$$$$
=
 OpenBabel11052412373D

 30 33  0  0  1  0  0  0  0  0999 V2000
  188.7090  178.1440  139.5230 C   0  0  0  0  0  0  0  0  0  0  0  0
  190.7020  176.8520  138.8390 C   0  0  0  0  0  3  0  0  0  0  0  0
  188.3880  174.3870  136.3400 O   0  0  0  0  0  0  0  0  0  0  0  0
  187.0430  177.4690  136.5110 O   0  0  0  0  0  1  0  0  0  0  0  0
  188.0830  177.7970  140.7630 N   0  0  0  0  0  0  0  0  0  0  0  0
  184.8460  178.8990  139.9770 C   0  0  1  0  0  0  0  0  0  0  0  0
  186.2060  179.2080  140.3960 N   0  0  0  0  0  2  0  0  0  0  0  0
  186.4230  177.8090  142.4940 C   0  0  0  0  0  1  0  0  0  0  0  0
  184.7800  175.5340  137.0680 C   0  0  2  0  0  3  0  0  0  0  0  0
  186.9900  174.4200  136.3630 C   0  0  0  0  0  0  0  0  0  0  0  0
  186.9690  178.3010  141.1990 C   0  0  0  0  0  0  0  0  0  0  0  0
  184.7470  178.2850  138.5880 C   0  0  2  0  0  3  0  0  0  0  0  0
  191.3050  175.8210  138.1140 C   0  0  0  0  0  3  0  0  0  0  0  0
  183.9130  175.9090  138.2860 C   0  0  0  0  0  2  0  0  0  0  0  0
  183.7790  178.7100  141.0460 C   0  0  0  0  0  1  0  0  0  0  0  0
  188.7050  179.3320  139.1030 O   0  0  0  0  0  0  0  0  0  0  0  0
  189.1590  175.2230  137.1580 C   0  0  0  0  0  0  0  0  0  0  0  0
  190.5380  175.0080  137.2760 C   0  0  0  0  0  0  0  0  0  0  0  0
  184.3740  179.7480  138.8220 C   0  0  0  0  0  2  0  0  0  0  0  0
  189.3280  177.0860  138.7220 C   0  0  0  0  0  0  0  0  0  0  0  0
  187.1040  176.6010  137.6030 C   0  0  1  0  0  3  0  0  0  0  0  0
  186.3390  173.6320  135.6270 O   0  0  0  0  0  0  0  0  0  0  0  0
  186.2860  175.3280  137.3420 C   0  0  1  0  0  3  0  0  0  0  0  0
  182.6960  177.8070  137.4090 O   0  0  0  0  0  1  0  0  0  0  0  0
  191.1500  173.9820  136.5670 O   0  0  0  0  0  1  0  0  0  0  0  0
  188.5500  176.2750  137.8740 C   0  0  0  0  0  0  0  0  0  0  0  0
  183.5260  177.3850  138.4500 C   0  0  2  0  0  3  0  0  0  0  0  0
  184.3650  176.0690  135.7240 C   0  0  0  0  0  0  0  0  0  0  0  0
  183.2850  175.3810  134.9640 C   0  0  0  0  0  1  0  0  0  0  0  0
  184.8860  177.0670  135.2550 O   0  0  0  0  0  0  0  0  0  0  0  0
  1  5  1  0  0  0  0
  3 10  1  0  0  0  0
  3 17  1  0  0  0  0
  5 11  2  0  0  0  0
  6  7  1  0  0  0  0
  6 15  1  1  0  0  0
  7 11  1  0  0  0  0
  9 28  1  6  0  0  0
  9 23  1  0  0  0  0
  9 14  1  0  0  0  0
 11  8  1  0  0  0  0
 12 19  1  6  0  0  0
 12  6  1  0  0  0  0
 13  2  2  0  0  0  0
 14 27  1  0  0  0  0
 16  1  2  0  0  0  0
 17 18  2  0  0  0  0
 17 26  1  0  0  0  0
 18 13  1  0  0  0  0
 19  6  1  0  0  0  0
 20  2  1  0  0  0  0
 20  1  1  0  0  0  0
 21  4  1  6  0  0  0
 21 26  1  0  0  0  0
 22 10  2  0  0  0  0
 23 10  1  6  0  0  0
 23 21  1  0  0  0  0
 25 18  1  0  0  0  0
 26 20  2  0  0  0  0
 27 24  1  6  0  0  0
 27 12  1  0  0  0  0
 29 28  1  0  0  0  0
 30 28  2  0  0  0  0
M  END
>  <MODEL>
4

>  <REMARK>
 VINA RESULT:      -6.1      4.618      8.234
  Name = 
  1 active torsions:
  status: ('A' for Active; 'I' for Inactive)
    1  A    between atoms: C_7  and  C_10
                            x       y       z     vdW  Elec       q    Type
                         _______ _______ _______ _____ _____    ______ ____

>  <TORSDO>
F 1

$$$$
=
 OpenBabel11052412373D

 30 33  0  0  1  0  0  0  0  0999 V2000
  187.4700  178.2490  137.7760 C   0  0  0  0  0  0  0  0  0  0  0  0
  189.8750  177.6850  137.8640 C   0  0  0  0  0  3  0  0  0  0  0  0
  189.0830  173.6640  136.9250 O   0  0  0  0  0  0  0  0  0  0  0  0
  186.7880  175.6710  135.4970 O   0  0  0  0  0  1  0  0  0  0  0  0
  186.7510  178.3000  139.0130 N   0  0  0  0  0  0  0  0  0  0  0  0
  183.5710  177.5490  137.7360 C   0  0  1  0  0  0  0  0  0  0  0  0
  184.6320  178.5200  137.9580 N   0  0  0  0  0  2  0  0  0  0  0  0
  184.8590  178.4580  140.4780 C   0  0  0  0  0  1  0  0  0  0  0  0
  185.2310  173.5020  136.9280 C   0  0  2  0  0  3  0  0  0  0  0  0
  187.7800  173.1540  136.9100 C   0  0  0  0  0  0  0  0  0  0  0  0
  185.4680  178.4670  139.1190 C   0  0  0  0  0  0  0  0  0  0  0  0
  183.9720  176.3810  136.8460 C   0  0  2  0  0  3  0  0  0  0  0  0
  190.9220  176.7650  137.7680 C   0  0  0  0  0  3  0  0  0  0  0  0
  184.0550  174.0230  137.7770 C   0  0  0  0  0  2  0  0  0  0  0  0
  182.4280  177.4740  138.7400 C   0  0  0  0  0  1  0  0  0  0  0  0
  187.1600  179.0010  136.8130 O   0  0  0  0  0  0  0  0  0  0  0  0
  189.3440  175.0090  137.2180 C   0  0  0  0  0  0  0  0  0  0  0  0
  190.6600  175.4320  137.4460 C   0  0  0  0  0  0  0  0  0  0  0  0
  183.0950  177.5080  136.3040 C   0  0  0  0  0  2  0  0  0  0  0  0
  188.5570  177.2800  137.6280 C   0  0  0  0  0  0  0  0  0  0  0  0
  186.9040  175.5080  136.8790 C   0  0  1  0  0  3  0  0  0  0  0  0
  187.5960  171.9330  136.6660 O   0  0  0  0  0  0  0  0  0  0  0  0
  186.6280  174.0530  137.2870 C   0  0  1  0  0  3  0  0  0  0  0  0
  182.4890  174.6540  136.0450 O   0  0  0  0  0  1  0  0  0  0  0  0
  191.7110  174.5270  137.3620 O   0  0  0  0  0  1  0  0  0  0  0  0
  188.2860  175.9380  137.2960 C   0  0  0  0  0  0  0  0  0  0  0  0
  183.1750  175.1230  137.1670 C   0  0  2  0  0  3  0  0  0  0  0  0
  184.9510  173.1460  135.4920 C   0  0  0  0  0  0  0  0  0  0  0  0
  184.4070  171.7990  135.1640 C   0  0  0  0  0  1  0  0  0  0  0  0
  185.1460  173.9490  134.5940 O   0  0  0  0  0  0  0  0  0  0  0  0
  1  5  1  0  0  0  0
  3 17  1  0  0  0  0
  5 11  2  0  0  0  0
  6  7  1  0  0  0  0
  6 15  1  1  0  0  0
  7 11  1  0  0  0  0
  9 28  1  6  0  0  0
  9 23  1  0  0  0  0
  9 14  1  0  0  0  0
 10  3  1  0  0  0  0
 11  8  1  0  0  0  0
 12 19  1  6  0  0  0
 12 27  1  0  0  0  0
 12  6  1  0  0  0  0
 13  2  1  0  0  0  0
 16  1  2  0  0  0  0
 17 26  2  0  0  0  0
 17 18  1  0  0  0  0
 18 13  2  0  0  0  0
 19  6  1  0  0  0  0
 20  1  1  0  0  0  0
 20  2  2  0  0  0  0
 21  4  1  6  0  0  0
 21 23  1  0  0  0  0
 21 26  1  0  0  0  0
 22 10  2  0  0  0  0
 23 10  1  6  0  0  0
 25 18  1  0  0  0  0
 26 20  1  0  0  0  0
 27 24  1  6  0  0  0
 27 14  1  0  0  0  0
 29 28  1  0  0  0  0
 30 28  2  0  0  0  0
M  END
>  <MODEL>
5

>  <REMARK>
 VINA RESULT:      -5.9      6.060      9.207
  Name = 
  1 active torsions:
  status: ('A' for Active; 'I' for Inactive)
    1  A    between atoms: C_7  and  C_10
                            x       y       z     vdW  Elec       q    Type
                         _______ _______ _______ _____ _____    ______ ____

>  <TORSDO>
F 1

$$$$
=
 OpenBabel11052412373D

 30 33  0  0  1  0  0  0  0  0999 V2000
  184.9760  179.0120  139.3690 C   0  0  0  0  0  0  0  0  0  0  0  0
  186.8180  178.2380  137.9150 C   0  0  0  0  0  3  0  0  0  0  0  0
  184.4750  175.0750  136.4370 O   0  0  0  0  0  0  0  0  0  0  0  0
  182.5250  177.7030  137.2280 O   0  0  0  0  0  1  0  0  0  0  0  0
  184.9950  178.6070  140.7430 N   0  0  0  0  0  0  0  0  0  0  0  0
  181.5390  178.7640  141.3260 C   0  0  1  0  0  0  0  0  0  0  0  0
  182.8170  179.4480  141.1890 N   0  0  0  0  0  2  0  0  0  0  0  0
  184.1950  178.3150  142.9850 C   0  0  0  0  0  1  0  0  0  0  0  0
  181.2650  175.2910  138.5600 C   0  0  2  0  0  3  0  0  0  0  0  0
  183.2420  174.7440  137.0070 C   0  0  0  0  0  0  0  0  0  0  0  0
  184.0450  178.8350  141.5970 C   0  0  0  0  0  0  0  0  0  0  0  0
  181.0810  178.0440  140.0660 C   0  0  2  0  0  3  0  0  0  0  0  0
  187.3480  177.3490  136.9770 C   0  0  0  0  0  3  0  0  0  0  0  0
  180.8680  175.5170  140.0320 C   0  0  0  0  0  2  0  0  0  0  0  0
  181.0610  178.3830  142.7200 C   0  0  0  0  0  1  0  0  0  0  0  0
  184.4900  180.1230  139.0270 O   0  0  0  0  0  0  0  0  0  0  0  0
  185.2460  176.1420  136.9170 C   0  0  0  0  0  0  0  0  0  0  0  0
  186.5660  176.3040  136.4770 C   0  0  0  0  0  0  0  0  0  0  0  0
  180.4480  179.3720  140.4780 C   0  0  0  0  0  2  0  0  0  0  0  0
  185.4980  178.0960  138.3540 C   0  0  0  0  0  0  0  0  0  0  0  0
  183.2340  176.9650  138.1790 C   0  0  1  0  0  3  0  0  0  0  0  0
  182.5960  173.7600  136.5570 O   0  0  0  0  0  0  0  0  0  0  0  0
  182.7540  175.5070  138.2140 C   0  0  1  0  0  3  0  0  0  0  0  0
  178.9450  176.9600  139.7680 O   0  0  0  0  0  1  0  0  0  0  0  0
  187.1090  175.4230  135.5500 O   0  0  0  0  0  1  0  0  0  0  0  0
  184.7020  177.0490  137.8500 C   0  0  0  0  0  0  0  0  0  0  0  0
  180.1920  176.8490  140.3860 C   0  0  2  0  0  3  0  0  0  0  0  0
  180.2350  175.5980  137.5050 C   0  0  0  0  0  0  0  0  0  0  0  0
  179.1790  174.5930  137.1990 C   0  0  0  0  0  1  0  0  0  0  0  0
  180.2410  176.6620  136.9080 O   0  0  0  0  0  0  0  0  0  0  0  0
  1  5  1  0  0  0  0
  2 20  1  0  0  0  0
  3 17  1  0  0  0  0
  3 10  1  0  0  0  0
  5 11  2  0  0  0  0
  6 15  1  1  0  0  0
  7  6  1  0  0  0  0
  7 11  1  0  0  0  0
  9 28  1  6  0  0  0
  9 14  1  0  0  0  0
 11  8  1  0  0  0  0
 12 27  1  0  0  0  0
 12 19  1  6  0  0  0
 12  6  1  0  0  0  0
 13  2  2  0  0  0  0
 14 27  1  0  0  0  0
 16  1  2  0  0  0  0
 17 26  1  0  0  0  0
 18 17  2  0  0  0  0
 18 13  1  0  0  0  0
 19  6  1  0  0  0  0
 20  1  1  0  0  0  0
 21  4  1  6  0  0  0
 21 23  1  0  0  0  0
 22 10  2  0  0  0  0
 23 10  1  6  0  0  0
 23  9  1  0  0  0  0
 25 18  1  0  0  0  0
 26 21  1  0  0  0  0
 26 20  2  0  0  0  0
 27 24  1  6  0  0  0
 29 28  1  0  0  0  0
 30 28  2  0  0  0  0
M  END
>  <MODEL>
6

>  <REMARK>
 VINA RESULT:      -5.9      5.390      8.653
  Name = 
  1 active torsions:
  status: ('A' for Active; 'I' for Inactive)
    1  A    between atoms: C_7  and  C_10
                            x       y       z     vdW  Elec       q    Type
                         _______ _______ _______ _____ _____    ______ ____

>  <TORSDO>
F 1

$$$$
=
 OpenBabel11052412373D

 30 33  0  0  1  0  0  0  0  0999 V2000
  182.1920  177.7860  139.2170 C   0  0  0  0  0  0  0  0  0  0  0  0
  182.3270  178.5660  141.5580 C   0  0  0  0  0  3  0  0  0  0  0  0
  186.5140  178.8750  141.3330 O   0  0  0  0  0  0  0  0  0  0  0  0
  185.1350  179.4700  138.3200 O   0  0  0  0  0  1  0  0  0  0  0  0
  182.0930  176.3760  138.9880 N   0  0  0  0  0  0  0  0  0  0  0  0
  183.5350  176.3190  135.7900 C   0  0  1  0  0  0  0  0  0  0  0  0
  182.3790  176.5740  136.6370 N   0  0  0  0  0  2  0  0  0  0  0  0
  182.0550  174.3230  137.7490 C   0  0  0  0  0  1  0  0  0  0  0  0
  187.3180  177.4220  137.8540 C   0  0  2  0  0  3  0  0  0  0  0  0
  187.2320  178.3680  140.2450 C   0  0  0  0  0  0  0  0  0  0  0  0
  182.1310  175.8080  137.8210 C   0  0  0  0  0  0  0  0  0  0  0  0
  184.7300  177.2150  136.0830 C   0  0  2  0  0  3  0  0  0  0  0  0
  183.0620  178.9860  142.6690 C   0  0  0  0  0  3  0  0  0  0  0  0
  186.8900  176.2300  136.9750 C   0  0  0  0  0  2  0  0  0  0  0  0
  183.6630  174.9580  135.1190 C   0  0  0  0  0  1  0  0  0  0  0  0
  181.6420  178.6100  138.4370 O   0  0  0  0  0  0  0  0  0  0  0  0
  185.1170  178.7900  141.3980 C   0  0  0  0  0  0  0  0  0  0  0  0
  184.4520  179.0990  142.5910 C   0  0  0  0  0  0  0  0  0  0  0  0
  183.8510  177.4630  134.8580 C   0  0  0  0  0  2  0  0  0  0  0  0
  182.9760  178.2660  140.3560 C   0  0  0  0  0  0  0  0  0  0  0  0
  185.0860  178.2240  138.9490 C   0  0  1  0  0  3  0  0  0  0  0  0
  188.4890  178.4460  140.2430 O   0  0  0  0  0  0  0  0  0  0  0  0
  186.4960  177.6480  139.1420 C   0  0  1  0  0  3  0  0  0  0  0  0
  186.7750  177.2880  134.8020 O   0  0  0  0  0  1  0  0  0  0  0  0
  185.1710  179.5110  143.7070 O   0  0  0  0  0  1  0  0  0  0  0  0
  184.3770  178.3830  140.2680 C   0  0  0  0  0  0  0  0  0  0  0  0
  186.0480  176.5380  135.7290 C   0  0  2  0  0  3  0  0  0  0  0  0
  187.9090  178.6220  137.1640 C   0  0  0  0  0  0  0  0  0  0  0  0
  189.3540  178.6200  136.8020 C   0  0  0  0  0  1  0  0  0  0  0  0
  187.2210  179.5890  136.8810 O   0  0  0  0  0  0  0  0  0  0  0  0
  1 20  1  0  0  0  0
  2 13  1  0  0  0  0
  3 17  1  0  0  0  0
  5  1  1  0  0  0  0
  6 15  1  6  0  0  0
  6 12  1  0  0  0  0
  6  7  1  0  0  0  0
  7 11  1  0  0  0  0
  8 11  1  0  0  0  0
  9 28  1  6  0  0  0
  9 23  1  0  0  0  0
 10  3  1  0  0  0  0
 11  5  2  0  0  0  0
 12 19  1  6  0  0  0
 14  9  1  0  0  0  0
 16  1  2  0  0  0  0
 17 18  1  0  0  0  0
 18 13  2  0  0  0  0
 18 25  1  0  0  0  0
 19  6  1  0  0  0  0
 20  2  2  0  0  0  0
 21  4  1  1  0  0  0
 21 23  1  0  0  0  0
 21 26  1  0  0  0  0
 22 10  2  0  0  0  0
 23 10  1  1  0  0  0
 26 20  1  0  0  0  0
 26 17  2  0  0  0  0
 27 24  1  6  0  0  0
 27 12  1  0  0  0  0
 27 14  1  0  0  0  0
 29 28  1  0  0  0  0
 30 28  2  0  0  0  0
M  END
>  <MODEL>
7

>  <REMARK>
 VINA RESULT:      -5.8      4.713      8.057
  Name = 
  1 active torsions:
  status: ('A' for Active; 'I' for Inactive)
    1  A    between atoms: C_7  and  C_10
                            x       y       z     vdW  Elec       q    Type
                         _______ _______ _______ _____ _____    ______ ____

>  <TORSDO>
F 1

$$$$
=
 OpenBabel11052412373D

 30 33  0  0  1  0  0  0  0  0999 V2000
  187.1800  178.1980  137.8720 C   0  0  0  0  0  0  0  0  0  0  0  0
  188.8660  176.8270  136.6960 C   0  0  0  0  0  3  0  0  0  0  0  0
  186.0410  173.8110  135.9210 O   0  0  0  0  0  0  0  0  0  0  0  0
  184.5390  176.8230  136.0180 O   0  0  0  0  0  1  0  0  0  0  0  0
  187.1430  178.1280  139.3020 N   0  0  0  0  0  0  0  0  0  0  0  0
  183.7600  178.9550  139.7240 C   0  0  1  0  0  0  0  0  0  0  0  0
  185.1290  179.3790  139.4730 N   0  0  0  0  0  2  0  0  0  0  0  0
  186.3210  178.4980  141.5240 C   0  0  0  0  0  1  0  0  0  0  0  0
  182.9190  175.0170  137.8330 C   0  0  2  0  0  3  0  0  0  0  0  0
  184.7740  173.8190  136.5130 C   0  0  0  0  0  0  0  0  0  0  0  0
  186.2460  178.6950  140.0510 C   0  0  0  0  0  0  0  0  0  0  0  0
  183.1850  178.0400  138.6520 C   0  0  2  0  0  3  0  0  0  0  0  0
  189.2420  175.6710  136.0070 C   0  0  0  0  0  3  0  0  0  0  0  0
  182.5730  175.6400  139.2000 C   0  0  0  0  0  2  0  0  0  0  0  0
  183.2360  178.9910  141.1540 C   0  0  0  0  0  1  0  0  0  0  0  0
  186.8750  179.2590  137.2660 O   0  0  0  0  0  0  0  0  0  0  0  0
  186.9750  174.8270  136.1630 C   0  0  0  0  0  0  0  0  0  0  0  0
  188.3010  174.6740  135.7400 C   0  0  0  0  0  0  0  0  0  0  0  0
  182.7740  179.5100  138.7250 C   0  0  0  0  0  2  0  0  0  0  0  0
  187.5430  176.9990  137.1140 C   0  0  0  0  0  0  0  0  0  0  0  0
  185.1270  176.2270  137.1360 C   0  0  1  0  0  3  0  0  0  0  0  0
  183.9770  172.8710  136.2840 O   0  0  0  0  0  0  0  0  0  0  0  0
  184.4220  174.9100  137.4940 C   0  0  1  0  0  3  0  0  0  0  0  0
  180.9020  177.2640  138.5480 O   0  0  0  0  0  1  0  0  0  0  0  0
  188.6910  173.5260  135.0600 O   0  0  0  0  0  1  0  0  0  0  0  0
  186.5880  176.0010  136.8430 C   0  0  0  0  0  0  0  0  0  0  0  0
  182.1200  177.1070  139.2130 C   0  0  2  0  0  3  0  0  0  0  0  0
  181.9450  175.2250  136.7050 C   0  0  0  0  0  0  0  0  0  0  0  0
  180.7450  174.3480  136.6030 C   0  0  0  0  0  1  0  0  0  0  0  0
  182.1130  176.1100  135.8820 O   0  0  0  0  0  0  0  0  0  0  0  0
  1  5  1  0  0  0  0
  2 20  1  0  0  0  0
  3 17  1  0  0  0  0
  3 10  1  0  0  0  0
  5 11  2  0  0  0  0
  6 15  1  1  0  0  0
  7  6  1  0  0  0  0
  7 11  1  0  0  0  0
  9 28  1  6  0  0  0
  9 14  1  0  0  0  0
 11  8  1  0  0  0  0
 12 19  1  6  0  0  0
 12 27  1  0  0  0  0
 12  6  1  0  0  0  0
 13  2  2  0  0  0  0
 14 27  1  0  0  0  0
 16  1  2  0  0  0  0
 17 26  1  0  0  0  0
 18 13  1  0  0  0  0
 18 17  2  0  0  0  0
 19  6  1  0  0  0  0
 20  1  1  0  0  0  0
 21  4  1  6  0  0  0
 21 23  1  0  0  0  0
 22 10  2  0  0  0  0
 23 10  1  6  0  0  0
 23  9  1  0  0  0  0
 25 18  1  0  0  0  0
 26 20  2  0  0  0  0
 26 21  1  0  0  0  0
 27 24  1  6  0  0  0
 29 28  1  0  0  0  0
 30 28  2  0  0  0  0
M  END
>  <MODEL>
8

>  <REMARK>
 VINA RESULT:      -5.7      5.338      8.883
  Name = 
  1 active torsions:
  status: ('A' for Active; 'I' for Inactive)
    1  A    between atoms: C_7  and  C_10
                            x       y       z     vdW  Elec       q    Type
                         _______ _______ _______ _____ _____    ______ ____

>  <TORSDO>
F 1

$$$$
=
 OpenBabel11052412373D

 30 33  0  0  1  0  0  0  0  0999 V2000
  184.8110  178.8230  140.3920 C   0  0  0  0  0  0  0  0  0  0  0  0
  184.7320  178.9250  142.8610 C   0  0  0  0  0  3  0  0  0  0  0  0
  188.6080  177.3260  143.1660 O   0  0  0  0  0  0  0  0  0  0  0  0
  188.3060  179.1250  140.3360 O   0  0  0  0  0  1  0  0  0  0  0  0
  184.1940  177.7020  139.7510 N   0  0  0  0  0  0  0  0  0  0  0  0
  186.1560  177.6880  136.8420 C   0  0  1  0  0  0  0  0  0  0  0  0
  185.0510  178.2530  137.6040 N   0  0  0  0  0  2  0  0  0  0  0  0
  183.5900  176.2180  137.9660 C   0  0  0  0  0  1  0  0  0  0  0  0
  189.4930  176.4610  139.5150 C   0  0  2  0  0  3  0  0  0  0  0  0
  189.2760  176.7970  142.0570 C   0  0  0  0  0  0  0  0  0  0  0  0
  184.2530  177.4490  138.4790 C   0  0  0  0  0  0  0  0  0  0  0  0
  187.5160  177.8510  137.5060 C   0  0  2  0  0  3  0  0  0  0  0  0
  185.3070  178.7100  144.1150 C   0  0  0  0  0  3  0  0  0  0  0  0
  188.8200  175.8210  138.2860 C   0  0  0  0  0  2  0  0  0  0  0  0
  185.8560  176.6020  135.8180 C   0  0  0  0  0  1  0  0  0  0  0  0
  184.8390  179.9540  139.8380 O   0  0  0  0  0  0  0  0  0  0  0  0
  187.3240  177.8780  143.0600 C   0  0  0  0  0  0  0  0  0  0  0  0
  186.5990  178.1890  144.2170 C   0  0  0  0  0  0  0  0  0  0  0  0
  187.1140  178.7330  136.3250 C   0  0  0  0  0  2  0  0  0  0  0  0
  185.4480  178.6310  141.6970 C   0  0  0  0  0  0  0  0  0  0  0  0
  187.6080  177.9360  140.5630 C   0  0  1  0  0  3  0  0  0  0  0  0
  190.4190  176.2900  142.2060 O   0  0  0  0  0  0  0  0  0  0  0  0
  188.5740  176.7530  140.7210 C   0  0  1  0  0  3  0  0  0  0  0  0
  189.6380  177.2580  136.5200 O   0  0  0  0  0  1  0  0  0  0  0  0
  187.1550  177.9730  145.4720 O   0  0  0  0  0  1  0  0  0  0  0  0
  186.7540  178.1110  141.7910 C   0  0  0  0  0  0  0  0  0  0  0  0
  188.4800  176.7420  137.1060 C   0  0  2  0  0  3  0  0  0  0  0  0
  190.6640  177.3760  139.2720 C   0  0  0  0  0  0  0  0  0  0  0  0
  192.0240  176.7940  139.0990 C   0  0  0  0  0  1  0  0  0  0  0  0
  190.5150  178.5850  139.1980 O   0  0  0  0  0  0  0  0  0  0  0  0
  1 20  1  0  0  0  0
  2 13  1  0  0  0  0
  5  1  1  0  0  0  0
  6 15  1  6  0  0  0
  6 12  1  0  0  0  0
  6  7  1  0  0  0  0
  7 11  1  0  0  0  0
  8 11  1  0  0  0  0
  9 28  1  6  0  0  0
  9 23  1  0  0  0  0
 10 22  2  0  0  0  0
 10  3  1  0  0  0  0
 11  5  2  0  0  0  0
 12 19  1  6  0  0  0
 13 18  2  0  0  0  0
 14  9  1  0  0  0  0
 16  1  2  0  0  0  0
 17  3  1  0  0  0  0
 17 18  1  0  0  0  0
 18 25  1  0  0  0  0
 19  6  1  0  0  0  0
 20 26  1  0  0  0  0
 20  2  2  0  0  0  0
 21  4  1  1  0  0  0
 21 23  1  0  0  0  0
 21 26  1  0  0  0  0
 23 10  1  1  0  0  0
 26 17  2  0  0  0  0
 27 24  1  1  0  0  0
 27 12  1  0  0  0  0
 27 14  1  0  0  0  0
 29 28  1  0  0  0  0
 30 28  2  0  0  0  0
M  END
>  <MODEL>
9

>  <REMARK>
 VINA RESULT:      -5.7      3.492      6.709
  Name = 
  1 active torsions:
  status: ('A' for Active; 'I' for Inactive)
    1  A    between atoms: C_7  and  C_10
                            x       y       z     vdW  Elec       q    Type
                         _______ _______ _______ _____ _____    ______ ____

>  <TORSDO>
F 1

$$$$
