=
 OpenBabel11052414333D

 32 37  0  0  1  0  0  0  0  0999 V2000
  182.7290  179.2530  141.6530 C   0  0  1  0  0  3  0  0  0  0  0  0
  184.9960  179.1970  142.7470 C   0  0  1  0  0  3  0  0  0  0  0  0
  182.3750  176.3570  137.8740 C   0  0  0  0  0  0  0  0  0  0  0  0
  181.3090  178.6770  141.7640 C   0  0  0  0  0  2  0  0  0  0  0  0
  183.5440  178.7620  142.8490 C   0  0  1  0  0  3  0  0  0  0  0  0
  185.8180  178.7710  143.9890 C   0  0  2  0  0  3  0  0  0  0  0  0
  181.1280  179.3350  135.9580 F   0  0  0  0  0  0  0  0  0  0  0  0
  181.9430  175.1430  137.4570 F   0  0  0  0  0  0  0  0  0  0  0  0
  185.5740  178.6490  141.4410 C   0  0  1  0  0  3  0  0  0  0  0  0
  187.7800  178.1680  142.5170 N   0  0  0  0  0  0  0  0  0  0  0  0
  182.9280  179.3110  144.1340 C   0  0  2  0  0  3  0  0  0  0  0  0
  182.1230  179.6890  138.0130 C   0  0  0  0  0  3  0  0  0  0  0  0
  183.1260  177.8040  139.5910 C   0  0  0  0  0  0  0  0  0  0  0  0
  186.9050  177.7420  143.6270 C   0  0  0  0  0  2  0  0  0  0  0  0
  183.7470  179.0900  145.3400 N   0  0  0  0  0  2  0  0  0  0  0  0
  182.4960  177.4650  136.8120 C   0  0  0  0  0  3  0  0  0  0  0  0
  182.8180  179.1240  139.1400 C   0  0  0  0  0  0  0  0  0  0  0  0
  181.5250  178.7320  144.2950 C   0  0  0  0  0  2  0  0  0  0  0  0
  182.8710  176.4690  139.1230 C   0  0  1  0  0  3  0  0  0  0  0  0
  182.9100  175.4120  139.9730 F   0  0  0  0  0  0  0  0  0  0  0  0
  184.9100  179.2700  140.2940 N   0  0  0  0  0  2  0  0  0  0  0  0
  181.8380  178.8440  137.0020 C   0  0  0  0  0  0  0  0  0  0  0  0
  183.4850  178.9200  140.3470 C   0  0  1  0  0  0  0  0  0  0  0  0
  187.0720  178.9280  141.4560 C   0  0  1  0  0  3  0  0  0  0  0  0
  184.9130  178.2210  145.1130 C   0  0  2  0  0  3  0  0  0  0  0  0
  180.6610  179.1140  143.0850 C   0  0  0  0  0  2  0  0  0  0  0  0
  187.6470  178.7560  140.2020 F   0  0  0  0  0  0  0  0  0  0  0  0
  185.6980  178.0800  146.4070 C   0  0  0  0  0  2  0  0  0  0  0  0
  185.6100  179.2610  147.1460 O   0  0  0  0  0  1  0  0  0  0  0  0
  188.3290  176.9370  141.9560 C   0  0  0  0  0  2  0  0  0  0  0  0
  190.2660  175.9040  143.0540 C   0  0  0  0  0  2  0  0  0  0  0  0
  188.9520  176.1090  143.0320 C   0  0  0  0  0  3  0  0  0  0  0  0
  1  4  1  6  0  0  0
  1  5  1  0  0  0  0
  2  5  1  0  0  0  0
  2  6  1  0  0  0  0
  3 19  1  0  0  0  0
  4 26  1  0  0  0  0
  5 11  1  0  0  0  0
  6 25  1  0  0  0  0
  7 22  1  0  0  0  0
  8  3  1  0  0  0  0
  9 24  1  0  0  0  0
  9  2  1  0  0  0  0
 10 14  1  0  0  0  0
 11 18  1  0  0  0  0
 11 15  1  0  0  0  0
 12 17  1  0  0  0  0
 13 23  1  0  0  0  0
 14  6  1  0  0  0  0
 16 22  1  0  0  0  0
 16  3  2  0  0  0  0
 17 13  2  0  0  0  0
 17 23  1  0  0  0  0
 19 13  1  0  0  0  0
 19 20  1  0  0  0  0
 21 23  1  0  0  0  0
 21  9  1  0  0  0  0
 22 12  2  0  0  0  0
 23  1  1  0  0  0  0
 24 10  1  0  0  0  0
 25 15  1  0  0  0  0
 25 28  1  0  0  0  0
 26 18  1  0  0  0  0
 27 24  1  0  0  0  0
 28 29  1  0  0  0  0
 30 10  1  0  0  0  0
 30 32  1  0  0  0  0
 32 31  2  0  0  0  0
M  END
>  <MODEL>
1

>  <REMARK>
 VINA RESULT:      -8.7      0.000      0.000
  Name = 
  3 active torsions:
  status: ('A' for Active; 'I' for Inactive)
    1  A    between atoms: C_11  and  N_12
    2  A    between atoms: C_11  and  C_31
    3  A    between atoms: C_13  and  CA_29
                            x       y       z     vdW  Elec       q    Type
                         _______ _______ _______ _____ _____    ______ ____

>  <TORSDO>
F 3

$$$$
=
 OpenBabel11052414333D

 32 37  0  0  1  0  0  0  0  0999 V2000
  183.9670  179.1880  141.8250 C   0  0  1  0  0  3  0  0  0  0  0  0
  186.4440  178.8350  142.1030 C   0  0  1  0  0  3  0  0  0  0  0  0
  182.1390  176.9130  138.0480 C   0  0  0  0  0  0  0  0  0  0  0  0
  182.6020  178.6880  142.3240 C   0  0  0  0  0  2  0  0  0  0  0  0
  185.0610  178.4780  142.6200 C   0  0  1  0  0  3  0  0  0  0  0  0
  187.5660  178.1820  142.9470 C   0  0  2  0  0  3  0  0  0  0  0  0
  180.6690  180.2110  137.0210 F   0  0  0  0  0  0  0  0  0  0  0  0
  181.4730  175.8010  137.6500 F   0  0  0  0  0  0  0  0  0  0  0  0
  186.5200  178.4540  140.6240 C   0  0  1  0  0  3  0  0  0  0  0  0
  188.8900  177.6880  140.8520 N   0  0  0  0  0  0  0  0  0  0  0  0
  184.9430  178.8650  144.0920 C   0  0  2  0  0  3  0  0  0  0  0  0
  182.2930  180.1960  138.6650 C   0  0  0  0  0  3  0  0  0  0  0  0
  183.5400  178.0410  139.5870 C   0  0  0  0  0  0  0  0  0  0  0  0
  188.3700  177.1550  142.1280 C   0  0  0  0  0  2  0  0  0  0  0  0
  186.0730  178.4190  144.9280 N   0  0  0  0  0  2  0  0  0  0  0  0
  182.0330  178.1560  137.1470 C   0  0  0  0  0  3  0  0  0  0  0  0
  183.2440  179.4290  139.4250 C   0  0  0  0  0  0  0  0  0  0  0  0
  183.6100  178.3530  144.6320 C   0  0  0  0  0  2  0  0  0  0  0  0
  183.0120  176.8080  139.0700 C   0  0  1  0  0  3  0  0  0  0  0  0
  183.2060  175.6360  139.7250 F   0  0  0  0  0  0  0  0  0  0  0  0
  185.5970  179.2780  139.8410 N   0  0  0  0  0  2  0  0  0  0  0  0
  181.6170  179.5290  137.7080 C   0  0  0  0  0  0  0  0  0  0  0  0
  184.2330  179.0090  140.3140 C   0  0  1  0  0  0  0  0  0  0  0  0
  187.9670  178.6380  140.1810 C   0  0  1  0  0  3  0  0  0  0  0  0
  187.0100  177.5260  144.2300 C   0  0  2  0  0  3  0  0  0  0  0  0
  182.4530  178.9620  143.8260 C   0  0  0  0  0  2  0  0  0  0  0  0
  188.0960  178.6200  138.7980 F   0  0  0  0  0  0  0  0  0  0  0  0
  188.1440  177.1480  145.1690 C   0  0  0  0  0  2  0  0  0  0  0  0
  187.8620  177.5990  146.4580 O   0  0  0  0  0  1  0  0  0  0  0  0
  189.1030  176.5240  139.9980 C   0  0  0  0  0  2  0  0  0  0  0  0
  191.4480  177.2450  140.0550 C   0  0  0  0  0  2  0  0  0  0  0  0
  190.5020  176.5120  139.4760 C   0  0  0  0  0  3  0  0  0  0  0  0
  1  4  1  1  0  0  0
  1  5  1  0  0  0  0
  2  5  1  0  0  0  0
  2  6  1  0  0  0  0
  3 19  1  0  0  0  0
  4 26  1  0  0  0  0
  5 11  1  0  0  0  0
  6 25  1  0  0  0  0
  7 22  1  0  0  0  0
  8  3  1  0  0  0  0
  9  2  1  0  0  0  0
 10 14  1  0  0  0  0
 11 18  1  0  0  0  0
 11 15  1  0  0  0  0
 12 17  1  0  0  0  0
 13 23  1  0  0  0  0
 14  6  1  0  0  0  0
 16 22  1  0  0  0  0
 16  3  2  0  0  0  0
 17 13  2  0  0  0  0
 17 23  1  0  0  0  0
 19 13  1  0  0  0  0
 19 20  1  0  0  0  0
 21 23  1  0  0  0  0
 21  9  1  0  0  0  0
 22 12  2  0  0  0  0
 23  1  1  0  0  0  0
 24  9  1  0  0  0  0
 24 10  1  0  0  0  0
 25 15  1  0  0  0  0
 25 28  1  0  0  0  0
 26 18  1  0  0  0  0
 27 24  1  0  0  0  0
 28 29  1  0  0  0  0
 30 10  1  0  0  0  0
 32 30  1  0  0  0  0
 32 31  2  0  0  0  0
M  END
>  <MODEL>
2

>  <REMARK>
 VINA RESULT:      -7.9      1.496      1.848
  Name = 
  3 active torsions:
  status: ('A' for Active; 'I' for Inactive)
    1  A    between atoms: C_11  and  N_12
    2  A    between atoms: C_11  and  C_31
    3  A    between atoms: C_13  and  CA_29
                            x       y       z     vdW  Elec       q    Type
                         _______ _______ _______ _____ _____    ______ ____

>  <TORSDO>
F 3

$$$$
=
 OpenBabel11052414333D

 32 37  0  0  1  0  0  0  0  0999 V2000
  185.2550  178.9300  140.8430 C   0  0  1  0  0  3  0  0  0  0  0  0
  187.5770  178.4130  140.0200 C   0  0  1  0  0  3  0  0  0  0  0  0
  181.8180  176.9350  138.2000 C   0  0  0  0  0  0  0  0  0  0  0  0
  184.2040  178.4950  141.8760 C   0  0  0  0  0  2  0  0  0  0  0  0
  186.5290  178.1200  141.0790 C   0  0  1  0  0  3  0  0  0  0  0  0
  188.9020  177.6560  140.2890 C   0  0  2  0  0  3  0  0  0  0  0  0
  180.2980  180.3580  137.9440 F   0  0  0  0  0  0  0  0  0  0  0  0
  180.9650  175.8850  138.1150 F   0  0  0  0  0  0  0  0  0  0  0  0
  186.9820  178.0910  138.6490 C   0  0  1  0  0  3  0  0  0  0  0  0
  189.1550  177.1700  137.8230 N   0  0  0  0  0  0  0  0  0  0  0  0
  187.0830  178.4520  142.4630 C   0  0  2  0  0  3  0  0  0  0  0  0
  182.4660  180.1730  138.7260 C   0  0  0  0  0  3  0  0  0  0  0  0
  183.8230  177.9070  138.9950 C   0  0  0  0  0  0  0  0  0  0  0  0
  189.1970  176.6170  139.1920 C   0  0  0  0  0  2  0  0  0  0  0  0
  188.4270  177.9010  142.7240 N   0  0  0  0  0  2  0  0  0  0  0  0
  181.4280  178.2190  137.4470 C   0  0  0  0  0  3  0  0  0  0  0  0
  183.5910  179.3170  138.9930 C   0  0  0  0  0  0  0  0  0  0  0  0
  186.0780  178.0020  143.5190 C   0  0  0  0  0  2  0  0  0  0  0  0
  183.0350  176.7320  138.7430 C   0  0  1  0  0  3  0  0  0  0  0  0
  183.4040  175.5240  139.2370 F   0  0  0  0  0  0  0  0  0  0  0  0
  185.8750  179.0020  138.3510 N   0  0  0  0  0  2  0  0  0  0  0  0
  181.3960  179.5900  138.1470 C   0  0  0  0  0  0  0  0  0  0  0  0
  184.8320  178.7990  139.3620 C   0  0  1  0  0  0  0  0  0  0  0  0
  188.1070  178.2030  137.6270 C   0  0  1  0  0  3  0  0  0  0  0  0
  188.9030  176.9820  141.6790 C   0  0  2  0  0  3  0  0  0  0  0  0
  184.7360  178.7150  143.2990 C   0  0  0  0  0  2  0  0  0  0  0  0
  187.6280  178.2350  136.3230 F   0  0  0  0  0  0  0  0  0  0  0  0
  190.3000  176.4950  142.0320 C   0  0  0  0  0  2  0  0  0  0  0  0
  190.2150  175.3360  142.8050 O   0  0  0  0  0  1  0  0  0  0  0  0
  188.8940  176.0310  136.9480 C   0  0  0  0  0  2  0  0  0  0  0  0
  189.5520  173.6680  136.8800 C   0  0  0  0  0  2  0  0  0  0  0  0
  189.8340  174.9120  137.2550 C   0  0  0  0  0  3  0  0  0  0  0  0
  1  5  1  0  0  0  0
  1  4  1  1  0  0  0
  2  6  1  0  0  0  0
  2  5  1  0  0  0  0
  3 19  1  0  0  0  0
  4 26  1  0  0  0  0
  5 11  1  0  0  0  0
  6 25  1  0  0  0  0
  7 22  1  0  0  0  0
  8  3  1  0  0  0  0
  9  2  1  0  0  0  0
 10 14  1  0  0  0  0
 11 15  1  0  0  0  0
 11 18  1  0  0  0  0
 12 17  1  0  0  0  0
 13 23  1  0  0  0  0
 14  6  1  0  0  0  0
 16 22  1  0  0  0  0
 16  3  2  0  0  0  0
 17 13  2  0  0  0  0
 17 23  1  0  0  0  0
 19 13  1  0  0  0  0
 19 20  1  0  0  0  0
 21  9  1  0  0  0  0
 21 23  1  0  0  0  0
 22 12  2  0  0  0  0
 23  1  1  0  0  0  0
 24 10  1  0  0  0  0
 24  9  1  0  0  0  0
 25 28  1  0  0  0  0
 25 15  1  0  0  0  0
 26 18  1  0  0  0  0
 27 24  1  0  0  0  0
 28 29  1  0  0  0  0
 30 32  1  0  0  0  0
 30 10  1  0  0  0  0
 31 32  2  0  0  0  0
M  END
>  <MODEL>
3

>  <REMARK>
 VINA RESULT:      -7.6      2.832      3.977
  Name = 
  3 active torsions:
  status: ('A' for Active; 'I' for Inactive)
    1  A    between atoms: C_11  and  N_12
    2  A    between atoms: C_11  and  C_31
    3  A    between atoms: C_13  and  CA_29
                            x       y       z     vdW  Elec       q    Type
                         _______ _______ _______ _____ _____    ______ ____

>  <TORSDO>
F 3

$$$$
=
 OpenBabel11052414333D

 32 37  0  0  1  0  0  0  0  0999 V2000
  190.1210  177.4480  136.7690 C   0  0  1  0  0  3  0  0  0  0  0  0
  189.4220  178.1370  139.0870 C   0  0  1  0  0  3  0  0  0  0  0  0
  192.4830  173.3020  136.6530 C   0  0  0  0  0  0  0  0  0  0  0  0
  189.6020  176.7660  135.4930 C   0  0  0  0  0  2  0  0  0  0  0  0
  188.9600  177.5760  137.7540 C   0  0  1  0  0  3  0  0  0  0  0  0
  188.2430  178.3430  140.0710 C   0  0  2  0  0  3  0  0  0  0  0  0
  195.1550  175.1050  134.7270 F   0  0  0  0  0  0  0  0  0  0  0  0
  192.3600  171.9730  136.4210 F   0  0  0  0  0  0  0  0  0  0  0  0
  190.5060  177.2160  139.6490 C   0  0  1  0  0  3  0  0  0  0  0  0
  189.6600  177.5010  141.9860 N   0  0  0  0  0  0  0  0  0  0  0  0
  187.8900  178.4850  137.1520 C   0  0  2  0  0  3  0  0  0  0  0  0
  193.5390  176.3590  135.8020 C   0  0  0  0  0  3  0  0  0  0  0  0
  191.5440  175.3880  137.2590 C   0  0  0  0  0  0  0  0  0  0  0  0
  188.3560  177.4180  141.2970 C   0  0  0  0  0  2  0  0  0  0  0  0
  186.8190  178.8630  138.0930 N   0  0  0  0  0  2  0  0  0  0  0  0
  193.8830  173.9200  136.4810 C   0  0  0  0  0  3  0  0  0  0  0  0
  192.3970  176.3750  136.6770 C   0  0  0  0  0  0  0  0  0  0  0  0
  187.3270  177.8220  135.8980 C   0  0  0  0  0  2  0  0  0  0  0  0
  191.4480  173.9550  137.2180 C   0  0  1  0  0  3  0  0  0  0  0  0
  190.2850  173.3230  137.5200 F   0  0  0  0  0  0  0  0  0  0  0  0
  191.6920  177.2470  138.7920 N   0  0  0  0  0  2  0  0  0  0  0  0
  194.1180  175.1590  135.5980 C   0  0  0  0  0  0  0  0  0  0  0  0
  191.3090  176.7480  137.4660 C   0  0  1  0  0  0  0  0  0  0  0  0
  190.8110  177.6860  141.0670 C   0  0  1  0  0  3  0  0  0  0  0  0
  186.8780  178.1480  139.3770 C   0  0  2  0  0  3  0  0  0  0  0  0
  188.4550  177.5830  134.8840 C   0  0  0  0  0  2  0  0  0  0  0  0
  191.9830  177.1270  141.5610 F   0  0  0  0  0  0  0  0  0  0  0  0
  185.7500  178.6280  140.2760 C   0  0  0  0  0  2  0  0  0  0  0  0
  184.9690  179.5640  139.5970 O   0  0  0  0  0  1  0  0  0  0  0  0
  189.8040  176.2400  142.7060 C   0  0  0  0  0  2  0  0  0  0  0  0
  189.6350  177.5980  144.7430 C   0  0  0  0  0  2  0  0  0  0  0  0
  190.0850  176.4960  144.1510 C   0  0  0  0  0  3  0  0  0  0  0  0
  1  4  1  6  0  0  0
  1 23  1  0  0  0  0
  1  5  1  0  0  0  0
  2  9  1  0  0  0  0
  2  6  1  0  0  0  0
  3 19  1  0  0  0  0
  5  2  1  0  0  0  0
  6 14  1  0  0  0  0
  7 22  1  0  0  0  0
  8  3  1  0  0  0  0
  9 24  1  0  0  0  0
 10 30  1  0  0  0  0
 11  5  1  0  0  0  0
 11 15  1  0  0  0  0
 12 17  1  0  0  0  0
 13 23  1  0  0  0  0
 14 10  1  0  0  0  0
 15 25  1  0  0  0  0
 16  3  2  0  0  0  0
 17 13  2  0  0  0  0
 17 23  1  0  0  0  0
 18 11  1  0  0  0  0
 19 13  1  0  0  0  0
 19 20  1  0  0  0  0
 21  9  1  0  0  0  0
 22 12  2  0  0  0  0
 22 16  1  0  0  0  0
 23 21  1  0  0  0  0
 24 27  1  0  0  0  0
 24 10  1  0  0  0  0
 25  6  1  0  0  0  0
 25 28  1  0  0  0  0
 26  4  1  0  0  0  0
 26 18  1  0  0  0  0
 29 28  1  0  0  0  0
 30 32  1  0  0  0  0
 32 31  2  0  0  0  0
M  END
>  <MODEL>
4

>  <REMARK>
 VINA RESULT:      -7.0      5.497      8.419
  Name = 
  3 active torsions:
  status: ('A' for Active; 'I' for Inactive)
    1  A    between atoms: C_11  and  N_12
    2  A    between atoms: C_11  and  C_31
    3  A    between atoms: C_13  and  CA_29
                            x       y       z     vdW  Elec       q    Type
                         _______ _______ _______ _____ _____    ______ ____

>  <TORSDO>
F 3

$$$$
=
 OpenBabel11052414333D

 32 37  0  0  1  0  0  0  0  0999 V2000
  185.5770  178.9800  140.0210 C   0  0  1  0  0  3  0  0  0  0  0  0
  187.4120  178.2340  138.4670 C   0  0  1  0  0  3  0  0  0  0  0  0
  181.3740  176.9010  139.1310 C   0  0  0  0  0  0  0  0  0  0  0  0
  184.9890  178.7310  141.4190 C   0  0  0  0  0  2  0  0  0  0  0  0
  186.8370  178.1290  139.8680 C   0  0  1  0  0  3  0  0  0  0  0  0
  188.7310  177.4360  138.3190 C   0  0  2  0  0  3  0  0  0  0  0  0
  179.9110  180.3560  139.0200 F   0  0  0  0  0  0  0  0  0  0  0  0
  180.5410  175.9010  139.5070 F   0  0  0  0  0  0  0  0  0  0  0  0
  186.3390  177.7920  137.4700 C   0  0  1  0  0  3  0  0  0  0  0  0
  188.0310  176.6540  136.0210 N   0  0  0  0  0  0  0  0  0  0  0  0
  187.8760  178.5840  140.8900 C   0  0  2  0  0  3  0  0  0  0  0  0
  182.2110  180.1340  138.9550 C   0  0  0  0  0  3  0  0  0  0  0  0
  183.5430  177.8380  138.9890 C   0  0  0  0  0  0  0  0  0  0  0  0
  188.5780  176.2610  137.3350 C   0  0  0  0  0  2  0  0  0  0  0  0
  189.2120  177.9890  140.7010 N   0  0  0  0  0  2  0  0  0  0  0  0
  180.7440  178.1110  138.4180 C   0  0  0  0  0  3  0  0  0  0  0  0
  183.3440  179.2490  138.8910 C   0  0  0  0  0  0  0  0  0  0  0  0
  187.3380  178.3200  142.2940 C   0  0  0  0  0  2  0  0  0  0  0  0
  182.7040  176.6900  139.2030 C   0  0  1  0  0  3  0  0  0  0  0  0
  183.2180  175.5270  139.6760 F   0  0  0  0  0  0  0  0  0  0  0  0
  185.2130  178.7270  137.4900 N   0  0  0  0  0  2  0  0  0  0  0  0
  180.9950  179.5520  138.8960 C   0  0  0  0  0  0  0  0  0  0  0  0
  184.6260  178.7040  138.8350 C   0  0  1  0  0  0  0  0  0  0  0  0
  186.9980  177.7180  136.0970 C   0  0  1  0  0  3  0  0  0  0  0  0
  189.2490  176.9280  139.6820 C   0  0  2  0  0  3  0  0  0  0  0  0
  186.0210  179.0810  142.4990 C   0  0  0  0  0  2  0  0  0  0  0  0
  186.0620  177.6280  135.0740 F   0  0  0  0  0  0  0  0  0  0  0  0
  190.6700  176.4030  139.5490 C   0  0  0  0  0  2  0  0  0  0  0  0
  191.5690  177.3290  140.0790 O   0  0  0  0  0  1  0  0  0  0  0  0
  187.4450  175.4400  135.4610 C   0  0  0  0  0  2  0  0  0  0  0  0
  185.8750  174.0750  136.7640 C   0  0  0  0  0  2  0  0  0  0  0  0
  187.1280  174.4660  136.5490 C   0  0  0  0  0  3  0  0  0  0  0  0
  1  4  1  1  0  0  0
  2  5  1  0  0  0  0
  3 19  1  0  0  0  0
  3  8  1  0  0  0  0
  4 26  1  0  0  0  0
  5  1  1  0  0  0  0
  5 11  1  0  0  0  0
  6  2  1  0  0  0  0
  6 25  1  0  0  0  0
  9 21  1  0  0  0  0
  9  2  1  0  0  0  0
 10 24  1  0  0  0  0
 10 14  1  0  0  0  0
 11 18  1  0  0  0  0
 13 19  1  0  0  0  0
 14  6  1  0  0  0  0
 15 11  1  0  0  0  0
 16 22  1  0  0  0  0
 16  3  2  0  0  0  0
 17 12  1  0  0  0  0
 17 13  2  0  0  0  0
 18 26  1  0  0  0  0
 19 20  1  0  0  0  0
 21 23  1  0  0  0  0
 22 12  2  0  0  0  0
 22  7  1  0  0  0  0
 23 17  1  0  0  0  0
 23 13  1  0  0  0  0
 23  1  1  0  0  0  0
 24  9  1  0  0  0  0
 25 15  1  0  0  0  0
 27 24  1  0  0  0  0
 28 25  1  0  0  0  0
 28 29  1  0  0  0  0
 30 10  1  0  0  0  0
 30 32  1  0  0  0  0
 32 31  2  0  0  0  0
M  END
>  <MODEL>
5

>  <REMARK>
 VINA RESULT:      -5.9      3.455      5.153
  Name = 
  3 active torsions:
  status: ('A' for Active; 'I' for Inactive)
    1  A    between atoms: C_11  and  N_12
    2  A    between atoms: C_11  and  C_31
    3  A    between atoms: C_13  and  CA_29
                            x       y       z     vdW  Elec       q    Type
                         _______ _______ _______ _____ _____    ______ ____

>  <TORSDO>
F 3

$$$$
=
 OpenBabel11052414333D

 32 37  0  0  1  0  0  0  0  0999 V2000
  183.4220  178.7010  140.0870 C   0  0  1  0  0  3  0  0  0  0  0  0
  185.8190  178.8850  140.8360 C   0  0  1  0  0  3  0  0  0  0  0  0
  182.7510  175.4490  136.6580 C   0  0  0  0  0  0  0  0  0  0  0  0
  182.0780  178.0520  140.4550 C   0  0  0  0  0  2  0  0  0  0  0  0
  184.4330  178.3750  141.1860 C   0  0  1  0  0  3  0  0  0  0  0  0
  186.8380  178.6280  141.9730 C   0  0  2  0  0  3  0  0  0  0  0  0
  181.0280  178.1530  134.7040 F   0  0  0  0  0  0  0  0  0  0  0  0
  182.3550  174.1760  136.4120 F   0  0  0  0  0  0  0  0  0  0  0  0
  186.2450  178.2540  139.5090 C   0  0  1  0  0  3  0  0  0  0  0  0
  188.6110  178.0100  140.2830 N   0  0  0  0  0  0  0  0  0  0  0  0
  183.9660  179.0020  142.4970 C   0  0  2  0  0  3  0  0  0  0  0  0
  182.2760  178.7580  136.5530 C   0  0  0  0  0  3  0  0  0  0  0  0
  183.6290  177.0930  138.1170 C   0  0  0  0  0  0  0  0  0  0  0  0
  187.9360  177.6380  141.5420 C   0  0  0  0  0  2  0  0  0  0  0  0
  184.9620  178.9450  143.5840 N   0  0  0  0  0  2  0  0  0  0  0  0
  182.6380  176.4570  135.5010 C   0  0  0  0  0  3  0  0  0  0  0  0
  183.1630  178.3440  137.6080 C   0  0  0  0  0  0  0  0  0  0  0  0
  182.6460  178.3570  142.9120 C   0  0  0  0  0  2  0  0  0  0  0  0
  183.4090  175.7060  137.8060 C   0  0  1  0  0  3  0  0  0  0  0  0
  183.6460  174.7380  138.7260 F   0  0  0  0  0  0  0  0  0  0  0  0
  185.3810  178.7240  138.4240 N   0  0  0  0  0  2  0  0  0  0  0  0
  181.9140  177.8060  135.6700 C   0  0  0  0  0  0  0  0  0  0  0  0
  184.0080  178.2940  138.7160 C   0  0  1  0  0  0  0  0  0  0  0  0
  187.7060  178.6240  139.2780 C   0  0  1  0  0  3  0  0  0  0  0  0
  186.1450  178.1320  143.2610 C   0  0  2  0  0  3  0  0  0  0  0  0
  181.5940  178.5710  141.8150 C   0  0  0  0  0  2  0  0  0  0  0  0
  188.1080  178.3710  137.9730 F   0  0  0  0  0  0  0  0  0  0  0  0
  187.1140  178.1610  144.4320 C   0  0  0  0  0  2  0  0  0  0  0  0
  186.6340  177.3530  145.4630 O   0  0  0  0  0  1  0  0  0  0  0  0
  189.1650  176.7690  139.7530 C   0  0  0  0  0  2  0  0  0  0  0  0
  191.3170  177.4960  140.6810 C   0  0  0  0  0  2  0  0  0  0  0  0
  190.6570  176.8290  139.7380 C   0  0  0  0  0  3  0  0  0  0  0  0
  1  4  1  1  0  0  0
  1  5  1  0  0  0  0
  2  5  1  0  0  0  0
  2  6  1  0  0  0  0
  3 19  1  0  0  0  0
  4 26  1  0  0  0  0
  5 11  1  0  0  0  0
  6 25  1  0  0  0  0
  7 22  1  0  0  0  0
  8  3  1  0  0  0  0
  9  2  1  0  0  0  0
 10 14  1  0  0  0  0
 11 18  1  0  0  0  0
 11 15  1  0  0  0  0
 12 17  1  0  0  0  0
 13 23  1  0  0  0  0
 14  6  1  0  0  0  0
 16 22  1  0  0  0  0
 16  3  2  0  0  0  0
 17 13  2  0  0  0  0
 17 23  1  0  0  0  0
 19 13  1  0  0  0  0
 19 20  1  0  0  0  0
 21 23  1  0  0  0  0
 21  9  1  0  0  0  0
 22 12  2  0  0  0  0
 23  1  1  0  0  0  0
 24  9  1  0  0  0  0
 24 10  1  0  0  0  0
 25 15  1  0  0  0  0
 25 28  1  0  0  0  0
 26 18  1  0  0  0  0
 27 24  1  0  0  0  0
 28 29  1  0  0  0  0
 30 10  1  0  0  0  0
 32 30  1  0  0  0  0
 32 31  2  0  0  0  0
M  END
>  <MODEL>
6

>  <REMARK>
 VINA RESULT:      -5.8      1.700      2.107
  Name = 
  3 active torsions:
  status: ('A' for Active; 'I' for Inactive)
    1  A    between atoms: C_11  and  N_12
    2  A    between atoms: C_11  and  C_31
    3  A    between atoms: C_13  and  CA_29
                            x       y       z     vdW  Elec       q    Type
                         _______ _______ _______ _____ _____    ______ ____

>  <TORSDO>
F 3

$$$$
