=
 OpenBabel11052414343D

 32 38  0  0  1  0  0  0  0  0999 V2000
  186.4360  178.2250  141.6780 C   0  0  0  0  0  0  0  0  0  0  0  0
  187.9340  177.5010  143.4560 C   0  0  0  0  0  0  0  0  0  0  0  0
  186.2250  178.5270  140.3250 C   0  0  0  0  0  3  0  0  0  0  0  0
  187.7180  177.8100  142.1040 C   0  0  0  0  0  0  0  0  0  0  0  0
  189.2770  176.9430  143.9010 C   0  0  2  0  0  3  0  0  0  0  0  0
  186.6550  178.5830  147.9770 C   0  0  0  0  0  3  0  0  0  0  0  0
  186.8940  177.6990  144.3760 C   0  0  0  0  0  0  0  0  0  0  0  0
  188.9420  177.8300  147.5630 C   0  0  0  0  0  3  0  0  0  0  0  0
  188.6400  177.8640  146.0900 C   0  0  1  0  0  3  0  0  0  0  0  0
  188.7830  177.7520  141.1790 C   0  0  0  0  0  0  0  0  0  0  0  0
  189.5330  176.9650  145.3590 N   0  0  0  0  0  2  0  0  0  0  0  0
  190.1660  177.3300  141.6020 C   0  0  0  0  0  2  0  0  0  0  0  0
  188.5480  178.0510  139.8350 C   0  0  0  0  0  3  0  0  0  0  0  0
  185.6640  178.0870  143.9410 N   0  0  0  0  0  0  0  0  0  0  0  0
  185.4040  178.3400  142.6280 C   0  0  0  0  0  0  0  0  0  0  0  0
  187.1750  177.4870  145.8310 C   0  0  1  0  0  3  0  0  0  0  0  0
  190.4160  177.5730  143.0940 C   0  0  2  0  0  3  0  0  0  0  0  0
  187.2750  178.4360  139.4080 C   0  0  0  0  0  3  0  0  0  0  0  0
  188.0080  178.2130  148.4430 C   0  0  0  0  0  3  0  0  0  0  0  0
  186.2650  178.2850  146.7330 C   0  0  0  0  0  3  0  0  0  0  0  0
  181.7300  179.2000  142.9980 C   0  0  2  0  0  3  0  0  0  0  0  0
  181.6080  179.9510  139.2220 O   0  0  0  0  0  0  0  0  0  0  0  0
  180.6990  178.5640  143.9120 C   0  0  0  0  0  1  0  0  0  0  0  0
  182.0490  177.9150  140.7070 C   0  0  2  0  0  3  0  0  0  0  0  0
  184.0160  178.7630  142.2240 C   0  0  1  0  0  3  0  0  0  0  0  0
  181.4950  178.7670  141.6470 N   0  0  0  0  0  0  0  0  0  0  0  0
  183.5490  177.8480  141.0450 C   0  0  0  0  0  2  0  0  0  0  0  0
  183.0830  178.7630  143.3870 N   0  0  0  0  0  0  0  0  0  0  0  0
  183.5530  179.7570  144.3450 C   0  0  0  0  0  1  0  0  0  0  0  0
  181.6630  179.1270  140.1690 C   0  0  0  0  0  0  0  0  0  0  0  0
  191.7550  176.9630  143.4820 C   0  0  0  0  0  2  0  0  0  0  0  0
  191.6460  175.5730  143.5430 O   0  0  0  0  0  1  0  0  0  0  0  0
  1  4  1  0  0  0  0
  1 15  2  0  0  0  0
  2  7  1  0  0  0  0
  3  1  1  0  0  0  0
  4  2  2  0  0  0  0
  5  2  1  1  0  0  0
  5 11  1  0  0  0  0
  6 19  1  0  0  0  0
  7 16  1  0  0  0  0
  8 19  2  0  0  0  0
  9  8  1  1  0  0  0
 10 12  1  0  0  0  0
 10  4  1  0  0  0  0
 11  9  1  0  0  0  0
 12 17  1  0  0  0  0
 13 10  2  0  0  0  0
 14  7  2  0  0  0  0
 15 14  1  0  0  0  0
 16  9  1  0  0  0  0
 16 20  1  1  0  0  0
 17 31  1  1  0  0  0
 17  5  1  0  0  0  0
 18 13  1  0  0  0  0
 18  3  2  0  0  0  0
 20  6  2  0  0  0  0
 21 28  1  0  0  0  0
 21 23  1  1  0  0  0
 22 30  2  0  0  0  0
 24 27  1  1  0  0  0
 24 26  1  0  0  0  0
 25 15  1  1  0  0  0
 25 28  1  0  0  0  0
 26 21  1  0  0  0  0
 27 25  1  0  0  0  0
 28 29  1  0  0  0  0
 30 24  1  0  0  0  0
 30 26  1  0  0  0  0
 31 32  1  0  0  0  0
M  END
>  <MODEL>
1

>  <REMARK>
 VINA RESULT:     -10.9      0.000      0.000
  Name = 
  2 active torsions:
  status: ('A' for Active; 'I' for Inactive)
    1  A    between atoms: C_13  and  C_29
    2  A    between atoms: C_16  and  C_27
                            x       y       z     vdW  Elec       q    Type
                         _______ _______ _______ _____ _____    ______ ____

>  <TORSDO>
F 2

$$$$
=
 OpenBabel11052414343D

 32 38  0  0  1  0  0  0  0  0999 V2000
  184.5540  178.6660  142.1440 C   0  0  0  0  0  0  0  0  0  0  0  0
  186.9690  178.3770  142.0300 C   0  0  0  0  0  0  0  0  0  0  0  0
  183.3830  178.7530  142.9110 C   0  0  0  0  0  3  0  0  0  0  0  0
  185.7930  178.4600  142.7920 C   0  0  0  0  0  0  0  0  0  0  0  0
  188.3180  178.2730  142.7270 C   0  0  2  0  0  3  0  0  0  0  0  0
  188.8120  176.9650  137.8040 C   0  0  0  0  0  3  0  0  0  0  0  0
  186.8790  178.4090  140.6320 C   0  0  0  0  0  0  0  0  0  0  0  0
  190.2310  176.8500  139.7900 C   0  0  0  0  0  3  0  0  0  0  0  0
  189.0340  177.2380  140.6140 C   0  0  1  0  0  3  0  0  0  0  0  0
  185.8360  178.2930  144.1930 C   0  0  0  0  0  0  0  0  0  0  0  0
  189.4530  177.8550  141.8730 N   0  0  0  0  0  2  0  0  0  0  0  0
  187.1370  178.0560  144.9140 C   0  0  0  0  0  2  0  0  0  0  0  0
  184.6580  178.3910  144.9370 C   0  0  0  0  0  3  0  0  0  0  0  0
  185.6770  178.6220  140.0300 N   0  0  0  0  0  0  0  0  0  0  0  0
  184.5240  178.7640  140.7410 C   0  0  0  0  0  0  0  0  0  0  0  0
  188.1250  178.1940  139.8290 C   0  0  1  0  0  3  0  0  0  0  0  0
  188.2010  177.4340  144.0020 C   0  0  2  0  0  3  0  0  0  0  0  0
  183.4360  178.6210  144.3000 C   0  0  0  0  0  3  0  0  0  0  0  0
  190.1020  176.6840  138.4680 C   0  0  0  0  0  3  0  0  0  0  0  0
  187.8540  177.6400  138.4510 C   0  0  0  0  0  3  0  0  0  0  0  0
  181.6400  178.0880  138.3730 C   0  0  2  0  0  3  0  0  0  0  0  0
  180.1040  181.4660  139.4090 O   0  0  0  0  0  0  0  0  0  0  0  0
  181.6680  177.3880  137.0280 C   0  0  0  0  0  1  0  0  0  0  0  0
  182.2320  180.6640  138.2380 C   0  0  2  0  0  3  0  0  0  0  0  0
  183.2320  178.9990  140.0030 C   0  0  1  0  0  3  0  0  0  0  0  0
  181.4820  179.5030  138.1660 N   0  0  0  0  0  0  0  0  0  0  0  0
  183.3200  180.3880  139.2910 C   0  0  0  0  0  2  0  0  0  0  0  0
  182.9170  177.8720  139.0780 N   0  0  0  0  0  0  0  0  0  0  0  0
  182.7200  176.6700  139.8800 C   0  0  0  0  0  1  0  0  0  0  0  0
  180.9700  180.8090  138.7780 C   0  0  0  0  0  0  0  0  0  0  0  0
  189.5290  177.3890  144.7430 C   0  0  0  0  0  2  0  0  0  0  0  0
  189.3090  177.1650  146.1020 O   0  0  0  0  0  1  0  0  0  0  0  0
  1  4  2  0  0  0  0
  1  3  1  0  0  0  0
  2  5  1  0  0  0  0
  2  4  1  0  0  0  0
  3 18  2  0  0  0  0
  4 10  1  0  0  0  0
  5 11  1  6  0  0  0
  5 17  1  0  0  0  0
  6 20  2  0  0  0  0
  6 19  1  0  0  0  0
  7  2  2  0  0  0  0
  9  8  1  6  0  0  0
  9 11  1  0  0  0  0
 10 12  1  0  0  0  0
 10 13  2  0  0  0  0
 14  7  1  0  0  0  0
 14 15  2  0  0  0  0
 15  1  1  0  0  0  0
 16 20  1  6  0  0  0
 16  9  1  0  0  0  0
 16  7  1  0  0  0  0
 17 31  1  1  0  0  0
 17 12  1  0  0  0  0
 18 13  1  0  0  0  0
 19  8  2  0  0  0  0
 21 23  1  6  0  0  0
 21 28  1  0  0  0  0
 24 30  1  0  0  0  0
 24 27  1  1  0  0  0
 25 15  1  6  0  0  0
 26 24  1  0  0  0  0
 26 21  1  0  0  0  0
 26 30  1  0  0  0  0
 27 25  1  0  0  0  0
 28 29  1  0  0  0  0
 28 25  1  0  0  0  0
 30 22  2  0  0  0  0
 31 32  1  0  0  0  0
M  END
>  <MODEL>
2

>  <REMARK>
 VINA RESULT:     -10.7      2.182      5.054
  Name = 
  2 active torsions:
  status: ('A' for Active; 'I' for Inactive)
    1  A    between atoms: C_13  and  C_29
    2  A    between atoms: C_16  and  C_27
                            x       y       z     vdW  Elec       q    Type
                         _______ _______ _______ _____ _____    ______ ____

>  <TORSDO>
F 2

$$$$
=
 OpenBabel11052414343D

 32 38  0  0  1  0  0  0  0  0999 V2000
  189.3990  177.6130  141.7470 C   0  0  0  0  0  0  0  0  0  0  0  0
  188.6320  177.2810  144.0340 C   0  0  0  0  0  0  0  0  0  0  0  0
  190.4530  177.6770  140.8240 C   0  0  0  0  0  3  0  0  0  0  0  0
  189.6840  177.3520  143.1070 C   0  0  0  0  0  0  0  0  0  0  0  0
  188.9180  176.8860  145.4750 C   0  0  2  0  0  3  0  0  0  0  0  0
  184.2700  179.0030  145.1550 C   0  0  0  0  0  3  0  0  0  0  0  0
  187.3260  177.5610  143.6080 C   0  0  0  0  0  0  0  0  0  0  0  0
  185.7600  178.3350  146.9730 C   0  0  0  0  0  3  0  0  0  0  0  0
  186.8380  178.1100  145.9480 C   0  0  1  0  0  3  0  0  0  0  0  0
  191.0220  177.2100  143.5320 C   0  0  0  0  0  0  0  0  0  0  0  0
  187.8340  177.1610  146.4460 N   0  0  0  0  0  2  0  0  0  0  0  0
  191.3620  176.9480  144.9760 C   0  0  0  0  0  2  0  0  0  0  0  0
  192.0550  177.2720  142.5940 C   0  0  0  0  0  3  0  0  0  0  0  0
  187.0750  177.7960  142.2910 N   0  0  0  0  0  0  0  0  0  0  0  0
  188.0630  177.8170  141.3550 C   0  0  0  0  0  0  0  0  0  0  0  0
  186.2330  177.6060  144.6300 C   0  0  1  0  0  3  0  0  0  0  0  0
  190.2690  177.4450  145.9290 C   0  0  2  0  0  3  0  0  0  0  0  0
  191.7740  177.5030  141.2460 C   0  0  0  0  0  3  0  0  0  0  0  0
  184.5640  178.7970  146.5890 C   0  0  0  0  0  3  0  0  0  0  0  0
  185.0740  178.4820  144.2210 C   0  0  0  0  0  3  0  0  0  0  0  0
  185.8810  178.2550  138.2850 C   0  0  2  0  0  3  0  0  0  0  0  0
  189.0560  179.0030  136.2340 O   0  0  0  0  0  0  0  0  0  0  0  0
  184.6180  177.5030  137.9100 C   0  0  0  0  0  1  0  0  0  0  0  0
  188.1050  177.0240  137.5470 C   0  0  2  0  0  3  0  0  0  0  0  0
  187.7060  178.0820  139.9160 C   0  0  1  0  0  3  0  0  0  0  0  0
  186.9650  177.8030  137.4530 N   0  0  0  0  0  0  0  0  0  0  0  0
  188.5540  177.1250  139.0160 C   0  0  0  0  0  2  0  0  0  0  0  0
  186.2370  177.9720  139.6880 N   0  0  0  0  0  0  0  0  0  0  0  0
  185.5770  179.0090  140.4730 C   0  0  0  0  0  1  0  0  0  0  0  0
  188.3090  178.1860  136.8310 C   0  0  0  0  0  0  0  0  0  0  0  0
  190.5950  176.9900  147.3440 C   0  0  0  0  0  2  0  0  0  0  0  0
  191.9640  176.7530  147.4640 O   0  0  0  0  0  1  0  0  0  0  0  0
  1  4  1  0  0  0  0
  3 18  2  0  0  0  0
  3  1  1  0  0  0  0
  4 10  1  0  0  0  0
  4  2  2  0  0  0  0
  5  2  1  6  0  0  0
  5 17  1  0  0  0  0
  5 11  1  0  0  0  0
  6 19  1  0  0  0  0
  7  2  1  0  0  0  0
  7 16  1  0  0  0  0
  9 11  1  0  0  0  0
  9  8  1  1  0  0  0
 10 12  1  0  0  0  0
 12 17  1  0  0  0  0
 13 10  2  0  0  0  0
 14  7  2  0  0  0  0
 15  1  2  0  0  0  0
 15 14  1  0  0  0  0
 16 20  1  6  0  0  0
 16  9  1  0  0  0  0
 17 31  1  1  0  0  0
 18 13  1  0  0  0  0
 19  8  2  0  0  0  0
 20  6  2  0  0  0  0
 21 23  1  6  0  0  0
 21 28  1  0  0  0  0
 22 30  2  0  0  0  0
 24 27  1  1  0  0  0
 25 15  1  1  0  0  0
 26 24  1  0  0  0  0
 26 21  1  0  0  0  0
 27 25  1  0  0  0  0
 28 25  1  0  0  0  0
 28 29  1  0  0  0  0
 30 26  1  0  0  0  0
 30 24  1  0  0  0  0
 31 32  1  0  0  0  0
M  END
>  <MODEL>
3

>  <REMARK>
 VINA RESULT:     -10.5      2.683      4.409
  Name = 
  2 active torsions:
  status: ('A' for Active; 'I' for Inactive)
    1  A    between atoms: C_13  and  C_29
    2  A    between atoms: C_16  and  C_27
                            x       y       z     vdW  Elec       q    Type
                         _______ _______ _______ _____ _____    ______ ____

>  <TORSDO>
F 2

$$$$
=
 OpenBabel11052414343D

 32 38  0  0  1  0  0  0  0  0999 V2000
  189.9710  177.5640  142.7550 C   0  0  0  0  0  0  0  0  0  0  0  0
  187.9040  177.5400  144.0410 C   0  0  0  0  0  0  0  0  0  0  0  0
  191.3730  177.5900  142.7230 C   0  0  0  0  0  3  0  0  0  0  0  0
  189.3070  177.5720  144.0020 C   0  0  0  0  0  0  0  0  0  0  0  0
  187.1850  177.4320  145.3770 C   0  0  2  0  0  3  0  0  0  0  0  0
  183.8860  178.9190  141.7590 C   0  0  0  0  0  3  0  0  0  0  0  0
  187.1870  177.5940  142.8380 C   0  0  0  0  0  0  0  0  0  0  0  0
  183.8390  178.7450  144.1950 C   0  0  0  0  0  3  0  0  0  0  0  0
  185.3180  178.4730  144.1610 C   0  0  1  0  0  3  0  0  0  0  0  0
  190.0530  177.6590  145.1970 C   0  0  0  0  0  0  0  0  0  0  0  0
  185.7370  177.7420  145.3570 N   0  0  0  0  0  2  0  0  0  0  0  0
  189.3760  177.6860  146.5430 C   0  0  0  0  0  2  0  0  0  0  0  0
  191.4480  177.6770  145.1410 C   0  0  0  0  0  3  0  0  0  0  0  0
  187.8480  177.5710  141.6480 N   0  0  0  0  0  0  0  0  0  0  0  0
  189.2080  177.5440  141.5730 C   0  0  0  0  0  0  0  0  0  0  0  0
  185.6940  177.6860  142.8970 C   0  0  1  0  0  3  0  0  0  0  0  0
  187.9380  178.2110  146.4590 C   0  0  2  0  0  3  0  0  0  0  0  0
  192.1070  177.6410  143.9100 C   0  0  0  0  0  3  0  0  0  0  0  0
  183.1830  178.9950  143.0560 C   0  0  0  0  0  3  0  0  0  0  0  0
  185.0910  178.3420  141.6780 C   0  0  0  0  0  3  0  0  0  0  0  0
  189.5360  177.7880  137.8030 C   0  0  2  0  0  3  0  0  0  0  0  0
  193.2920  177.0110  138.1610 O   0  0  0  0  0  0  0  0  0  0  0  0
  188.5370  177.3680  136.7400 C   0  0  0  0  0  1  0  0  0  0  0  0
  191.0840  175.8110  138.6400 C   0  0  2  0  0  3  0  0  0  0  0  0
  189.8670  177.5180  140.2200 C   0  0  1  0  0  3  0  0  0  0  0  0
  190.6160  176.8380  137.8390 N   0  0  0  0  0  0  0  0  0  0  0  0
  190.6170  176.1550  140.0660 C   0  0  0  0  0  2  0  0  0  0  0  0
  188.8880  177.7880  139.1280 N   0  0  0  0  0  0  0  0  0  0  0  0
  188.3700  179.1400  139.3080 C   0  0  0  0  0  1  0  0  0  0  0  0
  192.0930  176.6340  138.1810 C   0  0  0  0  0  0  0  0  0  0  0  0
  187.2660  178.0430  147.8130 C   0  0  0  0  0  2  0  0  0  0  0  0
  188.2290  177.8450  148.8030 O   0  0  0  0  0  1  0  0  0  0  0  0
  1  4  1  0  0  0  0
  3  1  2  0  0  0  0
  3 18  1  0  0  0  0
  4  2  1  0  0  0  0
  4 10  2  0  0  0  0
  5  2  1  6  0  0  0
  5 17  1  0  0  0  0
  6 19  1  0  0  0  0
  7 16  1  0  0  0  0
  7  2  2  0  0  0  0
  9  8  1  1  0  0  0
  9 11  1  0  0  0  0
 10 12  1  0  0  0  0
 11  5  1  0  0  0  0
 13 10  1  0  0  0  0
 14  7  1  0  0  0  0
 15 14  2  0  0  0  0
 15  1  1  0  0  0  0
 16 20  1  6  0  0  0
 16  9  1  0  0  0  0
 17 12  1  0  0  0  0
 17 31  1  1  0  0  0
 18 13  2  0  0  0  0
 19  8  2  0  0  0  0
 20  6  2  0  0  0  0
 21 23  1  6  0  0  0
 21 26  1  0  0  0  0
 21 28  1  0  0  0  0
 22 30  2  0  0  0  0
 24 27  1  1  0  0  0
 25 15  1  1  0  0  0
 26 30  1  0  0  0  0
 26 24  1  0  0  0  0
 27 25  1  0  0  0  0
 28 29  1  0  0  0  0
 28 25  1  0  0  0  0
 30 24  1  0  0  0  0
 31 32  1  0  0  0  0
M  END
>  <MODEL>
4

>  <REMARK>
 VINA RESULT:     -10.1      2.964      6.562
  Name = 
  2 active torsions:
  status: ('A' for Active; 'I' for Inactive)
    1  A    between atoms: C_13  and  C_29
    2  A    between atoms: C_16  and  C_27
                            x       y       z     vdW  Elec       q    Type
                         _______ _______ _______ _____ _____    ______ ____

>  <TORSDO>
F 2

$$$$
=
 OpenBabel11052414343D

 32 38  0  0  1  0  0  0  0  0999 V2000
  188.7920  177.3600  142.7460 C   0  0  0  0  0  0  0  0  0  0  0  0
  186.8570  178.4010  141.6970 C   0  0  0  0  0  0  0  0  0  0  0  0
  190.0420  176.7350  142.6240 C   0  0  0  0  0  3  0  0  0  0  0  0
  188.1060  177.7700  141.5800 C   0  0  0  0  0  0  0  0  0  0  0  0
  186.1660  178.9480  140.4570 C   0  0  2  0  0  3  0  0  0  0  0  0
  182.8070  178.6280  144.3030 C   0  0  0  0  0  3  0  0  0  0  0  0
  186.2730  178.5280  142.9640 C   0  0  0  0  0  0  0  0  0  0  0  0
  182.6730  179.0680  141.9040 C   0  0  0  0  0  3  0  0  0  0  0  0
  184.1220  178.6780  141.7960 C   0  0  1  0  0  3  0  0  0  0  0  0
  188.6560  177.5030  140.3080 C   0  0  0  0  0  0  0  0  0  0  0  0
  184.7330  179.2840  140.6130 N   0  0  0  0  0  2  0  0  0  0  0  0
  187.9440  177.9110  139.0450 C   0  0  0  0  0  2  0  0  0  0  0  0
  189.9060  176.8860  140.2110 C   0  0  0  0  0  3  0  0  0  0  0  0
  186.9590  178.1390  144.0740 N   0  0  0  0  0  0  0  0  0  0  0  0
  188.1960  177.5750  144.0020 C   0  0  0  0  0  0  0  0  0  0  0  0
  184.8880  179.0880  143.0610 C   0  0  1  0  0  3  0  0  0  0  0  0
  186.4300  178.0440  139.2500 C   0  0  2  0  0  3  0  0  0  0  0  0
  190.5970  176.5040  141.3630 C   0  0  0  0  0  3  0  0  0  0  0  0
  182.0530  179.0000  143.0880 C   0  0  0  0  0  3  0  0  0  0  0  0
  184.1460  178.6240  144.2910 C   0  0  0  0  0  3  0  0  0  0  0  0
  188.8290  177.2460  147.7260 C   0  0  2  0  0  3  0  0  0  0  0  0
  192.0270  175.2530  146.9250 O   0  0  0  0  0  0  0  0  0  0  0  0
  188.5420  178.2530  148.8240 C   0  0  0  0  0  1  0  0  0  0  0  0
  191.1560  177.6250  146.5250 C   0  0  2  0  0  3  0  0  0  0  0  0
  188.8930  177.1710  145.2750 C   0  0  1  0  0  3  0  0  0  0  0  0
  190.2460  177.2070  147.4790 N   0  0  0  0  0  0  0  0  0  0  0  0
  190.3760  177.6630  145.1990 C   0  0  0  0  0  2  0  0  0  0  0  0
  188.1620  177.6610  146.4780 N   0  0  0  0  0  0  0  0  0  0  0  0
  186.8520  177.0190  146.5050 C   0  0  0  0  0  1  0  0  0  0  0  0
  191.4050  176.3450  146.9770 C   0  0  0  0  0  0  0  0  0  0  0  0
  185.8060  178.6280  137.9910 C   0  0  0  0  0  2  0  0  0  0  0  0
  186.8050  179.0030  137.0930 O   0  0  0  0  0  1  0  0  0  0  0  0
  1 15  2  0  0  0  0
  2  7  1  0  0  0  0
  3  1  1  0  0  0  0
  4  2  2  0  0  0  0
  4  1  1  0  0  0  0
  5 11  1  1  0  0  0
  5  2  1  0  0  0  0
  7 16  1  0  0  0  0
  7 14  2  0  0  0  0
  8 19  2  0  0  0  0
  9  8  1  1  0  0  0
  9 16  1  0  0  0  0
 10  4  1  0  0  0  0
 11  9  1  0  0  0  0
 12 17  1  0  0  0  0
 12 10  1  0  0  0  0
 13 10  2  0  0  0  0
 13 18  1  0  0  0  0
 15 14  1  0  0  0  0
 16 20  1  1  0  0  0
 17 31  1  6  0  0  0
 17  5  1  0  0  0  0
 18  3  2  0  0  0  0
 19  6  1  0  0  0  0
 20  6  2  0  0  0  0
 21 23  1  1  0  0  0
 22 30  2  0  0  0  0
 24 27  1  6  0  0  0
 24 30  1  0  0  0  0
 24 26  1  0  0  0  0
 25 15  1  6  0  0  0
 25 28  1  0  0  0  0
 26 21  1  0  0  0  0
 27 25  1  0  0  0  0
 28 29  1  0  0  0  0
 28 21  1  0  0  0  0
 30 26  1  0  0  0  0
 32 31  1  0  0  0  0
M  END
>  <MODEL>
5

>  <REMARK>
 VINA RESULT:      -9.9      1.836      6.755
  Name = 
  2 active torsions:
  status: ('A' for Active; 'I' for Inactive)
    1  A    between atoms: C_13  and  C_29
    2  A    between atoms: C_16  and  C_27
                            x       y       z     vdW  Elec       q    Type
                         _______ _______ _______ _____ _____    ______ ____

>  <TORSDO>
F 2

$$$$
=
 OpenBabel11052414343D

 32 38  0  0  1  0  0  0  0  0999 V2000
  185.7020  178.1120  144.2110 C   0  0  0  0  0  0  0  0  0  0  0  0
  187.9510  178.1800  143.2800 C   0  0  0  0  0  0  0  0  0  0  0  0
  184.8590  178.0100  145.3270 C   0  0  0  0  0  3  0  0  0  0  0  0
  187.1030  178.0720  144.3940 C   0  0  0  0  0  0  0  0  0  0  0  0
  189.4580  178.2550  143.4800 C   0  0  2  0  0  3  0  0  0  0  0  0
  188.4170  177.1560  138.5920 C   0  0  0  0  0  3  0  0  0  0  0  0
  187.3900  178.2340  141.9970 C   0  0  0  0  0  0  0  0  0  0  0  0
  190.4270  177.1980  139.9800 C   0  0  0  0  0  3  0  0  0  0  0  0
  189.5420  177.3880  141.1800 C   0  0  1  0  0  3  0  0  0  0  0  0
  187.6390  177.8780  145.6850 C   0  0  0  0  0  0  0  0  0  0  0  0
  190.2800  178.0270  142.2700 N   0  0  0  0  0  2  0  0  0  0  0  0
  189.1270  177.8140  145.9140 C   0  0  0  0  0  2  0  0  0  0  0  0
  186.7810  177.7850  146.7830 C   0  0  0  0  0  3  0  0  0  0  0  0
  186.0380  178.2850  141.8470 N   0  0  0  0  0  0  0  0  0  0  0  0
  185.1860  178.2400  142.9080 C   0  0  0  0  0  0  0  0  0  0  0  0
  188.3060  178.2210  140.8140 C   0  0  1  0  0  3  0  0  0  0  0  0
  189.8890  177.3760  144.6580 C   0  0  2  0  0  3  0  0  0  0  0  0
  185.3970  177.8520  146.6070 C   0  0  0  0  0  3  0  0  0  0  0  0
  189.8800  177.0480  138.7670 C   0  0  0  0  0  3  0  0  0  0  0  0
  187.6570  177.6680  139.5680 C   0  0  0  0  0  3  0  0  0  0  0  0
  181.9450  178.6610  140.9860 C   0  0  2  0  0  3  0  0  0  0  0  0
  180.0140  177.9740  144.2480 O   0  0  0  0  0  0  0  0  0  0  0  0
  181.6430  179.6110  139.8420 C   0  0  0  0  0  1  0  0  0  0  0  0
  181.6330  179.7530  143.3770 C   0  0  2  0  0  3  0  0  0  0  0  0
  183.7020  178.3040  142.6610 C   0  0  1  0  0  3  0  0  0  0  0  0
  181.3020  179.1410  142.1800 N   0  0  0  0  0  0  0  0  0  0  0  0
  183.0780  179.3160  143.6760 C   0  0  0  0  0  2  0  0  0  0  0  0
  183.3970  178.6220  141.2360 N   0  0  0  0  0  0  0  0  0  0  0  0
  183.9050  177.5340  140.4090 C   0  0  0  0  0  1  0  0  0  0  0  0
  180.7110  178.7380  143.5320 C   0  0  0  0  0  0  0  0  0  0  0  0
  191.3840  177.5060  144.9100 C   0  0  0  0  0  2  0  0  0  0  0  0
  191.6810  177.1280  146.2190 O   0  0  0  0  0  1  0  0  0  0  0  0
  1  4  2  0  0  0  0
  1  3  1  0  0  0  0
  2  5  1  0  0  0  0
  2  4  1  0  0  0  0
  3 18  2  0  0  0  0
  4 10  1  0  0  0  0
  5 11  1  6  0  0  0
  5 17  1  0  0  0  0
  6 19  1  0  0  0  0
  6 20  2  0  0  0  0
  7  2  2  0  0  0  0
  9  8  1  6  0  0  0
  9 11  1  0  0  0  0
 10 12  1  0  0  0  0
 10 13  2  0  0  0  0
 14  7  1  0  0  0  0
 14 15  2  0  0  0  0
 15  1  1  0  0  0  0
 16 20  1  6  0  0  0
 16  9  1  0  0  0  0
 16  7  1  0  0  0  0
 17 31  1  1  0  0  0
 17 12  1  0  0  0  0
 18 13  1  0  0  0  0
 19  8  2  0  0  0  0
 21 23  1  6  0  0  0
 21 28  1  0  0  0  0
 21 26  1  0  0  0  0
 24 30  1  0  0  0  0
 24 27  1  1  0  0  0
 25 15  1  6  0  0  0
 25 27  1  0  0  0  0
 26 24  1  0  0  0  0
 26 30  1  0  0  0  0
 28 25  1  0  0  0  0
 29 28  1  0  0  0  0
 30 22  2  0  0  0  0
 31 32  1  0  0  0  0
M  END
>  <MODEL>
6

>  <REMARK>
 VINA RESULT:      -9.8      1.676      4.673
  Name = 
  2 active torsions:
  status: ('A' for Active; 'I' for Inactive)
    1  A    between atoms: C_13  and  C_29
    2  A    between atoms: C_16  and  C_27
                            x       y       z     vdW  Elec       q    Type
                         _______ _______ _______ _____ _____    ______ ____

>  <TORSDO>
F 2

$$$$
=
 OpenBabel11052414343D

 32 38  0  0  1  0  0  0  0  0999 V2000
  185.3960  178.2180  143.4260 C   0  0  0  0  0  0  0  0  0  0  0  0
  187.7920  178.1530  142.9930 C   0  0  0  0  0  0  0  0  0  0  0  0
  184.3340  178.2070  144.3410 C   0  0  0  0  0  3  0  0  0  0  0  0
  186.7240  178.1370  143.9040 C   0  0  0  0  0  0  0  0  0  0  0  0
  189.2240  178.1830  143.5050 C   0  0  2  0  0  3  0  0  0  0  0  0
  189.1850  176.8620  138.5620 C   0  0  0  0  0  3  0  0  0  0  0  0
  187.5160  178.1580  141.6190 C   0  0  0  0  0  0  0  0  0  0  0  0
  190.8580  176.9050  140.3420 C   0  0  0  0  0  3  0  0  0  0  0  0
  189.7500  177.1910  141.3170 C   0  0  1  0  0  3  0  0  0  0  0  0
  186.9670  177.9930  145.2870 C   0  0  0  0  0  0  0  0  0  0  0  0
  190.2710  177.8600  142.5090 N   0  0  0  0  0  2  0  0  0  0  0  0
  188.3680  177.8860  145.8300 C   0  0  0  0  0  2  0  0  0  0  0  0
  185.8930  177.9910  146.1810 C   0  0  0  0  0  3  0  0  0  0  0  0
  186.2300  178.2510  141.1820 N   0  0  0  0  0  0  0  0  0  0  0  0
  185.1730  178.2950  142.0390 C   0  0  0  0  0  0  0  0  0  0  0  0
  188.6590  178.0480  140.6590 C   0  0  1  0  0  3  0  0  0  0  0  0
  189.3550  177.3540  144.7850 C   0  0  2  0  0  3  0  0  0  0  0  0
  184.5820  178.0980  145.7110 C   0  0  0  0  0  3  0  0  0  0  0  0
  190.5720  176.7100  139.0490 C   0  0  0  0  0  3  0  0  0  0  0  0
  188.2620  177.4530  139.3290 C   0  0  0  0  0  3  0  0  0  0  0  0
  182.3990  179.2470  139.6360 C   0  0  2  0  0  3  0  0  0  0  0  0
  179.8880  177.4720  141.9570 O   0  0  0  0  0  0  0  0  0  0  0  0
  182.2570  180.5140  138.8120 C   0  0  0  0  0  1  0  0  0  0  0  0
  181.4680  179.4780  142.1020 C   0  0  2  0  0  3  0  0  0  0  0  0
  183.7790  178.3990  141.4790 C   0  0  1  0  0  3  0  0  0  0  0  0
  181.4670  179.2890  140.7320 N   0  0  0  0  0  0  0  0  0  0  0  0
  182.8510  179.0030  142.5830 C   0  0  0  0  0  2  0  0  0  0  0  0
  183.7590  179.1640  140.1980 N   0  0  0  0  0  0  0  0  0  0  0  0
  184.5420  178.4220  139.2160 C   0  0  0  0  0  1  0  0  0  0  0  0
  180.6420  178.4460  141.7060 C   0  0  0  0  0  0  0  0  0  0  0  0
  190.7680  177.4420  145.3440 C   0  0  0  0  0  2  0  0  0  0  0  0
  190.7990  176.9400  146.6450 O   0  0  0  0  0  1  0  0  0  0  0  0
  1  4  2  0  0  0  0
  1  3  1  0  0  0  0
  2  5  1  0  0  0  0
  2  4  1  0  0  0  0
  3 18  2  0  0  0  0
  4 10  1  0  0  0  0
  5 11  1  6  0  0  0
  5 17  1  0  0  0  0
  6 19  1  0  0  0  0
  6 20  2  0  0  0  0
  7  2  2  0  0  0  0
  9  8  1  6  0  0  0
  9 11  1  0  0  0  0
 10 12  1  0  0  0  0
 10 13  2  0  0  0  0
 14  7  1  0  0  0  0
 14 15  2  0  0  0  0
 15  1  1  0  0  0  0
 16 20  1  6  0  0  0
 16  9  1  0  0  0  0
 16  7  1  0  0  0  0
 17 31  1  1  0  0  0
 17 12  1  0  0  0  0
 18 13  1  0  0  0  0
 19  8  2  0  0  0  0
 21 23  1  1  0  0  0
 21 28  1  0  0  0  0
 21 26  1  0  0  0  0
 24 27  1  1  0  0  0
 25 15  1  1  0  0  0
 25 27  1  0  0  0  0
 26 30  1  0  0  0  0
 26 24  1  0  0  0  0
 28 25  1  0  0  0  0
 29 28  1  0  0  0  0
 30 22  2  0  0  0  0
 30 24  1  0  0  0  0
 31 32  1  0  0  0  0
M  END
>  <MODEL>
7

>  <REMARK>
 VINA RESULT:      -9.1      1.806      4.656
  Name = 
  2 active torsions:
  status: ('A' for Active; 'I' for Inactive)
    1  A    between atoms: C_13  and  C_29
    2  A    between atoms: C_16  and  C_27
                            x       y       z     vdW  Elec       q    Type
                         _______ _______ _______ _____ _____    ______ ____

>  <TORSDO>
F 2

$$$$
=
 OpenBabel11052414343D

 32 38  0  0  1  0  0  0  0  0999 V2000
  186.0050  178.3680  143.9990 C   0  0  0  0  0  0  0  0  0  0  0  0
  185.6070  178.1340  141.6080 C   0  0  0  0  0  0  0  0  0  0  0  0
  185.5120  178.6320  145.2850 C   0  0  0  0  0  3  0  0  0  0  0  0
  185.1200  178.4030  142.8980 C   0  0  0  0  0  0  0  0  0  0  0  0
  184.6420  178.0540  140.4350 C   0  0  2  0  0  3  0  0  0  0  0  0
  189.4310  178.5330  138.6990 C   0  0  0  0  0  3  0  0  0  0  0  0
  186.9810  177.9270  141.4270 C   0  0  0  0  0  0  0  0  0  0  0  0
  187.2000  178.6290  137.7080 C   0  0  0  0  0  3  0  0  0  0  0  0
  186.6290  178.6140  139.1000 C   0  0  1  0  0  3  0  0  0  0  0  0
  183.7660  178.7510  143.0920 C   0  0  0  0  0  0  0  0  0  0  0  0
  185.2570  178.1070  139.0900 N   0  0  0  0  0  2  0  0  0  0  0  0
  182.8000  178.8130  141.9390 C   0  0  0  0  0  2  0  0  0  0  0  0
  183.2960  179.0030  144.3830 C   0  0  0  0  0  3  0  0  0  0  0  0
  187.8120  177.8850  142.5050 N   0  0  0  0  0  0  0  0  0  0  0  0
  187.3650  178.0840  143.7750 C   0  0  0  0  0  0  0  0  0  0  0  0
  187.5040  177.7670  140.0340 C   0  0  1  0  0  3  0  0  0  0  0  0
  183.5070  179.0690  140.6020 C   0  0  2  0  0  3  0  0  0  0  0  0
  184.1640  178.9430  145.4760 C   0  0  0  0  0  3  0  0  0  0  0  0
  188.5270  178.6330  137.5340 C   0  0  0  0  0  3  0  0  0  0  0  0
  188.9530  178.1680  139.8940 C   0  0  0  0  0  3  0  0  0  0  0  0
  190.6480  177.4870  145.5770 C   0  0  2  0  0  3  0  0  0  0  0  0
  188.9670  178.6280  148.8500 O   0  0  0  0  0  0  0  0  0  0  0  0
  191.6800  176.4040  145.3230 C   0  0  0  0  0  1  0  0  0  0  0  0
  188.6800  176.7190  147.1720 C   0  0  2  0  0  3  0  0  0  0  0  0
  188.3460  178.0200  144.9170 C   0  0  1  0  0  3  0  0  0  0  0  0
  189.9260  177.1780  146.7830 N   0  0  0  0  0  0  0  0  0  0  0  0
  187.7130  177.1600  146.0590 C   0  0  0  0  0  2  0  0  0  0  0  0
  189.6790  177.5270  144.4660 N   0  0  0  0  0  0  0  0  0  0  0  0
  190.2200  178.4900  143.5130 C   0  0  0  0  0  1  0  0  0  0  0  0
  189.1320  177.7640  147.9510 C   0  0  0  0  0  0  0  0  0  0  0  0
  182.4970  178.9410  139.4710 C   0  0  0  0  0  2  0  0  0  0  0  0
  182.3450  180.1700  138.8280 O   0  0  0  0  0  1  0  0  0  0  0  0
  1  3  1  0  0  0  0
  2  4  1  0  0  0  0
  3 18  2  0  0  0  0
  4 10  1  0  0  0  0
  4  1  2  0  0  0  0
  5 11  1  6  0  0  0
  5 17  1  0  0  0  0
  5  2  1  0  0  0  0
  6 20  2  0  0  0  0
  7  2  2  0  0  0  0
  7 14  1  0  0  0  0
  9  8  1  6  0  0  0
  9 16  1  0  0  0  0
 10 13  2  0  0  0  0
 11  9  1  0  0  0  0
 12 10  1  0  0  0  0
 13 18  1  0  0  0  0
 14 15  2  0  0  0  0
 15  1  1  0  0  0  0
 16 20  1  1  0  0  0
 16  7  1  0  0  0  0
 17 31  1  6  0  0  0
 17 12  1  0  0  0  0
 19  8  2  0  0  0  0
 19  6  1  0  0  0  0
 21 23  1  6  0  0  0
 21 26  1  0  0  0  0
 24 27  1  6  0  0  0
 24 30  1  0  0  0  0
 25 15  1  6  0  0  0
 25 27  1  0  0  0  0
 26 24  1  0  0  0  0
 26 30  1  0  0  0  0
 28 25  1  0  0  0  0
 28 21  1  0  0  0  0
 29 28  1  0  0  0  0
 30 22  2  0  0  0  0
 32 31  1  0  0  0  0
M  END
>  <MODEL>
8

>  <REMARK>
 VINA RESULT:      -9.0      2.152      7.754
  Name = 
  2 active torsions:
  status: ('A' for Active; 'I' for Inactive)
    1  A    between atoms: C_13  and  C_29
    2  A    between atoms: C_16  and  C_27
                            x       y       z     vdW  Elec       q    Type
                         _______ _______ _______ _____ _____    ______ ____

>  <TORSDO>
F 2

$$$$
=
 OpenBabel11052414343D

 32 38  0  0  1  0  0  0  0  0999 V2000
  186.1830  178.1480  143.8980 C   0  0  0  0  0  0  0  0  0  0  0  0
  184.0830  178.2530  142.6710 C   0  0  0  0  0  0  0  0  0  0  0  0
  186.8770  178.2370  145.1130 C   0  0  0  0  0  3  0  0  0  0  0  0
  184.7840  178.3460  143.8830 C   0  0  0  0  0  0  0  0  0  0  0  0
  182.5650  178.3490  142.6640 C   0  0  2  0  0  3  0  0  0  0  0  0
  184.3570  179.0030  137.9160 C   0  0  0  0  0  3  0  0  0  0  0  0
  184.7990  178.0550  141.4820 C   0  0  0  0  0  0  0  0  0  0  0  0
  182.1890  179.2630  139.0120 C   0  0  0  0  0  3  0  0  0  0  0  0
  182.8820  179.0630  140.3320 C   0  0  1  0  0  3  0  0  0  0  0  0
  184.1070  178.6810  145.0760 C   0  0  0  0  0  0  0  0  0  0  0  0
  181.9400  178.5800  141.3410 N   0  0  0  0  0  2  0  0  0  0  0  0
  182.6190  178.9160  145.0930 C   0  0  0  0  0  2  0  0  0  0  0  0
  184.8180  178.7580  146.2760 C   0  0  0  0  0  3  0  0  0  0  0  0
  186.1450  177.8530  141.5230 N   0  0  0  0  0  0  0  0  0  0  0  0
  186.8490  177.8800  142.6880 C   0  0  0  0  0  0  0  0  0  0  0  0
  184.0540  178.0830  140.1840 C   0  0  1  0  0  3  0  0  0  0  0  0
  182.0840  179.3450  143.7220 C   0  0  2  0  0  3  0  0  0  0  0  0
  186.1970  178.5360  146.2960 C   0  0  0  0  0  3  0  0  0  0  0  0
  182.9050  179.2740  137.8810 C   0  0  0  0  0  3  0  0  0  0  0  0
  184.9200  178.4810  139.0120 C   0  0  0  0  0  3  0  0  0  0  0  0
  190.3200  177.4620  141.2200 C   0  0  2  0  0  3  0  0  0  0  0  0
  191.6800  176.9510  144.7870 O   0  0  0  0  0  0  0  0  0  0  0  0
  190.7170  176.8100  139.9080 C   0  0  0  0  0  1  0  0  0  0  0  0
  190.0580  175.7470  143.2180 C   0  0  2  0  0  3  0  0  0  0  0  0
  188.3360  177.6460  142.6520 C   0  0  1  0  0  3  0  0  0  0  0  0
  190.6720  176.5890  142.3080 N   0  0  0  0  0  0  0  0  0  0  0  0
  188.6420  176.3160  143.4160 C   0  0  0  0  0  2  0  0  0  0  0  0
  188.8600  177.6670  141.2560 N   0  0  0  0  0  0  0  0  0  0  0  0
  188.6410  179.0020  140.7090 C   0  0  0  0  0  1  0  0  0  0  0  0
  191.0450  176.5240  143.7900 C   0  0  0  0  0  0  0  0  0  0  0  0
  180.5630  179.3890  143.7720 C   0  0  0  0  0  2  0  0  0  0  0  0
  180.1000  180.5510  143.1550 O   0  0  0  0  0  1  0  0  0  0  0  0
  1  3  1  0  0  0  0
  2  4  1  0  0  0  0
  3 18  2  0  0  0  0
  4  1  2  0  0  0  0
  4 10  1  0  0  0  0
  5 11  1  6  0  0  0
  5  2  1  0  0  0  0
  5 17  1  0  0  0  0
  6 20  2  0  0  0  0
  7 14  1  0  0  0  0
  7  2  2  0  0  0  0
  9  8  1  6  0  0  0
  9 11  1  0  0  0  0
 10 12  1  0  0  0  0
 10 13  2  0  0  0  0
 13 18  1  0  0  0  0
 14 15  2  0  0  0  0
 15  1  1  0  0  0  0
 16 20  1  6  0  0  0
 16  9  1  0  0  0  0
 16  7  1  0  0  0  0
 17 31  1  1  0  0  0
 17 12  1  0  0  0  0
 19  6  1  0  0  0  0
 19  8  2  0  0  0  0
 21 23  1  6  0  0  0
 21 28  1  0  0  0  0
 21 26  1  0  0  0  0
 24 27  1  1  0  0  0
 24 30  1  0  0  0  0
 25 15  1  6  0  0  0
 25 27  1  0  0  0  0
 26 24  1  0  0  0  0
 26 30  1  0  0  0  0
 28 25  1  0  0  0  0
 29 28  1  0  0  0  0
 30 22  2  0  0  0  0
 32 31  1  0  0  0  0
M  END
>  <MODEL>
9

>  <REMARK>
 VINA RESULT:      -8.9      1.833      8.029
  Name = 
  2 active torsions:
  status: ('A' for Active; 'I' for Inactive)
    1  A    between atoms: C_13  and  C_29
    2  A    between atoms: C_16  and  C_27
                            x       y       z     vdW  Elec       q    Type
                         _______ _______ _______ _____ _____    ______ ____

>  <TORSDO>
F 2

$$$$
