=
 OpenBabel11052413463D

 27 31  0  0  1  0  0  0  0  0999 V2000
  187.8830  176.3390  143.4780 C   0  0  0  0  0  2  0  0  0  0  0  0
  187.1750  177.7790  141.6080 C   0  0  0  0  0  0  0  0  0  0  0  0
  189.7010  177.8800  141.6810 N   0  0  0  0  0  2  0  0  0  0  0  0
  187.4800  178.6830  137.5070 C   0  0  0  0  0  2  0  0  0  0  0  0
  189.3590  180.0750  137.0520 F   0  0  0  0  0  0  0  0  0  0  0  0
  186.0420  177.9430  140.8590 N   0  0  0  0  0  0  0  0  0  0  0  0
  189.6240  178.4050  138.7340 C   0  0  2  0  0  3  0  0  0  0  0  0
  191.6420  177.7920  144.8500 C   0  0  0  0  0  3  0  0  0  0  0  0
  190.4190  177.1190  138.5840 C   0  0  0  0  0  1  0  0  0  0  0  0
  190.7730  177.0940  145.6850 C   0  0  0  0  0  0  0  0  0  0  0  0
  188.4480  178.1830  139.6130 C   0  0  0  0  0  0  0  0  0  0  0  0
  187.0500  177.4240  142.9900 N   0  0  0  0  0  0  0  0  0  0  0  0
  189.0070  178.7790  137.3750 C   0  0  1  0  0  3  0  0  0  0  0  0
  187.2800  178.3400  138.9280 C   0  0  0  0  0  0  0  0  0  0  0  0
  189.1850  176.8860  143.9270 C   0  0  0  0  0  0  0  0  0  0  0  0
  188.4420  177.9080  140.9830 C   0  0  0  0  0  0  0  0  0  0  0  0
  191.2630  178.0410  143.5310 C   0  0  0  0  0  3  0  0  0  0  0  0
  186.0870  178.2240  139.5530 N   0  0  0  0  0  0  0  0  0  0  0  0
  191.1400  176.8300  147.0330 N   0  0  0  0  0  1  0  0  0  0  0  0
  189.5780  176.6540  145.2090 N   0  0  0  0  0  0  0  0  0  0  0  0
  190.0240  177.6060  143.0540 C   0  0  0  0  0  0  0  0  0  0  0  0
  184.2480  179.3220  145.5710 C   0  0  0  0  0  3  0  0  0  0  0  0
  186.1090  178.0780  143.8690 C   0  0  0  0  0  0  0  0  0  0  0  0
  186.1900  177.9110  145.2620 C   0  0  0  0  0  3  0  0  0  0  0  0
  185.2670  178.5310  146.1090 C   0  0  0  0  0  3  0  0  0  0  0  0
  184.1520  179.4920  144.1890 C   0  0  0  0  0  3  0  0  0  0  0  0
  185.0750  178.8720  143.3430 C   0  0  0  0  0  3  0  0  0  0  0  0
  1 15  1  0  0  0  0
  2 12  1  0  0  0  0
  3 21  1  0  0  0  0
  4 14  1  0  0  0  0
  6  2  2  0  0  0  0
  7  9  1  6  0  0  0
  7 11  1  0  0  0  0
  8 10  1  0  0  0  0
 10 19  1  0  0  0  0
 11 16  2  0  0  0  0
 12  1  1  0  0  0  0
 12 23  1  0  0  0  0
 13  5  1  1  0  0  0
 13  4  1  0  0  0  0
 13  7  1  0  0  0  0
 14 18  2  0  0  0  0
 14 11  1  0  0  0  0
 15 20  1  0  0  0  0
 16  2  1  0  0  0  0
 16  3  1  0  0  0  0
 17  8  2  0  0  0  0
 18  6  1  0  0  0  0
 20 10  2  0  0  0  0
 21 17  1  0  0  0  0
 21 15  2  0  0  0  0
 22 25  1  0  0  0  0
 23 24  1  0  0  0  0
 24 25  2  0  0  0  0
 26 22  2  0  0  0  0
 27 23  2  0  0  0  0
 27 26  1  0  0  0  0
M  END
>  <MODEL>
1

>  <REMARK>
 VINA RESULT:      -8.7      0.000      0.000
  Name = 
  1 active torsions:
  status: ('A' for Active; 'I' for Inactive)
    1  A    between atoms: C_9  and  N_15
                            x       y       z     vdW  Elec       q    Type
                         _______ _______ _______ _____ _____    ______ ____

>  <TORSDO>
F 1

$$$$
=
 OpenBabel11052413463D

 27 31  0  0  1  0  0  0  0  0999 V2000
  188.5930  175.8180  143.0780 C   0  0  0  0  0  2  0  0  0  0  0  0
  187.1690  177.2320  144.5090 C   0  0  0  0  0  0  0  0  0  0  0  0
  186.9950  178.1670  142.1660 N   0  0  0  0  0  2  0  0  0  0  0  0
  183.3570  178.8760  145.2100 C   0  0  0  0  0  2  0  0  0  0  0  0
  183.0210  180.8780  143.9630 F   0  0  0  0  0  0  0  0  0  0  0  0
  186.5980  177.1280  145.7480 N   0  0  0  0  0  0  0  0  0  0  0  0
  184.2580  179.1340  142.9070 C   0  0  2  0  0  3  0  0  0  0  0  0
  189.8440  178.1990  139.7780 C   0  0  0  0  0  3  0  0  0  0  0  0
  183.7480  178.2390  141.7920 C   0  0  0  0  0  1  0  0  0  0  0  0
  190.5930  177.1150  140.2310 C   0  0  0  0  0  0  0  0  0  0  0  0
  185.1880  178.3800  143.7870 C   0  0  0  0  0  0  0  0  0  0  0  0
  188.4450  176.6240  144.2780 N   0  0  0  0  0  0  0  0  0  0  0  0
  183.0880  179.5040  143.8340 C   0  0  1  0  0  3  0  0  0  0  0  0
  184.6820  178.2470  145.0450 C   0  0  0  0  0  0  0  0  0  0  0  0
  189.0100  176.6870  141.9530 C   0  0  0  0  0  0  0  0  0  0  0  0
  186.4570  177.8870  143.4720 C   0  0  0  0  0  0  0  0  0  0  0  0
  188.6590  178.5270  140.4370 C   0  0  0  0  0  3  0  0  0  0  0  0
  185.3890  177.6280  146.0180 N   0  0  0  0  0  0  0  0  0  0  0  0
  191.8040  176.7640  139.5730 N   0  0  0  0  0  1  0  0  0  0  0  0
  190.1610  176.3860  141.2930 N   0  0  0  0  0  0  0  0  0  0  0  0
  188.2320  177.7870  141.5420 C   0  0  0  0  0  0  0  0  0  0  0  0
  191.6650  176.9850  147.0370 C   0  0  0  0  0  3  0  0  0  0  0  0
  189.5400  176.7590  145.2090 C   0  0  0  0  0  0  0  0  0  0  0  0
  190.8690  176.5690  144.7900 C   0  0  0  0  0  3  0  0  0  0  0  0
  191.9250  176.6840  145.6980 C   0  0  0  0  0  3  0  0  0  0  0  0
  190.3500  177.1700  147.4690 C   0  0  0  0  0  3  0  0  0  0  0  0
  189.2950  177.0560  146.5610 C   0  0  0  0  0  3  0  0  0  0  0  0
  1 12  1  0  0  0  0
  2  6  1  0  0  0  0
  3 16  1  0  0  0  0
  6 18  2  0  0  0  0
  7  9  1  6  0  0  0
  7 11  1  0  0  0  0
  7 13  1  0  0  0  0
  8 10  2  0  0  0  0
  8 17  1  0  0  0  0
 10 20  1  0  0  0  0
 11 14  2  0  0  0  0
 12  2  1  0  0  0  0
 12 23  1  0  0  0  0
 13  5  1  1  0  0  0
 13  4  1  0  0  0  0
 14  4  1  0  0  0  0
 14 18  1  0  0  0  0
 15  1  1  0  0  0  0
 16 11  1  0  0  0  0
 16  2  2  0  0  0  0
 17 21  2  0  0  0  0
 19 10  1  0  0  0  0
 20 15  2  0  0  0  0
 21 15  1  0  0  0  0
 21  3  1  0  0  0  0
 22 26  1  0  0  0  0
 23 27  1  0  0  0  0
 24 23  2  0  0  0  0
 24 25  1  0  0  0  0
 25 22  2  0  0  0  0
 27 26  2  0  0  0  0
M  END
>  <MODEL>
2

>  <REMARK>
 VINA RESULT:      -8.5      2.484      5.803
  Name = 
  1 active torsions:
  status: ('A' for Active; 'I' for Inactive)
    1  A    between atoms: C_9  and  N_15
                            x       y       z     vdW  Elec       q    Type
                         _______ _______ _______ _____ _____    ______ ____

>  <TORSDO>
F 1

$$$$
=
 OpenBabel11052413463D

 27 31  0  0  1  0  0  0  0  0999 V2000
  186.5600  179.5440  141.6950 C   0  0  0  0  0  2  0  0  0  0  0  0
  186.0300  178.4850  143.8560 C   0  0  0  0  0  0  0  0  0  0  0  0
  188.2620  177.5500  143.1210 N   0  0  0  0  0  2  0  0  0  0  0  0
  187.2410  177.6700  147.8050 C   0  0  0  0  0  2  0  0  0  0  0  0
  188.6470  175.7500  147.9150 F   0  0  0  0  0  0  0  0  0  0  0  0
  185.1760  178.7310  144.8960 N   0  0  0  0  0  0  0  0  0  0  0  0
  188.9030  177.1800  146.0230 C   0  0  2  0  0  3  0  0  0  0  0  0
  189.1080  176.8820  139.5630 C   0  0  0  0  0  3  0  0  0  0  0  0
  190.0610  178.1340  145.7880 C   0  0  0  0  0  1  0  0  0  0  0  0
  188.2890  177.8000  138.9100 C   0  0  0  0  0  0  0  0  0  0  0  0
  187.6470  177.7490  145.4710 C   0  0  0  0  0  0  0  0  0  0  0  0
  185.6170  178.8140  142.5250 N   0  0  0  0  0  0  0  0  0  0  0  0
  188.6310  177.0780  147.5340 C   0  0  1  0  0  3  0  0  0  0  0  0
  186.7450  178.0110  146.4580 C   0  0  0  0  0  0  0  0  0  0  0  0
  187.4370  178.5820  140.9880 C   0  0  0  0  0  0  0  0  0  0  0  0
  187.3210  177.9640  144.1290 C   0  0  0  0  0  0  0  0  0  0  0  0
  189.0780  176.8180  140.9570 C   0  0  0  0  0  3  0  0  0  0  0  0
  185.5160  178.4950  146.1670 N   0  0  0  0  0  0  0  0  0  0  0  0
  188.3040  177.8810  137.4900 N   0  0  0  0  0  1  0  0  0  0  0  0
  187.4850  178.6270  139.6280 N   0  0  0  0  0  0  0  0  0  0  0  0
  188.2320  177.6550  141.6880 C   0  0  0  0  0  0  0  0  0  0  0  0
  181.7470  177.8670  141.0280 C   0  0  0  0  0  3  0  0  0  0  0  0
  184.3060  178.4790  142.0220 C   0  0  0  0  0  0  0  0  0  0  0  0
  184.1560  177.7510  140.8300 C   0  0  0  0  0  3  0  0  0  0  0  0
  182.8840  177.4440  140.3370 C   0  0  0  0  0  3  0  0  0  0  0  0
  181.8800  178.5970  142.2110 C   0  0  0  0  0  3  0  0  0  0  0  0
  183.1510  178.9030  142.7040 C   0  0  0  0  0  3  0  0  0  0  0  0
  1 12  1  0  0  0  0
  2 16  2  0  0  0  0
  2  6  1  0  0  0  0
  3 16  1  0  0  0  0
  6 18  2  0  0  0  0
  7  9  1  1  0  0  0
  7 13  1  0  0  0  0
  8 17  1  0  0  0  0
 10  8  2  0  0  0  0
 10 20  1  0  0  0  0
 11  7  1  0  0  0  0
 11 14  2  0  0  0  0
 12  2  1  0  0  0  0
 13  4  1  0  0  0  0
 13  5  1  6  0  0  0
 14  4  1  0  0  0  0
 15 21  1  0  0  0  0
 15  1  1  0  0  0  0
 16 11  1  0  0  0  0
 17 21  2  0  0  0  0
 18 14  1  0  0  0  0
 19 10  1  0  0  0  0
 20 15  2  0  0  0  0
 21  3  1  0  0  0  0
 22 26  1  0  0  0  0
 23 12  1  0  0  0  0
 23 27  1  0  0  0  0
 24 23  2  0  0  0  0
 25 24  1  0  0  0  0
 25 22  2  0  0  0  0
 26 27  2  0  0  0  0
M  END
>  <MODEL>
3

>  <REMARK>
 VINA RESULT:      -8.4      3.162      6.171
  Name = 
  1 active torsions:
  status: ('A' for Active; 'I' for Inactive)
    1  A    between atoms: C_9  and  N_15
                            x       y       z     vdW  Elec       q    Type
                         _______ _______ _______ _____ _____    ______ ____

>  <TORSDO>
F 1

$$$$
=
 OpenBabel11052413463D

 27 31  0  0  1  0  0  0  0  0999 V2000
  189.4050  179.0470  142.1190 C   0  0  0  0  0  2  0  0  0  0  0  0
  187.3930  178.4340  140.8340 C   0  0  0  0  0  0  0  0  0  0  0  0
  186.8580  177.9980  143.2680 N   0  0  0  0  0  2  0  0  0  0  0  0
  183.2570  178.9550  140.2490 C   0  0  0  0  0  2  0  0  0  0  0  0
  181.9810  177.5780  141.7170 F   0  0  0  0  0  0  0  0  0  0  0  0
  186.9070  178.6790  139.5800 N   0  0  0  0  0  0  0  0  0  0  0  0
  183.9900  178.5250  142.5850 C   0  0  2  0  0  3  0  0  0  0  0  0
  189.3740  176.7530  145.7060 C   0  0  0  0  0  3  0  0  0  0  0  0
  184.0680  179.6740  143.5750 C   0  0  0  0  0  1  0  0  0  0  0  0
  190.5570  177.2270  145.1440 C   0  0  0  0  0  0  0  0  0  0  0  0
  185.1370  178.5790  141.6430 C   0  0  0  0  0  0  0  0  0  0  0  0
  188.8070  178.3080  141.0200 N   0  0  0  0  0  0  0  0  0  0  0  0
  182.7590  178.7190  141.6830 C   0  0  1  0  0  3  0  0  0  0  0  0
  184.7200  178.8130  140.3670 C   0  0  0  0  0  0  0  0  0  0  0  0
  189.3560  178.2210  143.3480 C   0  0  0  0  0  0  0  0  0  0  0  0
  186.4890  178.3680  141.9260 C   0  0  0  0  0  0  0  0  0  0  0  0
  188.1640  177.0200  145.0640 C   0  0  0  0  0  3  0  0  0  0  0  0
  185.6030  178.8580  139.3440 N   0  0  0  0  0  0  0  0  0  0  0  0
  191.8010  176.9660  145.7820 N   0  0  0  0  0  1  0  0  0  0  0  0
  190.5230  177.9490  143.9930 N   0  0  0  0  0  0  0  0  0  0  0  0
  188.1380  177.7440  143.8690 C   0  0  0  0  0  0  0  0  0  0  0  0
  191.2310  176.0050  138.3860 C   0  0  0  0  0  3  0  0  0  0  0  0
  189.6310  177.5160  140.1370 C   0  0  0  0  0  0  0  0  0  0  0  0
  191.0260  177.4780  140.2950 C   0  0  0  0  0  3  0  0  0  0  0  0
  191.8220  176.7250  139.4270 C   0  0  0  0  0  3  0  0  0  0  0  0
  189.8460  176.0390  138.2120 C   0  0  0  0  0  3  0  0  0  0  0  0
  189.0510  176.7910  139.0810 C   0  0  0  0  0  3  0  0  0  0  0  0
  1 15  1  0  0  0  0
  2 12  1  0  0  0  0
  2 16  1  0  0  0  0
  3 21  1  0  0  0  0
  4 14  1  0  0  0  0
  4 13  1  0  0  0  0
  6  2  2  0  0  0  0
  7  9  1  1  0  0  0
 10  8  1  0  0  0  0
 10 19  1  0  0  0  0
 11 16  2  0  0  0  0
 11  7  1  0  0  0  0
 12  1  1  0  0  0  0
 13  5  1  6  0  0  0
 13  7  1  0  0  0  0
 14 11  1  0  0  0  0
 15 21  2  0  0  0  0
 15 20  1  0  0  0  0
 16  3  1  0  0  0  0
 17  8  2  0  0  0  0
 18  6  1  0  0  0  0
 18 14  2  0  0  0  0
 20 10  2  0  0  0  0
 21 17  1  0  0  0  0
 22 25  1  0  0  0  0
 23 24  1  0  0  0  0
 23 12  1  0  0  0  0
 25 24  2  0  0  0  0
 26 22  2  0  0  0  0
 26 27  1  0  0  0  0
 27 23  2  0  0  0  0
M  END
>  <MODEL>
4

>  <REMARK>
 VINA RESULT:      -8.2      2.408      5.360
  Name = 
  1 active torsions:
  status: ('A' for Active; 'I' for Inactive)
    1  A    between atoms: C_9  and  N_15
                            x       y       z     vdW  Elec       q    Type
                         _______ _______ _______ _____ _____    ______ ____

>  <TORSDO>
F 1

$$$$
=
 OpenBabel11052413463D

 27 31  0  0  1  0  0  0  0  0999 V2000
  187.2180  176.3780  143.4930 C   0  0  0  0  0  2  0  0  0  0  0  0
  185.4450  178.0280  143.0360 C   0  0  0  0  0  0  0  0  0  0  0  0
  187.1010  178.1990  141.1320 N   0  0  0  0  0  2  0  0  0  0  0  0
  182.5440  179.4740  140.3510 C   0  0  0  0  0  2  0  0  0  0  0  0
  183.4900  180.9740  138.7590 F   0  0  0  0  0  0  0  0  0  0  0  0
  184.1670  178.2530  143.4690 N   0  0  0  0  0  0  0  0  0  0  0  0
  184.8180  179.1060  139.4170 C   0  0  2  0  0  3  0  0  0  0  0  0
  190.7640  177.7570  141.5830 C   0  0  0  0  0  3  0  0  0  0  0  0
  185.0970  177.8780  138.5690 C   0  0  0  0  0  1  0  0  0  0  0  0
  190.8040  176.9270  142.7010 C   0  0  0  0  0  0  0  0  0  0  0  0
  184.7390  178.7330  140.8530 C   0  0  0  0  0  0  0  0  0  0  0  0
  186.4060  177.4910  143.9530 N   0  0  0  0  0  0  0  0  0  0  0  0
  183.4110  179.6360  139.0940 C   0  0  1  0  0  3  0  0  0  0  0  0
  183.4880  178.9410  141.3510 C   0  0  0  0  0  0  0  0  0  0  0  0
  188.4290  176.9020  142.8200 C   0  0  0  0  0  0  0  0  0  0  0  0
  185.7710  178.2790  141.6790 C   0  0  0  0  0  0  0  0  0  0  0  0
  189.5270  178.1650  141.0850 C   0  0  0  0  0  3  0  0  0  0  0  0
  183.2100  178.7050  142.6530 N   0  0  0  0  0  0  0  0  0  0  0  0
  192.0560  176.5000  143.2250 N   0  0  0  0  0  1  0  0  0  0  0  0
  189.6480  176.5160  143.2850 N   0  0  0  0  0  0  0  0  0  0  0  0
  188.3420  177.7570  141.7040 C   0  0  0  0  0  0  0  0  0  0  0  0
  186.7900  178.9430  147.9350 C   0  0  0  0  0  3  0  0  0  0  0  0
  186.5470  177.9920  145.3000 C   0  0  0  0  0  0  0  0  0  0  0  0
  187.6000  177.5590  146.1230 C   0  0  0  0  0  3  0  0  0  0  0  0
  187.7230  178.0330  147.4320 C   0  0  0  0  0  3  0  0  0  0  0  0
  185.7350  179.3780  147.1310 C   0  0  0  0  0  3  0  0  0  0  0  0
  185.6130  178.9040  145.8230 C   0  0  0  0  0  3  0  0  0  0  0  0
  1 12  1  0  0  0  0
  2  6  1  0  0  0  0
  2 12  1  0  0  0  0
  3 16  1  0  0  0  0
  3 21  1  0  0  0  0
  4 14  1  0  0  0  0
  7  9  1  6  0  0  0
  7 11  1  0  0  0  0
  8 10  1  0  0  0  0
 10 19  1  0  0  0  0
 10 20  2  0  0  0  0
 11 14  2  0  0  0  0
 11 16  1  0  0  0  0
 12 23  1  0  0  0  0
 13  5  1  1  0  0  0
 13  7  1  0  0  0  0
 13  4  1  0  0  0  0
 14 18  1  0  0  0  0
 15 20  1  0  0  0  0
 15  1  1  0  0  0  0
 16  2  2  0  0  0  0
 17  8  2  0  0  0  0
 17 21  1  0  0  0  0
 18  6  2  0  0  0  0
 21 15  2  0  0  0  0
 23 27  2  0  0  0  0
 23 24  1  0  0  0  0
 24 25  2  0  0  0  0
 25 22  1  0  0  0  0
 26 22  2  0  0  0  0
 27 26  1  0  0  0  0
M  END
>  <MODEL>
5

>  <REMARK>
 VINA RESULT:      -8.0      2.444      3.568
  Name = 
  1 active torsions:
  status: ('A' for Active; 'I' for Inactive)
    1  A    between atoms: C_9  and  N_15
                            x       y       z     vdW  Elec       q    Type
                         _______ _______ _______ _____ _____    ______ ____

>  <TORSDO>
F 1

$$$$
=
 OpenBabel11052413463D

 27 31  0  0  1  0  0  0  0  0999 V2000
  189.8110  178.7080  144.2970 C   0  0  0  0  0  2  0  0  0  0  0  0
  190.8830  177.3750  142.5220 C   0  0  0  0  0  0  0  0  0  0  0  0
  188.4350  177.5560  141.9130 N   0  0  0  0  0  2  0  0  0  0  0  0
  191.6430  176.8940  138.4100 C   0  0  0  0  0  2  0  0  0  0  0  0
  189.8510  175.7720  137.3100 F   0  0  0  0  0  0  0  0  0  0  0  0
  192.1600  177.1540  142.0860 N   0  0  0  0  0  0  0  0  0  0  0  0
  189.2750  177.3000  139.0490 C   0  0  2  0  0  3  0  0  0  0  0  0
  185.7110  177.5720  144.4420 C   0  0  0  0  0  3  0  0  0  0  0  0
  188.6650  178.6750  138.8500 C   0  0  0  0  0  1  0  0  0  0  0  0
  186.3730  178.0870  145.5550 C   0  0  0  0  0  0  0  0  0  0  0  0
  190.1780  177.3040  140.2280 C   0  0  0  0  0  0  0  0  0  0  0  0
  190.6520  177.5840  143.9210 N   0  0  0  0  0  0  0  0  0  0  0  0
  190.2090  176.9850  137.8680 C   0  0  1  0  0  3  0  0  0  0  0  0
  191.4720  177.0790  139.8640 C   0  0  0  0  0  0  0  0  0  0  0  0
  188.3950  178.2740  144.3170 C   0  0  0  0  0  0  0  0  0  0  0  0
  189.8310  177.4490  141.5750 C   0  0  0  0  0  0  0  0  0  0  0  0
  186.4160  177.4040  143.2510 C   0  0  0  0  0  3  0  0  0  0  0  0
  192.4530  177.0010  140.7910 N   0  0  0  0  0  0  0  0  0  0  0  0
  185.6720  178.2650  146.7790 N   0  0  0  0  0  1  0  0  0  0  0  0
  187.6850  178.4300  145.4680 N   0  0  0  0  0  0  0  0  0  0  0  0
  187.7710  177.7380  143.1740 C   0  0  0  0  0  0  0  0  0  0  0  0
  192.3930  175.1120  146.9160 C   0  0  0  0  0  3  0  0  0  0  0  0
  191.2550  176.7500  144.9320 C   0  0  0  0  0  0  0  0  0  0  0  0
  191.8290  175.5120  144.5970 C   0  0  0  0  0  3  0  0  0  0  0  0
  192.3960  174.6990  145.5820 C   0  0  0  0  0  3  0  0  0  0  0  0
  191.8210  176.3370  147.2660 C   0  0  0  0  0  3  0  0  0  0  0  0
  191.2540  177.1500  146.2800 C   0  0  0  0  0  3  0  0  0  0  0  0
  1 15  1  0  0  0  0
  2 12  1  0  0  0  0
  3 21  1  0  0  0  0
  4 14  1  0  0  0  0
  6  2  1  0  0  0  0
  7  9  1  6  0  0  0
  7 11  1  0  0  0  0
  8 10  1  0  0  0  0
 10 19  1  0  0  0  0
 11 16  1  0  0  0  0
 12  1  1  0  0  0  0
 12 23  1  0  0  0  0
 13  5  1  1  0  0  0
 13  4  1  0  0  0  0
 13  7  1  0  0  0  0
 14 11  2  0  0  0  0
 14 18  1  0  0  0  0
 15 20  1  0  0  0  0
 16  3  1  0  0  0  0
 16  2  2  0  0  0  0
 17  8  2  0  0  0  0
 18  6  2  0  0  0  0
 20 10  2  0  0  0  0
 21 17  1  0  0  0  0
 21 15  2  0  0  0  0
 22 26  1  0  0  0  0
 23 27  1  0  0  0  0
 24 23  2  0  0  0  0
 24 25  1  0  0  0  0
 25 22  2  0  0  0  0
 27 26  2  0  0  0  0
M  END
>  <MODEL>
6

>  <REMARK>
 VINA RESULT:      -7.9      2.051      5.003
  Name = 
  1 active torsions:
  status: ('A' for Active; 'I' for Inactive)
    1  A    between atoms: C_9  and  N_15
                            x       y       z     vdW  Elec       q    Type
                         _______ _______ _______ _____ _____    ______ ____

>  <TORSDO>
F 1

$$$$
=
 OpenBabel11052413463D

 27 31  0  0  1  0  0  0  0  0999 V2000
  188.4790  179.0300  140.9620 C   0  0  0  0  0  2  0  0  0  0  0  0
  186.1940  178.5890  140.1510 C   0  0  0  0  0  0  0  0  0  0  0  0
  186.2420  177.9070  142.5860 N   0  0  0  0  0  2  0  0  0  0  0  0
  182.0630  179.2350  140.6440 C   0  0  0  0  0  2  0  0  0  0  0  0
  181.1220  177.7320  142.2340 F   0  0  0  0  0  0  0  0  0  0  0  0
  185.4310  178.9740  139.0830 N   0  0  0  0  0  0  0  0  0  0  0  0
  183.3180  178.5500  142.6770 C   0  0  2  0  0  3  0  0  0  0  0  0
  189.2160  176.3710  144.2030 C   0  0  0  0  0  3  0  0  0  0  0  0
  183.6790  179.5860  143.7260 C   0  0  0  0  0  1  0  0  0  0  0  0
  190.2490  176.8830  143.4200 C   0  0  0  0  0  0  0  0  0  0  0  0
  184.2060  178.6840  141.4940 C   0  0  0  0  0  0  0  0  0  0  0  0
  187.6050  178.4210  139.9730 N   0  0  0  0  0  0  0  0  0  0  0  0
  181.9160  178.8570  142.1250 C   0  0  1  0  0  3  0  0  0  0  0  0
  183.5050  179.0590  140.3880 C   0  0  0  0  0  0  0  0  0  0  0  0
  188.6930  178.0800  142.0780 C   0  0  0  0  0  0  0  0  0  0  0  0
  185.5770  178.4230  141.4170 C   0  0  0  0  0  0  0  0  0  0  0  0
  187.9000  176.7230  143.9050 C   0  0  0  0  0  3  0  0  0  0  0  0
  184.1180  179.1970  139.1900 N   0  0  0  0  0  0  0  0  0  0  0  0
  191.5970  176.5350  143.7080 N   0  0  0  0  0  1  0  0  0  0  0  0
  189.9690  177.7230  142.3900 N   0  0  0  0  0  0  0  0  0  0  0  0
  187.6170  177.5700  142.8290 C   0  0  0  0  0  0  0  0  0  0  0  0
  189.2140  176.3630  136.6140 C   0  0  0  0  0  3  0  0  0  0  0  0
  188.1590  177.7150  138.8430 C   0  0  0  0  0  0  0  0  0  0  0  0
  189.4610  177.9860  138.3910 C   0  0  0  0  0  3  0  0  0  0  0  0
  189.9870  177.3130  137.2850 C   0  0  0  0  0  3  0  0  0  0  0  0
  187.9160  176.0860  137.0470 C   0  0  0  0  0  3  0  0  0  0  0  0
  187.3910  176.7590  138.1530 C   0  0  0  0  0  3  0  0  0  0  0  0
  1 15  1  0  0  0  0
  2 16  1  0  0  0  0
  3 21  1  0  0  0  0
  4 13  1  0  0  0  0
  6 18  1  0  0  0  0
  6  2  2  0  0  0  0
  7  9  1  1  0  0  0
 10 19  1  0  0  0  0
 10  8  2  0  0  0  0
 11  7  1  0  0  0  0
 12  2  1  0  0  0  0
 12  1  1  0  0  0  0
 13  5  1  6  0  0  0
 13  7  1  0  0  0  0
 14  4  1  0  0  0  0
 14 11  1  0  0  0  0
 15 20  2  0  0  0  0
 15 21  1  0  0  0  0
 16 11  2  0  0  0  0
 16  3  1  0  0  0  0
 17  8  1  0  0  0  0
 18 14  2  0  0  0  0
 20 10  1  0  0  0  0
 21 17  2  0  0  0  0
 22 26  2  0  0  0  0
 22 25  1  0  0  0  0
 23 12  1  0  0  0  0
 24 23  1  0  0  0  0
 25 24  2  0  0  0  0
 26 27  1  0  0  0  0
 27 23  2  0  0  0  0
M  END
>  <MODEL>
7

>  <REMARK>
 VINA RESULT:      -7.8      2.675      5.832
  Name = 
  1 active torsions:
  status: ('A' for Active; 'I' for Inactive)
    1  A    between atoms: C_9  and  N_15
                            x       y       z     vdW  Elec       q    Type
                         _______ _______ _______ _____ _____    ______ ____

>  <TORSDO>
F 1

$$$$
=
 OpenBabel11052413463D

 27 31  0  0  1  0  0  0  0  0999 V2000
  186.9640  176.4230  143.1880 C   0  0  0  0  0  2  0  0  0  0  0  0
  189.1150  176.9950  144.2470 C   0  0  0  0  0  0  0  0  0  0  0  0
  187.3140  178.1460  145.5990 N   0  0  0  0  0  2  0  0  0  0  0  0
  191.4520  177.0260  147.7480 C   0  0  0  0  0  2  0  0  0  0  0  0
  190.9910  178.9360  149.0960 F   0  0  0  0  0  0  0  0  0  0  0  0
  190.3920  176.5070  144.2190 N   0  0  0  0  0  0  0  0  0  0  0  0
  189.1490  177.9370  147.9570 C   0  0  2  0  0  3  0  0  0  0  0  0
  184.2320  179.5640  144.0800 C   0  0  0  0  0  3  0  0  0  0  0  0
  188.0610  177.0970  148.6040 C   0  0  0  0  0  1  0  0  0  0  0  0
  184.0950  178.7680  142.9440 C   0  0  0  0  0  0  0  0  0  0  0  0
  189.4300  177.4450  146.5840 C   0  0  0  0  0  0  0  0  0  0  0  0
  188.3190  176.9310  143.0580 N   0  0  0  0  0  0  0  0  0  0  0  0
  190.4720  177.7150  148.7090 C   0  0  1  0  0  3  0  0  0  0  0  0
  190.6960  176.9510  146.4840 C   0  0  0  0  0  0  0  0  0  0  0  0
  186.0520  177.5440  143.5160 C   0  0  0  0  0  0  0  0  0  0  0  0
  188.5930  177.4980  145.4660 C   0  0  0  0  0  0  0  0  0  0  0  0
  185.3070  179.3390  144.9400 C   0  0  0  0  0  3  0  0  0  0  0  0
  191.1710  176.4890  145.3050 N   0  0  0  0  0  0  0  0  0  0  0  0
  183.0070  178.9810  142.0540 N   0  0  0  0  0  1  0  0  0  0  0  0
  184.9950  177.7810  142.6920 N   0  0  0  0  0  0  0  0  0  0  0  0
  186.2400  178.3370  144.6640 C   0  0  0  0  0  0  0  0  0  0  0  0
  189.8350  178.0120  139.2310 C   0  0  0  0  0  3  0  0  0  0  0  0
  188.8380  177.3100  141.7650 C   0  0  0  0  0  0  0  0  0  0  0  0
  188.1540  178.2340  140.9570 C   0  0  0  0  0  3  0  0  0  0  0  0
  188.6500  178.5850  139.6980 C   0  0  0  0  0  3  0  0  0  0  0  0
  190.5230  177.0880  140.0200 C   0  0  0  0  0  3  0  0  0  0  0  0
  190.0270  176.7380  141.2780 C   0  0  0  0  0  3  0  0  0  0  0  0
  1 15  1  0  0  0  0
  2 16  1  0  0  0  0
  4 13  1  0  0  0  0
  6  2  2  0  0  0  0
  6 18  1  0  0  0  0
  7  9  1  1  0  0  0
  7 13  1  0  0  0  0
  8 17  1  0  0  0  0
 10  8  2  0  0  0  0
 11  7  1  0  0  0  0
 12  1  1  0  0  0  0
 12  2  1  0  0  0  0
 13  5  1  6  0  0  0
 14 11  1  0  0  0  0
 14  4  1  0  0  0  0
 15 21  1  0  0  0  0
 16  3  1  0  0  0  0
 16 11  2  0  0  0  0
 18 14  2  0  0  0  0
 19 10  1  0  0  0  0
 20 10  1  0  0  0  0
 20 15  2  0  0  0  0
 21 17  2  0  0  0  0
 21  3  1  0  0  0  0
 22 25  2  0  0  0  0
 22 26  1  0  0  0  0
 23 12  1  0  0  0  0
 24 23  2  0  0  0  0
 25 24  1  0  0  0  0
 26 27  2  0  0  0  0
 27 23  1  0  0  0  0
M  END
>  <MODEL>
8

>  <REMARK>
 VINA RESULT:      -7.7      2.956      7.274
  Name = 
  1 active torsions:
  status: ('A' for Active; 'I' for Inactive)
    1  A    between atoms: C_9  and  N_15
                            x       y       z     vdW  Elec       q    Type
                         _______ _______ _______ _____ _____    ______ ____

>  <TORSDO>
F 1

$$$$
=
 OpenBabel11052413463D

 27 31  0  0  1  0  0  0  0  0999 V2000
  184.1370  179.3510  140.3370 C   0  0  0  0  0  2  0  0  0  0  0  0
  186.3950  178.4940  139.8450 C   0  0  0  0  0  0  0  0  0  0  0  0
  184.8060  177.2710  138.3050 N   0  0  0  0  0  2  0  0  0  0  0  0
  189.3780  177.7960  136.9580 C   0  0  0  0  0  2  0  0  0  0  0  0
  189.0230  175.7410  135.8070 F   0  0  0  0  0  0  0  0  0  0  0  0
  187.6800  178.8990  140.0810 N   0  0  0  0  0  0  0  0  0  0  0  0
  187.0900  177.0120  136.3850 C   0  0  2  0  0  3  0  0  0  0  0  0
  181.3610  176.2920  139.3050 C   0  0  0  0  0  3  0  0  0  0  0  0
  186.2380  177.8140  135.4170 C   0  0  0  0  0  1  0  0  0  0  0  0
  181.0730  177.2540  140.2710 C   0  0  0  0  0  0  0  0  0  0  0  0
  187.1330  177.6830  137.7090 C   0  0  0  0  0  0  0  0  0  0  0  0
  185.3850  178.7840  140.8190 N   0  0  0  0  0  0  0  0  0  0  0  0
  188.5530  177.0360  135.9100 C   0  0  1  0  0  3  0  0  0  0  0  0
  188.3920  178.1060  138.0110 C   0  0  0  0  0  0  0  0  0  0  0  0
  183.2100  178.2550  139.9730 C   0  0  0  0  0  0  0  0  0  0  0  0
  186.0850  177.8500  138.6200 C   0  0  0  0  0  0  0  0  0  0  0  0
  182.6040  176.3190  138.6720 C   0  0  0  0  0  3  0  0  0  0  0  0
  188.6610  178.7060  139.1930 N   0  0  0  0  0  0  0  0  0  0  0  0
  179.8130  177.2450  140.9290 N   0  0  0  0  0  1  0  0  0  0  0  0
  181.9910  178.2090  140.5760 N   0  0  0  0  0  0  0  0  0  0  0  0
  183.5520  177.2900  139.0060 C   0  0  0  0  0  0  0  0  0  0  0  0
  185.9700  178.1220  144.9820 C   0  0  0  0  0  3  0  0  0  0  0  0
  185.5950  178.5680  142.2310 C   0  0  0  0  0  0  0  0  0  0  0  0
  186.6210  177.7230  142.6860 C   0  0  0  0  0  3  0  0  0  0  0  0
  186.8100  177.5030  144.0530 C   0  0  0  0  0  3  0  0  0  0  0  0
  184.9420  178.9600  144.5450 C   0  0  0  0  0  3  0  0  0  0  0  0
  184.7540  179.1800  143.1780 C   0  0  0  0  0  3  0  0  0  0  0  0
  1 12  1  0  0  0  0
  2  6  1  0  0  0  0
  2 12  1  0  0  0  0
  3 16  1  0  0  0  0
  3 21  1  0  0  0  0
  4 14  1  0  0  0  0
  7  9  1  6  0  0  0
  7 11  1  0  0  0  0
  8 10  1  0  0  0  0
 10 20  2  0  0  0  0
 10 19  1  0  0  0  0
 11 14  2  0  0  0  0
 11 16  1  0  0  0  0
 12 23  1  0  0  0  0
 13  5  1  1  0  0  0
 13  7  1  0  0  0  0
 13  4  1  0  0  0  0
 14 18  1  0  0  0  0
 15  1  1  0  0  0  0
 15 20  1  0  0  0  0
 16  2  2  0  0  0  0
 17 21  1  0  0  0  0
 17  8  2  0  0  0  0
 18  6  2  0  0  0  0
 21 15  2  0  0  0  0
 23 24  2  0  0  0  0
 23 27  1  0  0  0  0
 24 25  1  0  0  0  0
 25 22  2  0  0  0  0
 26 22  1  0  0  0  0
 27 26  2  0  0  0  0
M  END
>  <MODEL>
9

>  <REMARK>
 VINA RESULT:      -7.7      3.053      5.872
  Name = 
  1 active torsions:
  status: ('A' for Active; 'I' for Inactive)
    1  A    between atoms: C_9  and  N_15
                            x       y       z     vdW  Elec       q    Type
                         _______ _______ _______ _____ _____    ______ ____

>  <TORSDO>
F 1

$$$$
