=
 OpenBabel11052416063D

 43 48  0  0  1  0  0  0  0  0999 V2000
  188.0960  177.3330  147.2490 C   0  0  0  0  0  0  0  0  0  0  0  0
  188.9150  178.1380  142.2440 C   0  0  0  0  0  0  0  0  0  0  0  0
  186.3090  178.6090  141.2340 C   0  0  0  0  0  0  0  0  0  0  0  0
  189.1800  177.6470  144.9950 C   0  0  0  0  0  0  0  0  0  0  0  0
  186.7910  177.5100  146.5990 C   0  0  0  0  0  3  0  0  0  0  0  0
  188.1410  177.1240  148.4880 O   0  0  0  0  0  0  0  0  0  0  0  0
  187.8960  177.8010  144.4300 C   0  0  0  0  0  0  0  0  0  0  0  0
  189.3760  177.3860  146.4640 C   0  0  0  0  0  2  0  0  0  0  0  0
  186.6990  177.7260  145.2890 C   0  0  0  0  0  3  0  0  0  0  0  0
  186.4650  178.2400  142.4700 N   0  0  0  0  0  0  0  0  0  0  0  0
  187.7640  178.0500  143.0510 C   0  0  0  0  0  0  0  0  0  0  0  0
  190.1820  177.9870  142.8140 C   0  0  0  0  0  3  0  0  0  0  0  0
  188.7840  178.3330  140.7590 C   0  0  2  0  0  3  0  0  0  0  0  0
  187.4570  178.8380  140.4060 N   0  0  0  0  0  2  0  0  0  0  0  0
  190.3120  177.7460  144.1820 C   0  0  0  0  0  3  0  0  0  0  0  0
  184.9560  178.8330  140.7000 C   0  0  0  0  0  0  0  0  0  0  0  0
  184.7470  179.7650  139.8800 O   0  0  0  0  0  0  0  0  0  0  0  0
  183.8110  177.9810  141.1370 C   0  0  0  0  0  2  0  0  0  0  0  0
  182.5570  178.8230  141.3110 C   0  0  2  0  0  3  0  0  0  0  0  0
  182.1500  178.7920  142.6440 O   0  0  0  0  0  1  0  0  0  0  0  0
  181.4400  178.2790  140.4370 C   0  0  0  0  0  2  0  0  0  0  0  0
  181.3880  178.9990  139.1740 N   0  0  0  0  0  0  0  0  0  0  0  0
  181.3450  179.4280  136.9840 N   0  0  0  0  0  0  0  0  0  0  0  0
  181.2750  180.3290  139.0260 C   0  0  0  0  0  3  0  0  0  0  0  0
  181.4240  178.4790  137.9340 C   0  0  0  0  0  0  0  0  0  0  0  0
  181.2490  180.5900  137.6660 C   0  0  0  0  0  3  0  0  0  0  0  0
  181.5500  177.0100  137.6460 C   0  0  1  0  0  3  0  0  0  0  0  0
  180.5610  176.6120  136.7650 F   0  0  0  0  0  0  0  0  0  0  0  0
  182.8630  176.6860  137.1030 N   0  0  0  0  0  0  0  0  0  0  0  0
  186.4110  177.5310  137.2720 C   0  0  0  0  0  1  0  0  0  0  0  0
  184.8540  175.7760  135.6180 S   0  0  0  0  0  0  0  0  0  0  0  0
  185.0790  176.9740  136.9250 C   0  0  0  0  0  0  0  0  0  0  0  0
  183.0630  175.7700  135.9890 C   0  0  0  0  0  2  0  0  0  0  0  0
  184.0160  177.3220  137.5580 N   0  0  0  0  0  0  0  0  0  0  0  0
  189.0340  177.0140  140.0450 C   0  0  0  0  0  2  0  0  0  0  0  0
  189.8320  177.2260  138.9170 O   0  0  0  0  0  0  0  0  0  0  0  0
  191.3510  175.8120  137.7660 C   0  0  0  0  0  2  0  0  0  0  0  0
  192.8550  175.7450  137.8590 C   0  0  2  0  0  3  0  0  0  0  0  0
  192.1240  177.1820  139.5650 C   0  0  0  0  0  2  0  0  0  0  0  0
  190.9290  176.3820  139.0910 C   0  0  1  0  0  3  0  0  0  0  0  0
  193.2950  176.7730  138.7950 N   0  0  0  0  0  2  0  0  0  0  0  0
  194.4570  176.9630  136.5760 O   0  0  0  0  0  1  0  0  0  0  0  0
  193.4620  175.9880  136.4900 C   0  0  0  0  0  2  0  0  0  0  0  0
  1  6  2  0  0  0  0
  2 12  2  0  0  0  0
  2 11  1  0  0  0  0
  3 10  2  0  0  0  0
  4  8  1  0  0  0  0
  5  1  1  0  0  0  0
  7  4  1  0  0  0  0
  7  9  1  0  0  0  0
  8  1  1  0  0  0  0
  9  5  2  0  0  0  0
 10 11  1  0  0  0  0
 11  7  2  0  0  0  0
 12 15  1  0  0  0  0
 13 35  1  6  0  0  0
 13  2  1  0  0  0  0
 14 13  1  0  0  0  0
 14  3  1  0  0  0  0
 15  4  2  0  0  0  0
 16 18  1  0  0  0  0
 16  3  1  0  0  0  0
 17 16  2  0  0  0  0
 18 19  1  0  0  0  0
 19 20  1  1  0  0  0
 21 19  1  0  0  0  0
 22 21  1  0  0  0  0
 23 26  1  0  0  0  0
 23 25  2  0  0  0  0
 24 22  1  0  0  0  0
 25 22  1  0  0  0  0
 26 24  2  0  0  0  0
 27 28  1  6  0  0  0
 27 25  1  0  0  0  0
 29 34  1  0  0  0  0
 29 27  1  0  0  0  0
 31 33  1  0  0  0  0
 31 32  1  0  0  0  0
 32 30  1  0  0  0  0
 32 34  2  0  0  0  0
 33 29  1  0  0  0  0
 36 35  1  0  0  0  0
 37 38  1  0  0  0  0
 37 40  1  0  0  0  0
 38 43  1  6  0  0  0
 38 41  1  0  0  0  0
 40 36  1  6  0  0  0
 40 39  1  0  0  0  0
 41 39  1  0  0  0  0
 43 42  1  0  0  0  0
M  END
>  <MODEL>
1

>  <REMARK>
 VINA RESULT:      -8.5      0.000      0.000
  Name = 
  11 active torsions:
  status: ('A' for Active; 'I' for Inactive)
    1  A    between atoms: C_1  and  O_32
    2  A    between atoms: C_1  and  C_34
    3  A    between atoms: C_2  and  C_6
    4  A    between atoms: C_2  and  C_13
    5  A    between atoms: C_3  and  N_4
    6  A    between atoms: C_3  and  C_12
    7  A    between atoms: C_6  and  C_12
    8  A    between atoms: N_11  and  C_14
    9  A    between atoms: C_14  and  C_22
   10  A    between atoms: C_19  and  C_37
   11  A    between atoms: O_32  and  C_35
                            x       y       z     vdW  Elec       q    Type
                         _______ _______ _______ _____ _____    ______ ____

>  <TORSDO>
F 11

$$$$
=
 OpenBabel11052416063D

 43 48  0  0  1  0  0  0  0  0999 V2000
  191.1000  176.9160  146.8330 C   0  0  0  0  0  0  0  0  0  0  0  0
  186.7020  177.8070  144.3360 C   0  0  0  0  0  0  0  0  0  0  0  0
  187.5410  178.1130  141.6460 C   0  0  0  0  0  0  0  0  0  0  0  0
  188.6690  177.2570  146.2620 C   0  0  0  0  0  0  0  0  0  0  0  0
  191.4240  177.1750  145.4240 C   0  0  0  0  0  3  0  0  0  0  0  0
  192.0310  176.6680  147.6410 O   0  0  0  0  0  0  0  0  0  0  0  0
  189.0460  177.5030  144.9250 C   0  0  0  0  0  0  0  0  0  0  0  0
  189.6830  176.9540  147.3320 C   0  0  0  0  0  2  0  0  0  0  0  0
  190.4680  177.4490  144.5380 C   0  0  0  0  0  3  0  0  0  0  0  0
  188.4270  177.9980  142.5900 N   0  0  0  0  0  0  0  0  0  0  0  0
  188.0600  177.7770  143.9590 C   0  0  0  0  0  0  0  0  0  0  0  0
  186.3400  177.5580  145.6630 C   0  0  0  0  0  3  0  0  0  0  0  0
  185.6460  178.1680  143.3290 C   0  0  2  0  0  3  0  0  0  0  0  0
  186.1460  178.0220  141.9620 N   0  0  0  0  0  2  0  0  0  0  0  0
  187.3180  177.2830  146.6180 C   0  0  0  0  0  3  0  0  0  0  0  0
  187.9730  178.2950  140.2510 C   0  0  0  0  0  0  0  0  0  0  0  0
  187.1210  178.4970  139.3470 O   0  0  0  0  0  0  0  0  0  0  0  0
  189.4170  178.2180  139.8820 C   0  0  0  0  0  2  0  0  0  0  0  0
  189.7260  176.8890  139.2130 C   0  0  2  0  0  3  0  0  0  0  0  0
  190.5730  176.1370  140.0260 O   0  0  0  0  0  1  0  0  0  0  0  0
  190.4040  177.1250  137.8740 C   0  0  0  0  0  2  0  0  0  0  0  0
  189.5510  176.6700  136.7860 N   0  0  0  0  0  0  0  0  0  0  0  0
  188.4310  175.3320  135.3940 N   0  0  0  0  0  0  0  0  0  0  0  0
  188.8750  177.4530  135.9310 C   0  0  0  0  0  3  0  0  0  0  0  0
  189.2660  175.4000  136.4480 C   0  0  0  0  0  0  0  0  0  0  0  0
  188.1820  176.6200  135.0690 C   0  0  0  0  0  3  0  0  0  0  0  0
  189.8250  174.1990  137.1560 C   0  0  1  0  0  3  0  0  0  0  0  0
  189.0640  173.0800  136.8670 F   0  0  0  0  0  0  0  0  0  0  0  0
  191.2160  173.9660  136.7890 N   0  0  0  0  0  0  0  0  0  0  0  0
  194.6490  174.1040  138.0220 C   0  0  0  0  0  1  0  0  0  0  0  0
  193.4680  173.5440  135.4680 S   0  0  0  0  0  0  0  0  0  0  0  0
  193.4190  173.9700  137.2020 C   0  0  0  0  0  0  0  0  0  0  0  0
  191.6410  173.6380  135.4370 C   0  0  0  0  0  2  0  0  0  0  0  0
  192.2500  174.1470  137.7060 N   0  0  0  0  0  0  0  0  0  0  0  0
  185.1900  179.6010  143.5560 C   0  0  0  0  0  2  0  0  0  0  0  0
  183.9770  179.6110  144.2500 O   0  0  0  0  0  0  0  0  0  0  0  0
  181.7520  178.8030  144.0770 C   0  0  0  0  0  2  0  0  0  0  0  0
  180.8930  178.6180  142.8510 C   0  0  2  0  0  3  0  0  0  0  0  0
  183.0550  179.1460  142.1030 C   0  0  0  0  0  2  0  0  0  0  0  0
  183.1580  178.7220  143.5530 C   0  0  1  0  0  3  0  0  0  0  0  0
  181.6560  179.0730  141.6940 N   0  0  0  0  0  2  0  0  0  0  0  0
  179.9100  180.7920  142.9010 O   0  0  0  0  0  1  0  0  0  0  0  0
  179.6190  179.4300  142.9920 C   0  0  0  0  0  2  0  0  0  0  0  0
  1  8  1  0  0  0  0
  1  6  2  0  0  0  0
  2 12  1  0  0  0  0
  3 14  1  0  0  0  0
  3 10  2  0  0  0  0
  4 15  1  0  0  0  0
  4  8  1  0  0  0  0
  5  1  1  0  0  0  0
  7  4  2  0  0  0  0
  9  7  1  0  0  0  0
  9  5  2  0  0  0  0
 10 11  1  0  0  0  0
 11  2  2  0  0  0  0
 11  7  1  0  0  0  0
 12 15  2  0  0  0  0
 13 35  1  1  0  0  0
 13  2  1  0  0  0  0
 14 13  1  0  0  0  0
 16  3  1  0  0  0  0
 17 16  2  0  0  0  0
 18 16  1  0  0  0  0
 19 18  1  0  0  0  0
 19 20  1  1  0  0  0
 21 19  1  0  0  0  0
 22 21  1  0  0  0  0
 23 25  2  0  0  0  0
 24 22  1  0  0  0  0
 25 22  1  0  0  0  0
 25 27  1  0  0  0  0
 26 23  1  0  0  0  0
 26 24  2  0  0  0  0
 27 28  1  6  0  0  0
 29 27  1  0  0  0  0
 29 34  1  0  0  0  0
 31 32  1  0  0  0  0
 32 34  2  0  0  0  0
 32 30  1  0  0  0  0
 33 31  1  0  0  0  0
 33 29  1  0  0  0  0
 35 36  1  0  0  0  0
 38 43  1  1  0  0  0
 38 37  1  0  0  0  0
 39 40  1  0  0  0  0
 40 37  1  0  0  0  0
 40 36  1  1  0  0  0
 41 39  1  0  0  0  0
 41 38  1  0  0  0  0
 42 43  1  0  0  0  0
M  END
>  <MODEL>
2

>  <REMARK>
 VINA RESULT:      -8.4      3.422      7.902
  Name = 
  11 active torsions:
  status: ('A' for Active; 'I' for Inactive)
    1  A    between atoms: C_1  and  O_32
    2  A    between atoms: C_1  and  C_34
    3  A    between atoms: C_2  and  C_6
    4  A    between atoms: C_2  and  C_13
    5  A    between atoms: C_3  and  N_4
    6  A    between atoms: C_3  and  C_12
    7  A    between atoms: C_6  and  C_12
    8  A    between atoms: N_11  and  C_14
    9  A    between atoms: C_14  and  C_22
   10  A    between atoms: C_19  and  C_37
   11  A    between atoms: O_32  and  C_35
                            x       y       z     vdW  Elec       q    Type
                         _______ _______ _______ _____ _____    ______ ____

>  <TORSDO>
F 11

$$$$
=
 OpenBabel11052416063D

 43 48  0  0  1  0  0  0  0  0999 V2000
  188.1180  177.3220  147.2180 C   0  0  0  0  0  0  0  0  0  0  0  0
  188.8740  178.1760  142.2110 C   0  0  0  0  0  0  0  0  0  0  0  0
  186.2520  178.6320  141.2340 C   0  0  0  0  0  0  0  0  0  0  0  0
  189.1740  177.6640  144.9550 C   0  0  0  0  0  0  0  0  0  0  0  0
  186.8040  177.4920  146.5840 C   0  0  0  0  0  3  0  0  0  0  0  0
  188.1780  177.1030  148.4550 O   0  0  0  0  0  0  0  0  0  0  0  0
  187.8820  177.8120  144.4060 C   0  0  0  0  0  0  0  0  0  0  0  0
  189.3890  177.3930  146.4200 C   0  0  0  0  0  2  0  0  0  0  0  0
  186.6960  177.7180  145.2770 C   0  0  0  0  0  3  0  0  0  0  0  0
  186.4260  178.2530  142.4650 N   0  0  0  0  0  0  0  0  0  0  0  0
  187.7330  178.0700  143.0310 C   0  0  0  0  0  0  0  0  0  0  0  0
  190.1490  178.0320  142.7670 C   0  0  0  0  0  3  0  0  0  0  0  0
  188.7240  178.3820  140.7300 C   0  0  2  0  0  3  0  0  0  0  0  0
  187.3900  178.8780  140.3960 N   0  0  0  0  0  2  0  0  0  0  0  0
  190.2960  177.7800  144.1300 C   0  0  0  0  0  3  0  0  0  0  0  0
  184.8920  178.8470  140.7170 C   0  0  0  0  0  0  0  0  0  0  0  0
  184.6830  179.7190  139.8340 O   0  0  0  0  0  0  0  0  0  0  0  0
  183.7400  178.0590  141.2440 C   0  0  0  0  0  2  0  0  0  0  0  0
  182.7920  178.9560  142.0240 C   0  0  2  0  0  3  0  0  0  0  0  0
  183.0600  178.8520  143.3880 O   0  0  0  0  0  1  0  0  0  0  0  0
  181.3530  178.5410  141.7670 C   0  0  0  0  0  2  0  0  0  0  0  0
  181.0180  178.7160  140.3620 N   0  0  0  0  0  0  0  0  0  0  0  0
  180.4410  178.2670  138.2540 N   0  0  0  0  0  0  0  0  0  0  0  0
  180.9400  179.8860  139.7070 C   0  0  0  0  0  3  0  0  0  0  0  0
  180.7110  177.7580  139.4700 C   0  0  0  0  0  0  0  0  0  0  0  0
  180.5820  179.6020  138.4000 C   0  0  0  0  0  3  0  0  0  0  0  0
  180.6840  176.2910  139.7920 C   0  0  1  0  0  3  0  0  0  0  0  0
  179.3760  175.8470  139.8770 F   0  0  0  0  0  0  0  0  0  0  0  0
  181.4110  175.5150  138.7960 N   0  0  0  0  0  0  0  0  0  0  0  0
  181.0730  172.8730  136.2990 C   0  0  0  0  0  1  0  0  0  0  0  0
  183.2940  174.3650  137.3370 S   0  0  0  0  0  0  0  0  0  0  0  0
  181.5670  173.9190  137.2300 C   0  0  0  0  0  0  0  0  0  0  0  0
  182.8550  175.5880  138.6250 C   0  0  0  0  0  2  0  0  0  0  0  0
  180.7700  174.5640  138.0040 N   0  0  0  0  0  0  0  0  0  0  0  0
  188.9790  177.0710  140.0020 C   0  0  0  0  0  2  0  0  0  0  0  0
  190.1980  177.1330  139.3210 O   0  0  0  0  0  0  0  0  0  0  0  0
  188.6470  176.0630  137.8780 C   0  0  0  0  0  2  0  0  0  0  0  0
  187.8990  176.6210  136.6920 C   0  0  2  0  0  3  0  0  0  0  0  0
  189.4630  178.2460  137.3460 C   0  0  0  0  0  2  0  0  0  0  0  0
  189.8690  176.9320  137.9800 C   0  0  1  0  0  3  0  0  0  0  0  0
  188.2520  178.0300  136.5600 N   0  0  0  0  0  2  0  0  0  0  0  0
  185.9100  177.5950  137.5810 O   0  0  0  0  0  1  0  0  0  0  0  0
  186.4060  176.4730  136.9150 C   0  0  0  0  0  2  0  0  0  0  0  0
  1  6  2  0  0  0  0
  2 12  2  0  0  0  0
  2 11  1  0  0  0  0
  3 10  2  0  0  0  0
  4  8  1  0  0  0  0
  5  1  1  0  0  0  0
  7  4  1  0  0  0  0
  7  9  1  0  0  0  0
  8  1  1  0  0  0  0
  9  5  2  0  0  0  0
 10 11  1  0  0  0  0
 11  7  2  0  0  0  0
 12 15  1  0  0  0  0
 13 35  1  6  0  0  0
 13  2  1  0  0  0  0
 14 13  1  0  0  0  0
 14  3  1  0  0  0  0
 15  4  2  0  0  0  0
 16  3  1  0  0  0  0
 16 18  1  0  0  0  0
 17 16  2  0  0  0  0
 18 19  1  0  0  0  0
 19 20  1  1  0  0  0
 21 19  1  0  0  0  0
 22 21  1  0  0  0  0
 23 26  1  0  0  0  0
 23 25  2  0  0  0  0
 24 22  1  0  0  0  0
 25 27  1  0  0  0  0
 25 22  1  0  0  0  0
 26 24  2  0  0  0  0
 27 28  1  6  0  0  0
 29 27  1  0  0  0  0
 30 32  1  0  0  0  0
 31 33  1  0  0  0  0
 32 31  1  0  0  0  0
 32 34  2  0  0  0  0
 33 29  1  0  0  0  0
 34 29  1  0  0  0  0
 36 35  1  0  0  0  0
 37 40  1  0  0  0  0
 38 43  1  1  0  0  0
 38 37  1  0  0  0  0
 39 40  1  0  0  0  0
 40 36  1  1  0  0  0
 41 38  1  0  0  0  0
 41 39  1  0  0  0  0
 43 42  1  0  0  0  0
M  END
>  <MODEL>
3

>  <REMARK>
 VINA RESULT:      -8.3      1.954      2.860
  Name = 
  11 active torsions:
  status: ('A' for Active; 'I' for Inactive)
    1  A    between atoms: C_1  and  O_32
    2  A    between atoms: C_1  and  C_34
    3  A    between atoms: C_2  and  C_6
    4  A    between atoms: C_2  and  C_13
    5  A    between atoms: C_3  and  N_4
    6  A    between atoms: C_3  and  C_12
    7  A    between atoms: C_6  and  C_12
    8  A    between atoms: N_11  and  C_14
    9  A    between atoms: C_14  and  C_22
   10  A    between atoms: C_19  and  C_37
   11  A    between atoms: O_32  and  C_35
                            x       y       z     vdW  Elec       q    Type
                         _______ _______ _______ _____ _____    ______ ____

>  <TORSDO>
F 11

$$$$
=
 OpenBabel11052416063D

 43 48  0  0  1  0  0  0  0  0999 V2000
  184.5720  178.7610  145.2210 C   0  0  0  0  0  0  0  0  0  0  0  0
  182.2140  178.8350  140.6590 C   0  0  0  0  0  0  0  0  0  0  0  0
  184.2980  178.1950  138.8480 C   0  0  0  0  0  0  0  0  0  0  0  0
  182.8440  178.9330  143.3930 C   0  0  0  0  0  0  0  0  0  0  0  0
  185.5840  178.5200  144.1830 C   0  0  0  0  0  3  0  0  0  0  0  0
  184.9240  178.7840  146.4270 O   0  0  0  0  0  0  0  0  0  0  0  0
  183.8640  178.7040  142.4460 C   0  0  0  0  0  0  0  0  0  0  0  0
  183.1290  178.9910  144.8700 C   0  0  0  0  0  2  0  0  0  0  0  0
  185.2540  178.4960  142.8940 C   0  0  0  0  0  3  0  0  0  0  0  0
  184.5710  178.3900  140.1040 N   0  0  0  0  0  0  0  0  0  0  0  0
  183.5480  178.6530  141.0750 C   0  0  0  0  0  0  0  0  0  0  0  0
  181.2100  179.0570  141.6070 C   0  0  0  0  0  3  0  0  0  0  0  0
  181.8740  178.8520  139.1950 C   0  0  2  0  0  3  0  0  0  0  0  0
  182.9370  178.2420  138.3970 N   0  0  0  0  0  2  0  0  0  0  0  0
  181.5250  179.1030  142.9650 C   0  0  0  0  0  3  0  0  0  0  0  0
  185.3800  177.8850  137.9010 C   0  0  0  0  0  0  0  0  0  0  0  0
  185.1280  177.7520  136.6750 O   0  0  0  0  0  0  0  0  0  0  0  0
  186.7830  177.6990  138.3760 C   0  0  0  0  0  2  0  0  0  0  0  0
  187.7550  178.4400  137.4720 C   0  0  2  0  0  3  0  0  0  0  0  0
  188.2240  177.5800  136.4800 O   0  0  0  0  0  1  0  0  0  0  0  0
  188.9330  178.9510  138.2840 C   0  0  0  0  0  2  0  0  0  0  0  0
  189.7010  177.8380  138.8200 N   0  0  0  0  0  0  0  0  0  0  0  0
  190.5630  176.3580  140.2520 N   0  0  0  0  0  0  0  0  0  0  0  0
  190.4770  176.9990  138.1150 C   0  0  0  0  0  3  0  0  0  0  0  0
  189.7640  177.4310  140.1010 C   0  0  0  0  0  0  0  0  0  0  0  0
  191.0100  176.0840  139.0070 C   0  0  0  0  0  3  0  0  0  0  0  0
  189.0380  178.1040  141.2300 C   0  0  1  0  0  3  0  0  0  0  0  0
  187.7440  177.6240  141.3160 F   0  0  0  0  0  0  0  0  0  0  0  0
  189.7290  177.9070  142.4980 N   0  0  0  0  0  0  0  0  0  0  0  0
  189.2320  177.1710  146.0390 C   0  0  0  0  0  1  0  0  0  0  0  0
  191.5190  177.8530  144.4450 S   0  0  0  0  0  0  0  0  0  0  0  0
  189.7830  177.5160  144.7050 C   0  0  0  0  0  0  0  0  0  0  0  0
  191.1560  178.1330  142.6740 C   0  0  0  0  0  2  0  0  0  0  0  0
  189.0350  177.5830  143.6620 N   0  0  0  0  0  0  0  0  0  0  0  0
  181.6510  180.2850  138.7380 C   0  0  0  0  0  2  0  0  0  0  0  0
  181.5650  180.3330  137.3430 O   0  0  0  0  0  0  0  0  0  0  0  0
  180.8430  182.5520  137.7800 C   0  0  0  0  0  2  0  0  0  0  0  0
  180.3520  183.6060  136.8190 C   0  0  2  0  0  3  0  0  0  0  0  0
  180.5440  181.6050  135.6060 C   0  0  0  0  0  2  0  0  0  0  0  0
  180.5510  181.2550  137.0790 C   0  0  1  0  0  3  0  0  0  0  0  0
  180.4200  183.0530  135.4710 N   0  0  0  0  0  2  0  0  0  0  0  0
  182.4300  184.5200  137.5540 O   0  0  0  0  0  1  0  0  0  0  0  0
  181.2270  184.8400  136.9240 C   0  0  0  0  0  2  0  0  0  0  0  0
  1  6  2  0  0  0  0
  2 11  2  0  0  0  0
  2 12  1  0  0  0  0
  3 10  2  0  0  0  0
  4  8  1  0  0  0  0
  5  1  1  0  0  0  0
  7  9  1  0  0  0  0
  7  4  2  0  0  0  0
  8  1  1  0  0  0  0
  9  5  2  0  0  0  0
 10 11  1  0  0  0  0
 11  7  1  0  0  0  0
 12 15  2  0  0  0  0
 13 35  1  6  0  0  0
 13  2  1  0  0  0  0
 14  3  1  0  0  0  0
 14 13  1  0  0  0  0
 15  4  1  0  0  0  0
 16 18  1  0  0  0  0
 16  3  1  0  0  0  0
 17 16  2  0  0  0  0
 19 20  1  6  0  0  0
 19 21  1  0  0  0  0
 19 18  1  0  0  0  0
 21 22  1  0  0  0  0
 22 25  1  0  0  0  0
 24 22  1  0  0  0  0
 24 26  2  0  0  0  0
 25 23  2  0  0  0  0
 25 27  1  0  0  0  0
 26 23  1  0  0  0  0
 27 28  1  1  0  0  0
 27 29  1  0  0  0  0
 29 33  1  0  0  0  0
 29 34  1  0  0  0  0
 31 32  1  0  0  0  0
 32 30  1  0  0  0  0
 33 31  1  0  0  0  0
 34 32  2  0  0  0  0
 36 35  1  0  0  0  0
 38 43  1  6  0  0  0
 38 37  1  0  0  0  0
 39 40  1  0  0  0  0
 40 36  1  6  0  0  0
 40 37  1  0  0  0  0
 41 39  1  0  0  0  0
 41 38  1  0  0  0  0
 43 42  1  0  0  0  0
M  END
>  <MODEL>
4

>  <REMARK>
 VINA RESULT:      -8.3      3.261      8.817
  Name = 
  11 active torsions:
  status: ('A' for Active; 'I' for Inactive)
    1  A    between atoms: C_1  and  O_32
    2  A    between atoms: C_1  and  C_34
    3  A    between atoms: C_2  and  C_6
    4  A    between atoms: C_2  and  C_13
    5  A    between atoms: C_3  and  N_4
    6  A    between atoms: C_3  and  C_12
    7  A    between atoms: C_6  and  C_12
    8  A    between atoms: N_11  and  C_14
    9  A    between atoms: C_14  and  C_22
   10  A    between atoms: C_19  and  C_37
   11  A    between atoms: O_32  and  C_35
                            x       y       z     vdW  Elec       q    Type
                         _______ _______ _______ _____ _____    ______ ____

>  <TORSDO>
F 11

$$$$
=
 OpenBabel11052416063D

 43 48  0  0  1  0  0  0  0  0999 V2000
  190.9450  176.9040  146.9390 C   0  0  0  0  0  0  0  0  0  0  0  0
  186.6540  177.9200  144.3070 C   0  0  0  0  0  0  0  0  0  0  0  0
  187.5690  178.0990  141.6300 C   0  0  0  0  0  0  0  0  0  0  0  0
  188.5460  177.3400  146.2970 C   0  0  0  0  0  0  0  0  0  0  0  0
  191.3130  177.1010  145.5300 C   0  0  0  0  0  3  0  0  0  0  0  0
  191.8440  176.6380  147.7760 O   0  0  0  0  0  0  0  0  0  0  0  0
  188.9660  177.5240  144.9630 C   0  0  0  0  0  0  0  0  0  0  0  0
  189.5200  177.0240  147.4010 C   0  0  0  0  0  2  0  0  0  0  0  0
  190.3930  177.3910  144.6130 C   0  0  0  0  0  3  0  0  0  0  0  0
  188.4270  177.9730  142.5990 N   0  0  0  0  0  0  0  0  0  0  0  0
  188.0170  177.8130  143.9650 C   0  0  0  0  0  0  0  0  0  0  0  0
  186.2490  177.7320  145.6320 C   0  0  0  0  0  3  0  0  0  0  0  0
  185.6400  178.2980  143.2630 C   0  0  2  0  0  3  0  0  0  0  0  0
  186.1640  178.0840  141.9140 N   0  0  0  0  0  2  0  0  0  0  0  0
  187.1900  177.4410  146.6190 C   0  0  0  0  0  3  0  0  0  0  0  0
  188.0420  178.2150  140.2420 C   0  0  0  0  0  0  0  0  0  0  0  0
  187.2130  178.3090  139.2980 O   0  0  0  0  0  0  0  0  0  0  0  0
  189.5000  178.1990  139.9260 C   0  0  0  0  0  2  0  0  0  0  0  0
  189.9690  176.7800  139.6480 C   0  0  2  0  0  3  0  0  0  0  0  0
  190.3910  176.1810  140.8340 O   0  0  0  0  0  1  0  0  0  0  0  0
  191.1250  176.7970  138.6620 C   0  0  0  0  0  2  0  0  0  0  0  0
  191.1230  175.5860  137.8560 N   0  0  0  0  0  0  0  0  0  0  0  0
  191.8250  173.7690  136.7670 N   0  0  0  0  0  0  0  0  0  0  0  0
  190.0430  174.9930  137.3230 C   0  0  0  0  0  3  0  0  0  0  0  0
  192.1810  174.8310  137.5130 C   0  0  0  0  0  0  0  0  0  0  0  0
  190.4830  173.8660  136.6480 C   0  0  0  0  0  3  0  0  0  0  0  0
  193.5970  175.1450  137.9060 C   0  0  1  0  0  3  0  0  0  0  0  0
  194.2020  174.0210  138.4410 F   0  0  0  0  0  0  0  0  0  0  0  0
  194.3680  175.6350  136.7710 N   0  0  0  0  0  0  0  0  0  0  0  0
  197.6350  175.4940  135.1490 C   0  0  0  0  0  1  0  0  0  0  0  0
  195.2350  176.9950  134.6750 S   0  0  0  0  0  0  0  0  0  0  0  0
  196.2410  175.8060  135.5510 C   0  0  0  0  0  0  0  0  0  0  0  0
  193.8780  176.6520  135.8520 C   0  0  0  0  0  2  0  0  0  0  0  0
  195.6820  175.2250  136.5530 N   0  0  0  0  0  0  0  0  0  0  0  0
  185.2480  179.7570  143.4340 C   0  0  0  0  0  2  0  0  0  0  0  0
  183.9360  179.8470  143.9070 O   0  0  0  0  0  0  0  0  0  0  0  0
  181.9680  178.5230  143.9990 C   0  0  0  0  0  2  0  0  0  0  0  0
  181.0030  178.1630  142.8960 C   0  0  2  0  0  3  0  0  0  0  0  0
  182.8390  179.2220  141.8860 C   0  0  0  0  0  2  0  0  0  0  0  0
  183.2570  178.8020  143.2790 C   0  0  1  0  0  3  0  0  0  0  0  0
  181.4530  178.8190  141.6730 N   0  0  0  0  0  2  0  0  0  0  0  0
  179.4170  178.5300  144.6410 O   0  0  0  0  0  1  0  0  0  0  0  0
  179.6090  178.6360  143.2630 C   0  0  0  0  0  2  0  0  0  0  0  0
  1  8  1  0  0  0  0
  1  6  2  0  0  0  0
  2 12  1  0  0  0  0
  3 14  1  0  0  0  0
  3 10  2  0  0  0  0
  4 15  1  0  0  0  0
  4  8  1  0  0  0  0
  5  1  1  0  0  0  0
  7  4  2  0  0  0  0
  9  7  1  0  0  0  0
  9  5  2  0  0  0  0
 10 11  1  0  0  0  0
 11  2  2  0  0  0  0
 11  7  1  0  0  0  0
 12 15  2  0  0  0  0
 13 35  1  6  0  0  0
 13  2  1  0  0  0  0
 14 13  1  0  0  0  0
 16  3  1  0  0  0  0
 17 16  2  0  0  0  0
 18 16  1  0  0  0  0
 19 18  1  0  0  0  0
 19 20  1  1  0  0  0
 21 19  1  0  0  0  0
 22 21  1  0  0  0  0
 23 25  2  0  0  0  0
 24 22  1  0  0  0  0
 25 22  1  0  0  0  0
 25 27  1  0  0  0  0
 26 23  1  0  0  0  0
 26 24  2  0  0  0  0
 27 28  1  6  0  0  0
 29 27  1  0  0  0  0
 30 32  1  0  0  0  0
 31 32  1  0  0  0  0
 31 33  1  0  0  0  0
 32 34  2  0  0  0  0
 33 29  1  0  0  0  0
 34 29  1  0  0  0  0
 35 36  1  0  0  0  0
 38 43  1  1  0  0  0
 38 37  1  0  0  0  0
 39 40  1  0  0  0  0
 40 36  1  1  0  0  0
 40 37  1  0  0  0  0
 41 39  1  0  0  0  0
 41 38  1  0  0  0  0
 43 42  1  0  0  0  0
M  END
>  <MODEL>
5

>  <REMARK>
 VINA RESULT:      -8.3      3.911      8.938
  Name = 
  11 active torsions:
  status: ('A' for Active; 'I' for Inactive)
    1  A    between atoms: C_1  and  O_32
    2  A    between atoms: C_1  and  C_34
    3  A    between atoms: C_2  and  C_6
    4  A    between atoms: C_2  and  C_13
    5  A    between atoms: C_3  and  N_4
    6  A    between atoms: C_3  and  C_12
    7  A    between atoms: C_6  and  C_12
    8  A    between atoms: N_11  and  C_14
    9  A    between atoms: C_14  and  C_22
   10  A    between atoms: C_19  and  C_37
   11  A    between atoms: O_32  and  C_35
                            x       y       z     vdW  Elec       q    Type
                         _______ _______ _______ _____ _____    ______ ____

>  <TORSDO>
F 11

$$$$
=
 OpenBabel11052416063D

 43 48  0  0  1  0  0  0  0  0999 V2000
  188.4130  177.3050  147.1590 C   0  0  0  0  0  0  0  0  0  0  0  0
  189.0490  178.0870  142.1230 C   0  0  0  0  0  0  0  0  0  0  0  0
  186.4170  178.6210  141.2180 C   0  0  0  0  0  0  0  0  0  0  0  0
  189.4120  177.5910  144.8620 C   0  0  0  0  0  0  0  0  0  0  0  0
  187.0870  177.5130  146.5610 C   0  0  0  0  0  3  0  0  0  0  0  0
  188.5020  177.0950  148.3950 O   0  0  0  0  0  0  0  0  0  0  0  0
  188.1110  177.7760  144.3490 C   0  0  0  0  0  0  0  0  0  0  0  0
  189.6610  177.3260  146.3220 C   0  0  0  0  0  2  0  0  0  0  0  0
  186.9480  177.7300  145.2550 C   0  0  0  0  0  3  0  0  0  0  0  0
  186.6140  178.2490  142.4470 N   0  0  0  0  0  0  0  0  0  0  0  0
  187.9290  178.0270  142.9770 C   0  0  0  0  0  0  0  0  0  0  0  0
  190.3340  177.9050  142.6430 C   0  0  0  0  0  3  0  0  0  0  0  0
  188.8630  178.2850  140.6440 C   0  0  2  0  0  3  0  0  0  0  0  0
  187.5360  178.8220  140.3440 N   0  0  0  0  0  2  0  0  0  0  0  0
  190.5130  177.6610  144.0040 C   0  0  0  0  0  3  0  0  0  0  0  0
  185.0500  178.8780  140.7380 C   0  0  0  0  0  0  0  0  0  0  0  0
  184.8410  179.7610  139.8660 O   0  0  0  0  0  0  0  0  0  0  0  0
  183.8900  178.1190  141.2920 C   0  0  0  0  0  2  0  0  0  0  0  0
  182.6430  178.3670  140.4590 C   0  0  2  0  0  3  0  0  0  0  0  0
  181.6310  178.8820  141.2680 O   0  0  0  0  0  1  0  0  0  0  0  0
  182.1670  177.0670  139.8340 C   0  0  0  0  0  2  0  0  0  0  0  0
  182.2410  177.1460  138.3830 N   0  0  0  0  0  0  0  0  0  0  0  0
  182.1020  176.5930  136.2250 N   0  0  0  0  0  0  0  0  0  0  0  0
  182.6200  178.2170  137.6670 C   0  0  0  0  0  3  0  0  0  0  0  0
  181.9300  176.1850  137.4950 C   0  0  0  0  0  0  0  0  0  0  0  0
  182.5330  177.8700  136.3290 C   0  0  0  0  0  3  0  0  0  0  0  0
  181.4590  174.8110  137.8800 C   0  0  1  0  0  3  0  0  0  0  0  0
  180.2580  174.5290  137.2530 F   0  0  0  0  0  0  0  0  0  0  0  0
  182.4480  173.7960  137.5430 N   0  0  0  0  0  0  0  0  0  0  0  0
  186.0200  173.0410  137.5730 C   0  0  0  0  0  1  0  0  0  0  0  0
  183.7030  171.6860  136.5580 S   0  0  0  0  0  0  0  0  0  0  0  0
  184.5480  173.0290  137.3790 C   0  0  0  0  0  0  0  0  0  0  0  0
  182.1250  172.5720  136.8240 C   0  0  0  0  0  2  0  0  0  0  0  0
  183.8040  173.9870  137.8030 N   0  0  0  0  0  0  0  0  0  0  0  0
  189.0530  176.9590  139.9230 C   0  0  0  0  0  2  0  0  0  0  0  0
  189.8420  177.1440  138.7850 O   0  0  0  0  0  0  0  0  0  0  0  0
  187.8720  176.3880  137.7000 C   0  0  0  0  0  2  0  0  0  0  0  0
  187.6270  176.1200  136.2360 C   0  0  2  0  0  3  0  0  0  0  0  0
  189.9270  176.5170  136.4870 C   0  0  0  0  0  2  0  0  0  0  0  0
  189.3560  176.2210  137.8580 C   0  0  1  0  0  3  0  0  0  0  0  0
  188.8470  176.4480  135.5080 N   0  0  0  0  0  2  0  0  0  0  0  0
  186.9620  178.0220  134.9580 O   0  0  0  0  0  1  0  0  0  0  0  0
  186.4760  176.9770  135.7450 C   0  0  0  0  0  2  0  0  0  0  0  0
  1  6  2  0  0  0  0
  2 12  2  0  0  0  0
  2 11  1  0  0  0  0
  3 10  2  0  0  0  0
  4  8  1  0  0  0  0
  5  1  1  0  0  0  0
  7  4  1  0  0  0  0
  7  9  1  0  0  0  0
  8  1  1  0  0  0  0
  9  5  2  0  0  0  0
 10 11  1  0  0  0  0
 11  7  2  0  0  0  0
 12 15  1  0  0  0  0
 13 35  1  6  0  0  0
 13  2  1  0  0  0  0
 14 13  1  0  0  0  0
 14  3  1  0  0  0  0
 15  4  2  0  0  0  0
 16  3  1  0  0  0  0
 16 18  1  0  0  0  0
 17 16  2  0  0  0  0
 19 20  1  1  0  0  0
 19 18  1  0  0  0  0
 21 19  1  0  0  0  0
 22 21  1  0  0  0  0
 23 26  1  0  0  0  0
 23 25  2  0  0  0  0
 24 22  1  0  0  0  0
 25 27  1  0  0  0  0
 25 22  1  0  0  0  0
 26 24  2  0  0  0  0
 27 28  1  6  0  0  0
 29 34  1  0  0  0  0
 29 27  1  0  0  0  0
 31 33  1  0  0  0  0
 31 32  1  0  0  0  0
 32 30  1  0  0  0  0
 32 34  2  0  0  0  0
 33 29  1  0  0  0  0
 36 35  1  0  0  0  0
 37 40  1  0  0  0  0
 38 43  1  6  0  0  0
 38 37  1  0  0  0  0
 39 40  1  0  0  0  0
 40 36  1  1  0  0  0
 41 38  1  0  0  0  0
 41 39  1  0  0  0  0
 42 43  1  0  0  0  0
M  END
>  <MODEL>
6

>  <REMARK>
 VINA RESULT:      -8.2      2.011      2.829
  Name = 
  11 active torsions:
  status: ('A' for Active; 'I' for Inactive)
    1  A    between atoms: C_1  and  O_32
    2  A    between atoms: C_1  and  C_34
    3  A    between atoms: C_2  and  C_6
    4  A    between atoms: C_2  and  C_13
    5  A    between atoms: C_3  and  N_4
    6  A    between atoms: C_3  and  C_12
    7  A    between atoms: C_6  and  C_12
    8  A    between atoms: N_11  and  C_14
    9  A    between atoms: C_14  and  C_22
   10  A    between atoms: C_19  and  C_37
   11  A    between atoms: O_32  and  C_35
                            x       y       z     vdW  Elec       q    Type
                         _______ _______ _______ _____ _____    ______ ____

>  <TORSDO>
F 11

$$$$
=
 OpenBabel11052416063D

 43 48  0  0  1  0  0  0  0  0999 V2000
  190.9520  177.0440  146.9010 C   0  0  0  0  0  0  0  0  0  0  0  0
  186.6400  177.8730  144.2370 C   0  0  0  0  0  0  0  0  0  0  0  0
  187.5640  178.0730  141.5650 C   0  0  0  0  0  0  0  0  0  0  0  0
  188.5420  177.3800  146.2430 C   0  0  0  0  0  0  0  0  0  0  0  0
  191.3210  177.2470  145.4940 C   0  0  0  0  0  3  0  0  0  0  0  0
  191.8560  176.8190  147.7450 O   0  0  0  0  0  0  0  0  0  0  0  0
  188.9620  177.5730  144.9100 C   0  0  0  0  0  0  0  0  0  0  0  0
  189.5200  177.1100  147.3540 C   0  0  0  0  0  2  0  0  0  0  0  0
  190.3950  177.4950  144.5700 C   0  0  0  0  0  3  0  0  0  0  0  0
  188.4200  177.9860  142.5400 N   0  0  0  0  0  0  0  0  0  0  0  0
  188.0080  177.8180  143.9040 C   0  0  0  0  0  0  0  0  0  0  0  0
  186.2350  177.6760  145.5610 C   0  0  0  0  0  3  0  0  0  0  0  0
  185.6190  178.2030  143.1850 C   0  0  2  0  0  3  0  0  0  0  0  0
  186.1590  178.0030  141.8410 N   0  0  0  0  0  2  0  0  0  0  0  0
  187.1810  177.4290  146.5550 C   0  0  0  0  0  3  0  0  0  0  0  0
  188.0400  178.1990  140.1790 C   0  0  0  0  0  0  0  0  0  0  0  0
  187.2140  178.2950  139.2340 O   0  0  0  0  0  0  0  0  0  0  0  0
  189.5000  178.1900  139.8670 C   0  0  0  0  0  2  0  0  0  0  0  0
  189.9820  176.7720  139.6100 C   0  0  2  0  0  3  0  0  0  0  0  0
  190.3180  176.1610  140.8180 O   0  0  0  0  0  1  0  0  0  0  0  0
  191.2030  176.7930  138.7070 C   0  0  0  0  0  2  0  0  0  0  0  0
  191.1070  175.7470  137.7000 N   0  0  0  0  0  0  0  0  0  0  0  0
  190.4270  174.5740  135.9270 N   0  0  0  0  0  0  0  0  0  0  0  0
  191.8980  174.6660  137.6040 C   0  0  0  0  0  3  0  0  0  0  0  0
  190.2340  175.6720  136.6800 C   0  0  0  0  0  0  0  0  0  0  0  0
  191.4730  173.9420  136.5030 C   0  0  0  0  0  3  0  0  0  0  0  0
  189.1600  176.6900  136.4210 C   0  0  1  0  0  3  0  0  0  0  0  0
  189.4550  177.4120  135.2780 F   0  0  0  0  0  0  0  0  0  0  0  0
  187.8520  176.0610  136.2900 N   0  0  0  0  0  0  0  0  0  0  0  0
  185.7360  173.3720  137.5630 C   0  0  0  0  0  1  0  0  0  0  0  0
  185.4660  175.2920  135.4460 S   0  0  0  0  0  0  0  0  0  0  0  0
  186.3200  174.5080  136.8060 C   0  0  0  0  0  0  0  0  0  0  0  0
  186.8930  176.4190  135.2540 C   0  0  0  0  0  2  0  0  0  0  0  0
  187.4750  174.9920  137.0990 N   0  0  0  0  0  0  0  0  0  0  0  0
  185.1680  179.6470  143.3440 C   0  0  0  0  0  2  0  0  0  0  0  0
  184.0010  179.7000  144.1130 O   0  0  0  0  0  0  0  0  0  0  0  0
  181.8490  178.7150  144.2860 C   0  0  0  0  0  2  0  0  0  0  0  0
  180.8000  178.5100  143.2210 C   0  0  2  0  0  3  0  0  0  0  0  0
  182.7470  179.2510  142.1370 C   0  0  0  0  0  2  0  0  0  0  0  0
  183.1400  178.7760  143.5200 C   0  0  1  0  0  3  0  0  0  0  0  0
  181.3070  179.0770  141.9770 N   0  0  0  0  0  2  0  0  0  0  0  0
  179.1330  180.1170  142.6460 O   0  0  0  0  0  1  0  0  0  0  0  0
  179.5150  179.2050  143.6300 C   0  0  0  0  0  2  0  0  0  0  0  0
  1  8  1  0  0  0  0
  1  6  2  0  0  0  0
  2 12  1  0  0  0  0
  3 14  1  0  0  0  0
  3 10  2  0  0  0  0
  4 15  1  0  0  0  0
  4  8  1  0  0  0  0
  5  1  1  0  0  0  0
  7  4  2  0  0  0  0
  9  7  1  0  0  0  0
  9  5  2  0  0  0  0
 10 11  1  0  0  0  0
 11  2  2  0  0  0  0
 11  7  1  0  0  0  0
 12 15  2  0  0  0  0
 13 35  1  6  0  0  0
 13  2  1  0  0  0  0
 14 13  1  0  0  0  0
 16  3  1  0  0  0  0
 17 16  2  0  0  0  0
 18 16  1  0  0  0  0
 19 18  1  0  0  0  0
 19 20  1  1  0  0  0
 21 19  1  0  0  0  0
 22 21  1  0  0  0  0
 23 26  1  0  0  0  0
 23 25  2  0  0  0  0
 24 22  1  0  0  0  0
 25 22  1  0  0  0  0
 26 24  2  0  0  0  0
 27 28  1  6  0  0  0
 27 25  1  0  0  0  0
 29 27  1  0  0  0  0
 29 34  1  0  0  0  0
 31 32  1  0  0  0  0
 32 34  2  0  0  0  0
 32 30  1  0  0  0  0
 33 31  1  0  0  0  0
 33 29  1  0  0  0  0
 35 36  1  0  0  0  0
 38 43  1  1  0  0  0
 38 37  1  0  0  0  0
 39 40  1  0  0  0  0
 40 36  1  1  0  0  0
 40 37  1  0  0  0  0
 41 39  1  0  0  0  0
 41 38  1  0  0  0  0
 42 43  1  0  0  0  0
M  END
>  <MODEL>
7

>  <REMARK>
 VINA RESULT:      -8.2      3.012      7.716
  Name = 
  11 active torsions:
  status: ('A' for Active; 'I' for Inactive)
    1  A    between atoms: C_1  and  O_32
    2  A    between atoms: C_1  and  C_34
    3  A    between atoms: C_2  and  C_6
    4  A    between atoms: C_2  and  C_13
    5  A    between atoms: C_3  and  N_4
    6  A    between atoms: C_3  and  C_12
    7  A    between atoms: C_6  and  C_12
    8  A    between atoms: N_11  and  C_14
    9  A    between atoms: C_14  and  C_22
   10  A    between atoms: C_19  and  C_37
   11  A    between atoms: O_32  and  C_35
                            x       y       z     vdW  Elec       q    Type
                         _______ _______ _______ _____ _____    ______ ____

>  <TORSDO>
F 11

$$$$
=
 OpenBabel11052416063D

 43 48  0  0  1  0  0  0  0  0999 V2000
  181.0830  178.9480  143.0080 C   0  0  0  0  0  0  0  0  0  0  0  0
  186.1920  178.4560  142.8370 C   0  0  0  0  0  0  0  0  0  0  0  0
  186.7330  178.3310  140.0580 C   0  0  0  0  0  0  0  0  0  0  0  0
  183.5180  178.7620  143.6340 C   0  0  0  0  0  0  0  0  0  0  0  0
  181.4760  178.7900  141.6020 C   0  0  0  0  0  3  0  0  0  0  0  0
  179.8660  179.0890  143.2930 O   0  0  0  0  0  0  0  0  0  0  0  0
  183.8280  178.6090  142.2670 C   0  0  0  0  0  0  0  0  0  0  0  0
  182.1010  178.9330  144.1130 C   0  0  0  0  0  2  0  0  0  0  0  0
  182.7520  178.6300  141.2590 C   0  0  0  0  0  3  0  0  0  0  0  0
  185.5020  178.3310  140.4770 N   0  0  0  0  0  0  0  0  0  0  0  0
  185.1700  178.4570  141.8670 C   0  0  0  0  0  0  0  0  0  0  0  0
  185.8720  178.6130  144.1890 C   0  0  0  0  0  3  0  0  0  0  0  0
  187.6200  178.2250  142.4300 C   0  0  2  0  0  3  0  0  0  0  0  0
  187.8070  178.4590  140.9980 N   0  0  0  0  0  2  0  0  0  0  0  0
  184.5440  178.7680  144.5830 C   0  0  0  0  0  3  0  0  0  0  0  0
  187.0170  178.2430  138.6170 C   0  0  0  0  0  0  0  0  0  0  0  0
  186.4220  179.0020  137.8080 O   0  0  0  0  0  0  0  0  0  0  0  0
  187.9910  177.2430  138.0890 C   0  0  0  0  0  2  0  0  0  0  0  0
  189.3510  177.8860  137.8700 C   0  0  2  0  0  3  0  0  0  0  0  0
  189.2760  178.7980  136.8180 O   0  0  0  0  0  1  0  0  0  0  0  0
  190.3820  176.8220  137.5330 C   0  0  0  0  0  2  0  0  0  0  0  0
  191.4890  176.8740  138.4750 N   0  0  0  0  0  0  0  0  0  0  0  0
  193.5540  176.7880  139.3180 N   0  0  0  0  0  0  0  0  0  0  0  0
  191.4060  177.1830  139.7790 C   0  0  0  0  0  3  0  0  0  0  0  0
  192.7900  176.6450  138.2200 C   0  0  0  0  0  0  0  0  0  0  0  0
  192.6880  177.1290  140.2980 C   0  0  0  0  0  3  0  0  0  0  0  0
  193.3240  176.2610  136.8690 C   0  0  1  0  0  3  0  0  0  0  0  0
  194.2770  177.1750  136.4580 F   0  0  0  0  0  0  0  0  0  0  0  0
  193.8910  174.9190  136.8840 N   0  0  0  0  0  0  0  0  0  0  0  0
  196.9300  173.0140  137.5680 C   0  0  0  0  0  1  0  0  0  0  0  0
  194.3430  172.3380  136.5240 S   0  0  0  0  0  0  0  0  0  0  0  0
  195.5700  173.4620  137.1740 C   0  0  0  0  0  0  0  0  0  0  0  0
  193.1870  173.7480  136.3840 C   0  0  0  0  0  2  0  0  0  0  0  0
  195.2040  174.6890  137.2900 N   0  0  0  0  0  0  0  0  0  0  0  0
  188.0260  176.8000  142.7720 C   0  0  0  0  0  2  0  0  0  0  0  0
  188.1390  176.6570  144.1580 O   0  0  0  0  0  0  0  0  0  0  0  0
  189.5530  177.2390  145.9730 C   0  0  0  0  0  2  0  0  0  0  0  0
  191.0440  177.0620  146.1220 C   0  0  2  0  0  3  0  0  0  0  0  0
  190.5050  176.5240  143.9010 C   0  0  0  0  0  2  0  0  0  0  0  0
  189.3380  177.2910  144.4870 C   0  0  1  0  0  3  0  0  0  0  0  0
  191.5400  176.3970  144.9220 N   0  0  0  0  0  2  0  0  0  0  0  0
  192.4300  176.7480  148.0380 O   0  0  0  0  0  1  0  0  0  0  0  0
  191.3390  176.2200  147.3480 C   0  0  0  0  0  2  0  0  0  0  0  0
  1  6  2  0  0  0  0
  1  8  1  0  0  0  0
  2 12  1  0  0  0  0
  3 10  2  0  0  0  0
  3 14  1  0  0  0  0
  4  8  1  0  0  0  0
  4 15  1  0  0  0  0
  5  1  1  0  0  0  0
  7  4  2  0  0  0  0
  9  5  2  0  0  0  0
  9  7  1  0  0  0  0
 10 11  1  0  0  0  0
 11  7  1  0  0  0  0
 11  2  2  0  0  0  0
 12 15  2  0  0  0  0
 13 35  1  6  0  0  0
 13  2  1  0  0  0  0
 14 13  1  0  0  0  0
 16  3  1  0  0  0  0
 17 16  2  0  0  0  0
 18 16  1  0  0  0  0
 19 20  1  6  0  0  0
 19 18  1  0  0  0  0
 21 19  1  0  0  0  0
 21 22  1  0  0  0  0
 22 24  1  0  0  0  0
 23 26  1  0  0  0  0
 24 26  2  0  0  0  0
 25 22  1  0  0  0  0
 25 23  2  0  0  0  0
 27 28  1  1  0  0  0
 27 29  1  0  0  0  0
 27 25  1  0  0  0  0
 29 34  1  0  0  0  0
 31 32  1  0  0  0  0
 32 34  2  0  0  0  0
 32 30  1  0  0  0  0
 33 31  1  0  0  0  0
 33 29  1  0  0  0  0
 35 36  1  0  0  0  0
 37 38  1  0  0  0  0
 38 43  1  1  0  0  0
 39 40  1  0  0  0  0
 39 41  1  0  0  0  0
 40 36  1  1  0  0  0
 40 37  1  0  0  0  0
 41 38  1  0  0  0  0
 43 42  1  0  0  0  0
M  END
>  <MODEL>
8

>  <REMARK>
 VINA RESULT:      -8.2      3.706      8.333
  Name = 
  11 active torsions:
  status: ('A' for Active; 'I' for Inactive)
    1  A    between atoms: C_1  and  O_32
    2  A    between atoms: C_1  and  C_34
    3  A    between atoms: C_2  and  C_6
    4  A    between atoms: C_2  and  C_13
    5  A    between atoms: C_3  and  N_4
    6  A    between atoms: C_3  and  C_12
    7  A    between atoms: C_6  and  C_12
    8  A    between atoms: N_11  and  C_14
    9  A    between atoms: C_14  and  C_22
   10  A    between atoms: C_19  and  C_37
   11  A    between atoms: O_32  and  C_35
                            x       y       z     vdW  Elec       q    Type
                         _______ _______ _______ _____ _____    ______ ____

>  <TORSDO>
F 11

$$$$
=
 OpenBabel11052416063D

 43 48  0  0  1  0  0  0  0  0999 V2000
  191.0690  177.0810  146.5770 C   0  0  0  0  0  0  0  0  0  0  0  0
  187.2870  177.6920  143.1560 C   0  0  0  0  0  0  0  0  0  0  0  0
  188.6800  178.0210  140.7100 C   0  0  0  0  0  0  0  0  0  0  0  0
  188.8080  177.2740  145.4790 C   0  0  0  0  0  0  0  0  0  0  0  0
  191.6800  177.3450  145.2680 C   0  0  0  0  0  3  0  0  0  0  0  0
  191.8110  176.8950  147.5740 O   0  0  0  0  0  0  0  0  0  0  0  0
  189.4570  177.5290  144.2520 C   0  0  0  0  0  0  0  0  0  0  0  0
  189.5770  177.0400  146.7510 C   0  0  0  0  0  2  0  0  0  0  0  0
  190.9300  177.5550  144.1880 C   0  0  0  0  0  3  0  0  0  0  0  0
  189.3420  177.9660  141.8280 N   0  0  0  0  0  0  0  0  0  0  0  0
  188.6940  177.7360  143.0880 C   0  0  0  0  0  0  0  0  0  0  0  0
  186.6550  177.4340  144.3770 C   0  0  0  0  0  3  0  0  0  0  0  0
  186.4610  177.9800  141.9340 C   0  0  2  0  0  3  0  0  0  0  0  0
  187.2560  177.8510  140.7140 N   0  0  0  0  0  2  0  0  0  0  0  0
  187.4120  177.2250  145.5290 C   0  0  0  0  0  3  0  0  0  0  0  0
  189.3980  178.2150  139.4410 C   0  0  0  0  0  0  0  0  0  0  0  0
  189.0550  179.1370  138.6550 O   0  0  0  0  0  0  0  0  0  0  0  0
  190.5220  177.3130  139.0520 C   0  0  0  0  0  2  0  0  0  0  0  0
  189.9910  176.0710  138.3530 C   0  0  2  0  0  3  0  0  0  0  0  0
  190.9720  175.0800  138.3440 O   0  0  0  0  0  1  0  0  0  0  0  0
  189.6080  176.4040  136.9210 C   0  0  0  0  0  2  0  0  0  0  0  0
  188.5850  175.4860  136.4440 N   0  0  0  0  0  0  0  0  0  0  0  0
  186.6000  174.6500  135.8580 N   0  0  0  0  0  0  0  0  0  0  0  0
  188.7910  174.2400  135.9880 C   0  0  0  0  0  3  0  0  0  0  0  0
  187.2620  175.7120  136.3520 C   0  0  0  0  0  0  0  0  0  0  0  0
  187.5570  173.7250  135.6260 C   0  0  0  0  0  3  0  0  0  0  0  0
  186.6010  176.9960  136.7660 C   0  0  1  0  0  3  0  0  0  0  0  0
  186.9210  178.0040  135.8740 F   0  0  0  0  0  0  0  0  0  0  0  0
  185.1540  176.8450  136.8530 N   0  0  0  0  0  0  0  0  0  0  0  0
  182.4410  175.6400  138.9770 C   0  0  0  0  0  1  0  0  0  0  0  0
  182.5700  176.6940  136.3100 S   0  0  0  0  0  0  0  0  0  0  0  0
  183.2720  176.1790  137.8710 C   0  0  0  0  0  0  0  0  0  0  0  0
  184.2540  177.1320  135.7460 C   0  0  0  0  0  2  0  0  0  0  0  0
  184.5450  176.3110  137.9870 N   0  0  0  0  0  0  0  0  0  0  0  0
  185.8880  179.3860  142.0240 C   0  0  0  0  0  2  0  0  0  0  0  0
  184.6380  179.3530  142.6490 O   0  0  0  0  0  0  0  0  0  0  0  0
  182.4050  178.6560  142.2510 C   0  0  0  0  0  2  0  0  0  0  0  0
  181.6230  178.6370  140.9610 C   0  0  2  0  0  3  0  0  0  0  0  0
  183.8450  179.1590  140.4100 C   0  0  0  0  0  2  0  0  0  0  0  0
  183.8390  178.5770  141.8080 C   0  0  1  0  0  3  0  0  0  0  0  0
  182.4740  179.1840  139.9100 N   0  0  0  0  0  2  0  0  0  0  0  0
  180.3650  180.1080  142.3560 O   0  0  0  0  0  1  0  0  0  0  0  0
  180.3690  179.4790  141.1110 C   0  0  0  0  0  2  0  0  0  0  0  0
  1  8  1  0  0  0  0
  1  6  2  0  0  0  0
  2 12  1  0  0  0  0
  3 14  1  0  0  0  0
  3 10  2  0  0  0  0
  4 15  1  0  0  0  0
  4  8  1  0  0  0  0
  5  1  1  0  0  0  0
  7  4  2  0  0  0  0
  9  7  1  0  0  0  0
  9  5  2  0  0  0  0
 10 11  1  0  0  0  0
 11  2  2  0  0  0  0
 11  7  1  0  0  0  0
 12 15  2  0  0  0  0
 13 35  1  1  0  0  0
 13  2  1  0  0  0  0
 14 13  1  0  0  0  0
 16  3  1  0  0  0  0
 17 16  2  0  0  0  0
 18 16  1  0  0  0  0
 19 20  1  6  0  0  0
 19 18  1  0  0  0  0
 21 19  1  0  0  0  0
 22 21  1  0  0  0  0
 23 25  2  0  0  0  0
 24 22  1  0  0  0  0
 25 22  1  0  0  0  0
 25 27  1  0  0  0  0
 26 23  1  0  0  0  0
 26 24  2  0  0  0  0
 27 28  1  6  0  0  0
 27 29  1  0  0  0  0
 29 34  1  0  0  0  0
 31 32  1  0  0  0  0
 32 34  2  0  0  0  0
 32 30  1  0  0  0  0
 33 31  1  0  0  0  0
 33 29  1  0  0  0  0
 35 36  1  0  0  0  0
 38 43  1  1  0  0  0
 38 37  1  0  0  0  0
 39 40  1  0  0  0  0
 40 37  1  0  0  0  0
 40 36  1  1  0  0  0
 41 39  1  0  0  0  0
 41 38  1  0  0  0  0
 43 42  1  0  0  0  0
M  END
>  <MODEL>
9

>  <REMARK>
 VINA RESULT:      -8.1      2.332      6.786
  Name = 
  11 active torsions:
  status: ('A' for Active; 'I' for Inactive)
    1  A    between atoms: C_1  and  O_32
    2  A    between atoms: C_1  and  C_34
    3  A    between atoms: C_2  and  C_6
    4  A    between atoms: C_2  and  C_13
    5  A    between atoms: C_3  and  N_4
    6  A    between atoms: C_3  and  C_12
    7  A    between atoms: C_6  and  C_12
    8  A    between atoms: N_11  and  C_14
    9  A    between atoms: C_14  and  C_22
   10  A    between atoms: C_19  and  C_37
   11  A    between atoms: O_32  and  C_35
                            x       y       z     vdW  Elec       q    Type
                         _______ _______ _______ _____ _____    ______ ____

>  <TORSDO>
F 11

$$$$
