=
 OpenBabel11052417033D

 32 33  0  0  1  0  0  0  0  0999 V2000
  185.5040  179.0560  141.6980 C   0  0  2  0  0  3  0  0  0  0  0  0
  183.5560  178.8770  143.4500 C   0  0  0  0  0  2  0  0  0  0  0  0
  185.0280  178.7100  143.1160 C   0  0  0  0  0  0  0  0  0  0  0  0
  184.5640  179.9170  143.9080 C   0  0  0  0  0  2  0  0  0  0  0  0
  185.7830  177.8260  143.9130 O   0  0  0  0  0  0  0  0  0  0  0  0
  185.6950  178.2960  145.2300 C   0  0  0  0  0  2  0  0  0  0  0  0
  186.6230  177.5060  146.1260 C   0  0  0  0  0  2  0  0  0  0  0  0
  188.0550  177.8390  145.7520 C   0  0  0  0  0  2  0  0  0  0  0  0
  189.0300  177.1550  146.6950 C   0  0  2  0  0  3  0  0  0  0  0  0
  188.9570  177.8020  148.0680 C   0  0  0  0  0  1  0  0  0  0  0  0
  190.4410  177.2960  146.1310 C   0  0  0  0  0  2  0  0  0  0  0  0
  190.4650  177.4130  144.6070 C   0  0  1  0  0  3  0  0  0  0  0  0
  191.2340  178.6420  144.1550 C   0  0  0  0  0  1  0  0  0  0  0  0
  191.0110  176.2660  144.0280 O   0  0  0  0  0  0  0  0  0  0  0  0
  190.3870  176.1570  142.7830 C   0  0  0  0  0  2  0  0  0  0  0  0
  188.9080  175.9120  142.9870 C   0  0  0  0  0  1  0  0  0  0  0  0
  184.4160  178.9210  140.6730 C   0  0  0  0  0  0  0  0  0  0  0  0
  183.7200  177.8180  140.6690 N   0  0  0  0  0  0  0  0  0  0  0  0
  184.2480  179.9650  139.6950 N   0  0  0  0  0  2  0  0  0  0  0  0
  181.3160  177.6560  140.4530 C   0  0  0  0  0  2  0  0  0  0  0  0
  182.6760  176.0040  139.4580 C   0  0  1  0  0  3  0  0  0  0  0  0
  181.3950  175.4370  139.8570 N   0  0  0  0  0  2  0  0  0  0  0  0
  180.5060  176.5050  140.0910 N   0  0  0  0  0  2  0  0  0  0  0  0
  182.8870  175.7950  137.9740 C   0  0  0  0  0  1  0  0  0  0  0  0
  182.6360  177.4760  139.7620 C   0  0  2  0  0  3  0  0  0  0  0  0
  183.3800  179.9400  138.5290 C   0  0  0  0  0  2  0  0  0  0  0  0
  182.2750  180.9580  138.7000 C   0  0  0  0  0  1  0  0  0  0  0  0
  186.8000  178.3410  141.3040 C   0  0  0  0  0  2  0  0  0  0  0  0
  187.1780  178.6650  139.9970 O   0  0  0  0  0  0  0  0  0  0  0  0
  188.5290  178.3210  139.9270 C   0  0  0  0  0  2  0  0  0  0  0  0
  189.0600  178.6040  138.5380 C   0  0  0  0  0  2  0  0  0  0  0  0
  188.0220  179.0360  137.7110 O   0  0  0  0  0  1  0  0  0  0  0  0
  1 28  1  6  0  0  0
  1  3  1  0  0  0  0
  2  4  1  0  0  0  0
  3  2  1  0  0  0  0
  3  4  1  0  0  0  0
  3  5  1  0  0  0  0
  5  6  1  0  0  0  0
  6  7  1  0  0  0  0
  8  7  1  0  0  0  0
  8  9  1  0  0  0  0
  9 10  1  1  0  0  0
 11  9  1  0  0  0  0
 12 13  1  1  0  0  0
 12 11  1  0  0  0  0
 14 12  1  0  0  0  0
 15 16  1  0  0  0  0
 15 14  1  0  0  0  0
 17  1  1  0  0  0  0
 18 17  2  0  0  0  0
 19 17  1  0  0  0  0
 21 24  1  6  0  0  0
 21 25  1  0  0  0  0
 21 22  1  0  0  0  0
 22 23  1  0  0  0  0
 23 20  1  0  0  0  0
 25 20  1  0  0  0  0
 25 18  1  1  0  0  0
 26 27  1  0  0  0  0
 26 19  1  0  0  0  0
 29 28  1  0  0  0  0
 30 29  1  0  0  0  0
 31 30  1  0  0  0  0
 32 31  1  0  0  0  0
M  END
>  <MODEL>
1

>  <REMARK>
 VINA RESULT:      -6.6      0.000      0.000
  Name = 
  17 active torsions:
  status: ('A' for Active; 'I' for Inactive)
    1  A    between atoms: C_1  and  O_20
    2  A    between atoms: C_2  and  C_9
    3  A    between atoms: C_2  and  C_23
    4  A    between atoms: C_4  and  C_5
    5  A    between atoms: C_4  and  O_13
    6  A    between atoms: C_6  and  N_31
    7  A    between atoms: C_8  and  C_23
    8  A    between atoms: C_8  and  O_28
    9  A    between atoms: C_9  and  C_10
   10  A    between atoms: C_10  and  C_19
   11  A    between atoms: O_13  and  C_15
   12  A    between atoms: C_14  and  C_26
   13  A    between atoms: C_14  and  O_28
   14  A    between atoms: C_15  and  C_26
   15  A    between atoms: C_16  and  C_26
   16  A    between atoms: C_19  and  O_20
   17  A    between atoms: N_27  and  C_32
                            x       y       z     vdW  Elec       q    Type
                         _______ _______ _______ _____ _____    ______ ____

>  <TORSDO>
F 17

$$$$
=
 OpenBabel11052417033D

 32 33  0  0  1  0  0  0  0  0999 V2000
  189.9960  177.2770  141.7840 C   0  0  2  0  0  3  0  0  0  0  0  0
  188.5610  177.6490  143.9520 C   0  0  0  0  0  2  0  0  0  0  0  0
  188.6680  177.6850  142.4370 C   0  0  0  0  0  0  0  0  0  0  0  0
  187.9510  176.5350  143.1180 C   0  0  0  0  0  2  0  0  0  0  0  0
  187.7680  178.5150  141.7380 O   0  0  0  0  0  0  0  0  0  0  0  0
  186.4820  178.1660  142.1680 C   0  0  0  0  0  2  0  0  0  0  0  0
  185.6520  179.4130  142.3870 C   0  0  0  0  0  2  0  0  0  0  0  0
  184.2100  179.0010  142.6100 C   0  0  0  0  0  2  0  0  0  0  0  0
  183.9900  178.5700  144.0500 C   0  0  2  0  0  3  0  0  0  0  0  0
  182.5430  178.8160  144.4450 C   0  0  0  0  0  1  0  0  0  0  0  0
  184.9170  179.3790  144.9520 C   0  0  0  0  0  2  0  0  0  0  0  0
  185.3900  178.5960  146.1760 C   0  0  1  0  0  3  0  0  0  0  0  0
  185.5920  177.1260  145.8530 C   0  0  0  0  0  1  0  0  0  0  0  0
  186.5680  179.1400  146.6920 O   0  0  0  0  0  0  0  0  0  0  0  0
  187.0130  178.2130  147.6370 C   0  0  0  0  0  2  0  0  0  0  0  0
  188.5250  178.2170  147.6660 C   0  0  0  0  0  1  0  0  0  0  0  0
  189.8820  177.1080  140.2970 C   0  0  0  0  0  0  0  0  0  0  0  0
  188.9630  177.7950  139.6770 N   0  0  0  0  0  0  0  0  0  0  0  0
  190.7250  176.1420  139.6390 N   0  0  0  0  0  2  0  0  0  0  0  0
  189.0270  179.0980  137.6390 C   0  0  0  0  0  2  0  0  0  0  0  0
  187.1890  177.6750  138.0390 C   0  0  1  0  0  3  0  0  0  0  0  0
  186.7780  178.8270  137.2490 N   0  0  0  0  0  2  0  0  0  0  0  0
  187.9420  179.4310  136.7330 N   0  0  0  0  0  2  0  0  0  0  0  0
  186.8650  176.4010  137.2890 C   0  0  0  0  0  1  0  0  0  0  0  0
  188.6730  177.7740  138.2520 C   0  0  2  0  0  3  0  0  0  0  0  0
  190.6450  175.7100  138.2540 C   0  0  0  0  0  2  0  0  0  0  0  0
  192.0230  175.3230  137.7640 C   0  0  0  0  0  1  0  0  0  0  0  0
  190.6730  176.0920  142.4780 C   0  0  0  0  0  2  0  0  0  0  0  0
  191.8160  176.4990  143.1730 O   0  0  0  0  0  0  0  0  0  0  0  0
  191.8240  175.7130  144.3260 C   0  0  0  0  0  2  0  0  0  0  0  0
  191.5760  176.5800  145.5410 C   0  0  0  0  0  2  0  0  0  0  0  0
  191.8610  177.9130  145.2410 O   0  0  0  0  0  1  0  0  0  0  0  0
  1  3  1  0  0  0  0
  1 28  1  1  0  0  0
  3  4  1  0  0  0  0
  3  2  1  0  0  0  0
  4  2  1  0  0  0  0
  5  6  1  0  0  0  0
  5  3  1  0  0  0  0
  6  7  1  0  0  0  0
  7  8  1  0  0  0  0
  8  9  1  0  0  0  0
  9 10  1  1  0  0  0
  9 11  1  0  0  0  0
 11 12  1  0  0  0  0
 12 13  1  6  0  0  0
 12 14  1  0  0  0  0
 14 15  1  0  0  0  0
 15 16  1  0  0  0  0
 17  1  1  0  0  0  0
 18 17  2  0  0  0  0
 19 17  1  0  0  0  0
 20 25  1  0  0  0  0
 21 24  1  6  0  0  0
 21 25  1  0  0  0  0
 22 21  1  0  0  0  0
 23 22  1  0  0  0  0
 23 20  1  0  0  0  0
 25 18  1  1  0  0  0
 26 19  1  0  0  0  0
 27 26  1  0  0  0  0
 28 29  1  0  0  0  0
 29 30  1  0  0  0  0
 30 31  1  0  0  0  0
 32 31  1  0  0  0  0
M  END
>  <MODEL>
2

>  <REMARK>
 VINA RESULT:      -6.1      3.098      6.281
  Name = 
  17 active torsions:
  status: ('A' for Active; 'I' for Inactive)
    1  A    between atoms: C_1  and  O_20
    2  A    between atoms: C_2  and  C_9
    3  A    between atoms: C_2  and  C_23
    4  A    between atoms: C_4  and  C_5
    5  A    between atoms: C_4  and  O_13
    6  A    between atoms: C_6  and  N_31
    7  A    between atoms: C_8  and  C_23
    8  A    between atoms: C_8  and  O_28
    9  A    between atoms: C_9  and  C_10
   10  A    between atoms: C_10  and  C_19
   11  A    between atoms: O_13  and  C_15
   12  A    between atoms: C_14  and  C_26
   13  A    between atoms: C_14  and  O_28
   14  A    between atoms: C_15  and  C_26
   15  A    between atoms: C_16  and  C_26
   16  A    between atoms: C_19  and  O_20
   17  A    between atoms: N_27  and  C_32
                            x       y       z     vdW  Elec       q    Type
                         _______ _______ _______ _____ _____    ______ ____

>  <TORSDO>
F 17

$$$$
=
 OpenBabel11052417033D

 32 33  0  0  1  0  0  0  0  0999 V2000
  189.7130  177.8690  140.9320 C   0  0  2  0  0  3  0  0  0  0  0  0
  188.4770  178.1620  143.2300 C   0  0  0  0  0  2  0  0  0  0  0  0
  188.4170  178.1260  141.7130 C   0  0  0  0  0  0  0  0  0  0  0  0
  187.9480  176.9290  142.5180 C   0  0  0  0  0  2  0  0  0  0  0  0
  187.3390  178.7830  141.0860 O   0  0  0  0  0  0  0  0  0  0  0  0
  186.1790  178.0820  141.4400 C   0  0  0  0  0  2  0  0  0  0  0  0
  185.0440  179.0500  141.6920 C   0  0  0  0  0  2  0  0  0  0  0  0
  185.2340  179.6720  143.0620 C   0  0  0  0  0  2  0  0  0  0  0  0
  184.6280  178.7930  144.1420 C   0  0  2  0  0  3  0  0  0  0  0  0
  183.1120  178.8040  144.0220 C   0  0  0  0  0  1  0  0  0  0  0  0
  185.0430  179.3320  145.5070 C   0  0  0  0  0  2  0  0  0  0  0  0
  185.5460  178.2420  146.4520 C   0  0  1  0  0  3  0  0  0  0  0  0
  186.2770  177.1460  145.6970 C   0  0  0  0  0  1  0  0  0  0  0  0
  186.3750  178.7800  147.4380 O   0  0  0  0  0  0  0  0  0  0  0  0
  187.4690  177.9140  147.5050 C   0  0  0  0  0  2  0  0  0  0  0  0
  188.2420  178.1850  148.7760 C   0  0  0  0  0  1  0  0  0  0  0  0
  189.4760  177.6890  139.4610 C   0  0  0  0  0  0  0  0  0  0  0  0
  189.6610  176.5000  138.9570 N   0  0  0  0  0  0  0  0  0  0  0  0
  189.1450  178.8420  138.6620 N   0  0  0  0  0  2  0  0  0  0  0  0
  188.2450  175.3040  137.4010 C   0  0  0  0  0  2  0  0  0  0  0  0
  190.5890  175.1450  137.1840 C   0  0  1  0  0  3  0  0  0  0  0  0
  189.9490  173.9190  136.7230 N   0  0  0  0  0  2  0  0  0  0  0  0
  188.5820  174.1960  136.5250 N   0  0  0  0  0  2  0  0  0  0  0  0
  191.4250  175.7330  136.0680 C   0  0  0  0  0  1  0  0  0  0  0  0
  189.5010  176.1100  137.5660 C   0  0  2  0  0  3  0  0  0  0  0  0
  189.0530  178.9060  137.2130 C   0  0  0  0  0  2  0  0  0  0  0  0
  187.5980  178.9020  136.7990 C   0  0  0  0  0  1  0  0  0  0  0  0
  190.5800  176.7660  141.5450 C   0  0  0  0  0  2  0  0  0  0  0  0
  191.5240  177.2980  142.4300 O   0  0  0  0  0  0  0  0  0  0  0  0
  191.5860  176.3740  143.4730 C   0  0  0  0  0  2  0  0  0  0  0  0
  191.5370  177.0960  144.8020 C   0  0  0  0  0  2  0  0  0  0  0  0
  192.0390  176.2710  145.8110 O   0  0  0  0  0  1  0  0  0  0  0  0
  1 28  1  1  0  0  0
  1  3  1  0  0  0  0
  3  4  1  0  0  0  0
  3  2  1  0  0  0  0
  4  2  1  0  0  0  0
  5  6  1  0  0  0  0
  5  3  1  0  0  0  0
  6  7  1  0  0  0  0
  7  8  1  0  0  0  0
  8  9  1  0  0  0  0
  9 10  1  1  0  0  0
  9 11  1  0  0  0  0
 11 12  1  0  0  0  0
 12 13  1  6  0  0  0
 12 14  1  0  0  0  0
 14 15  1  0  0  0  0
 15 16  1  0  0  0  0
 17  1  1  0  0  0  0
 18 17  2  0  0  0  0
 19 17  1  0  0  0  0
 20 25  1  0  0  0  0
 21 24  1  6  0  0  0
 21 25  1  0  0  0  0
 22 21  1  0  0  0  0
 23 22  1  0  0  0  0
 23 20  1  0  0  0  0
 25 18  1  1  0  0  0
 26 19  1  0  0  0  0
 27 26  1  0  0  0  0
 28 29  1  0  0  0  0
 29 30  1  0  0  0  0
 30 31  1  0  0  0  0
 31 32  1  0  0  0  0
M  END
>  <MODEL>
3

>  <REMARK>
 VINA RESULT:      -6.0      3.430      6.215
  Name = 
  17 active torsions:
  status: ('A' for Active; 'I' for Inactive)
    1  A    between atoms: C_1  and  O_20
    2  A    between atoms: C_2  and  C_9
    3  A    between atoms: C_2  and  C_23
    4  A    between atoms: C_4  and  C_5
    5  A    between atoms: C_4  and  O_13
    6  A    between atoms: C_6  and  N_31
    7  A    between atoms: C_8  and  C_23
    8  A    between atoms: C_8  and  O_28
    9  A    between atoms: C_9  and  C_10
   10  A    between atoms: C_10  and  C_19
   11  A    between atoms: O_13  and  C_15
   12  A    between atoms: C_14  and  C_26
   13  A    between atoms: C_14  and  O_28
   14  A    between atoms: C_15  and  C_26
   15  A    between atoms: C_16  and  C_26
   16  A    between atoms: C_19  and  O_20
   17  A    between atoms: N_27  and  C_32
                            x       y       z     vdW  Elec       q    Type
                         _______ _______ _______ _____ _____    ______ ____

>  <TORSDO>
F 17

$$$$
=
 OpenBabel11052417033D

 32 33  0  0  1  0  0  0  0  0999 V2000
  190.6020  177.1530  139.3600 C   0  0  2  0  0  3  0  0  0  0  0  0
  189.0640  177.7780  137.3240 C   0  0  0  0  0  2  0  0  0  0  0  0
  189.2410  177.6230  138.8250 C   0  0  0  0  0  0  0  0  0  0  0  0
  189.2830  179.0030  138.1960 C   0  0  0  0  0  2  0  0  0  0  0  0
  188.0810  177.4430  139.6040 O   0  0  0  0  0  0  0  0  0  0  0  0
  187.9790  178.5640  140.4380 C   0  0  0  0  0  2  0  0  0  0  0  0
  186.7500  178.4490  141.3130 C   0  0  0  0  0  2  0  0  0  0  0  0
  187.1860  178.0480  142.7100 C   0  0  0  0  0  2  0  0  0  0  0  0
  185.9810  177.8290  143.6080 C   0  0  2  0  0  3  0  0  0  0  0  0
  185.3050  179.1610  143.8940 C   0  0  0  0  0  1  0  0  0  0  0  0
  186.4490  177.1950  144.9140 C   0  0  0  0  0  2  0  0  0  0  0  0
  187.3780  178.1040  145.7180 C   0  0  1  0  0  3  0  0  0  0  0  0
  186.9100  178.2450  147.1560 C   0  0  0  0  0  1  0  0  0  0  0  0
  188.6910  177.6300  145.6850 O   0  0  0  0  0  0  0  0  0  0  0  0
  189.0220  177.3870  147.0200 C   0  0  0  0  0  2  0  0  0  0  0  0
  190.4460  176.8840  147.0960 C   0  0  0  0  0  1  0  0  0  0  0  0
  191.2470  176.1240  138.4780 C   0  0  0  0  0  0  0  0  0  0  0  0
  192.4590  176.3580  138.0590 N   0  0  0  0  0  0  0  0  0  0  0  0
  190.4760  174.9780  138.0670 N   0  0  0  0  0  2  0  0  0  0  0  0
  194.4640  175.0080  137.9400 C   0  0  0  0  0  2  0  0  0  0  0  0
  193.8530  176.3300  136.0840 C   0  0  1  0  0  3  0  0  0  0  0  0
  195.3010  176.1870  136.1540 N   0  0  0  0  0  2  0  0  0  0  0  0
  195.5860  175.1170  137.0240 N   0  0  0  0  0  2  0  0  0  0  0  0
  193.3550  175.8210  134.7490 C   0  0  0  0  0  1  0  0  0  0  0  0
  193.2610  175.5070  137.1940 C   0  0  2  0  0  3  0  0  0  0  0  0
  190.8560  173.9740  137.0870 C   0  0  0  0  0  2  0  0  0  0  0  0
  189.6140  173.2980  136.5480 C   0  0  0  0  0  1  0  0  0  0  0  0
  190.5640  176.7490  140.8360 C   0  0  0  0  0  2  0  0  0  0  0  0
  191.5820  177.3800  141.5590 O   0  0  0  0  0  0  0  0  0  0  0  0
  191.0740  177.4930  142.8540 C   0  0  0  0  0  2  0  0  0  0  0  0
  190.7470  176.1200  143.3990 C   0  0  0  0  0  2  0  0  0  0  0  0
  191.9080  175.5060  143.8710 O   0  0  0  0  0  1  0  0  0  0  0  0
  1 28  1  1  0  0  0
  2  4  1  0  0  0  0
  2  3  1  0  0  0  0
  3  1  1  0  0  0  0
  3  5  1  0  0  0  0
  4  3  1  0  0  0  0
  5  6  1  0  0  0  0
  6  7  1  0  0  0  0
  7  8  1  0  0  0  0
  8  9  1  0  0  0  0
  9 10  1  1  0  0  0
  9 11  1  0  0  0  0
 11 12  1  0  0  0  0
 12 13  1  1  0  0  0
 14 12  1  0  0  0  0
 14 15  1  0  0  0  0
 15 16  1  0  0  0  0
 17  1  1  0  0  0  0
 18 17  2  0  0  0  0
 19 17  1  0  0  0  0
 21 24  1  6  0  0  0
 21 22  1  0  0  0  0
 21 25  1  0  0  0  0
 22 23  1  0  0  0  0
 23 20  1  0  0  0  0
 25 20  1  0  0  0  0
 25 18  1  1  0  0  0
 26 19  1  0  0  0  0
 27 26  1  0  0  0  0
 28 29  1  0  0  0  0
 29 30  1  0  0  0  0
 30 31  1  0  0  0  0
 31 32  1  0  0  0  0
M  END
>  <MODEL>
4

>  <REMARK>
 VINA RESULT:      -5.9      4.727      7.968
  Name = 
  17 active torsions:
  status: ('A' for Active; 'I' for Inactive)
    1  A    between atoms: C_1  and  O_20
    2  A    between atoms: C_2  and  C_9
    3  A    between atoms: C_2  and  C_23
    4  A    between atoms: C_4  and  C_5
    5  A    between atoms: C_4  and  O_13
    6  A    between atoms: C_6  and  N_31
    7  A    between atoms: C_8  and  C_23
    8  A    between atoms: C_8  and  O_28
    9  A    between atoms: C_9  and  C_10
   10  A    between atoms: C_10  and  C_19
   11  A    between atoms: O_13  and  C_15
   12  A    between atoms: C_14  and  C_26
   13  A    between atoms: C_14  and  O_28
   14  A    between atoms: C_15  and  C_26
   15  A    between atoms: C_16  and  C_26
   16  A    between atoms: C_19  and  O_20
   17  A    between atoms: N_27  and  C_32
                            x       y       z     vdW  Elec       q    Type
                         _______ _______ _______ _____ _____    ______ ____

>  <TORSDO>
F 17

$$$$
=
 OpenBabel11052417033D

 32 33  0  0  1  0  0  0  0  0999 V2000
  184.8000  178.8660  139.9200 C   0  0  2  0  0  3  0  0  0  0  0  0
  185.1470  177.9250  142.3480 C   0  0  0  0  0  2  0  0  0  0  0  0
  185.6420  178.7900  141.2010 C   0  0  0  0  0  0  0  0  0  0  0  0
  184.9740  179.4330  142.4020 C   0  0  0  0  0  2  0  0  0  0  0  0
  187.0190  179.0870  141.1540 O   0  0  0  0  0  0  0  0  0  0  0  0
  187.6960  177.9090  141.4970 C   0  0  0  0  0  2  0  0  0  0  0  0
  188.8840  178.2320  142.3780 C   0  0  0  0  0  2  0  0  0  0  0  0
  188.9300  177.2280  143.5140 C   0  0  0  0  0  2  0  0  0  0  0  0
  189.3730  177.8950  144.8050 C   0  0  2  0  0  3  0  0  0  0  0  0
  190.8660  178.1770  144.7510 C   0  0  0  0  0  1  0  0  0  0  0  0
  189.0640  176.9630  145.9720 C   0  0  0  0  0  2  0  0  0  0  0  0
  188.0830  177.5680  146.9750 C   0  0  1  0  0  3  0  0  0  0  0  0
  188.8090  178.2340  148.1310 C   0  0  0  0  0  1  0  0  0  0  0  0
  187.2320  178.4820  146.3520 O   0  0  0  0  0  0  0  0  0  0  0  0
  186.1240  177.7320  145.9540 C   0  0  0  0  0  2  0  0  0  0  0  0
  184.8680  178.3680  146.5060 C   0  0  0  0  0  1  0  0  0  0  0  0
  183.3670  178.4810  140.1460 C   0  0  0  0  0  0  0  0  0  0  0  0
  182.5890  179.3520  140.7260 N   0  0  0  0  0  0  0  0  0  0  0  0
  182.9400  177.1500  139.7950 N   0  0  0  0  0  2  0  0  0  0  0  0
  180.3570  180.1710  140.2760 C   0  0  0  0  0  2  0  0  0  0  0  0
  180.9420  179.5720  142.4820 C   0  0  1  0  0  3  0  0  0  0  0  0
  179.9480  180.6370  142.4890 N   0  0  0  0  0  2  0  0  0  0  0  0
  179.3720  180.6960  141.2050 N   0  0  0  0  0  2  0  0  0  0  0  0
  180.4170  178.3800  143.2530 C   0  0  0  0  0  1  0  0  0  0  0  0
  181.1820  179.1830  141.0500 C   0  0  2  0  0  3  0  0  0  0  0  0
  181.6570  176.5360  140.0940 C   0  0  0  0  0  2  0  0  0  0  0  0
  181.3560  175.4680  139.0660 C   0  0  0  0  0  1  0  0  0  0  0  0
  185.4410  178.1440  138.7310 C   0  0  0  0  0  2  0  0  0  0  0  0
  186.2270  179.0180  137.9740 O   0  0  0  0  0  0  0  0  0  0  0  0
  187.1870  178.2000  137.3770 C   0  0  0  0  0  2  0  0  0  0  0  0
  188.4870  178.9580  137.2260 C   0  0  0  0  0  2  0  0  0  0  0  0
  189.0390  179.2120  138.4830 O   0  0  0  0  0  1  0  0  0  0  0  0
  1 28  1  6  0  0  0
  1 17  1  0  0  0  0
  1  3  1  0  0  0  0
  2  4  1  0  0  0  0
  3  2  1  0  0  0  0
  3  4  1  0  0  0  0
  5  3  1  0  0  0  0
  5  6  1  0  0  0  0
  6  7  1  0  0  0  0
  7  8  1  0  0  0  0
  8  9  1  0  0  0  0
  9 10  1  6  0  0  0
  9 11  1  0  0  0  0
 11 12  1  0  0  0  0
 12 13  1  1  0  0  0
 14 12  1  0  0  0  0
 15 14  1  0  0  0  0
 15 16  1  0  0  0  0
 17 18  2  0  0  0  0
 19 26  1  0  0  0  0
 19 17  1  0  0  0  0
 20 25  1  0  0  0  0
 20 23  1  0  0  0  0
 21 22  1  0  0  0  0
 21 24  1  1  0  0  0
 23 22  1  0  0  0  0
 25 18  1  6  0  0  0
 25 21  1  0  0  0  0
 27 26  1  0  0  0  0
 29 28  1  0  0  0  0
 30 29  1  0  0  0  0
 31 30  1  0  0  0  0
 31 32  1  0  0  0  0
M  END
>  <MODEL>
5

>  <REMARK>
 VINA RESULT:      -5.8      1.989      3.701
  Name = 
  17 active torsions:
  status: ('A' for Active; 'I' for Inactive)
    1  A    between atoms: C_1  and  O_20
    2  A    between atoms: C_2  and  C_9
    3  A    between atoms: C_2  and  C_23
    4  A    between atoms: C_4  and  C_5
    5  A    between atoms: C_4  and  O_13
    6  A    between atoms: C_6  and  N_31
    7  A    between atoms: C_8  and  C_23
    8  A    between atoms: C_8  and  O_28
    9  A    between atoms: C_9  and  C_10
   10  A    between atoms: C_10  and  C_19
   11  A    between atoms: O_13  and  C_15
   12  A    between atoms: C_14  and  C_26
   13  A    between atoms: C_14  and  O_28
   14  A    between atoms: C_15  and  C_26
   15  A    between atoms: C_16  and  C_26
   16  A    between atoms: C_19  and  O_20
   17  A    between atoms: N_27  and  C_32
                            x       y       z     vdW  Elec       q    Type
                         _______ _______ _______ _____ _____    ______ ____

>  <TORSDO>
F 17

$$$$
=
 OpenBabel11052417033D

 32 33  0  0  1  0  0  0  0  0999 V2000
  183.1230  178.5050  138.9640 C   0  0  2  0  0  3  0  0  0  0  0  0
  181.3600  177.5410  140.6560 C   0  0  0  0  0  2  0  0  0  0  0  0
  182.7680  178.0430  140.3850 C   0  0  0  0  0  0  0  0  0  0  0  0
  181.7640  178.9440  141.0790 C   0  0  0  0  0  2  0  0  0  0  0  0
  183.7900  177.6310  141.2630 O   0  0  0  0  0  0  0  0  0  0  0  0
  184.0130  178.6940  142.1480 C   0  0  0  0  0  2  0  0  0  0  0  0
  185.0130  178.2860  143.2080 C   0  0  0  0  0  2  0  0  0  0  0  0
  186.3820  178.1750  142.5650 C   0  0  0  0  0  2  0  0  0  0  0  0
  187.4170  177.7190  143.5790 C   0  0  2  0  0  3  0  0  0  0  0  0
  187.9770  176.3670  143.1700 C   0  0  0  0  0  1  0  0  0  0  0  0
  186.7510  177.6110  144.9470 C   0  0  0  0  0  2  0  0  0  0  0  0
  187.7000  177.9350  146.1000 C   0  0  1  0  0  3  0  0  0  0  0  0
  186.9420  178.1750  147.3940 C   0  0  0  0  0  1  0  0  0  0  0  0
  188.6380  176.9160  146.2760 O   0  0  0  0  0  0  0  0  0  0  0  0
  189.8420  177.5730  146.5350 C   0  0  0  0  0  2  0  0  0  0  0  0
  190.8060  177.3130  145.3990 C   0  0  0  0  0  1  0  0  0  0  0  0
  184.3470  177.8260  138.4230 C   0  0  0  0  0  0  0  0  0  0  0  0
  185.4750  178.4790  138.4730 N   0  0  0  0  0  0  0  0  0  0  0  0
  184.2100  176.5330  137.8010 N   0  0  0  0  0  2  0  0  0  0  0  0
  187.7960  178.1680  139.0840 C   0  0  0  0  0  2  0  0  0  0  0  0
  187.2680  178.9350  136.9160 C   0  0  1  0  0  3  0  0  0  0  0  0
  188.5560  179.4630  137.3440 N   0  0  0  0  0  2  0  0  0  0  0  0
  188.9870  178.7020  138.4480 N   0  0  0  0  0  2  0  0  0  0  0  0
  187.4370  178.1600  135.6280 C   0  0  0  0  0  1  0  0  0  0  0  0
  186.7700  178.0180  137.9980 C   0  0  2  0  0  3  0  0  0  0  0  0
  185.2310  175.8000  137.0710 C   0  0  0  0  0  2  0  0  0  0  0  0
  184.5730  174.7670  136.1830 C   0  0  0  0  0  1  0  0  0  0  0  0
  183.1580  180.0280  138.8140 C   0  0  0  0  0  2  0  0  0  0  0  0
  182.1600  180.4730  137.9420 O   0  0  0  0  0  0  0  0  0  0  0  0
  181.7490  181.6950  138.4750 C   0  0  0  0  0  2  0  0  0  0  0  0
  181.0000  182.4880  137.4250 C   0  0  0  0  0  2  0  0  0  0  0  0
  180.6740  181.6620  136.3480 O   0  0  0  0  0  1  0  0  0  0  0  0
  1 28  1  1  0  0  0
  1  3  1  0  0  0  0
  2  4  1  0  0  0  0
  3  2  1  0  0  0  0
  3  4  1  0  0  0  0
  3  5  1  0  0  0  0
  5  6  1  0  0  0  0
  6  7  1  0  0  0  0
  8  7  1  0  0  0  0
  8  9  1  0  0  0  0
  9 10  1  6  0  0  0
  9 11  1  0  0  0  0
 11 12  1  0  0  0  0
 12 14  1  0  0  0  0
 12 13  1  1  0  0  0
 14 15  1  0  0  0  0
 16 15  1  0  0  0  0
 17 18  2  0  0  0  0
 17  1  1  0  0  0  0
 19 17  1  0  0  0  0
 21 24  1  6  0  0  0
 21 22  1  0  0  0  0
 21 25  1  0  0  0  0
 22 23  1  0  0  0  0
 23 20  1  0  0  0  0
 25 18  1  1  0  0  0
 25 20  1  0  0  0  0
 26 19  1  0  0  0  0
 27 26  1  0  0  0  0
 29 30  1  0  0  0  0
 29 28  1  0  0  0  0
 31 30  1  0  0  0  0
 32 31  1  0  0  0  0
M  END
>  <MODEL>
6

>  <REMARK>
 VINA RESULT:      -5.7      2.808      5.261
  Name = 
  17 active torsions:
  status: ('A' for Active; 'I' for Inactive)
    1  A    between atoms: C_1  and  O_20
    2  A    between atoms: C_2  and  C_9
    3  A    between atoms: C_2  and  C_23
    4  A    between atoms: C_4  and  C_5
    5  A    between atoms: C_4  and  O_13
    6  A    between atoms: C_6  and  N_31
    7  A    between atoms: C_8  and  C_23
    8  A    between atoms: C_8  and  O_28
    9  A    between atoms: C_9  and  C_10
   10  A    between atoms: C_10  and  C_19
   11  A    between atoms: O_13  and  C_15
   12  A    between atoms: C_14  and  C_26
   13  A    between atoms: C_14  and  O_28
   14  A    between atoms: C_15  and  C_26
   15  A    between atoms: C_16  and  C_26
   16  A    between atoms: C_19  and  O_20
   17  A    between atoms: N_27  and  C_32
                            x       y       z     vdW  Elec       q    Type
                         _______ _______ _______ _____ _____    ______ ____

>  <TORSDO>
F 17

$$$$
=
 OpenBabel11052417033D

 32 33  0  0  1  0  0  0  0  0999 V2000
  189.0710  177.1190  141.0260 C   0  0  2  0  0  3  0  0  0  0  0  0
  190.9370  178.3410  142.4130 C   0  0  0  0  0  2  0  0  0  0  0  0
  190.2930  177.0440  141.9520 C   0  0  0  0  0  0  0  0  0  0  0  0
  191.5750  177.5260  141.3000 C   0  0  0  0  0  2  0  0  0  0  0  0
  190.5110  175.8930  142.7350 O   0  0  0  0  0  0  0  0  0  0  0  0
  191.6890  176.1150  143.4590 C   0  0  0  0  0  2  0  0  0  0  0  0
  191.4600  175.8240  144.9260 C   0  0  0  0  0  2  0  0  0  0  0  0
  191.3070  177.1410  145.6620 C   0  0  0  0  0  2  0  0  0  0  0  0
  190.9290  176.9050  147.1150 C   0  0  2  0  0  3  0  0  0  0  0  0
  191.9080  175.9290  147.7480 C   0  0  0  0  0  1  0  0  0  0  0  0
  189.5170  176.3290  147.1680 C   0  0  0  0  0  2  0  0  0  0  0  0
  188.5950  177.0980  148.1140 C   0  0  1  0  0  3  0  0  0  0  0  0
  189.0900  178.5150  148.3430 C   0  0  0  0  0  1  0  0  0  0  0  0
  187.2870  177.1190  147.6260 O   0  0  0  0  0  0  0  0  0  0  0  0
  187.1990  178.2930  146.8750 C   0  0  0  0  0  2  0  0  0  0  0  0
  186.0160  178.1980  145.9380 C   0  0  0  0  0  1  0  0  0  0  0  0
  189.4380  177.0270  139.5740 C   0  0  0  0  0  0  0  0  0  0  0  0
  190.2520  176.0740  139.2130 N   0  0  0  0  0  0  0  0  0  0  0  0
  188.9510  178.0360  138.6670 N   0  0  0  0  0  2  0  0  0  0  0  0
  190.0460  174.6140  137.2950 C   0  0  0  0  0  2  0  0  0  0  0  0
  192.1830  175.3800  137.9350 C   0  0  1  0  0  3  0  0  0  0  0  0
  192.2770  174.0650  137.3170 N   0  0  0  0  0  2  0  0  0  0  0  0
  191.0690  173.8230  136.6340 N   0  0  0  0  0  2  0  0  0  0  0  0
  193.0460  176.3640  137.1740 C   0  0  0  0  0  1  0  0  0  0  0  0
  190.7450  175.8120  137.8710 C   0  0  2  0  0  3  0  0  0  0  0  0
  189.3330  178.2200  137.2770 C   0  0  0  0  0  2  0  0  0  0  0  0
  188.1940  178.8710  136.5220 C   0  0  0  0  0  1  0  0  0  0  0  0
  188.1430  178.2950  141.3430 C   0  0  0  0  0  2  0  0  0  0  0  0
  187.4240  178.0690  142.5220 O   0  0  0  0  0  0  0  0  0  0  0  0
  186.0910  178.2750  142.1650 C   0  0  0  0  0  2  0  0  0  0  0  0
  186.0110  178.7520  140.7310 C   0  0  0  0  0  2  0  0  0  0  0  0
  184.9920  179.6970  140.6000 O   0  0  0  0  0  1  0  0  0  0  0  0
  1 28  1  6  0  0  0
  1  3  1  0  0  0  0
  3  2  1  0  0  0  0
  3  5  1  0  0  0  0
  4  3  1  0  0  0  0
  4  2  1  0  0  0  0
  5  6  1  0  0  0  0
  6  7  1  0  0  0  0
  7  8  1  0  0  0  0
  8  9  1  0  0  0  0
  9 11  1  0  0  0  0
  9 10  1  6  0  0  0
 11 12  1  0  0  0  0
 12 13  1  6  0  0  0
 14 12  1  0  0  0  0
 15 14  1  0  0  0  0
 16 15  1  0  0  0  0
 17  1  1  0  0  0  0
 18 17  2  0  0  0  0
 19 17  1  0  0  0  0
 20 25  1  0  0  0  0
 21 24  1  6  0  0  0
 22 21  1  0  0  0  0
 23 20  1  0  0  0  0
 23 22  1  0  0  0  0
 25 21  1  0  0  0  0
 25 18  1  1  0  0  0
 26 19  1  0  0  0  0
 27 26  1  0  0  0  0
 28 29  1  0  0  0  0
 30 29  1  0  0  0  0
 31 30  1  0  0  0  0
 32 31  1  0  0  0  0
M  END
>  <MODEL>
7

>  <REMARK>
 VINA RESULT:      -5.7      3.569      6.318
  Name = 
  17 active torsions:
  status: ('A' for Active; 'I' for Inactive)
    1  A    between atoms: C_1  and  O_20
    2  A    between atoms: C_2  and  C_9
    3  A    between atoms: C_2  and  C_23
    4  A    between atoms: C_4  and  C_5
    5  A    between atoms: C_4  and  O_13
    6  A    between atoms: C_6  and  N_31
    7  A    between atoms: C_8  and  C_23
    8  A    between atoms: C_8  and  O_28
    9  A    between atoms: C_9  and  C_10
   10  A    between atoms: C_10  and  C_19
   11  A    between atoms: O_13  and  C_15
   12  A    between atoms: C_14  and  C_26
   13  A    between atoms: C_14  and  O_28
   14  A    between atoms: C_15  and  C_26
   15  A    between atoms: C_16  and  C_26
   16  A    between atoms: C_19  and  O_20
   17  A    between atoms: N_27  and  C_32
                            x       y       z     vdW  Elec       q    Type
                         _______ _______ _______ _____ _____    ______ ____

>  <TORSDO>
F 17

$$$$
=
 OpenBabel11052417033D

 32 33  0  0  1  0  0  0  0  0999 V2000
  186.9080  177.7400  137.2110 C   0  0  2  0  0  3  0  0  0  0  0  0
  189.0840  179.1810  137.5100 C   0  0  0  0  0  2  0  0  0  0  0  0
  188.2730  177.9510  137.8810 C   0  0  0  0  0  0  0  0  0  0  0  0
  189.4420  177.8270  136.9220 C   0  0  0  0  0  2  0  0  0  0  0  0
  188.5500  177.3360  139.1180 O   0  0  0  0  0  0  0  0  0  0  0  0
  189.9440  177.2490  139.2220 C   0  0  0  0  0  2  0  0  0  0  0  0
  190.3490  177.1220  140.6750 C   0  0  0  0  0  2  0  0  0  0  0  0
  189.1060  177.2400  141.5360 C   0  0  0  0  0  2  0  0  0  0  0  0
  189.4410  177.8570  142.8820 C   0  0  2  0  0  3  0  0  0  0  0  0
  190.9480  178.0020  143.0210 C   0  0  0  0  0  1  0  0  0  0  0  0
  188.9040  176.9510  143.9860 C   0  0  0  0  0  2  0  0  0  0  0  0
  188.2460  177.7260  145.1270 C   0  0  1  0  0  3  0  0  0  0  0  0
  186.7400  177.5330  145.1340 C   0  0  0  0  0  1  0  0  0  0  0  0
  188.7840  177.3520  146.3600 O   0  0  0  0  0  0  0  0  0  0  0  0
  187.7740  177.6100  147.2890 C   0  0  0  0  0  2  0  0  0  0  0  0
  188.3980  178.0770  148.5850 C   0  0  0  0  0  1  0  0  0  0  0  0
  185.7640  177.8730  138.1730 C   0  0  0  0  0  0  0  0  0  0  0  0
  184.6160  177.3620  137.8250 N   0  0  0  0  0  0  0  0  0  0  0  0
  185.9580  178.6270  139.3860 N   0  0  0  0  0  2  0  0  0  0  0  0
  182.9340  175.9850  138.8880 C   0  0  0  0  0  2  0  0  0  0  0  0
  182.2700  177.9410  137.7480 C   0  0  1  0  0  3  0  0  0  0  0  0
  181.2200  176.9330  137.6860 N   0  0  0  0  0  2  0  0  0  0  0  0
  181.4990  175.9610  138.6660 N   0  0  0  0  0  2  0  0  0  0  0  0
  181.7270  179.2040  138.3810 C   0  0  0  0  0  1  0  0  0  0  0  0
  183.3830  177.3880  138.5940 C   0  0  2  0  0  3  0  0  0  0  0  0
  184.9400  179.0150  140.3480 C   0  0  0  0  0  2  0  0  0  0  0  0
  185.5590  179.1240  141.7230 C   0  0  0  0  0  1  0  0  0  0  0  0
  186.8410  176.4680  136.3620 C   0  0  0  0  0  2  0  0  0  0  0  0
  187.1980  175.3420  137.1100 O   0  0  0  0  0  0  0  0  0  0  0  0
  187.9540  174.5630  136.2340 C   0  0  0  0  0  2  0  0  0  0  0  0
  188.6430  173.4520  136.9960 C   0  0  0  0  0  2  0  0  0  0  0  0
  189.8960  173.8830  137.4370 O   0  0  0  0  0  1  0  0  0  0  0  0
  1 28  1  1  0  0  0
  1  3  1  0  0  0  0
  1 17  1  0  0  0  0
  2  3  1  0  0  0  0
  3  5  1  0  0  0  0
  4  2  1  0  0  0  0
  4  3  1  0  0  0  0
  5  6  1  0  0  0  0
  6  7  1  0  0  0  0
  7  8  1  0  0  0  0
  8  9  1  0  0  0  0
  9 10  1  1  0  0  0
  9 11  1  0  0  0  0
 11 12  1  0  0  0  0
 12 13  1  1  0  0  0
 12 14  1  0  0  0  0
 14 15  1  0  0  0  0
 15 16  1  0  0  0  0
 17 19  1  0  0  0  0
 18 17  2  0  0  0  0
 19 26  1  0  0  0  0
 21 24  1  1  0  0  0
 21 25  1  0  0  0  0
 22 21  1  0  0  0  0
 22 23  1  0  0  0  0
 23 20  1  0  0  0  0
 25 18  1  6  0  0  0
 25 20  1  0  0  0  0
 26 27  1  0  0  0  0
 28 29  1  0  0  0  0
 30 31  1  0  0  0  0
 30 29  1  0  0  0  0
 31 32  1  0  0  0  0
M  END
>  <MODEL>
8

>  <REMARK>
 VINA RESULT:      -5.7      2.538      4.804
  Name = 
  17 active torsions:
  status: ('A' for Active; 'I' for Inactive)
    1  A    between atoms: C_1  and  O_20
    2  A    between atoms: C_2  and  C_9
    3  A    between atoms: C_2  and  C_23
    4  A    between atoms: C_4  and  C_5
    5  A    between atoms: C_4  and  O_13
    6  A    between atoms: C_6  and  N_31
    7  A    between atoms: C_8  and  C_23
    8  A    between atoms: C_8  and  O_28
    9  A    between atoms: C_9  and  C_10
   10  A    between atoms: C_10  and  C_19
   11  A    between atoms: O_13  and  C_15
   12  A    between atoms: C_14  and  C_26
   13  A    between atoms: C_14  and  O_28
   14  A    between atoms: C_15  and  C_26
   15  A    between atoms: C_16  and  C_26
   16  A    between atoms: C_19  and  O_20
   17  A    between atoms: N_27  and  C_32
                            x       y       z     vdW  Elec       q    Type
                         _______ _______ _______ _____ _____    ______ ____

>  <TORSDO>
F 17

$$$$
=
 OpenBabel11052417033D

 32 33  0  0  1  0  0  0  0  0999 V2000
  189.0820  177.2930  141.2190 C   0  0  2  0  0  3  0  0  0  0  0  0
  191.1330  178.3330  142.4880 C   0  0  0  0  0  2  0  0  0  0  0  0
  190.3680  177.1010  142.0360 C   0  0  0  0  0  0  0  0  0  0  0  0
  191.6220  177.5270  141.2970 C   0  0  0  0  0  2  0  0  0  0  0  0
  190.5710  175.9060  142.7550 O   0  0  0  0  0  0  0  0  0  0  0  0
  191.7190  176.0950  143.5340 C   0  0  0  0  0  2  0  0  0  0  0  0
  191.4140  175.8040  144.9880 C   0  0  0  0  0  2  0  0  0  0  0  0
  191.3090  177.1210  145.7330 C   0  0  0  0  0  2  0  0  0  0  0  0
  191.0100  176.8850  147.2030 C   0  0  2  0  0  3  0  0  0  0  0  0
  192.0980  176.0180  147.8160 C   0  0  0  0  0  1  0  0  0  0  0  0
  189.6610  176.1830  147.3240 C   0  0  0  0  0  2  0  0  0  0  0  0
  188.5380  177.1210  147.7640 C   0  0  1  0  0  3  0  0  0  0  0  0
  189.0830  178.3440  148.4800 C   0  0  0  0  0  1  0  0  0  0  0  0
  187.7580  177.5110  146.6740 O   0  0  0  0  0  0  0  0  0  0  0  0
  186.7280  178.2800  147.2210 C   0  0  0  0  0  2  0  0  0  0  0  0
  185.7340  178.6260  146.1360 C   0  0  0  0  0  1  0  0  0  0  0  0
  189.2900  177.0640  139.7510 C   0  0  0  0  0  0  0  0  0  0  0  0
  188.3490  177.4550  138.9370 N   0  0  0  0  0  0  0  0  0  0  0  0
  190.4660  176.3530  139.3160 N   0  0  0  0  0  2  0  0  0  0  0  0
  188.1560  178.6680  136.8520 C   0  0  0  0  0  2  0  0  0  0  0  0
  187.1150  176.5610  137.0600 C   0  0  1  0  0  3  0  0  0  0  0  0
  186.3670  177.4100  136.1430 N   0  0  0  0  0  2  0  0  0  0  0  0
  187.2030  178.4820  135.7720 N   0  0  0  0  0  2  0  0  0  0  0  0
  187.5270  175.2870  136.3530 C   0  0  0  0  0  1  0  0  0  0  0  0
  188.3390  177.3210  137.4890 C   0  0  2  0  0  3  0  0  0  0  0  0
  190.7570  175.8840  137.9720 C   0  0  0  0  0  2  0  0  0  0  0  0
  192.1540  175.3030  137.9310 C   0  0  0  0  0  1  0  0  0  0  0  0
  188.3570  178.6050  141.5320 C   0  0  0  0  0  2  0  0  0  0  0  0
  187.6330  178.5100  142.7240 O   0  0  0  0  0  0  0  0  0  0  0  0
  186.3470  178.1440  142.3260 C   0  0  0  0  0  2  0  0  0  0  0  0
  185.5190  179.3830  142.0620 C   0  0  0  0  0  2  0  0  0  0  0  0
  185.0790  179.3880  140.7370 O   0  0  0  0  0  1  0  0  0  0  0  0
  1 28  1  6  0  0  0
  1  3  1  0  0  0  0
  3  2  1  0  0  0  0
  3  5  1  0  0  0  0
  4  3  1  0  0  0  0
  4  2  1  0  0  0  0
  5  6  1  0  0  0  0
  6  7  1  0  0  0  0
  7  8  1  0  0  0  0
  8  9  1  0  0  0  0
  9 11  1  0  0  0  0
  9 10  1  6  0  0  0
 11 12  1  0  0  0  0
 12 13  1  6  0  0  0
 14 15  1  0  0  0  0
 14 12  1  0  0  0  0
 16 15  1  0  0  0  0
 17  1  1  0  0  0  0
 18 17  2  0  0  0  0
 19 17  1  0  0  0  0
 20 25  1  0  0  0  0
 21 24  1  6  0  0  0
 21 25  1  0  0  0  0
 22 21  1  0  0  0  0
 23 22  1  0  0  0  0
 23 20  1  0  0  0  0
 25 18  1  1  0  0  0
 26 19  1  0  0  0  0
 27 26  1  0  0  0  0
 28 29  1  0  0  0  0
 30 29  1  0  0  0  0
 31 30  1  0  0  0  0
 32 31  1  0  0  0  0
M  END
>  <MODEL>
9

>  <REMARK>
 VINA RESULT:      -5.6      3.272      5.728
  Name = 
  17 active torsions:
  status: ('A' for Active; 'I' for Inactive)
    1  A    between atoms: C_1  and  O_20
    2  A    between atoms: C_2  and  C_9
    3  A    between atoms: C_2  and  C_23
    4  A    between atoms: C_4  and  C_5
    5  A    between atoms: C_4  and  O_13
    6  A    between atoms: C_6  and  N_31
    7  A    between atoms: C_8  and  C_23
    8  A    between atoms: C_8  and  O_28
    9  A    between atoms: C_9  and  C_10
   10  A    between atoms: C_10  and  C_19
   11  A    between atoms: O_13  and  C_15
   12  A    between atoms: C_14  and  C_26
   13  A    between atoms: C_14  and  O_28
   14  A    between atoms: C_15  and  C_26
   15  A    between atoms: C_16  and  C_26
   16  A    between atoms: C_19  and  O_20
   17  A    between atoms: N_27  and  C_32
                            x       y       z     vdW  Elec       q    Type
                         _______ _______ _______ _____ _____    ______ ____

>  <TORSDO>
F 17

$$$$
