=
 OpenBabel11052416503D

 32 39  0  0  1  0  0  0  0  0999 V2000
  187.9740  177.6050  142.2870 C   0  0  1  0  0  3  0  0  0  0  0  0
  183.5320  179.4400  143.7440 C   0  0  0  0  0  3  0  0  0  0  0  0
  183.6870  178.8660  145.0070 C   0  0  0  0  0  3  0  0  0  0  0  0
  189.2750  177.8230  144.3850 C   0  0  1  0  0  3  0  0  0  0  0  0
  190.5410  177.7470  143.6760 C   0  0  0  0  0  0  0  0  0  0  0  0
  190.2410  176.9810  146.4130 C   0  0  0  0  0  0  0  0  0  0  0  0
  184.5390  179.3070  142.7860 C   0  0  0  0  0  3  0  0  0  0  0  0
  186.7920  178.5530  142.0090 C   0  0  0  0  0  2  0  0  0  0  0  0
  185.7090  178.5980  143.0760 C   0  0  0  0  0  0  0  0  0  0  0  0
  187.0750  177.1790  144.6860 C   0  0  2  0  0  3  0  0  0  0  0  0
  191.6370  177.1350  145.8420 C   0  0  0  0  0  2  0  0  0  0  0  0
  191.6370  177.3620  144.3390 C   0  0  0  0  0  2  0  0  0  0  0  0
  184.8530  178.1620  145.3180 C   0  0  0  0  0  3  0  0  0  0  0  0
  185.8810  178.0400  144.3750 C   0  0  0  0  0  0  0  0  0  0  0  0
  187.6990  177.3620  146.0860 C   0  0  0  0  0  2  0  0  0  0  0  0
  189.2460  178.1240  141.5540 C   0  0  1  0  0  3  0  0  0  0  0  0
  190.4960  177.7720  142.2470 N   0  0  0  0  0  0  0  0  0  0  0  0
  190.0460  176.2560  147.3750 O   0  0  0  0  0  0  0  0  0  0  0  0
  188.1650  177.5320  143.7690 C   0  0  1  0  0  3  0  0  0  0  0  0
  189.1430  177.8420  145.8510 C   0  0  2  0  0  3  0  0  0  0  0  0
  190.0750  177.1960  137.3490 C   0  0  0  0  0  2  0  0  0  0  0  0
  189.3050  177.6400  140.1100 C   0  0  1  0  0  0  0  0  0  0  0  0
  187.9400  177.3740  139.5000 C   0  0  0  0  0  2  0  0  0  0  0  0
  189.2880  178.4700  137.6440 C   0  0  0  0  0  2  0  0  0  0  0  0
  188.7260  178.6060  139.0740 C   0  0  2  0  0  3  0  0  0  0  0  0
  190.3440  176.5820  139.7170 C   0  0  0  0  0  2  0  0  0  0  0  0
  191.0900  176.9570  138.4510 C   0  0  1  0  0  3  0  0  0  0  0  0
  192.0200  175.8200  138.0670 C   0  0  0  0  0  2  0  0  0  0  0  0
  194.1940  175.0540  138.0350 C   0  0  2  0  0  3  0  0  0  0  0  0
  193.3980  176.1940  138.3330 N   0  0  0  0  0  0  0  0  0  0  0  0
  195.4120  175.1510  138.7090 O   0  0  0  0  0  1  0  0  0  0  0  0
  194.0980  176.1010  137.0790 N   0  0  0  0  0  2  0  0  0  0  0  0
  1  8  1  1  0  0  0
  1 19  1  0  0  0  0
  2  3  1  0  0  0  0
  3 13  2  0  0  0  0
  4  5  1  1  0  0  0
  4 20  1  0  0  0  0
  5 12  1  0  0  0  0
  6 18  2  0  0  0  0
  7  9  1  0  0  0  0
  7  2  2  0  0  0  0
  8  9  1  0  0  0  0
  9 14  2  0  0  0  0
 10 15  1  1  0  0  0
 11  6  1  0  0  0  0
 12 11  1  0  0  0  0
 14 10  1  0  0  0  0
 14 13  1  0  0  0  0
 16 17  1  1  0  0  0
 16  1  1  0  0  0  0
 17  5  2  0  0  0  0
 19  4  1  0  0  0  0
 19 10  1  0  0  0  0
 20 15  1  0  0  0  0
 20  6  1  0  0  0  0
 21 24  1  0  0  0  0
 21 27  1  0  0  0  0
 22 16  1  0  0  0  0
 23 22  1  0  0  0  0
 24 25  1  0  0  0  0
 25 23  1  0  0  0  0
 25 22  1  0  0  0  0
 26 22  1  0  0  0  0
 27 26  1  0  0  0  0
 28 30  1  0  0  0  0
 28 27  1  0  0  0  0
 29 30  1  0  0  0  0
 29 31  1  0  0  0  0
 32 29  1  0  0  0  0
 32 30  1  0  0  0  0
M  END
>  <MODEL>
1

>  <REMARK>
 VINA RESULT:     -11.8      0.000      0.000
  Name = 
  3 active torsions:
  status: ('A' for Active; 'I' for Inactive)
    1  A    between atoms: C_8  and  C_28
    2  A    between atoms: N_10  and  C_19
    3  A    between atoms: C_19  and  C_24
                            x       y       z     vdW  Elec       q    Type
                         _______ _______ _______ _____ _____    ______ ____

>  <TORSDO>
F 3

$$$$
=
 OpenBabel11052416503D

 32 39  0  0  1  0  0  0  0  0999 V2000
  187.8640  177.6600  142.2640 C   0  0  1  0  0  3  0  0  0  0  0  0
  183.4640  179.4550  143.8870 C   0  0  0  0  0  3  0  0  0  0  0  0
  183.6640  178.8690  145.1380 C   0  0  0  0  0  3  0  0  0  0  0  0
  189.2330  177.8630  144.3200 C   0  0  1  0  0  3  0  0  0  0  0  0
  190.4750  177.8010  143.5690 C   0  0  0  0  0  0  0  0  0  0  0  0
  190.2700  177.0050  146.3060 C   0  0  0  0  0  0  0  0  0  0  0  0
  184.4390  179.3370  142.8940 C   0  0  0  0  0  3  0  0  0  0  0  0
  186.6690  178.6040  142.0350 C   0  0  0  0  0  2  0  0  0  0  0  0
  185.6220  178.6320  143.1380 C   0  0  0  0  0  0  0  0  0  0  0  0
  187.0480  177.2040  144.6870 C   0  0  2  0  0  3  0  0  0  0  0  0
  191.6460  177.1740  145.6910 C   0  0  0  0  0  2  0  0  0  0  0  0
  191.5940  177.4160  144.1910 C   0  0  0  0  0  2  0  0  0  0  0  0
  184.8420  178.1680  145.4020 C   0  0  0  0  0  3  0  0  0  0  0  0
  185.8400  178.0620  144.4250 C   0  0  0  0  0  0  0  0  0  0  0  0
  187.7160  177.3760  146.0670 C   0  0  0  0  0  2  0  0  0  0  0  0
  189.1090  178.1930  141.4940 C   0  0  1  0  0  3  0  0  0  0  0  0
  190.3830  177.8410  142.1430 N   0  0  0  0  0  0  0  0  0  0  0  0
  190.1110  176.2690  147.2660 O   0  0  0  0  0  0  0  0  0  0  0  0
  188.1050  177.5720  143.7380 C   0  0  1  0  0  3  0  0  0  0  0  0
  189.1500  177.8660  145.7900 C   0  0  2  0  0  3  0  0  0  0  0  0
  189.8850  177.1750  137.3010 C   0  0  0  0  0  2  0  0  0  0  0  0
  189.1230  177.7250  140.0440 C   0  0  1  0  0  0  0  0  0  0  0  0
  187.7530  177.7330  139.3890 C   0  0  0  0  0  2  0  0  0  0  0  0
  189.3470  178.5730  137.5950 C   0  0  0  0  0  2  0  0  0  0  0  0
  188.7740  178.7960  139.0090 C   0  0  2  0  0  3  0  0  0  0  0  0
  189.9510  176.4920  139.6640 C   0  0  0  0  0  2  0  0  0  0  0  0
  190.7980  176.7320  138.4280 C   0  0  1  0  0  3  0  0  0  0  0  0
  191.5050  175.4430  138.0530 C   0  0  0  0  0  2  0  0  0  0  0  0
  191.5260  173.6080  136.6560 C   0  0  2  0  0  3  0  0  0  0  0  0
  190.8720  174.8490  136.8880 N   0  0  0  0  0  0  0  0  0  0  0  0
  191.3360  173.2260  135.3280 O   0  0  0  0  0  1  0  0  0  0  0  0
  190.2740  173.6160  137.3290 N   0  0  0  0  0  2  0  0  0  0  0  0
  1  8  1  1  0  0  0
  1 19  1  0  0  0  0
  2  3  1  0  0  0  0
  3 13  2  0  0  0  0
  4  5  1  1  0  0  0
  4 20  1  0  0  0  0
  5 12  1  0  0  0  0
  6 18  2  0  0  0  0
  7  9  1  0  0  0  0
  7  2  2  0  0  0  0
  8  9  1  0  0  0  0
  9 14  2  0  0  0  0
 10 15  1  1  0  0  0
 11  6  1  0  0  0  0
 12 11  1  0  0  0  0
 14 10  1  0  0  0  0
 14 13  1  0  0  0  0
 16 17  1  1  0  0  0
 16  1  1  0  0  0  0
 17  5  2  0  0  0  0
 19  4  1  0  0  0  0
 19 10  1  0  0  0  0
 20 15  1  0  0  0  0
 20  6  1  0  0  0  0
 21 24  1  0  0  0  0
 21 27  1  0  0  0  0
 22 16  1  0  0  0  0
 23 22  1  0  0  0  0
 24 25  1  0  0  0  0
 25 23  1  0  0  0  0
 25 22  1  0  0  0  0
 26 22  1  0  0  0  0
 27 26  1  0  0  0  0
 28 27  1  0  0  0  0
 29 30  1  0  0  0  0
 29 32  1  0  0  0  0
 30 32  1  0  0  0  0
 30 28  1  0  0  0  0
 31 29  1  0  0  0  0
M  END
>  <MODEL>
2

>  <REMARK>
 VINA RESULT:     -11.3      1.457      1.534
  Name = 
  3 active torsions:
  status: ('A' for Active; 'I' for Inactive)
    1  A    between atoms: C_8  and  C_28
    2  A    between atoms: N_10  and  C_19
    3  A    between atoms: C_19  and  C_24
                            x       y       z     vdW  Elec       q    Type
                         _______ _______ _______ _____ _____    ______ ____

>  <TORSDO>
F 3

$$$$
=
 OpenBabel11052416503D

 32 39  0  0  1  0  0  0  0  0999 V2000
  189.3500  177.5200  143.4990 C   0  0  1  0  0  3  0  0  0  0  0  0
  192.5130  175.3720  146.7540 C   0  0  0  0  0  3  0  0  0  0  0  0
  191.9260  176.0650  147.8130 C   0  0  0  0  0  3  0  0  0  0  0  0
  187.2810  177.6190  144.8610 C   0  0  1  0  0  3  0  0  0  0  0  0
  186.4440  177.7630  143.6830 C   0  0  0  0  0  0  0  0  0  0  0  0
  185.6810  178.7270  146.2630 C   0  0  0  0  0  0  0  0  0  0  0  0
  192.0200  175.5240  145.4570 C   0  0  0  0  0  3  0  0  0  0  0  0
  190.4080  176.4350  143.7770 C   0  0  0  0  0  2  0  0  0  0  0  0
  190.9360  176.3720  145.2020 C   0  0  0  0  0  0  0  0  0  0  0  0
  189.2230  178.0570  146.0370 C   0  0  2  0  0  3  0  0  0  0  0  0
  184.6390  178.6680  145.1630 C   0  0  0  0  0  2  0  0  0  0  0  0
  185.2320  178.3140  143.8090 C   0  0  0  0  0  2  0  0  0  0  0  0
  190.8380  176.9100  147.5800 C   0  0  0  0  0  3  0  0  0  0  0  0
  190.3160  177.0540  146.2880 C   0  0  0  0  0  0  0  0  0  0  0  0
  188.0580  178.0600  147.0500 C   0  0  0  0  0  2  0  0  0  0  0  0
  188.4390  177.0740  142.3170 C   0  0  1  0  0  3  0  0  0  0  0  0
  187.0720  177.6100  142.4070 N   0  0  0  0  0  0  0  0  0  0  0  0
  185.5530  179.5090  147.1910 O   0  0  0  0  0  0  0  0  0  0  0  0
  188.5750  177.7400  144.7590 C   0  0  1  0  0  3  0  0  0  0  0  0
  186.7920  177.7130  146.2460 C   0  0  2  0  0  3  0  0  0  0  0  0
  189.7630  177.4800  138.1570 C   0  0  0  0  0  2  0  0  0  0  0  0
  189.0460  177.4350  140.9660 C   0  0  1  0  0  0  0  0  0  0  0  0
  190.4370  178.0360  141.0650 C   0  0  0  0  0  2  0  0  0  0  0  0
  190.5250  176.4970  139.0420 C   0  0  0  0  0  2  0  0  0  0  0  0
  190.2690  176.6100  140.5580 C   0  0  2  0  0  3  0  0  0  0  0  0
  188.1730  178.1340  139.9170 C   0  0  0  0  0  2  0  0  0  0  0  0
  188.2980  177.4900  138.5490 C   0  0  1  0  0  3  0  0  0  0  0  0
  187.4940  178.2960  137.5460 C   0  0  0  0  0  2  0  0  0  0  0  0
  186.4220  176.3840  136.8290 C   0  0  2  0  0  3  0  0  0  0  0  0
  187.2000  177.4860  136.3770 N   0  0  0  0  0  0  0  0  0  0  0  0
  186.5190  175.3410  135.9090 O   0  0  0  0  0  1  0  0  0  0  0  0
  185.7690  177.4910  136.2230 N   0  0  0  0  0  2  0  0  0  0  0  0
  1  8  1  1  0  0  0
  1 19  1  0  0  0  0
  2  3  1  0  0  0  0
  4  5  1  6  0  0  0
  4 20  1  0  0  0  0
  5 12  1  0  0  0  0
  6 18  2  0  0  0  0
  7  2  2  0  0  0  0
  8  9  1  0  0  0  0
  9  7  1  0  0  0  0
  9 14  2  0  0  0  0
 10 14  1  0  0  0  0
 10 15  1  1  0  0  0
 11  6  1  0  0  0  0
 12 11  1  0  0  0  0
 13  3  2  0  0  0  0
 14 13  1  0  0  0  0
 16 17  1  1  0  0  0
 16  1  1  0  0  0  0
 17  5  2  0  0  0  0
 19  4  1  0  0  0  0
 19 10  1  0  0  0  0
 20  6  1  0  0  0  0
 20 15  1  0  0  0  0
 21 27  1  0  0  0  0
 21 24  1  0  0  0  0
 22 23  1  0  0  0  0
 22 16  1  0  0  0  0
 24 25  1  0  0  0  0
 25 22  1  0  0  0  0
 25 23  1  0  0  0  0
 26 22  1  0  0  0  0
 27 26  1  0  0  0  0
 28 27  1  0  0  0  0
 30 29  1  0  0  0  0
 30 28  1  0  0  0  0
 31 29  1  0  0  0  0
 32 30  1  0  0  0  0
 32 29  1  0  0  0  0
M  END
>  <MODEL>
3

>  <REMARK>
 VINA RESULT:     -11.2      2.951      5.390
  Name = 
  3 active torsions:
  status: ('A' for Active; 'I' for Inactive)
    1  A    between atoms: C_8  and  C_28
    2  A    between atoms: N_10  and  C_19
    3  A    between atoms: C_19  and  C_24
                            x       y       z     vdW  Elec       q    Type
                         _______ _______ _______ _____ _____    ______ ____

>  <TORSDO>
F 3

$$$$
=
 OpenBabel11052416503D

 32 39  0  0  1  0  0  0  0  0999 V2000
  185.3180  178.0320  142.1680 C   0  0  1  0  0  3  0  0  0  0  0  0
  185.5820  178.8420  147.1160 C   0  0  0  0  0  3  0  0  0  0  0  0
  186.8060  178.1750  147.1810 C   0  0  0  0  0  3  0  0  0  0  0  0
  187.7030  178.2600  141.5330 C   0  0  1  0  0  3  0  0  0  0  0  0
  187.3690  178.4960  140.1400 C   0  0  0  0  0  0  0  0  0  0  0  0
  189.8710  177.3980  140.9770 C   0  0  0  0  0  0  0  0  0  0  0  0
  184.9340  179.0030  145.8900 C   0  0  0  0  0  3  0  0  0  0  0  0
  184.7730  178.7690  143.4060 C   0  0  0  0  0  2  0  0  0  0  0  0
  185.5000  178.4970  144.7150 C   0  0  0  0  0  0  0  0  0  0  0  0
  187.3470  177.1900  143.5520 C   0  0  2  0  0  3  0  0  0  0  0  0
  189.7190  177.8690  139.5440 C   0  0  0  0  0  2  0  0  0  0  0  0
  188.2890  178.2530  139.1990 C   0  0  0  0  0  3  0  0  0  0  0  0
  187.3890  177.6690  146.0170 C   0  0  0  0  0  3  0  0  0  0  0  0
  186.7630  177.8430  144.7760 C   0  0  0  0  0  0  0  0  0  0  0  0
  188.8730  177.3340  143.3680 C   0  0  0  0  0  2  0  0  0  0  0  0
  184.9940  178.8540  140.8840 C   0  0  1  0  0  3  0  0  0  0  0  0
  185.9870  178.6670  139.8140 N   0  0  0  0  0  2  0  0  0  0  0  0
  190.7010  176.5490  141.2610 O   0  0  0  0  0  0  0  0  0  0  0  0
  186.7880  177.8360  142.3590 C   0  0  1  0  0  3  0  0  0  0  0  0
  189.0730  178.0960  142.0450 C   0  0  2  0  0  3  0  0  0  0  0  0
  180.9010  177.5390  140.0250 C   0  0  0  0  0  2  0  0  0  0  0  0
  183.6000  178.5480  140.3520 C   0  0  1  0  0  0  0  0  0  0  0  0
  183.5260  178.4910  138.8360 C   0  0  0  0  0  2  0  0  0  0  0  0
  182.0360  176.5940  139.6390 C   0  0  0  0  0  2  0  0  0  0  0  0
  183.4540  177.2010  139.6400 C   0  0  2  0  0  3  0  0  0  0  0  0
  182.3900  179.2530  140.9760 C   0  0  0  0  0  2  0  0  0  0  0  0
  181.2670  178.2840  141.2950 C   0  0  1  0  0  3  0  0  0  0  0  0
  180.0700  179.0630  141.8080 C   0  0  0  0  0  2  0  0  0  0  0  0
  180.0550  178.2380  143.9620 C   0  0  2  0  0  3  0  0  0  0  0  0
  179.3140  178.2530  142.7480 N   0  0  0  0  0  0  0  0  0  0  0  0
  179.6810  177.1280  144.7180 O   0  0  0  0  0  1  0  0  0  0  0  0
  178.9480  179.1210  143.8360 N   0  0  0  0  0  2  0  0  0  0  0  0
  1 19  1  0  0  0  0
  1  8  1  1  0  0  0
  2  3  1  0  0  0  0
  4  5  1  6  0  0  0
  4 20  1  0  0  0  0
  4 19  1  0  0  0  0
  6 18  2  0  0  0  0
  6 20  1  0  0  0  0
  7  2  2  0  0  0  0
  8  9  1  0  0  0  0
  9 14  2  0  0  0  0
  9  7  1  0  0  0  0
 10 15  1  1  0  0  0
 10 14  1  0  0  0  0
 11  6  1  0  0  0  0
 12 11  1  0  0  0  0
 12  5  2  0  0  0  0
 13  3  2  0  0  0  0
 14 13  1  0  0  0  0
 16 17  1  6  0  0  0
 16  1  1  0  0  0  0
 17  5  1  0  0  0  0
 19 10  1  0  0  0  0
 20 15  1  0  0  0  0
 21 27  1  0  0  0  0
 22 16  1  0  0  0  0
 22 26  1  0  0  0  0
 23 25  1  0  0  0  0
 23 22  1  0  0  0  0
 24 25  1  0  0  0  0
 24 21  1  0  0  0  0
 25 22  1  0  0  0  0
 26 27  1  0  0  0  0
 27 28  1  0  0  0  0
 28 30  1  0  0  0  0
 29 31  1  0  0  0  0
 30 32  1  0  0  0  0
 30 29  1  0  0  0  0
 32 29  1  0  0  0  0
M  END
>  <MODEL>
4

>  <REMARK>
 VINA RESULT:     -11.0      4.317      7.795
  Name = 
  3 active torsions:
  status: ('A' for Active; 'I' for Inactive)
    1  A    between atoms: C_8  and  C_28
    2  A    between atoms: N_10  and  C_19
    3  A    between atoms: C_19  and  C_24
                            x       y       z     vdW  Elec       q    Type
                         _______ _______ _______ _____ _____    ______ ____

>  <TORSDO>
F 3

$$$$
=
 OpenBabel11052416503D

 32 39  0  0  1  0  0  0  0  0999 V2000
  187.5960  177.4590  143.3340 C   0  0  1  0  0  3  0  0  0  0  0  0
  190.8490  177.0370  147.1360 C   0  0  0  0  0  3  0  0  0  0  0  0
  191.7290  176.3140  146.3290 C   0  0  0  0  0  3  0  0  0  0  0  0
  189.1510  177.7160  141.4210 C   0  0  1  0  0  3  0  0  0  0  0  0
  188.1160  178.2980  140.5840 C   0  0  0  0  0  0  0  0  0  0  0  0
  190.3770  176.9090  139.5240 C   0  0  0  0  0  0  0  0  0  0  0  0
  189.6500  177.5200  146.6080 C   0  0  0  0  0  3  0  0  0  0  0  0
  188.0270  177.9000  144.7450 C   0  0  0  0  0  2  0  0  0  0  0  0
  189.3160  177.2850  145.2700 C   0  0  0  0  0  0  0  0  0  0  0  0
  189.8520  176.2090  143.0280 C   0  0  2  0  0  3  0  0  0  0  0  0
  189.5060  177.7190  138.5840 C   0  0  0  0  0  2  0  0  0  0  0  0
  188.2470  178.2440  139.2540 C   0  0  0  0  0  3  0  0  0  0  0  0
  191.4160  176.0770  144.9880 C   0  0  0  0  0  3  0  0  0  0  0  0
  190.2280  176.5760  144.4380 C   0  0  0  0  0  0  0  0  0  0  0  0
  190.9750  176.3180  141.9750 C   0  0  0  0  0  2  0  0  0  0  0  0
  186.7420  178.5810  142.6710 C   0  0  1  0  0  3  0  0  0  0  0  0
  186.8660  178.6100  141.2040 N   0  0  0  0  0  2  0  0  0  0  0  0
  191.0410  175.9770  139.0990 O   0  0  0  0  0  0  0  0  0  0  0  0
  188.8320  177.1510  142.5510 C   0  0  1  0  0  3  0  0  0  0  0  0
  190.5010  177.3670  140.9510 C   0  0  2  0  0  3  0  0  0  0  0  0
  182.4230  178.9460  143.3280 C   0  0  0  0  0  2  0  0  0  0  0  0
  185.2730  178.4810  143.0610 C   0  0  1  0  0  0  0  0  0  0  0  0
  185.0510  177.9310  144.4590 C   0  0  0  0  0  2  0  0  0  0  0  0
  183.3400  179.7940  144.2050 C   0  0  0  0  0  2  0  0  0  0  0  0
  184.8340  179.4140  144.1930 C   0  0  2  0  0  3  0  0  0  0  0  0
  184.2640  177.9350  142.0440 C   0  0  0  0  0  2  0  0  0  0  0  0
  183.0270  178.8080  141.9430 C   0  0  1  0  0  3  0  0  0  0  0  0
  182.0330  178.1520  141.0020 C   0  0  0  0  0  2  0  0  0  0  0  0
  181.9730  176.3410  139.5760 C   0  0  2  0  0  3  0  0  0  0  0  0
  182.7370  177.4910  139.9170 N   0  0  0  0  0  0  0  0  0  0  0  0
  182.7900  175.4190  138.9240 O   0  0  0  0  0  1  0  0  0  0  0  0
  181.8530  177.5130  138.7800 N   0  0  0  0  0  2  0  0  0  0  0  0
  1  8  1  1  0  0  0
  3  2  2  0  0  0  0
  4  5  1  6  0  0  0
  4 19  1  0  0  0  0
  5 17  1  0  0  0  0
  6 20  1  0  0  0  0
  7  2  1  0  0  0  0
  8  9  1  0  0  0  0
  9  7  2  0  0  0  0
 10 15  1  6  0  0  0
 10 14  1  0  0  0  0
 11 12  1  0  0  0  0
 11  6  1  0  0  0  0
 12  5  2  0  0  0  0
 13  3  1  0  0  0  0
 14 13  2  0  0  0  0
 14  9  1  0  0  0  0
 16 17  1  6  0  0  0
 16 22  1  0  0  0  0
 16  1  1  0  0  0  0
 18  6  2  0  0  0  0
 19 10  1  0  0  0  0
 19  1  1  0  0  0  0
 20  4  1  0  0  0  0
 20 15  1  0  0  0  0
 21 24  1  0  0  0  0
 22 25  1  0  0  0  0
 22 23  1  0  0  0  0
 25 24  1  0  0  0  0
 25 23  1  0  0  0  0
 26 22  1  0  0  0  0
 27 26  1  0  0  0  0
 27 21  1  0  0  0  0
 28 27  1  0  0  0  0
 29 30  1  0  0  0  0
 30 28  1  0  0  0  0
 31 29  1  0  0  0  0
 32 29  1  0  0  0  0
 32 30  1  0  0  0  0
M  END
>  <MODEL>
5

>  <REMARK>
 VINA RESULT:     -10.8      3.465      7.326
  Name = 
  3 active torsions:
  status: ('A' for Active; 'I' for Inactive)
    1  A    between atoms: C_8  and  C_28
    2  A    between atoms: N_10  and  C_19
    3  A    between atoms: C_19  and  C_24
                            x       y       z     vdW  Elec       q    Type
                         _______ _______ _______ _____ _____    ______ ____

>  <TORSDO>
F 3

$$$$
=
 OpenBabel11052416503D

 32 39  0  0  1  0  0  0  0  0999 V2000
  186.0390  177.9070  143.9540 C   0  0  1  0  0  3  0  0  0  0  0  0
  188.2090  178.2070  148.4720 C   0  0  0  0  0  3  0  0  0  0  0  0
  189.3210  177.5030  148.0070 C   0  0  0  0  0  3  0  0  0  0  0  0
  188.0150  178.1330  142.4750 C   0  0  1  0  0  3  0  0  0  0  0  0
  187.1940  178.5180  141.3400 C   0  0  0  0  0  0  0  0  0  0  0  0
  189.7510  177.2730  141.0600 C   0  0  0  0  0  0  0  0  0  0  0  0
  187.1560  178.5080  147.6050 C   0  0  0  0  0  3  0  0  0  0  0  0
  186.0520  178.5300  145.3630 C   0  0  0  0  0  2  0  0  0  0  0  0
  187.2010  178.1080  146.2650 C   0  0  0  0  0  0  0  0  0  0  0  0
  188.3830  176.8750  144.3800 C   0  0  2  0  0  3  0  0  0  0  0  0
  189.0970  177.8910  139.8400 C   0  0  0  0  0  2  0  0  0  0  0  0
  187.6710  178.3460  140.1030 C   0  0  0  0  0  3  0  0  0  0  0  0
  189.3870  177.1020  146.6700 C   0  0  0  0  0  3  0  0  0  0  0  0
  188.3500  177.4170  145.7830 C   0  0  0  0  0  0  0  0  0  0  0  0
  189.7310  176.9950  143.6370 C   0  0  0  0  0  2  0  0  0  0  0  0
  185.3060  178.8630  142.9650 C   0  0  1  0  0  3  0  0  0  0  0  0
  185.8060  178.7590  141.5850 N   0  0  0  0  0  2  0  0  0  0  0  0
  190.5700  176.3780  140.9340 O   0  0  0  0  0  0  0  0  0  0  0  0
  187.4560  177.6530  143.5500 C   0  0  1  0  0  3  0  0  0  0  0  0
  189.4630  177.8810  142.4060 C   0  0  2  0  0  3  0  0  0  0  0  0
  180.9520  178.8280  142.4540 C   0  0  0  0  0  2  0  0  0  0  0  0
  183.7970  178.6510  142.9840 C   0  0  1  0  0  0  0  0  0  0  0  0
  183.2550  178.2530  144.3460 C   0  0  0  0  0  2  0  0  0  0  0  0
  181.5380  179.8720  143.4010 C   0  0  0  0  0  2  0  0  0  0  0  0
  183.0070  179.6600  143.8200 C   0  0  2  0  0  3  0  0  0  0  0  0
  183.1360  177.8780  141.8360 C   0  0  0  0  0  2  0  0  0  0  0  0
  181.9080  178.5900  141.3010 C   0  0  1  0  0  3  0  0  0  0  0  0
  181.2500  177.7200  140.2460 C   0  0  0  0  0  2  0  0  0  0  0  0
  181.9220  175.8900  139.0140 C   0  0  2  0  0  3  0  0  0  0  0  0
  182.2460  177.2440  139.3010 N   0  0  0  0  0  0  0  0  0  0  0  0
  183.0550  175.2350  138.5350 O   0  0  0  0  0  1  0  0  0  0  0  0
  181.5370  176.9040  138.0950 N   0  0  0  0  0  2  0  0  0  0  0  0
  1  8  1  1  0  0  0
  3  2  1  0  0  0  0
  4  5  1  6  0  0  0
  4 19  1  0  0  0  0
  5 17  1  0  0  0  0
  6 20  1  0  0  0  0
  7  2  2  0  0  0  0
  8  9  1  0  0  0  0
  9  7  1  0  0  0  0
 10 15  1  6  0  0  0
 10 14  1  0  0  0  0
 11 12  1  0  0  0  0
 11  6  1  0  0  0  0
 12  5  2  0  0  0  0
 13  3  2  0  0  0  0
 14  9  2  0  0  0  0
 14 13  1  0  0  0  0
 16 17  1  6  0  0  0
 16 22  1  0  0  0  0
 16  1  1  0  0  0  0
 18  6  2  0  0  0  0
 19  1  1  0  0  0  0
 19 10  1  0  0  0  0
 20  4  1  0  0  0  0
 20 15  1  0  0  0  0
 21 24  1  0  0  0  0
 22 25  1  0  0  0  0
 22 23  1  0  0  0  0
 24 25  1  0  0  0  0
 25 23  1  0  0  0  0
 26 22  1  0  0  0  0
 27 26  1  0  0  0  0
 27 21  1  0  0  0  0
 28 27  1  0  0  0  0
 29 30  1  0  0  0  0
 30 28  1  0  0  0  0
 31 29  1  0  0  0  0
 32 29  1  0  0  0  0
 32 30  1  0  0  0  0
M  END
>  <MODEL>
6

>  <REMARK>
 VINA RESULT:     -10.7      3.808      7.152
  Name = 
  3 active torsions:
  status: ('A' for Active; 'I' for Inactive)
    1  A    between atoms: C_8  and  C_28
    2  A    between atoms: N_10  and  C_19
    3  A    between atoms: C_19  and  C_24
                            x       y       z     vdW  Elec       q    Type
                         _______ _______ _______ _____ _____    ______ ____

>  <TORSDO>
F 3

$$$$
=
 OpenBabel11052416503D

 32 39  0  0  1  0  0  0  0  0999 V2000
  185.3830  178.1380  142.1920 C   0  0  1  0  0  3  0  0  0  0  0  0
  185.6810  178.7600  147.1660 C   0  0  0  0  0  3  0  0  0  0  0  0
  186.8550  178.0080  147.2090 C   0  0  0  0  0  3  0  0  0  0  0  0
  187.7810  178.2220  141.5700 C   0  0  1  0  0  3  0  0  0  0  0  0
  187.4700  178.5270  140.1850 C   0  0  0  0  0  0  0  0  0  0  0  0
  189.8870  177.2300  140.9890 C   0  0  0  0  0  0  0  0  0  0  0  0
  185.0510  179.0070  145.9440 C   0  0  0  0  0  3  0  0  0  0  0  0
  184.8850  178.8680  143.4540 C   0  0  0  0  0  2  0  0  0  0  0  0
  185.5850  178.5020  144.7530 C   0  0  0  0  0  0  0  0  0  0  0  0
  187.3430  177.1110  143.5510 C   0  0  2  0  0  3  0  0  0  0  0  0
  189.7730  177.7600  139.5730 C   0  0  0  0  0  2  0  0  0  0  0  0
  188.3750  178.2530  139.2390 C   0  0  0  0  0  3  0  0  0  0  0  0
  187.4080  177.5030  146.0300 C   0  0  0  0  0  3  0  0  0  0  0  0
  186.8010  177.7620  144.7950 C   0  0  0  0  0  0  0  0  0  0  0  0
  188.8760  177.1550  143.3740 C   0  0  0  0  0  2  0  0  0  0  0  0
  185.1220  179.0230  140.9370 C   0  0  1  0  0  3  0  0  0  0  0  0
  186.1050  178.8050  139.8630 N   0  0  0  0  0  2  0  0  0  0  0  0
  190.6540  176.3180  141.2460 O   0  0  0  0  0  0  0  0  0  0  0  0
  186.8350  177.8340  142.3790 C   0  0  1  0  0  3  0  0  0  0  0  0
  189.1340  177.9460  142.0780 C   0  0  2  0  0  3  0  0  0  0  0  0
  180.9250  179.2050  139.6830 C   0  0  0  0  0  2  0  0  0  0  0  0
  183.7130  178.8330  140.3910 C   0  0  1  0  0  0  0  0  0  0  0  0
  183.2520  177.3860  140.3850 C   0  0  0  0  0  2  0  0  0  0  0  0
  181.2120  178.7230  141.1030 C   0  0  0  0  0  2  0  0  0  0  0  0
  182.6770  178.3530  141.4100 C   0  0  2  0  0  3  0  0  0  0  0  0
  183.2910  179.5920  139.1270 C   0  0  0  0  0  2  0  0  0  0  0  0
  181.9390  180.2610  139.2870 C   0  0  1  0  0  3  0  0  0  0  0  0
  181.5420  180.9000  137.9690 C   0  0  0  0  0  2  0  0  0  0  0  0
  180.8060  182.8400  136.9630 C   0  0  2  0  0  3  0  0  0  0  0  0
  180.8630  182.1610  138.2110 N   0  0  0  0  0  0  0  0  0  0  0  0
  180.6340  184.2050  137.1870 O   0  0  0  0  0  1  0  0  0  0  0  0
  179.6590  182.1370  137.4210 N   0  0  0  0  0  2  0  0  0  0  0  0
  1 19  1  0  0  0  0
  1  8  1  1  0  0  0
  2  3  1  0  0  0  0
  4  5  1  6  0  0  0
  4 20  1  0  0  0  0
  4 19  1  0  0  0  0
  6 18  2  0  0  0  0
  6 20  1  0  0  0  0
  7  2  2  0  0  0  0
  8  9  1  0  0  0  0
  9 14  2  0  0  0  0
  9  7  1  0  0  0  0
 10 15  1  1  0  0  0
 10 14  1  0  0  0  0
 11  6  1  0  0  0  0
 12 11  1  0  0  0  0
 12  5  2  0  0  0  0
 13  3  2  0  0  0  0
 14 13  1  0  0  0  0
 16 17  1  6  0  0  0
 16  1  1  0  0  0  0
 17  5  1  0  0  0  0
 19 10  1  0  0  0  0
 20 15  1  0  0  0  0
 21 24  1  0  0  0  0
 22 16  1  0  0  0  0
 22 25  1  0  0  0  0
 23 22  1  0  0  0  0
 23 25  1  0  0  0  0
 24 25  1  0  0  0  0
 26 27  1  0  0  0  0
 26 22  1  0  0  0  0
 27 21  1  0  0  0  0
 28 30  1  0  0  0  0
 28 27  1  0  0  0  0
 29 31  1  0  0  0  0
 29 32  1  0  0  0  0
 29 30  1  0  0  0  0
 32 30  1  0  0  0  0
M  END
>  <MODEL>
7

>  <REMARK>
 VINA RESULT:     -10.5      5.038      7.623
  Name = 
  3 active torsions:
  status: ('A' for Active; 'I' for Inactive)
    1  A    between atoms: C_8  and  C_28
    2  A    between atoms: N_10  and  C_19
    3  A    between atoms: C_19  and  C_24
                            x       y       z     vdW  Elec       q    Type
                         _______ _______ _______ _____ _____    ______ ____

>  <TORSDO>
F 3

$$$$
=
 OpenBabel11052416503D

 32 39  0  0  1  0  0  0  0  0999 V2000
  189.4590  176.8950  140.5810 C   0  0  1  0  0  3  0  0  0  0  0  0
  193.4070  176.4700  137.5070 C   0  0  0  0  0  3  0  0  0  0  0  0
  192.5640  176.1740  136.4340 C   0  0  0  0  0  3  0  0  0  0  0  0
  187.7970  177.9280  139.0600 C   0  0  1  0  0  3  0  0  0  0  0  0
  186.9930  178.4070  140.1700 C   0  0  0  0  0  0  0  0  0  0  0  0
  185.9090  177.8710  137.5800 C   0  0  0  0  0  0  0  0  0  0  0  0
  192.8680  176.7490  138.7650 C   0  0  0  0  0  3  0  0  0  0  0  0
  190.9650  177.1140  140.3440 C   0  0  0  0  0  2  0  0  0  0  0  0
  191.4840  176.7330  138.9650 C   0  0  0  0  0  0  0  0  0  0  0  0
  189.1390  176.3280  138.0670 C   0  0  2  0  0  3  0  0  0  0  0  0
  185.0650  178.6280  138.5870 C   0  0  0  0  0  2  0  0  0  0  0  0
  185.6980  178.6740  139.9690 C   0  0  0  0  0  3  0  0  0  0  0  0
  191.1800  176.1610  136.6140 C   0  0  0  0  0  3  0  0  0  0  0  0
  190.6230  176.4630  137.8630 C   0  0  0  0  0  0  0  0  0  0  0  0
  188.2440  176.9310  136.9630 C   0  0  0  0  0  2  0  0  0  0  0  0
  188.9480  177.8910  141.6640 C   0  0  1  0  0  3  0  0  0  0  0  0
  187.5360  178.2650  141.4850 N   0  0  0  0  0  2  0  0  0  0  0  0
  185.3780  177.2430  136.6800 O   0  0  0  0  0  0  0  0  0  0  0  0
  188.7570  177.0730  139.2720 C   0  0  1  0  0  3  0  0  0  0  0  0
  187.4040  178.0270  137.6440 C   0  0  2  0  0  3  0  0  0  0  0  0
  189.5500  177.1280  145.9390 C   0  0  0  0  0  2  0  0  0  0  0  0
  189.1650  177.3560  143.0740 C   0  0  1  0  0  0  0  0  0  0  0  0
  189.9990  176.0880  143.1230 C   0  0  0  0  0  2  0  0  0  0  0  0
  190.7840  177.4690  145.1080 C   0  0  0  0  0  2  0  0  0  0  0  0
  190.6090  177.4060  143.5770 C   0  0  2  0  0  3  0  0  0  0  0  0
  187.9830  177.3240  144.0510 C   0  0  0  0  0  2  0  0  0  0  0  0
  188.3510  177.8910  145.4100 C   0  0  1  0  0  3  0  0  0  0  0  0
  187.1710  177.7290  146.3510 C   0  0  0  0  0  2  0  0  0  0  0  0
  184.9380  178.2530  146.5890 C   0  0  2  0  0  3  0  0  0  0  0  0
  186.1680  178.7420  146.0690 N   0  0  0  0  0  0  0  0  0  0  0  0
  183.8780  178.8950  145.9500 O   0  0  0  0  0  1  0  0  0  0  0  0
  185.6800  179.2010  147.3430 N   0  0  0  0  0  2  0  0  0  0  0  0
  1  8  1  6  0  0  0
  1 16  1  0  0  0  0
  2  7  1  0  0  0  0
  3 13  1  0  0  0  0
  3  2  2  0  0  0  0
  4 19  1  0  0  0  0
  4  5  1  1  0  0  0
  5 17  1  0  0  0  0
  6 20  1  0  0  0  0
  6 11  1  0  0  0  0
  7  9  2  0  0  0  0
  9  8  1  0  0  0  0
 10 15  1  6  0  0  0
 10 19  1  0  0  0  0
 11 12  1  0  0  0  0
 12  5  2  0  0  0  0
 13 14  2  0  0  0  0
 14 10  1  0  0  0  0
 14  9  1  0  0  0  0
 15 20  1  0  0  0  0
 16 17  1  6  0  0  0
 16 22  1  0  0  0  0
 18  6  2  0  0  0  0
 19  1  1  0  0  0  0
 20  4  1  0  0  0  0
 22 23  1  0  0  0  0
 22 25  1  0  0  0  0
 22 26  1  0  0  0  0
 23 25  1  0  0  0  0
 24 21  1  0  0  0  0
 25 24  1  0  0  0  0
 26 27  1  0  0  0  0
 27 21  1  0  0  0  0
 27 28  1  0  0  0  0
 29 32  1  0  0  0  0
 30 28  1  0  0  0  0
 30 29  1  0  0  0  0
 30 32  1  0  0  0  0
 31 29  1  0  0  0  0
M  END
>  <MODEL>
8

>  <REMARK>
 VINA RESULT:     -10.3      3.300      8.625
  Name = 
  3 active torsions:
  status: ('A' for Active; 'I' for Inactive)
    1  A    between atoms: C_8  and  C_28
    2  A    between atoms: N_10  and  C_19
    3  A    between atoms: C_19  and  C_24
                            x       y       z     vdW  Elec       q    Type
                         _______ _______ _______ _____ _____    ______ ____

>  <TORSDO>
F 3

$$$$
=
 OpenBabel11052416503D

 32 39  0  0  1  0  0  0  0  0999 V2000
  185.5250  178.0090  142.0220 C   0  0  1  0  0  3  0  0  0  0  0  0
  185.3050  178.8470  146.9680 C   0  0  0  0  0  3  0  0  0  0  0  0
  186.5140  178.1740  147.1560 C   0  0  0  0  0  3  0  0  0  0  0  0
  187.9620  178.2230  141.6240 C   0  0  1  0  0  3  0  0  0  0  0  0
  187.7690  178.4530  140.2040 C   0  0  0  0  0  0  0  0  0  0  0  0
  190.1710  177.3480  141.2880 C   0  0  0  0  0  0  0  0  0  0  0  0
  184.7820  179.0030  145.6830 C   0  0  0  0  0  3  0  0  0  0  0  0
  184.8650  178.7550  143.1970 C   0  0  0  0  0  2  0  0  0  0  0  0
  185.4580  178.4870  144.5720 C   0  0  0  0  0  0  0  0  0  0  0  0
  187.4050  177.1660  143.6040 C   0  0  2  0  0  3  0  0  0  0  0  0
  190.1620  177.8120  139.8450 C   0  0  0  0  0  2  0  0  0  0  0  0
  188.7750  178.2000  139.3590 C   0  0  0  0  0  3  0  0  0  0  0  0
  187.2070  177.6600  146.0580 C   0  0  0  0  0  3  0  0  0  0  0  0
  186.7070  177.8290  144.7610 C   0  0  0  0  0  0  0  0  0  0  0  0
  188.9420  177.3020  143.5700 C   0  0  0  0  0  2  0  0  0  0  0  0
  185.3340  178.8240  140.7090 C   0  0  1  0  0  3  0  0  0  0  0  0
  186.4260  178.6280  139.7430 N   0  0  0  0  0  2  0  0  0  0  0  0
  190.9640  176.4980  141.6570 O   0  0  0  0  0  0  0  0  0  0  0  0
  186.9690  177.8080  142.3580 C   0  0  1  0  0  3  0  0  0  0  0  0
  189.2750  178.0560  142.2690 C   0  0  2  0  0  3  0  0  0  0  0  0
  181.8940  178.0500  138.1030 C   0  0  0  0  0  2  0  0  0  0  0  0
  183.9970  178.5220  140.0430 C   0  0  1  0  0  0  0  0  0  0  0  0
  182.7970  179.0030  140.8400 C   0  0  0  0  0  2  0  0  0  0  0  0
  182.2230  179.5070  138.4150 C   0  0  0  0  0  2  0  0  0  0  0  0
  183.2070  179.7470  139.5770 C   0  0  2  0  0  3  0  0  0  0  0  0
  183.7720  177.1430  139.4100 C   0  0  0  0  0  2  0  0  0  0  0  0
  183.1770  177.2440  138.0180 C   0  0  1  0  0  3  0  0  0  0  0  0
  182.8840  175.8480  137.5010 C   0  0  0  0  0  2  0  0  0  0  0  0
  184.1480  173.9210  137.5930 C   0  0  2  0  0  3  0  0  0  0  0  0
  184.1090  175.2260  137.0290 N   0  0  0  0  0  0  0  0  0  0  0  0
  185.4640  173.4610  137.6050 O   0  0  0  0  0  1  0  0  0  0  0  0
  183.7150  174.0820  136.2490 N   0  0  0  0  0  2  0  0  0  0  0  0
  1 19  1  0  0  0  0
  1  8  1  1  0  0  0
  2  3  1  0  0  0  0
  4  5  1  6  0  0  0
  4 20  1  0  0  0  0
  4 19  1  0  0  0  0
  6 18  2  0  0  0  0
  6 20  1  0  0  0  0
  7  2  2  0  0  0  0
  8  9  1  0  0  0  0
  9 14  2  0  0  0  0
  9  7  1  0  0  0  0
 10 15  1  1  0  0  0
 10 14  1  0  0  0  0
 11  6  1  0  0  0  0
 12 11  1  0  0  0  0
 12  5  2  0  0  0  0
 13  3  2  0  0  0  0
 14 13  1  0  0  0  0
 16 17  1  6  0  0  0
 16  1  1  0  0  0  0
 17  5  1  0  0  0  0
 19 10  1  0  0  0  0
 20 15  1  0  0  0  0
 21 24  1  0  0  0  0
 22 16  1  0  0  0  0
 22 23  1  0  0  0  0
 24 25  1  0  0  0  0
 25 22  1  0  0  0  0
 25 23  1  0  0  0  0
 26 22  1  0  0  0  0
 27 21  1  0  0  0  0
 27 26  1  0  0  0  0
 28 27  1  0  0  0  0
 29 31  1  0  0  0  0
 30 28  1  0  0  0  0
 30 29  1  0  0  0  0
 32 30  1  0  0  0  0
 32 29  1  0  0  0  0
M  END
>  <MODEL>
9

>  <REMARK>
 VINA RESULT:     -10.2      4.091      5.844
  Name = 
  3 active torsions:
  status: ('A' for Active; 'I' for Inactive)
    1  A    between atoms: C_8  and  C_28
    2  A    between atoms: N_10  and  C_19
    3  A    between atoms: C_19  and  C_24
                            x       y       z     vdW  Elec       q    Type
                         _______ _______ _______ _____ _____    ______ ____

>  <TORSDO>
F 3

$$$$
