=
 OpenBabel11052415233D

 37 41  0  0  1  0  0  0  0  0999 V2000
  183.9600  180.1320  139.2870 N   0  0  0  0  0  0  0  0  0  0  0  0
  181.5220  178.8520  143.0980 C   0  0  0  0  0  3  0  0  0  0  0  0
  185.2790  178.7530  140.8630 C   0  0  0  0  0  2  0  0  0  0  0  0
  179.7600  176.1990  140.2690 C   0  0  0  0  0  3  0  0  0  0  0  0
  182.7740  178.4100  142.3690 C   0  0  2  0  0  3  0  0  0  0  0  0
  180.5040  177.3300  140.6140 C   0  0  0  0  0  0  0  0  0  0  0  0
  184.0440  178.9420  143.0050 C   0  0  0  0  0  0  0  0  0  0  0  0
  179.8150  178.5060  141.2390 C   0  0  0  0  0  2  0  0  0  0  0  0
  181.8790  177.3750  140.3380 C   0  0  0  0  0  0  0  0  0  0  0  0
  181.7610  175.1260  139.4330 C   0  0  0  0  0  3  0  0  0  0  0  0
  180.2450  178.8210  142.6540 C   0  0  0  0  0  0  0  0  0  0  0  0
  182.5090  176.2560  139.7760 C   0  0  0  0  0  3  0  0  0  0  0  0
  185.1390  179.5330  142.1580 C   0  0  0  0  0  2  0  0  0  0  0  0
  182.6610  178.5520  140.8430 C   0  0  2  0  0  3  0  0  0  0  0  0
  180.3840  175.0920  139.6720 C   0  0  0  0  0  0  0  0  0  0  0  0
  183.9700  178.8230  138.6070 C   0  0  2  0  0  3  0  0  0  0  0  0
  183.9750  178.8710  140.0810 C   0  0  1  0  0  0  0  0  0  0  0  0
  184.2120  178.8100  144.3280 C   0  0  0  0  0  3  0  0  0  0  0  0
  179.6640  173.9500  139.3120 O   0  0  0  0  0  0  0  0  0  0  0  0
  179.2040  173.7180  137.9870 C   0  0  0  0  0  1  0  0  0  0  0  0
  178.9840  178.3320  144.6000 O   0  0  0  0  0  1  0  0  0  0  0  0
  179.1730  179.2750  143.5880 C   0  0  0  0  0  2  0  0  0  0  0  0
  182.6220  180.6750  139.0800 C   0  0  0  0  0  2  0  0  0  0  0  0
  180.6490  179.9400  137.9790 O   0  0  0  0  0  1  0  0  0  0  0  0
  182.0250  180.0900  137.8160 C   0  0  0  0  0  2  0  0  0  0  0  0
  185.3410  178.5770  137.9950 C   0  0  0  0  0  2  0  0  0  0  0  0
  185.3030  177.3120  137.1640 C   0  0  0  0  0  2  0  0  0  0  0  0
  183.7110  175.7030  136.1740 C   0  0  0  0  0  1  0  0  0  0  0  0
  183.9270  177.1520  136.5550 C   0  0  0  0  0  2  0  0  0  0  0  0
  185.4430  179.2640  145.0510 C   0  0  0  0  0  2  0  0  0  0  0  0
  186.6120  177.5590  143.6400 C   0  0  0  0  0  3  0  0  0  0  0  0
  186.5530  178.2970  144.8270 C   0  0  0  0  0  0  0  0  0  0  0  0
  187.5240  178.1050  145.8170 C   0  0  0  0  0  3  0  0  0  0  0  0
  189.4970  177.0000  146.5720 F   0  0  0  0  0  0  0  0  0  0  0  0
  188.6170  176.4510  144.4260 C   0  0  0  0  0  3  0  0  0  0  0  0
  188.5560  177.1840  145.6150 C   0  0  0  0  0  0  0  0  0  0  0  0
  187.6440  176.6390  143.4390 C   0  0  0  0  0  3  0  0  0  0  0  0
  1 17  1  0  0  0  0
  3 13  1  0  0  0  0
  4  6  1  0  0  0  0
  5  7  1  0  0  0  0
  5  2  1  1  0  0  0
  6  8  1  0  0  0  0
  7 18  2  0  0  0  0
  8 11  1  0  0  0  0
  9  6  2  0  0  0  0
 10 15  1  0  0  0  0
 10 12  2  0  0  0  0
 11  2  2  0  0  0  0
 11 22  1  0  0  0  0
 12  9  1  0  0  0  0
 13  7  1  0  0  0  0
 14  9  1  6  0  0  0
 14  5  1  0  0  0  0
 15  4  2  0  0  0  0
 16 26  1  6  0  0  0
 16  1  1  0  0  0  0
 16 17  1  0  0  0  0
 17 14  1  0  0  0  0
 17  3  1  1  0  0  0
 18 30  1  0  0  0  0
 19 15  1  0  0  0  0
 20 19  1  0  0  0  0
 22 21  1  0  0  0  0
 23  1  1  0  0  0  0
 25 24  1  0  0  0  0
 25 23  1  0  0  0  0
 27 26  1  0  0  0  0
 28 29  1  0  0  0  0
 29 27  1  0  0  0  0
 31 32  1  0  0  0  0
 32 30  1  0  0  0  0
 32 33  2  0  0  0  0
 35 36  2  0  0  0  0
 36 33  1  0  0  0  0
 36 34  1  0  0  0  0
 37 31  2  0  0  0  0
 37 35  1  0  0  0  0
M  END
>  <MODEL>
1

>  <REMARK>
 VINA RESULT:      -7.7      0.000      0.000
  Name = 
  9 active torsions:
  status: ('A' for Active; 'I' for Inactive)
    1  A    between atoms: N_1  and  C_5
    2  A    between atoms: O_3  and  C_32
    3  A    between atoms: C_5  and  C_23
    4  A    between atoms: C_6  and  C_31
    5  A    between atoms: C_17  and  C_26
    6  A    between atoms: C_17  and  C_33
    7  A    between atoms: C_24  and  C_28
    8  A    between atoms: C_26  and  C_34
    9  A    between atoms: C_31  and  C_37
                            x       y       z     vdW  Elec       q    Type
                         _______ _______ _______ _____ _____    ______ ____

>  <TORSDO>
F 9

$$$$
=
 OpenBabel11052415233D

 37 41  0  0  1  0  0  0  0  0999 V2000
  181.5980  176.0630  138.7650 N   0  0  0  0  0  0  0  0  0  0  0  0
  180.0790  179.8760  141.0580 C   0  0  0  0  0  3  0  0  0  0  0  0
  182.2030  178.1790  137.6340 C   0  0  0  0  0  2  0  0  0  0  0  0
  183.3310  178.8300  143.6040 C   0  0  0  0  0  3  0  0  0  0  0  0
  181.1140  179.5420  140.0040 C   0  0  2  0  0  3  0  0  0  0  0  0
  182.3960  178.5480  142.6050 C   0  0  0  0  0  0  0  0  0  0  0  0
  180.6370  179.8440  138.5960 C   0  0  0  0  0  0  0  0  0  0  0  0
  180.9460  178.4240  142.9640 C   0  0  0  0  0  2  0  0  0  0  0  0
  182.8210  178.3420  141.2840 C   0  0  0  0  0  0  0  0  0  0  0  0
  185.1110  178.7690  141.9660 C   0  0  0  0  0  3  0  0  0  0  0  0
  180.0430  179.4690  142.3480 C   0  0  0  0  0  0  0  0  0  0  0  0
  184.1790  178.4870  140.9640 C   0  0  0  0  0  3  0  0  0  0  0  0
  180.8510  178.8530  137.4830 C   0  0  0  0  0  2  0  0  0  0  0  0
  181.7730  178.1710  140.2240 C   0  0  2  0  0  3  0  0  0  0  0  0
  184.6950  178.9380  143.2900 C   0  0  0  0  0  0  0  0  0  0  0  0
  183.0290  176.1850  139.1000 C   0  0  2  0  0  3  0  0  0  0  0  0
  182.2170  177.4070  138.9490 C   0  0  1  0  0  0  0  0  0  0  0  0
  180.0880  181.0400  138.3390 C   0  0  0  0  0  3  0  0  0  0  0  0
  185.6540  179.2150  144.2690 O   0  0  0  0  0  0  0  0  0  0  0  0
  185.4080  179.0330  145.6570 C   0  0  0  0  0  1  0  0  0  0  0  0
  178.9510  179.3360  144.4460 O   0  0  0  0  0  1  0  0  0  0  0  0
  178.9320  179.9770  143.2060 C   0  0  0  0  0  2  0  0  0  0  0  0
  180.9530  175.5480  139.9680 C   0  0  0  0  0  2  0  0  0  0  0  0
  178.9830  175.6210  138.6420 O   0  0  0  0  0  1  0  0  0  0  0  0
  179.6560  174.8590  139.5950 C   0  0  0  0  0  2  0  0  0  0  0  0
  183.8700  175.8500  137.8760 C   0  0  0  0  0  2  0  0  0  0  0  0
  183.4830  174.4810  137.3580 C   0  0  0  0  0  2  0  0  0  0  0  0
  185.7700  173.6060  137.0260 C   0  0  0  0  0  1  0  0  0  0  0  0
  184.4960  173.4610  137.8310 C   0  0  0  0  0  2  0  0  0  0  0  0
  179.6200  181.4550  136.9780 C   0  0  0  0  0  2  0  0  0  0  0  0
  180.5350  183.2580  135.5030 C   0  0  0  0  0  3  0  0  0  0  0  0
  179.9750  182.8800  136.7280 C   0  0  0  0  0  0  0  0  0  0  0  0
  179.7740  183.8370  137.7300 C   0  0  0  0  0  3  0  0  0  0  0  0
  179.9280  186.0980  138.4700 F   0  0  0  0  0  0  0  0  0  0  0  0
  180.6800  185.5500  136.2760 C   0  0  0  0  0  3  0  0  0  0  0  0
  180.1250  185.1710  137.5020 C   0  0  0  0  0  0  0  0  0  0  0  0
  180.8860  184.5920  135.2770 C   0  0  0  0  0  3  0  0  0  0  0  0
  1 17  1  0  0  0  0
  1 16  1  0  0  0  0
  1 23  1  0  0  0  0
  2 11  2  0  0  0  0
  5 14  1  0  0  0  0
  5  2  1  1  0  0  0
  6  8  1  0  0  0  0
  6  4  2  0  0  0  0
  7  5  1  0  0  0  0
  9  6  1  0  0  0  0
 10 15  2  0  0  0  0
 11  8  1  0  0  0  0
 11 22  1  0  0  0  0
 12  9  2  0  0  0  0
 12 10  1  0  0  0  0
 13  3  1  0  0  0  0
 13  7  1  0  0  0  0
 14  9  1  1  0  0  0
 15  4  1  0  0  0  0
 15 19  1  0  0  0  0
 16 26  1  6  0  0  0
 17  3  1  6  0  0  0
 17 16  1  0  0  0  0
 17 14  1  0  0  0  0
 18  7  2  0  0  0  0
 19 20  1  0  0  0  0
 22 21  1  0  0  0  0
 24 25  1  0  0  0  0
 25 23  1  0  0  0  0
 27 29  1  0  0  0  0
 27 26  1  0  0  0  0
 28 29  1  0  0  0  0
 30 18  1  0  0  0  0
 31 32  1  0  0  0  0
 32 30  1  0  0  0  0
 32 33  2  0  0  0  0
 35 36  2  0  0  0  0
 36 33  1  0  0  0  0
 36 34  1  0  0  0  0
 37 31  2  0  0  0  0
 37 35  1  0  0  0  0
M  END
>  <MODEL>
2

>  <REMARK>
 VINA RESULT:      -7.2      3.734      7.435
  Name = 
  9 active torsions:
  status: ('A' for Active; 'I' for Inactive)
    1  A    between atoms: N_1  and  C_5
    2  A    between atoms: O_3  and  C_32
    3  A    between atoms: C_5  and  C_23
    4  A    between atoms: C_6  and  C_31
    5  A    between atoms: C_17  and  C_26
    6  A    between atoms: C_17  and  C_33
    7  A    between atoms: C_24  and  C_28
    8  A    between atoms: C_26  and  C_34
    9  A    between atoms: C_31  and  C_37
                            x       y       z     vdW  Elec       q    Type
                         _______ _______ _______ _____ _____    ______ ____

>  <TORSDO>
F 9

$$$$
=
 OpenBabel11052415233D

 37 41  0  0  1  0  0  0  0  0999 V2000
  190.3110  177.4600  136.8910 N   0  0  0  0  0  0  0  0  0  0  0  0
  186.5770  178.2400  139.6390 C   0  0  0  0  0  3  0  0  0  0  0  0
  190.4640  176.3160  139.0800 C   0  0  0  0  0  2  0  0  0  0  0  0
  184.8150  175.4950  136.8980 C   0  0  0  0  0  3  0  0  0  0  0  0
  187.7060  177.2350  139.5430 C   0  0  2  0  0  3  0  0  0  0  0  0
  185.8090  176.3970  137.2860 C   0  0  0  0  0  0  0  0  0  0  0  0
  188.8390  177.5310  140.5070 C   0  0  0  0  0  0  0  0  0  0  0  0
  185.4900  177.8590  137.3660 C   0  0  0  0  0  2  0  0  0  0  0  0
  187.1070  175.9360  137.5560 C   0  0  0  0  0  0  0  0  0  0  0  0
  186.3810  173.6630  137.1120 C   0  0  0  0  0  3  0  0  0  0  0  0
  185.5790  178.4580  138.7530 C   0  0  0  0  0  0  0  0  0  0  0  0
  187.3790  174.5620  137.4990 C   0  0  0  0  0  3  0  0  0  0  0  0
  190.2730  177.4670  140.0510 C   0  0  0  0  0  2  0  0  0  0  0  0
  188.1060  176.9180  138.0930 C   0  0  2  0  0  3  0  0  0  0  0  0
  185.0970  174.1230  136.8050 C   0  0  0  0  0  0  0  0  0  0  0  0
  190.0020  176.0650  136.5240 C   0  0  2  0  0  3  0  0  0  0  0  0
  189.5980  176.5700  137.8500 C   0  0  1  0  0  0  0  0  0  0  0  0
  188.5510  177.7760  141.7930 C   0  0  0  0  0  3  0  0  0  0  0  0
  184.1240  173.1980  136.4170 O   0  0  0  0  0  0  0  0  0  0  0  0
  184.0840  171.8690  136.9200 C   0  0  0  0  0  1  0  0  0  0  0  0
  184.6280  179.8010  140.4580 O   0  0  0  0  0  1  0  0  0  0  0  0
  184.5520  179.4840  139.1000 C   0  0  0  0  0  2  0  0  0  0  0  0
  189.4180  178.2880  136.0880 C   0  0  0  0  0  2  0  0  0  0  0  0
  187.6200  177.8580  134.5940 O   0  0  0  0  0  1  0  0  0  0  0  0
  188.9350  177.4990  134.8870 C   0  0  0  0  0  2  0  0  0  0  0  0
  191.2790  175.2380  136.5430 C   0  0  0  0  0  2  0  0  0  0  0  0
  192.4280  176.0700  136.0140 C   0  0  0  0  0  2  0  0  0  0  0  0
  193.4830  174.6360  137.7280 C   0  0  0  0  0  1  0  0  0  0  0  0
  193.7370  175.4880  136.5020 C   0  0  0  0  0  2  0  0  0  0  0  0
  189.5940  178.0420  142.8340 C   0  0  0  0  0  2  0  0  0  0  0  0
  189.8610  177.7210  145.3020 C   0  0  0  0  0  3  0  0  0  0  0  0
  189.0170  177.8570  144.1950 C   0  0  0  0  0  0  0  0  0  0  0  0
  187.6290  177.7900  144.3630 C   0  0  0  0  0  3  0  0  0  0  0  0
  185.7440  177.5350  145.8000 F   0  0  0  0  0  0  0  0  0  0  0  0
  187.9320  177.4670  146.7440 C   0  0  0  0  0  3  0  0  0  0  0  0
  187.0870  177.5970  145.6370 C   0  0  0  0  0  0  0  0  0  0  0  0
  189.3190  177.5290  146.5760 C   0  0  0  0  0  3  0  0  0  0  0  0
  1 17  1  0  0  0  0
  3 13  1  0  0  0  0
  4  6  1  0  0  0  0
  5  2  1  6  0  0  0
  5  7  1  0  0  0  0
  6  8  1  0  0  0  0
  6  9  2  0  0  0  0
  7 18  2  0  0  0  0
  8 11  1  0  0  0  0
 10 12  2  0  0  0  0
 11 22  1  0  0  0  0
 11  2  2  0  0  0  0
 12  9  1  0  0  0  0
 13  7  1  0  0  0  0
 14  9  1  1  0  0  0
 14  5  1  0  0  0  0
 15  4  2  0  0  0  0
 15 10  1  0  0  0  0
 16 26  1  1  0  0  0
 16  1  1  0  0  0  0
 16 17  1  0  0  0  0
 17 14  1  0  0  0  0
 17  3  1  1  0  0  0
 18 30  1  0  0  0  0
 19 15  1  0  0  0  0
 19 20  1  0  0  0  0
 22 21  1  0  0  0  0
 23  1  1  0  0  0  0
 24 25  1  0  0  0  0
 25 23  1  0  0  0  0
 27 29  1  0  0  0  0
 27 26  1  0  0  0  0
 29 28  1  0  0  0  0
 30 32  1  0  0  0  0
 31 37  1  0  0  0  0
 32 33  1  0  0  0  0
 32 31  2  0  0  0  0
 33 36  2  0  0  0  0
 36 34  1  0  0  0  0
 36 35  1  0  0  0  0
 37 35  2  0  0  0  0
M  END
>  <MODEL>
3

>  <REMARK>
 VINA RESULT:      -7.0      4.217      6.175
  Name = 
  9 active torsions:
  status: ('A' for Active; 'I' for Inactive)
    1  A    between atoms: N_1  and  C_5
    2  A    between atoms: O_3  and  C_32
    3  A    between atoms: C_5  and  C_23
    4  A    between atoms: C_6  and  C_31
    5  A    between atoms: C_17  and  C_26
    6  A    between atoms: C_17  and  C_33
    7  A    between atoms: C_24  and  C_28
    8  A    between atoms: C_26  and  C_34
    9  A    between atoms: C_31  and  C_37
                            x       y       z     vdW  Elec       q    Type
                         _______ _______ _______ _____ _____    ______ ____

>  <TORSDO>
F 9

$$$$
=
 OpenBabel11052415233D

 37 41  0  0  1  0  0  0  0  0999 V2000
  180.3240  179.9620  139.3410 N   0  0  0  0  0  0  0  0  0  0  0  0
  183.8120  177.0160  138.2210 C   0  0  0  0  0  3  0  0  0  0  0  0
  179.8670  177.6220  140.0060 C   0  0  0  0  0  2  0  0  0  0  0  0
  185.6280  178.9460  141.5560 C   0  0  0  0  0  3  0  0  0  0  0  0
  182.6260  177.0400  139.1610 C   0  0  2  0  0  3  0  0  0  0  0  0
  184.6700  178.8580  140.5420 C   0  0  0  0  0  0  0  0  0  0  0  0
  181.4280  176.2870  138.6150 C   0  0  0  0  0  0  0  0  0  0  0  0
  185.0890  179.0320  139.1130 C   0  0  0  0  0  2  0  0  0  0  0  0
  183.3210  178.6520  140.8680 C   0  0  0  0  0  0  0  0  0  0  0  0
  183.9140  178.5560  143.2200 C   0  0  0  0  0  3  0  0  0  0  0  0
  184.9080  177.8090  138.2410 C   0  0  0  0  0  0  0  0  0  0  0  0
  182.9540  178.4680  142.2080 C   0  0  0  0  0  3  0  0  0  0  0  0
  180.0460  176.8810  138.6930 C   0  0  0  0  0  2  0  0  0  0  0  0
  182.3510  178.4340  139.7450 C   0  0  2  0  0  3  0  0  0  0  0  0
  185.2540  178.8000  142.9010 C   0  0  0  0  0  0  0  0  0  0  0  0
  180.5620  180.0100  140.7960 C   0  0  2  0  0  3  0  0  0  0  0  0
  180.8680  178.7720  140.0550 C   0  0  1  0  0  0  0  0  0  0  0  0
  181.6030  175.0510  138.1290 C   0  0  0  0  0  3  0  0  0  0  0  0
  186.1880  178.8860  143.9370 O   0  0  0  0  0  0  0  0  0  0  0  0
  186.4390  177.8140  144.8360 C   0  0  0  0  0  1  0  0  0  0  0  0
  186.9070  178.5900  137.2370 O   0  0  0  0  0  1  0  0  0  0  0  0
  185.9690  177.5560  137.2230 C   0  0  0  0  0  2  0  0  0  0  0  0
  181.3530  180.8050  138.7430 C   0  0  0  0  0  2  0  0  0  0  0  0
  181.1960  182.9320  137.6960 O   0  0  0  0  0  1  0  0  0  0  0  0
  180.7540  181.6130  137.6100 C   0  0  0  0  0  2  0  0  0  0  0  0
  179.2310  179.9730  141.5320 C   0  0  0  0  0  2  0  0  0  0  0  0
  179.4420  180.3700  142.9780 C   0  0  0  0  0  2  0  0  0  0  0  0
  180.0360  178.2640  144.1260 C   0  0  0  0  0  1  0  0  0  0  0  0
  178.9310  179.2690  143.8810 C   0  0  0  0  0  2  0  0  0  0  0  0
  180.4840  174.2060  137.6020 C   0  0  0  0  0  2  0  0  0  0  0  0
  180.1750  172.1690  136.1820 C   0  0  0  0  0  3  0  0  0  0  0  0
  181.0320  173.0190  136.8880 C   0  0  0  0  0  0  0  0  0  0  0  0
  182.4020  172.7380  136.9460 C   0  0  0  0  0  3  0  0  0  0  0  0
  184.2400  171.3440  136.3450 F   0  0  0  0  0  0  0  0  0  0  0  0
  182.0570  170.7670  135.5810 C   0  0  0  0  0  3  0  0  0  0  0  0
  182.9140  171.6140  136.2910 C   0  0  0  0  0  0  0  0  0  0  0  0
  180.6870  171.0450  135.5270 C   0  0  0  0  0  3  0  0  0  0  0  0
  1 17  1  0  0  0  0
  1 16  1  0  0  0  0
  2 11  2  0  0  0  0
  4 15  1  0  0  0  0
  5  2  1  6  0  0  0
  5 14  1  0  0  0  0
  6  9  1  0  0  0  0
  6  4  2  0  0  0  0
  7 13  1  0  0  0  0
  7  5  1  0  0  0  0
  8  6  1  0  0  0  0
  9 12  2  0  0  0  0
 11  8  1  0  0  0  0
 12 10  1  0  0  0  0
 13  3  1  0  0  0  0
 14 17  1  0  0  0  0
 14  9  1  1  0  0  0
 15 10  2  0  0  0  0
 15 19  1  0  0  0  0
 16 26  1  1  0  0  0
 17  3  1  1  0  0  0
 17 16  1  0  0  0  0
 18  7  2  0  0  0  0
 19 20  1  0  0  0  0
 22 21  1  0  0  0  0
 22 11  1  0  0  0  0
 23  1  1  0  0  0  0
 25 24  1  0  0  0  0
 25 23  1  0  0  0  0
 26 27  1  0  0  0  0
 27 29  1  0  0  0  0
 29 28  1  0  0  0  0
 30 18  1  0  0  0  0
 31 32  1  0  0  0  0
 32 33  2  0  0  0  0
 32 30  1  0  0  0  0
 35 36  2  0  0  0  0
 36 34  1  0  0  0  0
 36 33  1  0  0  0  0
 37 35  1  0  0  0  0
 37 31  2  0  0  0  0
M  END
>  <MODEL>
4

>  <REMARK>
 VINA RESULT:      -6.8      3.279      7.894
  Name = 
  9 active torsions:
  status: ('A' for Active; 'I' for Inactive)
    1  A    between atoms: N_1  and  C_5
    2  A    between atoms: O_3  and  C_32
    3  A    between atoms: C_5  and  C_23
    4  A    between atoms: C_6  and  C_31
    5  A    between atoms: C_17  and  C_26
    6  A    between atoms: C_17  and  C_33
    7  A    between atoms: C_24  and  C_28
    8  A    between atoms: C_26  and  C_34
    9  A    between atoms: C_31  and  C_37
                            x       y       z     vdW  Elec       q    Type
                         _______ _______ _______ _____ _____    ______ ____

>  <TORSDO>
F 9

$$$$
=
 OpenBabel11052415233D

 37 41  0  0  1  0  0  0  0  0999 V2000
  194.6720  176.0640  136.5380 N   0  0  0  0  0  0  0  0  0  0  0  0
  190.3260  177.4280  137.7000 C   0  0  0  0  0  3  0  0  0  0  0  0
  193.9850  175.2940  138.7870 C   0  0  0  0  0  2  0  0  0  0  0  0
  189.3300  174.3330  134.9470 C   0  0  0  0  0  3  0  0  0  0  0  0
  191.3260  176.3800  138.1420 C   0  0  2  0  0  3  0  0  0  0  0  0
  190.2170  175.2500  135.5180 C   0  0  0  0  0  0  0  0  0  0  0  0
  192.0970  176.7900  139.3820 C   0  0  0  0  0  0  0  0  0  0  0  0
  190.0250  176.7160  135.2730 C   0  0  0  0  0  2  0  0  0  0  0  0
  191.3040  174.7920  136.2790 C   0  0  0  0  0  0  0  0  0  0  0  0
  190.5620  172.5050  135.9450 C   0  0  0  0  0  3  0  0  0  0  0  0
  189.7030  177.5330  136.5050 C   0  0  0  0  0  0  0  0  0  0  0  0
  191.4520  173.4180  136.5170 C   0  0  0  0  0  3  0  0  0  0  0  0
  193.5890  176.5980  139.4590 C   0  0  0  0  0  2  0  0  0  0  0  0
  192.1530  175.8120  136.9780 C   0  0  2  0  0  3  0  0  0  0  0  0
  189.5000  172.9550  135.1540 C   0  0  0  0  0  0  0  0  0  0  0  0
  194.3760  174.6400  136.2920 C   0  0  2  0  0  3  0  0  0  0  0  0
  193.6030  175.3720  137.3130 C   0  0  1  0  0  0  0  0  0  0  0  0
  191.4230  177.2560  140.4420 C   0  0  0  0  0  3  0  0  0  0  0  0
  188.6300  172.0160  134.5940 O   0  0  0  0  0  0  0  0  0  0  0  0
  188.9040  170.6210  134.5940 C   0  0  0  0  0  1  0  0  0  0  0  0
  188.9950  179.6790  137.2190 O   0  0  0  0  0  1  0  0  0  0  0  0
  188.7170  178.6400  136.3280 C   0  0  0  0  0  2  0  0  0  0  0  0
  194.1760  176.7790  135.3680 C   0  0  0  0  0  2  0  0  0  0  0  0
  195.5800  178.6910  135.4970 O   0  0  0  0  0  1  0  0  0  0  0  0
  195.3070  177.5600  134.7300 C   0  0  0  0  0  2  0  0  0  0  0  0
  195.4930  173.7800  136.8660 C   0  0  0  0  0  2  0  0  0  0  0  0
  195.4920  172.4290  136.1830 C   0  0  0  0  0  2  0  0  0  0  0  0
  196.1080  170.5550  137.6710 C   0  0  0  0  0  1  0  0  0  0  0  0
  194.9580  171.3840  137.1380 C   0  0  0  0  0  2  0  0  0  0  0  0
  192.0810  177.6520  141.7280 C   0  0  0  0  0  2  0  0  0  0  0  0
  191.4060  178.1060  144.0950 C   0  0  0  0  0  3  0  0  0  0  0  0
  191.1170  177.5240  142.8560 C   0  0  0  0  0  0  0  0  0  0  0  0
  189.9330  176.7950  142.6870 C   0  0  0  0  0  3  0  0  0  0  0  0
  187.8910  175.9560  143.5860 F   0  0  0  0  0  0  0  0  0  0  0  0
  189.3240  177.2460  144.9870 C   0  0  0  0  0  3  0  0  0  0  0  0
  189.0370  176.6590  143.7510 C   0  0  0  0  0  0  0  0  0  0  0  0
  190.5090  177.9700  145.1590 C   0  0  0  0  0  3  0  0  0  0  0  0
  1 17  1  0  0  0  0
  3 13  1  0  0  0  0
  4 15  2  0  0  0  0
  4  6  1  0  0  0  0
  5  2  1  6  0  0  0
  5  7  1  0  0  0  0
  6  9  2  0  0  0  0
  7 13  1  0  0  0  0
  7 18  2  0  0  0  0
  8  6  1  0  0  0  0
  8 11  1  0  0  0  0
  9 12  1  0  0  0  0
 10 12  2  0  0  0  0
 11  2  2  0  0  0  0
 14  9  1  1  0  0  0
 14 17  1  0  0  0  0
 14  5  1  0  0  0  0
 15 10  1  0  0  0  0
 16  1  1  0  0  0  0
 16 26  1  1  0  0  0
 16 17  1  0  0  0  0
 17  3  1  1  0  0  0
 18 30  1  0  0  0  0
 19 20  1  0  0  0  0
 19 15  1  0  0  0  0
 22 11  1  0  0  0  0
 22 21  1  0  0  0  0
 23  1  1  0  0  0  0
 25 23  1  0  0  0  0
 25 24  1  0  0  0  0
 27 26  1  0  0  0  0
 27 29  1  0  0  0  0
 29 28  1  0  0  0  0
 30 32  1  0  0  0  0
 31 37  1  0  0  0  0
 32 31  2  0  0  0  0
 33 32  1  0  0  0  0
 33 36  2  0  0  0  0
 34 36  1  0  0  0  0
 35 37  2  0  0  0  0
 36 35  1  0  0  0  0
M  END
>  <MODEL>
5

>  <REMARK>
 VINA RESULT:      -6.7      7.548     10.163
  Name = 
  9 active torsions:
  status: ('A' for Active; 'I' for Inactive)
    1  A    between atoms: N_1  and  C_5
    2  A    between atoms: O_3  and  C_32
    3  A    between atoms: C_5  and  C_23
    4  A    between atoms: C_6  and  C_31
    5  A    between atoms: C_17  and  C_26
    6  A    between atoms: C_17  and  C_33
    7  A    between atoms: C_24  and  C_28
    8  A    between atoms: C_26  and  C_34
    9  A    between atoms: C_31  and  C_37
                            x       y       z     vdW  Elec       q    Type
                         _______ _______ _______ _____ _____    ______ ____

>  <TORSDO>
F 9

$$$$
=
 OpenBabel11052415233D

 37 41  0  0  1  0  0  0  0  0999 V2000
  181.6170  176.0790  137.6120 N   0  0  0  0  0  0  0  0  0  0  0  0
  180.7350  179.5160  140.6970 C   0  0  0  0  0  3  0  0  0  0  0  0
  181.8170  178.3400  136.6270 C   0  0  0  0  0  2  0  0  0  0  0  0
  184.6090  178.3850  142.0620 C   0  0  0  0  0  3  0  0  0  0  0  0
  181.4280  179.3630  139.3590 C   0  0  2  0  0  3  0  0  0  0  0  0
  183.4320  178.1620  141.3430 C   0  0  0  0  0  0  0  0  0  0  0  0
  180.5560  179.7920  138.1940 C   0  0  0  0  0  0  0  0  0  0  0  0
  182.1510  177.9130  142.0820 C   0  0  0  0  0  2  0  0  0  0  0  0
  183.4610  178.1300  139.9410 C   0  0  0  0  0  0  0  0  0  0  0  0
  185.8400  178.6130  139.9910 C   0  0  0  0  0  3  0  0  0  0  0  0
  181.0830  178.9660  141.8830 C   0  0  0  0  0  0  0  0  0  0  0  0
  184.6640  178.3890  139.2680 C   0  0  0  0  0  3  0  0  0  0  0  0
  180.4630  178.9460  136.9520 C   0  0  0  0  0  2  0  0  0  0  0  0
  182.1560  178.0180  139.2100 C   0  0  2  0  0  3  0  0  0  0  0  0
  185.8210  178.6070  141.3890 C   0  0  0  0  0  0  0  0  0  0  0  0
  183.0800  176.2470  137.5380 C   0  0  2  0  0  3  0  0  0  0  0  0
  182.2290  177.4270  137.7770 C   0  0  1  0  0  0  0  0  0  0  0  0
  179.9280  180.9740  138.2530 C   0  0  0  0  0  3  0  0  0  0  0  0
  187.0150  178.8300  142.0810 O   0  0  0  0  0  0  0  0  0  0  0  0
  188.2860  178.4820  141.5480 C   0  0  0  0  0  1  0  0  0  0  0  0
  180.1040  180.6920  143.1770 O   0  0  0  0  0  1  0  0  0  0  0  0
  180.2570  179.3080  143.0780 C   0  0  0  0  0  2  0  0  0  0  0  0
  181.3600  175.3960  138.8760 C   0  0  0  0  0  2  0  0  0  0  0  0
  179.5160  174.3330  139.9310 O   0  0  0  0  0  1  0  0  0  0  0  0
  180.1860  174.4520  138.7150 C   0  0  0  0  0  2  0  0  0  0  0  0
  183.5380  176.1010  136.0940 C   0  0  0  0  0  2  0  0  0  0  0  0
  185.0450  175.9620  136.0540 C   0  0  0  0  0  2  0  0  0  0  0  0
  186.7930  177.6850  136.3360 C   0  0  0  0  0  1  0  0  0  0  0  0
  185.6490  177.2160  135.4620 C   0  0  0  0  0  2  0  0  0  0  0  0
  179.0760  181.5110  137.1440 C   0  0  0  0  0  2  0  0  0  0  0  0
  179.3040  183.2270  135.3370 C   0  0  0  0  0  3  0  0  0  0  0  0
  179.6680  182.7680  136.6080 C   0  0  0  0  0  0  0  0  0  0  0  0
  180.6110  183.4760  137.3620 C   0  0  0  0  0  3  0  0  0  0  0  0
  182.0910  185.3320  137.5820 F   0  0  0  0  0  0  0  0  0  0  0  0
  180.8120  185.1070  135.5830 C   0  0  0  0  0  3  0  0  0  0  0  0
  181.1800  184.6460  136.8510 C   0  0  0  0  0  0  0  0  0  0  0  0
  179.8740  184.3970  134.8260 C   0  0  0  0  0  3  0  0  0  0  0  0
  1 17  1  0  0  0  0
  1 23  1  0  0  0  0
  2 11  2  0  0  0  0
  3 13  1  0  0  0  0
  5  2  1  1  0  0  0
  6  4  2  0  0  0  0
  6  8  1  0  0  0  0
  7 18  2  0  0  0  0
  7  5  1  0  0  0  0
  9  6  1  0  0  0  0
 10 15  2  0  0  0  0
 11  8  1  0  0  0  0
 11 22  1  0  0  0  0
 12  9  2  0  0  0  0
 12 10  1  0  0  0  0
 13  7  1  0  0  0  0
 14  5  1  0  0  0  0
 14  9  1  6  0  0  0
 15  4  1  0  0  0  0
 15 19  1  0  0  0  0
 16 26  1  6  0  0  0
 16  1  1  0  0  0  0
 16 17  1  0  0  0  0
 17  3  1  6  0  0  0
 17 14  1  0  0  0  0
 20 19  1  0  0  0  0
 22 21  1  0  0  0  0
 25 23  1  0  0  0  0
 25 24  1  0  0  0  0
 27 26  1  0  0  0  0
 29 27  1  0  0  0  0
 29 28  1  0  0  0  0
 30 18  1  0  0  0  0
 31 32  1  0  0  0  0
 32 30  1  0  0  0  0
 32 33  2  0  0  0  0
 35 36  2  0  0  0  0
 36 33  1  0  0  0  0
 36 34  1  0  0  0  0
 37 31  2  0  0  0  0
 37 35  1  0  0  0  0
M  END
>  <MODEL>
6

>  <REMARK>
 VINA RESULT:      -6.7      3.688      7.484
  Name = 
  9 active torsions:
  status: ('A' for Active; 'I' for Inactive)
    1  A    between atoms: N_1  and  C_5
    2  A    between atoms: O_3  and  C_32
    3  A    between atoms: C_5  and  C_23
    4  A    between atoms: C_6  and  C_31
    5  A    between atoms: C_17  and  C_26
    6  A    between atoms: C_17  and  C_33
    7  A    between atoms: C_24  and  C_28
    8  A    between atoms: C_26  and  C_34
    9  A    between atoms: C_31  and  C_37
                            x       y       z     vdW  Elec       q    Type
                         _______ _______ _______ _____ _____    ______ ____

>  <TORSDO>
F 9

$$$$
=
 OpenBabel11052415233D

 37 41  0  0  1  0  0  0  0  0999 V2000
  190.0320  175.6520  135.3880 N   0  0  0  0  0  0  0  0  0  0  0  0
  187.1670  177.5330  138.6060 C   0  0  0  0  0  3  0  0  0  0  0  0
  190.6070  174.9890  137.7020 C   0  0  0  0  0  2  0  0  0  0  0  0
  184.5460  174.5550  137.0530 C   0  0  0  0  0  3  0  0  0  0  0  0
  188.1420  176.3770  138.5130 C   0  0  2  0  0  3  0  0  0  0  0  0
  185.6840  175.3640  136.9880 C   0  0  0  0  0  0  0  0  0  0  0  0
  189.4980  176.7030  139.1100 C   0  0  0  0  0  0  0  0  0  0  0  0
  185.5300  176.8410  136.7810 C   0  0  0  0  0  2  0  0  0  0  0  0
  186.9600  174.7870  137.0750 C   0  0  0  0  0  0  0  0  0  0  0  0
  185.9420  172.6020  137.3580 C   0  0  0  0  0  3  0  0  0  0  0  0
  186.0080  177.7010  137.9300 C   0  0  0  0  0  0  0  0  0  0  0  0
  187.0820  173.4080  137.2930 C   0  0  0  0  0  3  0  0  0  0  0  0
  190.7650  176.3360  138.3850 C   0  0  0  0  0  2  0  0  0  0  0  0
  188.1460  175.7050  137.1320 C   0  0  2  0  0  3  0  0  0  0  0  0
  184.6700  173.1680  137.2340 C   0  0  0  0  0  0  0  0  0  0  0  0
  189.5160  174.2710  135.4430 C   0  0  2  0  0  3  0  0  0  0  0  0
  189.4950  175.0990  136.6630 C   0  0  1  0  0  0  0  0  0  0  0  0
  189.5550  177.2560  140.3300 C   0  0  0  0  0  3  0  0  0  0  0  0
  183.5500  172.3340  137.2990 O   0  0  0  0  0  0  0  0  0  0  0  0
  183.4800  171.0900  136.6150 C   0  0  0  0  0  1  0  0  0  0  0  0
  183.8340  178.6150  138.1590 O   0  0  0  0  0  1  0  0  0  0  0  0
  185.1950  178.9160  138.2330 C   0  0  0  0  0  2  0  0  0  0  0  0
  189.0500  176.4110  134.6210 C   0  0  0  0  0  2  0  0  0  0  0  0
  188.8950  178.5230  135.6980 O   0  0  0  0  0  1  0  0  0  0  0  0
  189.4450  177.8730  134.5950 C   0  0  0  0  0  2  0  0  0  0  0  0
  190.6780  173.2900  135.3850 C   0  0  0  0  0  2  0  0  0  0  0  0
  190.2660  172.0660  134.5940 C   0  0  0  0  0  2  0  0  0  0  0  0
  188.3540  170.6050  135.1570 C   0  0  0  0  0  1  0  0  0  0  0  0
  188.7560  171.9520  134.5950 C   0  0  0  0  0  2  0  0  0  0  0  0
  190.8400  177.5810  141.0270 C   0  0  0  0  0  2  0  0  0  0  0  0
  191.7290  177.5790  143.3670 C   0  0  0  0  0  3  0  0  0  0  0  0
  190.6300  177.6060  142.5010 C   0  0  0  0  0  0  0  0  0  0  0  0
  189.3310  177.6280  143.0230 C   0  0  0  0  0  3  0  0  0  0  0  0
  187.8760  177.6570  144.9110 F   0  0  0  0  0  0  0  0  0  0  0  0
  190.2320  177.6100  145.2710 C   0  0  0  0  0  3  0  0  0  0  0  0
  189.1330  177.6320  144.4070 C   0  0  0  0  0  0  0  0  0  0  0  0
  191.5300  177.5830  144.7500 C   0  0  0  0  0  3  0  0  0  0  0  0
  1 16  1  0  0  0  0
  1 17  1  0  0  0  0
  3 13  1  0  0  0  0
  4 15  1  0  0  0  0
  5  2  1  6  0  0  0
  5  7  1  0  0  0  0
  6  4  2  0  0  0  0
  6  9  1  0  0  0  0
  7 18  2  0  0  0  0
  8  6  1  0  0  0  0
  8 11  1  0  0  0  0
  9 12  2  0  0  0  0
 11 22  1  0  0  0  0
 11  2  2  0  0  0  0
 12 10  1  0  0  0  0
 13  7  1  0  0  0  0
 14  9  1  1  0  0  0
 14  5  1  0  0  0  0
 15 19  1  0  0  0  0
 15 10  2  0  0  0  0
 16 26  1  1  0  0  0
 16 17  1  0  0  0  0
 17 14  1  0  0  0  0
 17  3  1  1  0  0  0
 18 30  1  0  0  0  0
 20 19  1  0  0  0  0
 21 22  1  0  0  0  0
 23  1  1  0  0  0  0
 25 23  1  0  0  0  0
 25 24  1  0  0  0  0
 27 29  1  0  0  0  0
 27 26  1  0  0  0  0
 29 28  1  0  0  0  0
 30 32  1  0  0  0  0
 31 37  1  0  0  0  0
 32 33  1  0  0  0  0
 32 31  2  0  0  0  0
 33 36  2  0  0  0  0
 36 34  1  0  0  0  0
 36 35  1  0  0  0  0
 37 35  2  0  0  0  0
M  END
>  <MODEL>
7

>  <REMARK>
 VINA RESULT:      -6.2      4.497      6.663
  Name = 
  9 active torsions:
  status: ('A' for Active; 'I' for Inactive)
    1  A    between atoms: N_1  and  C_5
    2  A    between atoms: O_3  and  C_32
    3  A    between atoms: C_5  and  C_23
    4  A    between atoms: C_6  and  C_31
    5  A    between atoms: C_17  and  C_26
    6  A    between atoms: C_17  and  C_33
    7  A    between atoms: C_24  and  C_28
    8  A    between atoms: C_26  and  C_34
    9  A    between atoms: C_31  and  C_37
                            x       y       z     vdW  Elec       q    Type
                         _______ _______ _______ _____ _____    ______ ____

>  <TORSDO>
F 9

$$$$
=
 OpenBabel11052415233D

 37 41  0  0  1  0  0  0  0  0999 V2000
  182.6160  176.0680  137.4100 N   0  0  0  0  0  0  0  0  0  0  0  0
  180.2140  179.1860  139.9800 C   0  0  0  0  0  3  0  0  0  0  0  0
  182.7980  178.3800  136.5460 C   0  0  0  0  0  2  0  0  0  0  0  0
  183.5030  178.5590  142.6130 C   0  0  0  0  0  3  0  0  0  0  0  0
  181.3400  179.2000  138.9680 C   0  0  2  0  0  3  0  0  0  0  0  0
  182.6940  178.2050  141.5310 C   0  0  0  0  0  0  0  0  0  0  0  0
  180.8690  179.5560  137.5710 C   0  0  0  0  0  0  0  0  0  0  0  0
  181.2910  177.7380  141.7780 C   0  0  0  0  0  2  0  0  0  0  0  0
  183.2100  178.2460  140.2270 C   0  0  0  0  0  0  0  0  0  0  0  0
  185.3230  179.0630  141.1000 C   0  0  0  0  0  3  0  0  0  0  0  0
  180.2110  178.6350  141.2150 C   0  0  0  0  0  0  0  0  0  0  0  0
  184.5170  178.7090  140.0140 C   0  0  0  0  0  3  0  0  0  0  0  0
  181.3400  178.7680  136.3770 C   0  0  0  0  0  2  0  0  0  0  0  0
  182.2700  177.9830  139.0880 C   0  0  2  0  0  3  0  0  0  0  0  0
  184.8240  178.9870  142.4040 C   0  0  0  0  0  0  0  0  0  0  0  0
  183.9720  176.4480  137.8490 C   0  0  2  0  0  3  0  0  0  0  0  0
  182.9220  177.4810  137.7720 C   0  0  1  0  0  0  0  0  0  0  0  0
  180.0870  180.6320  137.4030 C   0  0  0  0  0  3  0  0  0  0  0  0
  185.6570  179.3440  143.4670 O   0  0  0  0  0  0  0  0  0  0  0  0
  185.1920  179.4440  144.8070 C   0  0  0  0  0  1  0  0  0  0  0  0
  179.1650  179.8090  142.9880 O   0  0  0  0  0  1  0  0  0  0  0  0
  178.9810  178.7950  142.0460 C   0  0  0  0  0  2  0  0  0  0  0  0
  182.0470  175.2940  138.5080 C   0  0  0  0  0  2  0  0  0  0  0  0
  181.3900  173.6030  136.9730 O   0  0  0  0  0  1  0  0  0  0  0  0
  180.9150  174.4310  137.9890 C   0  0  0  0  0  2  0  0  0  0  0  0
  184.9160  176.4400  136.6560 C   0  0  0  0  0  2  0  0  0  0  0  0
  186.3280  176.7150  137.1280 C   0  0  0  0  0  2  0  0  0  0  0  0
  186.8750  178.5230  135.5340 C   0  0  0  0  0  1  0  0  0  0  0  0
  186.6250  178.1930  136.9900 C   0  0  0  0  0  2  0  0  0  0  0  0
  179.5990  181.0940  136.0640 C   0  0  0  0  0  2  0  0  0  0  0  0
  179.3880  183.2340  134.7840 C   0  0  0  0  0  3  0  0  0  0  0  0
  179.9220  182.5350  135.8720 C   0  0  0  0  0  0  0  0  0  0  0  0
  180.7850  183.1840  136.7630 C   0  0  0  0  0  3  0  0  0  0  0  0
  181.9370  185.1600  137.4360 F   0  0  0  0  0  0  0  0  0  0  0  0
  180.5650  185.2310  135.4870 C   0  0  0  0  0  3  0  0  0  0  0  0
  181.1040  184.5310  136.5710 C   0  0  0  0  0  0  0  0  0  0  0  0
  179.7070  184.5820  134.5940 C   0  0  0  0  0  3  0  0  0  0  0  0
  1 17  1  0  0  0  0
  1 16  1  0  0  0  0
  1 23  1  0  0  0  0
  2 11  2  0  0  0  0
  5 14  1  0  0  0  0
  5  2  1  1  0  0  0
  6  8  1  0  0  0  0
  6  4  2  0  0  0  0
  7  5  1  0  0  0  0
  9  6  1  0  0  0  0
 10 15  2  0  0  0  0
 11  8  1  0  0  0  0
 11 22  1  0  0  0  0
 12  9  2  0  0  0  0
 12 10  1  0  0  0  0
 13  3  1  0  0  0  0
 13  7  1  0  0  0  0
 14  9  1  1  0  0  0
 15  4  1  0  0  0  0
 15 19  1  0  0  0  0
 16 26  1  6  0  0  0
 17  3  1  6  0  0  0
 17 16  1  0  0  0  0
 17 14  1  0  0  0  0
 18  7  2  0  0  0  0
 19 20  1  0  0  0  0
 22 21  1  0  0  0  0
 24 25  1  0  0  0  0
 25 23  1  0  0  0  0
 26 27  1  0  0  0  0
 28 29  1  0  0  0  0
 29 27  1  0  0  0  0
 30 18  1  0  0  0  0
 31 32  1  0  0  0  0
 32 30  1  0  0  0  0
 32 33  2  0  0  0  0
 35 36  2  0  0  0  0
 36 33  1  0  0  0  0
 36 34  1  0  0  0  0
 37 31  2  0  0  0  0
 37 35  1  0  0  0  0
M  END
>  <MODEL>
8

>  <REMARK>
 VINA RESULT:      -6.0      3.643      7.561
  Name = 
  9 active torsions:
  status: ('A' for Active; 'I' for Inactive)
    1  A    between atoms: N_1  and  C_5
    2  A    between atoms: O_3  and  C_32
    3  A    between atoms: C_5  and  C_23
    4  A    between atoms: C_6  and  C_31
    5  A    between atoms: C_17  and  C_26
    6  A    between atoms: C_17  and  C_33
    7  A    between atoms: C_24  and  C_28
    8  A    between atoms: C_26  and  C_34
    9  A    between atoms: C_31  and  C_37
                            x       y       z     vdW  Elec       q    Type
                         _______ _______ _______ _____ _____    ______ ____

>  <TORSDO>
F 9

$$$$
=
 OpenBabel11052415233D

 37 41  0  0  1  0  0  0  0  0999 V2000
  187.9380  176.8530  136.1200 N   0  0  0  0  0  0  0  0  0  0  0  0
  183.5310  177.5410  137.6050 C   0  0  0  0  0  3  0  0  0  0  0  0
  187.7270  176.7980  138.5850 C   0  0  0  0  0  2  0  0  0  0  0  0
  183.1370  173.5340  136.2140 C   0  0  0  0  0  3  0  0  0  0  0  0
  184.8200  176.9670  138.1540 C   0  0  2  0  0  3  0  0  0  0  0  0
  183.7940  174.7650  136.2850 C   0  0  0  0  0  0  0  0  0  0  0  0
  185.5750  177.9490  139.0290 C   0  0  0  0  0  0  0  0  0  0  0  0
  183.1830  175.9680  135.6320 C   0  0  0  0  0  2  0  0  0  0  0  0
  185.0380  174.8600  136.9270 C   0  0  0  0  0  0  0  0  0  0  0  0
  184.9200  172.4990  137.4800 C   0  0  0  0  0  3  0  0  0  0  0  0
  182.7810  177.0750  136.5810 C   0  0  0  0  0  0  0  0  0  0  0  0
  185.5810  173.7280  137.5530 C   0  0  0  0  0  3  0  0  0  0  0  0
  187.0620  178.1320  138.8740 C   0  0  0  0  0  2  0  0  0  0  0  0
  185.6450  176.2220  137.0930 C   0  0  2  0  0  3  0  0  0  0  0  0
  183.6990  172.3930  136.8080 C   0  0  0  0  0  0  0  0  0  0  0  0
  188.0190  175.4070  136.3970 C   0  0  2  0  0  3  0  0  0  0  0  0
  187.1860  176.2620  137.2630 C   0  0  1  0  0  0  0  0  0  0  0  0
  184.9140  178.5990  139.9970 C   0  0  0  0  0  3  0  0  0  0  0  0
  183.0660  171.1490  136.7500 O   0  0  0  0  0  0  0  0  0  0  0  0
  183.4870  170.1140  135.8710 C   0  0  0  0  0  1  0  0  0  0  0  0
  180.8160  178.0930  137.4290 O   0  0  0  0  0  1  0  0  0  0  0  0
  181.5170  177.8010  136.2580 C   0  0  0  0  0  2  0  0  0  0  0  0
  187.1440  176.9780  134.9020 C   0  0  0  0  0  2  0  0  0  0  0  0
  187.1680  179.1910  135.7690 O   0  0  0  0  0  1  0  0  0  0  0  0
  186.8410  178.4400  134.6410 C   0  0  0  0  0  2  0  0  0  0  0  0
  189.3820  175.0760  136.9870 C   0  0  0  0  0  2  0  0  0  0  0  0
  190.4520  175.8590  136.2550 C   0  0  0  0  0  2  0  0  0  0  0  0
  191.2720  176.2570  138.5520 C   0  0  0  0  0  1  0  0  0  0  0  0
  191.6850  175.9590  137.1260 C   0  0  0  0  0  2  0  0  0  0  0  0
  185.5690  179.5590  140.9410 C   0  0  0  0  0  2  0  0  0  0  0  0
  186.8300  178.1240  142.5580 C   0  0  0  0  0  3  0  0  0  0  0  0
  185.7220  178.9330  142.2830 C   0  0  0  0  0  0  0  0  0  0  0  0
  184.7420  179.1290  143.2630 C   0  0  0  0  0  3  0  0  0  0  0  0
  183.9280  178.7190  145.4660 F   0  0  0  0  0  0  0  0  0  0  0  0
  185.9860  177.7220  144.7920 C   0  0  0  0  0  3  0  0  0  0  0  0
  184.8760  178.5260  144.5170 C   0  0  0  0  0  0  0  0  0  0  0  0
  186.9630  177.5210  143.8120 C   0  0  0  0  0  3  0  0  0  0  0  0
  1 16  1  0  0  0  0
  1 17  1  0  0  0  0
  3 13  1  0  0  0  0
  4  6  2  0  0  0  0
  4 15  1  0  0  0  0
  5  2  1  6  0  0  0
  5  7  1  0  0  0  0
  6  9  1  0  0  0  0
  7 18  2  0  0  0  0
  8  6  1  0  0  0  0
  8 11  1  0  0  0  0
  9 12  2  0  0  0  0
 10 12  1  0  0  0  0
 11  2  2  0  0  0  0
 13  7  1  0  0  0  0
 14  9  1  1  0  0  0
 14 17  1  0  0  0  0
 14  5  1  0  0  0  0
 15 10  2  0  0  0  0
 16 26  1  1  0  0  0
 16 17  1  0  0  0  0
 17  3  1  1  0  0  0
 18 30  1  0  0  0  0
 19 15  1  0  0  0  0
 20 19  1  0  0  0  0
 22 11  1  0  0  0  0
 22 21  1  0  0  0  0
 23  1  1  0  0  0  0
 25 23  1  0  0  0  0
 25 24  1  0  0  0  0
 27 26  1  0  0  0  0
 27 29  1  0  0  0  0
 29 28  1  0  0  0  0
 30 32  1  0  0  0  0
 31 37  1  0  0  0  0
 32 31  2  0  0  0  0
 32 33  1  0  0  0  0
 33 36  2  0  0  0  0
 36 35  1  0  0  0  0
 36 34  1  0  0  0  0
 37 35  2  0  0  0  0
M  END
>  <MODEL>
9

>  <REMARK>
 VINA RESULT:      -5.8      3.375      5.493
  Name = 
  9 active torsions:
  status: ('A' for Active; 'I' for Inactive)
    1  A    between atoms: N_1  and  C_5
    2  A    between atoms: O_3  and  C_32
    3  A    between atoms: C_5  and  C_23
    4  A    between atoms: C_6  and  C_31
    5  A    between atoms: C_17  and  C_26
    6  A    between atoms: C_17  and  C_33
    7  A    between atoms: C_24  and  C_28
    8  A    between atoms: C_26  and  C_34
    9  A    between atoms: C_31  and  C_37
                            x       y       z     vdW  Elec       q    Type
                         _______ _______ _______ _____ _____    ______ ____

>  <TORSDO>
F 9

$$$$
