=
 OpenBabel11052413443D

 27 31  0  0  0  0  0  0  0  0999 V2000
  187.3490  178.6280  141.3720 C   0  0  0  0  0  3  0  0  0  0  0  0
  187.4850  177.8350  143.7680 C   0  0  0  0  0  0  0  0  0  0  0  0
  189.6710  177.2570  142.7580 C   0  0  0  0  0  3  0  0  0  0  0  0
  189.6190  177.1150  147.4500 C   0  0  0  0  0  2  0  0  0  0  0  0
  191.9960  176.2920  147.5350 N   0  0  0  0  0  1  0  0  0  0  0  0
  186.7820  177.8420  145.0050 C   0  0  0  0  0  3  0  0  0  0  0  0
  190.8510  177.0340  145.4570 C   0  0  0  0  0  0  0  0  0  0  0  0
  190.2010  176.2790  139.1460 C   0  0  0  0  0  3  0  0  0  0  0  0
  191.8200  176.8470  144.6740 O   0  0  0  0  0  0  0  0  0  0  0  0
  189.8650  177.1620  138.2110 C   0  0  0  0  0  3  0  0  0  0  0  0
  189.4850  177.3570  145.0750 C   0  0  0  0  0  0  0  0  0  0  0  0
  186.7720  178.1750  142.6530 C   0  0  0  0  0  0  0  0  0  0  0  0
  190.9440  176.9330  146.8690 N   0  0  0  0  0  0  0  0  0  0  0  0
  188.7660  177.4020  146.2490 C   0  0  0  0  0  0  0  0  0  0  0  0
  188.4650  178.2680  140.7540 C   0  0  0  0  0  0  0  0  0  0  0  0
  188.8890  177.5290  143.8090 C   0  0  0  0  0  0  0  0  0  0  0  0
  190.1320  176.4420  140.6050 C   0  0  0  0  0  3  0  0  0  0  0  0
  187.4020  177.6230  146.2370 C   0  0  0  0  0  3  0  0  0  0  0  0
  189.3270  178.5100  138.4110 C   0  0  0  0  0  3  0  0  0  0  0  0
  188.7210  178.9810  139.4970 C   0  0  0  0  0  3  0  0  0  0  0  0
  189.3940  177.2870  141.3260 C   0  0  0  0  0  0  0  0  0  0  0  0
  182.5410  178.6730  142.7820 N   0  0  0  0  0  0  0  0  0  0  0  0
  185.2910  178.3290  142.7040 C   0  0  0  0  0  0  0  0  0  0  0  0
  184.5150  178.1270  141.5540 C   0  0  0  0  0  3  0  0  0  0  0  0
  183.1310  178.3010  141.6150 C   0  0  0  0  0  3  0  0  0  0  0  0
  183.2690  178.8880  143.9110 C   0  0  0  0  0  3  0  0  0  0  0  0
  184.6560  178.7230  143.8910 C   0  0  0  0  0  3  0  0  0  0  0  0
  1 12  1  0  0  0  0
  2 16  1  0  0  0  0
  2  6  1  0  0  0  0
  3 16  2  0  0  0  0
  6 18  2  0  0  0  0
  7 13  1  0  0  0  0
  8 17  1  0  0  0  0
  9  7  2  0  0  0  0
 10 19  1  0  0  0  0
 10  8  2  0  0  0  0
 11  7  1  0  0  0  0
 11 14  2  0  0  0  0
 12 23  1  0  0  0  0
 12  2  2  0  0  0  0
 13  4  1  0  0  0  0
 13  5  1  0  0  0  0
 14  4  1  0  0  0  0
 15 21  1  0  0  0  0
 15  1  2  0  0  0  0
 16 11  1  0  0  0  0
 17 21  2  0  0  0  0
 18 14  1  0  0  0  0
 19 20  2  0  0  0  0
 20 15  1  0  0  0  0
 21  3  1  0  0  0  0
 22 26  1  0  0  0  0
 23 27  1  0  0  0  0
 24 25  1  0  0  0  0
 24 23  2  0  0  0  0
 25 22  2  0  0  0  0
 27 26  2  0  0  0  0
M  END
>  <MODEL>
1

>  <REMARK>
 VINA RESULT:     -11.0      0.000      0.000
  Name = 
  1 active torsions:
  status: ('A' for Active; 'I' for Inactive)
    1  A    between atoms: C_9  and  C_15
                            x       y       z     vdW  Elec       q    Type
                         _______ _______ _______ _____ _____    ______ ____

>  <TORSDO>
F 1

$$$$
=
 OpenBabel11052413443D

 27 31  0  0  0  0  0  0  0  0999 V2000
  188.3340  177.0360  143.8590 C   0  0  0  0  0  3  0  0  0  0  0  0
  186.1470  178.1320  144.4940 C   0  0  0  0  0  0  0  0  0  0  0  0
  186.2190  178.1900  142.0180 C   0  0  0  0  0  3  0  0  0  0  0  0
  181.9720  179.0120  143.8420 C   0  0  0  0  0  2  0  0  0  0  0  0
  180.9840  179.4340  141.5660 N   0  0  0  0  0  1  0  0  0  0  0  0
  185.3030  178.4190  145.6030 C   0  0  0  0  0  3  0  0  0  0  0  0
  183.2950  178.6000  141.9500 C   0  0  0  0  0  0  0  0  0  0  0  0
  189.3610  178.5380  139.9480 C   0  0  0  0  0  3  0  0  0  0  0  0
  183.6280  178.5110  140.7380 O   0  0  0  0  0  0  0  0  0  0  0  0
  190.2920  177.5970  140.0740 C   0  0  0  0  0  3  0  0  0  0  0  0
  184.1750  178.4560  143.0980 C   0  0  0  0  0  0  0  0  0  0  0  0
  187.4310  177.7580  144.7760 C   0  0  0  0  0  0  0  0  0  0  0  0
  181.9760  178.8870  142.3890 N   0  0  0  0  0  0  0  0  0  0  0  0
  183.3940  178.7000  144.2060 C   0  0  0  0  0  0  0  0  0  0  0  0
  188.4690  177.1150  142.5430 C   0  0  0  0  0  0  0  0  0  0  0  0
  185.5600  178.2040  143.1830 C   0  0  0  0  0  0  0  0  0  0  0  0
  188.0480  178.5990  140.6050 C   0  0  0  0  0  3  0  0  0  0  0  0
  183.9430  178.7080  145.4740 C   0  0  0  0  0  3  0  0  0  0  0  0
  190.2390  176.3990  140.9160 C   0  0  0  0  0  3  0  0  0  0  0  0
  189.4640  176.1960  141.9770 C   0  0  0  0  0  3  0  0  0  0  0  0
  187.6350  178.0000  141.7230 C   0  0  0  0  0  0  0  0  0  0  0  0
  188.9720  177.9910  148.7420 N   0  0  0  0  0  0  0  0  0  0  0  0
  187.9750  177.8590  146.1590 C   0  0  0  0  0  0  0  0  0  0  0  0
  189.3020  177.5000  146.4290 C   0  0  0  0  0  3  0  0  0  0  0  0
  189.7870  177.5770  147.7360 C   0  0  0  0  0  3  0  0  0  0  0  0
  187.6770  178.3360  148.5130 C   0  0  0  0  0  3  0  0  0  0  0  0
  187.1540  178.2720  147.2190 C   0  0  0  0  0  3  0  0  0  0  0  0
  1 12  1  0  0  0  0
  2 12  2  0  0  0  0
  2  6  1  0  0  0  0
  3 16  2  0  0  0  0
  4 14  1  0  0  0  0
  5 13  1  0  0  0  0
  7 13  1  0  0  0  0
  7 11  1  0  0  0  0
  8 10  2  0  0  0  0
  8 17  1  0  0  0  0
  9  7  2  0  0  0  0
 10 19  1  0  0  0  0
 11 16  1  0  0  0  0
 11 14  2  0  0  0  0
 12 23  1  0  0  0  0
 13  4  1  0  0  0  0
 14 18  1  0  0  0  0
 15  1  2  0  0  0  0
 16  2  1  0  0  0  0
 17 21  2  0  0  0  0
 18  6  2  0  0  0  0
 19 20  2  0  0  0  0
 20 15  1  0  0  0  0
 21  3  1  0  0  0  0
 21 15  1  0  0  0  0
 23 24  2  0  0  0  0
 23 27  1  0  0  0  0
 24 25  1  0  0  0  0
 25 22  2  0  0  0  0
 26 22  1  0  0  0  0
 27 26  2  0  0  0  0
M  END
>  <MODEL>
2

>  <REMARK>
 VINA RESULT:     -11.0      2.231      5.990
  Name = 
  1 active torsions:
  status: ('A' for Active; 'I' for Inactive)
    1  A    between atoms: C_9  and  C_15
                            x       y       z     vdW  Elec       q    Type
                         _______ _______ _______ _____ _____    ______ ____

>  <TORSDO>
F 1

$$$$
=
 OpenBabel11052413443D

 27 31  0  0  0  0  0  0  0  0999 V2000
  186.6990  178.7200  141.1580 C   0  0  0  0  0  3  0  0  0  0  0  0
  186.5120  178.1000  143.6010 C   0  0  0  0  0  0  0  0  0  0  0  0
  188.8490  177.5790  142.9650 C   0  0  0  0  0  3  0  0  0  0  0  0
  188.1040  177.7530  147.5970 C   0  0  0  0  0  2  0  0  0  0  0  0
  190.4780  177.0740  148.0900 N   0  0  0  0  0  1  0  0  0  0  0  0
  185.6340  178.1520  144.7190 C   0  0  0  0  0  3  0  0  0  0  0  0
  189.6230  177.6070  145.8160 C   0  0  0  0  0  0  0  0  0  0  0  0
  189.9560  176.3900  139.5540 C   0  0  0  0  0  3  0  0  0  0  0  0
  190.7050  177.4220  145.1990 O   0  0  0  0  0  0  0  0  0  0  0  0
  189.7230  177.1870  138.5160 C   0  0  0  0  0  3  0  0  0  0  0  0
  188.3150  177.8260  145.2170 C   0  0  0  0  0  0  0  0  0  0  0  0
  185.9580  178.3220  142.3710 C   0  0  0  0  0  0  0  0  0  0  0  0
  189.5090  177.6080  147.2310 N   0  0  0  0  0  0  0  0  0  0  0  0
  187.4280  177.9100  146.2670 C   0  0  0  0  0  0  0  0  0  0  0  0
  187.9100  178.3820  140.7370 C   0  0  0  0  0  0  0  0  0  0  0  0
  187.9080  177.8780  143.8680 C   0  0  0  0  0  0  0  0  0  0  0  0
  189.6630  176.6480  140.9700 C   0  0  0  0  0  3  0  0  0  0  0  0
  186.0720  178.0520  146.0410 C   0  0  0  0  0  3  0  0  0  0  0  0
  189.1000  178.5130  138.5330 C   0  0  0  0  0  3  0  0  0  0  0  0
  188.3180  179.0210  139.4810 C   0  0  0  0  0  3  0  0  0  0  0  0
  188.7870  177.4960  141.5110 C   0  0  0  0  0  0  0  0  0  0  0  0
  181.7270  178.4810  141.8940 N   0  0  0  0  0  0  0  0  0  0  0  0
  184.4810  178.3960  142.1950 C   0  0  0  0  0  0  0  0  0  0  0  0
  183.6730  178.9550  143.1930 C   0  0  0  0  0  3  0  0  0  0  0  0
  182.2880  178.9930  143.0210 C   0  0  0  0  0  3  0  0  0  0  0  0
  182.4840  177.9220  140.9120 C   0  0  0  0  0  3  0  0  0  0  0  0
  183.8740  177.8660  141.0470 C   0  0  0  0  0  3  0  0  0  0  0  0
  1 12  1  0  0  0  0
  2 16  1  0  0  0  0
  2  6  1  0  0  0  0
  3 16  2  0  0  0  0
  6 18  2  0  0  0  0
  7 13  1  0  0  0  0
  8 17  1  0  0  0  0
  9  7  2  0  0  0  0
 10 19  1  0  0  0  0
 10  8  2  0  0  0  0
 11  7  1  0  0  0  0
 11 14  2  0  0  0  0
 12  2  2  0  0  0  0
 13  4  1  0  0  0  0
 13  5  1  0  0  0  0
 14  4  1  0  0  0  0
 15  1  2  0  0  0  0
 15 21  1  0  0  0  0
 16 11  1  0  0  0  0
 17 21  2  0  0  0  0
 18 14  1  0  0  0  0
 19 20  2  0  0  0  0
 20 15  1  0  0  0  0
 21  3  1  0  0  0  0
 22 25  1  0  0  0  0
 23 12  1  0  0  0  0
 23 24  1  0  0  0  0
 25 24  2  0  0  0  0
 26 27  1  0  0  0  0
 26 22  2  0  0  0  0
 27 23  2  0  0  0  0
M  END
>  <MODEL>
3

>  <REMARK>
 VINA RESULT:      -9.7      0.965      1.429
  Name = 
  1 active torsions:
  status: ('A' for Active; 'I' for Inactive)
    1  A    between atoms: C_9  and  C_15
                            x       y       z     vdW  Elec       q    Type
                         _______ _______ _______ _____ _____    ______ ____

>  <TORSDO>
F 1

$$$$
=
 OpenBabel11052413443D

 27 31  0  0  0  0  0  0  0  0999 V2000
  189.4220  178.4820  141.7690 C   0  0  0  0  0  3  0  0  0  0  0  0
  186.9850  178.2420  141.1450 C   0  0  0  0  0  0  0  0  0  0  0  0
  187.0530  178.0790  143.6160 C   0  0  0  0  0  3  0  0  0  0  0  0
  182.7720  178.8560  141.8520 C   0  0  0  0  0  2  0  0  0  0  0  0
  181.7170  178.7290  144.1340 N   0  0  0  0  0  1  0  0  0  0  0  0
  186.0850  178.3050  140.0450 C   0  0  0  0  0  3  0  0  0  0  0  0
  184.1700  178.7150  143.7300 C   0  0  0  0  0  0  0  0  0  0  0  0
  189.8910  176.5860  145.6150 C   0  0  0  0  0  3  0  0  0  0  0  0
  184.5230  178.6420  144.9360 O   0  0  0  0  0  0  0  0  0  0  0  0
  191.0910  177.1450  145.4980 C   0  0  0  0  0  3  0  0  0  0  0  0
  185.0360  178.5810  142.5690 C   0  0  0  0  0  0  0  0  0  0  0  0
  188.3160  178.1530  140.8490 C   0  0  0  0  0  0  0  0  0  0  0  0
  182.8310  178.9230  143.3080 N   0  0  0  0  0  0  0  0  0  0  0  0
  184.2100  178.6630  141.4690 C   0  0  0  0  0  0  0  0  0  0  0  0
  189.5320  178.3170  143.0790 C   0  0  0  0  0  0  0  0  0  0  0  0
  186.4210  178.3350  142.4650 C   0  0  0  0  0  0  0  0  0  0  0  0
  188.6340  177.0090  144.9820 C   0  0  0  0  0  3  0  0  0  0  0  0
  184.7110  178.5060  140.1910 C   0  0  0  0  0  3  0  0  0  0  0  0
  191.4540  178.3140  144.6910 C   0  0  0  0  0  3  0  0  0  0  0  0
  190.7900  178.8100  143.6510 C   0  0  0  0  0  3  0  0  0  0  0  0
  188.4470  177.7520  143.8890 C   0  0  0  0  0  0  0  0  0  0  0  0
  189.6960  177.4840  136.8730 N   0  0  0  0  0  0  0  0  0  0  0  0
  188.7790  177.9140  139.4530 C   0  0  0  0  0  0  0  0  0  0  0  0
  189.2500  176.6520  139.0660 C   0  0  0  0  0  3  0  0  0  0  0  0
  189.7030  176.4550  137.7610 C   0  0  0  0  0  3  0  0  0  0  0  0
  189.2550  178.7220  137.2220 C   0  0  0  0  0  3  0  0  0  0  0  0
  188.7930  178.9600  138.5190 C   0  0  0  0  0  3  0  0  0  0  0  0
  1 15  1  0  0  0  0
  2 16  1  0  0  0  0
  3 21  2  0  0  0  0
  4 13  1  0  0  0  0
  6 18  1  0  0  0  0
  6  2  2  0  0  0  0
  7  9  2  0  0  0  0
 10  8  1  0  0  0  0
 11  7  1  0  0  0  0
 12  2  1  0  0  0  0
 12  1  2  0  0  0  0
 13  7  1  0  0  0  0
 13  5  1  0  0  0  0
 14  4  1  0  0  0  0
 14 11  1  0  0  0  0
 15 20  2  0  0  0  0
 15 21  1  0  0  0  0
 16 11  2  0  0  0  0
 16  3  1  0  0  0  0
 17  8  2  0  0  0  0
 18 14  2  0  0  0  0
 19 10  2  0  0  0  0
 20 19  1  0  0  0  0
 21 17  1  0  0  0  0
 22 26  2  0  0  0  0
 22 25  1  0  0  0  0
 23 12  1  0  0  0  0
 24 23  1  0  0  0  0
 25 24  2  0  0  0  0
 26 27  1  0  0  0  0
 27 23  2  0  0  0  0
M  END
>  <MODEL>
4

>  <REMARK>
 VINA RESULT:      -9.7      3.178      6.378
  Name = 
  1 active torsions:
  status: ('A' for Active; 'I' for Inactive)
    1  A    between atoms: C_9  and  C_15
                            x       y       z     vdW  Elec       q    Type
                         _______ _______ _______ _____ _____    ______ ____

>  <TORSDO>
F 1

$$$$
=
 OpenBabel11052413443D

 27 31  0  0  0  0  0  0  0  0999 V2000
  186.4980  177.4310  145.1600 C   0  0  0  0  0  3  0  0  0  0  0  0
  187.4180  177.9980  142.8750 C   0  0  0  0  0  0  0  0  0  0  0  0
  189.4000  177.7320  144.3370 C   0  0  0  0  0  3  0  0  0  0  0  0
  190.3680  177.6650  139.7430 C   0  0  0  0  0  2  0  0  0  0  0  0
  192.8420  177.5000  140.1820 N   0  0  0  0  0  1  0  0  0  0  0  0
  187.0370  178.2060  141.5210 C   0  0  0  0  0  3  0  0  0  0  0  0
  191.1000  177.3560  141.9500 C   0  0  0  0  0  0  0  0  0  0  0  0
  189.5160  178.5960  148.0140 C   0  0  0  0  0  3  0  0  0  0  0  0
  191.8830  177.1900  142.9230 O   0  0  0  0  0  0  0  0  0  0  0  0
  188.6810  177.9560  148.8260 C   0  0  0  0  0  3  0  0  0  0  0  0
  189.6690  177.6040  142.0290 C   0  0  0  0  0  0  0  0  0  0  0  0
  186.4170  178.0130  143.8060 C   0  0  0  0  0  0  0  0  0  0  0  0
  191.5120  177.3470  140.5920 N   0  0  0  0  0  0  0  0  0  0  0  0
  189.2450  177.7860  140.7310 C   0  0  0  0  0  0  0  0  0  0  0  0
  187.5140  177.3600  146.0090 C   0  0  0  0  0  0  0  0  0  0  0  0
  188.8070  177.7350  143.1370 C   0  0  0  0  0  0  0  0  0  0  0  0
  189.6900  178.4040  146.5680 C   0  0  0  0  0  3  0  0  0  0  0  0
  187.9310  178.1110  140.4520 C   0  0  0  0  0  3  0  0  0  0  0  0
  187.7150  176.9120  148.4680 C   0  0  0  0  0  3  0  0  0  0  0  0
  187.2110  176.6630  147.2640 C   0  0  0  0  0  3  0  0  0  0  0  0
  188.8460  177.8780  145.6780 C   0  0  0  0  0  0  0  0  0  0  0  0
  182.4480  179.1840  142.7890 N   0  0  0  0  0  0  0  0  0  0  0  0
  185.0370  178.4410  143.4450 C   0  0  0  0  0  0  0  0  0  0  0  0
  184.1920  179.0060  144.4100 C   0  0  0  0  0  3  0  0  0  0  0  0
  182.8930  179.3780  144.0590 C   0  0  0  0  0  3  0  0  0  0  0  0
  183.2400  178.6280  141.8340 C   0  0  0  0  0  3  0  0  0  0  0  0
  184.5470  178.2430  142.1460 C   0  0  0  0  0  3  0  0  0  0  0  0
  1 15  1  0  0  0  0
  2 16  1  0  0  0  0
  2 12  1  0  0  0  0
  3 21  2  0  0  0  0
  4 13  1  0  0  0  0
  4 14  1  0  0  0  0
  5 13  1  0  0  0  0
  6  2  2  0  0  0  0
  7 11  1  0  0  0  0
  7  9  2  0  0  0  0
  8 10  1  0  0  0  0
 11 16  2  0  0  0  0
 12  1  2  0  0  0  0
 13  7  1  0  0  0  0
 14 11  1  0  0  0  0
 15 20  2  0  0  0  0
 16  3  1  0  0  0  0
 17  8  2  0  0  0  0
 18 14  2  0  0  0  0
 18  6  1  0  0  0  0
 19 10  2  0  0  0  0
 20 19  1  0  0  0  0
 21 15  1  0  0  0  0
 21 17  1  0  0  0  0
 22 25  1  0  0  0  0
 23 12  1  0  0  0  0
 23 24  1  0  0  0  0
 25 24  2  0  0  0  0
 26 27  1  0  0  0  0
 26 22  2  0  0  0  0
 27 23  2  0  0  0  0
M  END
>  <MODEL>
5

>  <REMARK>
 VINA RESULT:      -9.5      2.108      5.331
  Name = 
  1 active torsions:
  status: ('A' for Active; 'I' for Inactive)
    1  A    between atoms: C_9  and  C_15
                            x       y       z     vdW  Elec       q    Type
                         _______ _______ _______ _____ _____    ______ ____

>  <TORSDO>
F 1

$$$$
=
 OpenBabel11052413443D

 27 31  0  0  0  0  0  0  0  0999 V2000
  186.3370  178.7730  144.4910 C   0  0  0  0  0  3  0  0  0  0  0  0
  188.2070  177.8010  143.0960 C   0  0  0  0  0  0  0  0  0  0  0  0
  186.3760  178.2830  141.4990 C   0  0  0  0  0  3  0  0  0  0  0  0
  190.5480  177.5330  139.4800 C   0  0  0  0  0  2  0  0  0  0  0  0
  189.5600  177.7300  137.1730 N   0  0  0  0  0  1  0  0  0  0  0  0
  189.5610  177.3680  143.1610 C   0  0  0  0  0  3  0  0  0  0  0  0
  188.3120  178.2090  139.2690 C   0  0  0  0  0  0  0  0  0  0  0  0
  182.6890  178.0700  142.2980 C   0  0  0  0  0  3  0  0  0  0  0  0
  187.2210  178.5280  138.7270 O   0  0  0  0  0  0  0  0  0  0  0  0
  182.2190  178.8570  143.2610 C   0  0  0  0  0  3  0  0  0  0  0  0
  188.5400  178.0030  140.6900 C   0  0  0  0  0  0  0  0  0  0  0  0
  187.5560  177.9660  144.2860 C   0  0  0  0  0  0  0  0  0  0  0  0
  189.5130  177.9740  138.5500 N   0  0  0  0  0  0  0  0  0  0  0  0
  189.8540  177.6050  140.8080 C   0  0  0  0  0  0  0  0  0  0  0  0
  185.2920  178.9730  143.6990 C   0  0  0  0  0  0  0  0  0  0  0  0
  187.6660  178.0830  141.7940 C   0  0  0  0  0  0  0  0  0  0  0  0
  184.0620  178.0050  141.7800 C   0  0  0  0  0  3  0  0  0  0  0  0
  190.3830  177.2600  142.0370 C   0  0  0  0  0  3  0  0  0  0  0  0
  182.9650  179.8380  144.0540 C   0  0  0  0  0  3  0  0  0  0  0  0
  184.2790  179.8830  144.2470 C   0  0  0  0  0  3  0  0  0  0  0  0
  185.2030  178.3830  142.3590 C   0  0  0  0  0  0  0  0  0  0  0  0
  189.3080  176.7050  147.9600 N   0  0  0  0  0  0  0  0  0  0  0  0
  188.1630  177.5060  145.5660 C   0  0  0  0  0  0  0  0  0  0  0  0
  187.4090  177.4960  146.7480 C   0  0  0  0  0  3  0  0  0  0  0  0
  188.0030  177.0850  147.9430 C   0  0  0  0  0  3  0  0  0  0  0  0
  190.0680  176.7150  146.8320 C   0  0  0  0  0  3  0  0  0  0  0  0
  189.5100  177.1190  145.6170 C   0  0  0  0  0  3  0  0  0  0  0  0
  2  6  1  0  0  0  0
  2 12  2  0  0  0  0
  3 16  2  0  0  0  0
  3 21  1  0  0  0  0
  4 14  1  0  0  0  0
  5 13  1  0  0  0  0
  7 11  1  0  0  0  0
  8 10  2  0  0  0  0
  9  7  2  0  0  0  0
 10 19  1  0  0  0  0
 11 14  2  0  0  0  0
 11 16  1  0  0  0  0
 12  1  1  0  0  0  0
 12 23  1  0  0  0  0
 13  7  1  0  0  0  0
 13  4  1  0  0  0  0
 14 18  1  0  0  0  0
 15 20  1  0  0  0  0
 15  1  2  0  0  0  0
 16  2  1  0  0  0  0
 17  8  1  0  0  0  0
 17 21  2  0  0  0  0
 18  6  2  0  0  0  0
 19 20  2  0  0  0  0
 21 15  1  0  0  0  0
 23 27  2  0  0  0  0
 23 24  1  0  0  0  0
 24 25  2  0  0  0  0
 25 22  1  0  0  0  0
 26 22  2  0  0  0  0
 27 26  1  0  0  0  0
M  END
>  <MODEL>
6

>  <REMARK>
 VINA RESULT:      -9.4      2.928      6.435
  Name = 
  1 active torsions:
  status: ('A' for Active; 'I' for Inactive)
    1  A    between atoms: C_9  and  C_15
                            x       y       z     vdW  Elec       q    Type
                         _______ _______ _______ _____ _____    ______ ____

>  <TORSDO>
F 1

$$$$
=
 OpenBabel11052413443D

 27 31  0  0  0  0  0  0  0  0999 V2000
  187.5670  177.4700  143.9830 C   0  0  0  0  0  3  0  0  0  0  0  0
  186.7010  178.2630  141.7450 C   0  0  0  0  0  0  0  0  0  0  0  0
  189.1490  178.0210  141.4570 C   0  0  0  0  0  3  0  0  0  0  0  0
  186.7570  178.3570  137.4310 C   0  0  0  0  0  2  0  0  0  0  0  0
  188.8750  178.3220  136.0720 N   0  0  0  0  0  1  0  0  0  0  0  0
  185.5040  178.5440  141.0290 C   0  0  0  0  0  3  0  0  0  0  0  0
  188.7870  177.9340  138.5260 C   0  0  0  0  0  0  0  0  0  0  0  0
  191.7210  178.6170  144.1590 C   0  0  0  0  0  3  0  0  0  0  0  0
  190.0210  177.7490  138.6960 O   0  0  0  0  0  0  0  0  0  0  0  0
  191.6540  177.8650  145.2540 C   0  0  0  0  0  3  0  0  0  0  0  0
  187.7860  178.0810  139.5710 C   0  0  0  0  0  0  0  0  0  0  0  0
  186.5920  178.1430  143.1030 C   0  0  0  0  0  0  0  0  0  0  0  0
  188.1720  178.0530  137.2520 N   0  0  0  0  0  0  0  0  0  0  0  0
  186.5960  178.3300  138.9230 C   0  0  0  0  0  0  0  0  0  0  0  0
  188.8890  177.4040  143.9150 C   0  0  0  0  0  0  0  0  0  0  0  0
  187.9010  178.0730  140.9770 C   0  0  0  0  0  0  0  0  0  0  0  0
  190.8710  178.5440  142.9630 C   0  0  0  0  0  3  0  0  0  0  0  0
  185.4410  178.5870  139.6350 C   0  0  0  0  0  3  0  0  0  0  0  0
  190.7000  176.7890  145.5380 C   0  0  0  0  0  3  0  0  0  0  0  0
  189.5130  176.5970  144.9700 C   0  0  0  0  0  3  0  0  0  0  0  0
  189.6480  178.0310  142.8270 C   0  0  0  0  0  0  0  0  0  0  0  0
  182.9740  179.1200  145.1300 N   0  0  0  0  0  0  0  0  0  0  0  0
  185.3320  178.5050  143.8090 C   0  0  0  0  0  0  0  0  0  0  0  0
  185.3110  178.6360  145.2040 C   0  0  0  0  0  3  0  0  0  0  0  0
  184.1140  178.9510  145.8500 C   0  0  0  0  0  3  0  0  0  0  0  0
  182.9600  178.9890  143.7770 C   0  0  0  0  0  3  0  0  0  0  0  0
  184.1380  178.6750  143.0930 C   0  0  0  0  0  3  0  0  0  0  0  0
  2 12  1  0  0  0  0
  3 21  2  0  0  0  0
  4 14  1  0  0  0  0
  5 13  1  0  0  0  0
  6  2  1  0  0  0  0
  7  9  2  0  0  0  0
  7 11  1  0  0  0  0
  8 10  1  0  0  0  0
 10 19  2  0  0  0  0
 11 16  1  0  0  0  0
 12 23  1  0  0  0  0
 12  1  2  0  0  0  0
 13  4  1  0  0  0  0
 13  7  1  0  0  0  0
 14 11  2  0  0  0  0
 14 18  1  0  0  0  0
 15  1  1  0  0  0  0
 15 20  2  0  0  0  0
 16  3  1  0  0  0  0
 16  2  2  0  0  0  0
 17  8  2  0  0  0  0
 18  6  2  0  0  0  0
 20 19  1  0  0  0  0
 21 17  1  0  0  0  0
 21 15  1  0  0  0  0
 22 25  1  0  0  0  0
 23 24  1  0  0  0  0
 24 25  2  0  0  0  0
 26 22  2  0  0  0  0
 27 26  1  0  0  0  0
 27 23  2  0  0  0  0
M  END
>  <MODEL>
7

>  <REMARK>
 VINA RESULT:      -9.4      3.046      5.703
  Name = 
  1 active torsions:
  status: ('A' for Active; 'I' for Inactive)
    1  A    between atoms: C_9  and  C_15
                            x       y       z     vdW  Elec       q    Type
                         _______ _______ _______ _____ _____    ______ ____

>  <TORSDO>
F 1

$$$$
=
 OpenBabel11052413443D

 27 31  0  0  0  0  0  0  0  0999 V2000
  189.0890  178.2830  143.3330 C   0  0  0  0  0  3  0  0  0  0  0  0
  186.7990  178.1670  142.2690 C   0  0  0  0  0  0  0  0  0  0  0  0
  186.4010  178.0250  144.7100 C   0  0  0  0  0  3  0  0  0  0  0  0
  182.5680  179.0130  142.1850 C   0  0  0  0  0  2  0  0  0  0  0  0
  181.1040  178.9650  144.2330 N   0  0  0  0  0  1  0  0  0  0  0  0
  186.1240  178.2690  141.0220 C   0  0  0  0  0  3  0  0  0  0  0  0
  183.5860  178.8160  144.2890 C   0  0  0  0  0  0  0  0  0  0  0  0
  188.7350  176.4020  147.1990 C   0  0  0  0  0  3  0  0  0  0  0  0
  183.7050  178.7350  145.5400 O   0  0  0  0  0  0  0  0  0  0  0  0
  189.9650  176.8950  147.3060 C   0  0  0  0  0  3  0  0  0  0  0  0
  184.6430  178.6240  143.3080 C   0  0  0  0  0  0  0  0  0  0  0  0
  188.1560  178.0050  142.2240 C   0  0  0  0  0  0  0  0  0  0  0  0
  182.3610  179.0900  143.6270 N   0  0  0  0  0  0  0  0  0  0  0  0
  184.0400  178.7400  142.0750 C   0  0  0  0  0  0  0  0  0  0  0  0
  188.9460  178.1250  144.6410 C   0  0  0  0  0  0  0  0  0  0  0  0
  186.0070  178.3040  143.4620 C   0  0  0  0  0  0  0  0  0  0  0  0
  187.6430  176.8860  146.3440 C   0  0  0  0  0  3  0  0  0  0  0  0
  184.7590  178.5440  140.9120 C   0  0  0  0  0  3  0  0  0  0  0  0
  190.5340  178.0350  146.5810 C   0  0  0  0  0  3  0  0  0  0  0  0
  190.1020  178.5560  145.4360 C   0  0  0  0  0  3  0  0  0  0  0  0
  187.7010  177.6270  145.2360 C   0  0  0  0  0  0  0  0  0  0  0  0
  190.1980  177.2530  138.5600 N   0  0  0  0  0  0  0  0  0  0  0  0
  188.8550  177.7280  140.9380 C   0  0  0  0  0  0  0  0  0  0  0  0
  189.8630  176.7570  140.8710 C   0  0  0  0  0  3  0  0  0  0  0  0
  190.5250  176.5300  139.6630 C   0  0  0  0  0  3  0  0  0  0  0  0
  189.2320  178.2100  138.5960 C   0  0  0  0  0  3  0  0  0  0  0  0
  188.5460  178.4670  139.7870 C   0  0  0  0  0  3  0  0  0  0  0  0
  1 15  1  0  0  0  0
  2 16  1  0  0  0  0
  3 21  2  0  0  0  0
  4 13  1  0  0  0  0
  6  2  2  0  0  0  0
  7  9  2  0  0  0  0
  8 10  1  0  0  0  0
 11 16  2  0  0  0  0
 11  7  1  0  0  0  0
 12  2  1  0  0  0  0
 12  1  2  0  0  0  0
 13  5  1  0  0  0  0
 13  7  1  0  0  0  0
 14  4  1  0  0  0  0
 14 11  1  0  0  0  0
 15 21  1  0  0  0  0
 15 20  2  0  0  0  0
 16  3  1  0  0  0  0
 17  8  2  0  0  0  0
 18  6  1  0  0  0  0
 18 14  2  0  0  0  0
 19 10  2  0  0  0  0
 20 19  1  0  0  0  0
 21 17  1  0  0  0  0
 22 26  2  0  0  0  0
 22 25  1  0  0  0  0
 23 12  1  0  0  0  0
 24 23  1  0  0  0  0
 25 24  2  0  0  0  0
 26 27  1  0  0  0  0
 27 23  2  0  0  0  0
M  END
>  <MODEL>
8

>  <REMARK>
 VINA RESULT:      -9.2      3.012      6.679
  Name = 
  1 active torsions:
  status: ('A' for Active; 'I' for Inactive)
    1  A    between atoms: C_9  and  C_15
                            x       y       z     vdW  Elec       q    Type
                         _______ _______ _______ _____ _____    ______ ____

>  <TORSDO>
F 1

$$$$
=
 OpenBabel11052413443D

 27 31  0  0  0  0  0  0  0  0999 V2000
  190.9030  177.5480  141.1330 C   0  0  0  0  0  3  0  0  0  0  0  0
  188.9020  177.4030  139.5950 C   0  0  0  0  0  0  0  0  0  0  0  0
  187.9820  177.9800  141.8210 C   0  0  0  0  0  3  0  0  0  0  0  0
  184.9940  178.6630  138.2650 C   0  0  0  0  0  2  0  0  0  0  0  0
  183.1480  179.3410  139.8360 N   0  0  0  0  0  1  0  0  0  0  0  0
  188.5310  177.2340  138.2320 C   0  0  0  0  0  3  0  0  0  0  0  0
  185.4980  178.9360  140.5390 C   0  0  0  0  0  0  0  0  0  0  0  0
  189.4260  176.8480  145.1250 C   0  0  0  0  0  3  0  0  0  0  0  0
  185.3370  179.1880  141.7630 O   0  0  0  0  0  0  0  0  0  0  0  0
  190.6720  177.2100  145.4120 C   0  0  0  0  0  3  0  0  0  0  0  0
  186.6880  178.3660  139.9260 C   0  0  0  0  0  0  0  0  0  0  0  0
  190.1890  177.0830  139.9270 C   0  0  0  0  0  0  0  0  0  0  0  0
  184.5060  179.1550  139.5480 N   0  0  0  0  0  0  0  0  0  0  0  0
  186.3860  178.2070  138.5910 C   0  0  0  0  0  0  0  0  0  0  0  0
  190.4630  177.7710  142.3630 C   0  0  0  0  0  0  0  0  0  0  0  0
  187.9140  177.9490  140.4850 C   0  0  0  0  0  0  0  0  0  0  0  0
  188.6370  177.1990  143.9360 C   0  0  0  0  0  3  0  0  0  0  0  0
  187.2890  177.6200  137.7250 C   0  0  0  0  0  3  0  0  0  0  0  0
  191.5690  178.0370  144.5990 C   0  0  0  0  0  3  0  0  0  0  0  0
  191.4830  178.2700  143.2930 C   0  0  0  0  0  3  0  0  0  0  0  0
  189.0540  177.5970  142.7330 C   0  0  0  0  0  0  0  0  0  0  0  0
  192.7640  175.0590  137.2020 N   0  0  0  0  0  0  0  0  0  0  0  0
  191.0830  176.3880  138.9600 C   0  0  0  0  0  0  0  0  0  0  0  0
  190.6260  175.2750  138.2420 C   0  0  0  0  0  3  0  0  0  0  0  0
  191.4870  174.6220  137.3580 C   0  0  0  0  0  3  0  0  0  0  0  0
  193.2400  176.1290  137.8930 C   0  0  0  0  0  3  0  0  0  0  0  0
  192.4090  176.8110  138.7860 C   0  0  0  0  0  3  0  0  0  0  0  0
  1 15  1  0  0  0  0
  2 12  1  0  0  0  0
  2 16  1  0  0  0  0
  3 21  2  0  0  0  0
  4 14  1  0  0  0  0
  4 13  1  0  0  0  0
  6  2  2  0  0  0  0
  7  9  2  0  0  0  0
  8 10  1  0  0  0  0
 11 16  2  0  0  0  0
 11  7  1  0  0  0  0
 12  1  2  0  0  0  0
 13  5  1  0  0  0  0
 13  7  1  0  0  0  0
 14 11  1  0  0  0  0
 15 21  1  0  0  0  0
 15 20  2  0  0  0  0
 16  3  1  0  0  0  0
 17  8  2  0  0  0  0
 18  6  1  0  0  0  0
 18 14  2  0  0  0  0
 19 10  2  0  0  0  0
 20 19  1  0  0  0  0
 21 17  1  0  0  0  0
 22 25  2  0  0  0  0
 22 26  1  0  0  0  0
 23 12  1  0  0  0  0
 24 23  2  0  0  0  0
 25 24  1  0  0  0  0
 26 27  2  0  0  0  0
 27 23  1  0  0  0  0
M  END
>  <MODEL>
9

>  <REMARK>
 VINA RESULT:      -8.9      3.615      7.525
  Name = 
  1 active torsions:
  status: ('A' for Active; 'I' for Inactive)
    1  A    between atoms: C_9  and  C_15
                            x       y       z     vdW  Elec       q    Type
                         _______ _______ _______ _____ _____    ______ ____

>  <TORSDO>
F 1

$$$$
