=
 OpenBabel11052416313D

 43 46  0  0  1  0  0  0  0  0999 V2000
  184.9150  178.7770  138.6100 C   0  0  0  0  0  1  0  0  0  0  0  0
  184.1540  178.8560  142.3390 C   0  0  0  0  0  0  0  0  0  0  0  0
  186.3970  178.5180  140.6580 C   0  0  0  0  0  0  0  0  0  0  0  0
  184.3990  178.7360  145.1960 C   0  0  0  0  0  0  0  0  0  0  0  0
  185.6650  178.5910  144.3920 C   0  0  2  0  0  3  0  0  0  0  0  0
  184.4510  179.0840  146.3650 O   0  0  0  0  0  0  0  0  0  0  0  0
  186.5310  178.4780  142.0450 C   0  0  0  0  0  3  0  0  0  0  0  0
  185.4340  178.6360  142.8930 C   0  0  0  0  0  0  0  0  0  0  0  0
  182.9850  179.1700  143.2420 C   0  0  0  0  0  2  0  0  0  0  0  0
  183.9940  178.8970  140.9390 C   0  0  0  0  0  0  0  0  0  0  0  0
  185.1140  178.7280  140.0920 C   0  0  0  0  0  0  0  0  0  0  0  0
  183.0800  178.4320  144.5680 C   0  0  0  0  0  2  0  0  0  0  0  0
  182.6250  179.1130  140.3490 C   0  0  0  0  0  2  0  0  0  0  0  0
  179.8880  176.5090  140.6300 C   0  0  0  0  0  3  0  0  0  0  0  0
  180.4910  175.3950  140.0360 C   0  0  0  0  0  0  0  0  0  0  0  0
  182.4910  176.7130  139.6350 C   0  0  0  0  0  3  0  0  0  0  0  0
  180.5800  177.7180  140.7300 C   0  0  0  0  0  3  0  0  0  0  0  0
  181.8820  177.8220  140.2320 C   0  0  0  0  0  0  0  0  0  0  0  0
  181.7990  175.5040  139.5370 C   0  0  0  0  0  3  0  0  0  0  0  0
  179.7720  174.2000  139.9550 O   0  0  0  0  0  0  0  0  0  0  0  0
  179.6190  173.4770  138.7420 C   0  0  0  0  0  1  0  0  0  0  0  0
  187.5950  178.3290  139.8890 N   0  0  0  0  0  2  0  0  0  0  0  0
  188.9430  178.7320  140.2630 C   0  0  0  0  0  2  0  0  0  0  0  0
  189.8550  177.5190  140.2760 C   0  0  1  0  0  3  0  0  0  0  0  0
  189.7860  176.8440  141.6320 C   0  0  0  0  0  1  0  0  0  0  0  0
  189.4150  176.5330  139.1980 C   0  0  0  0  0  2  0  0  0  0  0  0
  189.9810  176.8020  137.8690 N   0  0  0  0  0  0  0  0  0  0  0  0
  188.7920  176.6400  136.6020 S   0  0  0  0  0  0  0  0  0  0  0  0
  188.1060  177.9560  136.3540 O   0  0  0  0  0  0  0  0  0  0  0  0
  189.4770  176.2000  135.3370 O   0  0  0  0  0  0  0  0  0  0  0  0
  187.6060  175.4610  137.0690 N   0  0  0  0  0  0  0  0  0  0  0  0
  186.8260  173.1460  136.5490 C   0  0  0  0  0  2  0  0  0  0  0  0
  185.1800  174.9890  137.0650 C   0  0  0  0  0  2  0  0  0  0  0  0
  185.7100  173.6140  137.4840 C   0  0  0  0  0  2  0  0  0  0  0  0
  186.3000  175.9330  136.6080 C   0  0  0  0  0  2  0  0  0  0  0  0
  187.9230  174.2090  136.3730 C   0  0  0  0  0  2  0  0  0  0  0  0
  191.2060  176.0390  137.5980 C   0  0  0  0  0  2  0  0  0  0  0  0
  191.6770  173.9720  136.9790 C   0  0  0  0  0  1  0  0  0  0  0  0
  191.0920  174.7080  138.0100 O   0  0  0  0  0  0  0  0  0  0  0  0
  186.4650  177.3610  144.8330 C   0  0  0  0  0  2  0  0  0  0  0  0
  187.7510  177.7370  145.5650 C   0  0  0  0  0  2  0  0  0  0  0  0
  187.5420  177.6830  147.0680 C   0  0  0  0  0  2  0  0  0  0  0  0
  188.8510  177.9370  147.7960 C   0  0  0  0  0  1  0  0  0  0  0  0
  1 11  1  0  0  0  0
  2  8  1  0  0  0  0
  2  9  1  0  0  0  0
  3  7  1  0  0  0  0
  4  6  2  0  0  0  0
  5 40  1  6  0  0  0
  5  4  1  0  0  0  0
  7  8  2  0  0  0  0
  8  5  1  0  0  0  0
  9 12  1  0  0  0  0
 10  2  2  0  0  0  0
 11  3  2  0  0  0  0
 11 10  1  0  0  0  0
 12  4  1  0  0  0  0
 13 10  1  0  0  0  0
 14 17  1  0  0  0  0
 15 14  2  0  0  0  0
 16 18  1  0  0  0  0
 18 13  1  0  0  0  0
 18 17  2  0  0  0  0
 19 16  2  0  0  0  0
 19 15  1  0  0  0  0
 20 15  1  0  0  0  0
 21 20  1  0  0  0  0
 22 23  1  0  0  0  0
 22  3  1  0  0  0  0
 23 24  1  0  0  0  0
 24 25  1  1  0  0  0
 26 24  1  0  0  0  0
 27 26  1  0  0  0  0
 28 31  1  0  0  0  0
 28 27  1  0  0  0  0
 29 28  2  0  0  0  0
 30 28  2  0  0  0  0
 32 34  1  0  0  0  0
 33 34  1  0  0  0  0
 35 33  1  0  0  0  0
 35 31  1  0  0  0  0
 36 32  1  0  0  0  0
 36 31  1  0  0  0  0
 37 27  1  0  0  0  0
 37 39  1  0  0  0  0
 38 39  1  0  0  0  0
 40 41  1  0  0  0  0
 41 42  1  0  0  0  0
 42 43  1  0  0  0  0
M  END
>  <MODEL>
1

>  <REMARK>
 VINA RESULT:      -7.6      0.000      0.000
  Name = 
  15 active torsions:
  status: ('A' for Active; 'I' for Inactive)
    1  A    between atoms: C_1  and  C_34
    2  A    between atoms: C_1  and  C_35
    3  A    between atoms: N_2  and  C_6
    4  A    between atoms: N_2  and  C_13
    5  A    between atoms: C_3  and  N_4
    6  A    between atoms: C_3  and  C_12
    7  A    between atoms: N_4  and  S_14
    8  A    between atoms: N_4  and  C_42
    9  A    between atoms: C_5  and  C_18
   10  A    between atoms: C_6  and  C_12
   11  A    between atoms: N_11  and  S_14
   12  A    between atoms: O_15  and  C_42
   13  A    between atoms: C_18  and  C_24
   14  A    between atoms: C_19  and  O_25
   15  A    between atoms: C_21  and  C_24
                            x       y       z     vdW  Elec       q    Type
                         _______ _______ _______ _____ _____    ______ ____

>  <TORSDO>
F 15

$$$$
=
 OpenBabel11052416313D

 43 46  0  0  1  0  0  0  0  0999 V2000
  185.1090  178.8540  138.7060 C   0  0  0  0  0  1  0  0  0  0  0  0
  184.2460  178.8880  142.4130 C   0  0  0  0  0  0  0  0  0  0  0  0
  186.5230  178.5090  140.7890 C   0  0  0  0  0  0  0  0  0  0  0  0
  184.4050  178.7060  145.2730 C   0  0  0  0  0  0  0  0  0  0  0  0
  185.6870  178.5350  144.5020 C   0  0  2  0  0  3  0  0  0  0  0  0
  184.4340  179.0300  146.4490 O   0  0  0  0  0  0  0  0  0  0  0  0
  186.6160  178.4380  142.1780 C   0  0  0  0  0  3  0  0  0  0  0  0
  185.5010  178.6150  142.9990 C   0  0  0  0  0  0  0  0  0  0  0  0
  183.0620  179.2220  143.2890 C   0  0  0  0  0  2  0  0  0  0  0  0
  184.1270  178.9600  141.0100 C   0  0  0  0  0  0  0  0  0  0  0  0
  185.2650  178.7700  140.1920 C   0  0  0  0  0  0  0  0  0  0  0  0
  183.0950  178.4570  144.6020 C   0  0  0  0  0  2  0  0  0  0  0  0
  182.7830  179.2320  140.3870 C   0  0  0  0  0  2  0  0  0  0  0  0
  179.9660  176.7220  140.7260 C   0  0  0  0  0  3  0  0  0  0  0  0
  180.4920  175.6100  140.0590 C   0  0  0  0  0  0  0  0  0  0  0  0
  182.5160  176.8670  139.5950 C   0  0  0  0  0  3  0  0  0  0  0  0
  180.7090  177.9000  140.8300 C   0  0  0  0  0  3  0  0  0  0  0  0
  181.9850  177.9750  140.2640 C   0  0  0  0  0  0  0  0  0  0  0  0
  181.7740  175.6900  139.4910 C   0  0  0  0  0  3  0  0  0  0  0  0
  179.7220  174.4470  139.9750 O   0  0  0  0  0  0  0  0  0  0  0  0
  179.8020  173.5520  138.8750 C   0  0  0  0  0  1  0  0  0  0  0  0
  187.7370  178.2950  140.0500 N   0  0  0  0  0  2  0  0  0  0  0  0
  188.6840  177.2050  140.2280 C   0  0  0  0  0  2  0  0  0  0  0  0
  189.9340  177.4740  139.4110 C   0  0  1  0  0  3  0  0  0  0  0  0
  191.1350  177.5640  140.3310 C   0  0  0  0  0  1  0  0  0  0  0  0
  190.1480  176.3420  138.4100 C   0  0  0  0  0  2  0  0  0  0  0  0
  189.2240  176.3670  137.2680 N   0  0  0  0  0  0  0  0  0  0  0  0
  189.0220  174.7880  136.5510 S   0  0  0  0  0  0  0  0  0  0  0  0
  189.6430  174.7490  135.1820 O   0  0  0  0  0  0  0  0  0  0  0  0
  189.6940  173.7620  137.4220 O   0  0  0  0  0  0  0  0  0  0  0  0
  187.3290  174.4260  136.4170 N   0  0  0  0  0  0  0  0  0  0  0  0
  185.0880  175.1880  137.2150 C   0  0  0  0  0  2  0  0  0  0  0  0
  185.6190  172.7330  136.9760 C   0  0  0  0  0  2  0  0  0  0  0  0
  184.7080  173.8780  136.5240 C   0  0  0  0  0  2  0  0  0  0  0  0
  187.0810  173.1720  137.1280 C   0  0  0  0  0  2  0  0  0  0  0  0
  186.5890  175.5000  137.0900 C   0  0  0  0  0  2  0  0  0  0  0  0
  189.5560  177.3990  136.2780 C   0  0  0  0  0  2  0  0  0  0  0  0
  187.7230  178.6290  136.2580 C   0  0  0  0  0  1  0  0  0  0  0  0
  189.0620  178.6540  136.6480 O   0  0  0  0  0  0  0  0  0  0  0  0
  186.4350  177.2710  144.9410 C   0  0  0  0  0  2  0  0  0  0  0  0
  187.5700  177.5770  145.9140 C   0  0  0  0  0  2  0  0  0  0  0  0
  188.8410  177.9210  145.1570 C   0  0  0  0  0  2  0  0  0  0  0  0
  189.2040  176.8040  144.1930 C   0  0  0  0  0  1  0  0  0  0  0  0
  1 11  1  0  0  0  0
  2  8  1  0  0  0  0
  2  9  1  0  0  0  0
  3  7  1  0  0  0  0
  4  6  2  0  0  0  0
  5 40  1  6  0  0  0
  5  4  1  0  0  0  0
  7  8  2  0  0  0  0
  8  5  1  0  0  0  0
  9 12  1  0  0  0  0
 10  2  2  0  0  0  0
 11  3  2  0  0  0  0
 11 10  1  0  0  0  0
 12  4  1  0  0  0  0
 13 10  1  0  0  0  0
 14 17  1  0  0  0  0
 15 14  2  0  0  0  0
 16 18  1  0  0  0  0
 18 13  1  0  0  0  0
 18 17  2  0  0  0  0
 19 16  2  0  0  0  0
 19 15  1  0  0  0  0
 20 15  1  0  0  0  0
 21 20  1  0  0  0  0
 22 23  1  0  0  0  0
 22  3  1  0  0  0  0
 24 23  1  0  0  0  0
 24 25  1  1  0  0  0
 26 24  1  0  0  0  0
 27 26  1  0  0  0  0
 28 27  1  0  0  0  0
 28 30  2  0  0  0  0
 29 28  2  0  0  0  0
 31 28  1  0  0  0  0
 31 36  1  0  0  0  0
 31 35  1  0  0  0  0
 33 35  1  0  0  0  0
 34 33  1  0  0  0  0
 34 32  1  0  0  0  0
 36 32  1  0  0  0  0
 37 39  1  0  0  0  0
 37 27  1  0  0  0  0
 38 39  1  0  0  0  0
 40 41  1  0  0  0  0
 42 41  1  0  0  0  0
 43 42  1  0  0  0  0
M  END
>  <MODEL>
2

>  <REMARK>
 VINA RESULT:      -7.3      1.020      1.885
  Name = 
  15 active torsions:
  status: ('A' for Active; 'I' for Inactive)
    1  A    between atoms: C_1  and  C_34
    2  A    between atoms: C_1  and  C_35
    3  A    between atoms: N_2  and  C_6
    4  A    between atoms: N_2  and  C_13
    5  A    between atoms: C_3  and  N_4
    6  A    between atoms: C_3  and  C_12
    7  A    between atoms: N_4  and  S_14
    8  A    between atoms: N_4  and  C_42
    9  A    between atoms: C_5  and  C_18
   10  A    between atoms: C_6  and  C_12
   11  A    between atoms: N_11  and  S_14
   12  A    between atoms: O_15  and  C_42
   13  A    between atoms: C_18  and  C_24
   14  A    between atoms: C_19  and  O_25
   15  A    between atoms: C_21  and  C_24
                            x       y       z     vdW  Elec       q    Type
                         _______ _______ _______ _____ _____    ______ ____

>  <TORSDO>
F 15

$$$$
=
 OpenBabel11052416313D

 43 46  0  0  1  0  0  0  0  0999 V2000
  186.3110  178.6090  140.2840 C   0  0  0  0  0  1  0  0  0  0  0  0
  189.3680  177.9090  142.4430 C   0  0  0  0  0  0  0  0  0  0  0  0
  186.5560  177.8650  142.7010 C   0  0  0  0  0  0  0  0  0  0  0  0
  191.0800  177.2610  144.6530 C   0  0  0  0  0  0  0  0  0  0  0  0
  189.5950  177.1600  144.8830 C   0  0  2  0  0  3  0  0  0  0  0  0
  191.8550  176.6500  145.3710 O   0  0  0  0  0  0  0  0  0  0  0  0
  187.3780  177.5290  143.7760 C   0  0  0  0  0  3  0  0  0  0  0  0
  188.7700  177.5510  143.6710 C   0  0  0  0  0  0  0  0  0  0  0  0
  190.8640  177.8010  142.2720 C   0  0  0  0  0  2  0  0  0  0  0  0
  188.5560  178.2570  141.3430 C   0  0  0  0  0  0  0  0  0  0  0  0
  187.1470  178.2370  141.4680 C   0  0  0  0  0  0  0  0  0  0  0  0
  191.6050  178.1280  143.5580 C   0  0  0  0  0  2  0  0  0  0  0  0
  189.1950  178.6580  140.0400 C   0  0  0  0  0  2  0  0  0  0  0  0
  191.0540  175.7830  138.4180 C   0  0  0  0  0  3  0  0  0  0  0  0
  190.0630  175.2280  137.6000 C   0  0  0  0  0  0  0  0  0  0  0  0
  188.4970  176.9090  138.3830 C   0  0  0  0  0  3  0  0  0  0  0  0
  190.7710  176.8960  139.2130 C   0  0  0  0  0  3  0  0  0  0  0  0
  189.4930  177.4600  139.1980 C   0  0  0  0  0  0  0  0  0  0  0  0
  188.7800  175.7980  137.5880 C   0  0  0  0  0  3  0  0  0  0  0  0
  190.3810  174.1160  136.8150 O   0  0  0  0  0  0  0  0  0  0  0  0
  191.7160  173.6830  136.6030 C   0  0  0  0  0  1  0  0  0  0  0  0
  185.1400  177.8180  142.9350 N   0  0  0  0  0  2  0  0  0  0  0  0
  184.2370  178.9550  143.0380 C   0  0  0  0  0  2  0  0  0  0  0  0
  182.8310  178.5280  142.6570 C   0  0  1  0  0  3  0  0  0  0  0  0
  181.8280  179.1940  143.5780 C   0  0  0  0  0  1  0  0  0  0  0  0
  182.5420  178.9370  141.2150 C   0  0  0  0  0  2  0  0  0  0  0  0
  182.1320  177.8270  140.3450 N   0  0  0  0  0  0  0  0  0  0  0  0
  182.6090  178.0800  138.6850 S   0  0  0  0  0  0  0  0  0  0  0  0
  181.4030  178.0750  137.7860 O   0  0  0  0  0  0  0  0  0  0  0  0
  183.2990  179.4120  138.5690 O   0  0  0  0  0  0  0  0  0  0  0  0
  183.6900  176.8140  138.1940 N   0  0  0  0  0  0  0  0  0  0  0  0
  185.2810  176.1840  136.3740 C   0  0  0  0  0  2  0  0  0  0  0  0
  183.7650  174.4650  137.4310 C   0  0  0  0  0  2  0  0  0  0  0  0
  185.2160  174.8710  137.1560 C   0  0  0  0  0  2  0  0  0  0  0  0
  182.8790  175.6640  137.7910 C   0  0  0  0  0  2  0  0  0  0  0  0
  184.4360  177.2920  137.0250 C   0  0  0  0  0  2  0  0  0  0  0  0
  180.7110  177.4820  140.4800 C   0  0  0  0  0  2  0  0  0  0  0  0
  179.1800  175.9120  140.7370 C   0  0  0  0  0  1  0  0  0  0  0  0
  180.4870  176.1140  140.2940 O   0  0  0  0  0  0  0  0  0  0  0  0
  189.1770  177.9100  146.1530 C   0  0  0  0  0  2  0  0  0  0  0  0
  189.0960  176.9910  147.3690 C   0  0  0  0  0  2  0  0  0  0  0  0
  187.9770  177.4340  148.2950 C   0  0  0  0  0  2  0  0  0  0  0  0
  186.9670  178.2830  147.5420 C   0  0  0  0  0  1  0  0  0  0  0  0
  1 11  1  0  0  0  0
  2  8  1  0  0  0  0
  3 22  1  0  0  0  0
  3  7  1  0  0  0  0
  4  5  1  0  0  0  0
  4  6  2  0  0  0  0
  5 40  1  1  0  0  0
  8  7  2  0  0  0  0
  8  5  1  0  0  0  0
  9  2  1  0  0  0  0
  9 12  1  0  0  0  0
 10 11  1  0  0  0  0
 10  2  2  0  0  0  0
 11  3  2  0  0  0  0
 12  4  1  0  0  0  0
 13 10  1  0  0  0  0
 14 17  1  0  0  0  0
 15 14  2  0  0  0  0
 16 18  1  0  0  0  0
 18 17  2  0  0  0  0
 18 13  1  0  0  0  0
 19 15  1  0  0  0  0
 19 16  2  0  0  0  0
 20 15  1  0  0  0  0
 21 20  1  0  0  0  0
 22 23  1  0  0  0  0
 24 23  1  0  0  0  0
 24 25  1  1  0  0  0
 26 24  1  0  0  0  0
 27 37  1  0  0  0  0
 27 26  1  0  0  0  0
 28 27  1  0  0  0  0
 29 28  2  0  0  0  0
 30 28  2  0  0  0  0
 31 28  1  0  0  0  0
 32 36  1  0  0  0  0
 32 34  1  0  0  0  0
 33 35  1  0  0  0  0
 34 33  1  0  0  0  0
 35 31  1  0  0  0  0
 36 31  1  0  0  0  0
 39 37  1  0  0  0  0
 39 38  1  0  0  0  0
 40 41  1  0  0  0  0
 41 42  1  0  0  0  0
 43 42  1  0  0  0  0
M  END
>  <MODEL>
3

>  <REMARK>
 VINA RESULT:      -7.0      2.637      6.995
  Name = 
  15 active torsions:
  status: ('A' for Active; 'I' for Inactive)
    1  A    between atoms: C_1  and  C_34
    2  A    between atoms: C_1  and  C_35
    3  A    between atoms: N_2  and  C_6
    4  A    between atoms: N_2  and  C_13
    5  A    between atoms: C_3  and  N_4
    6  A    between atoms: C_3  and  C_12
    7  A    between atoms: N_4  and  S_14
    8  A    between atoms: N_4  and  C_42
    9  A    between atoms: C_5  and  C_18
   10  A    between atoms: C_6  and  C_12
   11  A    between atoms: N_11  and  S_14
   12  A    between atoms: O_15  and  C_42
   13  A    between atoms: C_18  and  C_24
   14  A    between atoms: C_19  and  O_25
   15  A    between atoms: C_21  and  C_24
                            x       y       z     vdW  Elec       q    Type
                         _______ _______ _______ _____ _____    ______ ____

>  <TORSDO>
F 15

$$$$
=
 OpenBabel11052416313D

 43 46  0  0  1  0  0  0  0  0999 V2000
  185.6640  178.7230  138.4670 C   0  0  0  0  0  1  0  0  0  0  0  0
  184.4050  178.8480  142.0580 C   0  0  0  0  0  0  0  0  0  0  0  0
  186.8550  178.4900  140.7000 C   0  0  0  0  0  0  0  0  0  0  0  0
  184.2600  178.7630  144.9220 C   0  0  0  0  0  0  0  0  0  0  0  0
  185.6230  178.6090  144.3000 C   0  0  2  0  0  3  0  0  0  0  0  0
  184.1540  179.1260  146.0830 O   0  0  0  0  0  0  0  0  0  0  0  0
  186.7990  178.4670  142.0920 C   0  0  0  0  0  3  0  0  0  0  0  0
  185.5980  178.6350  142.7830 C   0  0  0  0  0  0  0  0  0  0  0  0
  183.1250  179.1720  142.7900 C   0  0  0  0  0  2  0  0  0  0  0  0
  184.4360  178.8710  140.6480 C   0  0  0  0  0  0  0  0  0  0  0  0
  185.6610  178.6920  139.9630 C   0  0  0  0  0  0  0  0  0  0  0  0
  183.0390  178.4510  144.1250 C   0  0  0  0  0  2  0  0  0  0  0  0
  183.1600  179.0790  139.8750 C   0  0  0  0  0  2  0  0  0  0  0  0
  182.0080  175.4920  139.4840 C   0  0  0  0  0  3  0  0  0  0  0  0
  180.6940  175.5600  139.9610 C   0  0  0  0  0  0  0  0  0  0  0  0
  180.9920  177.9310  140.3930 C   0  0  0  0  0  3  0  0  0  0  0  0
  182.8100  176.6350  139.4590 C   0  0  0  0  0  3  0  0  0  0  0  0
  182.3040  177.8550  139.9140 C   0  0  0  0  0  0  0  0  0  0  0  0
  180.1900  176.7890  140.4180 C   0  0  0  0  0  3  0  0  0  0  0  0
  179.9170  174.3990  139.9710 O   0  0  0  0  0  0  0  0  0  0  0  0
  179.5470  173.7330  141.1690 C   0  0  0  0  0  1  0  0  0  0  0  0
  188.1460  178.2920  140.1030 N   0  0  0  0  0  2  0  0  0  0  0  0
  188.5000  177.2940  139.1040 C   0  0  0  0  0  2  0  0  0  0  0  0
  189.9820  177.3850  138.7920 C   0  0  1  0  0  3  0  0  0  0  0  0
  190.7810  176.7950  139.9370 C   0  0  0  0  0  1  0  0  0  0  0  0
  190.2860  176.6120  137.5120 C   0  0  0  0  0  2  0  0  0  0  0  0
  191.1020  175.4060  137.7170 N   0  0  0  0  0  0  0  0  0  0  0  0
  192.7100  175.5800  137.0620 S   0  0  0  0  0  0  0  0  0  0  0  0
  192.6570  175.7000  135.5630 O   0  0  0  0  0  0  0  0  0  0  0  0
  193.3400  176.8230  137.6290 O   0  0  0  0  0  0  0  0  0  0  0  0
  193.6610  174.1920  137.4880 N   0  0  0  0  0  0  0  0  0  0  0  0
  195.7940  173.5420  138.6140 C   0  0  0  0  0  2  0  0  0  0  0  0
  195.0030  172.3480  136.5370 C   0  0  0  0  0  2  0  0  0  0  0  0
  195.3730  172.1990  138.0150 C   0  0  0  0  0  2  0  0  0  0  0  0
  194.2220  173.6380  136.2560 C   0  0  0  0  0  2  0  0  0  0  0  0
  194.7650  174.6510  138.3390 C   0  0  0  0  0  2  0  0  0  0  0  0
  190.4370  174.1770  137.2670 C   0  0  0  0  0  2  0  0  0  0  0  0
  188.6310  173.2720  136.3750 C   0  0  0  0  0  1  0  0  0  0  0  0
  189.0520  174.3390  137.1690 O   0  0  0  0  0  0  0  0  0  0  0  0
  186.3550  177.3850  144.8600 C   0  0  0  0  0  2  0  0  0  0  0  0
  187.5140  177.7700  145.7750 C   0  0  0  0  0  2  0  0  0  0  0  0
  188.8110  177.1560  145.2760 C   0  0  0  0  0  2  0  0  0  0  0  0
  189.7330  178.2320  144.7290 C   0  0  0  0  0  1  0  0  0  0  0  0
  1 11  1  0  0  0  0
  2  8  1  0  0  0  0
  2  9  1  0  0  0  0
  3  7  1  0  0  0  0
  4  6  2  0  0  0  0
  5 40  1  6  0  0  0
  5  4  1  0  0  0  0
  7  8  2  0  0  0  0
  8  5  1  0  0  0  0
  9 12  1  0  0  0  0
 10  2  2  0  0  0  0
 11 10  1  0  0  0  0
 11  3  2  0  0  0  0
 12  4  1  0  0  0  0
 13 18  1  0  0  0  0
 13 10  1  0  0  0  0
 14 15  1  0  0  0  0
 15 20  1  0  0  0  0
 15 19  2  0  0  0  0
 16 19  1  0  0  0  0
 17 14  2  0  0  0  0
 17 18  1  0  0  0  0
 18 16  2  0  0  0  0
 20 21  1  0  0  0  0
 22  3  1  0  0  0  0
 23 22  1  0  0  0  0
 24 23  1  0  0  0  0
 24 25  1  1  0  0  0
 26 27  1  0  0  0  0
 26 24  1  0  0  0  0
 28 31  1  0  0  0  0
 28 30  2  0  0  0  0
 28 27  1  0  0  0  0
 29 28  2  0  0  0  0
 31 36  1  0  0  0  0
 33 34  1  0  0  0  0
 34 32  1  0  0  0  0
 35 33  1  0  0  0  0
 35 31  1  0  0  0  0
 36 32  1  0  0  0  0
 37 27  1  0  0  0  0
 38 39  1  0  0  0  0
 39 37  1  0  0  0  0
 40 41  1  0  0  0  0
 42 41  1  0  0  0  0
 43 42  1  0  0  0  0
M  END
>  <MODEL>
4

>  <REMARK>
 VINA RESULT:      -7.0      1.924      3.705
  Name = 
  15 active torsions:
  status: ('A' for Active; 'I' for Inactive)
    1  A    between atoms: C_1  and  C_34
    2  A    between atoms: C_1  and  C_35
    3  A    between atoms: N_2  and  C_6
    4  A    between atoms: N_2  and  C_13
    5  A    between atoms: C_3  and  N_4
    6  A    between atoms: C_3  and  C_12
    7  A    between atoms: N_4  and  S_14
    8  A    between atoms: N_4  and  C_42
    9  A    between atoms: C_5  and  C_18
   10  A    between atoms: C_6  and  C_12
   11  A    between atoms: N_11  and  S_14
   12  A    between atoms: O_15  and  C_42
   13  A    between atoms: C_18  and  C_24
   14  A    between atoms: C_19  and  O_25
   15  A    between atoms: C_21  and  C_24
                            x       y       z     vdW  Elec       q    Type
                         _______ _______ _______ _____ _____    ______ ____

>  <TORSDO>
F 15

$$$$
=
 OpenBabel11052416313D

 43 46  0  0  1  0  0  0  0  0999 V2000
  185.9850  178.7690  140.3780 C   0  0  0  0  0  1  0  0  0  0  0  0
  189.1930  177.8330  142.2010 C   0  0  0  0  0  0  0  0  0  0  0  0
  186.4240  177.9390  142.7390 C   0  0  0  0  0  0  0  0  0  0  0  0
  191.0740  177.0230  144.2100 C   0  0  0  0  0  0  0  0  0  0  0  0
  189.6160  176.9990  144.5860 C   0  0  2  0  0  3  0  0  0  0  0  0
  191.8790  176.3470  144.8310 O   0  0  0  0  0  0  0  0  0  0  0  0
  187.3270  177.5250  143.7170 C   0  0  0  0  0  3  0  0  0  0  0  0
  188.7000  177.4720  143.4740 C   0  0  0  0  0  0  0  0  0  0  0  0
  190.6560  177.6460  141.8780 C   0  0  0  0  0  2  0  0  0  0  0  0
  188.2990  178.2590  141.1970 C   0  0  0  0  0  0  0  0  0  0  0  0
  186.9110  178.3150  141.4620 C   0  0  0  0  0  0  0  0  0  0  0  0
  191.5390  177.8920  143.0900 C   0  0  0  0  0  2  0  0  0  0  0  0
  188.8280  178.6620  139.8460 C   0  0  0  0  0  2  0  0  0  0  0  0
  190.3520  175.7020  138.0400 C   0  0  0  0  0  3  0  0  0  0  0  0
  189.2780  175.2590  137.2600 C   0  0  0  0  0  0  0  0  0  0  0  0
  187.9010  177.0370  138.1760 C   0  0  0  0  0  3  0  0  0  0  0  0
  190.2050  176.8060  138.8830 C   0  0  0  0  0  3  0  0  0  0  0  0
  188.9800  177.4740  138.9530 C   0  0  0  0  0  0  0  0  0  0  0  0
  188.0480  175.9340  137.3340 C   0  0  0  0  0  3  0  0  0  0  0  0
  189.4590  174.1530  136.4250 O   0  0  0  0  0  0  0  0  0  0  0  0
  190.6650  173.4040  136.3970 C   0  0  0  0  0  1  0  0  0  0  0  0
  185.0370  177.9660  143.1130 N   0  0  0  0  0  2  0  0  0  0  0  0
  184.0930  179.0480  142.8780 C   0  0  0  0  0  2  0  0  0  0  0  0
  182.6730  178.5240  142.9980 C   0  0  1  0  0  3  0  0  0  0  0  0
  182.0690  178.9840  144.3100 C   0  0  0  0  0  1  0  0  0  0  0  0
  181.8300  179.0530  141.8410 C   0  0  0  0  0  2  0  0  0  0  0  0
  180.4710  178.4980  141.7850 N   0  0  0  0  0  0  0  0  0  0  0  0
  180.2410  177.4590  140.4020 S   0  0  0  0  0  0  0  0  0  0  0  0
  179.7520  176.1050  140.8380 O   0  0  0  0  0  0  0  0  0  0  0  0
  179.2200  178.0760  139.4860 O   0  0  0  0  0  0  0  0  0  0  0  0
  181.7490  177.2730  139.5610 N   0  0  0  0  0  0  0  0  0  0  0  0
  182.8890  177.8650  137.4190 C   0  0  0  0  0  2  0  0  0  0  0  0
  183.2230  175.6040  138.4900 C   0  0  0  0  0  2  0  0  0  0  0  0
  183.9050  176.8910  138.0170 C   0  0  0  0  0  2  0  0  0  0  0  0
  181.8690  175.8720  139.1600 C   0  0  0  0  0  2  0  0  0  0  0  0
  181.6900  178.1030  138.3520 C   0  0  0  0  0  2  0  0  0  0  0  0
  179.4240  179.5210  141.9040 C   0  0  0  0  0  2  0  0  0  0  0  0
  179.0230  181.4300  140.8700 C   0  0  0  0  0  1  0  0  0  0  0  0
  179.9340  180.8110  141.7260 O   0  0  0  0  0  0  0  0  0  0  0  0
  189.3710  177.7320  145.9090 C   0  0  0  0  0  2  0  0  0  0  0  0
  189.3430  176.7820  147.1030 C   0  0  0  0  0  2  0  0  0  0  0  0
  188.1310  177.0600  147.9750 C   0  0  0  0  0  2  0  0  0  0  0  0
  188.3010  178.3730  148.7190 C   0  0  0  0  0  1  0  0  0  0  0  0
  1 11  1  0  0  0  0
  2  8  1  0  0  0  0
  3 22  1  0  0  0  0
  3  7  1  0  0  0  0
  4  5  1  0  0  0  0
  4  6  2  0  0  0  0
  5 40  1  1  0  0  0
  8  7  2  0  0  0  0
  8  5  1  0  0  0  0
  9  2  1  0  0  0  0
  9 12  1  0  0  0  0
 10 11  1  0  0  0  0
 10  2  2  0  0  0  0
 11  3  2  0  0  0  0
 12  4  1  0  0  0  0
 13 10  1  0  0  0  0
 14 17  1  0  0  0  0
 15 19  1  0  0  0  0
 15 14  2  0  0  0  0
 16 18  1  0  0  0  0
 17 18  2  0  0  0  0
 18 13  1  0  0  0  0
 19 16  2  0  0  0  0
 20 15  1  0  0  0  0
 21 20  1  0  0  0  0
 23 24  1  0  0  0  0
 23 22  1  0  0  0  0
 24 25  1  1  0  0  0
 26 24  1  0  0  0  0
 27 26  1  0  0  0  0
 27 37  1  0  0  0  0
 28 29  2  0  0  0  0
 28 27  1  0  0  0  0
 30 28  2  0  0  0  0
 31 28  1  0  0  0  0
 32 34  1  0  0  0  0
 32 36  1  0  0  0  0
 33 35  1  0  0  0  0
 34 33  1  0  0  0  0
 35 31  1  0  0  0  0
 36 31  1  0  0  0  0
 38 39  1  0  0  0  0
 39 37  1  0  0  0  0
 40 41  1  0  0  0  0
 41 42  1  0  0  0  0
 42 43  1  0  0  0  0
M  END
>  <MODEL>
5

>  <REMARK>
 VINA RESULT:      -6.9      3.112      7.612
  Name = 
  15 active torsions:
  status: ('A' for Active; 'I' for Inactive)
    1  A    between atoms: C_1  and  C_34
    2  A    between atoms: C_1  and  C_35
    3  A    between atoms: N_2  and  C_6
    4  A    between atoms: N_2  and  C_13
    5  A    between atoms: C_3  and  N_4
    6  A    between atoms: C_3  and  C_12
    7  A    between atoms: N_4  and  S_14
    8  A    between atoms: N_4  and  C_42
    9  A    between atoms: C_5  and  C_18
   10  A    between atoms: C_6  and  C_12
   11  A    between atoms: N_11  and  S_14
   12  A    between atoms: O_15  and  C_42
   13  A    between atoms: C_18  and  C_24
   14  A    between atoms: C_19  and  O_25
   15  A    between atoms: C_21  and  C_24
                            x       y       z     vdW  Elec       q    Type
                         _______ _______ _______ _____ _____    ______ ____

>  <TORSDO>
F 15

$$$$
=
 OpenBabel11052416313D

 43 46  0  0  1  0  0  0  0  0999 V2000
  185.6200  179.2380  141.5700 C   0  0  0  0  0  1  0  0  0  0  0  0
  186.3940  178.0150  138.0480 C   0  0  0  0  0  0  0  0  0  0  0  0
  187.6690  178.1190  140.5650 C   0  0  0  0  0  0  0  0  0  0  0  0
  187.7180  176.9260  135.7470 C   0  0  0  0  0  0  0  0  0  0  0  0
  188.4690  176.8900  137.0520 C   0  0  2  0  0  3  0  0  0  0  0  0
  188.0200  176.1620  134.8440 O   0  0  0  0  0  0  0  0  0  0  0  0
  188.3150  177.5690  139.4580 C   0  0  0  0  0  3  0  0  0  0  0  0
  187.7050  177.5150  138.2040 C   0  0  0  0  0  0  0  0  0  0  0  0
  185.6690  177.8350  136.7360 C   0  0  0  0  0  2  0  0  0  0  0  0
  185.7220  178.5800  139.1530 C   0  0  0  0  0  0  0  0  0  0  0  0
  186.3570  178.6350  140.4150 C   0  0  0  0  0  0  0  0  0  0  0  0
  186.6170  177.9130  135.5500 C   0  0  0  0  0  2  0  0  0  0  0  0
  184.3320  179.1310  138.9800 C   0  0  0  0  0  2  0  0  0  0  0  0
  181.5110  176.9890  137.6360 C   0  0  0  0  0  3  0  0  0  0  0  0
  181.4340  175.9790  138.6020 C   0  0  0  0  0  0  0  0  0  0  0  0
  183.2600  177.0230  139.8150 C   0  0  0  0  0  3  0  0  0  0  0  0
  182.4550  178.0120  137.7570 C   0  0  0  0  0  3  0  0  0  0  0  0
  183.3310  178.0300  138.8460 C   0  0  0  0  0  0  0  0  0  0  0  0
  182.3170  176.0010  139.6940 C   0  0  0  0  0  3  0  0  0  0  0  0
  180.4770  174.9720  138.4510 O   0  0  0  0  0  0  0  0  0  0  0  0
  180.6440  173.8820  137.5570 C   0  0  0  0  0  1  0  0  0  0  0  0
  188.4040  178.1320  141.7990 N   0  0  0  0  0  2  0  0  0  0  0  0
  188.6400  177.0010  142.6840 C   0  0  0  0  0  2  0  0  0  0  0  0
  190.0540  177.0650  143.2310 C   0  0  1  0  0  3  0  0  0  0  0  0
  190.9450  177.8090  142.2560 C   0  0  0  0  0  1  0  0  0  0  0  0
  190.0540  177.7920  144.5720 C   0  0  0  0  0  2  0  0  0  0  0  0
  190.2160  176.9090  145.7360 N   0  0  0  0  0  0  0  0  0  0  0  0
  189.0870  177.2880  147.0120 S   0  0  0  0  0  0  0  0  0  0  0  0
  188.6560  176.0340  147.7220 O   0  0  0  0  0  0  0  0  0  0  0  0
  189.7530  178.2050  148.0010 O   0  0  0  0  0  0  0  0  0  0  0  0
  187.6900  178.0670  146.3360 N   0  0  0  0  0  0  0  0  0  0  0  0
  185.4490  178.9720  146.9650 C   0  0  0  0  0  2  0  0  0  0  0  0
  185.7870  177.7250  144.7980 C   0  0  0  0  0  2  0  0  0  0  0  0
  185.3640  179.0490  145.4400 C   0  0  0  0  0  2  0  0  0  0  0  0
  186.9870  177.0860  145.5090 C   0  0  0  0  0  2  0  0  0  0  0  0
  186.8140  178.4550  147.4480 C   0  0  0  0  0  2  0  0  0  0  0  0
  191.6020  176.8280  146.2110 C   0  0  0  0  0  2  0  0  0  0  0  0
  192.4650  175.6470  147.8650 C   0  0  0  0  0  1  0  0  0  0  0  0
  191.9540  175.5240  146.5740 O   0  0  0  0  0  0  0  0  0  0  0  0
  189.8820  177.4640  136.8970 C   0  0  0  0  0  2  0  0  0  0  0  0
  190.9520  176.3750  136.8790 C   0  0  0  0  0  2  0  0  0  0  0  0
  191.4210  176.0690  138.2910 C   0  0  0  0  0  2  0  0  0  0  0  0
  192.8810  176.4530  138.4600 C   0  0  0  0  0  1  0  0  0  0  0  0
  2  8  2  0  0  0  0
  2 10  1  0  0  0  0
  3 22  1  0  0  0  0
  4  5  1  0  0  0  0
  5 40  1  6  0  0  0
  5  8  1  0  0  0  0
  6  4  2  0  0  0  0
  7  3  2  0  0  0  0
  8  7  1  0  0  0  0
  9  2  1  0  0  0  0
 10 11  2  0  0  0  0
 11  3  1  0  0  0  0
 11  1  1  0  0  0  0
 12  4  1  0  0  0  0
 12  9  1  0  0  0  0
 13 10  1  0  0  0  0
 14 17  2  0  0  0  0
 14 15  1  0  0  0  0
 15 19  2  0  0  0  0
 17 18  1  0  0  0  0
 18 13  1  0  0  0  0
 18 16  2  0  0  0  0
 19 16  1  0  0  0  0
 20 15  1  0  0  0  0
 21 20  1  0  0  0  0
 22 23  1  0  0  0  0
 23 24  1  0  0  0  0
 24 25  1  6  0  0  0
 24 26  1  0  0  0  0
 26 27  1  0  0  0  0
 27 37  1  0  0  0  0
 27 28  1  0  0  0  0
 28 29  2  0  0  0  0
 28 30  2  0  0  0  0
 31 28  1  0  0  0  0
 31 36  1  0  0  0  0
 32 36  1  0  0  0  0
 33 34  1  0  0  0  0
 33 35  1  0  0  0  0
 34 32  1  0  0  0  0
 35 31  1  0  0  0  0
 37 39  1  0  0  0  0
 39 38  1  0  0  0  0
 41 40  1  0  0  0  0
 41 42  1  0  0  0  0
 42 43  1  0  0  0  0
M  END
>  <MODEL>
6

>  <REMARK>
 VINA RESULT:      -6.7      3.222      7.428
  Name = 
  15 active torsions:
  status: ('A' for Active; 'I' for Inactive)
    1  A    between atoms: C_1  and  C_34
    2  A    between atoms: C_1  and  C_35
    3  A    between atoms: N_2  and  C_6
    4  A    between atoms: N_2  and  C_13
    5  A    between atoms: C_3  and  N_4
    6  A    between atoms: C_3  and  C_12
    7  A    between atoms: N_4  and  S_14
    8  A    between atoms: N_4  and  C_42
    9  A    between atoms: C_5  and  C_18
   10  A    between atoms: C_6  and  C_12
   11  A    between atoms: N_11  and  S_14
   12  A    between atoms: O_15  and  C_42
   13  A    between atoms: C_18  and  C_24
   14  A    between atoms: C_19  and  O_25
   15  A    between atoms: C_21  and  C_24
                            x       y       z     vdW  Elec       q    Type
                         _______ _______ _______ _____ _____    ______ ____

>  <TORSDO>
F 15

$$$$
=
 OpenBabel11052416313D

 43 46  0  0  1  0  0  0  0  0999 V2000
  184.5250  179.0660  138.7140 C   0  0  0  0  0  1  0  0  0  0  0  0
  186.1340  176.0010  137.1280 C   0  0  0  0  0  0  0  0  0  0  0  0
  183.6130  176.7630  138.1460 C   0  0  0  0  0  0  0  0  0  0  0  0
  186.5900  173.3650  136.0910 C   0  0  0  0  0  0  0  0  0  0  0  0
  185.1970  173.6840  136.5640 C   0  0  2  0  0  3  0  0  0  0  0  0
  186.7760  172.4520  135.3020 O   0  0  0  0  0  0  0  0  0  0  0  0
  183.8180  175.4860  137.6260 C   0  0  0  0  0  3  0  0  0  0  0  0
  185.0580  175.0870  137.1240 C   0  0  0  0  0  0  0  0  0  0  0  0
  187.4380  175.6340  136.4610 C   0  0  0  0  0  2  0  0  0  0  0  0
  185.9510  177.2980  137.6530 C   0  0  0  0  0  0  0  0  0  0  0  0
  184.6900  177.6830  138.1650 C   0  0  0  0  0  0  0  0  0  0  0  0
  187.7490  174.1530  136.6040 C   0  0  0  0  0  2  0  0  0  0  0  0
  187.1050  178.2650  137.6740 C   0  0  0  0  0  2  0  0  0  0  0  0
  188.4630  178.0000  141.2010 C   0  0  0  0  0  3  0  0  0  0  0  0
  189.7420  177.4800  140.9760 C   0  0  0  0  0  0  0  0  0  0  0  0
  189.2980  177.4630  138.5890 C   0  0  0  0  0  3  0  0  0  0  0  0
  187.6040  178.2520  140.1280 C   0  0  0  0  0  3  0  0  0  0  0  0
  188.0200  177.9830  138.8220 C   0  0  0  0  0  0  0  0  0  0  0  0
  190.1560  177.2110  139.6610 C   0  0  0  0  0  3  0  0  0  0  0  0
  190.5760  177.2410  142.0720 O   0  0  0  0  0  0  0  0  0  0  0  0
  190.4480  176.0940  142.8980 C   0  0  0  0  0  1  0  0  0  0  0  0
  182.2970  177.0520  138.6460 N   0  0  0  0  0  2  0  0  0  0  0  0
  181.6360  176.4160  139.7750 C   0  0  0  0  0  2  0  0  0  0  0  0
  180.1520  176.7310  139.7430 C   0  0  1  0  0  3  0  0  0  0  0  0
  179.3560  175.4410  139.7530 C   0  0  0  0  0  1  0  0  0  0  0  0
  179.7770  177.5660  140.9640 C   0  0  0  0  0  2  0  0  0  0  0  0
  180.5580  178.8020  141.1110 N   0  0  0  0  0  0  0  0  0  0  0  0
  180.7160  179.2860  142.7810 S   0  0  0  0  0  0  0  0  0  0  0  0
  180.0860  180.6350  142.9980 O   0  0  0  0  0  0  0  0  0  0  0  0
  180.0220  178.2770  143.6540 O   0  0  0  0  0  0  0  0  0  0  0  0
  182.3980  179.3700  143.2020 N   0  0  0  0  0  0  0  0  0  0  0  0
  184.6320  178.4600  142.5570 C   0  0  0  0  0  2  0  0  0  0  0  0
  184.0210  178.8130  144.9800 C   0  0  0  0  0  2  0  0  0  0  0  0
  184.9900  179.1860  143.8550 C   0  0  0  0  0  2  0  0  0  0  0  0
  182.5710  178.7000  144.4900 C   0  0  0  0  0  2  0  0  0  0  0  0
  183.1500  178.6280  142.1830 C   0  0  0  0  0  2  0  0  0  0  0  0
  180.0830  179.8910  140.2480 C   0  0  0  0  0  2  0  0  0  0  0  0
  180.5430  180.2210  138.1140 C   0  0  0  0  0  1  0  0  0  0  0  0
  181.0870  180.3520  139.3910 O   0  0  0  0  0  0  0  0  0  0  0  0
  184.6760  172.6080  137.5230 C   0  0  0  0  0  2  0  0  0  0  0  0
  183.7250  171.6310  136.8380 C   0  0  0  0  0  2  0  0  0  0  0  0
  182.5340  172.3700  136.2530 C   0  0  0  0  0  2  0  0  0  0  0  0
  181.2590  171.9860  136.9850 C   0  0  0  0  0  1  0  0  0  0  0  0
  2 10  1  0  0  0  0
  3 11  1  0  0  0  0
  3 22  1  0  0  0  0
  4  5  1  0  0  0  0
  4 12  1  0  0  0  0
  5  8  1  0  0  0  0
  5 40  1  1  0  0  0
  6  4  2  0  0  0  0
  7  3  2  0  0  0  0
  8  2  2  0  0  0  0
  8  7  1  0  0  0  0
  9 12  1  0  0  0  0
  9  2  1  0  0  0  0
 10 13  1  0  0  0  0
 10 11  2  0  0  0  0
 11  1  1  0  0  0  0
 13 18  1  0  0  0  0
 15 14  1  0  0  0  0
 15 20  1  0  0  0  0
 16 18  2  0  0  0  0
 16 19  1  0  0  0  0
 17 14  2  0  0  0  0
 18 17  1  0  0  0  0
 19 15  2  0  0  0  0
 20 21  1  0  0  0  0
 22 23  1  0  0  0  0
 24 25  1  1  0  0  0
 24 23  1  0  0  0  0
 24 26  1  0  0  0  0
 26 27  1  0  0  0  0
 27 28  1  0  0  0  0
 28 29  2  0  0  0  0
 28 31  1  0  0  0  0
 28 30  2  0  0  0  0
 31 35  1  0  0  0  0
 32 34  1  0  0  0  0
 34 33  1  0  0  0  0
 35 33  1  0  0  0  0
 36 32  1  0  0  0  0
 36 31  1  0  0  0  0
 37 27  1  0  0  0  0
 38 39  1  0  0  0  0
 39 37  1  0  0  0  0
 41 40  1  0  0  0  0
 42 41  1  0  0  0  0
 42 43  1  0  0  0  0
M  END
>  <MODEL>
7

>  <REMARK>
 VINA RESULT:      -6.5      3.397      9.370
  Name = 
  15 active torsions:
  status: ('A' for Active; 'I' for Inactive)
    1  A    between atoms: C_1  and  C_34
    2  A    between atoms: C_1  and  C_35
    3  A    between atoms: N_2  and  C_6
    4  A    between atoms: N_2  and  C_13
    5  A    between atoms: C_3  and  N_4
    6  A    between atoms: C_3  and  C_12
    7  A    between atoms: N_4  and  S_14
    8  A    between atoms: N_4  and  C_42
    9  A    between atoms: C_5  and  C_18
   10  A    between atoms: C_6  and  C_12
   11  A    between atoms: N_11  and  S_14
   12  A    between atoms: O_15  and  C_42
   13  A    between atoms: C_18  and  C_24
   14  A    between atoms: C_19  and  O_25
   15  A    between atoms: C_21  and  C_24
                            x       y       z     vdW  Elec       q    Type
                         _______ _______ _______ _____ _____    ______ ____

>  <TORSDO>
F 15

$$$$
=
 OpenBabel11052416313D

 43 46  0  0  1  0  0  0  0  0999 V2000
  184.6710  178.7680  138.5250 C   0  0  0  0  0  1  0  0  0  0  0  0
  181.6470  176.7220  139.6030 C   0  0  0  0  0  0  0  0  0  0  0  0
  183.9050  176.4190  137.9340 C   0  0  0  0  0  0  0  0  0  0  0  0
  179.6990  174.6330  139.8710 C   0  0  0  0  0  0  0  0  0  0  0  0
  180.8900  174.3510  138.9940 C   0  0  2  0  0  3  0  0  0  0  0  0
  179.0540  173.7110  140.3450 O   0  0  0  0  0  0  0  0  0  0  0  0
  182.9750  175.3900  138.0730 C   0  0  0  0  0  3  0  0  0  0  0  0
  181.8490  175.5220  138.8870 C   0  0  0  0  0  0  0  0  0  0  0  0
  180.5140  176.8270  140.5950 C   0  0  0  0  0  2  0  0  0  0  0  0
  182.5730  177.7780  139.4750 C   0  0  0  0  0  0  0  0  0  0  0  0
  183.7050  177.6310  138.6400 C   0  0  0  0  0  0  0  0  0  0  0  0
  179.2930  176.0420  140.1440 C   0  0  0  0  0  2  0  0  0  0  0  0
  182.3470  179.0650  140.2240 C   0  0  0  0  0  2  0  0  0  0  0  0
  182.2120  179.0430  144.0100 C   0  0  0  0  0  3  0  0  0  0  0  0
  183.5300  178.7100  144.3410 C   0  0  0  0  0  0  0  0  0  0  0  0
  184.0780  178.6000  141.9780 C   0  0  0  0  0  3  0  0  0  0  0  0
  181.8260  179.1550  142.6720 C   0  0  0  0  0  3  0  0  0  0  0  0
  182.7580  178.9330  141.6550 C   0  0  0  0  0  0  0  0  0  0  0  0
  184.4630  178.4880  143.3150 C   0  0  0  0  0  3  0  0  0  0  0  0
  183.8830  178.6080  145.6890 O   0  0  0  0  0  0  0  0  0  0  0  0
  185.1920  178.8900  146.1630 C   0  0  0  0  0  1  0  0  0  0  0  0
  185.0150  176.1700  137.0580 N   0  0  0  0  0  2  0  0  0  0  0  0
  186.3890  175.8950  137.4490 C   0  0  0  0  0  2  0  0  0  0  0  0
  187.3330  176.3130  136.3370 C   0  0  1  0  0  3  0  0  0  0  0  0
  186.5990  177.2030  135.3530 C   0  0  0  0  0  1  0  0  0  0  0  0
  188.5150  177.0780  136.9240 C   0  0  0  0  0  2  0  0  0  0  0  0
  189.1390  176.4240  138.0830 N   0  0  0  0  0  0  0  0  0  0  0  0
  189.5420  177.5620  139.3440 S   0  0  0  0  0  0  0  0  0  0  0  0
  191.0330  177.7330  139.4390 O   0  0  0  0  0  0  0  0  0  0  0  0
  188.9170  178.8920  139.0230 O   0  0  0  0  0  0  0  0  0  0  0  0
  188.9380  176.9800  140.8640 N   0  0  0  0  0  0  0  0  0  0  0  0
  187.7970  177.7480  142.9480 C   0  0  0  0  0  2  0  0  0  0  0  0
  189.6360  176.0230  143.0320 C   0  0  0  0  0  2  0  0  0  0  0  0
  188.1660  176.3180  143.3430 C   0  0  0  0  0  2  0  0  0  0  0  0
  190.0880  176.6360  141.7000 C   0  0  0  0  0  2  0  0  0  0  0  0
  188.2060  178.0800  141.5030 C   0  0  0  0  0  2  0  0  0  0  0  0
  190.2670  175.5580  137.7200 C   0  0  0  0  0  2  0  0  0  0  0  0
  190.5340  173.7380  136.4970 C   0  0  0  0  0  1  0  0  0  0  0  0
  189.8880  174.2140  137.6380 O   0  0  0  0  0  0  0  0  0  0  0  0
  180.4580  173.8110  137.6260 C   0  0  0  0  0  2  0  0  0  0  0  0
  180.3900  172.2860  137.5990 C   0  0  0  0  0  2  0  0  0  0  0  0
  181.2980  171.7330  136.5150 C   0  0  0  0  0  2  0  0  0  0  0  0
  182.7520  171.8130  136.9470 C   0  0  0  0  0  1  0  0  0  0  0  0
  1 11  1  0  0  0  0
  2  9  1  0  0  0  0
  3  7  2  0  0  0  0
  3 11  1  0  0  0  0
  4 12  1  0  0  0  0
  4  6  2  0  0  0  0
  5 40  1  6  0  0  0
  5  4  1  0  0  0  0
  7  8  1  0  0  0  0
  8  5  1  0  0  0  0
  8  2  2  0  0  0  0
 10  2  1  0  0  0  0
 10 13  1  0  0  0  0
 11 10  2  0  0  0  0
 12  9  1  0  0  0  0
 13 18  1  0  0  0  0
 14 15  1  0  0  0  0
 15 20  1  0  0  0  0
 16 19  1  0  0  0  0
 17 14  2  0  0  0  0
 18 16  2  0  0  0  0
 18 17  1  0  0  0  0
 19 15  2  0  0  0  0
 20 21  1  0  0  0  0
 22 23  1  0  0  0  0
 22  3  1  0  0  0  0
 24 25  1  6  0  0  0
 24 26  1  0  0  0  0
 24 23  1  0  0  0  0
 26 27  1  0  0  0  0
 27 28  1  0  0  0  0
 28 29  2  0  0  0  0
 28 31  1  0  0  0  0
 30 28  2  0  0  0  0
 31 36  1  0  0  0  0
 31 35  1  0  0  0  0
 32 34  1  0  0  0  0
 33 34  1  0  0  0  0
 35 33  1  0  0  0  0
 36 32  1  0  0  0  0
 37 27  1  0  0  0  0
 38 39  1  0  0  0  0
 39 37  1  0  0  0  0
 41 40  1  0  0  0  0
 42 43  1  0  0  0  0
 42 41  1  0  0  0  0
M  END
>  <MODEL>
8

>  <REMARK>
 VINA RESULT:      -6.5      1.783      6.438
  Name = 
  15 active torsions:
  status: ('A' for Active; 'I' for Inactive)
    1  A    between atoms: C_1  and  C_34
    2  A    between atoms: C_1  and  C_35
    3  A    between atoms: N_2  and  C_6
    4  A    between atoms: N_2  and  C_13
    5  A    between atoms: C_3  and  N_4
    6  A    between atoms: C_3  and  C_12
    7  A    between atoms: N_4  and  S_14
    8  A    between atoms: N_4  and  C_42
    9  A    between atoms: C_5  and  C_18
   10  A    between atoms: C_6  and  C_12
   11  A    between atoms: N_11  and  S_14
   12  A    between atoms: O_15  and  C_42
   13  A    between atoms: C_18  and  C_24
   14  A    between atoms: C_19  and  O_25
   15  A    between atoms: C_21  and  C_24
                            x       y       z     vdW  Elec       q    Type
                         _______ _______ _______ _____ _____    ______ ____

>  <TORSDO>
F 15

$$$$
=
 OpenBabel11052416313D

 43 46  0  0  1  0  0  0  0  0999 V2000
  186.4160  179.7760  142.3430 C   0  0  0  0  0  1  0  0  0  0  0  0
  182.7570  178.7730  142.6600 C   0  0  0  0  0  0  0  0  0  0  0  0
  184.7950  178.7010  140.7070 C   0  0  0  0  0  0  0  0  0  0  0  0
  180.1110  177.8190  142.0920 C   0  0  0  0  0  0  0  0  0  0  0  0
  181.1370  177.6910  140.9960 C   0  0  2  0  0  3  0  0  0  0  0  0
  179.1170  177.1110  142.0870 O   0  0  0  0  0  0  0  0  0  0  0  0
  183.5190  178.2160  140.4270 C   0  0  0  0  0  3  0  0  0  0  0  0
  182.4950  178.2490  141.3760 C   0  0  0  0  0  0  0  0  0  0  0  0
  181.7050  178.6850  143.7390 C   0  0  0  0  0  2  0  0  0  0  0  0
  184.0400  179.2730  142.9660 C   0  0  0  0  0  0  0  0  0  0  0  0
  185.0640  179.2400  141.9910 C   0  0  0  0  0  0  0  0  0  0  0  0
  180.3010  178.8280  143.1740 C   0  0  0  0  0  2  0  0  0  0  0  0
  184.3120  179.8500  144.3300 C   0  0  0  0  0  2  0  0  0  0  0  0
  186.6170  178.6070  147.0670 C   0  0  0  0  0  3  0  0  0  0  0  0
  187.1820  177.4730  146.4720 C   0  0  0  0  0  0  0  0  0  0  0  0
  185.8630  177.8850  144.4760 C   0  0  0  0  0  3  0  0  0  0  0  0
  185.6820  179.3780  146.3720 C   0  0  0  0  0  3  0  0  0  0  0  0
  185.3040  179.0170  145.0760 C   0  0  0  0  0  0  0  0  0  0  0  0
  186.7980  177.1150  145.1700 C   0  0  0  0  0  3  0  0  0  0  0  0
  188.1160  176.7260  147.1950 O   0  0  0  0  0  0  0  0  0  0  0  0
  189.5120  176.7960  146.9460 C   0  0  0  0  0  1  0  0  0  0  0  0
  185.7610  178.6270  139.6460 N   0  0  0  0  0  2  0  0  0  0  0  0
  185.4850  178.6280  138.2170 C   0  0  0  0  0  2  0  0  0  0  0  0
  185.9260  177.3090  137.6100 C   0  0  1  0  0  3  0  0  0  0  0  0
  185.0650  176.9910  136.4040 C   0  0  0  0  0  1  0  0  0  0  0  0
  187.3860  177.4040  137.1770 C   0  0  0  0  0  2  0  0  0  0  0  0
  188.3030  176.5680  137.9650 N   0  0  0  0  0  0  0  0  0  0  0  0
  189.5580  177.5090  138.7300 S   0  0  0  0  0  0  0  0  0  0  0  0
  190.8240  177.4520  137.9190 O   0  0  0  0  0  0  0  0  0  0  0  0
  189.1070  178.9400  138.8330 O   0  0  0  0  0  0  0  0  0  0  0  0
  189.8710  176.8750  140.3160 N   0  0  0  0  0  0  0  0  0  0  0  0
  189.0150  176.9400  142.6610 C   0  0  0  0  0  2  0  0  0  0  0  0
  191.4920  176.9250  142.1800 C   0  0  0  0  0  2  0  0  0  0  0  0
  190.3340  176.1940  142.8660 C   0  0  0  0  0  2  0  0  0  0  0  0
  191.0940  177.5030  140.8160 C   0  0  0  0  0  2  0  0  0  0  0  0
  188.7540  177.2700  141.1820 C   0  0  0  0  0  2  0  0  0  0  0  0
  188.8310  175.4230  137.2130 C   0  0  0  0  0  2  0  0  0  0  0  0
  187.7990  174.0140  135.8620 C   0  0  0  0  0  1  0  0  0  0  0  0
  188.2600  175.3280  135.9400 O   0  0  0  0  0  0  0  0  0  0  0  0
  180.6100  178.2570  139.6730 C   0  0  0  0  0  2  0  0  0  0  0  0
  180.1980  177.1610  138.6950 C   0  0  0  0  0  2  0  0  0  0  0  0
  180.9210  175.8640  139.0160 C   0  0  0  0  0  2  0  0  0  0  0  0
  181.9510  175.5510  137.9450 C   0  0  0  0  0  1  0  0  0  0  0  0
  2 10  1  0  0  0  0
  2  9  1  0  0  0  0
  3 11  1  0  0  0  0
  4 12  1  0  0  0  0
  5 40  1  6  0  0  0
  5  8  1  0  0  0  0
  5  4  1  0  0  0  0
  6  4  2  0  0  0  0
  7  3  2  0  0  0  0
  7  8  1  0  0  0  0
  8  2  2  0  0  0  0
 10 13  1  0  0  0  0
 11  1  1  0  0  0  0
 11 10  2  0  0  0  0
 12  9  1  0  0  0  0
 13 18  1  0  0  0  0
 15 14  1  0  0  0  0
 15 20  1  0  0  0  0
 16 18  2  0  0  0  0
 16 19  1  0  0  0  0
 17 14  2  0  0  0  0
 18 17  1  0  0  0  0
 19 15  2  0  0  0  0
 21 20  1  0  0  0  0
 22  3  1  0  0  0  0
 23 22  1  0  0  0  0
 24 25  1  6  0  0  0
 24 23  1  0  0  0  0
 26 24  1  0  0  0  0
 26 27  1  0  0  0  0
 27 28  1  0  0  0  0
 28 30  2  0  0  0  0
 28 31  1  0  0  0  0
 29 28  2  0  0  0  0
 31 35  1  0  0  0  0
 31 36  1  0  0  0  0
 32 34  1  0  0  0  0
 33 34  1  0  0  0  0
 35 33  1  0  0  0  0
 36 32  1  0  0  0  0
 37 27  1  0  0  0  0
 38 39  1  0  0  0  0
 39 37  1  0  0  0  0
 41 42  1  0  0  0  0
 41 40  1  0  0  0  0
 43 42  1  0  0  0  0
M  END
>  <MODEL>
9

>  <REMARK>
 VINA RESULT:      -6.5      1.847      6.390
  Name = 
  15 active torsions:
  status: ('A' for Active; 'I' for Inactive)
    1  A    between atoms: C_1  and  C_34
    2  A    between atoms: C_1  and  C_35
    3  A    between atoms: N_2  and  C_6
    4  A    between atoms: N_2  and  C_13
    5  A    between atoms: C_3  and  N_4
    6  A    between atoms: C_3  and  C_12
    7  A    between atoms: N_4  and  S_14
    8  A    between atoms: N_4  and  C_42
    9  A    between atoms: C_5  and  C_18
   10  A    between atoms: C_6  and  C_12
   11  A    between atoms: N_11  and  S_14
   12  A    between atoms: O_15  and  C_42
   13  A    between atoms: C_18  and  C_24
   14  A    between atoms: C_19  and  O_25
   15  A    between atoms: C_21  and  C_24
                            x       y       z     vdW  Elec       q    Type
                         _______ _______ _______ _____ _____    ______ ____

>  <TORSDO>
F 15

$$$$
