=
 OpenBabel11052416583D

 32 36  0  0  1  0  0  0  0  0999 V2000
  187.4000  176.8180  144.5840 C   0  0  0  0  0  3  0  0  0  0  0  0
  190.9540  177.6070  141.3380 C   0  0  0  0  0  0  0  0  0  0  0  0
  187.3960  178.4570  137.3670 C   0  0  0  0  0  3  0  0  0  0  0  0
  188.5210  178.3160  136.5570 C   0  0  0  0  0  3  0  0  0  0  0  0
  190.0530  177.5070  144.0060 C   0  0  0  0  0  0  0  0  0  0  0  0
  189.5770  177.3490  141.5970 C   0  0  0  0  0  0  0  0  0  0  0  0
  187.8250  176.8970  143.2580 C   0  0  0  0  0  3  0  0  0  0  0  0
  187.4710  178.1240  138.7200 C   0  0  0  0  0  3  0  0  0  0  0  0
  188.6420  177.3520  140.6830 N   0  0  0  0  0  0  0  0  0  0  0  0
  188.6630  177.6510  139.2830 C   0  0  0  0  0  0  0  0  0  0  0  0
  191.0040  176.9120  138.9720 N   0  0  0  0  0  0  0  0  0  0  0  0
  190.4830  177.6940  146.3560 F   0  0  0  0  0  0  0  0  0  0  0  0
  189.6190  177.4310  145.3400 C   0  0  0  0  0  0  0  0  0  0  0  0
  189.1550  177.2330  142.9460 C   0  0  0  0  0  0  0  0  0  0  0  0
  191.3650  177.8740  143.7200 C   0  0  0  0  0  3  0  0  0  0  0  0
  188.2900  177.0890  145.6250 C   0  0  0  0  0  0  0  0  0  0  0  0
  189.7080  177.8250  137.1020 C   0  0  0  0  0  3  0  0  0  0  0  0
  189.7890  177.4750  138.4630 C   0  0  0  0  0  0  0  0  0  0  0  0
  191.8080  177.9080  142.4030 C   0  0  0  0  0  3  0  0  0  0  0  0
  191.5810  177.4260  140.1740 C   0  0  0  0  0  3  0  0  0  0  0  0
  191.9780  173.9080  136.8700 C   0  0  0  0  0  0  0  0  0  0  0  0
  193.2180  174.1710  136.4630 C   0  0  0  0  0  3  0  0  0  0  0  0
  193.2790  176.2580  137.9730 C   0  0  2  0  0  3  0  0  0  0  0  0
  195.0040  175.7130  136.4060 O   0  0  0  0  0  0  0  0  0  0  0  0
  193.8880  175.4030  136.8970 C   0  0  0  0  0  0  0  0  0  0  0  0
  191.2370  174.8710  137.7030 C   0  0  0  0  0  3  0  0  0  0  0  0
  191.3660  172.7710  136.4590 F   0  0  0  0  0  0  0  0  0  0  0  0
  193.9550  176.0340  139.1600 F   0  0  0  0  0  0  0  0  0  0  0  0
  191.7960  175.9990  138.1760 C   0  0  0  0  0  0  0  0  0  0  0  0
  187.8230  176.9720  147.0360 C   0  0  0  0  0  2  0  0  0  0  0  0
  187.6200  178.2430  147.5720 O   0  0  0  0  0  0  0  0  0  0  0  0
  188.2730  178.2130  148.8030 C   0  0  0  0  0  1  0  0  0  0  0  0
  1 16  1  0  0  0  0
  2  6  1  0  0  0  0
  2 19  1  0  0  0  0
  3  8  1  0  0  0  0
  4 17  1  0  0  0  0
  4  3  2  0  0  0  0
  5 13  1  0  0  0  0
  6 14  1  0  0  0  0
  7  1  2  0  0  0  0
  8 10  2  0  0  0  0
  9  6  2  0  0  0  0
 10  9  1  0  0  0  0
 11 20  1  0  0  0  0
 13 16  2  0  0  0  0
 13 12  1  0  0  0  0
 14  7  1  0  0  0  0
 14  5  2  0  0  0  0
 15  5  1  0  0  0  0
 16 30  1  0  0  0  0
 17 18  2  0  0  0  0
 18 11  1  0  0  0  0
 18 10  1  0  0  0  0
 19 15  2  0  0  0  0
 20  2  2  0  0  0  0
 21 26  1  0  0  0  0
 22 21  2  0  0  0  0
 22 25  1  0  0  0  0
 23 29  1  0  0  0  0
 23 28  1  1  0  0  0
 24 25  2  0  0  0  0
 25 23  1  0  0  0  0
 26 29  2  0  0  0  0
 27 21  1  0  0  0  0
 29 11  1  0  0  0  0
 30 31  1  0  0  0  0
 31 32  1  0  0  0  0
M  END
>  <MODEL>
1

>  <REMARK>
 VINA RESULT:      -9.4      0.000      0.000
  Name = 
  3 active torsions:
  status: ('A' for Active; 'I' for Inactive)
    1  A    between atoms: O_1  and  C_10
    2  A    between atoms: C_10  and  C_24
    3  A    between atoms: N_16  and  C_32
                            x       y       z     vdW  Elec       q    Type
                         _______ _______ _______ _____ _____    ______ ____

>  <TORSDO>
F 3

$$$$
=
 OpenBabel11052416583D

 32 36  0  0  1  0  0  0  0  0999 V2000
  188.5290  177.0450  145.4700 C   0  0  0  0  0  3  0  0  0  0  0  0
  186.3060  178.5460  141.3950 C   0  0  0  0  0  0  0  0  0  0  0  0
  181.6260  179.2660  143.9890 C   0  0  0  0  0  3  0  0  0  0  0  0
  181.1140  179.3370  142.6950 C   0  0  0  0  0  3  0  0  0  0  0  0
  188.6600  178.1110  142.8820 C   0  0  0  0  0  0  0  0  0  0  0  0
  186.2030  178.0940  142.7430 C   0  0  0  0  0  0  0  0  0  0  0  0
  187.3550  177.2870  144.7570 C   0  0  0  0  0  3  0  0  0  0  0  0
  182.9370  178.8330  144.1920 C   0  0  0  0  0  3  0  0  0  0  0  0
  185.0880  178.0550  143.4230 N   0  0  0  0  0  0  0  0  0  0  0  0
  183.7530  178.4700  143.1130 C   0  0  0  0  0  0  0  0  0  0  0  0
  183.9950  178.0620  140.6840 N   0  0  0  0  0  0  0  0  0  0  0  0
  191.0500  178.1540  143.0560 F   0  0  0  0  0  0  0  0  0  0  0  0
  189.8400  177.8700  143.6060 C   0  0  0  0  0  0  0  0  0  0  0  0
  187.3980  177.8140  143.4530 C   0  0  0  0  0  0  0  0  0  0  0  0
  188.7260  178.6640  141.6060 C   0  0  0  0  0  3  0  0  0  0  0  0
  189.7700  177.3390  144.9010 C   0  0  0  0  0  0  0  0  0  0  0  0
  181.9100  178.9570  141.6140 C   0  0  0  0  0  3  0  0  0  0  0  0
  183.2290  178.5070  141.8110 C   0  0  0  0  0  0  0  0  0  0  0  0
  187.5630  178.8630  140.8720 C   0  0  0  0  0  3  0  0  0  0  0  0
  185.3260  178.5440  140.4900 C   0  0  0  0  0  3  0  0  0  0  0  0
  181.7990  175.5850  138.8300 C   0  0  0  0  0  0  0  0  0  0  0  0
  181.9640  175.8870  137.5440 C   0  0  0  0  0  3  0  0  0  0  0  0
  183.8150  177.5680  138.1690 C   0  0  2  0  0  3  0  0  0  0  0  0
  182.9420  177.3310  135.9530 O   0  0  0  0  0  0  0  0  0  0  0  0
  182.8880  176.9600  137.1540 C   0  0  0  0  0  0  0  0  0  0  0  0
  182.4820  176.3590  139.8810 C   0  0  0  0  0  3  0  0  0  0  0  0
  180.9400  174.5980  139.1810 F   0  0  0  0  0  0  0  0  0  0  0  0
  185.0850  177.0520  137.9820 F   0  0  0  0  0  0  0  0  0  0  0  0
  183.3750  177.3270  139.6030 C   0  0  0  0  0  0  0  0  0  0  0  0
  191.0130  177.0460  145.6700 C   0  0  0  0  0  2  0  0  0  0  0  0
  190.6890  176.4070  146.8650 O   0  0  0  0  0  0  0  0  0  0  0  0
  191.8950  175.8720  147.3160 C   0  0  0  0  0  1  0  0  0  0  0  0
  2  6  1  0  0  0  0
  3  8  1  0  0  0  0
  4  3  2  0  0  0  0
  5 14  2  0  0  0  0
  5 13  1  0  0  0  0
  6  9  2  0  0  0  0
  6 14  1  0  0  0  0
  7  1  2  0  0  0  0
 10  9  1  0  0  0  0
 10  8  2  0  0  0  0
 11 18  1  0  0  0  0
 12 13  1  0  0  0  0
 13 16  2  0  0  0  0
 14  7  1  0  0  0  0
 15  5  1  0  0  0  0
 16  1  1  0  0  0  0
 16 30  1  0  0  0  0
 17 18  2  0  0  0  0
 17  4  1  0  0  0  0
 18 10  1  0  0  0  0
 19  2  1  0  0  0  0
 19 15  2  0  0  0  0
 20 11  1  0  0  0  0
 20  2  2  0  0  0  0
 21 27  1  0  0  0  0
 21 26  1  0  0  0  0
 22 21  2  0  0  0  0
 23 28  1  1  0  0  0
 23 29  1  0  0  0  0
 24 25  2  0  0  0  0
 25 22  1  0  0  0  0
 25 23  1  0  0  0  0
 29 26  2  0  0  0  0
 29 11  1  0  0  0  0
 30 31  1  0  0  0  0
 31 32  1  0  0  0  0
M  END
>  <MODEL>
2

>  <REMARK>
 VINA RESULT:      -8.8      4.989      7.119
  Name = 
  3 active torsions:
  status: ('A' for Active; 'I' for Inactive)
    1  A    between atoms: O_1  and  C_10
    2  A    between atoms: C_10  and  C_24
    3  A    between atoms: N_16  and  C_32
                            x       y       z     vdW  Elec       q    Type
                         _______ _______ _______ _____ _____    ______ ____

>  <TORSDO>
F 3

$$$$
=
 OpenBabel11052416583D

 32 36  0  0  1  0  0  0  0  0999 V2000
  187.4790  176.8220  144.4930 C   0  0  0  0  0  3  0  0  0  0  0  0
  190.9720  177.5140  141.1600 C   0  0  0  0  0  0  0  0  0  0  0  0
  187.3460  178.5730  137.3040 C   0  0  0  0  0  3  0  0  0  0  0  0
  188.4410  178.3980  136.4610 C   0  0  0  0  0  3  0  0  0  0  0  0
  190.1420  177.4090  143.8510 C   0  0  0  0  0  0  0  0  0  0  0  0
  189.5930  177.3080  141.4540 C   0  0  0  0  0  0  0  0  0  0  0  0
  187.8700  176.9030  143.1570 C   0  0  0  0  0  3  0  0  0  0  0  0
  187.4430  178.2150  138.6490 C   0  0  0  0  0  3  0  0  0  0  0  0
  188.6350  177.3650  140.5660 N   0  0  0  0  0  0  0  0  0  0  0  0
  188.6300  177.6850  139.1710 C   0  0  0  0  0  0  0  0  0  0  0  0
  190.9290  176.8550  138.7840 N   0  0  0  0  0  0  0  0  0  0  0  0
  190.6440  177.5410  146.1900 F   0  0  0  0  0  0  0  0  0  0  0  0
  189.7420  177.3300  145.1950 C   0  0  0  0  0  0  0  0  0  0  0  0
  189.2040  177.1890  142.8120 C   0  0  0  0  0  0  0  0  0  0  0  0
  191.4600  177.7260  143.5330 C   0  0  0  0  0  3  0  0  0  0  0  0
  188.4080  177.0390  145.5130 C   0  0  0  0  0  0  0  0  0  0  0  0
  189.6210  177.8500  136.9650 C   0  0  0  0  0  3  0  0  0  0  0  0
  189.7240  177.4760  138.3170 C   0  0  0  0  0  0  0  0  0  0  0  0
  191.8670  177.7620  142.2050 C   0  0  0  0  0  3  0  0  0  0  0  0
  191.5590  177.3250  139.9770 C   0  0  0  0  0  3  0  0  0  0  0  0
  193.7730  175.2150  136.8830 C   0  0  0  0  0  0  0  0  0  0  0  0
  193.2620  174.0700  136.4350 C   0  0  0  0  0  3  0  0  0  0  0  0
  190.9290  174.7750  137.2740 C   0  0  2  0  0  3  0  0  0  0  0  0
  191.4130  172.6030  136.3940 O   0  0  0  0  0  0  0  0  0  0  0  0
  191.8560  173.7400  136.7010 C   0  0  0  0  0  0  0  0  0  0  0  0
  192.9640  176.1330  137.7030 C   0  0  0  0  0  3  0  0  0  0  0  0
  195.0730  175.5080  136.6390 F   0  0  0  0  0  0  0  0  0  0  0  0
  190.1290  175.2710  136.2610 F   0  0  0  0  0  0  0  0  0  0  0  0
  191.6590  175.9220  137.9530 C   0  0  0  0  0  0  0  0  0  0  0  0
  187.9750  176.9190  146.9340 C   0  0  0  0  0  2  0  0  0  0  0  0
  187.7490  178.1880  147.4660 O   0  0  0  0  0  0  0  0  0  0  0  0
  188.3830  178.1660  148.7080 C   0  0  0  0  0  1  0  0  0  0  0  0
  1 16  1  0  0  0  0
  2  6  1  0  0  0  0
  2 19  1  0  0  0  0
  3  8  1  0  0  0  0
  4 17  1  0  0  0  0
  4  3  2  0  0  0  0
  5 13  1  0  0  0  0
  6 14  1  0  0  0  0
  7  1  2  0  0  0  0
  8 10  2  0  0  0  0
  9  6  2  0  0  0  0
 10  9  1  0  0  0  0
 11 20  1  0  0  0  0
 13 16  2  0  0  0  0
 13 12  1  0  0  0  0
 14  7  1  0  0  0  0
 14  5  2  0  0  0  0
 15  5  1  0  0  0  0
 16 30  1  0  0  0  0
 17 18  2  0  0  0  0
 18 11  1  0  0  0  0
 18 10  1  0  0  0  0
 19 15  2  0  0  0  0
 20  2  2  0  0  0  0
 21 26  1  0  0  0  0
 22 25  1  0  0  0  0
 22 21  2  0  0  0  0
 23 28  1  6  0  0  0
 23 29  1  0  0  0  0
 24 25  2  0  0  0  0
 25 23  1  0  0  0  0
 26 29  2  0  0  0  0
 27 21  1  0  0  0  0
 29 11  1  0  0  0  0
 30 31  1  0  0  0  0
 31 32  1  0  0  0  0
M  END
>  <MODEL>
3

>  <REMARK>
 VINA RESULT:      -8.7      1.114      1.704
  Name = 
  3 active torsions:
  status: ('A' for Active; 'I' for Inactive)
    1  A    between atoms: O_1  and  C_10
    2  A    between atoms: C_10  and  C_24
    3  A    between atoms: N_16  and  C_32
                            x       y       z     vdW  Elec       q    Type
                         _______ _______ _______ _____ _____    ______ ____

>  <TORSDO>
F 3

$$$$
=
 OpenBabel11052416583D

 32 36  0  0  1  0  0  0  0  0999 V2000
  187.9630  177.0420  145.1390 C   0  0  0  0  0  3  0  0  0  0  0  0
  185.9550  178.6090  140.9790 C   0  0  0  0  0  0  0  0  0  0  0  0
  181.1650  179.3580  143.3540 C   0  0  0  0  0  3  0  0  0  0  0  0
  180.7160  179.4480  142.0380 C   0  0  0  0  0  3  0  0  0  0  0  0
  188.2300  178.1310  142.5710 C   0  0  0  0  0  0  0  0  0  0  0  0
  185.7830  178.1450  142.3150 C   0  0  0  0  0  0  0  0  0  0  0  0
  186.8280  177.3040  144.3730 C   0  0  0  0  0  3  0  0  0  0  0  0
  182.4590  178.9080  143.6140 C   0  0  0  0  0  3  0  0  0  0  0  0
  184.6350  178.1120  142.9410 N   0  0  0  0  0  0  0  0  0  0  0  0
  183.3220  178.5460  142.5720 C   0  0  0  0  0  0  0  0  0  0  0  0
  183.6750  178.1590  140.1530 N   0  0  0  0  0  0  0  0  0  0  0  0
  190.6090  178.1450  142.8590 F   0  0  0  0  0  0  0  0  0  0  0  0
  189.3710  177.8690  143.3470 C   0  0  0  0  0  0  0  0  0  0  0  0
  186.9390  177.8440  143.0790 C   0  0  0  0  0  0  0  0  0  0  0  0
  188.3630  178.6960  141.3060 C   0  0  0  0  0  3  0  0  0  0  0  0
  189.2340  177.3260  144.6330 C   0  0  0  0  0  0  0  0  0  0  0  0
  181.5590  179.0690  140.9920 C   0  0  0  0  0  3  0  0  0  0  0  0
  182.8610  178.6020  141.2470 C   0  0  0  0  0  0  0  0  0  0  0  0
  187.2380  178.9160  140.5190 C   0  0  0  0  0  3  0  0  0  0  0  0
  185.0190  178.6270  140.0280 C   0  0  0  0  0  3  0  0  0  0  0  0
  182.2290  177.4310  136.7220 C   0  0  0  0  0  0  0  0  0  0  0  0
  182.0840  176.1080  136.6930 C   0  0  0  0  0  3  0  0  0  0  0  0
  182.7320  175.9750  139.1830 C   0  0  2  0  0  3  0  0  0  0  0  0
  182.4190  174.0490  137.7970 O   0  0  0  0  0  0  0  0  0  0  0  0
  182.4300  175.3050  137.8720 C   0  0  0  0  0  0  0  0  0  0  0  0
  182.7980  178.1020  137.9030 C   0  0  0  0  0  3  0  0  0  0  0  0
  181.9130  178.1630  135.6270 F   0  0  0  0  0  0  0  0  0  0  0  0
  181.6300  175.8540  140.0120 F   0  0  0  0  0  0  0  0  0  0  0  0
  183.0990  177.4420  139.0360 C   0  0  0  0  0  0  0  0  0  0  0  0
  190.4360  177.0120  145.4570 C   0  0  0  0  0  2  0  0  0  0  0  0
  190.0640  176.8530  146.7910 O   0  0  0  0  0  0  0  0  0  0  0  0
  191.2560  176.5720  147.4570 C   0  0  0  0  0  1  0  0  0  0  0  0
  2  6  1  0  0  0  0
  3  8  1  0  0  0  0
  4  3  2  0  0  0  0
  5 14  2  0  0  0  0
  5 13  1  0  0  0  0
  6  9  2  0  0  0  0
  6 14  1  0  0  0  0
  7  1  2  0  0  0  0
 10  9  1  0  0  0  0
 10  8  2  0  0  0  0
 11 18  1  0  0  0  0
 12 13  1  0  0  0  0
 13 16  2  0  0  0  0
 14  7  1  0  0  0  0
 15  5  1  0  0  0  0
 16  1  1  0  0  0  0
 16 30  1  0  0  0  0
 17 18  2  0  0  0  0
 17  4  1  0  0  0  0
 18 10  1  0  0  0  0
 19  2  1  0  0  0  0
 19 15  2  0  0  0  0
 20 11  1  0  0  0  0
 20  2  2  0  0  0  0
 21 26  1  0  0  0  0
 22 21  2  0  0  0  0
 22 25  1  0  0  0  0
 23 28  1  1  0  0  0
 24 25  2  0  0  0  0
 25 23  1  0  0  0  0
 26 29  2  0  0  0  0
 27 21  1  0  0  0  0
 29 23  1  0  0  0  0
 29 11  1  0  0  0  0
 30 31  1  0  0  0  0
 31 32  1  0  0  0  0
M  END
>  <MODEL>
4

>  <REMARK>
 VINA RESULT:      -8.7      5.245      7.379
  Name = 
  3 active torsions:
  status: ('A' for Active; 'I' for Inactive)
    1  A    between atoms: O_1  and  C_10
    2  A    between atoms: C_10  and  C_24
    3  A    between atoms: N_16  and  C_32
                            x       y       z     vdW  Elec       q    Type
                         _______ _______ _______ _____ _____    ______ ____

>  <TORSDO>
F 3

$$$$
=
 OpenBabel11052416583D

 32 36  0  0  1  0  0  0  0  0999 V2000
  186.3620  178.0940  143.4910 C   0  0  0  0  0  3  0  0  0  0  0  0
  182.1250  178.9730  141.2390 C   0  0  0  0  0  0  0  0  0  0  0  0
  183.8280  176.5970  136.7010 C   0  0  0  0  0  3  0  0  0  0  0  0
  182.7120  177.2250  136.1530 C   0  0  0  0  0  3  0  0  0  0  0  0
  183.6220  178.6690  143.6070 C   0  0  0  0  0  0  0  0  0  0  0  0
  183.4940  178.5860  141.1510 C   0  0  0  0  0  0  0  0  0  0  0  0
  185.6250  178.2100  142.3130 C   0  0  0  0  0  3  0  0  0  0  0  0
  184.2510  176.9340  137.9870 C   0  0  0  0  0  3  0  0  0  0  0  0
  184.0690  178.1590  140.0580 N   0  0  0  0  0  0  0  0  0  0  0  0
  183.5680  177.8950  138.7430 C   0  0  0  0  0  0  0  0  0  0  0  0
  181.7850  179.6060  138.8800 N   0  0  0  0  0  0  0  0  0  0  0  0
  183.7640  178.7050  145.9990 F   0  0  0  0  0  0  0  0  0  0  0  0
  184.3680  178.5480  144.7920 C   0  0  0  0  0  0  0  0  0  0  0  0
  184.2500  178.5050  142.3480 C   0  0  0  0  0  0  0  0  0  0  0  0
  182.2560  178.9300  143.6670 C   0  0  0  0  0  3  0  0  0  0  0  0
  185.7380  178.2570  144.7300 C   0  0  0  0  0  0  0  0  0  0  0  0
  182.0370  178.1990  136.8880 C   0  0  0  0  0  3  0  0  0  0  0  0
  182.4630  178.5540  138.1810 C   0  0  0  0  0  0  0  0  0  0  0  0
  181.5260  179.0930  142.4960 C   0  0  0  0  0  3  0  0  0  0  0  0
  181.3680  179.4110  140.2330 C   0  0  0  0  0  3  0  0  0  0  0  0
  181.5080  183.1710  137.6110 C   0  0  0  0  0  0  0  0  0  0  0  0
  180.5100  183.1370  136.7310 C   0  0  0  0  0  3  0  0  0  0  0  0
  179.9970  180.7010  137.3950 C   0  0  2  0  0  3  0  0  0  0  0  0
  178.9310  181.8230  135.5700 O   0  0  0  0  0  0  0  0  0  0  0  0
  179.7810  181.8850  136.4950 C   0  0  0  0  0  0  0  0  0  0  0  0
  181.9400  181.9480  138.3100 C   0  0  0  0  0  3  0  0  0  0  0  0
  182.1800  184.3290  137.8180 F   0  0  0  0  0  0  0  0  0  0  0  0
  178.9310  180.6030  138.2710 F   0  0  0  0  0  0  0  0  0  0  0  0
  181.2960  180.7740  138.1800 C   0  0  0  0  0  0  0  0  0  0  0  0
  186.5500  178.1580  145.9760 C   0  0  0  0  0  2  0  0  0  0  0  0
  187.8610  177.8090  145.6580 O   0  0  0  0  0  0  0  0  0  0  0  0
  188.4580  177.5260  146.8850 C   0  0  0  0  0  1  0  0  0  0  0  0
  1 16  1  0  0  0  0
  2 19  1  0  0  0  0
  3  8  1  0  0  0  0
  4  3  2  0  0  0  0
  4 17  1  0  0  0  0
  5 15  1  0  0  0  0
  5 13  1  0  0  0  0
  6  2  1  0  0  0  0
  6 14  1  0  0  0  0
  7 14  1  0  0  0  0
  7  1  2  0  0  0  0
  8 10  2  0  0  0  0
  9  6  2  0  0  0  0
 10  9  1  0  0  0  0
 11 20  1  0  0  0  0
 13 12  1  0  0  0  0
 14  5  2  0  0  0  0
 16 13  2  0  0  0  0
 16 30  1  0  0  0  0
 17 18  2  0  0  0  0
 18 10  1  0  0  0  0
 18 11  1  0  0  0  0
 19 15  2  0  0  0  0
 20  2  2  0  0  0  0
 21 27  1  0  0  0  0
 21 26  1  0  0  0  0
 22 21  2  0  0  0  0
 23 29  1  0  0  0  0
 23 28  1  1  0  0  0
 24 25  2  0  0  0  0
 25 22  1  0  0  0  0
 25 23  1  0  0  0  0
 29 26  2  0  0  0  0
 29 11  1  0  0  0  0
 31 30  1  0  0  0  0
 31 32  1  0  0  0  0
M  END
>  <MODEL>
5

>  <REMARK>
 VINA RESULT:      -8.5      6.759      9.391
  Name = 
  3 active torsions:
  status: ('A' for Active; 'I' for Inactive)
    1  A    between atoms: O_1  and  C_10
    2  A    between atoms: C_10  and  C_24
    3  A    between atoms: N_16  and  C_32
                            x       y       z     vdW  Elec       q    Type
                         _______ _______ _______ _____ _____    ______ ____

>  <TORSDO>
F 3

$$$$
=
 OpenBabel11052416583D

 32 36  0  0  1  0  0  0  0  0999 V2000
  190.9620  174.8060  137.3240 C   0  0  0  0  0  3  0  0  0  0  0  0
  189.0050  178.2960  140.1140 C   0  0  0  0  0  0  0  0  0  0  0  0
  191.6590  176.5550  144.4810 C   0  0  0  0  0  3  0  0  0  0  0  0
  190.7600  177.3830  145.1500 C   0  0  0  0  0  3  0  0  0  0  0  0
  189.7160  177.3030  137.5750 C   0  0  0  0  0  0  0  0  0  0  0  0
  189.7230  177.0680  140.0240 C   0  0  0  0  0  0  0  0  0  0  0  0
  190.6440  175.3010  138.5880 C   0  0  0  0  0  3  0  0  0  0  0  0
  191.4600  176.2650  143.1310 C   0  0  0  0  0  3  0  0  0  0  0  0
  190.2640  176.4550  141.0450 N   0  0  0  0  0  0  0  0  0  0  0  0
  190.3710  176.7980  142.4300 C   0  0  0  0  0  0  0  0  0  0  0  0
  188.2670  178.1020  142.4600 N   0  0  0  0  0  0  0  0  0  0  0  0
  189.7560  177.5260  135.1890 F   0  0  0  0  0  0  0  0  0  0  0  0
  190.0410  176.8020  136.3030 C   0  0  0  0  0  0  0  0  0  0  0  0
  190.0120  176.5490  138.7370 C   0  0  0  0  0  0  0  0  0  0  0  0
  189.1190  178.5550  137.6990 C   0  0  0  0  0  3  0  0  0  0  0  0
  190.6660  175.5530  136.1820 C   0  0  0  0  0  0  0  0  0  0  0  0
  189.6590  177.9020  144.4680 C   0  0  0  0  0  3  0  0  0  0  0  0
  189.4440  177.6050  143.1100 C   0  0  0  0  0  0  0  0  0  0  0  0
  188.7580  179.0330  138.9530 C   0  0  0  0  0  3  0  0  0  0  0  0
  188.3730  178.7570  141.1940 C   0  0  0  0  0  3  0  0  0  0  0  0
  185.6770  177.8460  145.2200 C   0  0  0  0  0  0  0  0  0  0  0  0
  184.5820  178.4010  144.7040 C   0  0  0  0  0  3  0  0  0  0  0  0
  185.7440  178.5840  142.4120 C   0  0  2  0  0  3  0  0  0  0  0  0
  183.6010  179.5380  142.8840 O   0  0  0  0  0  0  0  0  0  0  0  0
  184.5900  178.8970  143.3220 C   0  0  0  0  0  0  0  0  0  0  0  0
  186.9260  177.7810  144.4430 C   0  0  0  0  0  3  0  0  0  0  0  0
  185.6610  177.3970  146.4970 F   0  0  0  0  0  0  0  0  0  0  0  0
  185.3700  177.5720  141.5450 F   0  0  0  0  0  0  0  0  0  0  0  0
  187.0030  178.1740  143.1580 C   0  0  0  0  0  0  0  0  0  0  0  0
  190.9880  174.9930  134.8380 C   0  0  0  0  0  2  0  0  0  0  0  0
  192.2740  174.4540  134.8480 O   0  0  0  0  0  0  0  0  0  0  0  0
  193.1120  175.5380  134.5940 C   0  0  0  0  0  1  0  0  0  0  0  0
  1  7  1  0  0  0  0
  2 20  2  0  0  0  0
  3  4  1  0  0  0  0
  5 15  1  0  0  0  0
  5 14  1  0  0  0  0
  6  2  1  0  0  0  0
  6  9  2  0  0  0  0
  7 14  2  0  0  0  0
  8  3  2  0  0  0  0
  9 10  1  0  0  0  0
 10 18  2  0  0  0  0
 10  8  1  0  0  0  0
 11 18  1  0  0  0  0
 11 29  1  0  0  0  0
 12 13  1  0  0  0  0
 13  5  2  0  0  0  0
 14  6  1  0  0  0  0
 15 19  2  0  0  0  0
 16 13  1  0  0  0  0
 16  1  2  0  0  0  0
 17  4  2  0  0  0  0
 18 17  1  0  0  0  0
 19  2  1  0  0  0  0
 20 11  1  0  0  0  0
 21 27  1  0  0  0  0
 22 21  2  0  0  0  0
 23 28  1  6  0  0  0
 23 29  1  0  0  0  0
 23 25  1  0  0  0  0
 24 25  2  0  0  0  0
 25 22  1  0  0  0  0
 26 21  1  0  0  0  0
 29 26  2  0  0  0  0
 30 31  1  0  0  0  0
 30 16  1  0  0  0  0
 32 31  1  0  0  0  0
M  END
>  <MODEL>
6

>  <REMARK>
 VINA RESULT:      -7.5      2.722      8.850
  Name = 
  3 active torsions:
  status: ('A' for Active; 'I' for Inactive)
    1  A    between atoms: O_1  and  C_10
    2  A    between atoms: C_10  and  C_24
    3  A    between atoms: N_16  and  C_32
                            x       y       z     vdW  Elec       q    Type
                         _______ _______ _______ _____ _____    ______ ____

>  <TORSDO>
F 3

$$$$
=
 OpenBabel11052416583D

 32 36  0  0  1  0  0  0  0  0999 V2000
  187.7840  177.1290  145.6030 C   0  0  0  0  0  3  0  0  0  0  0  0
  189.1680  177.8680  140.9840 C   0  0  0  0  0  0  0  0  0  0  0  0
  184.2150  179.4700  139.5570 C   0  0  0  0  0  3  0  0  0  0  0  0
  184.7120  179.2950  138.2670 C   0  0  0  0  0  3  0  0  0  0  0  0
  189.8020  177.5960  143.7160 C   0  0  0  0  0  0  0  0  0  0  0  0
  188.1130  177.7270  141.9310 C   0  0  0  0  0  0  0  0  0  0  0  0
  187.4550  177.2950  144.2580 C   0  0  0  0  0  3  0  0  0  0  0  0
  184.9420  178.9980  140.6500 C   0  0  0  0  0  3  0  0  0  0  0  0
  186.8490  177.9180  141.6590 N   0  0  0  0  0  0  0  0  0  0  0  0
  186.1720  178.3510  140.4740 C   0  0  0  0  0  0  0  0  0  0  0  0
  187.8690  177.4100  138.9380 N   0  0  0  0  0  0  0  0  0  0  0  0
  191.4260  177.5030  145.4760 F   0  0  0  0  0  0  0  0  0  0  0  0
  190.1300  177.4330  145.0720 C   0  0  0  0  0  0  0  0  0  0  0  0
  188.4530  177.5220  143.2930 C   0  0  0  0  0  0  0  0  0  0  0  0
  190.8040  177.8520  142.7830 C   0  0  0  0  0  3  0  0  0  0  0  0
  189.1170  177.2020  146.0140 C   0  0  0  0  0  0  0  0  0  0  0  0
  185.9260  178.6330  138.0790 C   0  0  0  0  0  3  0  0  0  0  0  0
  186.6600  178.1430  139.1740 C   0  0  0  0  0  0  0  0  0  0  0  0
  190.4870  177.9710  141.4350 C   0  0  0  0  0  3  0  0  0  0  0  0
  189.0570  177.7400  139.6610 C   0  0  0  0  0  3  0  0  0  0  0  0
  187.0150  174.7370  136.3840 C   0  0  0  0  0  0  0  0  0  0  0  0
  188.0340  174.7550  135.5270 C   0  0  0  0  0  3  0  0  0  0  0  0
  189.2920  176.4150  137.0440 C   0  0  2  0  0  3  0  0  0  0  0  0
  190.0580  175.7760  134.8690 O   0  0  0  0  0  0  0  0  0  0  0  0
  189.1640  175.6660  135.7480 C   0  0  0  0  0  0  0  0  0  0  0  0
  186.9720  175.6700  137.5230 C   0  0  0  0  0  3  0  0  0  0  0  0
  185.9750  173.8980  136.1690 F   0  0  0  0  0  0  0  0  0  0  0  0
  190.2510  175.7960  137.8270 F   0  0  0  0  0  0  0  0  0  0  0  0
  187.9860  176.5040  137.8160 C   0  0  0  0  0  0  0  0  0  0  0  0
  189.4500  176.9940  147.4520 C   0  0  0  0  0  2  0  0  0  0  0  0
  188.2840  177.0160  148.2140 O   0  0  0  0  0  0  0  0  0  0  0  0
  188.2930  178.2630  148.8370 C   0  0  0  0  0  1  0  0  0  0  0  0
  1 16  1  0  0  0  0
  2 19  1  0  0  0  0
  2  6  1  0  0  0  0
  3  8  1  0  0  0  0
  4  3  2  0  0  0  0
  5 13  1  0  0  0  0
  6 14  1  0  0  0  0
  7  1  2  0  0  0  0
  9  6  2  0  0  0  0
 10  8  2  0  0  0  0
 10  9  1  0  0  0  0
 11 18  1  0  0  0  0
 11 20  1  0  0  0  0
 13 12  1  0  0  0  0
 13 16  2  0  0  0  0
 14  5  2  0  0  0  0
 14  7  1  0  0  0  0
 15  5  1  0  0  0  0
 16 30  1  0  0  0  0
 17  4  1  0  0  0  0
 17 18  2  0  0  0  0
 18 10  1  0  0  0  0
 19 15  2  0  0  0  0
 20  2  2  0  0  0  0
 21 26  1  0  0  0  0
 22 25  1  0  0  0  0
 22 21  2  0  0  0  0
 23 29  1  0  0  0  0
 23 28  1  1  0  0  0
 24 25  2  0  0  0  0
 25 23  1  0  0  0  0
 26 29  2  0  0  0  0
 27 21  1  0  0  0  0
 29 11  1  0  0  0  0
 30 31  1  0  0  0  0
 31 32  1  0  0  0  0
M  END
>  <MODEL>
7

>  <REMARK>
 VINA RESULT:      -7.4      2.388      3.178
  Name = 
  3 active torsions:
  status: ('A' for Active; 'I' for Inactive)
    1  A    between atoms: O_1  and  C_10
    2  A    between atoms: C_10  and  C_24
    3  A    between atoms: N_16  and  C_32
                            x       y       z     vdW  Elec       q    Type
                         _______ _______ _______ _____ _____    ______ ____

>  <TORSDO>
F 3

$$$$
=
 OpenBabel11052416583D

 32 36  0  0  1  0  0  0  0  0999 V2000
  186.4300  174.8910  135.7280 C   0  0  0  0  0  3  0  0  0  0  0  0
  187.8310  177.9090  139.2940 C   0  0  0  0  0  0  0  0  0  0  0  0
  193.0120  176.5190  138.6920 C   0  0  0  0  0  3  0  0  0  0  0  0
  193.1530  177.1610  139.9200 C   0  0  0  0  0  3  0  0  0  0  0  0
  185.9520  177.1290  137.3440 C   0  0  0  0  0  0  0  0  0  0  0  0
  188.1440  176.8260  138.4220 C   0  0  0  0  0  0  0  0  0  0  0  0
  187.3820  175.2870  136.6670 C   0  0  0  0  0  3  0  0  0  0  0  0
  191.7380  176.2400  138.1980 C   0  0  0  0  0  3  0  0  0  0  0  0
  189.3290  176.2840  138.3170 N   0  0  0  0  0  0  0  0  0  0  0  0
  190.5900  176.5990  138.9160 C   0  0  0  0  0  0  0  0  0  0  0  0
  189.5870  177.5220  140.9820 N   0  0  0  0  0  0  0  0  0  0  0  0
  183.8400  177.4270  136.2520 F   0  0  0  0  0  0  0  0  0  0  0  0
  184.9980  176.7290  136.3940 C   0  0  0  0  0  0  0  0  0  0  0  0
  187.1590  176.4020  137.4940 C   0  0  0  0  0  0  0  0  0  0  0  0
  185.7250  178.2560  138.1290 C   0  0  0  0  0  3  0  0  0  0  0  0
  185.2410  175.6100  135.5850 C   0  0  0  0  0  0  0  0  0  0  0  0
  192.0170  177.5030  140.6550 C   0  0  0  0  0  3  0  0  0  0  0  0
  190.7280  177.2150  140.1700 C   0  0  0  0  0  0  0  0  0  0  0  0
  186.6480  178.6280  139.0990 C   0  0  0  0  0  3  0  0  0  0  0  0
  188.4770  178.2230  140.4180 C   0  0  0  0  0  3  0  0  0  0  0  0
  190.8860  176.8030  144.4730 C   0  0  0  0  0  0  0  0  0  0  0  0
  189.8770  177.1270  145.2800 C   0  0  0  0  0  3  0  0  0  0  0  0
  188.3530  177.5020  143.2360 C   0  0  2  0  0  3  0  0  0  0  0  0
  187.7040  178.0270  145.4790 O   0  0  0  0  0  0  0  0  0  0  0  0
  188.6060  177.5960  144.7140 C   0  0  0  0  0  0  0  0  0  0  0  0
  190.7700  176.9720  143.0150 C   0  0  0  0  0  3  0  0  0  0  0  0
  192.0570  176.3770  145.0050 F   0  0  0  0  0  0  0  0  0  0  0  0
  187.5200  176.4250  142.9910 F   0  0  0  0  0  0  0  0  0  0  0  0
  189.6260  177.3550  142.4180 C   0  0  0  0  0  0  0  0  0  0  0  0
  184.2250  175.1540  134.5950 C   0  0  0  0  0  2  0  0  0  0  0  0
  183.8240  173.8530  134.8960 O   0  0  0  0  0  0  0  0  0  0  0  0
  182.5890  174.0020  135.5250 C   0  0  0  0  0  1  0  0  0  0  0  0
  1  7  1  0  0  0  0
  2 20  2  0  0  0  0
  3  4  1  0  0  0  0
  4 17  2  0  0  0  0
  5 14  1  0  0  0  0
  5 15  1  0  0  0  0
  6  2  1  0  0  0  0
  7 14  2  0  0  0  0
  8  3  2  0  0  0  0
  8 10  1  0  0  0  0
  9  6  2  0  0  0  0
  9 10  1  0  0  0  0
 10 18  2  0  0  0  0
 11 29  1  0  0  0  0
 12 13  1  0  0  0  0
 13  5  2  0  0  0  0
 14  6  1  0  0  0  0
 15 19  2  0  0  0  0
 16  1  2  0  0  0  0
 16 13  1  0  0  0  0
 18 17  1  0  0  0  0
 18 11  1  0  0  0  0
 19  2  1  0  0  0  0
 20 11  1  0  0  0  0
 21 27  1  0  0  0  0
 21 22  2  0  0  0  0
 23 28  1  1  0  0  0
 23 25  1  0  0  0  0
 25 22  1  0  0  0  0
 25 24  2  0  0  0  0
 26 21  1  0  0  0  0
 29 26  2  0  0  0  0
 29 23  1  0  0  0  0
 30 31  1  0  0  0  0
 30 16  1  0  0  0  0
 31 32  1  0  0  0  0
M  END
>  <MODEL>
8

>  <REMARK>
 VINA RESULT:      -7.4      3.543      8.106
  Name = 
  3 active torsions:
  status: ('A' for Active; 'I' for Inactive)
    1  A    between atoms: O_1  and  C_10
    2  A    between atoms: C_10  and  C_24
    3  A    between atoms: N_16  and  C_32
                            x       y       z     vdW  Elec       q    Type
                         _______ _______ _______ _____ _____    ______ ____

>  <TORSDO>
F 3

$$$$
=
 OpenBabel11052416583D

 32 36  0  0  1  0  0  0  0  0999 V2000
  181.5150  176.4550  139.1820 C   0  0  0  0  0  3  0  0  0  0  0  0
  185.2620  178.7980  141.2480 C   0  0  0  0  0  0  0  0  0  0  0  0
  188.1680  178.5490  136.7050 C   0  0  0  0  0  3  0  0  0  0  0  0
  189.2120  178.9120  137.5520 C   0  0  0  0  0  3  0  0  0  0  0  0
  182.5210  178.1470  141.1760 C   0  0  0  0  0  0  0  0  0  0  0  0
  184.7620  178.0140  140.1670 C   0  0  0  0  0  0  0  0  0  0  0  0
  182.8670  176.7970  139.1880 C   0  0  0  0  0  3  0  0  0  0  0  0
  186.9410  178.1600  137.2450 C   0  0  0  0  0  3  0  0  0  0  0  0
  185.4400  177.7360  139.0850 N   0  0  0  0  0  0  0  0  0  0  0  0
  186.7380  178.1330  138.6300 C   0  0  0  0  0  0  0  0  0  0  0  0
  187.6670  178.3680  140.9120 N   0  0  0  0  0  0  0  0  0  0  0  0
  180.3220  178.2930  142.1170 F   0  0  0  0  0  0  0  0  0  0  0  0
  181.1590  177.8040  141.1640 C   0  0  0  0  0  0  0  0  0  0  0  0
  183.3950  177.6380  140.1840 C   0  0  0  0  0  0  0  0  0  0  0  0
  183.0150  179.0070  142.1530 C   0  0  0  0  0  3  0  0  0  0  0  0
  180.6590  176.9590  140.1630 C   0  0  0  0  0  0  0  0  0  0  0  0
  189.0280  178.8670  138.9350 C   0  0  0  0  0  3  0  0  0  0  0  0
  187.7990  178.4650  139.4880 C   0  0  0  0  0  0  0  0  0  0  0  0
  184.3700  179.3140  142.1920 C   0  0  0  0  0  3  0  0  0  0  0  0
  186.5460  178.9640  141.5680 C   0  0  0  0  0  3  0  0  0  0  0  0
  190.4910  178.3220  143.4450 C   0  0  0  0  0  0  0  0  0  0  0  0
  190.8530  177.0420  143.5210 C   0  0  0  0  0  3  0  0  0  0  0  0
  189.2720  176.4710  141.5680 C   0  0  2  0  0  3  0  0  0  0  0  0
  190.4390  174.8190  142.8460 O   0  0  0  0  0  0  0  0  0  0  0  0
  190.1910  176.0400  142.6760 C   0  0  0  0  0  0  0  0  0  0  0  0
  189.3860  178.7420  142.5670 C   0  0  0  0  0  3  0  0  0  0  0  0
  191.1030  179.2380  144.2330 F   0  0  0  0  0  0  0  0  0  0  0  0
  189.9400  176.3560  140.3610 F   0  0  0  0  0  0  0  0  0  0  0  0
  188.7600  177.8930  141.7320 C   0  0  0  0  0  0  0  0  0  0  0  0
  179.2230  176.5600  140.1550 C   0  0  0  0  0  2  0  0  0  0  0  0
  178.9310  175.8270  141.3040 O   0  0  0  0  0  0  0  0  0  0  0  0
  178.9520  174.4960  140.8890 C   0  0  0  0  0  1  0  0  0  0  0  0
  1  7  2  0  0  0  0
  1 16  1  0  0  0  0
  2 20  2  0  0  0  0
  2 19  1  0  0  0  0
  3  8  2  0  0  0  0
  3  4  1  0  0  0  0
  4 17  2  0  0  0  0
  5 15  1  0  0  0  0
  6 14  1  0  0  0  0
  6  2  1  0  0  0  0
  7 14  1  0  0  0  0
  8 10  1  0  0  0  0
  9  6  2  0  0  0  0
 10  9  1  0  0  0  0
 10 18  2  0  0  0  0
 11 20  1  0  0  0  0
 11 29  1  0  0  0  0
 13  5  1  0  0  0  0
 13 12  1  0  0  0  0
 14  5  2  0  0  0  0
 15 19  2  0  0  0  0
 16 13  2  0  0  0  0
 17 18  1  0  0  0  0
 18 11  1  0  0  0  0
 21 22  2  0  0  0  0
 21 27  1  0  0  0  0
 23 28  1  6  0  0  0
 23 29  1  0  0  0  0
 23 25  1  0  0  0  0
 25 24  2  0  0  0  0
 25 22  1  0  0  0  0
 26 21  1  0  0  0  0
 29 26  2  0  0  0  0
 30 16  1  0  0  0  0
 30 31  1  0  0  0  0
 32 31  1  0  0  0  0
M  END
>  <MODEL>
9

>  <REMARK>
 VINA RESULT:      -7.1      4.955      7.163
  Name = 
  3 active torsions:
  status: ('A' for Active; 'I' for Inactive)
    1  A    between atoms: O_1  and  C_10
    2  A    between atoms: C_10  and  C_24
    3  A    between atoms: N_16  and  C_32
                            x       y       z     vdW  Elec       q    Type
                         _______ _______ _______ _____ _____    ______ ____

>  <TORSDO>
F 3

$$$$
