=
 OpenBabel11052413273D

 28 33  0  0  1  0  0  0  0  0999 V2000
  187.1720  177.2000  144.9800 C   0  0  1  0  0  3  0  0  0  0  0  0
  188.4120  176.9780  144.0830 C   0  0  1  0  0  3  0  0  0  0  0  0
  186.7190  177.7340  142.3010 C   0  0  2  0  0  3  0  0  0  0  0  0
  183.0120  177.8970  141.2590 C   0  0  0  0  0  3  0  0  0  0  0  0
  185.8560  179.8840  148.1080 N   0  0  0  0  0  1  0  0  0  0  0  0
  190.2500  178.4280  143.3220 C   0  0  1  0  0  3  0  0  0  0  0  0
  188.1830  177.3890  142.6130 C   0  0  1  0  0  3  0  0  0  0  0  0
  190.5000  177.0120  145.2850 O   0  0  0  0  0  1  0  0  0  0  0  0
  184.8130  178.9400  139.1490 C   0  0  0  0  0  2  0  0  0  0  0  0
  184.5720  178.5480  143.0910 C   0  0  1  0  0  3  0  0  0  0  0  0
  189.6070  177.8030  144.5580 C   0  0  2  0  0  3  0  0  0  0  0  0
  182.3510  179.2910  139.3230 C   0  0  0  0  0  0  0  0  0  0  0  0
  184.1000  178.8500  141.6590 C   0  0  1  0  0  3  0  0  0  0  0  0
  186.4360  178.0340  140.8260 C   0  0  0  0  0  2  0  0  0  0  0  0
  183.5430  179.6880  138.8650 C   0  0  0  0  0  3  0  0  0  0  0  0
  185.6290  179.1720  145.7840 C   0  0  1  0  0  3  0  0  0  0  0  0
  186.0790  178.7530  143.2490 C   0  0  1  0  0  3  0  0  0  0  0  0
  185.2490  178.9900  140.6150 C   0  0  1  0  0  3  0  0  0  0  0  0
  187.3760  178.1520  147.3320 C   0  0  0  0  0  2  0  0  0  0  0  0
  184.1590  178.8780  145.5050 C   0  0  0  0  0  2  0  0  0  0  0  0
  185.9770  178.7450  147.2160 C   0  0  1  0  0  3  0  0  0  0  0  0
  191.3430  177.5490  142.7230 C   0  0  0  0  0  1  0  0  0  0  0  0
  181.2140  179.9740  138.9140 O   0  0  0  0  0  1  0  0  0  0  0  0
  182.1980  178.1330  140.2260 C   0  0  0  0  0  3  0  0  0  0  0  0
  183.7850  179.3560  144.1100 C   0  0  0  0  0  2  0  0  0  0  0  0
  187.4640  176.9050  146.4600 C   0  0  0  0  0  2  0  0  0  0  0  0
  186.5720  178.5910  144.7040 C   0  0  2  0  0  3  0  0  0  0  0  0
  189.1190  178.5530  142.3260 C   0  0  0  0  0  2  0  0  0  0  0  0
  1 26  1  1  0  0  0
  2 11  1  0  0  0  0
  2  1  1  0  0  0  0
  3  7  1  0  0  0  0
  3 17  1  0  0  0  0
  4 13  1  0  0  0  0
  6 11  1  0  0  0  0
  7  2  1  0  0  0  0
  9 18  1  0  0  0  0
 10 17  1  0  0  0  0
 10 25  1  0  0  0  0
 11  8  1  0  0  0  0
 12 24  1  0  0  0  0
 13 10  1  0  0  0  0
 14  3  1  0  0  0  0
 15  9  1  0  0  0  0
 15 12  2  0  0  0  0
 16 21  1  0  0  0  0
 17 27  1  0  0  0  0
 18 14  1  0  0  0  0
 18 13  1  0  0  0  0
 20 16  1  0  0  0  0
 21 19  1  0  0  0  0
 21  5  1  0  0  0  0
 22  6  1  0  0  0  0
 23 12  1  0  0  0  0
 24  4  2  0  0  0  0
 25 20  1  0  0  0  0
 26 19  1  0  0  0  0
 27  1  1  0  0  0  0
 27 16  1  0  0  0  0
 28  7  1  0  0  0  0
 28  6  1  0  0  0  0
M  END
>  <MODEL>
1

>  <REMARK>
 VINA RESULT:     -10.0      0.000      0.000
  Name = 
  0 active torsions:
  status: ('A' for Active; 'I' for Inactive)
                            x       y       z     vdW  Elec       q    Type
                         _______ _______ _______ _____ _____    ______ ____

>  <TORSDO>
F 0

$$$$
=
 OpenBabel11052413273D

 28 33  0  0  1  0  0  0  0  0999 V2000
  187.0860  177.1560  143.7460 C   0  0  1  0  0  3  0  0  0  0  0  0
  188.5980  176.9660  144.0110 C   0  0  1  0  0  3  0  0  0  0  0  0
  188.6510  177.3680  141.4720 C   0  0  2  0  0  3  0  0  0  0  0  0
  186.7520  177.0630  138.1320 C   0  0  0  0  0  3  0  0  0  0  0  0
  183.9570  180.0040  144.6500 N   0  0  0  0  0  1  0  0  0  0  0  0
  190.4430  178.5010  144.5530 C   0  0  1  0  0  3  0  0  0  0  0  0
  189.4710  177.2000  142.7590 C   0  0  1  0  0  3  0  0  0  0  0  0
  189.2350  177.3240  146.3070 O   0  0  0  0  0  1  0  0  0  0  0  0
  189.5190  178.0550  137.7560 C   0  0  0  0  0  2  0  0  0  0  0  0
  186.5720  178.0450  140.4150 C   0  0  1  0  0  3  0  0  0  0  0  0
  189.1150  177.9460  145.0610 C   0  0  2  0  0  3  0  0  0  0  0  0
  187.6490  178.1820  136.1140 C   0  0  0  0  0  0  0  0  0  0  0  0
  187.2460  178.1530  139.0380 C   0  0  1  0  0  3  0  0  0  0  0  0
  189.4890  177.4870  140.1940 C   0  0  0  0  0  2  0  0  0  0  0  0
  188.8190  178.6440  136.5670 C   0  0  0  0  0  3  0  0  0  0  0  0
  185.4290  179.0410  142.9580 C   0  0  1  0  0  3  0  0  0  0  0  0
  187.5320  178.4110  141.5480 C   0  0  1  0  0  3  0  0  0  0  0  0
  188.7970  178.2970  139.0840 C   0  0  1  0  0  3  0  0  0  0  0  0
  185.5780  178.3580  145.4070 C   0  0  0  0  0  2  0  0  0  0  0  0
  184.5810  178.5790  141.7780 C   0  0  0  0  0  2  0  0  0  0  0  0
  184.6680  178.7980  144.2680 C   0  0  1  0  0  3  0  0  0  0  0  0
  191.6380  177.6770  145.0170 C   0  0  0  0  0  1  0  0  0  0  0  0
  187.1300  178.7060  134.9380 O   0  0  0  0  0  1  0  0  0  0  0  0
  186.9010  177.1120  136.8050 C   0  0  0  0  0  3  0  0  0  0  0  0
  185.2980  178.8730  140.4700 C   0  0  0  0  0  2  0  0  0  0  0  0
  186.2510  177.0430  145.0310 C   0  0  0  0  0  2  0  0  0  0  0  0
  186.8580  178.4470  142.9370 C   0  0  2  0  0  3  0  0  0  0  0  0
  190.3410  178.4150  143.0470 C   0  0  0  0  0  2  0  0  0  0  0  0
  1  2  1  0  0  0  0
  1 26  1  1  0  0  0
  2 11  1  0  0  0  0
  3 17  1  0  0  0  0
  3  7  1  0  0  0  0
  4 13  1  0  0  0  0
  6 22  1  0  0  0  0
  6 11  1  0  0  0  0
  7 28  1  0  0  0  0
  7  2  1  0  0  0  0
  9 18  1  0  0  0  0
 10 25  1  0  0  0  0
 10 17  1  0  0  0  0
 11  8  1  0  0  0  0
 12 15  2  0  0  0  0
 12 24  1  0  0  0  0
 13 18  1  0  0  0  0
 13 10  1  0  0  0  0
 14  3  1  0  0  0  0
 15  9  1  0  0  0  0
 16 21  1  0  0  0  0
 17 27  1  0  0  0  0
 18 14  1  0  0  0  0
 20 16  1  0  0  0  0
 21  5  1  0  0  0  0
 21 19  1  0  0  0  0
 23 12  1  0  0  0  0
 24  4  2  0  0  0  0
 25 20  1  0  0  0  0
 26 19  1  0  0  0  0
 27 16  1  0  0  0  0
 27  1  1  0  0  0  0
 28  6  1  0  0  0  0
M  END
>  <MODEL>
2

>  <REMARK>
 VINA RESULT:      -9.4      2.588      3.622
  Name = 
  0 active torsions:
  status: ('A' for Active; 'I' for Inactive)
                            x       y       z     vdW  Elec       q    Type
                         _______ _______ _______ _____ _____    ______ ____

>  <TORSDO>
F 0

$$$$
=
 OpenBabel11052413273D

 28 33  0  0  1  0  0  0  0  0999 V2000
  189.5700  178.0950  144.2840 C   0  0  1  0  0  3  0  0  0  0  0  0
  188.1810  178.5070  144.8240 C   0  0  1  0  0  3  0  0  0  0  0  0
  187.6650  178.4510  142.3050 C   0  0  2  0  0  3  0  0  0  0  0  0
  189.0560  178.8540  138.7330 C   0  0  0  0  0  3  0  0  0  0  0  0
  192.1970  174.6580  144.3440 N   0  0  0  0  0  1  0  0  0  0  0  0
  186.1810  177.2550  145.5240 C   0  0  1  0  0  3  0  0  0  0  0  0
  187.0990  178.5900  143.7260 C   0  0  1  0  0  3  0  0  0  0  0  0
  187.8450  177.9700  147.1490 O   0  0  0  0  0  1  0  0  0  0  0  0
  186.1260  178.4090  138.7480 C   0  0  0  0  0  2  0  0  0  0  0  0
  189.3910  177.5690  140.8430 C   0  0  1  0  0  3  0  0  0  0  0  0
  187.6530  177.5030  145.8460 C   0  0  2  0  0  3  0  0  0  0  0  0
  187.6650  178.1760  136.8010 C   0  0  0  0  0  0  0  0  0  0  0  0
  188.5070  177.7570  139.5990 C   0  0  1  0  0  3  0  0  0  0  0  0
  186.6350  178.6450  141.1880 C   0  0  0  0  0  2  0  0  0  0  0  0
  186.5110  177.8680  137.4030 C   0  0  0  0  0  3  0  0  0  0  0  0
  190.6960  176.0710  143.0370 C   0  0  1  0  0  3  0  0  0  0  0  0
  188.5630  177.2300  142.0830 C   0  0  1  0  0  3  0  0  0  0  0  0
  186.9820  177.8780  139.9000 C   0  0  1  0  0  3  0  0  0  0  0  0
  191.0560  176.4470  145.5300 C   0  0  0  0  0  2  0  0  0  0  0  0
  191.4270  176.5290  141.7800 C   0  0  0  0  0  2  0  0  0  0  0  0
  191.6800  176.0080  144.2120 C   0  0  1  0  0  3  0  0  0  0  0  0
  185.2500  178.2060  146.2680 C   0  0  0  0  0  1  0  0  0  0  0  0
  187.8880  177.7270  135.5070 O   0  0  0  0  0  1  0  0  0  0  0  0
  188.6990  179.0030  137.4550 C   0  0  0  0  0  3  0  0  0  0  0  0
  190.4760  176.5340  140.5930 C   0  0  0  0  0  2  0  0  0  0  0  0
  190.5970  177.8950  145.4080 C   0  0  0  0  0  2  0  0  0  0  0  0
  189.4210  176.9000  143.3240 C   0  0  2  0  0  3  0  0  0  0  0  0
  186.0670  177.5170  144.0390 C   0  0  0  0  0  2  0  0  0  0  0  0
  1  2  1  0  0  0  0
  1 26  1  1  0  0  0
  2 11  1  0  0  0  0
  3  7  1  0  0  0  0
  4 13  1  0  0  0  0
  6 11  1  0  0  0  0
  6 22  1  0  0  0  0
  7 28  1  0  0  0  0
  7  2  1  0  0  0  0
  9 18  1  0  0  0  0
 10 17  1  0  0  0  0
 11  8  1  0  0  0  0
 12 15  2  0  0  0  0
 12 24  1  0  0  0  0
 13 18  1  0  0  0  0
 13 10  1  0  0  0  0
 14  3  1  0  0  0  0
 15  9  1  0  0  0  0
 16 27  1  0  0  0  0
 16 21  1  0  0  0  0
 17  3  1  0  0  0  0
 17 27  1  0  0  0  0
 18 14  1  0  0  0  0
 20 16  1  0  0  0  0
 21  5  1  0  0  0  0
 21 19  1  0  0  0  0
 23 12  1  0  0  0  0
 24  4  2  0  0  0  0
 25 10  1  0  0  0  0
 25 20  1  0  0  0  0
 26 19  1  0  0  0  0
 27  1  1  0  0  0  0
 28  6  1  0  0  0  0
M  END
>  <MODEL>
3

>  <REMARK>
 VINA RESULT:      -8.5      3.018      5.179
  Name = 
  0 active torsions:
  status: ('A' for Active; 'I' for Inactive)
                            x       y       z     vdW  Elec       q    Type
                         _______ _______ _______ _____ _____    ______ ____

>  <TORSDO>
F 0

$$$$
=
 OpenBabel11052413273D

 28 33  0  0  1  0  0  0  0  0999 V2000
  189.7750  178.1320  145.3140 C   0  0  1  0  0  3  0  0  0  0  0  0
  188.9910  178.4590  146.6060 C   0  0  1  0  0  3  0  0  0  0  0  0
  187.0590  178.4950  144.9100 C   0  0  2  0  0  3  0  0  0  0  0  0
  186.0070  179.1170  141.2540 C   0  0  0  0  0  3  0  0  0  0  0  0
  191.9280  174.8110  143.5660 N   0  0  0  0  0  1  0  0  0  0  0  0
  187.8290  177.0930  148.2910 C   0  0  1  0  0  3  0  0  0  0  0  0
  187.4650  178.5460  146.3900 C   0  0  1  0  0  3  0  0  0  0  0  0
  190.1320  177.8040  148.6250 O   0  0  0  0  0  1  0  0  0  0  0  0
  183.6840  178.5480  143.0040 C   0  0  0  0  0  2  0  0  0  0  0  0
  187.5560  177.7540  142.6520 C   0  0  1  0  0  3  0  0  0  0  0  0
  189.1940  177.3880  147.6760 C   0  0  2  0  0  3  0  0  0  0  0  0
  183.7360  178.4690  140.5140 C   0  0  0  0  0  0  0  0  0  0  0  0
  186.0990  177.9600  142.2070 C   0  0  1  0  0  3  0  0  0  0  0  0
  185.5620  178.6950  144.6530 C   0  0  0  0  0  2  0  0  0  0  0  0
  183.1820  178.0850  141.6690 C   0  0  0  0  0  3  0  0  0  0  0  0
  189.9320  176.2160  143.5180 C   0  0  1  0  0  3  0  0  0  0  0  0
  187.6480  177.3250  144.1170 C   0  0  1  0  0  3  0  0  0  0  0  0
  185.0660  178.0020  143.3720 C   0  0  1  0  0  3  0  0  0  0  0  0
  191.7230  176.4940  145.3090 C   0  0  0  0  0  2  0  0  0  0  0  0
  189.7520  176.7610  142.1060 C   0  0  0  0  0  2  0  0  0  0  0  0
  191.4270  176.1420  143.8560 C   0  0  1  0  0  3  0  0  0  0  0  0
  187.5300  177.9690  149.5020 C   0  0  0  0  0  1  0  0  0  0  0  0
  183.1340  178.0890  139.3220 O   0  0  0  0  0  1  0  0  0  0  0  0
  184.9490  179.3090  140.4610 C   0  0  0  0  0  3  0  0  0  0  0  0
  188.2770  176.7790  141.7350 C   0  0  0  0  0  2  0  0  0  0  0  0
  191.2740  177.9250  145.5770 C   0  0  0  0  0  2  0  0  0  0  0  0
  189.0840  176.9760  144.5660 C   0  0  2  0  0  3  0  0  0  0  0  0
  186.8390  177.4160  147.1940 C   0  0  0  0  0  2  0  0  0  0  0  0
  1 26  1  1  0  0  0
  1  2  1  0  0  0  0
  2 11  1  0  0  0  0
  3  7  1  0  0  0  0
  4 13  1  0  0  0  0
  5 21  1  0  0  0  0
  6 22  1  0  0  0  0
  7  2  1  0  0  0  0
  7 28  1  0  0  0  0
  9 18  1  0  0  0  0
 10 17  1  0  0  0  0
 11  6  1  0  0  0  0
 11  8  1  0  0  0  0
 12 15  2  0  0  0  0
 13 10  1  0  0  0  0
 13 18  1  0  0  0  0
 14  3  1  0  0  0  0
 15  9  1  0  0  0  0
 16 21  1  0  0  0  0
 16 27  1  0  0  0  0
 17 27  1  0  0  0  0
 17  3  1  0  0  0  0
 18 14  1  0  0  0  0
 19 26  1  0  0  0  0
 20 16  1  0  0  0  0
 21 19  1  0  0  0  0
 23 12  1  0  0  0  0
 24 12  1  0  0  0  0
 24  4  2  0  0  0  0
 25 20  1  0  0  0  0
 25 10  1  0  0  0  0
 27  1  1  0  0  0  0
 28  6  1  0  0  0  0
M  END
>  <MODEL>
4

>  <REMARK>
 VINA RESULT:      -8.1      2.305      4.559
  Name = 
  0 active torsions:
  status: ('A' for Active; 'I' for Inactive)
                            x       y       z     vdW  Elec       q    Type
                         _______ _______ _______ _____ _____    ______ ____

>  <TORSDO>
F 0

$$$$
=
 OpenBabel11052413273D

 28 33  0  0  1  0  0  0  0  0999 V2000
  185.0280  177.4140  139.0330 C   0  0  1  0  0  3  0  0  0  0  0  0
  183.5120  177.7040  139.1260 C   0  0  1  0  0  3  0  0  0  0  0  0
  184.1660  178.0310  141.5910 C   0  0  2  0  0  3  0  0  0  0  0  0
  186.5940  177.0640  144.4250 C   0  0  0  0  0  3  0  0  0  0  0  0
  188.5820  179.1910  137.3210 N   0  0  0  0  0  1  0  0  0  0  0  0
  182.1500  179.7460  138.9480 C   0  0  1  0  0  3  0  0  0  0  0  0
  183.0630  178.1580  140.5310 C   0  0  1  0  0  3  0  0  0  0  0  0
  182.5070  178.3050  137.0200 O   0  0  0  0  0  1  0  0  0  0  0  0
  184.4230  178.8450  145.3720 C   0  0  0  0  0  2  0  0  0  0  0  0
  186.5360  178.0080  142.1190 C   0  0  1  0  0  3  0  0  0  0  0  0
  183.0930  178.8250  138.1780 C   0  0  2  0  0  3  0  0  0  0  0  0
  186.5660  178.3460  146.5420 C   0  0  0  0  0  0  0  0  0  0  0  0
  186.2610  178.2780  143.6070 C   0  0  1  0  0  3  0  0  0  0  0  0
  183.7200  178.3640  143.0180 C   0  0  0  0  0  2  0  0  0  0  0  0
  185.5220  179.1570  146.3450 C   0  0  0  0  0  3  0  0  0  0  0  0
  187.3150  178.6770  139.3420 C   0  0  1  0  0  3  0  0  0  0  0  0
  185.5010  178.6830  141.2170 C   0  0  1  0  0  3  0  0  0  0  0  0
  184.8610  178.8910  143.9060 C   0  0  1  0  0  3  0  0  0  0  0  0
  186.4080  178.1430  137.0230 C   0  0  0  0  0  2  0  0  0  0  0  0
  188.2280  177.9440  140.3180 C   0  0  0  0  0  2  0  0  0  0  0  0
  187.6450  178.2490  137.9060 C   0  0  1  0  0  3  0  0  0  0  0  0
  180.6870  179.3400  138.8030 C   0  0  0  0  0  1  0  0  0  0  0  0
  187.4750  178.6520  147.5460 O   0  0  0  0  0  1  0  0  0  0  0  0
  186.7740  177.1190  145.7470 C   0  0  0  0  0  3  0  0  0  0  0  0
  187.9530  178.4070  141.7410 C   0  0  0  0  0  2  0  0  0  0  0  0
  185.4720  177.0870  137.5990 C   0  0  0  0  0  2  0  0  0  0  0  0
  185.8170  178.5490  139.7110 C   0  0  2  0  0  3  0  0  0  0  0  0
  182.5620  179.5890  140.3950 C   0  0  0  0  0  2  0  0  0  0  0  0
  1 26  1  6  0  0  0
  1  2  1  0  0  0  0
  1 27  1  0  0  0  0
  2  7  1  0  0  0  0
  3 14  1  0  0  0  0
  4 24  2  0  0  0  0
  5 21  1  0  0  0  0
  6 28  1  0  0  0  0
  7  3  1  0  0  0  0
  8 11  1  0  0  0  0
  9 15  1  0  0  0  0
 10 13  1  0  0  0  0
 11  6  1  0  0  0  0
 11  2  1  0  0  0  0
 12 23  1  0  0  0  0
 13 18  1  0  0  0  0
 13  4  1  0  0  0  0
 14 18  1  0  0  0  0
 15 12  2  0  0  0  0
 16 27  1  0  0  0  0
 16 20  1  0  0  0  0
 17  3  1  0  0  0  0
 17 10  1  0  0  0  0
 18  9  1  0  0  0  0
 19 26  1  0  0  0  0
 19 21  1  0  0  0  0
 20 25  1  0  0  0  0
 21 16  1  0  0  0  0
 22  6  1  0  0  0  0
 24 12  1  0  0  0  0
 25 10  1  0  0  0  0
 27 17  1  0  0  0  0
 28  7  1  0  0  0  0
M  END
>  <MODEL>
5

>  <REMARK>
 VINA RESULT:      -8.0      2.691      7.456
  Name = 
  0 active torsions:
  status: ('A' for Active; 'I' for Inactive)
                            x       y       z     vdW  Elec       q    Type
                         _______ _______ _______ _____ _____    ______ ____

>  <TORSDO>
F 0

$$$$
=
 OpenBabel11052413273D

 28 33  0  0  1  0  0  0  0  0999 V2000
  188.9100  178.4430  138.0640 C   0  0  1  0  0  3  0  0  0  0  0  0
  190.1710  177.7360  137.5130 C   0  0  1  0  0  3  0  0  0  0  0  0
  190.5490  177.3910  140.0330 C   0  0  2  0  0  3  0  0  0  0  0  0
  189.9270  178.7450  143.5890 C   0  0  0  0  0  3  0  0  0  0  0  0
  184.6210  177.8780  138.1080 N   0  0  0  0  0  1  0  0  0  0  0  0
  190.6810  175.4200  136.8580 C   0  0  1  0  0  3  0  0  0  0  0  0
  191.0170  177.0550  138.6100 C   0  0  1  0  0  3  0  0  0  0  0  0
  189.9790  177.0650  135.2070 O   0  0  0  0  0  1  0  0  0  0  0  0
  191.6810  176.3560  143.5940 C   0  0  0  0  0  2  0  0  0  0  0  0
  188.7360  178.0260  141.5200 C   0  0  1  0  0  3  0  0  0  0  0  0
  189.8110  176.6290  136.5250 C   0  0  2  0  0  3  0  0  0  0  0  0
  190.4700  177.3280  145.5440 C   0  0  0  0  0  0  0  0  0  0  0  0
  189.5200  177.5620  142.7590 C   0  0  1  0  0  3  0  0  0  0  0  0
  191.4360  176.8250  141.1460 C   0  0  0  0  0  2  0  0  0  0  0  0
  191.0540  176.2790  144.9540 C   0  0  0  0  0  3  0  0  0  0  0  0
  186.7080  177.8420  139.3720 C   0  0  1  0  0  3  0  0  0  0  0  0
  189.0550  177.1710  140.2930 C   0  0  1  0  0  3  0  0  0  0  0  0
  190.6750  176.5600  142.4570 C   0  0  1  0  0  3  0  0  0  0  0  0
  186.6680  178.3030  136.8670 C   0  0  0  0  0  2  0  0  0  0  0  0
  186.5430  178.7130  140.6130 C   0  0  0  0  0  2  0  0  0  0  0  0
  185.9440  178.4670  138.1980 C   0  0  1  0  0  3  0  0  0  0  0  0
  191.9960  175.4140  136.0860 C   0  0  0  0  0  1  0  0  0  0  0  0
  190.0220  177.1990  146.8510 O   0  0  0  0  0  1  0  0  0  0  0  0
  190.3110  178.6280  144.8620 C   0  0  0  0  0  3  0  0  0  0  0  0
  187.2430  178.0700  141.8000 C   0  0  0  0  0  2  0  0  0  0  0  0
  188.0200  179.0030  136.9440 C   0  0  0  0  0  2  0  0  0  0  0  0
  188.1890  177.5170  139.0620 C   0  0  2  0  0  3  0  0  0  0  0  0
  190.9790  175.5590  138.3340 C   0  0  0  0  0  2  0  0  0  0  0  0
  1 26  1  6  0  0  0
  1 27  1  0  0  0  0
  2  1  1  0  0  0  0
  2  7  1  0  0  0  0
  3 17  1  0  0  0  0
  3 14  1  0  0  0  0
  4 24  2  0  0  0  0
  5 21  1  0  0  0  0
  6 28  1  0  0  0  0
  7  3  1  0  0  0  0
  8 11  1  0  0  0  0
  9 15  1  0  0  0  0
 10 25  1  0  0  0  0
 10 13  1  0  0  0  0
 11  6  1  0  0  0  0
 11  2  1  0  0  0  0
 12 23  1  0  0  0  0
 13  4  1  0  0  0  0
 14 18  1  0  0  0  0
 15 12  2  0  0  0  0
 16 20  1  0  0  0  0
 17 10  1  0  0  0  0
 18 13  1  0  0  0  0
 18  9  1  0  0  0  0
 19 26  1  0  0  0  0
 19 21  1  0  0  0  0
 20 25  1  0  0  0  0
 21 16  1  0  0  0  0
 22  6  1  0  0  0  0
 24 12  1  0  0  0  0
 27 16  1  0  0  0  0
 27 17  1  0  0  0  0
 28  7  1  0  0  0  0
M  END
>  <MODEL>
6

>  <REMARK>
 VINA RESULT:      -7.7      4.118      7.734
  Name = 
  0 active torsions:
  status: ('A' for Active; 'I' for Inactive)
                            x       y       z     vdW  Elec       q    Type
                         _______ _______ _______ _____ _____    ______ ____

>  <TORSDO>
F 0

$$$$
=
 OpenBabel11052413273D

 28 33  0  0  1  0  0  0  0  0999 V2000
  189.8210  176.2720  138.5850 C   0  0  1  0  0  3  0  0  0  0  0  0
  188.7860  176.5740  137.4770 C   0  0  1  0  0  3  0  0  0  0  0  0
  187.5060  177.4710  139.5190 C   0  0  2  0  0  3  0  0  0  0  0  0
  186.9280  177.1980  143.3200 C   0  0  0  0  0  3  0  0  0  0  0  0
  193.7490  177.6020  139.8190 N   0  0  0  0  0  1  0  0  0  0  0  0
  188.3520  178.5150  136.0280 C   0  0  1  0  0  3  0  0  0  0  0  0
  187.5510  177.3450  137.9890 C   0  0  1  0  0  3  0  0  0  0  0  0
  189.7320  176.6630  135.2630 O   0  0  0  0  0  1  0  0  0  0  0  0
  185.0950  179.1500  142.0480 C   0  0  0  0  0  2  0  0  0  0  0  0
  188.7140  177.5750  141.6230 C   0  0  1  0  0  3  0  0  0  0  0  0
  189.3810  177.4410  136.3700 C   0  0  2  0  0  3  0  0  0  0  0  0
  185.6060  178.9410  144.4790 C   0  0  0  0  0  0  0  0  0  0  0  0
  187.5040  178.1870  142.3480 C   0  0  1  0  0  3  0  0  0  0  0  0
  186.2360  178.1290  140.0670 C   0  0  0  0  0  2  0  0  0  0  0  0
  185.1860  179.6820  143.4480 C   0  0  0  0  0  3  0  0  0  0  0  0
  191.3530  177.5760  140.2810 C   0  0  1  0  0  3  0  0  0  0  0  0
  188.7850  178.0190  140.1610 C   0  0  1  0  0  3  0  0  0  0  0  0
  186.4530  178.8510  141.4080 C   0  0  1  0  0  3  0  0  0  0  0  0
  192.3220  176.5110  138.1800 C   0  0  0  0  0  2  0  0  0  0  0  0
  191.1360  177.0930  141.7110 C   0  0  0  0  0  2  0  0  0  0  0  0
  192.5350  176.8230  139.6560 C   0  0  1  0  0  3  0  0  0  0  0  0
  187.4040  178.0850  134.9140 C   0  0  0  0  0  1  0  0  0  0  0  0
  185.5460  179.4760  145.7580 O   0  0  0  0  0  1  0  0  0  0  0  0
  186.1060  177.5620  144.3080 C   0  0  0  0  0  3  0  0  0  0  0  0
  190.0070  177.8760  142.3630 C   0  0  0  0  0  2  0  0  0  0  0  0
  191.0960  175.6190  138.0300 C   0  0  0  0  0  2  0  0  0  0  0  0
  190.0590  177.5360  139.4330 C   0  0  2  0  0  3  0  0  0  0  0  0
  187.5600  178.7030  137.3030 C   0  0  0  0  0  2  0  0  0  0  0  0
  1 26  1  6  0  0  0
  1 27  1  0  0  0  0
  2  7  1  0  0  0  0
  2  1  1  0  0  0  0
  3 14  1  0  0  0  0
  3 17  1  0  0  0  0
  4 24  2  0  0  0  0
  6 11  1  0  0  0  0
  6 28  1  0  0  0  0
  7  3  1  0  0  0  0
  8 11  1  0  0  0  0
  9 15  1  0  0  0  0
 10 13  1  0  0  0  0
 10 25  1  0  0  0  0
 11  2  1  0  0  0  0
 12 23  1  0  0  0  0
 13  4  1  0  0  0  0
 14 18  1  0  0  0  0
 15 12  2  0  0  0  0
 16 20  1  0  0  0  0
 17 10  1  0  0  0  0
 18  9  1  0  0  0  0
 18 13  1  0  0  0  0
 19 21  1  0  0  0  0
 20 25  1  0  0  0  0
 21  5  1  0  0  0  0
 21 16  1  0  0  0  0
 22  6  1  0  0  0  0
 24 12  1  0  0  0  0
 26 19  1  0  0  0  0
 27 17  1  0  0  0  0
 27 16  1  0  0  0  0
 28  7  1  0  0  0  0
M  END
>  <MODEL>
7

>  <REMARK>
 VINA RESULT:      -7.7      4.214      6.936
  Name = 
  0 active torsions:
  status: ('A' for Active; 'I' for Inactive)
                            x       y       z     vdW  Elec       q    Type
                         _______ _______ _______ _____ _____    ______ ____

>  <TORSDO>
F 0

$$$$
=
 OpenBabel11052413273D

 28 33  0  0  1  0  0  0  0  0999 V2000
  187.6800  176.8350  143.2390 C   0  0  1  0  0  3  0  0  0  0  0  0
  188.9960  176.5270  143.9910 C   0  0  1  0  0  3  0  0  0  0  0  0
  189.8560  176.4570  141.5680 C   0  0  2  0  0  3  0  0  0  0  0  0
  188.9960  175.7710  137.8740 C   0  0  0  0  0  3  0  0  0  0  0  0
  184.9300  180.1340  142.7100 N   0  0  0  0  0  1  0  0  0  0  0  0
  190.8250  177.9170  144.8730 C   0  0  1  0  0  3  0  0  0  0  0  0
  190.2230  176.4320  143.0590 C   0  0  1  0  0  3  0  0  0  0  0  0
  188.9810  177.2180  146.2990 O   0  0  0  0  0  1  0  0  0  0  0  0
  191.8740  176.3610  138.2600 C   0  0  0  0  0  2  0  0  0  0  0  0
  188.3170  177.1620  139.8280 C   0  0  1  0  0  3  0  0  0  0  0  0
  189.3340  177.6160  145.0060 C   0  0  2  0  0  3  0  0  0  0  0  0
  190.6140  176.4000  136.1100 C   0  0  0  0  0  0  0  0  0  0  0  0
  189.3730  176.9440  138.7320 C   0  0  1  0  0  3  0  0  0  0  0  0
  191.0390  176.2480  140.6180 C   0  0  0  0  0  2  0  0  0  0  0  0
  191.6590  176.8010  136.8420 C   0  0  0  0  0  3  0  0  0  0  0  0
  186.6570  178.7220  141.7180 C   0  0  1  0  0  3  0  0  0  0  0  0
  188.9490  177.6160  141.1450 C   0  0  1  0  0  3  0  0  0  0  0  0
  190.8440  176.9180  139.2460 C   0  0  1  0  0  3  0  0  0  0  0  0
  185.9680  178.4790  144.1580 C   0  0  0  0  0  2  0  0  0  0  0  0
  186.1280  178.1530  140.4060 C   0  0  0  0  0  2  0  0  0  0  0  0
  185.5160  178.8060  142.7410 C   0  0  1  0  0  3  0  0  0  0  0  0
  191.6810  177.0600  145.7990 C   0  0  0  0  0  1  0  0  0  0  0  0
  190.5560  176.7590  134.7700 O   0  0  0  0  0  1  0  0  0  0  0  0
  189.5330  175.5630  136.6690 C   0  0  0  0  0  3  0  0  0  0  0  0
  187.2350  178.1240  139.3640 C   0  0  0  0  0  2  0  0  0  0  0  0
  186.4980  177.0510  144.1970 C   0  0  0  0  0  2  0  0  0  0  0  0
  187.9120  177.9770  142.2310 C   0  0  2  0  0  3  0  0  0  0  0  0
  191.1560  177.5730  143.4380 C   0  0  0  0  0  2  0  0  0  0  0  0
  1  2  1  0  0  0  0
  1 26  1  1  0  0  0
  2 11  1  0  0  0  0
  3  7  1  0  0  0  0
  4 13  1  0  0  0  0
  5 21  1  0  0  0  0
  6 11  1  0  0  0  0
  6 22  1  0  0  0  0
  7 28  1  0  0  0  0
  7  2  1  0  0  0  0
  9 18  1  0  0  0  0
 10 17  1  0  0  0  0
 11  8  1  0  0  0  0
 12 24  1  0  0  0  0
 12 15  2  0  0  0  0
 13 18  1  0  0  0  0
 13 10  1  0  0  0  0
 14  3  1  0  0  0  0
 15  9  1  0  0  0  0
 16 27  1  0  0  0  0
 16 21  1  0  0  0  0
 17  3  1  0  0  0  0
 17 27  1  0  0  0  0
 18 14  1  0  0  0  0
 19 26  1  0  0  0  0
 20 16  1  0  0  0  0
 21 19  1  0  0  0  0
 23 12  1  0  0  0  0
 24  4  2  0  0  0  0
 25 10  1  0  0  0  0
 25 20  1  0  0  0  0
 27  1  1  0  0  0  0
 28  6  1  0  0  0  0
M  END
>  <MODEL>
8

>  <REMARK>
 VINA RESULT:      -7.4      3.598      5.377
  Name = 
  0 active torsions:
  status: ('A' for Active; 'I' for Inactive)
                            x       y       z     vdW  Elec       q    Type
                         _______ _______ _______ _____ _____    ______ ____

>  <TORSDO>
F 0

$$$$
=
 OpenBabel11052413273D

 28 33  0  0  1  0  0  0  0  0999 V2000
  182.9470  177.7620  140.8860 C   0  0  1  0  0  3  0  0  0  0  0  0
  181.6130  178.0510  141.6130 C   0  0  1  0  0  3  0  0  0  0  0  0
  183.2370  178.2530  143.5960 C   0  0  2  0  0  3  0  0  0  0  0  0
  186.5980  177.1390  145.1200 C   0  0  0  0  0  3  0  0  0  0  0  0
  185.5120  179.6130  137.9340 N   0  0  0  0  0  1  0  0  0  0  0  0
  180.3470  180.1030  142.1070 C   0  0  1  0  0  3  0  0  0  0  0  0
  181.7970  178.4360  143.0960 C   0  0  1  0  0  3  0  0  0  0  0  0
  179.8400  178.7590  140.1430 O   0  0  0  0  0  1  0  0  0  0  0  0
  185.0570  178.8770  146.9620 C   0  0  0  0  0  2  0  0  0  0  0  0
  185.6120  178.1980  143.0900 C   0  0  1  0  0  3  0  0  0  0  0  0
  180.8640  179.2190  140.9750 C   0  0  2  0  0  3  0  0  0  0  0  0
  187.4800  178.3140  147.1120 C   0  0  0  0  0  0  0  0  0  0  0  0
  185.9850  178.3940  144.5690 C   0  0  1  0  0  3  0  0  0  0  0  0
  183.4300  178.5160  145.0930 C   0  0  0  0  0  2  0  0  0  0  0  0
  186.4670  179.1370  147.4030 C   0  0  0  0  0  3  0  0  0  0  0  0
  185.1850  179.0030  140.2740 C   0  0  1  0  0  3  0  0  0  0  0  0
  184.3120  178.9190  142.7310 C   0  0  1  0  0  3  0  0  0  0  0  0
  184.8480  178.9950  145.4500 C   0  0  1  0  0  3  0  0  0  0  0  0
  183.3870  178.5870  138.5190 C   0  0  0  0  0  2  0  0  0  0  0  0
  186.4030  178.2190  140.7500 C   0  0  0  0  0  2  0  0  0  0  0  0
  184.8800  178.6460  138.8130 C   0  0  1  0  0  3  0  0  0  0  0  0
  178.9470  179.7090  142.5650 C   0  0  0  0  0  1  0  0  0  0  0  0
  188.7300  178.5680  147.6620 O   0  0  0  0  0  1  0  0  0  0  0  0
  187.3110  177.1280  146.2500 C   0  0  0  0  0  3  0  0  0  0  0  0
  186.7540  178.6110  142.1770 C   0  0  0  0  0  2  0  0  0  0  0  0
  182.7490  177.5060  139.3840 C   0  0  0  0  0  2  0  0  0  0  0  0
  183.9730  178.8600  141.2260 C   0  0  2  0  0  3  0  0  0  0  0  0
  181.3180  179.8730  143.2440 C   0  0  0  0  0  2  0  0  0  0  0  0
  1 26  1  6  0  0  0
  1 27  1  0  0  0  0
  1  2  1  0  0  0  0
  2  7  1  0  0  0  0
  3 14  1  0  0  0  0
  4 24  2  0  0  0  0
  5 21  1  0  0  0  0
  6 22  1  0  0  0  0
  6 28  1  0  0  0  0
  7 28  1  0  0  0  0
  7  3  1  0  0  0  0
  8 11  1  0  0  0  0
  9 15  1  0  0  0  0
 10 13  1  0  0  0  0
 11  2  1  0  0  0  0
 11  6  1  0  0  0  0
 12 15  2  0  0  0  0
 12 23  1  0  0  0  0
 13  4  1  0  0  0  0
 13 18  1  0  0  0  0
 14 18  1  0  0  0  0
 16 20  1  0  0  0  0
 16 27  1  0  0  0  0
 17 10  1  0  0  0  0
 17  3  1  0  0  0  0
 18  9  1  0  0  0  0
 19 21  1  0  0  0  0
 19 26  1  0  0  0  0
 20 25  1  0  0  0  0
 21 16  1  0  0  0  0
 24 12  1  0  0  0  0
 25 10  1  0  0  0  0
 27 17  1  0  0  0  0
M  END
>  <MODEL>
9

>  <REMARK>
 VINA RESULT:      -7.4      2.603      7.702
  Name = 
  0 active torsions:
  status: ('A' for Active; 'I' for Inactive)
                            x       y       z     vdW  Elec       q    Type
                         _______ _______ _______ _____ _____    ______ ____

>  <TORSDO>
F 0

$$$$
