=
 OpenBabel11052412443D

 25 29  0  0  1  0  0  0  0  0999 V2000
  188.6280  177.2200  143.7400 C   0  0  1  0  0  3  0  0  0  0  0  0
  190.8040  178.0230  143.1550 C   0  0  1  0  0  0  0  0  0  0  0  0
  189.8840  176.0610  141.8430 C   0  0  2  0  0  3  0  0  0  0  0  0
  190.1810  179.2700  143.6210 C   0  0  0  0  0  2  0  0  0  0  0  0
  191.5400  175.8950  143.8350 C   0  0  0  0  0  0  0  0  0  0  0  0
  192.2880  175.1590  144.5280 O   0  0  0  0  0  0  0  0  0  0  0  0
  190.4430  177.4920  141.7290 C   0  0  1  0  0  0  0  0  0  0  0  0
  188.9390  175.8790  143.0260 C   0  0  1  0  0  3  0  0  0  0  0  0
  191.8220  177.2680  143.7480 O   0  0  0  0  0  0  0  0  0  0  0  0
  190.3690  175.2530  143.0660 C   0  0  1  0  0  3  0  0  0  0  0  0
  189.7580  178.0000  144.2250 N   0  0  1  0  0  0  0  0  0  0  0  0
  189.4350  178.3550  140.9700 C   0  0  0  0  0  1  0  0  0  0  0  0
  191.7460  176.8680  139.6040 C   0  0  0  0  0  0  0  0  0  0  0  0
  190.7270  176.3900  139.0380 O   0  0  0  0  0  0  0  0  0  0  0  0
  193.0500  176.8650  138.8930 C   0  0  0  0  0  1  0  0  0  0  0  0
  191.6640  177.4170  140.9250 N   0  0  0  0  0  2  0  0  0  0  0  0
  187.3160  177.9230  143.5150 C   0  0  0  0  0  0  0  0  0  0  0  0
  187.0150  178.3120  142.3550 O   0  0  0  0  0  0  0  0  0  0  0  0
  186.3860  178.1570  144.6470 C   0  0  0  0  0  0  0  0  0  0  0  0
  184.6720  178.5950  146.8350 C   0  0  0  0  0  3  0  0  0  0  0  0
  185.0190  178.4430  144.4400 C   0  0  0  0  0  0  0  0  0  0  0  0
  184.1730  178.6590  145.5330 C   0  0  0  0  0  3  0  0  0  0  0  0
  186.0220  178.3140  147.0500 C   0  0  0  0  0  3  0  0  0  0  0  0
  184.4920  178.5120  143.1920 F   0  0  0  0  0  0  0  0  0  0  0  0
  186.8720  178.0970  145.9630 C   0  0  0  0  0  3  0  0  0  0  0  0
  1 17  1  6  0  0  0
  1 11  1  0  0  0  0
  2  4  1  6  0  0  0
  2  9  1  0  0  0  0
  2 11  1  0  0  0  0
  3  8  1  0  0  0  0
  3 10  1  0  0  0  0
  4 11  1  0  0  0  0
  5  6  2  0  0  0  0
  7  3  1  0  0  0  0
  7  2  1  0  0  0  0
  8 10  1  0  0  0  0
  8  1  1  0  0  0  0
  9  5  1  0  0  0  0
 10  5  1  0  0  0  0
 12  7  1  0  0  0  0
 13 16  1  0  0  0  0
 14 13  2  0  0  0  0
 15 13  1  0  0  0  0
 16  7  1  0  0  0  0
 17 19  1  0  0  0  0
 18 17  2  0  0  0  0
 19 25  1  0  0  0  0
 20 23  1  0  0  0  0
 21 19  2  0  0  0  0
 21 22  1  0  0  0  0
 22 20  2  0  0  0  0
 24 21  1  0  0  0  0
 25 23  2  0  0  0  0
M  END
>  <MODEL>
1

>  <REMARK>
 VINA RESULT:      -7.6      0.000      0.000
  Name = 
  3 active torsions:
  status: ('A' for Active; 'I' for Inactive)
    1  A    between atoms: C_1  and  C_3
    2  A    between atoms: C_1  and  C_5
    3  A    between atoms: C_15  and  N_21
                            x       y       z     vdW  Elec       q    Type
                         _______ _______ _______ _____ _____    ______ ____

>  <TORSDO>
F 3

$$$$
=
 OpenBabel11052412443D

 25 29  0  0  1  0  0  0  0  0999 V2000
  190.8520  177.1480  142.0840 C   0  0  1  0  0  3  0  0  0  0  0  0
  189.4660  176.5040  143.9240 C   0  0  1  0  0  0  0  0  0  0  0  0
  190.3460  178.8800  143.8920 C   0  0  2  0  0  3  0  0  0  0  0  0
  188.9100  175.6500  142.8670 C   0  0  0  0  0  2  0  0  0  0  0  0
  191.3780  176.9100  145.2320 C   0  0  0  0  0  0  0  0  0  0  0  0
  192.2260  176.5430  146.0860 O   0  0  0  0  0  0  0  0  0  0  0  0
  189.0710  178.0180  143.9510 C   0  0  1  0  0  0  0  0  0  0  0  0
  191.3880  178.3420  142.9160 C   0  0  1  0  0  3  0  0  0  0  0  0
  190.2160  176.1440  145.0500 O   0  0  0  0  0  0  0  0  0  0  0  0
  191.6230  178.2180  144.4550 C   0  0  1  0  0  3  0  0  0  0  0  0
  190.3340  176.0000  142.8160 N   0  0  1  0  0  0  0  0  0  0  0  0
  188.1350  178.4460  142.8210 C   0  0  0  0  0  1  0  0  0  0  0  0
  187.1050  177.8490  145.5960 C   0  0  0  0  0  0  0  0  0  0  0  0
  186.4240  177.1340  144.8140 O   0  0  0  0  0  0  0  0  0  0  0  0
  186.5520  178.2150  146.9250 C   0  0  0  0  0  1  0  0  0  0  0  0
  188.4070  178.3140  145.2220 N   0  0  0  0  0  2  0  0  0  0  0  0
  190.4220  177.3400  140.6550 C   0  0  0  0  0  0  0  0  0  0  0  0
  189.4070  178.0410  140.4040 O   0  0  0  0  0  0  0  0  0  0  0  0
  191.1860  176.7080  139.5510 C   0  0  0  0  0  0  0  0  0  0  0  0
  192.5800  175.4810  137.4360 C   0  0  0  0  0  3  0  0  0  0  0  0
  192.5610  176.9650  139.3540 C   0  0  0  0  0  0  0  0  0  0  0  0
  193.2470  176.3510  138.3010 C   0  0  0  0  0  3  0  0  0  0  0  0
  191.2210  175.2210  137.6210 C   0  0  0  0  0  3  0  0  0  0  0  0
  193.2470  177.8000  140.1730 F   0  0  0  0  0  0  0  0  0  0  0  0
  190.5310  175.8310  138.6710 C   0  0  0  0  0  3  0  0  0  0  0  0
  1 17  1  6  0  0  0
  1 11  1  0  0  0  0
  1  8  1  0  0  0  0
  2  4  1  1  0  0  0
  2  7  1  0  0  0  0
  2  9  1  0  0  0  0
  3  7  1  0  0  0  0
  3 10  1  0  0  0  0
  5  6  2  0  0  0  0
  7 16  1  0  0  0  0
  8  3  1  0  0  0  0
  8 10  1  0  0  0  0
  9  5  1  0  0  0  0
 10  5  1  0  0  0  0
 11  4  1  0  0  0  0
 11  2  1  0  0  0  0
 12  7  1  0  0  0  0
 13 15  1  0  0  0  0
 14 13  2  0  0  0  0
 16 13  1  0  0  0  0
 18 17  2  0  0  0  0
 19 17  1  0  0  0  0
 20 23  2  0  0  0  0
 20 22  1  0  0  0  0
 21 19  1  0  0  0  0
 21 24  1  0  0  0  0
 22 21  2  0  0  0  0
 23 25  1  0  0  0  0
 25 19  2  0  0  0  0
M  END
>  <MODEL>
2

>  <REMARK>
 VINA RESULT:      -7.2      2.483      6.612
  Name = 
  3 active torsions:
  status: ('A' for Active; 'I' for Inactive)
    1  A    between atoms: C_1  and  C_3
    2  A    between atoms: C_1  and  C_5
    3  A    between atoms: C_15  and  N_21
                            x       y       z     vdW  Elec       q    Type
                         _______ _______ _______ _____ _____    ______ ____

>  <TORSDO>
F 3

$$$$
=
 OpenBabel11052412443D

 25 29  0  0  1  0  0  0  0  0999 V2000
  188.3560  178.0920  142.9750 C   0  0  1  0  0  3  0  0  0  0  0  0
  189.6770  176.1810  143.5450 C   0  0  1  0  0  0  0  0  0  0  0  0
  190.3350  178.4080  144.5580 C   0  0  2  0  0  3  0  0  0  0  0  0
  188.3700  175.5430  143.3420 C   0  0  0  0  0  2  0  0  0  0  0  0
  191.4220  177.3290  142.4620 C   0  0  0  0  0  0  0  0  0  0  0  0
  192.3420  177.3780  141.6060 O   0  0  0  0  0  0  0  0  0  0  0  0
  189.9360  176.9550  144.8800 C   0  0  1  0  0  0  0  0  0  0  0  0
  189.5150  179.0180  143.4260 C   0  0  1  0  0  3  0  0  0  0  0  0
  190.8370  176.0890  142.7660 O   0  0  0  0  0  0  0  0  0  0  0  0
  191.0080  178.6250  143.1850 C   0  0  1  0  0  3  0  0  0  0  0  0
  188.7020  176.7390  142.5580 N   0  0  1  0  0  0  0  0  0  0  0  0
  188.7470  176.9720  145.8390 C   0  0  0  0  0  1  0  0  0  0  0  0
  191.3460  176.4820  146.9740 C   0  0  0  0  0  0  0  0  0  0  0  0
  190.6060  177.1840  147.7130 O   0  0  0  0  0  0  0  0  0  0  0  0
  192.5240  175.7920  147.5580 C   0  0  0  0  0  1  0  0  0  0  0  0
  191.0670  176.3400  145.5760 N   0  0  0  0  0  2  0  0  0  0  0  0
  186.9410  178.3700  143.4030 C   0  0  0  0  0  0  0  0  0  0  0  0
  186.6780  178.4850  144.6290 O   0  0  0  0  0  0  0  0  0  0  0  0
  185.8640  178.5070  142.3910 C   0  0  0  0  0  0  0  0  0  0  0  0
  183.8670  178.7750  140.4270 C   0  0  0  0  0  3  0  0  0  0  0  0
  184.5020  178.3460  142.7270 C   0  0  0  0  0  0  0  0  0  0  0  0
  183.5150  178.4820  141.7460 C   0  0  0  0  0  3  0  0  0  0  0  0
  185.2100  178.9340  140.0840 C   0  0  0  0  0  3  0  0  0  0  0  0
  184.1160  178.0640  143.9970 F   0  0  0  0  0  0  0  0  0  0  0  0
  186.2000  178.8010  141.0600 C   0  0  0  0  0  3  0  0  0  0  0  0
  1 17  1  1  0  0  0
  1  8  1  0  0  0  0
  2  4  1  1  0  0  0
  2  7  1  0  0  0  0
  3  7  1  0  0  0  0
  5  9  1  0  0  0  0
  5 10  1  0  0  0  0
  6  5  2  0  0  0  0
  7 16  1  0  0  0  0
  7 12  1  0  0  0  0
  8  3  1  0  0  0  0
  9  2  1  0  0  0  0
 10  8  1  0  0  0  0
 10  3  1  0  0  0  0
 11  1  1  0  0  0  0
 11  4  1  0  0  0  0
 11  2  1  0  0  0  0
 13 15  1  0  0  0  0
 13 14  2  0  0  0  0
 16 13  1  0  0  0  0
 17 18  2  0  0  0  0
 19 21  1  0  0  0  0
 19 17  1  0  0  0  0
 20 22  1  0  0  0  0
 21 24  1  0  0  0  0
 22 21  2  0  0  0  0
 23 20  2  0  0  0  0
 23 25  1  0  0  0  0
 25 19  2  0  0  0  0
M  END
>  <MODEL>
3

>  <REMARK>
 VINA RESULT:      -7.0      2.386      4.464
  Name = 
  3 active torsions:
  status: ('A' for Active; 'I' for Inactive)
    1  A    between atoms: C_1  and  C_3
    2  A    between atoms: C_1  and  C_5
    3  A    between atoms: C_15  and  N_21
                            x       y       z     vdW  Elec       q    Type
                         _______ _______ _______ _____ _____    ______ ____

>  <TORSDO>
F 3

$$$$
=
 OpenBabel11052412443D

 25 29  0  0  1  0  0  0  0  0999 V2000
  190.8690  177.0900  142.1340 C   0  0  1  0  0  3  0  0  0  0  0  0
  189.4520  176.4430  143.9500 C   0  0  1  0  0  0  0  0  0  0  0  0
  190.3960  178.7940  143.9770 C   0  0  2  0  0  3  0  0  0  0  0  0
  188.8820  175.6280  142.8690 C   0  0  0  0  0  2  0  0  0  0  0  0
  191.3640  176.7690  145.2810 C   0  0  0  0  0  0  0  0  0  0  0  0
  192.1950  176.3600  146.1320 O   0  0  0  0  0  0  0  0  0  0  0  0
  189.0980  177.9660  144.0080 C   0  0  1  0  0  0  0  0  0  0  0  0
  191.4300  178.2510  142.9960 C   0  0  1  0  0  3  0  0  0  0  0  0
  190.1840  176.0380  145.0720 O   0  0  0  0  0  0  0  0  0  0  0  0
  191.6500  178.0860  144.5340 C   0  0  1  0  0  3  0  0  0  0  0  0
  190.3160  175.9400  142.8370 N   0  0  1  0  0  0  0  0  0  0  0  0
  188.1820  178.4440  142.8810 C   0  0  0  0  0  1  0  0  0  0  0  0
  187.1170  177.8110  145.6360 C   0  0  0  0  0  0  0  0  0  0  0  0
  186.4250  177.1280  144.8350 O   0  0  0  0  0  0  0  0  0  0  0  0
  186.5630  178.1630  146.9680 C   0  0  0  0  0  1  0  0  0  0  0  0
  188.4320  178.2530  145.2790 N   0  0  0  0  0  2  0  0  0  0  0  0
  190.4560  177.3240  140.7070 C   0  0  0  0  0  0  0  0  0  0  0  0
  189.3630  177.9030  140.4670 O   0  0  0  0  0  0  0  0  0  0  0  0
  191.3260  176.8780  139.5910 C   0  0  0  0  0  0  0  0  0  0  0  0
  193.0290  176.0540  137.5070 C   0  0  0  0  0  3  0  0  0  0  0  0
  190.8060  176.2030  138.4650 C   0  0  0  0  0  0  0  0  0  0  0  0
  191.6580  175.7970  137.4330 C   0  0  0  0  0  3  0  0  0  0  0  0
  193.5530  176.7190  138.6160 C   0  0  0  0  0  3  0  0  0  0  0  0
  189.4810  175.9370  138.3510 F   0  0  0  0  0  0  0  0  0  0  0  0
  192.7070  177.1280  139.6500 C   0  0  0  0  0  3  0  0  0  0  0  0
  1 17  1  1  0  0  0
  1 11  1  0  0  0  0
  1  8  1  0  0  0  0
  2  4  1  6  0  0  0
  2  7  1  0  0  0  0
  2  9  1  0  0  0  0
  3  7  1  0  0  0  0
  3 10  1  0  0  0  0
  5  6  2  0  0  0  0
  7 16  1  0  0  0  0
  8  3  1  0  0  0  0
  8 10  1  0  0  0  0
  9  5  1  0  0  0  0
 10  5  1  0  0  0  0
 11  4  1  0  0  0  0
 11  2  1  0  0  0  0
 12  7  1  0  0  0  0
 13 15  1  0  0  0  0
 14 13  2  0  0  0  0
 16 13  1  0  0  0  0
 18 17  2  0  0  0  0
 19 25  1  0  0  0  0
 19 17  1  0  0  0  0
 20 23  1  0  0  0  0
 21 19  2  0  0  0  0
 22 20  2  0  0  0  0
 22 21  1  0  0  0  0
 23 25  2  0  0  0  0
 24 21  1  0  0  0  0
M  END
>  <MODEL>
4

>  <REMARK>
 VINA RESULT:      -7.0      2.224      6.489
  Name = 
  3 active torsions:
  status: ('A' for Active; 'I' for Inactive)
    1  A    between atoms: C_1  and  C_3
    2  A    between atoms: C_1  and  C_5
    3  A    between atoms: C_15  and  N_21
                            x       y       z     vdW  Elec       q    Type
                         _______ _______ _______ _____ _____    ______ ____

>  <TORSDO>
F 3

$$$$
=
 OpenBabel11052412443D

 25 29  0  0  1  0  0  0  0  0999 V2000
  183.2180  178.1240  141.2420 C   0  0  1  0  0  3  0  0  0  0  0  0
  182.3600  177.7050  139.0480 C   0  0  1  0  0  0  0  0  0  0  0  0
  181.1560  179.4200  140.4720 C   0  0  2  0  0  3  0  0  0  0  0  0
  183.7890  177.4450  138.8250 C   0  0  0  0  0  2  0  0  0  0  0  0
  180.4410  176.9420  140.1740 C   0  0  0  0  0  0  0  0  0  0  0  0
  179.5730  176.0590  140.3940 O   0  0  0  0  0  0  0  0  0  0  0  0
  181.8710  179.1890  139.1280 C   0  0  1  0  0  0  0  0  0  0  0  0
  181.8550  178.7440  141.6470 C   0  0  1  0  0  3  0  0  0  0  0  0
  181.2890  176.8050  139.0630 O   0  0  0  0  0  0  0  0  0  0  0  0
  180.5090  178.1680  141.1050 C   0  0  1  0  0  3  0  0  0  0  0  0
  183.2170  177.1630  140.1470 N   0  0  1  0  0  0  0  0  0  0  0  0
  182.9820  180.2280  138.9770 C   0  0  0  0  0  1  0  0  0  0  0  0
  180.1650  180.6460  137.8770 C   0  0  0  0  0  0  0  0  0  0  0  0
  180.3340  181.6270  138.6500 O   0  0  0  0  0  0  0  0  0  0  0  0
  179.2030  180.7570  136.7510 C   0  0  0  0  0  1  0  0  0  0  0  0
  180.8890  179.4250  138.0690 N   0  0  0  0  0  2  0  0  0  0  0  0
  184.5090  178.8150  141.5890 C   0  0  0  0  0  0  0  0  0  0  0  0
  185.0540  179.5690  140.7400 O   0  0  0  0  0  0  0  0  0  0  0  0
  185.1350  178.6090  142.9180 C   0  0  0  0  0  0  0  0  0  0  0  0
  186.3690  178.1840  145.4120 C   0  0  0  0  0  3  0  0  0  0  0  0
  184.6360  179.2360  144.0810 C   0  0  0  0  0  0  0  0  0  0  0  0
  185.2540  179.0200  145.3170 C   0  0  0  0  0  3  0  0  0  0  0  0
  186.8710  177.5610  144.2680 C   0  0  0  0  0  3  0  0  0  0  0  0
  183.5530  180.0520  144.0340 F   0  0  0  0  0  0  0  0  0  0  0  0
  186.2570  177.7730  143.0310 C   0  0  0  0  0  3  0  0  0  0  0  0
  1 17  1  6  0  0  0
  1  8  1  0  0  0  0
  2  4  1  6  0  0  0
  2  9  1  0  0  0  0
  2  7  1  0  0  0  0
  2 11  1  0  0  0  0
  3 10  1  0  0  0  0
  3  8  1  0  0  0  0
  4 11  1  0  0  0  0
  5  6  2  0  0  0  0
  5 10  1  0  0  0  0
  7  3  1  0  0  0  0
  9  5  1  0  0  0  0
 10  8  1  0  0  0  0
 11  1  1  0  0  0  0
 12  7  1  0  0  0  0
 13 16  1  0  0  0  0
 13 14  2  0  0  0  0
 15 13  1  0  0  0  0
 16  7  1  0  0  0  0
 17 19  1  0  0  0  0
 18 17  2  0  0  0  0
 19 25  2  0  0  0  0
 19 21  1  0  0  0  0
 21 22  2  0  0  0  0
 22 20  1  0  0  0  0
 23 20  2  0  0  0  0
 24 21  1  0  0  0  0
 25 23  1  0  0  0  0
M  END
>  <MODEL>
5

>  <REMARK>
 VINA RESULT:      -7.0      5.791      8.426
  Name = 
  3 active torsions:
  status: ('A' for Active; 'I' for Inactive)
    1  A    between atoms: C_1  and  C_3
    2  A    between atoms: C_1  and  C_5
    3  A    between atoms: C_15  and  N_21
                            x       y       z     vdW  Elec       q    Type
                         _______ _______ _______ _____ _____    ______ ____

>  <TORSDO>
F 3

$$$$
=
 OpenBabel11052412443D

 25 29  0  0  1  0  0  0  0  0999 V2000
  189.5500  177.7550  141.7180 C   0  0  1  0  0  3  0  0  0  0  0  0
  190.0760  178.0550  144.0330 C   0  0  1  0  0  0  0  0  0  0  0  0
  189.2210  175.7820  143.3080 C   0  0  2  0  0  3  0  0  0  0  0  0
  191.0400  178.9800  143.4230 C   0  0  0  0  0  2  0  0  0  0  0  0
  187.7850  177.6560  144.3860 C   0  0  0  0  0  0  0  0  0  0  0  0
  186.6720  177.9880  144.8690 O   0  0  0  0  0  0  0  0  0  0  0  0
  190.3830  176.5210  143.9990 C   0  0  1  0  0  0  0  0  0  0  0  0
  188.6880  176.5180  142.0830 C   0  0  1  0  0  3  0  0  0  0  0  0
  188.9400  178.3390  144.7990 O   0  0  0  0  0  0  0  0  0  0  0  0
  187.8450  176.4760  143.3970 C   0  0  1  0  0  3  0  0  0  0  0  0
  189.7530  178.7590  142.7540 N   0  0  1  0  0  0  0  0  0  0  0  0
  191.6890  176.1540  143.2930 C   0  0  0  0  0  1  0  0  0  0  0  0
  191.3590  176.5040  146.3750 C   0  0  0  0  0  0  0  0  0  0  0  0
  192.1790  177.4250  146.1180 O   0  0  0  0  0  0  0  0  0  0  0  0
  191.3220  175.9130  147.7370 C   0  0  0  0  0  1  0  0  0  0  0  0
  190.4590  176.0190  145.3720 N   0  0  0  0  0  2  0  0  0  0  0  0
  190.5240  177.7000  140.5720 C   0  0  0  0  0  0  0  0  0  0  0  0
  191.7600  177.6850  140.8110 O   0  0  0  0  0  0  0  0  0  0  0  0
  190.0330  177.6650  139.1730 C   0  0  0  0  0  0  0  0  0  0  0  0
  189.0730  177.6570  136.5270 C   0  0  0  0  0  3  0  0  0  0  0  0
  190.3810  176.6220  138.2870 C   0  0  0  0  0  0  0  0  0  0  0  0
  189.9000  176.6240  136.9740 C   0  0  0  0  0  3  0  0  0  0  0  0
  188.7240  178.6930  137.3940 C   0  0  0  0  0  3  0  0  0  0  0  0
  191.1790  175.5980  138.6810 F   0  0  0  0  0  0  0  0  0  0  0  0
  189.2010  178.6960  138.7060 C   0  0  0  0  0  3  0  0  0  0  0  0
  1 17  1  1  0  0  0
  1  8  1  0  0  0  0
  1 11  1  0  0  0  0
  2  4  1  1  0  0  0
  2  9  1  0  0  0  0
  3 10  1  0  0  0  0
  3  7  1  0  0  0  0
  5  9  1  0  0  0  0
  5  6  2  0  0  0  0
  7  2  1  0  0  0  0
  7 16  1  0  0  0  0
  8  3  1  0  0  0  0
  8 10  1  0  0  0  0
 10  5  1  0  0  0  0
 11  4  1  0  0  0  0
 11  2  1  0  0  0  0
 12  7  1  0  0  0  0
 13 15  1  0  0  0  0
 14 13  2  0  0  0  0
 16 13  1  0  0  0  0
 17 18  2  0  0  0  0
 19 17  1  0  0  0  0
 20 22  2  0  0  0  0
 20 23  1  0  0  0  0
 21 24  1  0  0  0  0
 21 19  2  0  0  0  0
 22 21  1  0  0  0  0
 23 25  2  0  0  0  0
 25 19  1  0  0  0  0
M  END
>  <MODEL>
6

>  <REMARK>
 VINA RESULT:      -6.9      2.801      6.142
  Name = 
  3 active torsions:
  status: ('A' for Active; 'I' for Inactive)
    1  A    between atoms: C_1  and  C_3
    2  A    between atoms: C_1  and  C_5
    3  A    between atoms: C_15  and  N_21
                            x       y       z     vdW  Elec       q    Type
                         _______ _______ _______ _____ _____    ______ ____

>  <TORSDO>
F 3

$$$$
=
 OpenBabel11052412443D

 25 29  0  0  1  0  0  0  0  0999 V2000
  188.7670  177.6670  144.2970 C   0  0  1  0  0  3  0  0  0  0  0  0
  190.1090  178.4630  142.4840 C   0  0  1  0  0  0  0  0  0  0  0  0
  190.9700  176.4740  143.7980 C   0  0  2  0  0  3  0  0  0  0  0  0
  188.7700  178.8050  141.9880 C   0  0  0  0  0  2  0  0  0  0  0  0
  191.7000  178.9410  144.1500 C   0  0  0  0  0  0  0  0  0  0  0  0
  192.4800  179.7390  144.7300 O   0  0  0  0  0  0  0  0  0  0  0  0
  190.5860  176.9750  142.3930 C   0  0  1  0  0  0  0  0  0  0  0  0
  190.0050  176.9390  144.8840 C   0  0  1  0  0  3  0  0  0  0  0  0
  191.1350  179.3100  142.9190 O   0  0  0  0  0  0  0  0  0  0  0  0
  191.4330  177.5640  144.7890 C   0  0  1  0  0  3  0  0  0  0  0  0
  189.0110  178.8160  143.4360 N   0  0  1  0  0  0  0  0  0  0  0  0
  189.5570  176.0180  141.7930 C   0  0  0  0  0  1  0  0  0  0  0  0
  191.8460  177.2060  140.1660 C   0  0  0  0  0  0  0  0  0  0  0  0
  190.8080  177.5420  139.5360 O   0  0  0  0  0  0  0  0  0  0  0  0
  193.1430  177.1140  139.4480 C   0  0  0  0  0  1  0  0  0  0  0  0
  191.7930  176.9120  141.5660 N   0  0  0  0  0  2  0  0  0  0  0  0
  187.4400  176.9640  144.1960 C   0  0  0  0  0  0  0  0  0  0  0  0
  187.4000  175.7770  143.7780 O   0  0  0  0  0  0  0  0  0  0  0  0
  186.1900  177.6620  144.5850 C   0  0  0  0  0  0  0  0  0  0  0  0
  183.8380  178.9850  145.3850 C   0  0  0  0  0  3  0  0  0  0  0  0
  185.2560  178.1070  143.6240 C   0  0  0  0  0  0  0  0  0  0  0  0
  184.0890  178.7630  144.0290 C   0  0  0  0  0  3  0  0  0  0  0  0
  184.7550  178.5500  146.3420 C   0  0  0  0  0  3  0  0  0  0  0  0
  185.4590  177.9100  142.2970 F   0  0  0  0  0  0  0  0  0  0  0  0
  185.9220  177.8940  145.9440 C   0  0  0  0  0  3  0  0  0  0  0  0
  1 17  1  6  0  0  0
  1  8  1  0  0  0  0
  2  4  1  6  0  0  0
  2  9  1  0  0  0  0
  2 11  1  0  0  0  0
  3 10  1  0  0  0  0
  3  8  1  0  0  0  0
  4 11  1  0  0  0  0
  5  6  2  0  0  0  0
  5 10  1  0  0  0  0
  7  2  1  0  0  0  0
  7  3  1  0  0  0  0
  9  5  1  0  0  0  0
 10  8  1  0  0  0  0
 11  1  1  0  0  0  0
 12  7  1  0  0  0  0
 13 16  1  0  0  0  0
 14 13  2  0  0  0  0
 15 13  1  0  0  0  0
 16  7  1  0  0  0  0
 17 19  1  0  0  0  0
 18 17  2  0  0  0  0
 19 25  1  0  0  0  0
 20 23  1  0  0  0  0
 21 22  1  0  0  0  0
 21 19  2  0  0  0  0
 22 20  2  0  0  0  0
 24 21  1  0  0  0  0
 25 23  2  0  0  0  0
M  END
>  <MODEL>
7

>  <REMARK>
 VINA RESULT:      -6.7      1.529      1.960
  Name = 
  3 active torsions:
  status: ('A' for Active; 'I' for Inactive)
    1  A    between atoms: C_1  and  C_3
    2  A    between atoms: C_1  and  C_5
    3  A    between atoms: C_15  and  N_21
                            x       y       z     vdW  Elec       q    Type
                         _______ _______ _______ _____ _____    ______ ____

>  <TORSDO>
F 3

$$$$
=
 OpenBabel11052412443D

 25 29  0  0  1  0  0  0  0  0999 V2000
  189.8850  177.4660  138.4680 C   0  0  1  0  0  3  0  0  0  0  0  0
  188.8270  177.4660  136.3220 C   0  0  1  0  0  0  0  0  0  0  0  0
  189.1340  175.2340  137.4800 C   0  0  2  0  0  3  0  0  0  0  0  0
  188.4030  178.7800  136.8230 C   0  0  0  0  0  2  0  0  0  0  0  0
  190.6890  176.2010  135.6400 C   0  0  0  0  0  0  0  0  0  0  0  0
  191.6600  176.0020  134.8660 O   0  0  0  0  0  0  0  0  0  0  0  0
  188.0990  176.1890  136.8580 C   0  0  1  0  0  0  0  0  0  0  0  0
  190.1940  175.9550  138.3070 C   0  0  1  0  0  3  0  0  0  0  0  0
  189.7230  177.1590  135.2920 O   0  0  0  0  0  0  0  0  0  0  0  0
  190.5680  175.3480  136.9170 C   0  0  1  0  0  3  0  0  0  0  0  0
  189.7010  178.2460  137.2510 N   0  0  1  0  0  0  0  0  0  0  0  0
  187.0060  176.4710  137.8890 C   0  0  0  0  0  1  0  0  0  0  0  0
  186.8400  174.2070  135.8150 C   0  0  0  0  0  0  0  0  0  0  0  0
  186.7750  173.5850  136.9090 O   0  0  0  0  0  0  0  0  0  0  0  0
  186.2430  173.6080  134.5940 C   0  0  0  0  0  1  0  0  0  0  0  0
  187.4830  175.4840  135.7320 N   0  0  0  0  0  2  0  0  0  0  0  0
  189.3150  178.0000  139.7540 C   0  0  0  0  0  0  0  0  0  0  0  0
  188.4890  178.9500  139.7170 O   0  0  0  0  0  0  0  0  0  0  0  0
  189.7230  177.4140  141.0550 C   0  0  0  0  0  0  0  0  0  0  0  0
  190.4340  176.2880  143.5340 C   0  0  0  0  0  3  0  0  0  0  0  0
  191.0770  177.3530  141.4530 C   0  0  0  0  0  0  0  0  0  0  0  0
  191.4230  176.7920  142.6860 C   0  0  0  0  0  3  0  0  0  0  0  0
  189.0940  176.3420  143.1500 C   0  0  0  0  0  3  0  0  0  0  0  0
  192.0680  177.8350  140.6610 F   0  0  0  0  0  0  0  0  0  0  0  0
  188.7420  176.9010  141.9190 C   0  0  0  0  0  3  0  0  0  0  0  0
  1 17  1  1  0  0  0
  2  4  1  6  0  0  0
  2  7  1  0  0  0  0
  2 11  1  0  0  0  0
  3  8  1  0  0  0  0
  4 11  1  0  0  0  0
  5 10  1  0  0  0  0
  6  5  2  0  0  0  0
  7  3  1  0  0  0  0
  7 12  1  0  0  0  0
  8  1  1  0  0  0  0
  9  5  1  0  0  0  0
  9  2  1  0  0  0  0
 10  3  1  0  0  0  0
 10  8  1  0  0  0  0
 11  1  1  0  0  0  0
 13 14  2  0  0  0  0
 15 13  1  0  0  0  0
 16 13  1  0  0  0  0
 16  7  1  0  0  0  0
 17 19  1  0  0  0  0
 18 17  2  0  0  0  0
 19 21  2  0  0  0  0
 19 25  1  0  0  0  0
 21 22  1  0  0  0  0
 22 20  2  0  0  0  0
 23 20  1  0  0  0  0
 24 21  1  0  0  0  0
 25 23  2  0  0  0  0
M  END
>  <MODEL>
8

>  <REMARK>
 VINA RESULT:      -6.3      4.253      6.550
  Name = 
  3 active torsions:
  status: ('A' for Active; 'I' for Inactive)
    1  A    between atoms: C_1  and  C_3
    2  A    between atoms: C_1  and  C_5
    3  A    between atoms: C_15  and  N_21
                            x       y       z     vdW  Elec       q    Type
                         _______ _______ _______ _____ _____    ______ ____

>  <TORSDO>
F 3

$$$$
=
 OpenBabel11052412443D

 25 29  0  0  1  0  0  0  0  0999 V2000
  188.9930  176.8460  145.1180 C   0  0  1  0  0  3  0  0  0  0  0  0
  191.3320  176.8900  144.6160 C   0  0  1  0  0  0  0  0  0  0  0  0
  189.7140  176.8270  142.6680 C   0  0  2  0  0  3  0  0  0  0  0  0
  191.3200  177.6450  145.8760 C   0  0  0  0  0  2  0  0  0  0  0  0
  190.9510  174.7730  143.6640 C   0  0  0  0  0  0  0  0  0  0  0  0
  191.2210  173.5500  143.5580 O   0  0  0  0  0  0  0  0  0  0  0  0
  190.8760  177.6120  143.3050 C   0  0  1  0  0  0  0  0  0  0  0  0
  188.7050  176.3140  143.6910 C   0  0  1  0  0  3  0  0  0  0  0  0
  191.8400  175.6120  144.3550 O   0  0  0  0  0  0  0  0  0  0  0  0
  189.6780  175.3160  142.9860 C   0  0  1  0  0  3  0  0  0  0  0  0
  190.3160  176.5940  145.6730 N   0  0  1  0  0  0  0  0  0  0  0  0
  190.4390  179.0630  143.5030 C   0  0  0  0  0  1  0  0  0  0  0  0
  191.8330  177.5490  140.9220 C   0  0  0  0  0  0  0  0  0  0  0  0
  190.6920  177.4960  140.3920 O   0  0  0  0  0  0  0  0  0  0  0  0
  193.0430  177.5580  140.0610 C   0  0  0  0  0  1  0  0  0  0  0  0
  191.9820  177.6020  142.3460 N   0  0  0  0  0  2  0  0  0  0  0  0
  188.1740  177.9680  145.6990 C   0  0  0  0  0  0  0  0  0  0  0  0
  188.6750  178.7000  146.5930 O   0  0  0  0  0  0  0  0  0  0  0  0
  186.7900  178.2090  145.2240 C   0  0  0  0  0  0  0  0  0  0  0  0
  184.1820  178.6540  144.2620 C   0  0  0  0  0  3  0  0  0  0  0  0
  185.7340  178.4900  146.1180 C   0  0  0  0  0  0  0  0  0  0  0  0
  184.4410  178.7110  145.6330 C   0  0  0  0  0  3  0  0  0  0  0  0
  185.2190  178.3750  143.3690 C   0  0  0  0  0  3  0  0  0  0  0  0
  185.9420  178.5580  147.4570 F   0  0  0  0  0  0  0  0  0  0  0  0
  186.5120  178.1540  143.8480 C   0  0  0  0  0  3  0  0  0  0  0  0
  1 11  1  0  0  0  0
  1 17  1  6  0  0  0
  2 11  1  0  0  0  0
  2  4  1  1  0  0  0
  3 10  1  0  0  0  0
  3  7  1  0  0  0  0
  3  8  1  0  0  0  0
  5  9  1  0  0  0  0
  6  5  2  0  0  0  0
  7 12  1  0  0  0  0
  7  2  1  0  0  0  0
  8  1  1  0  0  0  0
  9  2  1  0  0  0  0
 10  5  1  0  0  0  0
 10  8  1  0  0  0  0
 11  4  1  0  0  0  0
 13 16  1  0  0  0  0
 14 13  2  0  0  0  0
 15 13  1  0  0  0  0
 16  7  1  0  0  0  0
 17 18  2  0  0  0  0
 19 17  1  0  0  0  0
 19 21  1  0  0  0  0
 20 22  1  0  0  0  0
 21 24  1  0  0  0  0
 22 21  2  0  0  0  0
 23 25  1  0  0  0  0
 23 20  2  0  0  0  0
 25 19  2  0  0  0  0
M  END
>  <MODEL>
9

>  <REMARK>
 VINA RESULT:      -6.2      1.787      2.256
  Name = 
  3 active torsions:
  status: ('A' for Active; 'I' for Inactive)
    1  A    between atoms: C_1  and  C_3
    2  A    between atoms: C_1  and  C_5
    3  A    between atoms: C_15  and  N_21
                            x       y       z     vdW  Elec       q    Type
                         _______ _______ _______ _____ _____    ______ ____

>  <TORSDO>
F 3

$$$$
