=
 OpenBabel11052412183D

 30 34  0  0  1  0  0  0  0  0999 V2000
  188.2290  178.1160  141.7400 C   0  0  2  0  0  3  0  0  0  0  0  0
  189.8140  177.2730  139.7150 C   0  0  1  0  0  3  0  0  0  0  0  0
  190.5640  177.7040  143.3760 C   0  0  2  0  0  0  0  0  0  0  0  0
  187.5740  177.3120  142.8090 N   0  0  2  0  0  0  0  0  0  0  0  0
  187.2100  178.5570  140.7090 C   0  0  0  0  0  2  0  0  0  0  0  0
  184.4640  178.1190  142.5040 N   0  0  0  0  0  2  0  0  0  0  0  0
  185.6590  178.9130  142.7500 C   0  0  2  0  0  3  0  0  0  0  0  0
  184.9370  179.3350  140.5230 N   0  0  0  0  0  2  0  0  0  0  0  0
  186.1260  179.4290  141.3570 C   0  0  2  0  0  3  0  0  0  0  0  0
  186.7280  178.2050  143.6150 C   0  0  1  0  0  3  0  0  0  0  0  0
  191.2820  177.0650  139.3680 C   0  0  0  0  0  3  0  0  0  0  0  0
  182.9510  178.0960  140.7100 O   0  0  0  0  0  0  0  0  0  0  0  0
  188.8920  175.8080  139.2950 Cl  0  0  0  0  0  0  0  0  0  0  0  0
  191.7380  177.0520  142.5690 C   0  0  2  0  0  3  0  0  0  0  0  0
  192.3740  177.3520  140.1170 C   0  0  0  0  0  3  0  0  0  0  0  0
  184.0360  178.4900  141.2110 C   0  0  0  0  0  0  0  0  0  0  0  0
  189.5970  177.6490  141.1750 C   0  0  2  0  0  3  0  0  0  0  0  0
  188.3720  176.4890  143.5910 O   0  0  0  0  0  0  0  0  0  0  0  0
  189.4080  177.1990  144.2930 C   0  0  1  0  0  3  0  0  0  0  0  0
  192.3860  177.9630  141.5060 C   0  0  0  0  0  2  0  0  0  0  0  0
  190.3440  176.7920  142.1520 C   0  0  2  0  0  3  0  0  0  0  0  0
  190.4800  179.0950  143.1430 O   0  0  0  0  0  0  0  0  0  0  0  0
  191.0390  179.7120  144.2660 C   0  0  0  0  0  1  0  0  0  0  0  0
  185.6750  178.5420  145.9110 C   0  0  0  0  0  1  0  0  0  0  0  0
  186.1420  177.5370  144.8680 C   0  0  0  0  0  2  0  0  0  0  0  0
  189.9550  176.3230  145.4260 C   0  0  1  0  0  3  0  0  0  0  0  0
  191.7480  175.9500  147.3010 C   0  0  0  0  0  1  0  0  0  0  0  0
  191.7630  176.4960  145.5700 S   0  0  0  0  0  0  0  0  0  0  0  0
  189.3180  176.6980  146.7550 C   0  0  0  0  0  2  0  0  0  0  0  0
  189.0390  178.0650  146.7810 O   0  0  0  0  0  1  0  0  0  0  0  0
  1  5  1  6  0  0  0
  1  4  1  0  0  0  0
  2 13  1  1  0  0  0
  2 17  1  0  0  0  0
  3 22  1  6  0  0  0
  3 19  1  0  0  0  0
  4 18  1  1  0  0  0
  4 10  1  0  0  0  0
  7  6  1  6  0  0  0
  7 10  1  0  0  0  0
  8 16  1  0  0  0  0
  8  9  1  0  0  0  0
  9  5  1  6  0  0  0
  9  7  1  0  0  0  0
 10 25  1  1  0  0  0
 11  2  1  0  0  0  0
 11 15  2  0  0  0  0
 12 16  2  0  0  0  0
 14 20  1  6  0  0  0
 14  3  1  0  0  0  0
 15 20  1  0  0  0  0
 16  6  1  0  0  0  0
 17  1  1  0  0  0  0
 17 21  1  0  0  0  0
 18 19  1  0  0  0  0
 19 26  1  0  0  0  0
 21 14  1  0  0  0  0
 21  3  1  0  0  0  0
 22 23  1  0  0  0  0
 25 24  1  0  0  0  0
 26 28  1  0  0  0  0
 26 29  1  0  0  0  0
 28 27  1  0  0  0  0
 29 30  1  0  0  0  0
M  END
>  <MODEL>
1

>  <REMARK>
 VINA RESULT:      -6.3      0.000      0.000
  Name = 
  5 active torsions:
  status: ('A' for Active; 'I' for Inactive)
    1  A    between atoms: C_3  and  O_11
    2  A    between atoms: C_10  and  C_15
    3  A    between atoms: C_10  and  C_25
    4  A    between atoms: C_10  and  S_26
    5  A    between atoms: C_13  and  C_30
                            x       y       z     vdW  Elec       q    Type
                         _______ _______ _______ _____ _____    ______ ____

>  <TORSDO>
F 5

$$$$
=
 OpenBabel11052412183D

 30 34  0  0  1  0  0  0  0  0999 V2000
  191.0150  177.1360  139.8390 C   0  0  2  0  0  3  0  0  0  0  0  0
  189.8440  177.2890  142.2740 C   0  0  1  0  0  3  0  0  0  0  0  0
  188.3730  177.6970  138.8360 C   0  0  2  0  0  0  0  0  0  0  0  0
  190.9510  176.0330  138.8400 N   0  0  2  0  0  0  0  0  0  0  0  0
  192.3640  177.1490  140.5280 C   0  0  0  0  0  2  0  0  0  0  0  0
  194.0640  175.3520  138.3300 N   0  0  0  0  0  2  0  0  0  0  0  0
  193.2970  176.5800  138.1810 C   0  0  2  0  0  3  0  0  0  0  0  0
  194.7080  176.8150  140.0820 N   0  0  0  0  0  2  0  0  0  0  0  0
  193.4910  177.3690  139.5100 C   0  0  2  0  0  3  0  0  0  0  0  0
  191.8370  176.3670  137.7160 C   0  0  1  0  0  3  0  0  0  0  0  0
  188.5820  177.8050  142.9510 C   0  0  0  0  0  3  0  0  0  0  0  0
  195.8550  174.7940  139.7400 O   0  0  0  0  0  0  0  0  0  0  0  0
  190.1410  175.6060  142.7790 Cl  0  0  0  0  0  0  0  0  0  0  0  0
  187.3050  177.7260  139.9810 C   0  0  2  0  0  3  0  0  0  0  0  0
  187.5520  178.4940  142.4010 C   0  0  0  0  0  3  0  0  0  0  0  0
  194.9440  175.5960  139.4060 C   0  0  0  0  0  0  0  0  0  0  0  0
  189.7900  177.3960  140.7560 C   0  0  2  0  0  3  0  0  0  0  0  0
  189.7010  175.6010  138.4200 O   0  0  0  0  0  0  0  0  0  0  0  0
  188.9100  176.6420  137.8190 C   0  0  1  0  0  3  0  0  0  0  0  0
  187.4180  178.9210  140.9510 C   0  0  0  0  0  2  0  0  0  0  0  0
  188.5160  176.8950  140.1450 C   0  0  2  0  0  3  0  0  0  0  0  0
  189.0940  178.9100  138.7640 O   0  0  0  0  0  0  0  0  0  0  0  0
  189.1220  179.2660  137.4120 C   0  0  0  0  0  1  0  0  0  0  0  0
  191.5300  176.1150  135.1990 C   0  0  0  0  0  1  0  0  0  0  0  0
  191.7210  175.4000  136.5280 C   0  0  0  0  0  2  0  0  0  0  0  0
  187.7590  176.0190  137.0220 C   0  0  1  0  0  3  0  0  0  0  0  0
  186.1030  177.4060  135.5380 C   0  0  0  0  0  1  0  0  0  0  0  0
  187.7340  176.6450  135.3110 S   0  0  0  0  0  0  0  0  0  0  0  0
  187.8840  174.5040  136.9880 C   0  0  0  0  0  2  0  0  0  0  0  0
  186.6470  173.9170  137.2540 O   0  0  0  0  0  1  0  0  0  0  0  0
  1  5  1  1  0  0  0
  1 17  1  0  0  0  0
  2 13  1  6  0  0  0
  2 11  1  0  0  0  0
  3 22  1  1  0  0  0
  3 14  1  0  0  0  0
  3 21  1  0  0  0  0
  4 18  1  6  0  0  0
  4  1  1  0  0  0  0
  6 16  1  0  0  0  0
  7  6  1  1  0  0  0
  7  9  1  0  0  0  0
  9  8  1  0  0  0  0
  9  5  1  1  0  0  0
 10 25  1  6  0  0  0
 10  7  1  0  0  0  0
 10  4  1  0  0  0  0
 14 21  1  0  0  0  0
 14 20  1  1  0  0  0
 15 11  2  0  0  0  0
 16 12  2  0  0  0  0
 16  8  1  0  0  0  0
 17  2  1  0  0  0  0
 19 18  1  0  0  0  0
 19  3  1  0  0  0  0
 20 15  1  0  0  0  0
 21 17  1  0  0  0  0
 23 22  1  0  0  0  0
 24 25  1  0  0  0  0
 26 19  1  0  0  0  0
 28 27  1  0  0  0  0
 28 26  1  0  0  0  0
 29 26  1  0  0  0  0
 29 30  1  0  0  0  0
M  END
>  <MODEL>
2

>  <REMARK>
 VINA RESULT:      -5.6      4.387      8.072
  Name = 
  5 active torsions:
  status: ('A' for Active; 'I' for Inactive)
    1  A    between atoms: C_3  and  O_11
    2  A    between atoms: C_10  and  C_15
    3  A    between atoms: C_10  and  C_25
    4  A    between atoms: C_10  and  S_26
    5  A    between atoms: C_13  and  C_30
                            x       y       z     vdW  Elec       q    Type
                         _______ _______ _______ _____ _____    ______ ____

>  <TORSDO>
F 5

$$$$
=
 OpenBabel11052412183D

 30 34  0  0  1  0  0  0  0  0999 V2000
  187.8110  175.5990  136.5200 C   0  0  2  0  0  3  0  0  0  0  0  0
  187.2050  172.9930  136.1110 C   0  0  1  0  0  3  0  0  0  0  0  0
  190.5240  174.7610  136.0350 C   0  0  2  0  0  0  0  0  0  0  0  0
  188.4250  176.2370  137.7170 N   0  0  2  0  0  0  0  0  0  0  0  0
  186.3310  175.9150  136.4510 C   0  0  0  0  0  2  0  0  0  0  0  0
  186.2860  178.5310  138.4780 N   0  0  0  0  0  2  0  0  0  0  0  0
  187.0440  178.2670  137.2630 C   0  0  2  0  0  3  0  0  0  0  0  0
  184.7690  177.7050  136.8530 N   0  0  0  0  0  2  0  0  0  0  0  0
  186.1040  177.4290  136.3460 C   0  0  2  0  0  3  0  0  0  0  0  0
  188.4590  177.6920  137.5060 C   0  0  1  0  0  3  0  0  0  0  0  0
  187.7910  171.7200  135.5160 C   0  0  0  0  0  3  0  0  0  0  0  0
  183.9790  178.5190  138.9090 O   0  0  0  0  0  0  0  0  0  0  0  0
  186.5650  172.6470  137.7380 Cl  0  0  0  0  0  0  0  0  0  0  0  0
  190.6400  173.2060  135.8790 C   0  0  2  0  0  3  0  0  0  0  0  0
  188.9730  171.5560  134.8750 C   0  0  0  0  0  3  0  0  0  0  0  0
  184.9410  178.2730  138.1360 C   0  0  0  0  0  0  0  0  0  0  0  0
  188.2030  174.1420  136.1560 C   0  0  2  0  0  3  0  0  0  0  0  0
  189.6370  175.7400  138.1750 O   0  0  0  0  0  0  0  0  0  0  0  0
  190.6850  175.7950  137.1910 C   0  0  1  0  0  3  0  0  0  0  0  0
  190.0100  172.6290  134.5950 C   0  0  0  0  0  2  0  0  0  0  0  0
  189.5490  173.7700  136.7030 C   0  0  2  0  0  3  0  0  0  0  0  0
  190.0760  175.3720  134.8430 O   0  0  0  0  0  0  0  0  0  0  0  0
  190.7360  176.6020  134.7640 C   0  0  0  0  0  1  0  0  0  0  0  0
  188.8680  178.0280  139.9990 C   0  0  0  0  0  1  0  0  0  0  0  0
  189.2400  178.4550  138.5860 C   0  0  0  0  0  2  0  0  0  0  0  0
  192.0450  175.6350  137.8800 C   0  0  1  0  0  3  0  0  0  0  0  0
  194.0440  174.0760  137.2130 C   0  0  0  0  0  1  0  0  0  0  0  0
  193.4020  175.6820  136.6640 S   0  0  0  0  0  0  0  0  0  0  0  0
  192.2660  176.7370  138.9040 C   0  0  0  0  0  2  0  0  0  0  0  0
  193.6200  177.0640  138.9690 O   0  0  0  0  0  1  0  0  0  0  0  0
  1  5  1  1  0  0  0
  1  4  1  0  0  0  0
  2 17  1  0  0  0  0
  2 13  1  1  0  0  0
  3 22  1  6  0  0  0
  3 21  1  0  0  0  0
  3 19  1  0  0  0  0
  4 18  1  6  0  0  0
  7 10  1  0  0  0  0
  7  6  1  1  0  0  0
  8 16  1  0  0  0  0
  9  5  1  1  0  0  0
  9  8  1  0  0  0  0
  9  7  1  0  0  0  0
 10  4  1  0  0  0  0
 10 25  1  1  0  0  0
 11  2  1  0  0  0  0
 14 20  1  6  0  0  0
 14  3  1  0  0  0  0
 14 21  1  0  0  0  0
 15 11  2  0  0  0  0
 16  6  1  0  0  0  0
 16 12  2  0  0  0  0
 17  1  1  0  0  0  0
 17 21  1  0  0  0  0
 19 26  1  0  0  0  0
 19 18  1  0  0  0  0
 20 15  1  0  0  0  0
 23 22  1  0  0  0  0
 25 24  1  0  0  0  0
 26 29  1  0  0  0  0
 28 27  1  0  0  0  0
 28 26  1  0  0  0  0
 29 30  1  0  0  0  0
M  END
>  <MODEL>
3

>  <REMARK>
 VINA RESULT:      -5.2      4.943      7.025
  Name = 
  5 active torsions:
  status: ('A' for Active; 'I' for Inactive)
    1  A    between atoms: C_3  and  O_11
    2  A    between atoms: C_10  and  C_15
    3  A    between atoms: C_10  and  C_25
    4  A    between atoms: C_10  and  S_26
    5  A    between atoms: C_13  and  C_30
                            x       y       z     vdW  Elec       q    Type
                         _______ _______ _______ _____ _____    ______ ____

>  <TORSDO>
F 5

$$$$
=
 OpenBabel11052412183D

 30 34  0  0  1  0  0  0  0  0999 V2000
  184.3630  177.6670  137.7740 C   0  0  2  0  0  3  0  0  0  0  0  0
  182.8480  178.8680  139.6680 C   0  0  1  0  0  3  0  0  0  0  0  0
  181.8330  176.9380  136.6030 C   0  0  2  0  0  0  0  0  0  0  0  0
  184.6480  176.2170  137.5880 N   0  0  2  0  0  0  0  0  0  0  0  0
  185.5730  178.3770  138.3450 C   0  0  0  0  0  2  0  0  0  0  0  0
  187.8740  176.1200  137.5940 N   0  0  0  0  0  2  0  0  0  0  0  0
  186.9210  176.8370  136.7600 C   0  0  2  0  0  3  0  0  0  0  0  0
  187.9780  178.4110  138.1960 N   0  0  0  0  0  2  0  0  0  0  0  0
  186.7730  178.2510  137.3970 C   0  0  2  0  0  3  0  0  0  0  0  0
  185.6080  176.0670  136.4850 C   0  0  1  0  0  3  0  0  0  0  0  0
  181.4290  179.3600  139.9130 C   0  0  0  0  0  3  0  0  0  0  0  0
  189.5170  176.8790  139.0880 O   0  0  0  0  0  0  0  0  0  0  0  0
  183.3780  177.8760  141.0510 Cl  0  0  0  0  0  0  0  0  0  0  0  0
  180.6250  177.3480  137.5130 C   0  0  2  0  0  3  0  0  0  0  0  0
  180.3780  179.3630  139.0570 C   0  0  0  0  0  3  0  0  0  0  0  0
  188.5310  177.1190  138.3450 C   0  0  0  0  0  0  0  0  0  0  0  0
  182.9920  178.0980  138.3630 C   0  0  2  0  0  3  0  0  0  0  0  0
  183.5730  175.3470  137.4790 O   0  0  0  0  0  0  0  0  0  0  0  0
  182.6970  175.6580  136.3810 C   0  0  1  0  0  3  0  0  0  0  0  0
  180.3750  178.8660  137.6230 C   0  0  0  0  0  2  0  0  0  0  0  0
  181.9340  177.0600  138.1370 C   0  0  2  0  0  3  0  0  0  0  0  0
  182.3180  178.0350  135.8560 O   0  0  0  0  0  0  0  0  0  0  0  0
  182.6470  177.5310  134.5940 C   0  0  0  0  0  1  0  0  0  0  0  0
  186.3370  174.4760  134.6320 C   0  0  0  0  0  1  0  0  0  0  0  0
  185.8440  174.6080  136.0660 C   0  0  0  0  0  2  0  0  0  0  0  0
  181.8070  174.4490  136.0740 C   0  0  1  0  0  3  0  0  0  0  0  0
  182.9900  172.1620  135.5820 C   0  0  0  0  0  1  0  0  0  0  0  0
  182.3970  173.5630  134.5940 S   0  0  0  0  0  0  0  0  0  0  0  0
  181.7860  173.4820  137.2480 C   0  0  0  0  0  2  0  0  0  0  0  0
  180.5860  173.6080  137.9490 O   0  0  0  0  0  1  0  0  0  0  0  0
  1  5  1  1  0  0  0
  1 17  1  0  0  0  0
  2 11  1  0  0  0  0
  2 13  1  1  0  0  0
  3 22  1  6  0  0  0
  3 14  1  0  0  0  0
  3 21  1  0  0  0  0
  4 18  1  6  0  0  0
  4  1  1  0  0  0  0
  6 16  1  0  0  0  0
  7  9  1  0  0  0  0
  7  6  1  1  0  0  0
  8 16  1  0  0  0  0
  9  8  1  0  0  0  0
  9  5  1  1  0  0  0
 10 25  1  1  0  0  0
 10  7  1  0  0  0  0
 10  4  1  0  0  0  0
 14 20  1  6  0  0  0
 14 21  1  0  0  0  0
 15 11  2  0  0  0  0
 16 12  2  0  0  0  0
 17  2  1  0  0  0  0
 19  3  1  0  0  0  0
 19 18  1  0  0  0  0
 20 15  1  0  0  0  0
 21 17  1  0  0  0  0
 23 22  1  0  0  0  0
 24 25  1  0  0  0  0
 26 19  1  0  0  0  0
 26 29  1  0  0  0  0
 28 27  1  0  0  0  0
 28 26  1  0  0  0  0
 29 30  1  0  0  0  0
M  END
>  <MODEL>
4

>  <REMARK>
 VINA RESULT:      -5.1      5.927      9.759
  Name = 
  5 active torsions:
  status: ('A' for Active; 'I' for Inactive)
    1  A    between atoms: C_3  and  O_11
    2  A    between atoms: C_10  and  C_15
    3  A    between atoms: C_10  and  C_25
    4  A    between atoms: C_10  and  S_26
    5  A    between atoms: C_13  and  C_30
                            x       y       z     vdW  Elec       q    Type
                         _______ _______ _______ _____ _____    ______ ____

>  <TORSDO>
F 5

$$$$
=
 OpenBabel11052412183D

 30 34  0  0  1  0  0  0  0  0999 V2000
  189.9820  176.7540  140.4380 C   0  0  2  0  0  3  0  0  0  0  0  0
  192.3910  176.6450  139.2110 C   0  0  1  0  0  3  0  0  0  0  0  0
  188.9240  176.7720  137.7580 C   0  0  2  0  0  0  0  0  0  0  0  0
  189.0680  177.9190  140.6000 N   0  0  2  0  0  0  0  0  0  0  0  0
  190.6760  176.4380  141.7470 C   0  0  0  0  0  2  0  0  0  0  0  0
  188.6290  178.0410  143.7950 N   0  0  0  0  0  2  0  0  0  0  0  0
  188.3840  176.9920  142.8160 C   0  0  2  0  0  3  0  0  0  0  0  0
  190.2690  176.3590  144.1210 N   0  0  0  0  0  2  0  0  0  0  0  0
  189.6500  176.0850  142.8330 C   0  0  2  0  0  3  0  0  0  0  0  0
  187.9270  177.5080  141.4310 C   0  0  1  0  0  3  0  0  0  0  0  0
  193.0200  176.3270  137.8620 C   0  0  0  0  0  3  0  0  0  0  0  0
  190.0880  178.1480  145.6310 O   0  0  0  0  0  0  0  0  0  0  0  0
  193.0240  178.2010  139.8070 Cl  0  0  0  0  0  0  0  0  0  0  0  0
  190.0570  176.8600  136.6800 C   0  0  2  0  0  3  0  0  0  0  0  0
  192.4140  175.8850  136.7330 C   0  0  0  0  0  3  0  0  0  0  0  0
  189.6890  177.5580  144.5930 C   0  0  0  0  0  0  0  0  0  0  0  0
  190.8690  176.6610  139.1680 C   0  0  2  0  0  3  0  0  0  0  0  0
  188.6750  178.6070  139.4610 O   0  0  0  0  0  0  0  0  0  0  0  0
  187.9930  177.7790  138.5030 C   0  0  1  0  0  3  0  0  0  0  0  0
  190.9350  175.5980  136.5500 C   0  0  0  0  0  2  0  0  0  0  0  0
  190.2910  177.4360  138.0220 C   0  0  2  0  0  3  0  0  0  0  0  0
  188.7640  175.4540  138.2410 O   0  0  0  0  0  0  0  0  0  0  0  0
  187.6390  174.9350  137.5940 C   0  0  0  0  0  1  0  0  0  0  0  0
  185.6040  178.0830  142.3060 C   0  0  0  0  0  1  0  0  0  0  0  0
  186.8150  178.5640  141.5200 C   0  0  0  0  0  2  0  0  0  0  0  0
  187.2390  178.6630  137.5030 C   0  0  1  0  0  3  0  0  0  0  0  0
  186.0130  177.5020  135.4990 C   0  0  0  0  0  1  0  0  0  0  0  0
  187.6570  178.2130  135.7870 S   0  0  0  0  0  0  0  0  0  0  0  0
  185.7350  178.5310  137.6920 C   0  0  0  0  0  2  0  0  0  0  0  0
  185.3070  179.3760  138.7170 O   0  0  0  0  0  1  0  0  0  0  0  0
  1  4  1  0  0  0  0
  1  5  1  1  0  0  0
  2 13  1  6  0  0  0
  3 21  1  0  0  0  0
  3 22  1  1  0  0  0
  3 19  1  0  0  0  0
  4 18  1  6  0  0  0
  4 10  1  0  0  0  0
  6 16  1  0  0  0  0
  7  9  1  0  0  0  0
  7  6  1  1  0  0  0
  8 16  1  0  0  0  0
  9  5  1  6  0  0  0
  9  8  1  0  0  0  0
 10 25  1  1  0  0  0
 10  7  1  0  0  0  0
 11  2  1  0  0  0  0
 14 20  1  1  0  0  0
 14  3  1  0  0  0  0
 14 21  1  0  0  0  0
 15 11  2  0  0  0  0
 16 12  2  0  0  0  0
 17  2  1  0  0  0  0
 17  1  1  0  0  0  0
 19 18  1  0  0  0  0
 20 15  1  0  0  0  0
 21 17  1  0  0  0  0
 23 22  1  0  0  0  0
 25 24  1  0  0  0  0
 26 29  1  0  0  0  0
 26 19  1  0  0  0  0
 27 28  1  0  0  0  0
 28 26  1  0  0  0  0
 29 30  1  0  0  0  0
M  END
>  <MODEL>
5

>  <REMARK>
 VINA RESULT:      -5.0      3.375      6.298
  Name = 
  5 active torsions:
  status: ('A' for Active; 'I' for Inactive)
    1  A    between atoms: C_3  and  O_11
    2  A    between atoms: C_10  and  C_15
    3  A    between atoms: C_10  and  C_25
    4  A    between atoms: C_10  and  S_26
    5  A    between atoms: C_13  and  C_30
                            x       y       z     vdW  Elec       q    Type
                         _______ _______ _______ _____ _____    ______ ____

>  <TORSDO>
F 5

$$$$
=
 OpenBabel11052412183D

 30 34  0  0  1  0  0  0  0  0999 V2000
  186.8720  177.8170  138.7380 C   0  0  2  0  0  3  0  0  0  0  0  0
  184.7120  177.2380  137.2140 C   0  0  1  0  0  3  0  0  0  0  0  0
  188.3530  177.4480  136.2950 C   0  0  2  0  0  0  0  0  0  0  0  0
  187.9070  176.8920  139.2790 N   0  0  2  0  0  0  0  0  0  0  0  0
  185.9290  178.2600  139.8390 C   0  0  0  0  0  2  0  0  0  0  0  0
  187.8190  177.5010  142.4480 N   0  0  0  0  0  2  0  0  0  0  0  0
  188.0670  178.3560  141.2960 C   0  0  2  0  0  3  0  0  0  0  0  0
  185.9180  178.8890  142.1640 N   0  0  0  0  0  2  0  0  0  0  0  0
  186.6960  179.0040  140.9410 C   0  0  2  0  0  3  0  0  0  0  0  0
  188.8200  177.6630  140.1360 C   0  0  1  0  0  3  0  0  0  0  0  0
  184.2770  177.1590  135.7570 C   0  0  0  0  0  3  0  0  0  0  0  0
  186.1060  177.5050  144.0520 O   0  0  0  0  0  0  0  0  0  0  0  0
  184.2260  175.7460  138.0590 Cl  0  0  0  0  0  0  0  0  0  0  0  0
  187.4410  176.9420  135.1260 C   0  0  2  0  0  3  0  0  0  0  0  0
  184.9910  177.4650  134.6470 C   0  0  0  0  0  3  0  0  0  0  0  0
  186.5810  177.9350  142.9690 C   0  0  0  0  0  0  0  0  0  0  0  0
  186.2050  177.4890  137.3750 C   0  0  2  0  0  3  0  0  0  0  0  0
  188.5830  176.0710  138.3880 O   0  0  0  0  0  0  0  0  0  0  0  0
  189.2850  176.7980  137.3640 C   0  0  1  0  0  3  0  0  0  0  0  0
  186.4210  177.9720  134.5990 C   0  0  0  0  0  2  0  0  0  0  0  0
  187.0750  176.6160  136.5210 C   0  0  2  0  0  3  0  0  0  0  0  0
  188.2330  178.8440  136.4830 O   0  0  0  0  0  0  0  0  0  0  0  0
  189.4300  179.2620  137.0710 C   0  0  0  0  0  1  0  0  0  0  0  0
  191.2510  177.7470  140.8970 C   0  0  0  0  0  1  0  0  0  0  0  0
  190.0450  176.8650  140.6080 C   0  0  0  0  0  2  0  0  0  0  0  0
  190.3180  175.8810  136.6990 C   0  0  1  0  0  3  0  0  0  0  0  0
  192.3760  174.5250  137.5930 C   0  0  0  0  0  1  0  0  0  0  0  0
  192.0030  176.2720  137.2720 S   0  0  0  0  0  0  0  0  0  0  0  0
  190.0210  174.4220  137.0070 C   0  0  0  0  0  2  0  0  0  0  0  0
  189.2900  173.8530  135.9640 O   0  0  0  0  0  1  0  0  0  0  0  0
  1  4  1  0  0  0  0
  1  5  1  1  0  0  0
  2 17  1  0  0  0  0
  2 13  1  1  0  0  0
  3 22  1  1  0  0  0
  3 21  1  0  0  0  0
  3 19  1  0  0  0  0
  4 18  1  6  0  0  0
  4 10  1  0  0  0  0
  6 16  1  0  0  0  0
  7  6  1  1  0  0  0
  8 16  1  0  0  0  0
  9  5  1  6  0  0  0
  9  7  1  0  0  0  0
  9  8  1  0  0  0  0
 10 25  1  1  0  0  0
 10  7  1  0  0  0  0
 11  2  1  0  0  0  0
 14 20  1  1  0  0  0
 14  3  1  0  0  0  0
 14 21  1  0  0  0  0
 15 11  2  0  0  0  0
 16 12  2  0  0  0  0
 17  1  1  0  0  0  0
 19 18  1  0  0  0  0
 20 15  1  0  0  0  0
 21 17  1  0  0  0  0
 22 23  1  0  0  0  0
 25 24  1  0  0  0  0
 26 29  1  0  0  0  0
 26 28  1  0  0  0  0
 26 19  1  0  0  0  0
 28 27  1  0  0  0  0
 30 29  1  0  0  0  0
M  END
>  <MODEL>
6

>  <REMARK>
 VINA RESULT:      -5.0      4.166      6.657
  Name = 
  5 active torsions:
  status: ('A' for Active; 'I' for Inactive)
    1  A    between atoms: C_3  and  O_11
    2  A    between atoms: C_10  and  C_15
    3  A    between atoms: C_10  and  C_25
    4  A    between atoms: C_10  and  S_26
    5  A    between atoms: C_13  and  C_30
                            x       y       z     vdW  Elec       q    Type
                         _______ _______ _______ _____ _____    ______ ____

>  <TORSDO>
F 5

$$$$
=
 OpenBabel11052412183D

 30 34  0  0  1  0  0  0  0  0999 V2000
  183.0160  178.0910  139.5420 C   0  0  2  0  0  3  0  0  0  0  0  0
  182.8030  179.0730  142.0540 C   0  0  1  0  0  3  0  0  0  0  0  0
  180.1820  177.6300  139.7750 C   0  0  2  0  0  0  0  0  0  0  0  0
  183.0140  176.6710  139.0910 N   0  0  2  0  0  0  0  0  0  0  0  0
  184.4160  178.6670  139.4750 C   0  0  0  0  0  2  0  0  0  0  0  0
  185.7690  176.4490  137.4240 N   0  0  0  0  0  2  0  0  0  0  0  0
  184.6060  177.3120  137.2770 C   0  0  2  0  0  3  0  0  0  0  0  0
  186.4020  178.6290  138.1120 N   0  0  0  0  0  2  0  0  0  0  0  0
  184.9500  178.6280  138.0370 C   0  0  2  0  0  3  0  0  0  0  0  0
  183.2620  176.6390  137.6420 C   0  0  1  0  0  3  0  0  0  0  0  0
  181.7630  179.5810  143.0430 C   0  0  0  0  0  3  0  0  0  0  0  0
  188.0110  176.9290  137.9250 O   0  0  0  0  0  0  0  0  0  0  0  0
  183.8530  177.8780  142.8590 Cl  0  0  0  0  0  0  0  0  0  0  0  0
  179.6510  177.9560  141.2130 C   0  0  2  0  0  3  0  0  0  0  0  0
  180.4310  179.7430  142.8560 C   0  0  0  0  0  3  0  0  0  0  0  0
  186.8160  177.3080  137.8250 C   0  0  0  0  0  0  0  0  0  0  0  0
  182.1860  178.4870  140.7920 C   0  0  2  0  0  3  0  0  0  0  0  0
  181.9480  175.8660  139.4650 O   0  0  0  0  0  0  0  0  0  0  0  0
  180.6750  176.3620  139.0130 C   0  0  1  0  0  3  0  0  0  0  0  0
  179.6510  179.4520  141.5880 C   0  0  0  0  0  2  0  0  0  0  0  0
  181.0570  177.5330  141.0410 C   0  0  2  0  0  3  0  0  0  0  0  0
  180.3340  178.8010  138.9990 O   0  0  0  0  0  0  0  0  0  0  0  0
  179.8570  178.4860  137.7220 C   0  0  0  0  0  1  0  0  0  0  0  0
  182.6290  175.2950  135.5720 C   0  0  0  0  0  1  0  0  0  0  0  0
  183.1000  175.2450  137.0180 C   0  0  0  0  0  2  0  0  0  0  0  0
  179.6310  175.2420  139.0890 C   0  0  1  0  0  3  0  0  0  0  0  0
  180.2000  172.9440  137.9640 C   0  0  0  0  0  1  0  0  0  0  0  0
  179.3730  174.4770  137.4550 S   0  0  0  0  0  0  0  0  0  0  0  0
  180.0650  174.1650  140.0720 C   0  0  0  0  0  2  0  0  0  0  0  0
  179.2990  174.2440  141.2350 O   0  0  0  0  0  1  0  0  0  0  0  0
  1  5  1  1  0  0  0
  1 17  1  0  0  0  0
  2 13  1  1  0  0  0
  2 11  1  0  0  0  0
  3 22  1  6  0  0  0
  3 21  1  0  0  0  0
  3 14  1  0  0  0  0
  4 18  1  6  0  0  0
  4  1  1  0  0  0  0
  6 16  1  0  0  0  0
  7  6  1  1  0  0  0
  7 10  1  0  0  0  0
  7  9  1  0  0  0  0
  9  8  1  0  0  0  0
  9  5  1  1  0  0  0
 10 25  1  1  0  0  0
 10  4  1  0  0  0  0
 14 20  1  6  0  0  0
 15 11  2  0  0  0  0
 16 12  2  0  0  0  0
 16  8  1  0  0  0  0
 17 21  1  0  0  0  0
 17  2  1  0  0  0  0
 19 26  1  0  0  0  0
 19 18  1  0  0  0  0
 19  3  1  0  0  0  0
 20 15  1  0  0  0  0
 21 14  1  0  0  0  0
 23 22  1  0  0  0  0
 24 25  1  0  0  0  0
 26 29  1  0  0  0  0
 28 27  1  0  0  0  0
 28 26  1  0  0  0  0
 29 30  1  0  0  0  0
M  END
>  <MODEL>
7

>  <REMARK>
 VINA RESULT:      -4.9      6.351      9.566
  Name = 
  5 active torsions:
  status: ('A' for Active; 'I' for Inactive)
    1  A    between atoms: C_3  and  O_11
    2  A    between atoms: C_10  and  C_15
    3  A    between atoms: C_10  and  C_25
    4  A    between atoms: C_10  and  S_26
    5  A    between atoms: C_13  and  C_30
                            x       y       z     vdW  Elec       q    Type
                         _______ _______ _______ _____ _____    ______ ____

>  <TORSDO>
F 5

$$$$
=
 OpenBabel11052412183D

 30 34  0  0  1  0  0  0  0  0999 V2000
  185.5500  177.3720  137.0560 C   0  0  2  0  0  3  0  0  0  0  0  0
  184.4800  179.1450  138.7980 C   0  0  1  0  0  3  0  0  0  0  0  0
  182.8500  176.3990  136.8110 C   0  0  2  0  0  0  0  0  0  0  0  0
  185.8470  175.9270  137.2600 N   0  0  2  0  0  0  0  0  0  0  0  0
  186.8290  178.1840  137.0720 C   0  0  0  0  0  2  0  0  0  0  0  0
  188.9820  175.7330  136.5170 N   0  0  0  0  0  2  0  0  0  0  0  0
  187.8260  176.1880  135.7590 C   0  0  2  0  0  3  0  0  0  0  0  0
  189.1240  178.0940  136.3440 N   0  0  0  0  0  2  0  0  0  0  0  0
  187.7710  177.7340  135.9480 C   0  0  2  0  0  3  0  0  0  0  0  0
  186.5210  175.4130  136.0580 C   0  0  1  0  0  3  0  0  0  0  0  0
  183.1400  179.7340  139.2150 C   0  0  0  0  0  3  0  0  0  0  0  0
  190.8990  176.8620  137.2630 O   0  0  0  0  0  0  0  0  0  0  0  0
  185.3690  178.6110  140.2470 Cl  0  0  0  0  0  0  0  0  0  0  0  0
  181.8770  177.1070  137.8140 C   0  0  2  0  0  3  0  0  0  0  0  0
  181.9160  179.5070  138.6790 C   0  0  0  0  0  3  0  0  0  0  0  0
  189.7540  176.8930  136.7440 C   0  0  0  0  0  0  0  0  0  0  0  0
  184.3430  178.0060  137.7970 C   0  0  2  0  0  3  0  0  0  0  0  0
  184.8180  175.0990  137.6850 O   0  0  0  0  0  0  0  0  0  0  0  0
  183.6910  175.0860  136.7900 C   0  0  1  0  0  3  0  0  0  0  0  0
  181.5920  178.5930  137.5120 C   0  0  0  0  0  2  0  0  0  0  0  0
  183.3090  176.9830  138.1620 C   0  0  2  0  0  3  0  0  0  0  0  0
  183.0920  177.1950  135.6700 O   0  0  0  0  0  0  0  0  0  0  0  0
  183.2170  176.3090  134.5950 C   0  0  0  0  0  1  0  0  0  0  0  0
  186.7680  173.2950  134.6630 C   0  0  0  0  0  1  0  0  0  0  0  0
  186.7160  173.8890  136.0630 C   0  0  0  0  0  2  0  0  0  0  0  0
  182.8090  173.8690  137.0930 C   0  0  1  0  0  3  0  0  0  0  0  0
  180.3720  172.9390  137.3460 C   0  0  0  0  0  1  0  0  0  0  0  0
  181.2750  173.9140  136.1110 S   0  0  0  0  0  0  0  0  0  0  0  0
  183.5500  172.5760  136.7870 C   0  0  0  0  0  2  0  0  0  0  0  0
  183.4530  172.2810  135.4270 O   0  0  0  0  0  1  0  0  0  0  0  0
  1  5  1  1  0  0  0
  1  4  1  0  0  0  0
  1 17  1  0  0  0  0
  2 11  1  0  0  0  0
  2 13  1  1  0  0  0
  3 22  1  6  0  0  0
  3 14  1  0  0  0  0
  3 21  1  0  0  0  0
  4 18  1  6  0  0  0
  6 16  1  0  0  0  0
  7  9  1  0  0  0  0
  7 10  1  0  0  0  0
  7  6  1  1  0  0  0
  8 16  1  0  0  0  0
  9  8  1  0  0  0  0
  9  5  1  1  0  0  0
 10 25  1  1  0  0  0
 10  4  1  0  0  0  0
 14 20  1  6  0  0  0
 14 21  1  0  0  0  0
 15 11  2  0  0  0  0
 16 12  2  0  0  0  0
 17 21  1  0  0  0  0
 17  2  1  0  0  0  0
 19  3  1  0  0  0  0
 19 26  1  0  0  0  0
 19 18  1  0  0  0  0
 20 15  1  0  0  0  0
 23 22  1  0  0  0  0
 24 25  1  0  0  0  0
 28 26  1  0  0  0  0
 28 27  1  0  0  0  0
 29 26  1  0  0  0  0
 30 29  1  0  0  0  0
M  END
>  <MODEL>
8

>  <REMARK>
 VINA RESULT:      -4.8      6.644      9.588
  Name = 
  5 active torsions:
  status: ('A' for Active; 'I' for Inactive)
    1  A    between atoms: C_3  and  O_11
    2  A    between atoms: C_10  and  C_15
    3  A    between atoms: C_10  and  C_25
    4  A    between atoms: C_10  and  S_26
    5  A    between atoms: C_13  and  C_30
                            x       y       z     vdW  Elec       q    Type
                         _______ _______ _______ _____ _____    ______ ____

>  <TORSDO>
F 5

$$$$
=
 OpenBabel11052412183D

 30 34  0  0  1  0  0  0  0  0999 V2000
  180.5010  176.5020  139.4120 C   0  0  2  0  0  3  0  0  0  0  0  0
  179.2300  174.1350  139.0850 C   0  0  1  0  0  3  0  0  0  0  0  0
  181.8340  175.8160  136.9520 C   0  0  2  0  0  0  0  0  0  0  0  0
  181.8940  176.7570  139.8710 N   0  0  2  0  0  0  0  0  0  0  0  0
  179.5110  176.8390  140.5090 C   0  0  0  0  0  2  0  0  0  0  0  0
  181.4660  178.7500  142.3740 N   0  0  0  0  0  2  0  0  0  0  0  0
  181.0790  178.8450  140.9740 C   0  0  2  0  0  3  0  0  0  0  0  0
  179.1160  178.4490  142.2570 N   0  0  0  0  0  2  0  0  0  0  0  0
  179.6150  178.3200  140.8970 C   0  0  2  0  0  3  0  0  0  0  0  0
  182.0900  178.2100  139.9890 C   0  0  1  0  0  3  0  0  0  0  0  0
  178.9370  173.0850  138.0220 C   0  0  0  0  0  3  0  0  0  0  0  0
  180.1870  178.6360  144.3390 O   0  0  0  0  0  0  0  0  0  0  0  0
  179.8500  173.3360  140.5520 Cl  0  0  0  0  0  0  0  0  0  0  0  0
  181.4630  174.3730  136.4660 C   0  0  2  0  0  3  0  0  0  0  0  0
  179.2630  173.1040  136.7070 C   0  0  0  0  0  3  0  0  0  0  0  0
  180.2520  178.6160  143.0820 C   0  0  0  0  0  0  0  0  0  0  0  0
  180.1960  175.2110  138.6070 C   0  0  2  0  0  3  0  0  0  0  0  0
  182.9320  176.1360  139.1920 O   0  0  0  0  0  0  0  0  0  0  0  0
  182.9760  176.4660  137.7920 C   0  0  1  0  0  3  0  0  0  0  0  0
  180.0110  174.2020  135.9730 C   0  0  0  0  0  2  0  0  0  0  0  0
  181.4150  174.6830  137.9110 C   0  0  2  0  0  3  0  0  0  0  0  0
  180.8310  176.7530  136.6150 O   0  0  0  0  0  0  0  0  0  0  0  0
  181.4970  177.9470  136.3220 C   0  0  0  0  0  1  0  0  0  0  0  0
  184.0250  179.7530  139.3840 C   0  0  0  0  0  1  0  0  0  0  0  0
  183.5430  178.6170  140.2740 C   0  0  0  0  0  2  0  0  0  0  0  0
  184.3490  176.0990  137.2200 C   0  0  1  0  0  3  0  0  0  0  0  0
  185.0700  174.3170  135.4380 C   0  0  0  0  0  1  0  0  0  0  0  0
  184.2820  175.9510  135.4050 S   0  0  0  0  0  0  0  0  0  0  0  0
  185.3860  177.1480  137.5880 C   0  0  0  0  0  2  0  0  0  0  0  0
  186.0510  177.5850  136.4420 O   0  0  0  0  0  1  0  0  0  0  0  0
  1  4  1  0  0  0  0
  1  5  1  1  0  0  0
  2 13  1  1  0  0  0
  3 22  1  6  0  0  0
  3 19  1  0  0  0  0
  3 21  1  0  0  0  0
  4 18  1  6  0  0  0
  4 10  1  0  0  0  0
  6 16  1  0  0  0  0
  7  6  1  1  0  0  0
  8 16  1  0  0  0  0
  9  5  1  1  0  0  0
  9  7  1  0  0  0  0
  9  8  1  0  0  0  0
 10 25  1  1  0  0  0
 10  7  1  0  0  0  0
 11  2  1  0  0  0  0
 14 20  1  6  0  0  0
 14  3  1  0  0  0  0
 14 21  1  0  0  0  0
 15 11  2  0  0  0  0
 16 12  2  0  0  0  0
 17  2  1  0  0  0  0
 17  1  1  0  0  0  0
 19 18  1  0  0  0  0
 20 15  1  0  0  0  0
 21 17  1  0  0  0  0
 23 22  1  0  0  0  0
 24 25  1  0  0  0  0
 26 29  1  0  0  0  0
 26 19  1  0  0  0  0
 28 27  1  0  0  0  0
 28 26  1  0  0  0  0
 30 29  1  0  0  0  0
M  END
>  <MODEL>
9

>  <REMARK>
 VINA RESULT:      -4.7      6.953      9.635
  Name = 
  5 active torsions:
  status: ('A' for Active; 'I' for Inactive)
    1  A    between atoms: C_3  and  O_11
    2  A    between atoms: C_10  and  C_15
    3  A    between atoms: C_10  and  C_25
    4  A    between atoms: C_10  and  S_26
    5  A    between atoms: C_13  and  C_30
                            x       y       z     vdW  Elec       q    Type
                         _______ _______ _______ _____ _____    ______ ____

>  <TORSDO>
F 5

$$$$
