=
 OpenBabel11052415383D

 34 39  0  0  1  0  0  0  0  0999 V2000
  187.4230  177.8160  145.3760 C   0  0  0  0  0  0  0  0  0  0  0  0
  185.1060  178.6000  145.5930 C   0  0  0  0  0  0  0  0  0  0  0  0
  186.5080  178.4510  147.5530 C   0  0  0  0  0  3  0  0  0  0  0  0
  188.4990  177.1350  143.2780 O   0  0  0  0  0  1  0  0  0  0  0  0
  189.7340  177.0640  145.3410 C   0  0  0  0  0  0  0  0  0  0  0  0
  189.7950  177.2440  146.6840 N   0  0  0  0  0  0  0  0  0  0  0  0
  187.5690  177.9860  146.7750 C   0  0  0  0  0  0  0  0  0  0  0  0
  188.5450  177.3390  144.6550 C   0  0  0  0  0  0  0  0  0  0  0  0
  188.7490  177.6920  147.3760 N   0  0  0  0  0  0  0  0  0  0  0  0
  183.8660  178.9120  145.0290 C   0  0  0  0  0  3  0  0  0  0  0  0
  183.6540  178.7650  143.6570 C   0  0  0  0  0  0  0  0  0  0  0  0
  184.6950  178.3010  142.8430 C   0  0  0  0  0  3  0  0  0  0  0  0
  185.2850  178.7570  146.9660 C   0  0  0  0  0  3  0  0  0  0  0  0
  185.9360  177.9880  143.4000 C   0  0  0  0  0  3  0  0  0  0  0  0
  186.1690  178.1280  144.7780 C   0  0  0  0  0  0  0  0  0  0  0  0
  182.3120  179.1080  143.0870 C   0  0  0  0  0  3  0  0  0  0  0  0
  181.1930  178.5690  143.9590 C   0  0  0  0  0  1  0  0  0  0  0  0
  182.1710  178.5830  141.6710 C   0  0  0  0  0  1  0  0  0  0  0  0
  190.9290  176.5300  144.6250 C   0  0  0  0  0  2  0  0  0  0  0  0
  191.4320  177.5330  143.7040 N   0  0  0  0  0  2  0  0  0  0  0  0
  191.9510  176.8200  142.5470 C   0  0  0  0  0  2  0  0  0  0  0  0
  190.0290  176.0770  138.2840 C   0  0  0  0  0  3  0  0  0  0  0  0
  192.8170  177.4470  140.2540 C   0  0  0  0  0  2  0  0  0  0  0  0
  191.8810  175.9350  136.8810 C   0  0  0  0  0  0  0  0  0  0  0  0
  192.7310  175.6890  135.8400 C   0  0  0  0  0  0  0  0  0  0  0  0
  190.5580  175.7160  137.0710 N   0  0  0  0  0  0  0  0  0  0  0  0
  193.9840  176.0810  136.1810 N   0  0  0  0  0  0  0  0  0  0  0  0
  190.8290  176.6350  139.2520 N   0  0  0  0  0  0  0  0  0  0  0  0
  192.3850  175.0970  134.5940 N   0  0  0  0  0  1  0  0  0  0  0  0
  192.7160  176.5050  137.8710 C   0  0  0  0  0  0  0  0  0  0  0  0
  192.1490  176.8550  139.0790 C   0  0  0  0  0  0  0  0  0  0  0  0
  193.9800  176.5800  137.4210 N   0  0  0  0  0  0  0  0  0  0  0  0
  191.6590  177.5800  141.2570 C   0  0  1  0  0  3  0  0  0  0  0  0
  190.3910  177.0420  140.5680 C   0  0  0  0  0  2  0  0  0  0  0  0
  1  7  1  0  0  0  0
  2 13  2  0  0  0  0
  4  8  1  0  0  0  0
  5  6  1  0  0  0  0
  6  9  2  0  0  0  0
  7  9  1  0  0  0  0
  7  3  2  0  0  0  0
  8  5  2  0  0  0  0
  8  1  1  0  0  0  0
 10  2  1  0  0  0  0
 11 10  2  0  0  0  0
 12 14  2  0  0  0  0
 12 11  1  0  0  0  0
 13  3  1  0  0  0  0
 14 15  1  0  0  0  0
 15  1  2  0  0  0  0
 15  2  1  0  0  0  0
 16 11  1  0  0  0  0
 16 17  1  0  0  0  0
 18 16  1  0  0  0  0
 19  5  1  0  0  0  0
 20 19  1  0  0  0  0
 21 20  1  0  0  0  0
 22 28  1  0  0  0  0
 23 33  1  0  0  0  0
 24 26  1  0  0  0  0
 24 30  1  0  0  0  0
 25 27  1  0  0  0  0
 25 24  2  0  0  0  0
 26 22  2  0  0  0  0
 27 32  2  0  0  0  0
 28 34  1  0  0  0  0
 29 25  1  0  0  0  0
 30 31  2  0  0  0  0
 31 28  1  0  0  0  0
 31 23  1  0  0  0  0
 32 30  1  0  0  0  0
 33 21  1  1  0  0  0
 34 33  1  0  0  0  0
M  END
>  <MODEL>
1

>  <REMARK>
 VINA RESULT:     -10.7      0.000      0.000
  Name = 
  5 active torsions:
  status: ('A' for Active; 'I' for Inactive)
    1  A    between atoms: C_3  and  C_25
    2  A    between atoms: N_8  and  C_17
    3  A    between atoms: N_8  and  C_18
    4  A    between atoms: C_10  and  C_17
    5  A    between atoms: C_18  and  C_30
                            x       y       z     vdW  Elec       q    Type
                         _______ _______ _______ _____ _____    ______ ____

>  <TORSDO>
F 5

$$$$
=
 OpenBabel11052415383D

 34 39  0  0  1  0  0  0  0  0999 V2000
  185.7790  178.2600  144.5680 C   0  0  0  0  0  0  0  0  0  0  0  0
  187.6930  177.8820  146.0590 C   0  0  0  0  0  0  0  0  0  0  0  0
  185.5650  178.5460  146.9870 C   0  0  0  0  0  3  0  0  0  0  0  0
  185.8160  178.0260  142.1260 O   0  0  0  0  0  1  0  0  0  0  0  0
  183.7850  178.6730  143.2410 C   0  0  0  0  0  0  0  0  0  0  0  0
  183.1100  178.9720  144.3800 N   0  0  0  0  0  0  0  0  0  0  0  0
  185.0030  178.5780  145.7110 C   0  0  0  0  0  0  0  0  0  0  0  0
  185.1370  178.3160  143.3070 C   0  0  0  0  0  0  0  0  0  0  0  0
  183.6990  178.9240  145.5730 N   0  0  0  0  0  0  0  0  0  0  0  0
  189.0330  177.5390  146.2610 C   0  0  0  0  0  3  0  0  0  0  0  0
  189.8530  177.2170  145.1790 C   0  0  0  0  0  0  0  0  0  0  0  0
  189.3250  177.2380  143.8810 C   0  0  0  0  0  3  0  0  0  0  0  0
  186.9010  178.1990  147.1610 C   0  0  0  0  0  3  0  0  0  0  0  0
  187.9870  177.5780  143.6730 C   0  0  0  0  0  3  0  0  0  0  0  0
  187.1460  177.9070  144.7490 C   0  0  0  0  0  0  0  0  0  0  0  0
  191.2840  176.8560  145.4320 C   0  0  0  0  0  3  0  0  0  0  0  0
  191.7560  175.7830  144.4690 C   0  0  0  0  0  1  0  0  0  0  0  0
  191.4870  176.4000  146.8650 C   0  0  0  0  0  1  0  0  0  0  0  0
  183.0800  178.7750  141.9310 C   0  0  0  0  0  2  0  0  0  0  0  0
  183.5770  177.7520  141.0290 N   0  0  0  0  0  2  0  0  0  0  0  0
  182.7580  177.8130  139.8280 C   0  0  0  0  0  2  0  0  0  0  0  0
  185.8890  176.1890  136.6700 C   0  0  0  0  0  3  0  0  0  0  0  0
  184.9530  178.8160  139.0700 C   0  0  0  0  0  2  0  0  0  0  0  0
  187.9120  177.0550  137.4300 C   0  0  0  0  0  0  0  0  0  0  0  0
  189.2340  177.3010  137.6690 C   0  0  0  0  0  0  0  0  0  0  0  0
  187.2600  176.1690  136.6390 N   0  0  0  0  0  0  0  0  0  0  0  0
  189.3470  178.2940  138.5870 N   0  0  0  0  0  0  0  0  0  0  0  0
  185.2250  177.0820  137.4780 N   0  0  0  0  0  0  0  0  0  0  0  0
  190.3360  176.6220  137.0780 N   0  0  0  0  0  1  0  0  0  0  0  0
  187.2400  177.9750  138.2700 C   0  0  0  0  0  0  0  0  0  0  0  0
  185.8600  177.9660  138.2740 C   0  0  0  0  0  0  0  0  0  0  0  0
  188.1330  178.7090  138.9560 N   0  0  0  0  0  0  0  0  0  0  0  0
  183.5670  178.3120  138.6350 C   0  0  1  0  0  3  0  0  0  0  0  0
  183.7900  177.1890  137.6050 C   0  0  0  0  0  2  0  0  0  0  0  0
  1 15  2  0  0  0  0
  1  7  1  0  0  0  0
  2 10  1  0  0  0  0
  2 13  2  0  0  0  0
  3 13  1  0  0  0  0
  4  8  1  0  0  0  0
  5  8  2  0  0  0  0
  5  6  1  0  0  0  0
  6  9  2  0  0  0  0
  7  3  2  0  0  0  0
  8  1  1  0  0  0  0
  9  7  1  0  0  0  0
 11 16  1  0  0  0  0
 11 10  2  0  0  0  0
 12 11  1  0  0  0  0
 14 12  2  0  0  0  0
 14 15  1  0  0  0  0
 15  2  1  0  0  0  0
 16 18  1  0  0  0  0
 17 16  1  0  0  0  0
 19  5  1  0  0  0  0
 20 19  1  0  0  0  0
 21 20  1  0  0  0  0
 22 28  1  0  0  0  0
 24 25  2  0  0  0  0
 24 30  1  0  0  0  0
 25 27  1  0  0  0  0
 26 22  2  0  0  0  0
 26 24  1  0  0  0  0
 27 32  2  0  0  0  0
 28 34  1  0  0  0  0
 28 31  1  0  0  0  0
 29 25  1  0  0  0  0
 30 31  2  0  0  0  0
 30 32  1  0  0  0  0
 31 23  1  0  0  0  0
 33 23  1  0  0  0  0
 33 21  1  1  0  0  0
 34 33  1  0  0  0  0
M  END
>  <MODEL>
2

>  <REMARK>
 VINA RESULT:     -10.7      3.095      6.162
  Name = 
  5 active torsions:
  status: ('A' for Active; 'I' for Inactive)
    1  A    between atoms: C_3  and  C_25
    2  A    between atoms: N_8  and  C_17
    3  A    between atoms: N_8  and  C_18
    4  A    between atoms: C_10  and  C_17
    5  A    between atoms: C_18  and  C_30
                            x       y       z     vdW  Elec       q    Type
                         _______ _______ _______ _____ _____    ______ ____

>  <TORSDO>
F 5

$$$$
=
 OpenBabel11052415383D

 34 39  0  0  1  0  0  0  0  0999 V2000
  185.7240  178.2590  144.5810 C   0  0  0  0  0  0  0  0  0  0  0  0
  187.6510  177.9120  146.0640 C   0  0  0  0  0  0  0  0  0  0  0  0
  185.5290  178.5860  146.9970 C   0  0  0  0  0  3  0  0  0  0  0  0
  185.7430  177.9820  142.1430 O   0  0  0  0  0  1  0  0  0  0  0  0
  183.7190  178.6430  143.2630 C   0  0  0  0  0  0  0  0  0  0  0  0
  183.0520  178.9590  144.4020 N   0  0  0  0  0  0  0  0  0  0  0  0
  184.9570  178.5940  145.7250 C   0  0  0  0  0  0  0  0  0  0  0  0
  185.0730  178.2910  143.3240 C   0  0  0  0  0  0  0  0  0  0  0  0
  183.6500  178.9340  145.5910 N   0  0  0  0  0  0  0  0  0  0  0  0
  188.9940  177.5770  146.2620 C   0  0  0  0  0  3  0  0  0  0  0  0
  189.8070  177.2390  145.1780 C   0  0  0  0  0  0  0  0  0  0  0  0
  189.2680  177.2360  143.8850 C   0  0  0  0  0  3  0  0  0  0  0  0
  186.8670  178.2460  147.1660 C   0  0  0  0  0  3  0  0  0  0  0  0
  187.9280  177.5680  143.6810 C   0  0  0  0  0  3  0  0  0  0  0  0
  187.0950  177.9130  144.7580 C   0  0  0  0  0  0  0  0  0  0  0  0
  191.2410  176.8860  145.4260 C   0  0  0  0  0  3  0  0  0  0  0  0
  191.7270  175.8430  144.4370 C   0  0  0  0  0  1  0  0  0  0  0  0
  191.4450  176.3950  146.8480 C   0  0  0  0  0  1  0  0  0  0  0  0
  183.0030  178.7190  141.9570 C   0  0  0  0  0  2  0  0  0  0  0  0
  181.5710  178.7230  142.1870 N   0  0  0  0  0  2  0  0  0  0  0  0
  180.9690  179.4650  141.0880 C   0  0  0  0  0  2  0  0  0  0  0  0
  179.3130  175.0300  140.9640 C   0  0  0  0  0  3  0  0  0  0  0  0
  180.3160  178.0410  139.1020 C   0  0  0  0  0  2  0  0  0  0  0  0
  180.0550  174.2420  138.9030 C   0  0  0  0  0  0  0  0  0  0  0  0
  180.4280  173.4590  137.8480 C   0  0  0  0  0  0  0  0  0  0  0  0
  179.5520  173.9670  140.1310 N   0  0  0  0  0  0  0  0  0  0  0  0
  180.9040  174.2460  136.8500 N   0  0  0  0  0  0  0  0  0  0  0  0
  179.5820  176.3130  140.5480 N   0  0  0  0  0  0  0  0  0  0  0  0
  180.3580  172.0390  137.7880 N   0  0  0  0  0  1  0  0  0  0  0  0
  180.3400  175.5570  138.4650 C   0  0  0  0  0  0  0  0  0  0  0  0
  180.0880  176.6010  139.3310 C   0  0  0  0  0  0  0  0  0  0  0  0
  180.8520  175.5280  137.2230 N   0  0  0  0  0  0  0  0  0  0  0  0
  179.8520  178.6610  140.4300 C   0  0  1  0  0  3  0  0  0  0  0  0
  179.3860  177.5070  141.3380 C   0  0  0  0  0  2  0  0  0  0  0  0
  1 15  2  0  0  0  0
  1  7  1  0  0  0  0
  2 10  1  0  0  0  0
  2 13  2  0  0  0  0
  3 13  1  0  0  0  0
  4  8  1  0  0  0  0
  5  8  2  0  0  0  0
  5  6  1  0  0  0  0
  6  9  2  0  0  0  0
  7  3  2  0  0  0  0
  8  1  1  0  0  0  0
  9  7  1  0  0  0  0
 11 16  1  0  0  0  0
 11 10  2  0  0  0  0
 12 11  1  0  0  0  0
 14 12  2  0  0  0  0
 14 15  1  0  0  0  0
 15  2  1  0  0  0  0
 16 18  1  0  0  0  0
 17 16  1  0  0  0  0
 19 20  1  0  0  0  0
 19  5  1  0  0  0  0
 21 20  1  0  0  0  0
 23 31  1  0  0  0  0
 23 33  1  0  0  0  0
 24 26  1  0  0  0  0
 25 24  2  0  0  0  0
 26 22  2  0  0  0  0
 27 32  2  0  0  0  0
 27 25  1  0  0  0  0
 28 22  1  0  0  0  0
 28 34  1  0  0  0  0
 29 25  1  0  0  0  0
 30 24  1  0  0  0  0
 30 31  2  0  0  0  0
 31 28  1  0  0  0  0
 32 30  1  0  0  0  0
 33 21  1  1  0  0  0
 33 34  1  0  0  0  0
M  END
>  <MODEL>
3

>  <REMARK>
 VINA RESULT:     -10.4      5.757      9.128
  Name = 
  5 active torsions:
  status: ('A' for Active; 'I' for Inactive)
    1  A    between atoms: C_3  and  C_25
    2  A    between atoms: N_8  and  C_17
    3  A    between atoms: N_8  and  C_18
    4  A    between atoms: C_10  and  C_17
    5  A    between atoms: C_18  and  C_30
                            x       y       z     vdW  Elec       q    Type
                         _______ _______ _______ _____ _____    ______ ____

>  <TORSDO>
F 5

$$$$
=
 OpenBabel11052415383D

 34 39  0  0  1  0  0  0  0  0999 V2000
  188.0170  177.9930  141.8460 C   0  0  0  0  0  0  0  0  0  0  0  0
  187.4350  177.7900  144.2230 C   0  0  0  0  0  0  0  0  0  0  0  0
  185.7380  178.4160  142.6240 C   0  0  0  0  0  3  0  0  0  0  0  0
  190.2470  177.6120  140.8960 O   0  0  0  0  0  1  0  0  0  0  0  0
  188.4200  178.2380  139.4620 C   0  0  0  0  0  0  0  0  0  0  0  0
  187.1160  178.5760  139.2940 N   0  0  0  0  0  0  0  0  0  0  0  0
  186.6690  178.3460  141.5880 C   0  0  0  0  0  0  0  0  0  0  0  0
  188.9030  177.9440  140.7430 C   0  0  0  0  0  0  0  0  0  0  0  0
  186.2710  178.6260  140.3220 N   0  0  0  0  0  0  0  0  0  0  0  0
  187.7900  177.5190  145.5480 C   0  0  0  0  0  3  0  0  0  0  0  0
  189.1010  177.1670  145.8720 C   0  0  0  0  0  0  0  0  0  0  0  0
  190.0650  177.0860  144.8590 C   0  0  0  0  0  3  0  0  0  0  0  0
  186.1170  178.1390  143.9330 C   0  0  0  0  0  3  0  0  0  0  0  0
  189.7170  177.3550  143.5340 C   0  0  0  0  0  3  0  0  0  0  0  0
  188.4030  177.7110  143.1880 C   0  0  0  0  0  0  0  0  0  0  0  0
  189.4470  176.8840  147.3010 C   0  0  0  0  0  3  0  0  0  0  0  0
  188.9100  177.9670  148.2180 C   0  0  0  0  0  1  0  0  0  0  0  0
  190.9470  176.7420  147.4820 C   0  0  0  0  0  1  0  0  0  0  0  0
  189.3260  178.2290  138.2770 C   0  0  0  0  0  2  0  0  0  0  0  0
  189.0290  177.0770  137.4460 N   0  0  0  0  0  2  0  0  0  0  0  0
  190.0330  176.0680  137.7500 C   0  0  0  0  0  2  0  0  0  0  0  0
  193.5630  173.7540  135.6040 C   0  0  0  0  0  3  0  0  0  0  0  0
  192.5350  176.3510  137.9990 C   0  0  0  0  0  2  0  0  0  0  0  0
  195.2890  173.8490  137.1640 C   0  0  0  0  0  0  0  0  0  0  0  0
  196.4280  173.6290  137.8840 C   0  0  0  0  0  0  0  0  0  0  0  0
  194.7760  173.2880  136.0420 N   0  0  0  0  0  0  0  0  0  0  0  0
  196.4470  174.4560  138.9600 N   0  0  0  0  0  0  0  0  0  0  0  0
  192.9120  174.7500  136.2930 N   0  0  0  0  0  0  0  0  0  0  0  0
  197.4400  172.6730  137.5870 N   0  0  0  0  0  1  0  0  0  0  0  0
  194.6260  174.8710  137.8840 C   0  0  0  0  0  0  0  0  0  0  0  0
  193.4070  175.3150  137.4130 C   0  0  0  0  0  0  0  0  0  0  0  0
  195.3490  175.2170  138.9630 N   0  0  0  0  0  0  0  0  0  0  0  0
  191.3440  176.3640  137.0270 C   0  0  1  0  0  3  0  0  0  0  0  0
  191.6290  175.3120  135.9380 C   0  0  0  0  0  2  0  0  0  0  0  0
  1 15  2  0  0  0  0
  2 10  1  0  0  0  0
  3 13  1  0  0  0  0
  5  8  2  0  0  0  0
  6  5  1  0  0  0  0
  6  9  2  0  0  0  0
  7  1  1  0  0  0  0
  7  3  2  0  0  0  0
  8  4  1  0  0  0  0
  8  1  1  0  0  0  0
  9  7  1  0  0  0  0
 10 11  2  0  0  0  0
 11 16  1  0  0  0  0
 12 11  1  0  0  0  0
 13  2  2  0  0  0  0
 14 12  2  0  0  0  0
 15 14  1  0  0  0  0
 15  2  1  0  0  0  0
 16 18  1  0  0  0  0
 16 17  1  0  0  0  0
 19  5  1  0  0  0  0
 20 21  1  0  0  0  0
 20 19  1  0  0  0  0
 22 26  2  0  0  0  0
 22 28  1  0  0  0  0
 24 30  1  0  0  0  0
 24 25  2  0  0  0  0
 25 27  1  0  0  0  0
 26 24  1  0  0  0  0
 27 32  2  0  0  0  0
 28 31  1  0  0  0  0
 29 25  1  0  0  0  0
 30 32  1  0  0  0  0
 31 30  2  0  0  0  0
 31 23  1  0  0  0  0
 33 21  1  1  0  0  0
 33 23  1  0  0  0  0
 34 28  1  0  0  0  0
 34 33  1  0  0  0  0
M  END
>  <MODEL>
4

>  <REMARK>
 VINA RESULT:     -10.4      2.963      5.408
  Name = 
  5 active torsions:
  status: ('A' for Active; 'I' for Inactive)
    1  A    between atoms: C_3  and  C_25
    2  A    between atoms: N_8  and  C_17
    3  A    between atoms: N_8  and  C_18
    4  A    between atoms: C_10  and  C_17
    5  A    between atoms: C_18  and  C_30
                            x       y       z     vdW  Elec       q    Type
                         _______ _______ _______ _____ _____    ______ ____

>  <TORSDO>
F 5

$$$$
=
 OpenBabel11052415383D

 34 39  0  0  1  0  0  0  0  0999 V2000
  189.6660  177.5470  142.4660 C   0  0  0  0  0  0  0  0  0  0  0  0
  188.8070  177.7040  144.7610 C   0  0  0  0  0  0  0  0  0  0  0  0
  191.1760  177.4260  144.3860 C   0  0  0  0  0  3  0  0  0  0  0  0
  188.3000  177.6420  140.4300 O   0  0  0  0  0  1  0  0  0  0  0  0
  190.6850  177.3760  140.2660 C   0  0  0  0  0  0  0  0  0  0  0  0
  191.8990  177.2450  140.8570 N   0  0  0  0  0  0  0  0  0  0  0  0
  190.9700  177.4130  143.0070 C   0  0  0  0  0  0  0  0  0  0  0  0
  189.5380  177.5230  141.0560 C   0  0  0  0  0  0  0  0  0  0  0  0
  192.0360  177.2650  142.1820 N   0  0  0  0  0  0  0  0  0  0  0  0
  187.7450  177.8470  145.6590 C   0  0  0  0  0  3  0  0  0  0  0  0
  186.4360  177.9810  145.1930 C   0  0  0  0  0  0  0  0  0  0  0  0
  186.1890  177.9720  143.8150 C   0  0  0  0  0  3  0  0  0  0  0  0
  190.1020  177.5720  145.2580 C   0  0  0  0  0  3  0  0  0  0  0  0
  187.2450  177.8310  142.9120 C   0  0  0  0  0  3  0  0  0  0  0  0
  188.5690  177.6940  143.3610 C   0  0  0  0  0  0  0  0  0  0  0  0
  185.3230  178.1300  146.1840 C   0  0  0  0  0  3  0  0  0  0  0  0
  184.1310  178.8370  145.5650 C   0  0  0  0  0  1  0  0  0  0  0  0
  185.7890  178.8750  147.4210 C   0  0  0  0  0  1  0  0  0  0  0  0
  190.5910  177.3140  138.7790 C   0  0  0  0  0  2  0  0  0  0  0  0
  191.1320  176.0520  138.3090 N   0  0  0  0  0  2  0  0  0  0  0  0
  191.1170  176.1020  136.8540 C   0  0  0  0  0  2  0  0  0  0  0  0
  194.7180  173.3360  138.1940 C   0  0  0  0  0  3  0  0  0  0  0  0
  193.3660  175.7370  135.7560 C   0  0  0  0  0  2  0  0  0  0  0  0
  196.5830  174.4360  137.3380 C   0  0  0  0  0  0  0  0  0  0  0  0
  197.8480  174.8800  137.0810 C   0  0  0  0  0  0  0  0  0  0  0  0
  196.0790  173.5040  138.1830 N   0  0  0  0  0  0  0  0  0  0  0  0
  197.7980  175.8650  136.1500 N   0  0  0  0  0  0  0  0  0  0  0  0
  193.9180  174.0940  137.3730 N   0  0  0  0  0  0  0  0  0  0  0  0
  199.0450  174.4130  137.6950 N   0  0  0  0  0  1  0  0  0  0  0  0
  195.7690  175.2250  136.4920 C   0  0  0  0  0  0  0  0  0  0  0  0
  194.4040  175.0280  136.5300 C   0  0  0  0  0  0  0  0  0  0  0  0
  196.5310  176.0800  135.7870 N   0  0  0  0  0  0  0  0  0  0  0  0
  192.0740  175.0740  136.2590 C   0  0  1  0  0  3  0  0  0  0  0  0
  192.4760  174.0170  137.3050 C   0  0  0  0  0  2  0  0  0  0  0  0
  1  7  1  0  0  0  0
  1 15  2  0  0  0  0
  2 13  2  0  0  0  0
  2 10  1  0  0  0  0
  3 13  1  0  0  0  0
  4  8  1  0  0  0  0
  5  6  1  0  0  0  0
  5  8  2  0  0  0  0
  6  9  2  0  0  0  0
  7  3  2  0  0  0  0
  8  1  1  0  0  0  0
  9  7  1  0  0  0  0
 11 10  2  0  0  0  0
 11 16  1  0  0  0  0
 12 11  1  0  0  0  0
 14 15  1  0  0  0  0
 14 12  2  0  0  0  0
 15  2  1  0  0  0  0
 16 18  1  0  0  0  0
 17 16  1  0  0  0  0
 19  5  1  0  0  0  0
 20 19  1  0  0  0  0
 21 20  1  0  0  0  0
 23 33  1  0  0  0  0
 23 31  1  0  0  0  0
 24 26  1  0  0  0  0
 25 24  2  0  0  0  0
 25 29  1  0  0  0  0
 26 22  2  0  0  0  0
 27 25  1  0  0  0  0
 28 22  1  0  0  0  0
 30 31  2  0  0  0  0
 30 24  1  0  0  0  0
 31 28  1  0  0  0  0
 32 27  2  0  0  0  0
 32 30  1  0  0  0  0
 33 21  1  1  0  0  0
 33 34  1  0  0  0  0
 34 28  1  0  0  0  0
M  END
>  <MODEL>
5

>  <REMARK>
 VINA RESULT:     -10.3      2.339      4.796
  Name = 
  5 active torsions:
  status: ('A' for Active; 'I' for Inactive)
    1  A    between atoms: C_3  and  C_25
    2  A    between atoms: N_8  and  C_17
    3  A    between atoms: N_8  and  C_18
    4  A    between atoms: C_10  and  C_17
    5  A    between atoms: C_18  and  C_30
                            x       y       z     vdW  Elec       q    Type
                         _______ _______ _______ _____ _____    ______ ____

>  <TORSDO>
F 5

$$$$
=
 OpenBabel11052415383D

 34 39  0  0  1  0  0  0  0  0999 V2000
  186.5660  178.2520  142.3410 C   0  0  0  0  0  0  0  0  0  0  0  0
  188.5010  177.7990  143.7820 C   0  0  0  0  0  0  0  0  0  0  0  0
  188.8320  178.1920  141.4230 C   0  0  0  0  0  3  0  0  0  0  0  0
  184.2310  178.3440  143.0890 O   0  0  0  0  0  1  0  0  0  0  0  0
  184.7670  178.7170  140.7740 C   0  0  0  0  0  0  0  0  0  0  0  0
  185.6810  178.7980  139.7740 N   0  0  0  0  0  0  0  0  0  0  0  0
  187.4590  178.3610  141.2450 C   0  0  0  0  0  0  0  0  0  0  0  0
  185.1860  178.4360  142.0800 C   0  0  0  0  0  0  0  0  0  0  0  0
  186.9820  178.6280  140.0040 N   0  0  0  0  0  0  0  0  0  0  0  0
  189.0490  177.5160  145.0370 C   0  0  0  0  0  3  0  0  0  0  0  0
  188.2250  177.3940  146.1580 C   0  0  0  0  0  0  0  0  0  0  0  0
  186.8410  177.5560  146.0190 C   0  0  0  0  0  3  0  0  0  0  0  0
  189.3500  177.9140  142.6840 C   0  0  0  0  0  3  0  0  0  0  0  0
  186.2880  177.8400  144.7690 C   0  0  0  0  0  3  0  0  0  0  0  0
  187.1000  177.9660  143.6290 C   0  0  0  0  0  0  0  0  0  0  0  0
  188.8450  177.0880  147.4860 C   0  0  0  0  0  3  0  0  0  0  0  0
  188.6290  178.2280  148.4650 C   0  0  0  0  0  1  0  0  0  0  0  0
  190.3270  176.7950  147.3430 C   0  0  0  0  0  1  0  0  0  0  0  0
  183.3210  178.8860  140.4500 C   0  0  0  0  0  2  0  0  0  0  0  0
  183.1460  178.9270  139.0100 N   0  0  0  0  0  2  0  0  0  0  0  0
  182.2510  177.8330  138.6630 C   0  0  0  0  0  2  0  0  0  0  0  0
  184.5630  173.8420  137.5920 C   0  0  0  0  0  3  0  0  0  0  0  0
  184.2040  177.4700  137.0960 C   0  0  0  0  0  2  0  0  0  0  0  0
  186.7040  174.5900  137.0660 C   0  0  0  0  0  0  0  0  0  0  0  0
  188.0440  174.6840  136.8210 C   0  0  0  0  0  0  0  0  0  0  0  0
  185.8890  173.5560  137.3880 N   0  0  0  0  0  0  0  0  0  0  0  0
  188.3650  175.9780  136.5710 N   0  0  0  0  0  0  0  0  0  0  0  0
  184.1030  175.1320  137.4700 N   0  0  0  0  0  0  0  0  0  0  0  0
  188.9800  173.6120  136.8410 N   0  0  0  0  0  1  0  0  0  0  0  0
  186.2440  175.9220  136.9430 C   0  0  0  0  0  0  0  0  0  0  0  0
  184.9030  176.1710  137.1560 C   0  0  0  0  0  0  0  0  0  0  0  0
  187.2690  176.7380  136.6430 N   0  0  0  0  0  0  0  0  0  0  0  0
  182.7570  177.0780  137.4370 C   0  0  1  0  0  3  0  0  0  0  0  0
  182.7370  175.5560  137.6730 C   0  0  0  0  0  2  0  0  0  0  0  0
  1 15  2  0  0  0  0
  2 10  1  0  0  0  0
  3 13  1  0  0  0  0
  5  8  2  0  0  0  0
  6  9  2  0  0  0  0
  6  5  1  0  0  0  0
  7  3  2  0  0  0  0
  7  1  1  0  0  0  0
  8  1  1  0  0  0  0
  8  4  1  0  0  0  0
  9  7  1  0  0  0  0
 10 11  2  0  0  0  0
 11 16  1  0  0  0  0
 12 11  1  0  0  0  0
 13  2  2  0  0  0  0
 14 12  2  0  0  0  0
 15  2  1  0  0  0  0
 15 14  1  0  0  0  0
 16 17  1  0  0  0  0
 18 16  1  0  0  0  0
 19  5  1  0  0  0  0
 20 19  1  0  0  0  0
 21 20  1  0  0  0  0
 23 31  1  0  0  0  0
 23 33  1  0  0  0  0
 24 26  1  0  0  0  0
 25 29  1  0  0  0  0
 25 24  2  0  0  0  0
 26 22  2  0  0  0  0
 27 32  2  0  0  0  0
 27 25  1  0  0  0  0
 28 22  1  0  0  0  0
 28 34  1  0  0  0  0
 30 24  1  0  0  0  0
 30 31  2  0  0  0  0
 31 28  1  0  0  0  0
 32 30  1  0  0  0  0
 33 34  1  0  0  0  0
 33 21  1  1  0  0  0
M  END
>  <MODEL>
6

>  <REMARK>
 VINA RESULT:     -10.3      3.680      6.775
  Name = 
  5 active torsions:
  status: ('A' for Active; 'I' for Inactive)
    1  A    between atoms: C_3  and  C_25
    2  A    between atoms: N_8  and  C_17
    3  A    between atoms: N_8  and  C_18
    4  A    between atoms: C_10  and  C_17
    5  A    between atoms: C_18  and  C_30
                            x       y       z     vdW  Elec       q    Type
                         _______ _______ _______ _____ _____    ______ ____

>  <TORSDO>
F 5

$$$$
=
 OpenBabel11052415383D

 34 39  0  0  1  0  0  0  0  0999 V2000
  186.8050  177.8230  144.6710 C   0  0  0  0  0  0  0  0  0  0  0  0
  184.5570  178.6280  145.2430 C   0  0  0  0  0  0  0  0  0  0  0  0
  186.1930  178.3090  146.9890 C   0  0  0  0  0  3  0  0  0  0  0  0
  187.5860  177.2830  142.4090 O   0  0  0  0  0  1  0  0  0  0  0  0
  189.0720  177.0370  144.2840 C   0  0  0  0  0  0  0  0  0  0  0  0
  189.3090  177.1160  145.6180 N   0  0  0  0  0  0  0  0  0  0  0  0
  187.1330  177.8860  146.0490 C   0  0  0  0  0  0  0  0  0  0  0  0
  187.8130  177.3830  143.7790 C   0  0  0  0  0  0  0  0  0  0  0  0
  188.3720  177.5280  146.4700 N   0  0  0  0  0  0  0  0  0  0  0  0
  183.2630  179.0020  144.8680 C   0  0  0  0  0  3  0  0  0  0  0  0
  182.8740  178.9620  143.5280 C   0  0  0  0  0  0  0  0  0  0  0  0
  183.7900  178.5420  142.5550 C   0  0  0  0  0  3  0  0  0  0  0  0
  184.9130  178.6790  146.5880 C   0  0  0  0  0  3  0  0  0  0  0  0
  185.0840  178.1680  142.9220 C   0  0  0  0  0  3  0  0  0  0  0  0
  185.4940  178.2010  144.2650 C   0  0  0  0  0  0  0  0  0  0  0  0
  181.4800  179.3690  143.1620 C   0  0  0  0  0  3  0  0  0  0  0  0
  180.4560  178.6260  144.0000 C   0  0  0  0  0  1  0  0  0  0  0  0
  181.2140  179.1390  141.6860 C   0  0  0  0  0  1  0  0  0  0  0  0
  190.1520  176.5390  143.3830 C   0  0  0  0  0  2  0  0  0  0  0  0
  190.3870  177.5040  142.3260 N   0  0  0  0  0  2  0  0  0  0  0  0
  190.8520  176.7560  141.1680 C   0  0  0  0  0  2  0  0  0  0  0  0
  187.0960  178.1020  138.6190 C   0  0  0  0  0  3  0  0  0  0  0  0
  190.4180  176.5230  138.6860 C   0  0  0  0  0  2  0  0  0  0  0  0
  187.0710  176.5780  136.8590 C   0  0  0  0  0  0  0  0  0  0  0  0
  186.7150  175.7940  135.8000 C   0  0  0  0  0  0  0  0  0  0  0  0
  186.4170  177.5210  137.5780 N   0  0  0  0  0  0  0  0  0  0  0  0
  187.7510  174.9800  135.4730 N   0  0  0  0  0  0  0  0  0  0  0  0
  188.3870  177.7240  138.9020 N   0  0  0  0  0  0  0  0  0  0  0  0
  185.4540  175.7940  135.1390 N   0  0  0  0  0  1  0  0  0  0  0  0
  188.3980  176.1780  137.1440 C   0  0  0  0  0  0  0  0  0  0  0  0
  189.0500  176.7840  138.1990 C   0  0  0  0  0  0  0  0  0  0  0  0
  188.7820  175.2120  136.2910 N   0  0  0  0  0  0  0  0  0  0  0  0
  190.5340  177.4950  139.8710 C   0  0  1  0  0  3  0  0  0  0  0  0
  189.1970  178.2520  139.9760 C   0  0  0  0  0  2  0  0  0  0  0  0
  1  7  1  0  0  0  0
  2 13  2  0  0  0  0
  4  8  1  0  0  0  0
  5  6  1  0  0  0  0
  6  9  2  0  0  0  0
  7  9  1  0  0  0  0
  7  3  2  0  0  0  0
  8  5  2  0  0  0  0
  8  1  1  0  0  0  0
 10  2  1  0  0  0  0
 11 10  2  0  0  0  0
 12 14  2  0  0  0  0
 12 11  1  0  0  0  0
 13  3  1  0  0  0  0
 14 15  1  0  0  0  0
 15  1  2  0  0  0  0
 15  2  1  0  0  0  0
 16 11  1  0  0  0  0
 16 17  1  0  0  0  0
 18 16  1  0  0  0  0
 19  5  1  0  0  0  0
 20 19  1  0  0  0  0
 21 20  1  0  0  0  0
 22 28  1  0  0  0  0
 23 33  1  0  0  0  0
 24 30  1  0  0  0  0
 24 26  1  0  0  0  0
 25 24  2  0  0  0  0
 26 22  2  0  0  0  0
 27 25  1  0  0  0  0
 27 32  2  0  0  0  0
 28 34  1  0  0  0  0
 29 25  1  0  0  0  0
 30 31  2  0  0  0  0
 31 23  1  0  0  0  0
 31 28  1  0  0  0  0
 32 30  1  0  0  0  0
 33 34  1  0  0  0  0
 33 21  1  1  0  0  0
M  END
>  <MODEL>
7

>  <REMARK>
 VINA RESULT:     -10.3      2.056      2.917
  Name = 
  5 active torsions:
  status: ('A' for Active; 'I' for Inactive)
    1  A    between atoms: C_3  and  C_25
    2  A    between atoms: N_8  and  C_17
    3  A    between atoms: N_8  and  C_18
    4  A    between atoms: C_10  and  C_17
    5  A    between atoms: C_18  and  C_30
                            x       y       z     vdW  Elec       q    Type
                         _______ _______ _______ _____ _____    ______ ____

>  <TORSDO>
F 5

$$$$
=
 OpenBabel11052415383D

 34 39  0  0  1  0  0  0  0  0999 V2000
  185.3900  178.4640  143.0970 C   0  0  0  0  0  0  0  0  0  0  0  0
  185.6610  178.1440  145.5170 C   0  0  0  0  0  0  0  0  0  0  0  0
  183.5080  178.7770  144.6270 C   0  0  0  0  0  3  0  0  0  0  0  0
  187.1650  178.1990  141.4240 O   0  0  0  0  0  1  0  0  0  0  0  0
  184.9450  178.8200  140.7350 C   0  0  0  0  0  0  0  0  0  0  0  0
  183.6570  179.1200  141.0390 N   0  0  0  0  0  0  0  0  0  0  0  0
  184.0280  178.7810  143.3330 C   0  0  0  0  0  0  0  0  0  0  0  0
  185.8440  178.4910  141.7560 C   0  0  0  0  0  0  0  0  0  0  0  0
  183.2150  179.0990  142.2950 N   0  0  0  0  0  0  0  0  0  0  0  0
  186.4540  177.8310  146.6250 C   0  0  0  0  0  3  0  0  0  0  0  0
  187.8030  177.5110  146.4630 C   0  0  0  0  0  0  0  0  0  0  0  0
  188.3620  177.5050  145.1790 C   0  0  0  0  0  3  0  0  0  0  0  0
  184.3180  178.4590  145.7120 C   0  0  0  0  0  3  0  0  0  0  0  0
  187.5760  177.8150  144.0680 C   0  0  0  0  0  3  0  0  0  0  0  0
  186.2170  178.1410  144.2100 C   0  0  0  0  0  0  0  0  0  0  0  0
  188.6230  177.1820  147.6720 C   0  0  0  0  0  3  0  0  0  0  0  0
  188.5670  178.3040  148.6920 C   0  0  0  0  0  1  0  0  0  0  0  0
  190.0630  176.8900  147.2930 C   0  0  0  0  0  1  0  0  0  0  0  0
  185.3900  178.8910  139.3130 C   0  0  0  0  0  2  0  0  0  0  0  0
  184.5510  178.0330  138.4970 N   0  0  0  0  0  2  0  0  0  0  0  0
  185.4390  177.2710  137.6330 C   0  0  0  0  0  2  0  0  0  0  0  0
  189.3300  177.2260  134.9340 C   0  0  0  0  0  3  0  0  0  0  0  0
  187.8630  176.9890  138.3000 C   0  0  0  0  0  2  0  0  0  0  0  0
  190.7950  175.8710  136.1330 C   0  0  0  0  0  0  0  0  0  0  0  0
  191.8180  175.0520  136.5150 C   0  0  0  0  0  0  0  0  0  0  0  0
  190.4770  176.4760  134.9630 N   0  0  0  0  0  0  0  0  0  0  0  0
  191.6460  174.6940  137.8130 N   0  0  0  0  0  0  0  0  0  0  0  0
  188.5490  177.3440  136.0590 N   0  0  0  0  0  0  0  0  0  0  0  0
  192.8950  174.6120  135.6960 N   0  0  0  0  0  1  0  0  0  0  0  0
  189.9970  175.9800  137.2960 C   0  0  0  0  0  0  0  0  0  0  0  0
  188.8490  176.7430  137.2290 C   0  0  0  0  0  0  0  0  0  0  0  0
  190.5350  175.2590  138.2940 N   0  0  0  0  0  0  0  0  0  0  0  0
  186.8340  177.8890  137.5970 C   0  0  1  0  0  3  0  0  0  0  0  0
  187.3160  178.0920  136.1480 C   0  0  0  0  0  2  0  0  0  0  0  0
  1  7  1  0  0  0  0
  1 15  2  0  0  0  0
  2 13  2  0  0  0  0
  2 10  1  0  0  0  0
  3 13  1  0  0  0  0
  4  8  1  0  0  0  0
  5  6  1  0  0  0  0
  5  8  2  0  0  0  0
  6  9  2  0  0  0  0
  7  3  2  0  0  0  0
  8  1  1  0  0  0  0
  9  7  1  0  0  0  0
 11 10  2  0  0  0  0
 11 16  1  0  0  0  0
 12 11  1  0  0  0  0
 14 15  1  0  0  0  0
 14 12  2  0  0  0  0
 15  2  1  0  0  0  0
 16 17  1  0  0  0  0
 18 16  1  0  0  0  0
 19  5  1  0  0  0  0
 20 19  1  0  0  0  0
 21 20  1  0  0  0  0
 22 26  2  0  0  0  0
 22 28  1  0  0  0  0
 24 25  2  0  0  0  0
 24 30  1  0  0  0  0
 25 27  1  0  0  0  0
 26 24  1  0  0  0  0
 27 32  2  0  0  0  0
 28 34  1  0  0  0  0
 28 31  1  0  0  0  0
 29 25  1  0  0  0  0
 30 32  1  0  0  0  0
 31 30  2  0  0  0  0
 31 23  1  0  0  0  0
 33 21  1  6  0  0  0
 33 23  1  0  0  0  0
 34 33  1  0  0  0  0
M  END
>  <MODEL>
8

>  <REMARK>
 VINA RESULT:     -10.3      2.998      5.267
  Name = 
  5 active torsions:
  status: ('A' for Active; 'I' for Inactive)
    1  A    between atoms: C_3  and  C_25
    2  A    between atoms: N_8  and  C_17
    3  A    between atoms: N_8  and  C_18
    4  A    between atoms: C_10  and  C_17
    5  A    between atoms: C_18  and  C_30
                            x       y       z     vdW  Elec       q    Type
                         _______ _______ _______ _____ _____    ______ ____

>  <TORSDO>
F 5

$$$$
=
 OpenBabel11052415383D

 34 39  0  0  1  0  0  0  0  0999 V2000
  185.7580  178.2440  144.6390 C   0  0  0  0  0  0  0  0  0  0  0  0
  187.7490  177.8920  146.0320 C   0  0  0  0  0  0  0  0  0  0  0  0
  185.6900  178.6340  147.0520 C   0  0  0  0  0  3  0  0  0  0  0  0
  185.6500  177.9080  142.2100 O   0  0  0  0  0  1  0  0  0  0  0  0
  183.6980  178.6390  143.4110 C   0  0  0  0  0  0  0  0  0  0  0  0
  183.0950  178.9980  144.5730 N   0  0  0  0  0  0  0  0  0  0  0  0
  185.0560  178.6240  145.8100 C   0  0  0  0  0  0  0  0  0  0  0  0
  185.0460  178.2600  143.4150 C   0  0  0  0  0  0  0  0  0  0  0  0
  183.7510  178.9880  145.7320 N   0  0  0  0  0  0  0  0  0  0  0  0
  189.0930  177.5330  146.1720 C   0  0  0  0  0  3  0  0  0  0  0  0
  189.8440  177.1510  145.0590 C   0  0  0  0  0  0  0  0  0  0  0  0
  189.2420  177.1290  143.7940 C   0  0  0  0  0  3  0  0  0  0  0  0
  187.0280  178.2690  147.1630 C   0  0  0  0  0  3  0  0  0  0  0  0
  187.9000  177.4850  143.6480 C   0  0  0  0  0  3  0  0  0  0  0  0
  187.1280  177.8730  144.7560 C   0  0  0  0  0  0  0  0  0  0  0  0
  191.2810  176.7750  145.2450 C   0  0  0  0  0  3  0  0  0  0  0  0
  191.6810  175.6580  144.2990 C   0  0  0  0  0  1  0  0  0  0  0  0
  191.5580  176.3680  146.6810 C   0  0  0  0  0  1  0  0  0  0  0  0
  182.9200  178.7000  142.1410 C   0  0  0  0  0  2  0  0  0  0  0  0
  181.6260  179.3080  142.3910 N   0  0  0  0  0  2  0  0  0  0  0  0
  180.6320  178.2540  142.2580 C   0  0  0  0  0  2  0  0  0  0  0  0
  181.1720  179.2440  137.6590 C   0  0  0  0  0  3  0  0  0  0  0  0
  179.4090  179.9340  140.8140 C   0  0  0  0  0  2  0  0  0  0  0  0
  180.5410  181.4800  137.5170 C   0  0  0  0  0  0  0  0  0  0  0  0
  180.3570  182.7750  137.1250 C   0  0  0  0  0  0  0  0  0  0  0  0
  181.1590  180.4170  136.9480 N   0  0  0  0  0  0  0  0  0  0  0  0
  179.6850  183.4470  138.0940 N   0  0  0  0  0  0  0  0  0  0  0  0
  180.5770  179.1750  138.8960 N   0  0  0  0  0  0  0  0  0  0  0  0
  180.8070  183.3580  135.9070 N   0  0  0  0  0  1  0  0  0  0  0  0
  179.9300  181.4230  138.7920 C   0  0  0  0  0  0  0  0  0  0  0  0
  179.9630  180.2260  139.4770 C   0  0  0  0  0  0  0  0  0  0  0  0
  179.4220  182.6250  139.1140 N   0  0  0  0  0  0  0  0  0  0  0  0
  179.7820  178.4550  141.0060 C   0  0  1  0  0  3  0  0  0  0  0  0
  180.5380  178.0040  139.7420 C   0  0  0  0  0  2  0  0  0  0  0  0
  1 15  2  0  0  0  0
  1  7  1  0  0  0  0
  2 10  1  0  0  0  0
  2 13  2  0  0  0  0
  3 13  1  0  0  0  0
  4  8  1  0  0  0  0
  5  8  2  0  0  0  0
  5  6  1  0  0  0  0
  6  9  2  0  0  0  0
  7  3  2  0  0  0  0
  8  1  1  0  0  0  0
  9  7  1  0  0  0  0
 11 16  1  0  0  0  0
 11 10  2  0  0  0  0
 12 11  1  0  0  0  0
 14 12  2  0  0  0  0
 14 15  1  0  0  0  0
 15  2  1  0  0  0  0
 16 18  1  0  0  0  0
 17 16  1  0  0  0  0
 19 20  1  0  0  0  0
 19  5  1  0  0  0  0
 21 20  1  0  0  0  0
 22 28  1  0  0  0  0
 23 33  1  0  0  0  0
 24 30  1  0  0  0  0
 25 24  2  0  0  0  0
 25 27  1  0  0  0  0
 26 24  1  0  0  0  0
 26 22  2  0  0  0  0
 27 32  2  0  0  0  0
 28 31  1  0  0  0  0
 28 34  1  0  0  0  0
 29 25  1  0  0  0  0
 30 32  1  0  0  0  0
 30 31  2  0  0  0  0
 31 23  1  0  0  0  0
 33 21  1  1  0  0  0
 34 33  1  0  0  0  0
M  END
>  <MODEL>
9

>  <REMARK>
 VINA RESULT:     -10.2      5.848      9.512
  Name = 
  5 active torsions:
  status: ('A' for Active; 'I' for Inactive)
    1  A    between atoms: C_3  and  C_25
    2  A    between atoms: N_8  and  C_17
    3  A    between atoms: N_8  and  C_18
    4  A    between atoms: C_10  and  C_17
    5  A    between atoms: C_18  and  C_30
                            x       y       z     vdW  Elec       q    Type
                         _______ _______ _______ _____ _____    ______ ____

>  <TORSDO>
F 5

$$$$
