=
 OpenBabel11052414103D

 34 38  0  0  1  0  0  0  0  0999 V2000
  189.9670  177.1360  146.3290 C   0  0  0  0  0  0  0  0  0  0  0  0
  191.5900  176.2320  144.7630 C   0  0  0  0  0  0  0  0  0  0  0  0
  189.7110  177.7860  143.9170 C   0  0  2  0  0  3  0  0  0  0  0  0
  189.0390  177.4120  141.5280 C   0  0  0  0  0  0  0  0  0  0  0  0
  191.7180  175.6620  147.1190 C   0  0  0  0  0  3  0  0  0  0  0  0
  192.2130  175.5550  145.8180 C   0  0  0  0  0  3  0  0  0  0  0  0
  190.4300  177.0080  145.0060 C   0  0  0  0  0  0  0  0  0  0  0  0
  190.6040  176.4630  147.3770 C   0  0  0  0  0  3  0  0  0  0  0  0
  188.2120  177.8970  144.1810 C   0  0  0  0  0  0  0  0  0  0  0  0
  188.8320  178.0590  146.6370 C   0  0  0  0  0  2  0  0  0  0  0  0
  192.1370  176.1330  143.5260 F   0  0  0  0  0  0  0  0  0  0  0  0
  187.8190  177.7570  141.7940 N   0  0  0  0  0  0  0  0  0  0  0  0
  187.3480  177.9790  143.1360 C   0  0  0  0  0  0  0  0  0  0  0  0
  189.9780  177.2470  142.5870 N   0  0  0  0  0  2  0  0  0  0  0  0
  187.7140  177.9170  145.6090 C   0  0  0  0  0  2  0  0  0  0  0  0
  183.9720  178.8110  144.6800 C   0  0  0  0  0  0  0  0  0  0  0  0
  183.1450  178.7680  143.5550 C   0  0  0  0  0  3  0  0  0  0  0  0
  185.8920  178.2210  143.3050 C   0  0  0  0  0  0  0  0  0  0  0  0
  183.6870  178.4620  142.3040 C   0  0  0  0  0  3  0  0  0  0  0  0
  185.3380  178.5460  144.5550 C   0  0  0  0  0  3  0  0  0  0  0  0
  185.0540  178.1960  142.1790 C   0  0  0  0  0  3  0  0  0  0  0  0
  183.4370  179.1190  145.9230 O   0  0  0  0  0  1  0  0  0  0  0  0
  189.4310  177.0850  140.1290 C   0  0  0  0  0  2  0  0  0  0  0  0
  188.9890  179.1500  139.0260 O   0  0  0  0  0  0  0  0  0  0  0  0
  187.5590  177.3890  138.4660 N   0  0  0  0  0  2  0  0  0  0  0  0
  188.6690  177.9410  139.1750 C   0  0  0  0  0  0  0  0  0  0  0  0
  186.7120  178.1930  137.6010 C   0  0  0  0  0  2  0  0  0  0  0  0
  184.8730  179.8330  139.0850 O   0  0  0  0  0  1  0  0  0  0  0  0
  185.2840  177.8120  137.8020 C   0  0  0  0  0  0  0  0  0  0  0  0
  184.4130  178.6490  138.5200 C   0  0  0  0  0  0  0  0  0  0  0  0
  182.5910  177.1030  138.1060 C   0  0  0  0  0  3  0  0  0  0  0  0
  183.4560  176.2730  137.3870 C   0  0  0  0  0  3  0  0  0  0  0  0
  184.8000  176.6270  137.2330 C   0  0  0  0  0  3  0  0  0  0  0  0
  183.0690  178.2890  138.6710 C   0  0  0  0  0  3  0  0  0  0  0  0
  1 10  1  0  0  0  0
  1  8  1  0  0  0  0
  2  7  1  0  0  0  0
  2  6  2  0  0  0  0
  3 14  1  6  0  0  0
  3  9  1  0  0  0  0
  3  7  1  0  0  0  0
  4 12  2  0  0  0  0
  4 14  1  0  0  0  0
  5  8  2  0  0  0  0
  6  5  1  0  0  0  0
  7  1  2  0  0  0  0
  9 15  1  0  0  0  0
 11  2  1  0  0  0  0
 12 13  1  0  0  0  0
 13 18  1  0  0  0  0
 13  9  2  0  0  0  0
 15 10  1  0  0  0  0
 16 22  1  0  0  0  0
 17 16  2  0  0  0  0
 18 20  2  0  0  0  0
 19 17  1  0  0  0  0
 20 16  1  0  0  0  0
 21 19  2  0  0  0  0
 21 18  1  0  0  0  0
 23  4  1  0  0  0  0
 24 26  2  0  0  0  0
 25 26  1  0  0  0  0
 26 23  1  0  0  0  0
 27 29  1  0  0  0  0
 27 25  1  0  0  0  0
 29 30  1  0  0  0  0
 30 34  2  0  0  0  0
 30 28  1  0  0  0  0
 31 34  1  0  0  0  0
 32 31  2  0  0  0  0
 33 32  1  0  0  0  0
 33 29  2  0  0  0  0
M  END
>  <MODEL>
1

>  <REMARK>
 VINA RESULT:     -10.9      0.000      0.000
  Name = 
  5 active torsions:
  status: ('A' for Active; 'I' for Inactive)
    1  A    between atoms: C_3  and  C_13
    2  A    between atoms: C_3  and  N_17
    3  A    between atoms: C_5  and  C_18
    4  A    between atoms: C_12  and  C_28
    5  A    between atoms: C_18  and  C_29
                            x       y       z     vdW  Elec       q    Type
                         _______ _______ _______ _____ _____    ______ ____

>  <TORSDO>
F 5

$$$$
=
 OpenBabel11052414103D

 34 38  0  0  1  0  0  0  0  0999 V2000
  189.8280  176.3110  137.3140 C   0  0  0  0  0  0  0  0  0  0  0  0
  187.5100  176.6950  136.6990 C   0  0  0  0  0  0  0  0  0  0  0  0
  188.5410  177.9700  138.6920 C   0  0  2  0  0  3  0  0  0  0  0  0
  186.8970  178.6570  140.4590 C   0  0  0  0  0  0  0  0  0  0  0  0
  188.8540  175.1010  135.4570 C   0  0  0  0  0  3  0  0  0  0  0  0
  187.6410  175.7600  135.6660 C   0  0  0  0  0  3  0  0  0  0  0  0
  188.6010  176.9560  137.5620 C   0  0  0  0  0  0  0  0  0  0  0  0
  189.9510  175.3860  136.2720 C   0  0  0  0  0  3  0  0  0  0  0  0
  189.4350  177.5800  139.8650 C   0  0  0  0  0  0  0  0  0  0  0  0
  191.0360  176.6700  138.1190 C   0  0  0  0  0  2  0  0  0  0  0  0
  186.3250  177.3420  136.8300 F   0  0  0  0  0  0  0  0  0  0  0  0
  187.8000  178.5290  141.3800 N   0  0  0  0  0  0  0  0  0  0  0  0
  189.0940  177.9530  141.1270 C   0  0  0  0  0  0  0  0  0  0  0  0
  187.1720  178.2250  139.1300 N   0  0  0  0  0  2  0  0  0  0  0  0
  190.6950  176.7850  139.6000 C   0  0  0  0  0  2  0  0  0  0  0  0
  191.3300  176.2780  143.7080 C   0  0  0  0  0  0  0  0  0  0  0  0
  191.7120  177.3760  144.4840 C   0  0  0  0  0  3  0  0  0  0  0  0
  189.9720  177.7300  142.3040 C   0  0  0  0  0  0  0  0  0  0  0  0
  191.2370  178.6510  144.1670 C   0  0  0  0  0  3  0  0  0  0  0  0
  190.4710  176.4550  142.6210 C   0  0  0  0  0  3  0  0  0  0  0  0
  190.3760  178.8270  143.0800 C   0  0  0  0  0  3  0  0  0  0  0  0
  191.8040  175.0110  144.0180 O   0  0  0  0  0  1  0  0  0  0  0  0
  185.5390  179.1540  140.8140 C   0  0  0  0  0  2  0  0  0  0  0  0
  184.1940  177.6030  142.0230 O   0  0  0  0  0  0  0  0  0  0  0  0
  185.6030  178.9370  143.3260 N   0  0  0  0  0  2  0  0  0  0  0  0
  185.0720  178.5050  142.0720 C   0  0  0  0  0  0  0  0  0  0  0  0
  185.1170  178.4180  144.5940 C   0  0  0  0  0  2  0  0  0  0  0  0
  185.1820  179.1520  147.3740 O   0  0  0  0  0  1  0  0  0  0  0  0
  186.2740  178.0960  145.4790 C   0  0  0  0  0  0  0  0  0  0  0  0
  186.2600  178.4580  146.8370 C   0  0  0  0  0  0  0  0  0  0  0  0
  188.4300  177.4180  147.1340 C   0  0  0  0  0  3  0  0  0  0  0  0
  188.4420  177.0530  145.7840 C   0  0  0  0  0  3  0  0  0  0  0  0
  187.3660  177.3890  144.9580 C   0  0  0  0  0  3  0  0  0  0  0  0
  187.3410  178.1190  147.6590 C   0  0  0  0  0  3  0  0  0  0  0  0
  1  7  1  0  0  0  0
  1 10  1  0  0  0  0
  2 11  1  0  0  0  0
  2  7  2  0  0  0  0
  3  7  1  6  0  0  0
  3 14  1  0  0  0  0
  3  9  1  0  0  0  0
  4 23  1  0  0  0  0
  4 12  2  0  0  0  0
  5  6  2  0  0  0  0
  5  8  1  0  0  0  0
  6  2  1  0  0  0  0
  8  1  2  0  0  0  0
  9 13  2  0  0  0  0
 10 15  1  0  0  0  0
 13 12  1  0  0  0  0
 13 18  1  0  0  0  0
 14  4  1  0  0  0  0
 15  9  1  0  0  0  0
 16 22  1  0  0  0  0
 16 17  1  0  0  0  0
 18 20  1  0  0  0  0
 18 21  2  0  0  0  0
 19 17  2  0  0  0  0
 20 16  2  0  0  0  0
 21 19  1  0  0  0  0
 23 26  1  0  0  0  0
 24 26  2  0  0  0  0
 25 27  1  0  0  0  0
 26 25  1  0  0  0  0
 27 29  1  0  0  0  0
 29 30  1  0  0  0  0
 30 28  1  0  0  0  0
 30 34  2  0  0  0  0
 31 34  1  0  0  0  0
 32 31  2  0  0  0  0
 33 29  2  0  0  0  0
 33 32  1  0  0  0  0
M  END
>  <MODEL>
2

>  <REMARK>
 VINA RESULT:     -10.5      2.796      7.696
  Name = 
  5 active torsions:
  status: ('A' for Active; 'I' for Inactive)
    1  A    between atoms: C_3  and  C_13
    2  A    between atoms: C_3  and  N_17
    3  A    between atoms: C_5  and  C_18
    4  A    between atoms: C_12  and  C_28
    5  A    between atoms: C_18  and  C_29
                            x       y       z     vdW  Elec       q    Type
                         _______ _______ _______ _____ _____    ______ ____

>  <TORSDO>
F 5

$$$$
=
 OpenBabel11052414103D

 34 38  0  0  1  0  0  0  0  0999 V2000
  189.2020  177.3160  146.2900 C   0  0  0  0  0  0  0  0  0  0  0  0
  187.0490  178.0960  147.1010 C   0  0  0  0  0  0  0  0  0  0  0  0
  187.2520  177.1250  144.7180 C   0  0  2  0  0  3  0  0  0  0  0  0
  185.5670  178.0070  143.0810 C   0  0  0  0  0  0  0  0  0  0  0  0
  189.0140  178.2450  148.5180 C   0  0  0  0  0  3  0  0  0  0  0  0
  187.6480  178.4510  148.3150 C   0  0  0  0  0  3  0  0  0  0  0  0
  187.8330  177.5520  146.0560 C   0  0  0  0  0  0  0  0  0  0  0  0
  189.7870  177.6640  147.5110 C   0  0  0  0  0  3  0  0  0  0  0  0
  188.2500  177.2910  143.5760 C   0  0  0  0  0  0  0  0  0  0  0  0
  190.0260  176.6140  145.2580 C   0  0  0  0  0  2  0  0  0  0  0  0
  185.7100  178.2740  146.9710 F   0  0  0  0  0  0  0  0  0  0  0  0
  186.4170  177.8880  142.1090 N   0  0  0  0  0  0  0  0  0  0  0  0
  187.8010  177.5590  142.3220 C   0  0  0  0  0  0  0  0  0  0  0  0
  185.9920  177.8010  144.4250 N   0  0  0  0  0  2  0  0  0  0  0  0
  189.7290  177.1490  143.8620 C   0  0  0  0  0  2  0  0  0  0  0  0
  189.2940  178.4940  138.9500 C   0  0  0  0  0  0  0  0  0  0  0  0
  190.4640  177.7290  138.9530 C   0  0  0  0  0  3  0  0  0  0  0  0
  188.6930  177.6040  141.1340 C   0  0  0  0  0  0  0  0  0  0  0  0
  190.7560  176.9110  140.0470 C   0  0  0  0  0  3  0  0  0  0  0  0
  188.4170  178.4370  140.0360 C   0  0  0  0  0  3  0  0  0  0  0  0
  189.8790  176.8530  141.1340 C   0  0  0  0  0  3  0  0  0  0  0  0
  189.0020  179.3110  137.8670 O   0  0  0  0  0  1  0  0  0  0  0  0
  184.1770  178.4630  142.8010 C   0  0  0  0  0  2  0  0  0  0  0  0
  184.4590  179.6870  140.7770 O   0  0  0  0  0  0  0  0  0  0  0  0
  183.2570  177.6930  140.5830 N   0  0  0  0  0  2  0  0  0  0  0  0
  183.9920  178.6590  141.3340 C   0  0  0  0  0  0  0  0  0  0  0  0
  182.9530  177.8750  139.1730 C   0  0  0  0  0  2  0  0  0  0  0  0
  182.5790  175.1610  138.2980 O   0  0  0  0  0  1  0  0  0  0  0  0
  183.9640  177.1550  138.3450 C   0  0  0  0  0  0  0  0  0  0  0  0
  183.7370  175.8340  137.9240 C   0  0  0  0  0  0  0  0  0  0  0  0
  185.8490  175.8530  136.7340 C   0  0  0  0  0  3  0  0  0  0  0  0
  186.0740  177.1690  137.1490 C   0  0  0  0  0  3  0  0  0  0  0  0
  185.1320  177.8210  137.9510 C   0  0  0  0  0  3  0  0  0  0  0  0
  184.6830  175.1870  137.1210 C   0  0  0  0  0  3  0  0  0  0  0  0
  1  8  1  0  0  0  0
  2  6  2  0  0  0  0
  3  9  1  6  0  0  0
  3  7  1  0  0  0  0
  4 14  1  0  0  0  0
  6  5  1  0  0  0  0
  7  1  2  0  0  0  0
  7  2  1  0  0  0  0
  8  5  2  0  0  0  0
  9 15  1  0  0  0  0
 10  1  1  0  0  0  0
 11  2  1  0  0  0  0
 12 13  1  0  0  0  0
 12  4  2  0  0  0  0
 13  9  2  0  0  0  0
 14  3  1  0  0  0  0
 15 10  1  0  0  0  0
 16 17  2  0  0  0  0
 16 20  1  0  0  0  0
 17 19  1  0  0  0  0
 18 13  1  0  0  0  0
 19 21  2  0  0  0  0
 20 18  2  0  0  0  0
 21 18  1  0  0  0  0
 22 16  1  0  0  0  0
 23  4  1  0  0  0  0
 24 26  2  0  0  0  0
 25 26  1  0  0  0  0
 26 23  1  0  0  0  0
 27 25  1  0  0  0  0
 29 27  1  0  0  0  0
 30 28  1  0  0  0  0
 30 29  2  0  0  0  0
 31 34  2  0  0  0  0
 31 32  1  0  0  0  0
 32 33  2  0  0  0  0
 33 29  1  0  0  0  0
 34 30  1  0  0  0  0
M  END
>  <MODEL>
3

>  <REMARK>
 VINA RESULT:     -10.2      2.190      4.766
  Name = 
  5 active torsions:
  status: ('A' for Active; 'I' for Inactive)
    1  A    between atoms: C_3  and  C_13
    2  A    between atoms: C_3  and  N_17
    3  A    between atoms: C_5  and  C_18
    4  A    between atoms: C_12  and  C_28
    5  A    between atoms: C_18  and  C_29
                            x       y       z     vdW  Elec       q    Type
                         _______ _______ _______ _____ _____    ______ ____

>  <TORSDO>
F 5

$$$$
=
 OpenBabel11052414103D

 34 38  0  0  1  0  0  0  0  0999 V2000
  182.9910  178.8190  140.7490 C   0  0  0  0  0  0  0  0  0  0  0  0
  181.6260  178.6860  142.7540 C   0  0  0  0  0  0  0  0  0  0  0  0
  184.1650  179.1060  142.9510 C   0  0  2  0  0  3  0  0  0  0  0  0
  185.1960  178.2980  145.0910 C   0  0  0  0  0  0  0  0  0  0  0  0
  180.6130  178.4050  140.5660 C   0  0  0  0  0  3  0  0  0  0  0  0
  180.4980  178.4570  141.9560 C   0  0  0  0  0  3  0  0  0  0  0  0
  182.8990  178.8360  142.1540 C   0  0  0  0  0  0  0  0  0  0  0  0
  181.8560  178.6000  139.9620 C   0  0  0  0  0  3  0  0  0  0  0  0
  185.4030  178.5130  142.2860 C   0  0  0  0  0  0  0  0  0  0  0  0
  184.2970  179.1140  140.0820 C   0  0  0  0  0  2  0  0  0  0  0  0
  181.4540  178.7740  144.0960 F   0  0  0  0  0  0  0  0  0  0  0  0
  186.3120  178.0430  144.4820 N   0  0  0  0  0  0  0  0  0  0  0  0
  186.4500  178.1060  143.0510 C   0  0  0  0  0  0  0  0  0  0  0  0
  184.0450  178.6690  144.3380 N   0  0  0  0  0  2  0  0  0  0  0  0
  185.4450  178.3920  140.7780 C   0  0  0  0  0  2  0  0  0  0  0  0
  189.5790  176.0500  142.3760 C   0  0  0  0  0  0  0  0  0  0  0  0
  190.1290  176.7470  141.2960 C   0  0  0  0  0  3  0  0  0  0  0  0
  187.7400  177.6420  142.4790 C   0  0  0  0  0  0  0  0  0  0  0  0
  189.4840  177.8820  140.7990 C   0  0  0  0  0  3  0  0  0  0  0  0
  188.3880  176.4910  142.9600 C   0  0  0  0  0  3  0  0  0  0  0  0
  188.2930  178.3230  141.3840 C   0  0  0  0  0  3  0  0  0  0  0  0
  190.2150  174.9200  142.8690 O   0  0  0  0  0  1  0  0  0  0  0  0
  185.0910  178.1020  146.5630 C   0  0  0  0  0  2  0  0  0  0  0  0
  186.5960  179.5710  147.6820 O   0  0  0  0  0  0  0  0  0  0  0  0
  187.4180  177.4240  147.2640 N   0  0  0  0  0  2  0  0  0  0  0  0
  186.3960  178.4200  147.2130 C   0  0  0  0  0  0  0  0  0  0  0  0
  188.7440  177.7000  147.7890 C   0  0  0  0  0  2  0  0  0  0  0  0
  190.9280  175.8350  147.6250 O   0  0  0  0  0  1  0  0  0  0  0  0
  189.7310  177.7210  146.6710 C   0  0  0  0  0  0  0  0  0  0  0  0
  190.7750  176.7820  146.6180 C   0  0  0  0  0  0  0  0  0  0  0  0
  191.5290  177.7400  144.5230 C   0  0  0  0  0  3  0  0  0  0  0  0
  190.4870  178.6720  144.5720 C   0  0  0  0  0  3  0  0  0  0  0  0
  189.5890  178.6620  145.6420 C   0  0  0  0  0  3  0  0  0  0  0  0
  191.6720  176.7970  145.5440 C   0  0  0  0  0  3  0  0  0  0  0  0
  1  7  1  0  0  0  0
  2 11  1  0  0  0  0
  3  7  1  6  0  0  0
  3 14  1  0  0  0  0
  4 23  1  0  0  0  0
  5  6  2  0  0  0  0
  6  2  1  0  0  0  0
  7  2  2  0  0  0  0
  8  5  1  0  0  0  0
  8  1  2  0  0  0  0
  9  3  1  0  0  0  0
  9 13  2  0  0  0  0
 10  1  1  0  0  0  0
 10 15  1  0  0  0  0
 12  4  2  0  0  0  0
 13 12  1  0  0  0  0
 14  4  1  0  0  0  0
 15  9  1  0  0  0  0
 16 22  1  0  0  0  0
 16 20  1  0  0  0  0
 17 16  2  0  0  0  0
 18 20  2  0  0  0  0
 18 13  1  0  0  0  0
 19 17  1  0  0  0  0
 19 21  2  0  0  0  0
 21 18  1  0  0  0  0
 23 26  1  0  0  0  0
 25 27  1  0  0  0  0
 26 25  1  0  0  0  0
 26 24  2  0  0  0  0
 29 27  1  0  0  0  0
 30 29  1  0  0  0  0
 30 28  1  0  0  0  0
 31 32  2  0  0  0  0
 31 34  1  0  0  0  0
 32 33  1  0  0  0  0
 33 29  2  0  0  0  0
 34 30  2  0  0  0  0
M  END
>  <MODEL>
4

>  <REMARK>
 VINA RESULT:     -10.1      3.395      8.564
  Name = 
  5 active torsions:
  status: ('A' for Active; 'I' for Inactive)
    1  A    between atoms: C_3  and  C_13
    2  A    between atoms: C_3  and  N_17
    3  A    between atoms: C_5  and  C_18
    4  A    between atoms: C_12  and  C_28
    5  A    between atoms: C_18  and  C_29
                            x       y       z     vdW  Elec       q    Type
                         _______ _______ _______ _____ _____    ______ ____

>  <TORSDO>
F 5

$$$$
=
 OpenBabel11052414103D

 34 38  0  0  1  0  0  0  0  0999 V2000
  189.0670  177.3480  146.3260 C   0  0  0  0  0  0  0  0  0  0  0  0
  186.9360  178.2160  147.1070 C   0  0  0  0  0  0  0  0  0  0  0  0
  187.1420  177.2710  144.7140 C   0  0  2  0  0  3  0  0  0  0  0  0
  185.5320  178.2540  143.0590 C   0  0  0  0  0  0  0  0  0  0  0  0
  188.8780  178.2530  148.5630 C   0  0  0  0  0  3  0  0  0  0  0  0
  187.5270  178.5260  148.3370 C   0  0  0  0  0  3  0  0  0  0  0  0
  187.7160  177.6520  146.0690 C   0  0  0  0  0  0  0  0  0  0  0  0
  189.6430  177.6510  147.5630 C   0  0  0  0  0  3  0  0  0  0  0  0
  188.1690  177.4060  143.5940 C   0  0  0  0  0  0  0  0  0  0  0  0
  189.8770  176.6230  145.2990 C   0  0  0  0  0  2  0  0  0  0  0  0
  185.6100  178.4580  146.9540 F   0  0  0  0  0  0  0  0  0  0  0  0
  186.3940  178.1090  142.1020 N   0  0  0  0  0  0  0  0  0  0  0  0
  187.7580  177.7130  142.3350 C   0  0  0  0  0  0  0  0  0  0  0  0
  185.9200  178.0090  144.4070 N   0  0  0  0  0  2  0  0  0  0  0  0
  189.6340  177.1910  143.9060 C   0  0  0  0  0  2  0  0  0  0  0  0
  189.3220  178.5800  138.9780 C   0  0  0  0  0  0  0  0  0  0  0  0
  190.4890  177.8130  139.0200 C   0  0  0  0  0  3  0  0  0  0  0  0
  188.6730  177.7330  141.1660 C   0  0  0  0  0  0  0  0  0  0  0  0
  190.7570  177.0140  140.1350 C   0  0  0  0  0  3  0  0  0  0  0  0
  188.4230  178.5460  140.0470 C   0  0  0  0  0  3  0  0  0  0  0  0
  189.8570  176.9800  141.2040 C   0  0  0  0  0  3  0  0  0  0  0  0
  189.0550  179.3780  137.8740 O   0  0  0  0  0  1  0  0  0  0  0  0
  184.1700  178.7770  142.7590 C   0  0  0  0  0  2  0  0  0  0  0  0
  183.2910  177.4760  140.9680 O   0  0  0  0  0  0  0  0  0  0  0  0
  184.1930  179.5430  140.3560 N   0  0  0  0  0  2  0  0  0  0  0  0
  183.8430  178.5510  141.3220 C   0  0  0  0  0  0  0  0  0  0  0  0
  183.9960  179.3410  138.9300 C   0  0  0  0  0  2  0  0  0  0  0  0
  181.9900  177.5820  137.8550 O   0  0  0  0  0  1  0  0  0  0  0  0
  182.6390  179.8210  138.5390 C   0  0  0  0  0  0  0  0  0  0  0  0
  181.6810  178.9260  138.0320 C   0  0  0  0  0  0  0  0  0  0  0  0
  180.0760  180.7370  137.8770 C   0  0  0  0  0  3  0  0  0  0  0  0
  181.0270  181.6270  138.3860 C   0  0  0  0  0  3  0  0  0  0  0  0
  182.3060  181.1700  138.7190 C   0  0  0  0  0  3  0  0  0  0  0  0
  180.4030  179.3900  137.7000 C   0  0  0  0  0  3  0  0  0  0  0  0
  1  8  1  0  0  0  0
  2  6  2  0  0  0  0
  3  9  1  6  0  0  0
  3  7  1  0  0  0  0
  4 14  1  0  0  0  0
  6  5  1  0  0  0  0
  7  1  2  0  0  0  0
  7  2  1  0  0  0  0
  8  5  2  0  0  0  0
  9 15  1  0  0  0  0
 10  1  1  0  0  0  0
 11  2  1  0  0  0  0
 12 13  1  0  0  0  0
 12  4  2  0  0  0  0
 13  9  2  0  0  0  0
 14  3  1  0  0  0  0
 15 10  1  0  0  0  0
 16 17  2  0  0  0  0
 16 20  1  0  0  0  0
 17 19  1  0  0  0  0
 18 21  1  0  0  0  0
 18 13  1  0  0  0  0
 19 21  2  0  0  0  0
 20 18  2  0  0  0  0
 22 16  1  0  0  0  0
 23  4  1  0  0  0  0
 24 26  2  0  0  0  0
 25 26  1  0  0  0  0
 26 23  1  0  0  0  0
 27 25  1  0  0  0  0
 28 30  1  0  0  0  0
 29 33  1  0  0  0  0
 29 27  1  0  0  0  0
 30 29  2  0  0  0  0
 31 32  1  0  0  0  0
 32 33  2  0  0  0  0
 34 31  2  0  0  0  0
 34 30  1  0  0  0  0
M  END
>  <MODEL>
5

>  <REMARK>
 VINA RESULT:     -10.1      2.487      4.959
  Name = 
  5 active torsions:
  status: ('A' for Active; 'I' for Inactive)
    1  A    between atoms: C_3  and  C_13
    2  A    between atoms: C_3  and  N_17
    3  A    between atoms: C_5  and  C_18
    4  A    between atoms: C_12  and  C_28
    5  A    between atoms: C_18  and  C_29
                            x       y       z     vdW  Elec       q    Type
                         _______ _______ _______ _____ _____    ______ ____

>  <TORSDO>
F 5

$$$$
=
 OpenBabel11052414103D

 34 38  0  0  1  0  0  0  0  0999 V2000
  186.7150  178.1110  138.1730 C   0  0  0  0  0  0  0  0  0  0  0  0
  186.3430  178.6780  140.5050 C   0  0  0  0  0  0  0  0  0  0  0  0
  188.7510  178.4490  139.6050 C   0  0  2  0  0  3  0  0  0  0  0  0
  190.4510  177.7730  141.3220 C   0  0  0  0  0  0  0  0  0  0  0  0
  184.4570  178.3070  139.0230 C   0  0  0  0  0  3  0  0  0  0  0  0
  184.9610  178.6200  140.2870 C   0  0  0  0  0  3  0  0  0  0  0  0
  187.2400  178.3880  139.4500 C   0  0  0  0  0  0  0  0  0  0  0  0
  185.3330  178.0660  137.9640 C   0  0  0  0  0  3  0  0  0  0  0  0
  189.4650  177.4500  138.6990 C   0  0  0  0  0  0  0  0  0  0  0  0
  187.6370  177.9390  137.0080 C   0  0  0  0  0  2  0  0  0  0  0  0
  186.7820  179.0330  141.7390 F   0  0  0  0  0  0  0  0  0  0  0  0
  191.1360  177.1370  140.4250 N   0  0  0  0  0  0  0  0  0  0  0  0
  190.6540  176.9190  139.0860 C   0  0  0  0  0  0  0  0  0  0  0  0
  189.1680  178.2980  140.9950 N   0  0  0  0  0  2  0  0  0  0  0  0
  188.8340  177.0700  137.3780 C   0  0  0  0  0  2  0  0  0  0  0  0
  193.5490  175.5410  137.0390 C   0  0  0  0  0  0  0  0  0  0  0  0
  193.0270  174.3090  136.6330 C   0  0  0  0  0  3  0  0  0  0  0  0
  191.4760  176.0450  138.2100 C   0  0  0  0  0  0  0  0  0  0  0  0
  191.7380  173.9380  137.0210 C   0  0  0  0  0  3  0  0  0  0  0  0
  192.7800  176.4000  137.8280 C   0  0  0  0  0  3  0  0  0  0  0  0
  190.9690  174.7990  137.8100 C   0  0  0  0  0  3  0  0  0  0  0  0
  194.8310  175.9110  136.6580 O   0  0  0  0  0  1  0  0  0  0  0  0
  190.9580  177.8620  142.7200 C   0  0  0  0  0  2  0  0  0  0  0  0
  189.7510  175.8840  143.2730 O   0  0  0  0  0  0  0  0  0  0  0  0
  189.6590  177.5920  144.8650 N   0  0  0  0  0  2  0  0  0  0  0  0
  190.1010  177.0410  143.6240 C   0  0  0  0  0  0  0  0  0  0  0  0
  188.7400  176.8860  145.7430 C   0  0  0  0  0  2  0  0  0  0  0  0
  187.6820  178.2330  148.0550 O   0  0  0  0  0  1  0  0  0  0  0  0
  187.4140  177.5690  145.7340 C   0  0  0  0  0  0  0  0  0  0  0  0
  186.9390  178.2300  146.8790 C   0  0  0  0  0  0  0  0  0  0  0  0
  184.9500  178.9010  145.6650 C   0  0  0  0  0  3  0  0  0  0  0  0
  185.4250  178.2480  144.5230 C   0  0  0  0  0  3  0  0  0  0  0  0
  186.6550  177.5840  144.5560 C   0  0  0  0  0  3  0  0  0  0  0  0
  185.7070  178.8910  146.8410 C   0  0  0  0  0  3  0  0  0  0  0  0
  1  7  1  0  0  0  0
  2 11  1  0  0  0  0
  3  9  1  6  0  0  0
  3 14  1  0  0  0  0
  4 23  1  0  0  0  0
  5  6  2  0  0  0  0
  6  2  1  0  0  0  0
  7  3  1  0  0  0  0
  7  2  2  0  0  0  0
  8  1  2  0  0  0  0
  8  5  1  0  0  0  0
  9 13  2  0  0  0  0
 10 15  1  0  0  0  0
 10  1  1  0  0  0  0
 12  4  2  0  0  0  0
 13 12  1  0  0  0  0
 14  4  1  0  0  0  0
 15  9  1  0  0  0  0
 16 20  1  0  0  0  0
 17 19  1  0  0  0  0
 17 16  2  0  0  0  0
 18 13  1  0  0  0  0
 19 21  2  0  0  0  0
 20 18  2  0  0  0  0
 21 18  1  0  0  0  0
 22 16  1  0  0  0  0
 23 26  1  0  0  0  0
 24 26  2  0  0  0  0
 25 27  1  0  0  0  0
 26 25  1  0  0  0  0
 29 27  1  0  0  0  0
 29 30  1  0  0  0  0
 30 28  1  0  0  0  0
 31 34  1  0  0  0  0
 32 33  1  0  0  0  0
 32 31  2  0  0  0  0
 33 29  2  0  0  0  0
 34 30  2  0  0  0  0
M  END
>  <MODEL>
6

>  <REMARK>
 VINA RESULT:     -10.0      3.084      8.371
  Name = 
  5 active torsions:
  status: ('A' for Active; 'I' for Inactive)
    1  A    between atoms: C_3  and  C_13
    2  A    between atoms: C_3  and  N_17
    3  A    between atoms: C_5  and  C_18
    4  A    between atoms: C_12  and  C_28
    5  A    between atoms: C_18  and  C_29
                            x       y       z     vdW  Elec       q    Type
                         _______ _______ _______ _____ _____    ______ ____

>  <TORSDO>
F 5

$$$$
=
 OpenBabel11052414103D

 34 38  0  0  1  0  0  0  0  0999 V2000
  187.6000  177.8360  137.0790 C   0  0  0  0  0  0  0  0  0  0  0  0
  186.9320  178.2610  139.3760 C   0  0  0  0  0  0  0  0  0  0  0  0
  189.4370  178.1090  138.7710 C   0  0  2  0  0  3  0  0  0  0  0  0
  190.9220  177.3490  140.6450 C   0  0  0  0  0  0  0  0  0  0  0  0
  185.2510  177.9590  137.6510 C   0  0  0  0  0  3  0  0  0  0  0  0
  185.5900  178.2020  138.9840 C   0  0  0  0  0  3  0  0  0  0  0  0
  187.9580  178.0420  138.4250 C   0  0  0  0  0  0  0  0  0  0  0  0
  186.2560  177.7910  136.6970 C   0  0  0  0  0  3  0  0  0  0  0  0
  190.2740  177.1730  137.9050 C   0  0  0  0  0  0  0  0  0  0  0  0
  188.6620  177.7430  136.0300 C   0  0  0  0  0  2  0  0  0  0  0  0
  187.2090  178.5460  140.6730 F   0  0  0  0  0  0  0  0  0  0  0  0
  191.7240  176.7740  139.8040 N   0  0  0  0  0  0  0  0  0  0  0  0
  191.4160  176.6320  138.4060 C   0  0  0  0  0  0  0  0  0  0  0  0
  189.6810  177.8800  140.1910 N   0  0  0  0  0  2  0  0  0  0  0  0
  189.8180  176.8660  136.4950 C   0  0  0  0  0  2  0  0  0  0  0  0
  194.3930  175.5880  136.2810 C   0  0  0  0  0  0  0  0  0  0  0  0
  194.1520  174.2180  136.1380 C   0  0  0  0  0  3  0  0  0  0  0  0
  192.3540  175.8200  137.5900 C   0  0  0  0  0  0  0  0  0  0  0  0
  193.0230  173.6450  136.7270 C   0  0  0  0  0  3  0  0  0  0  0  0
  193.5030  176.3820  137.0080 C   0  0  0  0  0  3  0  0  0  0  0  0
  192.1320  174.4400  137.4540 C   0  0  0  0  0  3  0  0  0  0  0  0
  195.5170  176.1590  135.7000 O   0  0  0  0  0  1  0  0  0  0  0  0
  191.2500  177.3600  142.0970 C   0  0  0  0  0  2  0  0  0  0  0  0
  189.9280  175.5330  142.8650 O   0  0  0  0  0  0  0  0  0  0  0  0
  189.2480  177.6420  143.6050 N   0  0  0  0  0  2  0  0  0  0  0  0
  190.1210  176.7770  142.8770 C   0  0  0  0  0  0  0  0  0  0  0  0
  188.0710  177.1500  144.3000 C   0  0  0  0  0  2  0  0  0  0  0  0
  185.7380  177.9330  145.7900 O   0  0  0  0  0  1  0  0  0  0  0  0
  188.1350  177.5470  145.7370 C   0  0  0  0  0  0  0  0  0  0  0  0
  186.9700  177.9070  146.4340 C   0  0  0  0  0  0  0  0  0  0  0  0
  188.2770  178.2200  148.4520 C   0  0  0  0  0  3  0  0  0  0  0  0
  189.4370  177.8560  147.7600 C   0  0  0  0  0  3  0  0  0  0  0  0
  189.3660  177.5180  146.4060 C   0  0  0  0  0  3  0  0  0  0  0  0
  187.0460  178.2450  147.7900 C   0  0  0  0  0  3  0  0  0  0  0  0
  1  7  1  0  0  0  0
  2 11  1  0  0  0  0
  3  9  1  6  0  0  0
  3 14  1  0  0  0  0
  4 23  1  0  0  0  0
  5  6  2  0  0  0  0
  6  2  1  0  0  0  0
  7  3  1  0  0  0  0
  7  2  2  0  0  0  0
  8  1  2  0  0  0  0
  8  5  1  0  0  0  0
  9 13  2  0  0  0  0
 10 15  1  0  0  0  0
 10  1  1  0  0  0  0
 12  4  2  0  0  0  0
 13 12  1  0  0  0  0
 14  4  1  0  0  0  0
 15  9  1  0  0  0  0
 16 20  1  0  0  0  0
 17 16  2  0  0  0  0
 17 19  1  0  0  0  0
 18 13  1  0  0  0  0
 19 21  2  0  0  0  0
 20 18  2  0  0  0  0
 21 18  1  0  0  0  0
 22 16  1  0  0  0  0
 23 26  1  0  0  0  0
 24 26  2  0  0  0  0
 25 27  1  0  0  0  0
 26 25  1  0  0  0  0
 27 29  1  0  0  0  0
 28 30  1  0  0  0  0
 29 33  2  0  0  0  0
 29 30  1  0  0  0  0
 30 34  2  0  0  0  0
 32 31  2  0  0  0  0
 33 32  1  0  0  0  0
 34 31  1  0  0  0  0
M  END
>  <MODEL>
7

>  <REMARK>
 VINA RESULT:      -9.9      3.447      9.142
  Name = 
  5 active torsions:
  status: ('A' for Active; 'I' for Inactive)
    1  A    between atoms: C_3  and  C_13
    2  A    between atoms: C_3  and  N_17
    3  A    between atoms: C_5  and  C_18
    4  A    between atoms: C_12  and  C_28
    5  A    between atoms: C_18  and  C_29
                            x       y       z     vdW  Elec       q    Type
                         _______ _______ _______ _____ _____    ______ ____

>  <TORSDO>
F 5

$$$$
=
 OpenBabel11052414103D

 34 38  0  0  1  0  0  0  0  0999 V2000
  182.9850  178.6280  141.9520 C   0  0  0  0  0  0  0  0  0  0  0  0
  185.2470  179.3460  142.4700 C   0  0  0  0  0  0  0  0  0  0  0  0
  184.5600  178.9270  140.0180 C   0  0  2  0  0  3  0  0  0  0  0  0
  186.4430  178.2500  138.5040 C   0  0  0  0  0  0  0  0  0  0  0  0
  183.6370  179.0030  144.2540 C   0  0  0  0  0  3  0  0  0  0  0  0
  184.9200  179.3560  143.8310 C   0  0  0  0  0  3  0  0  0  0  0  0
  184.2850  178.9450  141.5130 C   0  0  0  0  0  0  0  0  0  0  0  0
  182.6660  178.6520  143.3130 C   0  0  0  0  0  3  0  0  0  0  0  0
  183.7680  177.8390  139.2990 C   0  0  0  0  0  0  0  0  0  0  0  0
  181.9100  178.3380  140.9540 C   0  0  0  0  0  2  0  0  0  0  0  0
  186.4930  179.7440  142.1090 F   0  0  0  0  0  0  0  0  0  0  0  0
  185.6390  177.5260  137.7920 N   0  0  0  0  0  0  0  0  0  0  0  0
  184.2780  177.2620  138.1790 C   0  0  0  0  0  0  0  0  0  0  0  0
  185.9860  178.8310  139.7220 N   0  0  0  0  0  2  0  0  0  0  0  0
  182.4210  177.4220  139.8470 C   0  0  0  0  0  2  0  0  0  0  0  0
  182.8230  174.0230  136.8160 C   0  0  0  0  0  0  0  0  0  0  0  0
  181.9820  174.5090  135.8110 C   0  0  0  0  0  3  0  0  0  0  0  0
  183.5180  176.2940  137.3480 C   0  0  0  0  0  0  0  0  0  0  0  0
  181.8990  175.8840  135.5790 C   0  0  0  0  0  3  0  0  0  0  0  0
  183.5810  174.9100  137.5840 C   0  0  0  0  0  3  0  0  0  0  0  0
  182.6580  176.7720  136.3470 C   0  0  0  0  0  3  0  0  0  0  0  0
  182.9040  172.6580  137.0530 O   0  0  0  0  0  1  0  0  0  0  0  0
  187.8710  178.3880  138.1040 C   0  0  0  0  0  2  0  0  0  0  0  0
  189.0490  176.3530  138.4880 O   0  0  0  0  0  0  0  0  0  0  0  0
  189.1240  177.9000  140.2390 N   0  0  0  0  0  2  0  0  0  0  0  0
  188.7200  177.4840  138.9330 C   0  0  0  0  0  0  0  0  0  0  0  0
  189.8630  177.0280  141.1360 C   0  0  0  0  0  2  0  0  0  0  0  0
  191.4180  178.2670  143.2140 O   0  0  0  0  0  1  0  0  0  0  0  0
  189.3520  177.1910  142.5280 C   0  0  0  0  0  0  0  0  0  0  0  0
  190.1360  177.8170  143.5110 C   0  0  0  0  0  0  0  0  0  0  0  0
  188.3390  177.5470  145.1150 C   0  0  0  0  0  3  0  0  0  0  0  0
  187.5550  176.9280  144.1360 C   0  0  0  0  0  3  0  0  0  0  0  0
  188.0590  176.7520  142.8440 C   0  0  0  0  0  3  0  0  0  0  0  0
  189.6270  177.9900  144.8030 C   0  0  0  0  0  3  0  0  0  0  0  0
  1  8  1  0  0  0  0
  2  6  2  0  0  0  0
  3  9  1  6  0  0  0
  3  7  1  0  0  0  0
  4 14  1  0  0  0  0
  6  5  1  0  0  0  0
  7  1  2  0  0  0  0
  7  2  1  0  0  0  0
  8  5  2  0  0  0  0
  9 15  1  0  0  0  0
 10  1  1  0  0  0  0
 11  2  1  0  0  0  0
 12 13  1  0  0  0  0
 12  4  2  0  0  0  0
 13  9  2  0  0  0  0
 14  3  1  0  0  0  0
 15 10  1  0  0  0  0
 16 22  1  0  0  0  0
 16 20  1  0  0  0  0
 17 16  2  0  0  0  0
 18 20  2  0  0  0  0
 18 13  1  0  0  0  0
 19 17  1  0  0  0  0
 19 21  2  0  0  0  0
 21 18  1  0  0  0  0
 23  4  1  0  0  0  0
 23 26  1  0  0  0  0
 24 26  2  0  0  0  0
 25 27  1  0  0  0  0
 26 25  1  0  0  0  0
 27 29  1  0  0  0  0
 28 30  1  0  0  0  0
 29 33  2  0  0  0  0
 29 30  1  0  0  0  0
 30 34  2  0  0  0  0
 32 31  2  0  0  0  0
 33 32  1  0  0  0  0
 34 31  1  0  0  0  0
M  END
>  <MODEL>
8

>  <REMARK>
 VINA RESULT:      -9.7      2.691      7.196
  Name = 
  5 active torsions:
  status: ('A' for Active; 'I' for Inactive)
    1  A    between atoms: C_3  and  C_13
    2  A    between atoms: C_3  and  N_17
    3  A    between atoms: C_5  and  C_18
    4  A    between atoms: C_12  and  C_28
    5  A    between atoms: C_18  and  C_29
                            x       y       z     vdW  Elec       q    Type
                         _______ _______ _______ _____ _____    ______ ____

>  <TORSDO>
F 5

$$$$
=
 OpenBabel11052414103D

 34 38  0  0  1  0  0  0  0  0999 V2000
  185.9580  177.9000  143.6820 C   0  0  0  0  0  0  0  0  0  0  0  0
  186.3110  178.6310  141.3920 C   0  0  0  0  0  0  0  0  0  0  0  0
  188.0270  177.0700  142.5250 C   0  0  2  0  0  3  0  0  0  0  0  0
  190.3680  177.2760  141.6470 C   0  0  0  0  0  0  0  0  0  0  0  0
  184.3590  179.3800  142.6250 C   0  0  0  0  0  3  0  0  0  0  0  0
  185.1240  179.3700  141.4570 C   0  0  0  0  0  3  0  0  0  0  0  0
  186.7600  177.9110  142.5250 C   0  0  0  0  0  0  0  0  0  0  0  0
  184.7680  178.6340  143.7320 C   0  0  0  0  0  3  0  0  0  0  0  0
  188.6890  177.0250  143.8990 C   0  0  0  0  0  0  0  0  0  0  0  0
  186.3330  177.0370  144.8440 C   0  0  0  0  0  2  0  0  0  0  0  0
  186.9930  178.6170  140.2200 F   0  0  0  0  0  0  0  0  0  0  0  0
  190.8540  176.9880  142.8140 N   0  0  0  0  0  0  0  0  0  0  0  0
  190.0370  176.8860  143.9940 C   0  0  0  0  0  0  0  0  0  0  0  0
  188.9690  177.4960  141.4950 N   0  0  0  0  0  2  0  0  0  0  0  0
  187.8260  177.1310  145.1380 C   0  0  0  0  0  2  0  0  0  0  0  0
  191.0120  177.1740  147.6590 C   0  0  0  0  0  0  0  0  0  0  0  0
  192.0500  176.2410  147.7340 C   0  0  0  0  0  3  0  0  0  0  0  0
  190.7440  176.7010  145.2870 C   0  0  0  0  0  0  0  0  0  0  0  0
  192.4310  175.5300  146.5940 C   0  0  0  0  0  3  0  0  0  0  0  0
  190.3590  177.3970  146.4450 C   0  0  0  0  0  3  0  0  0  0  0  0
  191.7770  175.7550  145.3780 C   0  0  0  0  0  3  0  0  0  0  0  0
  190.6290  177.8780  148.7920 O   0  0  0  0  0  1  0  0  0  0  0  0
  191.2840  177.4800  140.4900 C   0  0  0  0  0  2  0  0  0  0  0  0
  190.7050  175.6280  139.1080 O   0  0  0  0  0  0  0  0  0  0  0  0
  190.1450  177.7300  138.2540 N   0  0  0  0  0  2  0  0  0  0  0  0
  190.6920  176.8780  139.2610 C   0  0  0  0  0  0  0  0  0  0  0  0
  189.6470  177.2150  136.9890 C   0  0  0  0  0  2  0  0  0  0  0  0
  187.7730  179.3970  136.9450 O   0  0  0  0  0  1  0  0  0  0  0  0
  188.1720  177.0050  137.0800 C   0  0  0  0  0  0  0  0  0  0  0  0
  187.2890  178.0970  137.0380 C   0  0  0  0  0  0  0  0  0  0  0  0
  185.4060  176.5760  137.1820 C   0  0  0  0  0  3  0  0  0  0  0  0
  186.2850  175.4880  137.2190 C   0  0  0  0  0  3  0  0  0  0  0  0
  187.6660  175.7020  137.1650 C   0  0  0  0  0  3  0  0  0  0  0  0
  185.9080  177.8780  137.0920 C   0  0  0  0  0  3  0  0  0  0  0  0
  1  8  1  0  0  0  0
  1 10  1  0  0  0  0
  2  6  2  0  0  0  0
  2  7  1  0  0  0  0
  3 14  1  6  0  0  0
  3  7  1  0  0  0  0
  3  9  1  0  0  0  0
  4 12  2  0  0  0  0
  5  8  2  0  0  0  0
  6  5  1  0  0  0  0
  7  1  2  0  0  0  0
  9 13  2  0  0  0  0
  9 15  1  0  0  0  0
 10 15  1  0  0  0  0
 11  2  1  0  0  0  0
 12 13  1  0  0  0  0
 13 18  1  0  0  0  0
 14  4  1  0  0  0  0
 16 17  1  0  0  0  0
 16 22  1  0  0  0  0
 18 21  2  0  0  0  0
 18 20  1  0  0  0  0
 19 17  2  0  0  0  0
 20 16  2  0  0  0  0
 21 19  1  0  0  0  0
 23  4  1  0  0  0  0
 24 26  2  0  0  0  0
 25 26  1  0  0  0  0
 26 23  1  0  0  0  0
 27 29  1  0  0  0  0
 27 25  1  0  0  0  0
 28 30  1  0  0  0  0
 29 33  1  0  0  0  0
 30 29  2  0  0  0  0
 30 34  1  0  0  0  0
 31 32  1  0  0  0  0
 33 32  2  0  0  0  0
 34 31  2  0  0  0  0
M  END
>  <MODEL>
9

>  <REMARK>
 VINA RESULT:      -9.7      2.373      5.317
  Name = 
  5 active torsions:
  status: ('A' for Active; 'I' for Inactive)
    1  A    between atoms: C_3  and  C_13
    2  A    between atoms: C_3  and  N_17
    3  A    between atoms: C_5  and  C_18
    4  A    between atoms: C_12  and  C_28
    5  A    between atoms: C_18  and  C_29
                            x       y       z     vdW  Elec       q    Type
                         _______ _______ _______ _____ _____    ______ ____

>  <TORSDO>
F 5

$$$$
