=
 OpenBabel11052414173D

 34 39  0  0  1  0  0  0  0  0999 V2000
  190.1080  177.1750  146.9010 C   0  0  0  0  0  0  0  0  0  0  0  0
  191.5660  175.8580  145.5140 C   0  0  0  0  0  0  0  0  0  0  0  0
  189.5070  176.9720  144.5290 C   0  0  0  0  0  0  0  0  0  0  0  0
  188.8870  177.0890  142.1780 C   0  0  0  0  0  0  0  0  0  0  0  0
  192.1450  176.3470  147.7560 C   0  0  0  0  0  3  0  0  0  0  0  0
  192.4130  175.7530  146.5700 N   0  0  0  0  0  2  0  0  0  0  0  0
  191.1730  176.7590  142.5220 C   0  0  0  0  0  2  0  0  0  0  0  0
  190.4120  176.6810  145.6060 C   0  0  0  0  0  0  0  0  0  0  0  0
  189.4310  177.0110  140.8070 C   0  0  0  0  0  2  0  0  0  0  0  0
  190.9880  177.0290  147.9230 N   0  0  0  0  0  0  0  0  0  0  0  0
  188.2090  177.4920  144.8460 C   0  0  0  0  0  0  0  0  0  0  0  0
  188.8830  177.7760  147.1610 C   0  0  0  0  0  3  0  0  0  0  0  0
  191.7920  175.1460  144.5030 O   0  0  0  0  0  0  0  0  0  0  0  0
  187.5960  177.4790  142.4890 C   0  0  0  0  0  3  0  0  0  0  0  0
  187.2300  177.6780  143.8260 C   0  0  0  0  0  0  0  0  0  0  0  0
  190.9040  176.6690  141.0200 C   0  0  1  0  0  3  0  0  0  0  0  0
  189.8290  176.8560  143.1520 C   0  0  0  0  0  0  0  0  0  0  0  0
  187.9370  177.9040  146.1550 C   0  0  0  0  0  3  0  0  0  0  0  0
  183.5970  178.6880  143.3370 C   0  0  0  0  0  0  0  0  0  0  0  0
  183.2170  178.9860  144.6480 C   0  0  0  0  0  3  0  0  0  0  0  0
  185.8320  178.1070  144.1060 C   0  0  0  0  0  0  0  0  0  0  0  0
  184.1390  178.8530  145.6880 C   0  0  0  0  0  3  0  0  0  0  0  0
  184.8990  178.2570  143.0670 C   0  0  0  0  0  3  0  0  0  0  0  0
  185.4400  178.4210  145.4180 C   0  0  0  0  0  3  0  0  0  0  0  0
  182.7050  178.8220  142.3260 F   0  0  0  0  0  0  0  0  0  0  0  0
  191.7450  177.6210  140.3150 N   0  0  0  0  0  2  0  0  0  0  0  0
  191.6320  177.3330  138.9480 N   0  0  0  0  0  2  0  0  0  0  0  0
  190.3250  175.0910  137.9510 O   0  0  0  0  0  0  0  0  0  0  0  0
  192.3780  176.1070  138.7110 C   0  0  1  0  0  3  0  0  0  0  0  0
  191.5770  175.1710  137.8380 C   0  0  0  0  0  0  0  0  0  0  0  0
  193.6620  174.4420  136.7570 C   0  0  0  0  0  2  0  0  0  0  0  0
  194.3070  175.2110  137.9110 C   0  0  0  0  0  2  0  0  0  0  0  0
  193.6120  176.4190  138.1010 O   0  0  0  0  0  0  0  0  0  0  0  0
  192.2590  174.3040  136.9810 O   0  0  0  0  0  0  0  0  0  0  0  0
  1 12  1  0  0  0  0
  1 10  1  0  0  0  0
  2  8  1  0  0  0  0
  2  6  1  0  0  0  0
  3 11  1  0  0  0  0
  3  8  1  0  0  0  0
  4 14  2  0  0  0  0
  4 17  1  0  0  0  0
  5 10  2  0  0  0  0
  6  5  1  0  0  0  0
  7 17  1  0  0  0  0
  8  1  2  0  0  0  0
  9 16  1  0  0  0  0
  9  4  1  0  0  0  0
 11 18  1  0  0  0  0
 13  2  2  0  0  0  0
 14 15  1  0  0  0  0
 15 21  1  0  0  0  0
 15 11  2  0  0  0  0
 16 26  1  6  0  0  0
 16  7  1  0  0  0  0
 17  3  2  0  0  0  0
 18 12  2  0  0  0  0
 19 20  1  0  0  0  0
 20 22  2  0  0  0  0
 21 24  2  0  0  0  0
 23 19  2  0  0  0  0
 23 21  1  0  0  0  0
 24 22  1  0  0  0  0
 25 19  1  0  0  0  0
 27 26  1  0  0  0  0
 29 27  1  6  0  0  0
 30 28  2  0  0  0  0
 30 29  1  0  0  0  0
 31 34  1  0  0  0  0
 31 32  1  0  0  0  0
 32 33  1  0  0  0  0
 33 29  1  0  0  0  0
 34 30  1  0  0  0  0
M  END
>  <MODEL>
1

>  <REMARK>
 VINA RESULT:     -11.1      0.000      0.000
  Name = 
  4 active torsions:
  status: ('A' for Active; 'I' for Inactive)
    1  A    between atoms: N_3  and  C_13
    2  A    between atoms: N_3  and  N_17
    3  A    between atoms: C_12  and  C_28
    4  A    between atoms: N_17  and  C_29
                            x       y       z     vdW  Elec       q    Type
                         _______ _______ _______ _____ _____    ______ ____

>  <TORSDO>
F 4

$$$$
=
 OpenBabel11052414173D

 34 39  0  0  1  0  0  0  0  0999 V2000
  185.5830  177.9730  143.4920 C   0  0  0  0  0  0  0  0  0  0  0  0
  185.8910  178.8270  141.2650 C   0  0  0  0  0  0  0  0  0  0  0  0
  187.8410  177.8200  142.5420 C   0  0  0  0  0  0  0  0  0  0  0  0
  190.0730  177.3600  141.6860 C   0  0  0  0  0  0  0  0  0  0  0  0
  183.7280  178.6810  142.2160 C   0  0  0  0  0  3  0  0  0  0  0  0
  184.5480  179.0140  141.1920 N   0  0  0  0  0  2  0  0  0  0  0  0
  188.4390  177.4590  140.0190 C   0  0  0  0  0  2  0  0  0  0  0  0
  186.4600  178.1840  142.3970 C   0  0  0  0  0  0  0  0  0  0  0  0
  190.8360  177.1210  140.4430 C   0  0  0  0  0  2  0  0  0  0  0  0
  184.2490  178.1900  143.3650 N   0  0  0  0  0  0  0  0  0  0  0  0
  188.3400  177.5310  143.8550 C   0  0  0  0  0  0  0  0  0  0  0  0
  186.0760  177.5850  144.7310 C   0  0  0  0  0  3  0  0  0  0  0  0
  186.6050  179.3120  140.3510 O   0  0  0  0  0  0  0  0  0  0  0  0
  190.5810  177.1950  142.9630 C   0  0  0  0  0  3  0  0  0  0  0  0
  189.7280  177.2870  144.0690 C   0  0  0  0  0  0  0  0  0  0  0  0
  189.7990  177.3100  139.3380 C   0  0  1  0  0  3  0  0  0  0  0  0
  188.7470  177.6450  141.4630 C   0  0  0  0  0  0  0  0  0  0  0  0
  187.4380  177.3980  144.9160 C   0  0  0  0  0  3  0  0  0  0  0  0
  190.3670  177.5650  147.8070 C   0  0  0  0  0  0  0  0  0  0  0  0
  191.5050  176.7680  147.9510 C   0  0  0  0  0  3  0  0  0  0  0  0
  190.3230  177.0930  145.4200 C   0  0  0  0  0  0  0  0  0  0  0  0
  192.0600  176.1380  146.8350 C   0  0  0  0  0  3  0  0  0  0  0  0
  189.7840  177.7310  146.5490 C   0  0  0  0  0  3  0  0  0  0  0  0
  191.4750  176.3030  145.5760 C   0  0  0  0  0  3  0  0  0  0  0  0
  189.8320  178.1830  148.8880 F   0  0  0  0  0  0  0  0  0  0  0  0
  189.7840  176.1490  138.4640 N   0  0  0  0  0  2  0  0  0  0  0  0
  191.0880  175.6360  138.4450 N   0  0  0  0  0  2  0  0  0  0  0  0
  193.5720  176.8600  138.6900 O   0  0  0  0  0  0  0  0  0  0  0  0
  191.7430  176.1870  137.2680 C   0  0  1  0  0  3  0  0  0  0  0  0
  193.2000  176.4500  137.5590 C   0  0  0  0  0  0  0  0  0  0  0  0
  193.7490  175.7890  135.2550 C   0  0  0  0  0  2  0  0  0  0  0  0
  192.2320  175.8660  135.0720 C   0  0  0  0  0  2  0  0  0  0  0  0
  191.6070  175.2850  136.1910 O   0  0  0  0  0  0  0  0  0  0  0  0
  194.1220  176.3470  136.5150 O   0  0  0  0  0  0  0  0  0  0  0  0
  1 12  1  0  0  0  0
  2  8  1  0  0  0  0
  3 11  1  0  0  0  0
  4 14  2  0  0  0  0
  5 10  2  0  0  0  0
  6  2  1  0  0  0  0
  6  5  1  0  0  0  0
  7 17  1  0  0  0  0
  8  3  1  0  0  0  0
  8  1  2  0  0  0  0
  9  4  1  0  0  0  0
 10  1  1  0  0  0  0
 11 15  2  0  0  0  0
 11 18  1  0  0  0  0
 12 18  2  0  0  0  0
 13  2  2  0  0  0  0
 14 15  1  0  0  0  0
 15 21  1  0  0  0  0
 16 26  1  6  0  0  0
 16  7  1  0  0  0  0
 16  9  1  0  0  0  0
 17  4  1  0  0  0  0
 17  3  2  0  0  0  0
 19 20  1  0  0  0  0
 19 25  1  0  0  0  0
 21 24  2  0  0  0  0
 21 23  1  0  0  0  0
 22 20  2  0  0  0  0
 23 19  2  0  0  0  0
 24 22  1  0  0  0  0
 27 26  1  0  0  0  0
 29 30  1  0  0  0  0
 29 27  1  1  0  0  0
 30 28  2  0  0  0  0
 31 34  1  0  0  0  0
 32 31  1  0  0  0  0
 32 33  1  0  0  0  0
 33 29  1  0  0  0  0
 34 30  1  0  0  0  0
M  END
>  <MODEL>
2

>  <REMARK>
 VINA RESULT:     -10.8      3.099      5.449
  Name = 
  4 active torsions:
  status: ('A' for Active; 'I' for Inactive)
    1  A    between atoms: N_3  and  C_13
    2  A    between atoms: N_3  and  N_17
    3  A    between atoms: C_12  and  C_28
    4  A    between atoms: N_17  and  C_29
                            x       y       z     vdW  Elec       q    Type
                         _______ _______ _______ _____ _____    ______ ____

>  <TORSDO>
F 4

$$$$
=
 OpenBabel11052414173D

 34 39  0  0  1  0  0  0  0  0999 V2000
  185.4980  177.9900  143.5930 C   0  0  0  0  0  0  0  0  0  0  0  0
  185.7550  178.9140  141.3860 C   0  0  0  0  0  0  0  0  0  0  0  0
  187.7470  177.9240  142.6120 C   0  0  0  0  0  0  0  0  0  0  0  0
  189.9790  177.5470  141.7160 C   0  0  0  0  0  0  0  0  0  0  0  0
  183.6090  178.6840  142.3590 C   0  0  0  0  0  3  0  0  0  0  0  0
  184.4070  179.0670  141.3350 N   0  0  0  0  0  2  0  0  0  0  0  0
  188.3220  177.6500  140.0730 C   0  0  0  0  0  2  0  0  0  0  0  0
  186.3550  178.2550  142.4940 C   0  0  0  0  0  0  0  0  0  0  0  0
  190.7330  177.3640  140.4590 C   0  0  0  0  0  2  0  0  0  0  0  0
  184.1580  178.1750  143.4870 N   0  0  0  0  0  0  0  0  0  0  0  0
  188.2700  177.6110  143.9090 C   0  0  0  0  0  0  0  0  0  0  0  0
  186.0170  177.5810  144.8140 C   0  0  0  0  0  3  0  0  0  0  0  0
  186.4440  179.4430  140.4790 O   0  0  0  0  0  0  0  0  0  0  0  0
  190.5070  177.3610  142.9820 C   0  0  0  0  0  3  0  0  0  0  0  0
  189.6670  177.3990  144.1010 C   0  0  0  0  0  0  0  0  0  0  0  0
  189.6770  177.5560  139.3710 C   0  0  1  0  0  3  0  0  0  0  0  0
  188.6430  177.8030  141.5170 C   0  0  0  0  0  0  0  0  0  0  0  0
  187.3850  177.4250  144.9770 C   0  0  0  0  0  3  0  0  0  0  0  0
  191.9740  176.1530  146.8540 C   0  0  0  0  0  0  0  0  0  0  0  0
  191.3910  176.7320  147.9830 C   0  0  0  0  0  3  0  0  0  0  0  0
  190.2840  177.1830  145.4380 C   0  0  0  0  0  0  0  0  0  0  0  0
  190.2530  177.5310  147.8480 C   0  0  0  0  0  3  0  0  0  0  0  0
  191.4200  176.3720  145.5900 C   0  0  0  0  0  3  0  0  0  0  0  0
  189.7000  177.7520  146.5830 C   0  0  0  0  0  3  0  0  0  0  0  0
  193.0740  175.3720  146.9840 F   0  0  0  0  0  0  0  0  0  0  0  0
  189.6820  176.4200  138.4650 N   0  0  0  0  0  2  0  0  0  0  0  0
  190.7670  175.6130  138.8280 N   0  0  0  0  0  2  0  0  0  0  0  0
  193.3820  176.3050  138.1850 O   0  0  0  0  0  0  0  0  0  0  0  0
  191.3630  175.1230  137.5940 C   0  0  1  0  0  3  0  0  0  0  0  0
  192.8610  175.2990  137.6340 C   0  0  0  0  0  0  0  0  0  0  0  0
  193.1130  173.1870  136.3990 C   0  0  0  0  0  2  0  0  0  0  0  0
  191.6030  173.3390  136.2070 C   0  0  0  0  0  2  0  0  0  0  0  0
  191.0270  173.7630  137.4190 O   0  0  0  0  0  0  0  0  0  0  0  0
  193.6630  174.3870  136.9440 O   0  0  0  0  0  0  0  0  0  0  0  0
  1 12  1  0  0  0  0
  2  8  1  0  0  0  0
  3 11  1  0  0  0  0
  4 14  2  0  0  0  0
  5 10  2  0  0  0  0
  6  2  1  0  0  0  0
  6  5  1  0  0  0  0
  7 17  1  0  0  0  0
  8  3  1  0  0  0  0
  8  1  2  0  0  0  0
  9  4  1  0  0  0  0
 10  1  1  0  0  0  0
 11 15  2  0  0  0  0
 11 18  1  0  0  0  0
 12 18  2  0  0  0  0
 13  2  2  0  0  0  0
 14 15  1  0  0  0  0
 15 21  1  0  0  0  0
 16 26  1  6  0  0  0
 16  7  1  0  0  0  0
 16  9  1  0  0  0  0
 17  4  1  0  0  0  0
 17  3  2  0  0  0  0
 19 25  1  0  0  0  0
 19 20  1  0  0  0  0
 21 23  1  0  0  0  0
 21 24  2  0  0  0  0
 22 20  2  0  0  0  0
 23 19  2  0  0  0  0
 24 22  1  0  0  0  0
 26 27  1  0  0  0  0
 29 30  1  0  0  0  0
 29 27  1  1  0  0  0
 30 28  2  0  0  0  0
 31 34  1  0  0  0  0
 32 31  1  0  0  0  0
 32 33  1  0  0  0  0
 33 29  1  0  0  0  0
 34 30  1  0  0  0  0
M  END
>  <MODEL>
3

>  <REMARK>
 VINA RESULT:     -10.8      3.273      5.537
  Name = 
  4 active torsions:
  status: ('A' for Active; 'I' for Inactive)
    1  A    between atoms: N_3  and  C_13
    2  A    between atoms: N_3  and  N_17
    3  A    between atoms: C_12  and  C_28
    4  A    between atoms: N_17  and  C_29
                            x       y       z     vdW  Elec       q    Type
                         _______ _______ _______ _____ _____    ______ ____

>  <TORSDO>
F 4

$$$$
=
 OpenBabel11052414173D

 34 39  0  0  1  0  0  0  0  0999 V2000
  186.9800  178.5230  147.2870 C   0  0  0  0  0  0  0  0  0  0  0  0
  188.9020  177.1980  146.7080 C   0  0  0  0  0  0  0  0  0  0  0  0
  187.2190  177.8770  144.9310 C   0  0  0  0  0  0  0  0  0  0  0  0
  187.4130  177.5460  142.5270 C   0  0  0  0  0  0  0  0  0  0  0  0
  188.6660  178.1000  148.8830 C   0  0  0  0  0  3  0  0  0  0  0  0
  189.3540  177.3660  147.9780 N   0  0  0  0  0  2  0  0  0  0  0  0
  189.4700  177.5630  143.6320 C   0  0  0  0  0  2  0  0  0  0  0  0
  187.7300  177.8740  146.2730 C   0  0  0  0  0  0  0  0  0  0  0  0
  188.3870  177.3240  141.4390 C   0  0  0  0  0  2  0  0  0  0  0  0
  187.4770  178.6490  148.5440 N   0  0  0  0  0  0  0  0  0  0  0  0
  185.8590  178.2740  144.7160 C   0  0  0  0  0  0  0  0  0  0  0  0
  185.7020  178.9990  147.0280 C   0  0  0  0  0  3  0  0  0  0  0  0
  189.4990  176.3700  145.9740 O   0  0  0  0  0  0  0  0  0  0  0  0
  186.0690  177.8160  142.3340 C   0  0  0  0  0  3  0  0  0  0  0  0
  185.2660  178.1740  143.4240 C   0  0  0  0  0  0  0  0  0  0  0  0
  189.7240  177.2060  142.1670 C   0  0  1  0  0  3  0  0  0  0  0  0
  187.9890  177.5880  143.7740 C   0  0  0  0  0  0  0  0  0  0  0  0
  185.1390  178.8480  145.7700 C   0  0  0  0  0  3  0  0  0  0  0  0
  181.9920  178.8510  141.6120 C   0  0  0  0  0  0  0  0  0  0  0  0
  181.1270  179.0800  142.6850 C   0  0  0  0  0  3  0  0  0  0  0  0
  183.8290  178.4630  143.1610 C   0  0  0  0  0  0  0  0  0  0  0  0
  181.6080  179.0090  143.9940 C   0  0  0  0  0  3  0  0  0  0  0  0
  183.3360  178.5510  141.8490 C   0  0  0  0  0  3  0  0  0  0  0  0
  182.9520  178.7060  144.2310 C   0  0  0  0  0  3  0  0  0  0  0  0
  181.5290  178.9260  140.3410 F   0  0  0  0  0  0  0  0  0  0  0  0
  190.6860  178.1340  141.5980 N   0  0  0  0  0  2  0  0  0  0  0  0
  191.8420  177.3980  141.3080 N   0  0  0  0  0  2  0  0  0  0  0  0
  194.3920  177.1530  140.2290 O   0  0  0  0  0  0  0  0  0  0  0  0
  192.0250  177.4440  139.8660 C   0  0  1  0  0  3  0  0  0  0  0  0
  193.3930  176.9250  139.4970 C   0  0  0  0  0  0  0  0  0  0  0  0
  192.4330  175.9220  137.4670 C   0  0  0  0  0  2  0  0  0  0  0  0
  191.2180  176.7690  137.8510 C   0  0  0  0  0  2  0  0  0  0  0  0
  191.0180  176.6780  139.2410 O   0  0  0  0  0  0  0  0  0  0  0  0
  193.5590  176.2850  138.2670 O   0  0  0  0  0  0  0  0  0  0  0  0
  1 10  1  0  0  0  0
  2  6  1  0  0  0  0
  3  8  1  0  0  0  0
  4 17  1  0  0  0  0
  6  5  1  0  0  0  0
  7 17  1  0  0  0  0
  8  2  1  0  0  0  0
  8  1  2  0  0  0  0
  9 16  1  0  0  0  0
  9  4  1  0  0  0  0
 10  5  2  0  0  0  0
 11  3  1  0  0  0  0
 11 18  1  0  0  0  0
 12  1  1  0  0  0  0
 13  2  2  0  0  0  0
 14  4  2  0  0  0  0
 14 15  1  0  0  0  0
 15 11  2  0  0  0  0
 16 26  1  6  0  0  0
 16  7  1  0  0  0  0
 17  3  2  0  0  0  0
 18 12  2  0  0  0  0
 19 23  2  0  0  0  0
 19 20  1  0  0  0  0
 20 22  2  0  0  0  0
 21 15  1  0  0  0  0
 21 24  2  0  0  0  0
 22 24  1  0  0  0  0
 23 21  1  0  0  0  0
 25 19  1  0  0  0  0
 27 26  1  0  0  0  0
 29 27  1  1  0  0  0
 30 29  1  0  0  0  0
 30 28  2  0  0  0  0
 31 32  1  0  0  0  0
 31 34  1  0  0  0  0
 32 33  1  0  0  0  0
 33 29  1  0  0  0  0
 34 30  1  0  0  0  0
M  END
>  <MODEL>
4

>  <REMARK>
 VINA RESULT:     -10.5      1.746      2.793
  Name = 
  4 active torsions:
  status: ('A' for Active; 'I' for Inactive)
    1  A    between atoms: N_3  and  C_13
    2  A    between atoms: N_3  and  N_17
    3  A    between atoms: C_12  and  C_28
    4  A    between atoms: N_17  and  C_29
                            x       y       z     vdW  Elec       q    Type
                         _______ _______ _______ _____ _____    ______ ____

>  <TORSDO>
F 4

$$$$
=
 OpenBabel11052414173D

 34 39  0  0  1  0  0  0  0  0999 V2000
  188.3740  177.3050  146.2160 C   0  0  0  0  0  0  0  0  0  0  0  0
  186.5310  178.6260  147.0200 C   0  0  0  0  0  0  0  0  0  0  0  0
  186.8090  178.1750  144.5360 C   0  0  0  0  0  0  0  0  0  0  0  0
  185.2410  178.7370  142.7610 C   0  0  0  0  0  0  0  0  0  0  0  0
  187.9770  177.5190  148.5320 C   0  0  0  0  0  3  0  0  0  0  0  0
  186.9140  178.3200  148.2860 N   0  0  0  0  0  0  0  0  0  0  0  0
  184.2390  178.5530  144.8620 C   0  0  0  0  0  2  0  0  0  0  0  0
  187.1930  178.0300  145.9120 C   0  0  0  0  0  0  0  0  0  0  0  0
  183.8210  179.0390  142.4900 C   0  0  0  0  0  2  0  0  0  0  0  0
  188.7140  177.0400  147.5020 N   0  0  0  0  0  2  0  0  0  0  0  0
  187.7620  177.8400  143.5190 C   0  0  0  0  0  0  0  0  0  0  0  0
  189.2320  176.8930  145.2050 C   0  0  0  0  0  3  0  0  0  0  0  0
  185.6460  179.5050  146.8670 O   0  0  0  0  0  0  0  0  0  0  0  0
  186.1990  178.5260  141.7830 C   0  0  0  0  0  3  0  0  0  0  0  0
  187.4770  178.0840  142.1440 C   0  0  0  0  0  0  0  0  0  0  0  0
  183.1800  179.0460  143.8760 C   0  0  1  0  0  3  0  0  0  0  0  0
  185.5140  178.5550  144.0950 C   0  0  0  0  0  0  0  0  0  0  0  0
  188.9450  177.1840  143.8800 C   0  0  0  0  0  3  0  0  0  0  0  0
  189.2770  178.3060  138.8020 C   0  0  0  0  0  0  0  0  0  0  0  0
  190.3070  177.3790  138.9830 C   0  0  0  0  0  3  0  0  0  0  0  0
  188.4670  177.8630  141.0540 C   0  0  0  0  0  0  0  0  0  0  0  0
  190.4180  176.6890  140.1920 C   0  0  0  0  0  3  0  0  0  0  0  0
  188.3600  178.5410  139.8290 C   0  0  0  0  0  3  0  0  0  0  0  0
  189.5010  176.9260  141.2200 C   0  0  0  0  0  3  0  0  0  0  0  0
  189.1640  178.9710  137.6270 F   0  0  0  0  0  0  0  0  0  0  0  0
  182.0350  178.1520  143.9010 N   0  0  0  0  0  2  0  0  0  0  0  0
  180.8950  178.9530  144.0500 N   0  0  0  0  0  2  0  0  0  0  0  0
  179.8330  181.0400  142.5520 O   0  0  0  0  0  0  0  0  0  0  0  0
  180.0230  178.6640  142.9220 C   0  0  1  0  0  3  0  0  0  0  0  0
  179.8770  179.8860  142.0500 C   0  0  0  0  0  0  0  0  0  0  0  0
  179.8180  178.4300  140.0690 C   0  0  0  0  0  2  0  0  0  0  0  0
  179.6720  177.3260  141.1180 C   0  0  0  0  0  2  0  0  0  0  0  0
  180.5550  177.5860  142.1820 O   0  0  0  0  0  0  0  0  0  0  0  0
  179.6720  179.7120  140.6790 O   0  0  0  0  0  0  0  0  0  0  0  0
  1 10  1  0  0  0  0
  2  6  1  0  0  0  0
  3  8  2  0  0  0  0
  4 17  2  0  0  0  0
  6  5  2  0  0  0  0
  8  1  1  0  0  0  0
  8  2  1  0  0  0  0
  9  4  1  0  0  0  0
  9 16  1  0  0  0  0
 10  5  1  0  0  0  0
 11 18  2  0  0  0  0
 11  3  1  0  0  0  0
 12  1  2  0  0  0  0
 13  2  2  0  0  0  0
 14 15  2  0  0  0  0
 14  4  1  0  0  0  0
 15 11  1  0  0  0  0
 16 26  1  6  0  0  0
 16  7  1  0  0  0  0
 17  3  1  0  0  0  0
 17  7  1  0  0  0  0
 18 12  1  0  0  0  0
 19 20  2  0  0  0  0
 19 23  1  0  0  0  0
 20 22  1  0  0  0  0
 21 24  1  0  0  0  0
 21 15  1  0  0  0  0
 22 24  2  0  0  0  0
 23 21  2  0  0  0  0
 25 19  1  0  0  0  0
 26 27  1  0  0  0  0
 29 27  1  1  0  0  0
 30 28  2  0  0  0  0
 30 29  1  0  0  0  0
 31 34  1  0  0  0  0
 31 32  1  0  0  0  0
 32 33  1  0  0  0  0
 33 29  1  0  0  0  0
 34 30  1  0  0  0  0
M  END
>  <MODEL>
5

>  <REMARK>
 VINA RESULT:     -10.4      5.167      8.357
  Name = 
  4 active torsions:
  status: ('A' for Active; 'I' for Inactive)
    1  A    between atoms: N_3  and  C_13
    2  A    between atoms: N_3  and  N_17
    3  A    between atoms: C_12  and  C_28
    4  A    between atoms: N_17  and  C_29
                            x       y       z     vdW  Elec       q    Type
                         _______ _______ _______ _____ _____    ______ ____

>  <TORSDO>
F 4

$$$$
=
 OpenBabel11052414173D

 34 39  0  0  1  0  0  0  0  0999 V2000
  185.9270  178.3480  146.1340 C   0  0  0  0  0  0  0  0  0  0  0  0
  187.7420  177.2600  144.9900 C   0  0  0  0  0  0  0  0  0  0  0  0
  185.7580  178.1700  143.6920 C   0  0  0  0  0  0  0  0  0  0  0  0
  185.5290  178.3070  141.2720 C   0  0  0  0  0  0  0  0  0  0  0  0
  187.8770  177.7240  147.3070 C   0  0  0  0  0  3  0  0  0  0  0  0
  188.4080  177.2100  146.1730 N   0  0  0  0  0  2  0  0  0  0  0  0
  187.7490  178.2250  141.9930 C   0  0  0  0  0  2  0  0  0  0  0  0
  186.4990  177.9420  144.9010 C   0  0  0  0  0  0  0  0  0  0  0  0
  186.3000  178.3440  140.0120 C   0  0  0  0  0  2  0  0  0  0  0  0
  186.6360  178.2630  147.2880 N   0  0  0  0  0  0  0  0  0  0  0  0
  184.3740  178.5270  143.7920 C   0  0  0  0  0  0  0  0  0  0  0  0
  184.6140  178.7960  146.1940 C   0  0  0  0  0  3  0  0  0  0  0  0
  188.2150  176.6170  144.0190 O   0  0  0  0  0  0  0  0  0  0  0  0
  184.1670  178.5360  141.3660 C   0  0  0  0  0  3  0  0  0  0  0  0
  183.5630  178.6400  142.6250 C   0  0  0  0  0  0  0  0  0  0  0  0
  187.7470  178.1630  140.4650 C   0  0  1  0  0  3  0  0  0  0  0  0
  186.3170  178.1450  142.3870 C   0  0  0  0  0  0  0  0  0  0  0  0
  183.8410  178.8540  145.0450 C   0  0  0  0  0  3  0  0  0  0  0  0
  179.9610  178.7960  143.8320 C   0  0  0  0  0  0  0  0  0  0  0  0
  179.3180  179.3250  142.7100 C   0  0  0  0  0  3  0  0  0  0  0  0
  182.0970  178.8970  142.6710 C   0  0  0  0  0  0  0  0  0  0  0  0
  180.0570  179.6350  141.5660 C   0  0  0  0  0  3  0  0  0  0  0  0
  181.3410  178.5770  143.8100 C   0  0  0  0  0  3  0  0  0  0  0  0
  181.4380  179.4190  141.5450 C   0  0  0  0  0  3  0  0  0  0  0  0
  179.2440  178.4880  144.9400 F   0  0  0  0  0  0  0  0  0  0  0  0
  188.5740  179.2310  139.9320 N   0  0  0  0  0  2  0  0  0  0  0  0
  188.7560  178.9650  138.5680 N   0  0  0  0  0  2  0  0  0  0  0  0
  188.8910  177.6400  136.1280 O   0  0  0  0  0  0  0  0  0  0  0  0
  189.4550  177.6930  138.4740 C   0  0  1  0  0  3  0  0  0  0  0  0
  189.7250  177.3530  137.0290 C   0  0  0  0  0  0  0  0  0  0  0  0
  191.8720  176.3560  137.6940 C   0  0  0  0  0  2  0  0  0  0  0  0
  191.2930  176.5120  139.1010 C   0  0  0  0  0  2  0  0  0  0  0  0
  190.6630  177.7660  139.2000 O   0  0  0  0  0  0  0  0  0  0  0  0
  190.8630  176.6060  136.7150 O   0  0  0  0  0  0  0  0  0  0  0  0
  1 12  1  0  0  0  0
  1 10  1  0  0  0  0
  2  6  1  0  0  0  0
  3 11  1  0  0  0  0
  3  8  1  0  0  0  0
  4 14  2  0  0  0  0
  4 17  1  0  0  0  0
  6  5  1  0  0  0  0
  7 17  1  0  0  0  0
  8  2  1  0  0  0  0
  8  1  2  0  0  0  0
  9 16  1  0  0  0  0
  9  4  1  0  0  0  0
 10  5  2  0  0  0  0
 11 18  1  0  0  0  0
 13  2  2  0  0  0  0
 14 15  1  0  0  0  0
 15 21  1  0  0  0  0
 15 11  2  0  0  0  0
 16 26  1  6  0  0  0
 16  7  1  0  0  0  0
 17  3  2  0  0  0  0
 18 12  2  0  0  0  0
 19 25  1  0  0  0  0
 20 19  2  0  0  0  0
 21 23  2  0  0  0  0
 22 20  1  0  0  0  0
 23 19  1  0  0  0  0
 24 22  2  0  0  0  0
 24 21  1  0  0  0  0
 27 26  1  0  0  0  0
 28 30  2  0  0  0  0
 29 27  1  6  0  0  0
 29 33  1  0  0  0  0
 30 29  1  0  0  0  0
 31 32  1  0  0  0  0
 32 33  1  0  0  0  0
 34 30  1  0  0  0  0
 34 31  1  0  0  0  0
M  END
>  <MODEL>
6

>  <REMARK>
 VINA RESULT:     -10.3      2.556      3.985
  Name = 
  4 active torsions:
  status: ('A' for Active; 'I' for Inactive)
    1  A    between atoms: N_3  and  C_13
    2  A    between atoms: N_3  and  N_17
    3  A    between atoms: C_12  and  C_28
    4  A    between atoms: N_17  and  C_29
                            x       y       z     vdW  Elec       q    Type
                         _______ _______ _______ _____ _____    ______ ____

>  <TORSDO>
F 4

$$$$
=
 OpenBabel11052414173D

 34 39  0  0  1  0  0  0  0  0999 V2000
  185.3070  178.0520  143.6480 C   0  0  0  0  0  0  0  0  0  0  0  0
  185.4600  179.0060  141.4450 C   0  0  0  0  0  0  0  0  0  0  0  0
  187.4960  177.9560  142.5410 C   0  0  0  0  0  0  0  0  0  0  0  0
  189.6660  177.5490  141.5160 C   0  0  0  0  0  0  0  0  0  0  0  0
  183.3680  178.8040  142.5330 C   0  0  0  0  0  3  0  0  0  0  0  0
  184.1140  179.1880  141.4710 N   0  0  0  0  0  2  0  0  0  0  0  0
  187.9220  177.7120  139.9700 C   0  0  0  0  0  2  0  0  0  0  0  0
  186.1060  178.3180  142.5060 C   0  0  0  0  0  0  0  0  0  0  0  0
  190.3440  177.3710  140.2150 C   0  0  0  0  0  2  0  0  0  0  0  0
  183.9670  178.2660  143.6200 N   0  0  0  0  0  0  0  0  0  0  0  0
  188.0840  177.6120  143.8020 C   0  0  0  0  0  0  0  0  0  0  0  0
  185.8840  177.6130  144.8320 C   0  0  0  0  0  3  0  0  0  0  0  0
  186.1090  179.5360  140.5080 O   0  0  0  0  0  0  0  0  0  0  0  0
  190.2600  177.3310  142.7470 C   0  0  0  0  0  3  0  0  0  0  0  0
  189.4840  177.3680  143.9120 C   0  0  0  0  0  0  0  0  0  0  0  0
  189.2340  177.6020  139.1920 C   0  0  1  0  0  3  0  0  0  0  0  0
  188.3270  177.8350  141.3960 C   0  0  0  0  0  0  0  0  0  0  0  0
  187.2560  177.4260  144.9160 C   0  0  0  0  0  3  0  0  0  0  0  0
  190.3570  177.4610  147.6110 C   0  0  0  0  0  0  0  0  0  0  0  0
  191.5210  176.6890  147.6380 C   0  0  0  0  0  3  0  0  0  0  0  0
  190.1700  177.1180  145.2090 C   0  0  0  0  0  0  0  0  0  0  0  0
  192.0170  176.1360  146.4550 C   0  0  0  0  0  3  0  0  0  0  0  0
  189.6890  177.6780  146.4030 C   0  0  0  0  0  3  0  0  0  0  0  0
  191.3480  176.3520  145.2470 C   0  0  0  0  0  3  0  0  0  0  0  0
  189.8780  178.0040  148.7570 F   0  0  0  0  0  0  0  0  0  0  0  0
  189.1630  176.4810  138.2700 N   0  0  0  0  0  2  0  0  0  0  0  0
  188.0970  176.7350  137.3980 N   0  0  0  0  0  2  0  0  0  0  0  0
  185.3180  176.6650  137.4170 O   0  0  0  0  0  0  0  0  0  0  0  0
  187.4040  175.4720  137.1960 C   0  0  1  0  0  3  0  0  0  0  0  0
  185.9510  175.7220  136.8720 C   0  0  0  0  0  0  0  0  0  0  0  0
  185.9930  173.8020  135.3370 C   0  0  0  0  0  2  0  0  0  0  0  0
  187.3420  173.5370  136.0070 C   0  0  0  0  0  2  0  0  0  0  0  0
  188.0290  174.7560  136.1520 O   0  0  0  0  0  0  0  0  0  0  0  0
  185.2820  174.8160  136.0470 O   0  0  0  0  0  0  0  0  0  0  0  0
  1 12  1  0  0  0  0
  2  6  1  0  0  0  0
  2  8  1  0  0  0  0
  3 11  1  0  0  0  0
  4 14  2  0  0  0  0
  5 10  2  0  0  0  0
  6  5  1  0  0  0  0
  7 17  1  0  0  0  0
  8  3  1  0  0  0  0
  8  1  2  0  0  0  0
  9  4  1  0  0  0  0
 10  1  1  0  0  0  0
 11 15  2  0  0  0  0
 11 18  1  0  0  0  0
 12 18  2  0  0  0  0
 13  2  2  0  0  0  0
 14 15  1  0  0  0  0
 15 21  1  0  0  0  0
 16 26  1  6  0  0  0
 16  7  1  0  0  0  0
 16  9  1  0  0  0  0
 17  4  1  0  0  0  0
 17  3  2  0  0  0  0
 19 20  1  0  0  0  0
 19 25  1  0  0  0  0
 21 24  2  0  0  0  0
 21 23  1  0  0  0  0
 22 20  2  0  0  0  0
 23 19  2  0  0  0  0
 24 22  1  0  0  0  0
 27 26  1  0  0  0  0
 29 27  1  6  0  0  0
 30 29  1  0  0  0  0
 30 28  2  0  0  0  0
 31 32  1  0  0  0  0
 31 34  1  0  0  0  0
 32 33  1  0  0  0  0
 33 29  1  0  0  0  0
 34 30  1  0  0  0  0
M  END
>  <MODEL>
7

>  <REMARK>
 VINA RESULT:     -10.3      3.827      6.140
  Name = 
  4 active torsions:
  status: ('A' for Active; 'I' for Inactive)
    1  A    between atoms: N_3  and  C_13
    2  A    between atoms: N_3  and  N_17
    3  A    between atoms: C_12  and  C_28
    4  A    between atoms: N_17  and  C_29
                            x       y       z     vdW  Elec       q    Type
                         _______ _______ _______ _____ _____    ______ ____

>  <TORSDO>
F 4

$$$$
=
 OpenBabel11052414173D

 34 39  0  0  1  0  0  0  0  0999 V2000
  191.2130  177.5850  141.4940 C   0  0  0  0  0  0  0  0  0  0  0  0
  189.6940  177.0390  139.7100 C   0  0  0  0  0  0  0  0  0  0  0  0
  188.8140  177.6810  142.0040 C   0  0  0  0  0  0  0  0  0  0  0  0
  186.4930  178.0680  142.6270 C   0  0  0  0  0  0  0  0  0  0  0  0
  192.0180  177.2290  139.3040 C   0  0  0  0  0  3  0  0  0  0  0  0
  190.7610  176.9790  138.8710 N   0  0  0  0  0  2  0  0  0  0  0  0
  186.9030  178.3510  140.3450 C   0  0  0  0  0  2  0  0  0  0  0  0
  189.8690  177.4600  141.0560 C   0  0  0  0  0  0  0  0  0  0  0  0
  185.1650  178.4180  142.0810 C   0  0  0  0  0  2  0  0  0  0  0  0
  192.2400  177.5030  140.6110 N   0  0  0  0  0  0  0  0  0  0  0  0
  189.1440  177.7330  143.3980 C   0  0  0  0  0  0  0  0  0  0  0  0
  191.5070  177.7450  142.8410 C   0  0  0  0  0  3  0  0  0  0  0  0
  188.5840  176.6330  139.2830 O   0  0  0  0  0  0  0  0  0  0  0  0
  186.7940  178.0020  143.9760 C   0  0  0  0  0  3  0  0  0  0  0  0
  188.1210  177.8240  144.3860 C   0  0  0  0  0  0  0  0  0  0  0  0
  185.3970  178.4800  140.5730 C   0  0  1  0  0  3  0  0  0  0  0  0
  187.4590  177.9330  141.6600 C   0  0  0  0  0  0  0  0  0  0  0  0
  190.4890  177.7870  143.7810 C   0  0  0  0  0  3  0  0  0  0  0  0
  189.9140  177.4020  147.7130 C   0  0  0  0  0  0  0  0  0  0  0  0
  188.8670  177.6010  148.6160 C   0  0  0  0  0  3  0  0  0  0  0  0
  188.3920  177.7690  145.8490 C   0  0  0  0  0  0  0  0  0  0  0  0
  187.5820  177.8780  148.1430 C   0  0  0  0  0  3  0  0  0  0  0  0
  189.6760  177.4790  146.3380 C   0  0  0  0  0  3  0  0  0  0  0  0
  187.3450  177.9570  146.7680 C   0  0  0  0  0  3  0  0  0  0  0  0
  191.1590  177.1270  148.1700 F   0  0  0  0  0  0  0  0  0  0  0  0
  184.9300  179.7530  140.0480 N   0  0  0  0  0  2  0  0  0  0  0  0
  184.5510  179.5320  138.7180 N   0  0  0  0  0  2  0  0  0  0  0  0
  182.2320  181.0660  138.7110 O   0  0  0  0  0  0  0  0  0  0  0  0
  183.2510  178.8790  138.7500 C   0  0  1  0  0  3  0  0  0  0  0  0
  182.1680  179.8560  138.3650 C   0  0  0  0  0  0  0  0  0  0  0  0
  180.9720  178.0360  137.2240 C   0  0  0  0  0  2  0  0  0  0  0  0
  181.9960  177.1620  137.9510 C   0  0  0  0  0  2  0  0  0  0  0  0
  183.2590  177.7750  137.8710 O   0  0  0  0  0  0  0  0  0  0  0  0
  181.0280  179.3740  137.7170 O   0  0  0  0  0  0  0  0  0  0  0  0
  1 12  1  0  0  0  0
  2  8  1  0  0  0  0
  3 11  1  0  0  0  0
  4 14  2  0  0  0  0
  5 10  2  0  0  0  0
  6  5  1  0  0  0  0
  6  2  1  0  0  0  0
  7 16  1  0  0  0  0
  7 17  1  0  0  0  0
  8  1  2  0  0  0  0
  8  3  1  0  0  0  0
  9  4  1  0  0  0  0
 10  1  1  0  0  0  0
 11 18  1  0  0  0  0
 11 15  2  0  0  0  0
 12 18  2  0  0  0  0
 13  2  2  0  0  0  0
 14 15  1  0  0  0  0
 15 21  1  0  0  0  0
 16 26  1  1  0  0  0
 16  9  1  0  0  0  0
 17  3  2  0  0  0  0
 17  4  1  0  0  0  0
 19 25  1  0  0  0  0
 19 20  1  0  0  0  0
 21 23  1  0  0  0  0
 21 24  2  0  0  0  0
 22 20  2  0  0  0  0
 23 19  2  0  0  0  0
 24 22  1  0  0  0  0
 27 26  1  0  0  0  0
 29 27  1  6  0  0  0
 30 28  2  0  0  0  0
 30 29  1  0  0  0  0
 31 34  1  0  0  0  0
 31 32  1  0  0  0  0
 33 32  1  0  0  0  0
 33 29  1  0  0  0  0
 34 30  1  0  0  0  0
M  END
>  <MODEL>
8

>  <REMARK>
 VINA RESULT:     -10.0      4.364      7.192
  Name = 
  4 active torsions:
  status: ('A' for Active; 'I' for Inactive)
    1  A    between atoms: N_3  and  C_13
    2  A    between atoms: N_3  and  N_17
    3  A    between atoms: C_12  and  C_28
    4  A    between atoms: N_17  and  C_29
                            x       y       z     vdW  Elec       q    Type
                         _______ _______ _______ _____ _____    ______ ____

>  <TORSDO>
F 4

$$$$
=
 OpenBabel11052414173D

 34 39  0  0  1  0  0  0  0  0999 V2000
  186.2970  178.5200  140.2020 C   0  0  0  0  0  0  0  0  0  0  0  0
  184.1100  177.9890  139.3530 C   0  0  0  0  0  0  0  0  0  0  0  0
  184.4520  178.4840  141.8210 C   0  0  0  0  0  0  0  0  0  0  0  0
  182.7250  178.7360  143.5170 C   0  0  0  0  0  0  0  0  0  0  0  0
  185.9360  178.3030  137.8800 C   0  0  0  0  0  3  0  0  0  0  0  0
  184.6320  178.0170  138.0990 N   0  0  0  0  0  2  0  0  0  0  0  0
  181.9630  179.1420  141.3470 C   0  0  0  0  0  2  0  0  0  0  0  0
  184.9130  178.3550  140.4660 C   0  0  0  0  0  0  0  0  0  0  0  0
  181.2950  179.0510  143.7100 C   0  0  0  0  0  2  0  0  0  0  0  0
  186.7640  178.5260  138.9280 N   0  0  0  0  0  0  0  0  0  0  0  0
  185.4200  178.4860  142.8770 C   0  0  0  0  0  0  0  0  0  0  0  0
  187.2100  178.6310  141.2430 C   0  0  0  0  0  3  0  0  0  0  0  0
  182.9400  177.5530  139.4960 O   0  0  0  0  0  0  0  0  0  0  0  0
  183.6480  178.6210  144.5420 C   0  0  0  0  0  3  0  0  0  0  0  0
  185.0090  178.4850  144.2420 C   0  0  0  0  0  0  0  0  0  0  0  0
  180.7580  179.1930  142.2870 C   0  0  1  0  0  3  0  0  0  0  0  0
  183.0980  178.6890  142.1950 C   0  0  0  0  0  0  0  0  0  0  0  0
  186.7800  178.5830  142.5600 C   0  0  0  0  0  3  0  0  0  0  0  0
  188.0210  177.5120  146.3490 C   0  0  0  0  0  0  0  0  0  0  0  0
  187.7120  178.1220  147.5670 C   0  0  0  0  0  3  0  0  0  0  0  0
  185.9620  178.3750  145.3810 C   0  0  0  0  0  0  0  0  0  0  0  0
  186.5290  178.8520  147.7000 C   0  0  0  0  0  3  0  0  0  0  0  0
  187.1480  177.6320  145.2650 C   0  0  0  0  0  3  0  0  0  0  0  0
  185.6570  178.9750  146.6150 C   0  0  0  0  0  3  0  0  0  0  0  0
  189.1650  176.7970  146.2210 F   0  0  0  0  0  0  0  0  0  0  0  0
  180.0740  180.4660  142.1360 N   0  0  0  0  0  2  0  0  0  0  0  0
  179.1230  180.3010  141.1210 N   0  0  0  0  0  2  0  0  0  0  0  0
  179.5540  178.9450  138.7330 O   0  0  0  0  0  0  0  0  0  0  0  0
  179.6150  181.0220  139.9580 C   0  0  1  0  0  3  0  0  0  0  0  0
  179.4170  180.1970  138.7100 C   0  0  0  0  0  0  0  0  0  0  0  0
  178.9330  182.2570  137.4580 C   0  0  0  0  0  2  0  0  0  0  0  0
  179.4570  182.9280  138.7290 C   0  0  0  0  0  2  0  0  0  0  0  0
  178.9360  182.2560  139.8500 O   0  0  0  0  0  0  0  0  0  0  0  0
  179.1950  180.8540  137.4980 O   0  0  0  0  0  0  0  0  0  0  0  0
  1  8  2  0  0  0  0
  1 12  1  0  0  0  0
  2 13  2  0  0  0  0
  2  8  1  0  0  0  0
  3 17  2  0  0  0  0
  3 11  1  0  0  0  0
  4  9  1  0  0  0  0
  4 14  2  0  0  0  0
  5  6  1  0  0  0  0
  5 10  2  0  0  0  0
  6  2  1  0  0  0  0
  7 17  1  0  0  0  0
  7 16  1  0  0  0  0
  8  3  1  0  0  0  0
 10  1  1  0  0  0  0
 11 15  2  0  0  0  0
 12 18  2  0  0  0  0
 15 14  1  0  0  0  0
 15 21  1  0  0  0  0
 16 26  1  1  0  0  0
 16  9  1  0  0  0  0
 17  4  1  0  0  0  0
 18 11  1  0  0  0  0
 19 20  1  0  0  0  0
 20 22  2  0  0  0  0
 21 24  2  0  0  0  0
 23 21  1  0  0  0  0
 23 19  2  0  0  0  0
 24 22  1  0  0  0  0
 25 19  1  0  0  0  0
 27 26  1  0  0  0  0
 29 27  1  1  0  0  0
 30 28  2  0  0  0  0
 30 29  1  0  0  0  0
 31 34  1  0  0  0  0
 31 32  1  0  0  0  0
 32 33  1  0  0  0  0
 33 29  1  0  0  0  0
 34 30  1  0  0  0  0
M  END
>  <MODEL>
9

>  <REMARK>
 VINA RESULT:      -9.9      6.137      9.685
  Name = 
  4 active torsions:
  status: ('A' for Active; 'I' for Inactive)
    1  A    between atoms: N_3  and  C_13
    2  A    between atoms: N_3  and  N_17
    3  A    between atoms: C_12  and  C_28
    4  A    between atoms: N_17  and  C_29
                            x       y       z     vdW  Elec       q    Type
                         _______ _______ _______ _____ _____    ______ ____

>  <TORSDO>
F 4

$$$$
