=
 OpenBabel11052413463D

 27 29  0  0  1  0  0  0  0  0999 V2000
  188.0040  177.2130  144.0360 C   0  0  2  0  0  3  0  0  0  0  0  0
  184.0900  178.6390  145.2910 C   0  0  0  0  0  2  0  0  0  0  0  0
  186.7240  177.8920  144.4500 C   0  0  0  0  0  0  0  0  0  0  0  0
  185.6860  178.2690  143.4100 C   0  0  0  0  0  2  0  0  0  0  0  0
  184.5870  179.1770  143.9580 C   0  0  0  0  0  2  0  0  0  0  0  0
  185.2340  178.6940  146.2970 C   0  0  0  0  0  2  0  0  0  0  0  0
  186.4710  178.0200  145.7650 C   0  0  0  0  0  3  0  0  0  0  0  0
  189.2450  178.0280  144.4220 C   0  0  0  0  0  2  0  0  0  0  0  0
  192.0120  176.0160  146.0950 C   0  0  0  0  0  3  0  0  0  0  0  0
  191.6620  176.1470  147.4420 C   0  0  0  0  0  3  0  0  0  0  0  0
  190.0900  177.3580  145.4630 C   0  0  0  0  0  0  0  0  0  0  0  0
  191.5890  176.4690  143.7700 O   0  0  0  0  0  1  0  0  0  0  0  0
  190.5280  176.8800  147.8020 C   0  0  0  0  0  3  0  0  0  0  0  0
  189.7440  177.4830  146.8150 C   0  0  0  0  0  3  0  0  0  0  0  0
  191.2290  176.6170  145.1040 C   0  0  0  0  0  0  0  0  0  0  0  0
  188.0170  176.8900  142.6160 N   0  0  0  0  0  2  0  0  0  0  0  0
  188.9150  177.8350  141.9740 C   0  0  0  0  0  2  0  0  0  0  0  0
  187.4430  178.1150  138.5160 C   0  0  0  0  0  3  0  0  0  0  0  0
  188.2610  177.5940  136.2380 C   0  0  0  0  0  1  0  0  0  0  0  0
  189.6720  177.1680  138.2960 C   0  0  0  0  0  0  0  0  0  0  0  0
  190.9930  176.6690  137.2330 Cl  0  0  0  0  0  0  0  0  0  0  0  0
  189.8200  177.2050  139.7080 C   0  0  0  0  0  0  0  0  0  0  0  0
  188.4690  177.6170  137.7140 C   0  0  0  0  0  0  0  0  0  0  0  0
  188.7760  177.7290  140.4940 C   0  0  0  0  0  0  0  0  0  0  0  0
  187.5980  178.1780  139.8970 C   0  0  0  0  0  3  0  0  0  0  0  0
  192.1870  177.4880  140.4490 C   0  0  0  0  0  1  0  0  0  0  0  0
  190.9720  176.7570  140.3730 O   0  0  0  0  0  0  0  0  0  0  0  0
  1  8  1  6  0  0  0
  1  3  1  0  0  0  0
  2  6  1  0  0  0  0
  3  7  2  0  0  0  0
  4  5  1  0  0  0  0
  4  3  1  0  0  0  0
  5  2  1  0  0  0  0
  7  6  1  0  0  0  0
  8 11  1  0  0  0  0
  9 10  1  0  0  0  0
 10 13  2  0  0  0  0
 11 14  2  0  0  0  0
 12 15  1  0  0  0  0
 14 13  1  0  0  0  0
 15 11  1  0  0  0  0
 15  9  2  0  0  0  0
 16  1  1  0  0  0  0
 17 16  1  0  0  0  0
 18 25  1  0  0  0  0
 19 23  1  0  0  0  0
 20 22  2  0  0  0  0
 21 20  1  0  0  0  0
 22 27  1  0  0  0  0
 22 24  1  0  0  0  0
 23 20  1  0  0  0  0
 23 18  2  0  0  0  0
 24 17  1  0  0  0  0
 25 24  2  0  0  0  0
 27 26  1  0  0  0  0
M  END
>  <MODEL>
1

>  <REMARK>
 VINA RESULT:      -8.7      0.000      0.000
  Name = 
  7 active torsions:
  status: ('A' for Active; 'I' for Inactive)
    1  A    between atoms: C_1  and  C_15
    2  A    between atoms: C_1  and  C_18
    3  A    between atoms: N_2  and  C_6
    4  A    between atoms: N_2  and  C_15
    5  A    between atoms: C_6  and  C_17
    6  A    between atoms: C_9  and  C_15
    7  A    between atoms: C_14  and  O_19
                            x       y       z     vdW  Elec       q    Type
                         _______ _______ _______ _____ _____    ______ ____

>  <TORSDO>
F 7

$$$$
=
 OpenBabel11052413463D

 27 29  0  0  1  0  0  0  0  0999 V2000
  188.6640  178.0010  143.8600 C   0  0  2  0  0  3  0  0  0  0  0  0
  191.6450  176.6500  146.7260 C   0  0  0  0  0  2  0  0  0  0  0  0
  189.6320  177.3470  144.8120 C   0  0  0  0  0  0  0  0  0  0  0  0
  191.0000  176.9050  144.3290 C   0  0  0  0  0  2  0  0  0  0  0  0
  191.7420  176.0310  145.3400 C   0  0  0  0  0  2  0  0  0  0  0  0
  190.1830  176.6590  147.1560 C   0  0  0  0  0  2  0  0  0  0  0  0
  189.3040  177.3000  146.1160 C   0  0  0  0  0  3  0  0  0  0  0  0
  187.3970  177.1610  143.6520 C   0  0  0  0  0  2  0  0  0  0  0  0
  183.9720  178.7970  143.9630 C   0  0  0  0  0  3  0  0  0  0  0  0
  183.8730  178.9520  145.3490 C   0  0  0  0  0  3  0  0  0  0  0  0
  186.1680  177.7970  144.2290 C   0  0  0  0  0  0  0  0  0  0  0  0
  185.1990  178.0840  142.0190 O   0  0  0  0  0  1  0  0  0  0  0  0
  184.9190  178.5320  146.1750 C   0  0  0  0  0  3  0  0  0  0  0  0
  186.0630  177.9580  145.6160 C   0  0  0  0  0  3  0  0  0  0  0  0
  185.1160  178.2230  143.4000 C   0  0  0  0  0  0  0  0  0  0  0  0
  189.2870  178.3230  142.5840 N   0  0  0  0  0  2  0  0  0  0  0  0
  188.3970  177.8410  141.5420 C   0  0  0  0  0  2  0  0  0  0  0  0
  191.1310  176.4560  139.3480 C   0  0  0  0  0  3  0  0  0  0  0  0
  191.5240  176.3900  136.9050 C   0  0  0  0  0  1  0  0  0  0  0  0
  189.4860  177.5130  137.9020 C   0  0  0  0  0  0  0  0  0  0  0  0
  188.9050  177.8160  136.2610 Cl  0  0  0  0  0  0  0  0  0  0  0  0
  188.7320  177.8900  139.0450 C   0  0  0  0  0  0  0  0  0  0  0  0
  190.6930  176.8040  138.0710 C   0  0  0  0  0  0  0  0  0  0  0  0
  189.1870  177.5110  140.3220 C   0  0  0  0  0  0  0  0  0  0  0  0
  190.3790  176.8010  140.4670 C   0  0  0  0  0  3  0  0  0  0  0  0
  186.3310  178.1190  138.4010 C   0  0  0  0  0  1  0  0  0  0  0  0
  187.5330  178.6160  138.9710 O   0  0  0  0  0  0  0  0  0  0  0  0
  1  8  1  6  0  0  0
  1  3  1  0  0  0  0
  2  6  1  0  0  0  0
  3  7  2  0  0  0  0
  4  3  1  0  0  0  0
  4  5  1  0  0  0  0
  5  2  1  0  0  0  0
  7  6  1  0  0  0  0
  8 11  1  0  0  0  0
  9 10  1  0  0  0  0
 10 13  2  0  0  0  0
 11 14  2  0  0  0  0
 12 15  1  0  0  0  0
 14 13  1  0  0  0  0
 15  9  2  0  0  0  0
 15 11  1  0  0  0  0
 16  1  1  0  0  0  0
 17 16  1  0  0  0  0
 18 25  1  0  0  0  0
 19 23  1  0  0  0  0
 20 23  1  0  0  0  0
 20 22  2  0  0  0  0
 21 20  1  0  0  0  0
 22 24  1  0  0  0  0
 23 18  2  0  0  0  0
 24 25  2  0  0  0  0
 24 17  1  0  0  0  0
 26 27  1  0  0  0  0
 27 22  1  0  0  0  0
M  END
>  <MODEL>
2

>  <REMARK>
 VINA RESULT:      -8.7      1.851      4.842
  Name = 
  7 active torsions:
  status: ('A' for Active; 'I' for Inactive)
    1  A    between atoms: C_1  and  C_15
    2  A    between atoms: C_1  and  C_18
    3  A    between atoms: N_2  and  C_6
    4  A    between atoms: N_2  and  C_15
    5  A    between atoms: C_6  and  C_17
    6  A    between atoms: C_9  and  C_15
    7  A    between atoms: C_14  and  O_19
                            x       y       z     vdW  Elec       q    Type
                         _______ _______ _______ _____ _____    ______ ____

>  <TORSDO>
F 7

$$$$
=
 OpenBabel11052413463D

 27 29  0  0  1  0  0  0  0  0999 V2000
  188.0180  177.2060  144.2760 C   0  0  2  0  0  3  0  0  0  0  0  0
  184.2320  178.5630  145.9360 C   0  0  0  0  0  2  0  0  0  0  0  0
  186.7760  177.8630  144.8240 C   0  0  0  0  0  0  0  0  0  0  0  0
  185.6320  178.2300  143.8990 C   0  0  0  0  0  2  0  0  0  0  0  0
  184.5810  179.1170  144.5630 C   0  0  0  0  0  2  0  0  0  0  0  0
  185.4720  178.6310  146.8200 C   0  0  0  0  0  2  0  0  0  0  0  0
  186.6580  177.9800  146.1590 C   0  0  0  0  0  3  0  0  0  0  0  0
  189.2910  177.9810  144.6380 C   0  0  0  0  0  2  0  0  0  0  0  0
  192.1610  175.6980  145.6670 C   0  0  0  0  0  3  0  0  0  0  0  0
  192.0430  175.7290  147.0590 C   0  0  0  0  0  3  0  0  0  0  0  0
  190.2500  177.1820  145.4690 C   0  0  0  0  0  0  0  0  0  0  0  0
  191.3970  176.3710  143.4860 O   0  0  0  0  0  1  0  0  0  0  0  0
  191.0300  176.4830  147.6580 C   0  0  0  0  0  3  0  0  0  0  0  0
  190.1370  177.2070  146.8640 C   0  0  0  0  0  3  0  0  0  0  0  0
  191.2680  176.4210  144.8690 C   0  0  0  0  0  0  0  0  0  0  0  0
  187.9320  176.9910  142.8390 N   0  0  0  0  0  2  0  0  0  0  0  0
  188.6840  178.0600  142.2040 C   0  0  0  0  0  2  0  0  0  0  0  0
  190.1090  176.7090  138.9860 C   0  0  0  0  0  3  0  0  0  0  0  0
  189.3820  176.7460  136.6200 C   0  0  0  0  0  1  0  0  0  0  0  0
  188.0420  177.8740  138.4490 C   0  0  0  0  0  0  0  0  0  0  0  0
  186.8120  178.2680  137.2440 Cl  0  0  0  0  0  0  0  0  0  0  0  0
  187.8870  178.2170  139.8180 C   0  0  0  0  0  0  0  0  0  0  0  0
  189.1690  177.1270  138.0450 C   0  0  0  0  0  0  0  0  0  0  0  0
  188.8410  177.7670  140.7510 C   0  0  0  0  0  0  0  0  0  0  0  0
  189.9420  177.0210  140.3320 C   0  0  0  0  0  3  0  0  0  0  0  0
  185.4510  178.5720  140.2360 C   0  0  0  0  0  1  0  0  0  0  0  0
  186.8110  178.9760  140.3040 O   0  0  0  0  0  0  0  0  0  0  0  0
  1  8  1  6  0  0  0
  1  3  1  0  0  0  0
  2  6  1  0  0  0  0
  3  7  2  0  0  0  0
  4  5  1  0  0  0  0
  4  3  1  0  0  0  0
  5  2  1  0  0  0  0
  7  6  1  0  0  0  0
  8 11  1  0  0  0  0
  9 10  1  0  0  0  0
 10 13  2  0  0  0  0
 11 14  2  0  0  0  0
 12 15  1  0  0  0  0
 14 13  1  0  0  0  0
 15 11  1  0  0  0  0
 15  9  2  0  0  0  0
 16  1  1  0  0  0  0
 17 16  1  0  0  0  0
 18 25  1  0  0  0  0
 19 23  1  0  0  0  0
 20 22  2  0  0  0  0
 21 20  1  0  0  0  0
 22 27  1  0  0  0  0
 22 24  1  0  0  0  0
 23 20  1  0  0  0  0
 23 18  2  0  0  0  0
 24 17  1  0  0  0  0
 25 24  2  0  0  0  0
 26 27  1  0  0  0  0
M  END
>  <MODEL>
3

>  <REMARK>
 VINA RESULT:      -8.7      1.431      2.108
  Name = 
  7 active torsions:
  status: ('A' for Active; 'I' for Inactive)
    1  A    between atoms: C_1  and  C_15
    2  A    between atoms: C_1  and  C_18
    3  A    between atoms: N_2  and  C_6
    4  A    between atoms: N_2  and  C_15
    5  A    between atoms: C_6  and  C_17
    6  A    between atoms: C_9  and  C_15
    7  A    between atoms: C_14  and  O_19
                            x       y       z     vdW  Elec       q    Type
                         _______ _______ _______ _____ _____    ______ ____

>  <TORSDO>
F 7

$$$$
=
 OpenBabel11052413463D

 27 29  0  0  1  0  0  0  0  0999 V2000
  187.3910  177.8840  143.7680 C   0  0  2  0  0  3  0  0  0  0  0  0
  191.5110  176.5280  143.4280 C   0  0  0  0  0  2  0  0  0  0  0  0
  188.8070  177.4690  143.4570 C   0  0  0  0  0  0  0  0  0  0  0  0
  189.9440  178.4620  143.6000 C   0  0  0  0  0  2  0  0  0  0  0  0
  191.2570  177.9640  142.9970 C   0  0  0  0  0  2  0  0  0  0  0  0
  190.4110  175.6430  142.8530 C   0  0  0  0  0  2  0  0  0  0  0  0
  189.0430  176.1720  143.1920 C   0  0  0  0  0  3  0  0  0  0  0  0
  186.8220  177.1400  144.9830 C   0  0  0  0  0  2  0  0  0  0  0  0
  187.4380  178.6620  148.4190 C   0  0  0  0  0  3  0  0  0  0  0  0
  188.7320  178.2080  148.6860 C   0  0  0  0  0  3  0  0  0  0  0  0
  187.4800  177.5290  146.2730 C   0  0  0  0  0  0  0  0  0  0  0  0
  185.5240  178.7940  146.9650 O   0  0  0  0  0  1  0  0  0  0  0  0
  189.4030  177.4170  147.7490 C   0  0  0  0  0  3  0  0  0  0  0  0
  188.7780  177.0800  146.5460 C   0  0  0  0  0  3  0  0  0  0  0  0
  186.8090  178.3270  147.2160 C   0  0  0  0  0  0  0  0  0  0  0  0
  186.5140  177.7390  142.6140 N   0  0  0  0  0  2  0  0  0  0  0  0
  185.8790  179.0280  142.4000 C   0  0  0  0  0  2  0  0  0  0  0  0
  182.5950  179.0030  144.2510 C   0  0  0  0  0  3  0  0  0  0  0  0
  180.2290  178.7260  143.5760 C   0  0  0  0  0  1  0  0  0  0  0  0
  182.1210  178.6170  141.8970 C   0  0  0  0  0  0  0  0  0  0  0  0
  180.9140  178.4630  140.6150 Cl  0  0  0  0  0  0  0  0  0  0  0  0
  183.5120  178.6670  141.6140 C   0  0  0  0  0  0  0  0  0  0  0  0
  181.6770  178.7750  143.2260 C   0  0  0  0  0  0  0  0  0  0  0  0
  184.4160  178.9150  142.6640 C   0  0  0  0  0  0  0  0  0  0  0  0
  183.9570  179.0790  143.9710 C   0  0  0  0  0  3  0  0  0  0  0  0
  184.0230  179.4930  139.3140 C   0  0  0  0  0  1  0  0  0  0  0  0
  184.0420  178.4960  140.3260 O   0  0  0  0  0  0  0  0  0  0  0  0
  1  8  1  1  0  0  0
  3  4  1  0  0  0  0
  3  1  1  0  0  0  0
  5  2  1  0  0  0  0
  5  4  1  0  0  0  0
  6  7  1  0  0  0  0
  6  2  1  0  0  0  0
  7  3  2  0  0  0  0
  8 11  1  0  0  0  0
  9 10  1  0  0  0  0
 11 14  2  0  0  0  0
 11 15  1  0  0  0  0
 12 15  1  0  0  0  0
 13 10  2  0  0  0  0
 14 13  1  0  0  0  0
 15  9  2  0  0  0  0
 16  1  1  0  0  0  0
 17 16  1  0  0  0  0
 17 24  1  0  0  0  0
 20 23  1  0  0  0  0
 21 20  1  0  0  0  0
 22 20  2  0  0  0  0
 22 24  1  0  0  0  0
 23 19  1  0  0  0  0
 23 18  2  0  0  0  0
 24 25  2  0  0  0  0
 25 18  1  0  0  0  0
 26 27  1  0  0  0  0
 27 22  1  0  0  0  0
M  END
>  <MODEL>
4

>  <REMARK>
 VINA RESULT:      -8.6      3.819      6.160
  Name = 
  7 active torsions:
  status: ('A' for Active; 'I' for Inactive)
    1  A    between atoms: C_1  and  C_15
    2  A    between atoms: C_1  and  C_18
    3  A    between atoms: N_2  and  C_6
    4  A    between atoms: N_2  and  C_15
    5  A    between atoms: C_6  and  C_17
    6  A    between atoms: C_9  and  C_15
    7  A    between atoms: C_14  and  O_19
                            x       y       z     vdW  Elec       q    Type
                         _______ _______ _______ _____ _____    ______ ____

>  <TORSDO>
F 7

$$$$
=
 OpenBabel11052413463D

 27 29  0  0  1  0  0  0  0  0999 V2000
  187.9350  177.7500  143.0150 C   0  0  2  0  0  3  0  0  0  0  0  0
  190.9120  177.0310  139.9250 C   0  0  0  0  0  2  0  0  0  0  0  0
  189.0260  177.6910  141.9760 C   0  0  0  0  0  0  0  0  0  0  0  0
  190.4270  177.2540  142.3610 C   0  0  0  0  0  2  0  0  0  0  0  0
  191.4590  177.5040  141.2630 C   0  0  0  0  0  2  0  0  0  0  0  0
  189.6930  177.8740  139.5690 C   0  0  0  0  0  2  0  0  0  0  0  0
  188.6880  177.8940  140.6900 C   0  0  0  0  0  3  0  0  0  0  0  0
  188.1020  176.6730  144.0940 C   0  0  0  0  0  2  0  0  0  0  0  0
  189.1450  177.8040  147.5790 C   0  0  0  0  0  3  0  0  0  0  0  0
  187.9340  178.2910  148.0760 C   0  0  0  0  0  3  0  0  0  0  0  0
  188.0550  177.2240  145.4880 C   0  0  0  0  0  0  0  0  0  0  0  0
  190.4230  176.7820  145.8130 O   0  0  0  0  0  1  0  0  0  0  0  0
  186.7830  178.2450  147.2850 C   0  0  0  0  0  3  0  0  0  0  0  0
  186.8450  177.7130  145.9940 C   0  0  0  0  0  3  0  0  0  0  0  0
  189.2100  177.2690  146.2880 C   0  0  0  0  0  0  0  0  0  0  0  0
  186.6090  177.6840  142.4170 N   0  0  0  0  0  2  0  0  0  0  0  0
  186.0280  179.0120  142.5250 C   0  0  0  0  0  2  0  0  0  0  0  0
  182.8210  179.0020  144.5060 C   0  0  0  0  0  3  0  0  0  0  0  0
  180.4310  178.7090  143.9300 C   0  0  0  0  0  1  0  0  0  0  0  0
  182.2540  178.5820  142.1780 C   0  0  0  0  0  0  0  0  0  0  0  0
  180.9980  178.4070  140.9470 Cl  0  0  0  0  0  0  0  0  0  0  0  0
  183.6320  178.6320  141.8400 C   0  0  0  0  0  0  0  0  0  0  0  0
  181.8630  178.7570  143.5220 C   0  0  0  0  0  0  0  0  0  0  0  0
  184.5770  178.8980  142.8490 C   0  0  0  0  0  0  0  0  0  0  0  0
  184.1690  179.0790  144.1710 C   0  0  0  0  0  3  0  0  0  0  0  0
  183.9580  179.3870  139.4820 C   0  0  0  0  0  1  0  0  0  0  0  0
  184.1120  178.4450  140.5340 O   0  0  0  0  0  0  0  0  0  0  0  0
  1  8  1  1  0  0  0
  2  5  1  0  0  0  0
  3  4  1  0  0  0  0
  3  1  1  0  0  0  0
  5  4  1  0  0  0  0
  6  2  1  0  0  0  0
  6  7  1  0  0  0  0
  7  3  2  0  0  0  0
  8 11  1  0  0  0  0
  9 10  1  0  0  0  0
 11 14  2  0  0  0  0
 11 15  1  0  0  0  0
 12 15  1  0  0  0  0
 13 10  2  0  0  0  0
 14 13  1  0  0  0  0
 15  9  2  0  0  0  0
 16 17  1  0  0  0  0
 16  1  1  0  0  0  0
 17 24  1  0  0  0  0
 20 23  1  0  0  0  0
 21 20  1  0  0  0  0
 22 20  2  0  0  0  0
 22 24  1  0  0  0  0
 23 19  1  0  0  0  0
 23 18  2  0  0  0  0
 24 25  2  0  0  0  0
 25 18  1  0  0  0  0
 26 27  1  0  0  0  0
 27 22  1  0  0  0  0
M  END
>  <MODEL>
5

>  <REMARK>
 VINA RESULT:      -8.4      3.056      6.171
  Name = 
  7 active torsions:
  status: ('A' for Active; 'I' for Inactive)
    1  A    between atoms: C_1  and  C_15
    2  A    between atoms: C_1  and  C_18
    3  A    between atoms: N_2  and  C_6
    4  A    between atoms: N_2  and  C_15
    5  A    between atoms: C_6  and  C_17
    6  A    between atoms: C_9  and  C_15
    7  A    between atoms: C_14  and  O_19
                            x       y       z     vdW  Elec       q    Type
                         _______ _______ _______ _____ _____    ______ ____

>  <TORSDO>
F 7

$$$$
=
 OpenBabel11052413463D

 27 29  0  0  1  0  0  0  0  0999 V2000
  187.9320  177.2310  143.8320 C   0  0  2  0  0  3  0  0  0  0  0  0
  188.9590  178.0850  147.9720 C   0  0  0  0  0  2  0  0  0  0  0  0
  188.2570  177.3310  145.3010 C   0  0  0  0  0  0  0  0  0  0  0  0
  189.6780  177.1230  145.7860 C   0  0  0  0  0  2  0  0  0  0  0  0
  189.7830  176.9950  147.3050 C   0  0  0  0  0  2  0  0  0  0  0  0
  187.4910  177.8710  147.6240 C   0  0  0  0  0  2  0  0  0  0  0  0
  187.2890  177.7470  146.1370 C   0  0  0  0  0  3  0  0  0  0  0  0
  188.5110  178.4020  143.0290 C   0  0  0  0  0  2  0  0  0  0  0  0
  190.1750  177.4590  139.7350 C   0  0  0  0  0  3  0  0  0  0  0  0
  191.4820  177.2040  140.1580 C   0  0  0  0  0  3  0  0  0  0  0  0
  189.5340  177.9740  142.0190 C   0  0  0  0  0  0  0  0  0  0  0  0
  187.9030  178.0860  140.2210 O   0  0  0  0  0  1  0  0  0  0  0  0
  191.8170  177.3300  141.5090 C   0  0  0  0  0  3  0  0  0  0  0  0
  190.8450  177.7130  142.4360 C   0  0  0  0  0  3  0  0  0  0  0  0
  189.1990  177.8430  140.6600 C   0  0  0  0  0  0  0  0  0  0  0  0
  186.5000  177.0990  143.5980 N   0  0  0  0  0  2  0  0  0  0  0  0
  186.0780  178.2860  142.8740 C   0  0  0  0  0  2  0  0  0  0  0  0
  182.7290  178.8850  144.4960 C   0  0  0  0  0  3  0  0  0  0  0  0
  180.4150  179.1310  143.6510 C   0  0  0  0  0  1  0  0  0  0  0  0
  182.3650  178.6860  142.0990 C   0  0  0  0  0  0  0  0  0  0  0  0
  181.2530  178.8300  140.7330 Cl  0  0  0  0  0  0  0  0  0  0  0  0
  183.7530  178.4530  141.9140 C   0  0  0  0  0  0  0  0  0  0  0  0
  181.8640  178.8890  143.4020 C   0  0  0  0  0  0  0  0  0  0  0  0
  184.6080  178.4720  143.0330 C   0  0  0  0  0  0  0  0  0  0  0  0
  184.0940  178.6850  144.3120 C   0  0  0  0  0  3  0  0  0  0  0  0
  184.5070  179.2130  139.6580 C   0  0  0  0  0  1  0  0  0  0  0  0
  184.3340  178.2180  140.6570 O   0  0  0  0  0  0  0  0  0  0  0  0
  1  8  1  6  0  0  0
  1  3  1  0  0  0  0
  3  4  1  0  0  0  0
  3  7  2  0  0  0  0
  4  5  1  0  0  0  0
  5  2  1  0  0  0  0
  6  2  1  0  0  0  0
  7  6  1  0  0  0  0
  9 10  2  0  0  0  0
  9 15  1  0  0  0  0
 10 13  1  0  0  0  0
 11 14  1  0  0  0  0
 11  8  1  0  0  0  0
 12 15  1  0  0  0  0
 13 14  2  0  0  0  0
 15 11  2  0  0  0  0
 16  1  1  0  0  0  0
 17 24  1  0  0  0  0
 17 16  1  0  0  0  0
 20 23  1  0  0  0  0
 21 20  1  0  0  0  0
 22 20  2  0  0  0  0
 22 24  1  0  0  0  0
 23 19  1  0  0  0  0
 23 18  2  0  0  0  0
 24 25  2  0  0  0  0
 25 18  1  0  0  0  0
 26 27  1  0  0  0  0
 27 22  1  0  0  0  0
M  END
>  <MODEL>
6

>  <REMARK>
 VINA RESULT:      -8.3      3.013      6.080
  Name = 
  7 active torsions:
  status: ('A' for Active; 'I' for Inactive)
    1  A    between atoms: C_1  and  C_15
    2  A    between atoms: C_1  and  C_18
    3  A    between atoms: N_2  and  C_6
    4  A    between atoms: N_2  and  C_15
    5  A    between atoms: C_6  and  C_17
    6  A    between atoms: C_9  and  C_15
    7  A    between atoms: C_14  and  O_19
                            x       y       z     vdW  Elec       q    Type
                         _______ _______ _______ _____ _____    ______ ____

>  <TORSDO>
F 7

$$$$
=
 OpenBabel11052413463D

 27 29  0  0  1  0  0  0  0  0999 V2000
  188.1710  177.5720  142.8070 C   0  0  2  0  0  3  0  0  0  0  0  0
  191.8980  176.9960  144.9760 C   0  0  0  0  0  2  0  0  0  0  0  0
  189.5540  177.4370  143.3920 C   0  0  0  0  0  0  0  0  0  0  0  0
  190.1970  178.6050  144.1140 C   0  0  0  0  0  2  0  0  0  0  0  0
  191.6820  178.3890  144.4050 C   0  0  0  0  0  2  0  0  0  0  0  0
  191.5140  175.9690  143.9190 C   0  0  0  0  0  2  0  0  0  0  0  0
  190.1320  176.2220  143.3780 C   0  0  0  0  0  3  0  0  0  0  0  0
  187.1280  176.7680  143.5940 C   0  0  0  0  0  2  0  0  0  0  0  0
  184.7350  178.9600  145.5860 C   0  0  0  0  0  3  0  0  0  0  0  0
  185.3550  178.9660  146.8380 C   0  0  0  0  0  3  0  0  0  0  0  0
  186.5050  177.5480  144.7130 C   0  0  0  0  0  0  0  0  0  0  0  0
  184.6770  178.2670  143.2820 O   0  0  0  0  0  1  0  0  0  0  0  0
  186.5500  178.2670  147.0300 C   0  0  0  0  0  3  0  0  0  0  0  0
  187.1230  177.5600  145.9690 C   0  0  0  0  0  3  0  0  0  0  0  0
  185.3050  178.2550  144.5220 C   0  0  0  0  0  0  0  0  0  0  0  0
  188.1390  177.2200  141.3940 N   0  0  0  0  0  2  0  0  0  0  0  0
  188.7810  178.3060  140.6720 C   0  0  0  0  0  2  0  0  0  0  0  0
  191.4620  176.5120  138.7210 C   0  0  0  0  0  3  0  0  0  0  0  0
  191.8180  176.0130  136.3230 C   0  0  0  0  0  1  0  0  0  0  0  0
  189.8110  177.3280  137.1330 C   0  0  0  0  0  0  0  0  0  0  0  0
  189.2100  177.3500  135.4710 Cl  0  0  0  0  0  0  0  0  0  0  0  0
  189.0800  177.9120  138.2010 C   0  0  0  0  0  0  0  0  0  0  0  0
  191.0100  176.6390  137.4080 C   0  0  0  0  0  0  0  0  0  0  0  0
  189.5480  177.7540  139.5190 C   0  0  0  0  0  0  0  0  0  0  0  0
  190.7320  177.0610  139.7720 C   0  0  0  0  0  3  0  0  0  0  0  0
  186.6290  178.0420  137.7460 C   0  0  0  0  0  1  0  0  0  0  0  0
  187.8910  178.6350  138.0160 O   0  0  0  0  0  0  0  0  0  0  0  0
  1  3  1  0  0  0  0
  1  8  1  1  0  0  0
  3  4  1  0  0  0  0
  4  5  1  0  0  0  0
  5  2  1  0  0  0  0
  6  2  1  0  0  0  0
  7  3  2  0  0  0  0
  7  6  1  0  0  0  0
  8 11  1  0  0  0  0
  9 10  1  0  0  0  0
 10 13  2  0  0  0  0
 11 14  2  0  0  0  0
 12 15  1  0  0  0  0
 14 13  1  0  0  0  0
 15 11  1  0  0  0  0
 15  9  2  0  0  0  0
 16  1  1  0  0  0  0
 17 16  1  0  0  0  0
 18 25  1  0  0  0  0
 19 23  1  0  0  0  0
 20 23  1  0  0  0  0
 20 22  2  0  0  0  0
 21 20  1  0  0  0  0
 22 24  1  0  0  0  0
 23 18  2  0  0  0  0
 24 25  2  0  0  0  0
 24 17  1  0  0  0  0
 26 27  1  0  0  0  0
 27 22  1  0  0  0  0
M  END
>  <MODEL>
7

>  <REMARK>
 VINA RESULT:      -8.3      2.188      4.688
  Name = 
  7 active torsions:
  status: ('A' for Active; 'I' for Inactive)
    1  A    between atoms: C_1  and  C_15
    2  A    between atoms: C_1  and  C_18
    3  A    between atoms: N_2  and  C_6
    4  A    between atoms: N_2  and  C_15
    5  A    between atoms: C_6  and  C_17
    6  A    between atoms: C_9  and  C_15
    7  A    between atoms: C_14  and  O_19
                            x       y       z     vdW  Elec       q    Type
                         _______ _______ _______ _____ _____    ______ ____

>  <TORSDO>
F 7

$$$$
=
 OpenBabel11052413463D

 27 29  0  0  1  0  0  0  0  0999 V2000
  188.0420  177.9000  141.1790 C   0  0  2  0  0  3  0  0  0  0  0  0
  190.2370  176.7780  137.5940 C   0  0  0  0  0  2  0  0  0  0  0  0
  188.9230  177.6670  139.9780 C   0  0  0  0  0  0  0  0  0  0  0  0
  190.1460  176.7770  140.0870 C   0  0  0  0  0  2  0  0  0  0  0  0
  191.0630  176.8630  138.8680 C   0  0  0  0  0  2  0  0  0  0  0  0
  189.3180  177.9920  137.5260 C   0  0  0  0  0  2  0  0  0  0  0  0
  188.5150  178.1490  138.7900 C   0  0  0  0  0  3  0  0  0  0  0  0
  187.2320  179.1980  141.0610 C   0  0  0  0  0  2  0  0  0  0  0  0
  183.4880  178.7830  140.5020 C   0  0  0  0  0  3  0  0  0  0  0  0
  183.0390  178.6020  141.8130 C   0  0  0  0  0  3  0  0  0  0  0  0
  185.7670  179.0030  141.3100 C   0  0  0  0  0  0  0  0  0  0  0  0
  185.2740  179.1690  138.9360 O   0  0  0  0  0  1  0  0  0  0  0  0
  183.9500  178.6230  142.8730 C   0  0  0  0  0  3  0  0  0  0  0  0
  185.3090  178.8230  142.6210 C   0  0  0  0  0  3  0  0  0  0  0  0
  184.8480  178.9840  140.2460 C   0  0  0  0  0  0  0  0  0  0  0  0
  188.7970  177.8710  142.4240 N   0  0  0  0  0  2  0  0  0  0  0  0
  188.2710  176.7700  143.2130 C   0  0  0  0  0  2  0  0  0  0  0  0
  187.1610  177.8200  146.6580 C   0  0  0  0  0  3  0  0  0  0  0  0
  188.2960  178.0610  148.8450 C   0  0  0  0  0  1  0  0  0  0  0  0
  189.5430  177.3400  146.7630 C   0  0  0  0  0  0  0  0  0  0  0  0
  190.9880  177.1230  147.7570 Cl  0  0  0  0  0  0  0  0  0  0  0  0
  189.5390  177.0480  145.3730 C   0  0  0  0  0  0  0  0  0  0  0  0
  188.3440  177.7380  147.3910 C   0  0  0  0  0  0  0  0  0  0  0  0
  188.3270  177.1210  144.6600 C   0  0  0  0  0  0  0  0  0  0  0  0
  187.1510  177.5070  145.3020 C   0  0  0  0  0  3  0  0  0  0  0  0
  191.6760  177.5760  144.1960 C   0  0  0  0  0  1  0  0  0  0  0  0
  190.6890  176.6690  144.6630 O   0  0  0  0  0  0  0  0  0  0  0  0
  1  8  1  6  0  0  0
  1 16  1  0  0  0  0
  2  5  1  0  0  0  0
  3  4  1  0  0  0  0
  3  1  1  0  0  0  0
  5  4  1  0  0  0  0
  6  2  1  0  0  0  0
  6  7  1  0  0  0  0
  7  3  2  0  0  0  0
  8 11  1  0  0  0  0
  9 10  1  0  0  0  0
 10 13  2  0  0  0  0
 11 14  2  0  0  0  0
 12 15  1  0  0  0  0
 14 13  1  0  0  0  0
 15  9  2  0  0  0  0
 15 11  1  0  0  0  0
 16 17  1  0  0  0  0
 17 24  1  0  0  0  0
 18 23  1  0  0  0  0
 20 23  2  0  0  0  0
 20 21  1  0  0  0  0
 22 20  1  0  0  0  0
 23 19  1  0  0  0  0
 24 25  1  0  0  0  0
 24 22  2  0  0  0  0
 25 18  2  0  0  0  0
 26 27  1  0  0  0  0
 27 22  1  0  0  0  0
M  END
>  <MODEL>
8

>  <REMARK>
 VINA RESULT:      -8.3      2.830      7.542
  Name = 
  7 active torsions:
  status: ('A' for Active; 'I' for Inactive)
    1  A    between atoms: C_1  and  C_15
    2  A    between atoms: C_1  and  C_18
    3  A    between atoms: N_2  and  C_6
    4  A    between atoms: N_2  and  C_15
    5  A    between atoms: C_6  and  C_17
    6  A    between atoms: C_9  and  C_15
    7  A    between atoms: C_14  and  O_19
                            x       y       z     vdW  Elec       q    Type
                         _______ _______ _______ _____ _____    ______ ____

>  <TORSDO>
F 7

$$$$
=
 OpenBabel11052413463D

 27 29  0  0  1  0  0  0  0  0999 V2000
  188.5480  177.4320  144.0800 C   0  0  2  0  0  3  0  0  0  0  0  0
  191.1860  176.2550  147.3330 C   0  0  0  0  0  2  0  0  0  0  0  0
  189.5120  177.2190  145.2190 C   0  0  0  0  0  0  0  0  0  0  0  0
  189.0360  177.3230  146.6550 C   0  0  0  0  0  2  0  0  0  0  0  0
  190.1790  177.3440  147.6690 C   0  0  0  0  0  2  0  0  0  0  0  0
  191.8080  176.5650  145.9780 C   0  0  0  0  0  2  0  0  0  0  0  0
  190.7560  176.7970  144.9260 C   0  0  0  0  0  3  0  0  0  0  0  0
  187.1780  176.8000  144.3540 C   0  0  0  0  0  2  0  0  0  0  0  0
  184.3280  179.2230  145.0680 C   0  0  0  0  0  3  0  0  0  0  0  0
  183.9380  179.5680  143.7720 C   0  0  0  0  0  3  0  0  0  0  0  0
  186.0400  177.7580  144.1650 C   0  0  0  0  0  0  0  0  0  0  0  0
  185.7440  177.9820  146.5670 O   0  0  0  0  0  1  0  0  0  0  0  0
  184.5940  179.0100  142.6720 C   0  0  0  0  0  3  0  0  0  0  0  0
  185.6410  178.1060  142.8690 C   0  0  0  0  0  3  0  0  0  0  0  0
  185.3750  178.3190  145.2700 C   0  0  0  0  0  0  0  0  0  0  0  0
  189.0910  176.9650  142.8120 N   0  0  0  0  0  2  0  0  0  0  0  0
  189.3770  178.1450  142.0120 C   0  0  0  0  0  2  0  0  0  0  0  0
  187.5370  178.0330  138.7250 C   0  0  0  0  0  3  0  0  0  0  0  0
  188.0970  177.2230  136.4530 C   0  0  0  0  0  1  0  0  0  0  0  0
  189.7220  177.0210  138.3840 C   0  0  0  0  0  0  0  0  0  0  0  0
  190.9150  176.3690  137.2550 Cl  0  0  0  0  0  0  0  0  0  0  0  0
  190.0240  177.2260  139.7570 C   0  0  0  0  0  0  0  0  0  0  0  0
  188.4660  177.4200  137.8840 C   0  0  0  0  0  0  0  0  0  0  0  0
  189.0760  177.8630  140.5800 C   0  0  0  0  0  0  0  0  0  0  0  0
  187.8430  178.2600  140.0630 C   0  0  0  0  0  3  0  0  0  0  0  0
  192.4580  177.5540  140.2070 C   0  0  0  0  0  1  0  0  0  0  0  0
  191.2390  176.8380  140.3440 O   0  0  0  0  0  0  0  0  0  0  0  0
  1  8  1  1  0  0  0
  1  3  1  0  0  0  0
  2  5  1  0  0  0  0
  3  4  1  0  0  0  0
  4  5  1  0  0  0  0
  6  2  1  0  0  0  0
  7  3  2  0  0  0  0
  7  6  1  0  0  0  0
  9 15  1  0  0  0  0
 10  9  2  0  0  0  0
 11  8  1  0  0  0  0
 11 15  2  0  0  0  0
 13 14  2  0  0  0  0
 13 10  1  0  0  0  0
 14 11  1  0  0  0  0
 15 12  1  0  0  0  0
 16  1  1  0  0  0  0
 17 16  1  0  0  0  0
 18 25  1  0  0  0  0
 19 23  1  0  0  0  0
 20 22  2  0  0  0  0
 21 20  1  0  0  0  0
 22 27  1  0  0  0  0
 22 24  1  0  0  0  0
 23 20  1  0  0  0  0
 23 18  2  0  0  0  0
 24 17  1  0  0  0  0
 25 24  2  0  0  0  0
 26 27  1  0  0  0  0
M  END
>  <MODEL>
9

>  <REMARK>
 VINA RESULT:      -8.2      1.428      4.598
  Name = 
  7 active torsions:
  status: ('A' for Active; 'I' for Inactive)
    1  A    between atoms: C_1  and  C_15
    2  A    between atoms: C_1  and  C_18
    3  A    between atoms: N_2  and  C_6
    4  A    between atoms: N_2  and  C_15
    5  A    between atoms: C_6  and  C_17
    6  A    between atoms: C_9  and  C_15
    7  A    between atoms: C_14  and  O_19
                            x       y       z     vdW  Elec       q    Type
                         _______ _______ _______ _____ _____    ______ ____

>  <TORSDO>
F 7

$$$$
