=
 OpenBabel11052413473D

 27 28  0  0  1  0  0  0  0  0999 V2000
  186.9330  177.9660  143.4600 C   0  0  1  0  0  3  0  0  0  0  0  0
  186.9780  178.2290  147.7550 C   0  0  0  0  0  3  0  0  0  0  0  0
  186.9740  178.0620  144.9580 C   0  0  0  0  0  0  0  0  0  0  0  0
  188.0280  177.5060  145.6990 C   0  0  0  0  0  3  0  0  0  0  0  0
  188.0300  177.5900  147.0940 C   0  0  0  0  0  3  0  0  0  0  0  0
  185.9240  178.7830  147.0220 C   0  0  0  0  0  3  0  0  0  0  0  0
  185.9220  178.6980  145.6270 C   0  0  0  0  0  3  0  0  0  0  0  0
  187.9600  177.0810  142.9020 N   0  0  0  0  0  0  0  0  0  0  0  0
  187.9730  175.7230  143.2520 N   0  0  0  0  0  1  0  0  0  0  0  0
  188.3900  178.7990  139.8710 O   0  0  0  0  0  0  0  0  0  0  0  0
  188.9890  177.5950  142.0380 C   0  0  0  0  0  0  0  0  0  0  0  0
  188.6810  178.2150  140.9220 C   0  0  0  0  0  0  0  0  0  0  0  0
  191.4300  175.6320  143.8180 C   0  0  0  0  0  3  0  0  0  0  0  0
  191.7370  177.1040  145.7780 C   0  0  0  0  0  2  0  0  0  0  0  0
  190.7000  177.9230  143.7520 N   0  0  0  0  0  0  0  0  0  0  0  0
  190.6680  179.3370  144.0960 C   0  0  0  0  0  1  0  0  0  0  0  0
  191.2810  176.9080  144.5480 C   0  0  0  0  0  0  0  0  0  0  0  0
  190.4360  177.4150  142.4180 C   0  0  1  0  0  3  0  0  0  0  0  0
  190.8290  175.9290  142.4410 C   0  0  0  0  0  3  0  0  0  0  0  0
  185.5530  177.8080  142.7910 C   0  0  0  0  0  2  0  0  0  0  0  0
  184.8510  179.0730  142.2750 C   0  0  2  0  0  3  0  0  0  0  0  0
  183.3350  178.9110  142.2710 C   0  0  0  0  0  2  0  0  0  0  0  0
  181.2540  178.8340  143.6420 C   0  0  0  0  0  1  0  0  0  0  0  0
  182.7660  178.9500  143.6790 C   0  0  0  0  0  2  0  0  0  0  0  0
  185.3460  179.4740  140.9670 N   0  0  0  0  0  2  0  0  0  0  0  0
  184.2340  180.2320  139.0740 O   0  0  0  0  0  1  0  0  0  0  0  0
  184.2890  179.2010  140.0090 C   0  0  0  0  0  2  0  0  0  0  0  0
  1 20  1  1  0  0  0
  1  3  1  0  0  0  0
  3  7  2  0  0  0  0
  3  4  1  0  0  0  0
  4  5  2  0  0  0  0
  5  2  1  0  0  0  0
  6  2  2  0  0  0  0
  7  6  1  0  0  0  0
  8  9  1  0  0  0  0
  8  1  1  0  0  0  0
 10 12  2  0  0  0  0
 11  8  1  0  0  0  0
 12 11  2  0  0  0  0
 13 17  1  0  0  0  0
 15 16  1  0  0  0  0
 15 17  1  0  0  0  0
 17 14  2  0  0  0  0
 18 11  1  1  0  0  0
 18 19  1  0  0  0  0
 18 15  1  0  0  0  0
 19 13  2  0  0  0  0
 21 22  1  6  0  0  0
 21 20  1  0  0  0  0
 22 24  1  0  0  0  0
 23 24  1  0  0  0  0
 25 21  1  0  0  0  0
 26 27  1  0  0  0  0
 27 25  1  0  0  0  0
M  END
>  <MODEL>
1

>  <REMARK>
 VINA RESULT:      -8.0      0.000      0.000
  Name = 
  10 active torsions:
  status: ('A' for Active; 'I' for Inactive)
    1  A    between atoms: C_1  and  C_15
    2  A    between atoms: C_1  and  C_18
    3  A    between atoms: N_2  and  C_14
    4  A    between atoms: N_2  and  C_15
    5  A    between atoms: C_9  and  C_15
    6  A    between atoms: C_14  and  C_17
    7  A    between atoms: C_18  and  C_24
    8  A    between atoms: C_18  and  N_26
    9  A    between atoms: C_20  and  N_26
   10  A    between atoms: C_22  and  C_24
                            x       y       z     vdW  Elec       q    Type
                         _______ _______ _______ _____ _____    ______ ____

>  <TORSDO>
F 10

$$$$
=
 OpenBabel11052413473D

 27 28  0  0  1  0  0  0  0  0999 V2000
  187.7670  177.8010  143.7410 C   0  0  1  0  0  3  0  0  0  0  0  0
  188.1660  177.4950  148.0140 C   0  0  0  0  0  3  0  0  0  0  0  0
  187.9320  177.7000  145.2300 C   0  0  0  0  0  0  0  0  0  0  0  0
  189.0740  177.1230  145.8030 C   0  0  0  0  0  3  0  0  0  0  0  0
  189.1910  177.0210  147.1920 C   0  0  0  0  0  3  0  0  0  0  0  0
  187.0240  178.0710  147.4490 C   0  0  0  0  0  3  0  0  0  0  0  0
  186.9080  178.1720  146.0600 C   0  0  0  0  0  3  0  0  0  0  0  0
  188.8350  177.1370  142.9880 N   0  0  0  0  0  0  0  0  0  0  0  0
  188.8090  175.7440  142.8250 N   0  0  0  0  0  1  0  0  0  0  0  0
  191.8020  178.7260  143.9860 O   0  0  0  0  0  0  0  0  0  0  0  0
  189.9420  177.8870  142.4560 C   0  0  0  0  0  0  0  0  0  0  0  0
  190.9000  178.3190  143.2440 C   0  0  0  0  0  0  0  0  0  0  0  0
  188.8640  176.9700  139.1420 C   0  0  0  0  0  3  0  0  0  0  0  0
  190.9300  175.8560  138.3720 C   0  0  0  0  0  2  0  0  0  0  0  0
  190.9440  177.3150  140.3020 N   0  0  0  0  0  0  0  0  0  0  0  0
  192.3850  177.3950  140.4870 C   0  0  0  0  0  1  0  0  0  0  0  0
  190.2990  176.6330  139.2430 C   0  0  0  0  0  0  0  0  0  0  0  0
  189.9980  178.1820  140.9790 C   0  0  1  0  0  3  0  0  0  0  0  0
  188.6360  177.9390  140.3070 C   0  0  0  0  0  3  0  0  0  0  0  0
  186.3610  177.5600  143.1580 C   0  0  0  0  0  2  0  0  0  0  0  0
  185.4630  178.7810  142.9070 C   0  0  2  0  0  3  0  0  0  0  0  0
  183.9860  178.4060  142.9310 C   0  0  0  0  0  2  0  0  0  0  0  0
  183.5520  178.9230  145.3320 C   0  0  0  0  0  1  0  0  0  0  0  0
  183.2050  179.2800  143.8980 C   0  0  0  0  0  2  0  0  0  0  0  0
  185.8160  179.4690  141.6750 N   0  0  0  0  0  2  0  0  0  0  0  0
  184.7360  179.8620  139.6550 O   0  0  0  0  0  1  0  0  0  0  0  0
  185.0080  178.8900  140.6160 C   0  0  0  0  0  2  0  0  0  0  0  0
  1 20  1  1  0  0  0
  1  3  1  0  0  0  0
  3  4  2  0  0  0  0
  3  7  1  0  0  0  0
  4  5  1  0  0  0  0
  5  2  2  0  0  0  0
  6  2  1  0  0  0  0
  7  6  2  0  0  0  0
  8  1  1  0  0  0  0
  9  8  1  0  0  0  0
 11  8  1  0  0  0  0
 11 12  2  0  0  0  0
 12 10  2  0  0  0  0
 13 17  1  0  0  0  0
 13 19  2  0  0  0  0
 14 17  2  0  0  0  0
 15 16  1  0  0  0  0
 15 18  1  0  0  0  0
 17 15  1  0  0  0  0
 18 11  1  1  0  0  0
 19 18  1  0  0  0  0
 21 22  1  6  0  0  0
 21 20  1  0  0  0  0
 22 24  1  0  0  0  0
 24 23  1  0  0  0  0
 25 21  1  0  0  0  0
 26 27  1  0  0  0  0
 27 25  1  0  0  0  0
M  END
>  <MODEL>
2

>  <REMARK>
 VINA RESULT:      -7.8      1.912      2.922
  Name = 
  10 active torsions:
  status: ('A' for Active; 'I' for Inactive)
    1  A    between atoms: C_1  and  C_15
    2  A    between atoms: C_1  and  C_18
    3  A    between atoms: N_2  and  C_14
    4  A    between atoms: N_2  and  C_15
    5  A    between atoms: C_9  and  C_15
    6  A    between atoms: C_14  and  C_17
    7  A    between atoms: C_18  and  C_24
    8  A    between atoms: C_18  and  N_26
    9  A    between atoms: C_20  and  N_26
   10  A    between atoms: C_22  and  C_24
                            x       y       z     vdW  Elec       q    Type
                         _______ _______ _______ _____ _____    ______ ____

>  <TORSDO>
F 10

$$$$
=
 OpenBabel11052413473D

 27 28  0  0  1  0  0  0  0  0999 V2000
  188.3820  177.7360  143.9870 C   0  0  1  0  0  3  0  0  0  0  0  0
  184.2440  178.6020  144.7870 C   0  0  0  0  0  3  0  0  0  0  0  0
  186.9310  178.0190  144.2510 C   0  0  0  0  0  0  0  0  0  0  0  0
  185.9780  177.9700  143.2230 C   0  0  0  0  0  3  0  0  0  0  0  0
  184.6370  178.2610  143.4910 C   0  0  0  0  0  3  0  0  0  0  0  0
  185.1900  178.6530  145.8160 C   0  0  0  0  0  3  0  0  0  0  0  0
  186.5300  178.3640  145.5470 C   0  0  0  0  0  3  0  0  0  0  0  0
  188.8200  178.1260  142.6440 N   0  0  0  0  0  0  0  0  0  0  0  0
  188.4230  179.3620  142.1140 N   0  0  0  0  0  1  0  0  0  0  0  0
  190.4900  175.0410  142.7970 O   0  0  0  0  0  0  0  0  0  0  0  0
  189.6120  177.2360  141.8370 C   0  0  0  0  0  0  0  0  0  0  0  0
  190.0650  176.1050  142.3310 C   0  0  0  0  0  0  0  0  0  0  0  0
  189.6360  176.2280  138.3780 C   0  0  0  0  0  3  0  0  0  0  0  0
  192.0500  175.7570  138.1420 C   0  0  0  0  0  2  0  0  0  0  0  0
  191.2090  177.0650  139.9950 N   0  0  0  0  0  0  0  0  0  0  0  0
  192.4860  177.5240  140.5190 C   0  0  0  0  0  1  0  0  0  0  0  0
  191.0430  176.2880  138.8250 C   0  0  0  0  0  0  0  0  0  0  0  0
  189.9290  177.6080  140.4120 C   0  0  1  0  0  3  0  0  0  0  0  0
  188.8840  177.0390  139.4380 C   0  0  0  0  0  3  0  0  0  0  0  0
  189.3930  178.0950  145.0940 C   0  0  0  0  0  2  0  0  0  0  0  0
  190.0510  176.9470  145.8740 C   0  0  2  0  0  3  0  0  0  0  0  0
  189.3780  176.7270  147.2240 C   0  0  0  0  0  2  0  0  0  0  0  0
  188.0370  178.0260  148.8780 C   0  0  0  0  0  1  0  0  0  0  0  0
  189.2880  178.0200  148.0180 C   0  0  0  0  0  2  0  0  0  0  0  0
  191.4850  177.1410  146.0200 N   0  0  0  0  0  2  0  0  0  0  0  0
  192.5950  176.2470  147.8550 O   0  0  0  0  0  1  0  0  0  0  0  0
  192.0190  175.9330  146.6260 C   0  0  0  0  0  2  0  0  0  0  0  0
  1  3  1  0  0  0  0
  1 20  1  1  0  0  0
  2  6  1  0  0  0  0
  3  7  1  0  0  0  0
  4  5  1  0  0  0  0
  4  3  2  0  0  0  0
  5  2  2  0  0  0  0
  7  6  2  0  0  0  0
  8  1  1  0  0  0  0
  9  8  1  0  0  0  0
 11 12  2  0  0  0  0
 11  8  1  0  0  0  0
 12 10  2  0  0  0  0
 13 17  1  0  0  0  0
 13 19  2  0  0  0  0
 14 17  2  0  0  0  0
 15 18  1  0  0  0  0
 15 16  1  0  0  0  0
 17 15  1  0  0  0  0
 18 11  1  1  0  0  0
 19 18  1  0  0  0  0
 21 20  1  1  0  0  0
 21 25  1  0  0  0  0
 21 22  1  0  0  0  0
 22 24  1  0  0  0  0
 24 23  1  0  0  0  0
 25 27  1  0  0  0  0
 27 26  1  0  0  0  0
M  END
>  <MODEL>
3

>  <REMARK>
 VINA RESULT:      -7.6      2.910      5.780
  Name = 
  10 active torsions:
  status: ('A' for Active; 'I' for Inactive)
    1  A    between atoms: C_1  and  C_15
    2  A    between atoms: C_1  and  C_18
    3  A    between atoms: N_2  and  C_14
    4  A    between atoms: N_2  and  C_15
    5  A    between atoms: C_9  and  C_15
    6  A    between atoms: C_14  and  C_17
    7  A    between atoms: C_18  and  C_24
    8  A    between atoms: C_18  and  N_26
    9  A    between atoms: C_20  and  N_26
   10  A    between atoms: C_22  and  C_24
                            x       y       z     vdW  Elec       q    Type
                         _______ _______ _______ _____ _____    ______ ____

>  <TORSDO>
F 10

$$$$
=
 OpenBabel11052413473D

 27 28  0  0  1  0  0  0  0  0999 V2000
  187.6370  178.0440  142.5210 C   0  0  1  0  0  3  0  0  0  0  0  0
  183.6380  178.7570  143.9390 C   0  0  0  0  0  3  0  0  0  0  0  0
  186.2510  178.3080  143.0340 C   0  0  0  0  0  0  0  0  0  0  0  0
  185.9810  178.3810  144.4090 C   0  0  0  0  0  3  0  0  0  0  0  0
  184.6770  178.6060  144.8600 C   0  0  0  0  0  3  0  0  0  0  0  0
  183.9010  178.6850  142.5680 C   0  0  0  0  0  3  0  0  0  0  0  0
  185.2040  178.4600  142.1170 C   0  0  0  0  0  3  0  0  0  0  0  0
  188.3820  177.0690  143.3220 N   0  0  0  0  0  0  0  0  0  0  0  0
  188.1670  175.6970  143.1260 N   0  0  0  0  0  1  0  0  0  0  0  0
  190.8200  179.5100  143.9720 O   0  0  0  0  0  0  0  0  0  0  0  0
  189.2970  177.4990  144.3470 C   0  0  0  0  0  0  0  0  0  0  0  0
  190.0820  178.5340  144.1540 C   0  0  0  0  0  0  0  0  0  0  0  0
  189.5380  177.6810  147.9370 C   0  0  0  0  0  3  0  0  0  0  0  0
  191.9180  177.0700  148.1840 C   0  0  0  0  0  2  0  0  0  0  0  0
  190.7220  176.6240  146.1290 N   0  0  0  0  0  0  0  0  0  0  0  0
  191.7310  175.8020  145.4790 C   0  0  0  0  0  1  0  0  0  0  0  0
  190.8220  177.1460  147.4410 C   0  0  0  0  0  0  0  0  0  0  0  0
  189.3570  176.7470  145.6520 C   0  0  1  0  0  3  0  0  0  0  0  0
  188.5810  177.4820  146.7570 C   0  0  0  0  0  3  0  0  0  0  0  0
  187.8130  177.8550  141.0010 C   0  0  0  0  0  2  0  0  0  0  0  0
  189.2090  178.0800  140.4010 C   0  0  2  0  0  3  0  0  0  0  0  0
  189.1290  178.6000  138.9700 C   0  0  0  0  0  2  0  0  0  0  0  0
  187.8110  178.6460  136.8530 C   0  0  0  0  0  1  0  0  0  0  0  0
  187.9140  178.0470  138.2440 C   0  0  0  0  0  2  0  0  0  0  0  0
  190.0360  176.8860  140.4870 N   0  0  0  0  0  2  0  0  0  0  0  0
  192.2460  177.5850  140.6580 O   0  0  0  0  0  1  0  0  0  0  0  0
  191.2640  177.1650  139.7620 C   0  0  0  0  0  2  0  0  0  0  0  0
  1 20  1  6  0  0  0
  1  3  1  0  0  0  0
  1  8  1  0  0  0  0
  2  5  1  0  0  0  0
  3  4  1  0  0  0  0
  4  5  2  0  0  0  0
  6  2  2  0  0  0  0
  7  6  1  0  0  0  0
  7  3  2  0  0  0  0
  8 11  1  0  0  0  0
  9  8  1  0  0  0  0
 10 12  2  0  0  0  0
 12 11  2  0  0  0  0
 15 17  1  0  0  0  0
 16 15  1  0  0  0  0
 17 13  1  0  0  0  0
 17 14  2  0  0  0  0
 18 11  1  6  0  0  0
 18 15  1  0  0  0  0
 18 19  1  0  0  0  0
 19 13  2  0  0  0  0
 21 22  1  6  0  0  0
 21 25  1  0  0  0  0
 21 20  1  0  0  0  0
 23 24  1  0  0  0  0
 24 22  1  0  0  0  0
 27 25  1  0  0  0  0
 27 26  1  0  0  0  0
M  END
>  <MODEL>
4

>  <REMARK>
 VINA RESULT:      -7.2      2.479      4.761
  Name = 
  10 active torsions:
  status: ('A' for Active; 'I' for Inactive)
    1  A    between atoms: C_1  and  C_15
    2  A    between atoms: C_1  and  C_18
    3  A    between atoms: N_2  and  C_14
    4  A    between atoms: N_2  and  C_15
    5  A    between atoms: C_9  and  C_15
    6  A    between atoms: C_14  and  C_17
    7  A    between atoms: C_18  and  C_24
    8  A    between atoms: C_18  and  N_26
    9  A    between atoms: C_20  and  N_26
   10  A    between atoms: C_22  and  C_24
                            x       y       z     vdW  Elec       q    Type
                         _______ _______ _______ _____ _____    ______ ____

>  <TORSDO>
F 10

$$$$
=
 OpenBabel11052413473D

 27 28  0  0  1  0  0  0  0  0999 V2000
  189.6040  177.2090  141.5050 C   0  0  1  0  0  3  0  0  0  0  0  0
  192.7140  176.7650  138.5640 C   0  0  0  0  0  3  0  0  0  0  0  0
  190.7060  177.0490  140.4980 C   0  0  0  0  0  0  0  0  0  0  0  0
  191.9960  177.5480  140.7380 C   0  0  0  0  0  3  0  0  0  0  0  0
  192.9970  177.4050  139.7730 C   0  0  0  0  0  3  0  0  0  0  0  0
  191.4310  176.2670  138.3190 C   0  0  0  0  0  3  0  0  0  0  0  0
  190.4300  176.4100  139.2830 C   0  0  0  0  0  3  0  0  0  0  0  0
  189.9100  176.6100  142.8070 N   0  0  0  0  0  0  0  0  0  0  0  0
  190.2410  175.2490  142.8870 N   0  0  0  0  0  1  0  0  0  0  0  0
  191.0230  179.6290  144.2100 O   0  0  0  0  0  0  0  0  0  0  0  0
  189.8260  177.3850  144.0160 C   0  0  0  0  0  0  0  0  0  0  0  0
  190.4420  178.5410  144.1170 C   0  0  0  0  0  0  0  0  0  0  0  0
  187.4130  178.0970  146.5960 C   0  0  0  0  0  3  0  0  0  0  0  0
  188.9560  178.2490  148.5190 C   0  0  0  0  0  2  0  0  0  0  0  0
  189.6440  177.2080  146.4470 N   0  0  0  0  0  0  0  0  0  0  0  0
  190.9010  176.6400  146.9100 C   0  0  0  0  0  1  0  0  0  0  0  0
  188.7180  177.9020  147.2610 C   0  0  0  0  0  0  0  0  0  0  0  0
  189.0250  176.8620  145.1800 C   0  0  1  0  0  3  0  0  0  0  0  0
  187.6150  177.4740  145.2110 C   0  0  0  0  0  3  0  0  0  0  0  0
  188.9220  178.5880  141.6060 C   0  0  0  0  0  2  0  0  0  0  0  0
  187.5180  178.7460  141.0050 C   0  0  2  0  0  3  0  0  0  0  0  0
  186.4570  178.0800  141.8740 C   0  0  0  0  0  2  0  0  0  0  0  0
  184.5770  178.4400  143.4720 C   0  0  0  0  0  1  0  0  0  0  0  0
  185.5000  179.1010  142.4650 C   0  0  0  0  0  2  0  0  0  0  0  0
  187.4580  178.2660  139.6330 N   0  0  0  0  0  2  0  0  0  0  0  0
  186.1080  178.7200  137.7970 O   0  0  0  0  0  1  0  0  0  0  0  0
  186.0970  178.4720  139.1680 C   0  0  0  0  0  2  0  0  0  0  0  0
  1 20  1  1  0  0  0
  1  8  1  0  0  0  0
  2  5  1  0  0  0  0
  3  4  1  0  0  0  0
  3  1  1  0  0  0  0
  5  4  2  0  0  0  0
  6  2  2  0  0  0  0
  6  7  1  0  0  0  0
  7  3  2  0  0  0  0
  8  9  1  0  0  0  0
  8 11  1  0  0  0  0
 11 12  2  0  0  0  0
 12 10  2  0  0  0  0
 13 17  1  0  0  0  0
 15 16  1  0  0  0  0
 15 17  1  0  0  0  0
 17 14  2  0  0  0  0
 18 11  1  6  0  0  0
 18 19  1  0  0  0  0
 18 15  1  0  0  0  0
 19 13  2  0  0  0  0
 21 20  1  1  0  0  0
 21 22  1  0  0  0  0
 22 24  1  0  0  0  0
 24 23  1  0  0  0  0
 25 21  1  0  0  0  0
 26 27  1  0  0  0  0
 27 25  1  0  0  0  0
M  END
>  <MODEL>
5

>  <REMARK>
 VINA RESULT:      -7.1      2.370      5.111
  Name = 
  10 active torsions:
  status: ('A' for Active; 'I' for Inactive)
    1  A    between atoms: C_1  and  C_15
    2  A    between atoms: C_1  and  C_18
    3  A    between atoms: N_2  and  C_14
    4  A    between atoms: N_2  and  C_15
    5  A    between atoms: C_9  and  C_15
    6  A    between atoms: C_14  and  C_17
    7  A    between atoms: C_18  and  C_24
    8  A    between atoms: C_18  and  N_26
    9  A    between atoms: C_20  and  N_26
   10  A    between atoms: C_22  and  C_24
                            x       y       z     vdW  Elec       q    Type
                         _______ _______ _______ _____ _____    ______ ____

>  <TORSDO>
F 10

$$$$
=
 OpenBabel11052413473D

 27 28  0  0  1  0  0  0  0  0999 V2000
  189.7110  176.7770  141.3490 C   0  0  1  0  0  3  0  0  0  0  0  0
  193.0740  176.7670  138.6640 C   0  0  0  0  0  3  0  0  0  0  0  0
  190.8690  176.7750  140.3920 C   0  0  0  0  0  0  0  0  0  0  0  0
  190.8180  176.0630  139.1840 C   0  0  0  0  0  3  0  0  0  0  0  0
  191.9190  176.0600  138.3220 C   0  0  0  0  0  3  0  0  0  0  0  0
  193.1310  177.4770  139.8680 C   0  0  0  0  0  3  0  0  0  0  0  0
  192.0310  177.4790  140.7290 C   0  0  0  0  0  3  0  0  0  0  0  0
  190.0830  176.4050  142.7180 N   0  0  0  0  0  0  0  0  0  0  0  0
  190.6760  175.1580  142.9640 N   0  0  0  0  0  1  0  0  0  0  0  0
  190.8200  179.6180  143.9270 O   0  0  0  0  0  0  0  0  0  0  0  0
  189.8010  177.2820  143.8240 C   0  0  0  0  0  0  0  0  0  0  0  0
  190.3260  178.4850  143.8770 C   0  0  0  0  0  0  0  0  0  0  0  0
  187.2330  178.1280  146.2050 C   0  0  0  0  0  3  0  0  0  0  0  0
  188.6340  178.2650  148.2340 C   0  0  0  0  0  2  0  0  0  0  0  0
  189.4350  177.1590  146.2370 N   0  0  0  0  0  0  0  0  0  0  0  0
  190.6330  176.5580  146.8020 C   0  0  0  0  0  1  0  0  0  0  0  0
  188.4770  177.9010  146.9680 C   0  0  0  0  0  0  0  0  0  0  0  0
  188.8990  176.8090  144.9340 C   0  0  1  0  0  3  0  0  0  0  0  0
  187.5130  177.4700  144.8500 C   0  0  0  0  0  3  0  0  0  0  0  0
  188.7270  177.9610  141.2780 C   0  0  0  0  0  2  0  0  0  0  0  0
  187.9290  178.1600  139.9810 C   0  0  2  0  0  3  0  0  0  0  0  0
  188.7430  178.9050  138.9290 C   0  0  0  0  0  2  0  0  0  0  0  0
  187.7130  177.0490  137.6200 C   0  0  0  0  0  1  0  0  0  0  0  0
  188.5120  178.3360  137.5390 C   0  0  0  0  0  2  0  0  0  0  0  0
  186.6510  178.8110  140.2240 N   0  0  0  0  0  2  0  0  0  0  0  0
  185.4590  179.7090  142.0050 O   0  0  0  0  0  1  0  0  0  0  0  0
  186.4050  178.7480  141.6540 C   0  0  0  0  0  2  0  0  0  0  0  0
  1 20  1  1  0  0  0
  1  8  1  0  0  0  0
  2  6  1  0  0  0  0
  3  7  1  0  0  0  0
  3  1  1  0  0  0  0
  4  3  2  0  0  0  0
  5  2  2  0  0  0  0
  5  4  1  0  0  0  0
  6  7  2  0  0  0  0
  8  9  1  0  0  0  0
  8 11  1  0  0  0  0
 11 12  2  0  0  0  0
 12 10  2  0  0  0  0
 13 17  1  0  0  0  0
 15 16  1  0  0  0  0
 15 17  1  0  0  0  0
 17 14  2  0  0  0  0
 18 11  1  6  0  0  0
 18 15  1  0  0  0  0
 19 18  1  0  0  0  0
 19 13  2  0  0  0  0
 21 22  1  6  0  0  0
 21 25  1  0  0  0  0
 21 20  1  0  0  0  0
 24 23  1  0  0  0  0
 24 22  1  0  0  0  0
 25 27  1  0  0  0  0
 27 26  1  0  0  0  0
M  END
>  <MODEL>
6

>  <REMARK>
 VINA RESULT:      -7.0      2.553      5.750
  Name = 
  10 active torsions:
  status: ('A' for Active; 'I' for Inactive)
    1  A    between atoms: C_1  and  C_15
    2  A    between atoms: C_1  and  C_18
    3  A    between atoms: N_2  and  C_14
    4  A    between atoms: N_2  and  C_15
    5  A    between atoms: C_9  and  C_15
    6  A    between atoms: C_14  and  C_17
    7  A    between atoms: C_18  and  C_24
    8  A    between atoms: C_18  and  N_26
    9  A    between atoms: C_20  and  N_26
   10  A    between atoms: C_22  and  C_24
                            x       y       z     vdW  Elec       q    Type
                         _______ _______ _______ _____ _____    ______ ____

>  <TORSDO>
F 10

$$$$
=
 OpenBabel11052413473D

 27 28  0  0  1  0  0  0  0  0999 V2000
  187.4740  177.7180  143.1570 C   0  0  1  0  0  3  0  0  0  0  0  0
  188.0840  177.9790  147.4090 C   0  0  0  0  0  3  0  0  0  0  0  0
  187.7070  177.8250  144.6360 C   0  0  0  0  0  0  0  0  0  0  0  0
  189.0020  177.8230  145.1750 C   0  0  0  0  0  3  0  0  0  0  0  0
  189.1890  177.9000  146.5590 C   0  0  0  0  0  3  0  0  0  0  0  0
  186.7900  177.9800  146.8770 C   0  0  0  0  0  3  0  0  0  0  0  0
  186.6030  177.9020  145.4940 C   0  0  0  0  0  3  0  0  0  0  0  0
  188.3740  176.7730  142.4890 N   0  0  0  0  0  0  0  0  0  0  0  0
  188.4800  175.4580  142.9660 N   0  0  0  0  0  1  0  0  0  0  0  0
  188.3950  179.0130  139.7860 O   0  0  0  0  0  0  0  0  0  0  0  0
  189.1920  177.1880  141.3800 C   0  0  0  0  0  0  0  0  0  0  0  0
  188.7820  178.1280  140.5590 C   0  0  0  0  0  0  0  0  0  0  0  0
  192.7240  177.6290  140.8210 C   0  0  0  0  0  3  0  0  0  0  0  0
  192.7800  177.1570  138.3970 C   0  0  0  0  0  2  0  0  0  0  0  0
  190.8820  176.5110  139.7500 N   0  0  0  0  0  0  0  0  0  0  0  0
  190.1920  175.6980  138.7610 C   0  0  0  0  0  1  0  0  0  0  0  0
  192.1420  177.1260  139.5600 C   0  0  0  0  0  0  0  0  0  0  0  0
  190.5300  176.5320  141.1580 C   0  0  1  0  0  3  0  0  0  0  0  0
  191.6560  177.3010  141.8700 C   0  0  0  0  0  3  0  0  0  0  0  0
  186.0150  177.6310  142.6670 C   0  0  0  0  0  2  0  0  0  0  0  0
  185.2520  178.9430  142.4330 C   0  0  2  0  0  3  0  0  0  0  0  0
  183.7440  178.7420  142.5400 C   0  0  0  0  0  2  0  0  0  0  0  0
  181.7490  178.8820  144.0290 C   0  0  0  0  0  1  0  0  0  0  0  0
  183.2650  178.8750  143.9760 C   0  0  0  0  0  2  0  0  0  0  0  0
  185.6160  179.5650  141.1690 N   0  0  0  0  0  2  0  0  0  0  0  0
  185.2170  179.1120  138.9250 O   0  0  0  0  0  1  0  0  0  0  0  0
  184.6290  179.1470  140.1880 C   0  0  0  0  0  2  0  0  0  0  0  0
  1 20  1  1  0  0  0
  1  3  1  0  0  0  0
  3  4  2  0  0  0  0
  3  7  1  0  0  0  0
  4  5  1  0  0  0  0
  5  2  2  0  0  0  0
  6  2  1  0  0  0  0
  7  6  2  0  0  0  0
  8  9  1  0  0  0  0
  8  1  1  0  0  0  0
 10 12  2  0  0  0  0
 11  8  1  0  0  0  0
 12 11  2  0  0  0  0
 13 19  2  0  0  0  0
 14 17  2  0  0  0  0
 15 18  1  0  0  0  0
 16 15  1  0  0  0  0
 17 15  1  0  0  0  0
 17 13  1  0  0  0  0
 18 11  1  6  0  0  0
 18 19  1  0  0  0  0
 21 22  1  6  0  0  0
 21 20  1  0  0  0  0
 22 24  1  0  0  0  0
 24 23  1  0  0  0  0
 25 21  1  0  0  0  0
 26 27  1  0  0  0  0
 27 25  1  0  0  0  0
M  END
>  <MODEL>
7

>  <REMARK>
 VINA RESULT:      -6.9      1.798      2.545
  Name = 
  10 active torsions:
  status: ('A' for Active; 'I' for Inactive)
    1  A    between atoms: C_1  and  C_15
    2  A    between atoms: C_1  and  C_18
    3  A    between atoms: N_2  and  C_14
    4  A    between atoms: N_2  and  C_15
    5  A    between atoms: C_9  and  C_15
    6  A    between atoms: C_14  and  C_17
    7  A    between atoms: C_18  and  C_24
    8  A    between atoms: C_18  and  N_26
    9  A    between atoms: C_20  and  N_26
   10  A    between atoms: C_22  and  C_24
                            x       y       z     vdW  Elec       q    Type
                         _______ _______ _______ _____ _____    ______ ____

>  <TORSDO>
F 10

$$$$
=
 OpenBabel11052413473D

 27 28  0  0  1  0  0  0  0  0999 V2000
  186.5950  178.2730  142.4350 C   0  0  1  0  0  3  0  0  0  0  0  0
  187.7920  177.4040  146.4760 C   0  0  0  0  0  3  0  0  0  0  0  0
  186.9930  177.9530  143.8470 C   0  0  0  0  0  0  0  0  0  0  0  0
  186.0340  177.7510  144.8500 C   0  0  0  0  0  3  0  0  0  0  0  0
  186.4330  177.4770  146.1610 C   0  0  0  0  0  3  0  0  0  0  0  0
  188.7530  177.6060  145.4800 C   0  0  0  0  0  3  0  0  0  0  0  0
  188.3540  177.8800  144.1690 C   0  0  0  0  0  3  0  0  0  0  0  0
  185.3140  178.9780  142.3340 N   0  0  0  0  0  0  0  0  0  0  0  0
  184.9340  179.8790  143.3400 N   0  0  0  0  0  1  0  0  0  0  0  0
  184.6520  179.9770  139.0340 O   0  0  0  0  0  0  0  0  0  0  0  0
  184.4130  178.7220  141.2410 C   0  0  0  0  0  0  0  0  0  0  0  0
  184.5360  179.3680  140.1040 C   0  0  0  0  0  0  0  0  0  0  0  0
  181.5870  177.0460  139.7610 C   0  0  0  0  0  3  0  0  0  0  0  0
  179.7790  178.2780  140.9070 C   0  0  0  0  0  2  0  0  0  0  0  0
  182.0500  178.3390  141.7370 N   0  0  0  0  0  0  0  0  0  0  0  0
  181.7880  178.9980  143.0070 C   0  0  0  0  0  1  0  0  0  0  0  0
  181.0610  177.9510  140.8030 C   0  0  0  0  0  0  0  0  0  0  0  0
  183.3140  177.7040  141.4080 C   0  0  1  0  0  3  0  0  0  0  0  0
  183.0740  176.9200  140.1080 C   0  0  0  0  0  3  0  0  0  0  0  0
  187.6810  178.8310  141.4940 C   0  0  0  0  0  2  0  0  0  0  0  0
  188.2320  177.9070  140.3980 C   0  0  2  0  0  3  0  0  0  0  0  0
  189.7420  177.7340  140.5160 C   0  0  0  0  0  2  0  0  0  0  0  0
  191.4390  177.1250  142.2390 C   0  0  0  0  0  1  0  0  0  0  0  0
  190.1050  176.7520  141.6170 C   0  0  0  0  0  2  0  0  0  0  0  0
  187.8520  178.3570  139.0670 N   0  0  0  0  0  2  0  0  0  0  0  0
  189.0200  179.7290  137.6010 O   0  0  0  0  0  1  0  0  0  0  0  0
  189.0780  178.5300  138.3090 C   0  0  0  0  0  2  0  0  0  0  0  0
  1 20  1  1  0  0  0
  1  3  1  0  0  0  0
  3  7  2  0  0  0  0
  3  4  1  0  0  0  0
  4  5  2  0  0  0  0
  5  2  1  0  0  0  0
  6  2  2  0  0  0  0
  7  6  1  0  0  0  0
  8  1  1  0  0  0  0
  8  9  1  0  0  0  0
 10 12  2  0  0  0  0
 11  8  1  0  0  0  0
 12 11  2  0  0  0  0
 13 19  2  0  0  0  0
 13 17  1  0  0  0  0
 15 16  1  0  0  0  0
 17 14  2  0  0  0  0
 17 15  1  0  0  0  0
 18 11  1  6  0  0  0
 18 15  1  0  0  0  0
 19 18  1  0  0  0  0
 21 22  1  6  0  0  0
 21 20  1  0  0  0  0
 22 24  1  0  0  0  0
 24 23  1  0  0  0  0
 25 21  1  0  0  0  0
 26 27  1  0  0  0  0
 27 25  1  0  0  0  0
M  END
>  <MODEL>
8

>  <REMARK>
 VINA RESULT:      -6.8      2.087      6.423
  Name = 
  10 active torsions:
  status: ('A' for Active; 'I' for Inactive)
    1  A    between atoms: C_1  and  C_15
    2  A    between atoms: C_1  and  C_18
    3  A    between atoms: N_2  and  C_14
    4  A    between atoms: N_2  and  C_15
    5  A    between atoms: C_9  and  C_15
    6  A    between atoms: C_14  and  C_17
    7  A    between atoms: C_18  and  C_24
    8  A    between atoms: C_18  and  N_26
    9  A    between atoms: C_20  and  N_26
   10  A    between atoms: C_22  and  C_24
                            x       y       z     vdW  Elec       q    Type
                         _______ _______ _______ _____ _____    ______ ____

>  <TORSDO>
F 10

$$$$
=
 OpenBabel11052413473D

 27 28  0  0  1  0  0  0  0  0999 V2000
  188.0260  177.8930  144.5240 C   0  0  1  0  0  3  0  0  0  0  0  0
  192.0550  177.2150  143.1720 C   0  0  0  0  0  3  0  0  0  0  0  0
  189.4230  177.6410  144.0330 C   0  0  0  0  0  0  0  0  0  0  0  0
  189.8300  176.3680  143.6070 C   0  0  0  0  0  3  0  0  0  0  0  0
  191.1430  176.1570  143.1760 C   0  0  0  0  0  3  0  0  0  0  0  0
  191.6540  178.4850  143.5970 C   0  0  0  0  0  3  0  0  0  0  0  0
  190.3420  178.6970  144.0280 C   0  0  0  0  0  3  0  0  0  0  0  0
  186.9930  177.5930  143.5280 N   0  0  0  0  0  0  0  0  0  0  0  0
  186.2910  176.3810  143.5960 N   0  0  0  0  0  1  0  0  0  0  0  0
  188.2920  178.6430  140.4400 O   0  0  0  0  0  0  0  0  0  0  0  0
  186.7230  178.5030  142.4460 C   0  0  0  0  0  0  0  0  0  0  0  0
  187.5310  178.5760  141.4130 C   0  0  0  0  0  0  0  0  0  0  0  0
  183.3970  178.9870  143.7440 C   0  0  0  0  0  3  0  0  0  0  0  0
  182.1150  178.3930  141.7170 C   0  0  0  0  0  2  0  0  0  0  0  0
  184.4720  178.9220  141.5920 N   0  0  0  0  0  0  0  0  0  0  0  0
  184.5910  178.9890  140.1440 C   0  0  0  0  0  1  0  0  0  0  0  0
  183.2650  178.7080  142.2990 C   0  0  0  0  0  0  0  0  0  0  0  0
  185.5020  179.3850  142.5040 C   0  0  1  0  0  3  0  0  0  0  0  0
  184.8700  179.3750  143.9060 C   0  0  0  0  0  3  0  0  0  0  0  0
  187.6690  177.4130  145.9450 C   0  0  0  0  0  2  0  0  0  0  0  0
  188.5450  177.8950  147.1110 C   0  0  2  0  0  3  0  0  0  0  0  0
  189.4750  176.7930  147.6080 C   0  0  0  0  0  2  0  0  0  0  0  0
  191.7020  175.8980  146.9320 C   0  0  0  0  0  1  0  0  0  0  0  0
  190.9330  177.1360  147.3530 C   0  0  0  0  0  2  0  0  0  0  0  0
  187.7490  178.4470  148.1960 N   0  0  0  0  0  2  0  0  0  0  0  0
  186.0560  179.9440  147.6550 O   0  0  0  0  0  1  0  0  0  0  0  0
  186.3920  178.5920  147.6980 C   0  0  0  0  0  2  0  0  0  0  0  0
  1 20  1  1  0  0  0
  2  5  2  0  0  0  0
  2  6  1  0  0  0  0
  3  1  1  0  0  0  0
  4  3  2  0  0  0  0
  5  4  1  0  0  0  0
  6  7  2  0  0  0  0
  7  3  1  0  0  0  0
  8  9  1  0  0  0  0
  8  1  1  0  0  0  0
 10 12  2  0  0  0  0
 11  8  1  0  0  0  0
 12 11  2  0  0  0  0
 13 19  2  0  0  0  0
 14 17  2  0  0  0  0
 15 17  1  0  0  0  0
 15 18  1  0  0  0  0
 16 15  1  0  0  0  0
 17 13  1  0  0  0  0
 18 11  1  1  0  0  0
 18 19  1  0  0  0  0
 21 20  1  6  0  0  0
 21 22  1  0  0  0  0
 21 25  1  0  0  0  0
 23 24  1  0  0  0  0
 24 22  1  0  0  0  0
 26 27  1  0  0  0  0
 27 25  1  0  0  0  0
M  END
>  <MODEL>
9

>  <REMARK>
 VINA RESULT:      -6.7      2.237      6.506
  Name = 
  10 active torsions:
  status: ('A' for Active; 'I' for Inactive)
    1  A    between atoms: C_1  and  C_15
    2  A    between atoms: C_1  and  C_18
    3  A    between atoms: N_2  and  C_14
    4  A    between atoms: N_2  and  C_15
    5  A    between atoms: C_9  and  C_15
    6  A    between atoms: C_14  and  C_17
    7  A    between atoms: C_18  and  C_24
    8  A    between atoms: C_18  and  N_26
    9  A    between atoms: C_20  and  N_26
   10  A    between atoms: C_22  and  C_24
                            x       y       z     vdW  Elec       q    Type
                         _______ _______ _______ _____ _____    ______ ____

>  <TORSDO>
F 10

$$$$
