=
 OpenBabel11052414303D

 32 36  0  0  1  0  0  0  0  0999 V2000
  186.4710  178.6690  140.9560 C   0  0  2  0  0  3  0  0  0  0  0  0
  185.1150  178.9880  141.6120 C   0  0  0  0  0  2  0  0  0  0  0  0
  183.5810  177.7670  138.2760 C   0  0  0  0  0  3  0  0  0  0  0  0
  186.3900  178.2610  139.4610 C   0  0  1  0  0  3  0  0  0  0  0  0
  182.4950  176.8430  140.3780 C   0  0  0  0  0  2  0  0  0  0  0  0
  183.3800  178.0460  140.6380 C   0  0  1  0  0  3  0  0  0  0  0  0
  184.2760  177.8650  141.6890 O   0  0  0  0  0  0  0  0  0  0  0  0
  185.5490  179.1730  138.6830 N   0  0  0  0  0  2  0  0  0  0  0  0
  183.7580  177.0420  139.5650 C   0  0  2  0  0  3  0  0  0  0  0  0
  184.4060  178.7600  137.9120 C   0  0  0  0  0  3  0  0  0  0  0  0
  188.0630  179.1390  137.8600 O   0  0  0  0  0  0  0  0  0  0  0  0
  187.3370  174.7540  136.7640 C   0  0  1  0  0  3  0  0  0  0  0  0
  189.1170  178.6520  137.0570 C   0  0  0  0  0  2  0  0  0  0  0  0
  186.4100  174.2870  135.8300 O   0  0  0  0  0  1  0  0  0  0  0  0
  188.7590  174.6800  136.1820 C   0  0  1  0  0  3  0  0  0  0  0  0
  189.2620  177.1500  137.2460 C   0  0  2  0  0  3  0  0  0  0  0  0
  189.3950  176.3040  135.6200 S   0  0  0  0  0  0  0  0  0  0  0  0
  186.9240  176.1330  137.2950 C   0  0  2  0  0  3  0  0  0  0  0  0
  186.5090  176.9640  136.2470 O   0  0  0  0  0  1  0  0  0  0  0  0
  187.7460  178.0980  138.7450 C   0  0  2  0  0  3  0  0  0  0  0  0
  188.0730  176.7640  138.0990 C   0  0  2  0  0  3  0  0  0  0  0  0
  189.7270  174.0410  137.1660 C   0  0  0  0  0  2  0  0  0  0  0  0
  192.1260  174.5090  137.5460 C   0  0  0  0  0  1  0  0  0  0  0  0
  191.1170  173.9540  136.5640 C   0  0  0  0  0  2  0  0  0  0  0  0
  187.2970  177.7110  141.8220 C   0  0  0  0  0  2  0  0  0  0  0  0
  186.9620  177.8120  143.3040 C   0  0  0  0  0  2  0  0  0  0  0  0
  188.7880  177.4730  145.3570 C   0  0  0  0  0  0  0  0  0  0  0  0
  189.4560  177.0300  144.1900 N   0  0  0  0  0  0  0  0  0  0  0  0
  188.7670  177.6460  146.6020 O   0  0  0  0  0  0  0  0  0  0  0  0
  188.1480  177.5440  144.0960 N   0  0  0  0  0  0  0  0  0  0  0  0
  190.5970  176.3890  143.5660 C   0  0  0  0  0  2  0  0  0  0  0  0
  190.1680  175.6220  142.4840 O   0  0  0  0  0  1  0  0  0  0  0  0
  1  2  1  0  0  0  0
  1 25  1  1  0  0  0
  2  7  1  0  0  0  0
  4  8  1  6  0  0  0
  4  1  1  0  0  0  0
  6  5  1  1  0  0  0
  6  7  1  0  0  0  0
  9  3  1  6  0  0  0
  9  5  1  0  0  0  0
  9  6  1  0  0  0  0
 10  3  2  0  0  0  0
 10  8  1  0  0  0  0
 12 14  1  6  0  0  0
 12 18  1  0  0  0  0
 13 11  1  0  0  0  0
 15 12  1  0  0  0  0
 15 22  1  1  0  0  0
 16 13  1  6  0  0  0
 16 21  1  0  0  0  0
 17 15  1  0  0  0  0
 17 16  1  0  0  0  0
 18 19  1  6  0  0  0
 18 21  1  0  0  0  0
 20 11  1  6  0  0  0
 20  4  1  0  0  0  0
 21 20  1  0  0  0  0
 24 22  1  0  0  0  0
 24 23  1  0  0  0  0
 25 26  1  0  0  0  0
 26 30  1  0  0  0  0
 27 29  2  0  0  0  0
 28 27  1  0  0  0  0
 30 28  1  0  0  0  0
 30 27  1  0  0  0  0
 31 28  1  0  0  0  0
 32 31  1  0  0  0  0
M  END
>  <MODEL>
1

>  <REMARK>
 VINA RESULT:      -5.9      0.000      0.000
  Name = 
  7 active torsions:
  status: ('A' for Active; 'I' for Inactive)
    1  A    between atoms: C_2  and  C_5
    2  A    between atoms: C_5  and  C_18
    3  A    between atoms: C_10  and  C_24
    4  A    between atoms: N_14  and  C_21
    5  A    between atoms: C_15  and  C_19
    6  A    between atoms: C_18  and  N_29
    7  A    between atoms: C_19  and  C_26
                            x       y       z     vdW  Elec       q    Type
                         _______ _______ _______ _____ _____    ______ ____

>  <TORSDO>
F 7

$$$$
=
 OpenBabel11052414303D

 32 36  0  0  1  0  0  0  0  0999 V2000
  187.8550  177.6560  141.3100 C   0  0  2  0  0  3  0  0  0  0  0  0
  187.7860  177.0570  142.7260 C   0  0  0  0  0  2  0  0  0  0  0  0
  191.6200  177.5790  142.7830 C   0  0  0  0  0  3  0  0  0  0  0  0
  189.2920  177.9100  140.7800 C   0  0  1  0  0  3  0  0  0  0  0  0
  190.3820  178.3620  144.8580 C   0  0  0  0  0  2  0  0  0  0  0  0
  189.5550  177.4480  143.9750 C   0  0  1  0  0  3  0  0  0  0  0  0
  188.2780  177.9330  143.7070 O   0  0  0  0  0  0  0  0  0  0  0  0
  190.1690  176.7560  140.9850 N   0  0  0  0  0  2  0  0  0  0  0  0
  190.5340  178.4250  143.3520 C   0  0  2  0  0  3  0  0  0  0  0  0
  191.4120  176.8020  141.7100 C   0  0  0  0  0  3  0  0  0  0  0  0
  188.2150  178.9350  138.8000 O   0  0  0  0  0  0  0  0  0  0  0  0
  190.1430  175.0280  137.3980 C   0  0  1  0  0  3  0  0  0  0  0  0
  188.3630  178.9370  137.3970 C   0  0  0  0  0  2  0  0  0  0  0  0
  189.5140  173.7840  137.3310 O   0  0  0  0  0  1  0  0  0  0  0  0
  190.2900  175.6240  135.9880 C   0  0  1  0  0  3  0  0  0  0  0  0
  189.5330  178.0520  136.9970 C   0  0  2  0  0  3  0  0  0  0  0  0
  189.0560  176.9290  135.6230 S   0  0  0  0  0  0  0  0  0  0  0  0
  189.4410  175.9350  138.4170 C   0  0  2  0  0  3  0  0  0  0  0  0
  188.0510  175.8640  138.2710 O   0  0  0  0  0  1  0  0  0  0  0  0
  189.3860  178.3530  139.3070 C   0  0  2  0  0  3  0  0  0  0  0  0
  189.9510  177.3810  138.2870 C   0  0  2  0  0  3  0  0  0  0  0  0
  191.7000  176.1440  135.7510 C   0  0  0  0  0  2  0  0  0  0  0  0
  193.5230  176.4320  137.3970 C   0  0  0  0  0  1  0  0  0  0  0  0
  192.6910  175.4200  136.6410 C   0  0  0  0  0  2  0  0  0  0  0  0
  186.9150  178.8580  141.1660 C   0  0  0  0  0  2  0  0  0  0  0  0
  185.4800  178.4550  140.8550 C   0  0  0  0  0  2  0  0  0  0  0  0
  183.3350  178.8530  142.5590 C   0  0  0  0  0  0  0  0  0  0  0  0
  184.4850  178.9920  143.3720 N   0  0  0  0  0  0  0  0  0  0  0  0
  182.0840  178.8190  142.4360 O   0  0  0  0  0  0  0  0  0  0  0  0
  184.6280  178.7460  141.9930 N   0  0  0  0  0  0  0  0  0  0  0  0
  185.0800  179.1390  144.6860 C   0  0  0  0  0  2  0  0  0  0  0  0
  184.0910  179.0330  145.6620 O   0  0  0  0  0  1  0  0  0  0  0  0
  1 25  1  1  0  0  0
  1  2  1  0  0  0  0
  2  7  1  0  0  0  0
  4  8  1  6  0  0  0
  4  1  1  0  0  0  0
  6  5  1  1  0  0  0
  7  6  1  0  0  0  0
  8 10  1  0  0  0  0
  9  3  1  1  0  0  0
  9  6  1  0  0  0  0
  9  5  1  0  0  0  0
 10  3  2  0  0  0  0
 12 14  1  6  0  0  0
 12 18  1  0  0  0  0
 13 11  1  0  0  0  0
 15 22  1  1  0  0  0
 15 12  1  0  0  0  0
 16 13  1  1  0  0  0
 16 21  1  0  0  0  0
 17 15  1  0  0  0  0
 17 16  1  0  0  0  0
 18 19  1  6  0  0  0
 20 11  1  6  0  0  0
 20  4  1  0  0  0  0
 21 18  1  0  0  0  0
 21 20  1  0  0  0  0
 22 24  1  0  0  0  0
 24 23  1  0  0  0  0
 26 25  1  0  0  0  0
 26 30  1  0  0  0  0
 27 28  1  0  0  0  0
 28 31  1  0  0  0  0
 29 27  2  0  0  0  0
 30 27  1  0  0  0  0
 30 28  1  0  0  0  0
 31 32  1  0  0  0  0
M  END
>  <MODEL>
2

>  <REMARK>
 VINA RESULT:      -5.9      2.287      4.859
  Name = 
  7 active torsions:
  status: ('A' for Active; 'I' for Inactive)
    1  A    between atoms: C_2  and  C_5
    2  A    between atoms: C_5  and  C_18
    3  A    between atoms: C_10  and  C_24
    4  A    between atoms: N_14  and  C_21
    5  A    between atoms: C_15  and  C_19
    6  A    between atoms: C_18  and  N_29
    7  A    between atoms: C_19  and  C_26
                            x       y       z     vdW  Elec       q    Type
                         _______ _______ _______ _____ _____    ______ ____

>  <TORSDO>
F 7

$$$$
=
 OpenBabel11052414303D

 32 36  0  0  1  0  0  0  0  0999 V2000
  189.7930  177.6820  143.2910 C   0  0  2  0  0  3  0  0  0  0  0  0
  189.1050  178.4870  144.4090 C   0  0  0  0  0  2  0  0  0  0  0  0
  185.9950  178.4040  142.1080 C   0  0  0  0  0  3  0  0  0  0  0  0
  188.9490  177.5080  142.0010 C   0  0  1  0  0  3  0  0  0  0  0  0
  185.5650  177.8290  144.5450 C   0  0  0  0  0  2  0  0  0  0  0  0
  186.9060  178.4950  144.3130 C   0  0  1  0  0  3  0  0  0  0  0  0
  187.9720  177.8370  144.9220 O   0  0  0  0  0  0  0  0  0  0  0  0
  188.3550  178.7690  141.5520 N   0  0  0  0  0  2  0  0  0  0  0  0
  186.3410  177.5450  143.2740 C   0  0  2  0  0  3  0  0  0  0  0  0
  186.9450  178.9740  141.3520 C   0  0  0  0  0  3  0  0  0  0  0  0
  190.9690  177.3480  140.5790 O   0  0  0  0  0  0  0  0  0  0  0  0
  187.3740  177.6490  137.7620 C   0  0  1  0  0  3  0  0  0  0  0  0
  191.3210  176.9070  139.2850 C   0  0  0  0  0  2  0  0  0  0  0  0
  186.8560  178.8260  137.2200 O   0  0  0  0  0  1  0  0  0  0  0  0
  188.1670  176.8780  136.6930 C   0  0  1  0  0  3  0  0  0  0  0  0
  190.0930  176.3690  138.5680 C   0  0  2  0  0  3  0  0  0  0  0  0
  189.9820  177.0590  136.8680 S   0  0  0  0  0  0  0  0  0  0  0  0
  188.1440  177.9410  139.0560 C   0  0  2  0  0  3  0  0  0  0  0  0
  188.9710  179.0600  138.9000 O   0  0  0  0  0  1  0  0  0  0  0  0
  189.6800  176.8490  140.8150 C   0  0  2  0  0  3  0  0  0  0  0  0
  188.9440  176.7020  139.4950 C   0  0  2  0  0  3  0  0  0  0  0  0
  187.7780  175.4070  136.6690 C   0  0  0  0  0  2  0  0  0  0  0  0
  185.6770  174.2470  137.2640 C   0  0  0  0  0  1  0  0  0  0  0  0
  186.3100  175.2500  136.3240 C   0  0  0  0  0  2  0  0  0  0  0  0
  190.3900  176.3770  143.8300 C   0  0  0  0  0  2  0  0  0  0  0  0
  191.6900  176.5900  144.5930 C   0  0  0  0  0  2  0  0  0  0  0  0
  191.9500  176.2090  147.3230 C   0  0  0  0  0  0  0  0  0  0  0  0
  190.5960  176.5710  147.1270 N   0  0  0  0  0  0  0  0  0  0  0  0
  192.9010  175.9210  148.0930 O   0  0  0  0  0  0  0  0  0  0  0  0
  191.4550  176.4440  146.0170 N   0  0  0  0  0  0  0  0  0  0  0  0
  189.3050  176.9400  147.6740 C   0  0  0  0  0  2  0  0  0  0  0  0
  189.4220  178.1330  148.3850 O   0  0  0  0  0  1  0  0  0  0  0  0
  1 25  1  1  0  0  0
  1  2  1  0  0  0  0
  2  7  1  0  0  0  0
  4  8  1  6  0  0  0
  4  1  1  0  0  0  0
  6  5  1  1  0  0  0
  6  7  1  0  0  0  0
  9  3  1  6  0  0  0
  9  6  1  0  0  0  0
  9  5  1  0  0  0  0
 10  8  1  0  0  0  0
 10  3  2  0  0  0  0
 12 14  1  6  0  0  0
 12 18  1  0  0  0  0
 13 11  1  0  0  0  0
 15 22  1  1  0  0  0
 15 17  1  0  0  0  0
 15 12  1  0  0  0  0
 16 13  1  1  0  0  0
 16 21  1  0  0  0  0
 17 16  1  0  0  0  0
 18 19  1  6  0  0  0
 18 21  1  0  0  0  0
 20 11  1  6  0  0  0
 20  4  1  0  0  0  0
 21 20  1  0  0  0  0
 24 22  1  0  0  0  0
 24 23  1  0  0  0  0
 25 26  1  0  0  0  0
 26 30  1  0  0  0  0
 27 29  2  0  0  0  0
 28 27  1  0  0  0  0
 28 31  1  0  0  0  0
 30 28  1  0  0  0  0
 30 27  1  0  0  0  0
 31 32  1  0  0  0  0
M  END
>  <MODEL>
3

>  <REMARK>
 VINA RESULT:      -5.9      2.561      4.181
  Name = 
  7 active torsions:
  status: ('A' for Active; 'I' for Inactive)
    1  A    between atoms: C_2  and  C_5
    2  A    between atoms: C_5  and  C_18
    3  A    between atoms: C_10  and  C_24
    4  A    between atoms: N_14  and  C_21
    5  A    between atoms: C_15  and  C_19
    6  A    between atoms: C_18  and  N_29
    7  A    between atoms: C_19  and  C_26
                            x       y       z     vdW  Elec       q    Type
                         _______ _______ _______ _____ _____    ______ ____

>  <TORSDO>
F 7

$$$$
=
 OpenBabel11052414303D

 32 36  0  0  1  0  0  0  0  0999 V2000
  186.6290  178.6910  140.9380 C   0  0  2  0  0  3  0  0  0  0  0  0
  185.3330  179.0700  141.6770 C   0  0  0  0  0  2  0  0  0  0  0  0
  183.5390  177.9050  138.4520 C   0  0  0  0  0  3  0  0  0  0  0  0
  186.4360  178.2820  139.4540 C   0  0  1  0  0  3  0  0  0  0  0  0
  182.5500  177.0360  140.6240 C   0  0  0  0  0  2  0  0  0  0  0  0
  183.5010  178.2000  140.8210 C   0  0  1  0  0  3  0  0  0  0  0  0
  184.4530  177.9840  141.8140 O   0  0  0  0  0  0  0  0  0  0  0  0
  185.5870  179.2260  138.7260 N   0  0  0  0  0  2  0  0  0  0  0  0
  183.7670  177.1780  139.7320 C   0  0  2  0  0  3  0  0  0  0  0  0
  184.3800  178.8610  138.0310 C   0  0  0  0  0  3  0  0  0  0  0  0
  188.0090  179.0530  137.7030 O   0  0  0  0  0  0  0  0  0  0  0  0
  187.1280  174.6410  136.8590 C   0  0  1  0  0  3  0  0  0  0  0  0
  188.9960  178.5090  136.8530 C   0  0  0  0  0  2  0  0  0  0  0  0
  186.1290  174.1540  136.0130 O   0  0  0  0  0  1  0  0  0  0  0  0
  188.5030  174.5120  136.1840 C   0  0  1  0  0  3  0  0  0  0  0  0
  189.1250  177.0140  137.0990 C   0  0  2  0  0  3  0  0  0  0  0  0
  189.1290  176.0950  135.5070 S   0  0  0  0  0  0  0  0  0  0  0  0
  186.7780  176.0500  137.3540 C   0  0  2  0  0  3  0  0  0  0  0  0
  186.3070  176.8440  136.3010 O   0  0  0  0  0  1  0  0  0  0  0  0
  187.7350  178.0590  138.6540 C   0  0  2  0  0  3  0  0  0  0  0  0
  187.9920  176.6910  138.0480 C   0  0  2  0  0  3  0  0  0  0  0  0
  189.5260  173.8950  137.1270 C   0  0  0  0  0  2  0  0  0  0  0  0
  191.9520  174.3160  137.3620 C   0  0  0  0  0  1  0  0  0  0  0  0
  190.8760  173.7780  136.4450 C   0  0  0  0  0  2  0  0  0  0  0  0
  187.4670  177.7010  141.7560 C   0  0  0  0  0  2  0  0  0  0  0  0
  188.8230  178.2650  142.1610 C   0  0  0  0  0  2  0  0  0  0  0  0
  189.9980  177.7940  144.6230 C   0  0  0  0  0  0  0  0  0  0  0  0
  188.6040  177.7810  144.8700 N   0  0  0  0  0  0  0  0  0  0  0  0
  191.1800  177.7300  145.0460 O   0  0  0  0  0  0  0  0  0  0  0  0
  189.0820  177.9670  143.5580 N   0  0  0  0  0  0  0  0  0  0  0  0
  187.4970  177.7420  145.8050 C   0  0  0  0  0  2  0  0  0  0  0  0
  186.3060  177.5330  145.1110 O   0  0  0  0  0  1  0  0  0  0  0  0
  1  2  1  0  0  0  0
  1 25  1  1  0  0  0
  2  7  1  0  0  0  0
  4  8  1  6  0  0  0
  4  1  1  0  0  0  0
  6  5  1  1  0  0  0
  6  7  1  0  0  0  0
  9  3  1  6  0  0  0
  9  5  1  0  0  0  0
  9  6  1  0  0  0  0
 10  3  2  0  0  0  0
 10  8  1  0  0  0  0
 12 14  1  6  0  0  0
 12 18  1  0  0  0  0
 13 11  1  0  0  0  0
 15 12  1  0  0  0  0
 15 22  1  1  0  0  0
 16 13  1  6  0  0  0
 16 21  1  0  0  0  0
 17 15  1  0  0  0  0
 17 16  1  0  0  0  0
 18 19  1  6  0  0  0
 18 21  1  0  0  0  0
 20 11  1  6  0  0  0
 20  4  1  0  0  0  0
 21 20  1  0  0  0  0
 24 22  1  0  0  0  0
 24 23  1  0  0  0  0
 25 26  1  0  0  0  0
 26 30  1  0  0  0  0
 27 28  1  0  0  0  0
 27 29  2  0  0  0  0
 28 31  1  0  0  0  0
 30 27  1  0  0  0  0
 30 28  1  0  0  0  0
 32 31  1  0  0  0  0
M  END
>  <MODEL>
4

>  <REMARK>
 VINA RESULT:      -5.9      1.001      1.390
  Name = 
  7 active torsions:
  status: ('A' for Active; 'I' for Inactive)
    1  A    between atoms: C_2  and  C_5
    2  A    between atoms: C_5  and  C_18
    3  A    between atoms: C_10  and  C_24
    4  A    between atoms: N_14  and  C_21
    5  A    between atoms: C_15  and  C_19
    6  A    between atoms: C_18  and  N_29
    7  A    between atoms: C_19  and  C_26
                            x       y       z     vdW  Elec       q    Type
                         _______ _______ _______ _____ _____    ______ ____

>  <TORSDO>
F 7

$$$$
=
 OpenBabel11052414303D

 32 36  0  0  1  0  0  0  0  0999 V2000
  187.4170  178.6310  140.2130 C   0  0  2  0  0  3  0  0  0  0  0  0
  188.3730  178.5540  141.4170 C   0  0  0  0  0  2  0  0  0  0  0  0
  185.1510  178.3450  143.5490 C   0  0  0  0  0  3  0  0  0  0  0  0
  185.9130  178.7380  140.5820 C   0  0  1  0  0  3  0  0  0  0  0  0
  186.9550  176.6550  144.1310 C   0  0  0  0  0  2  0  0  0  0  0  0
  187.4570  177.7960  143.2690 C   0  0  1  0  0  3  0  0  0  0  0  0
  188.2020  177.3810  142.1680 O   0  0  0  0  0  0  0  0  0  0  0  0
  185.6660  179.7520  141.6080 N   0  0  0  0  0  2  0  0  0  0  0  0
  186.0520  177.2580  143.0750 C   0  0  2  0  0  3  0  0  0  0  0  0
  185.0150  179.4900  142.8650 C   0  0  0  0  0  3  0  0  0  0  0  0
  184.2440  180.1870  139.4650 O   0  0  0  0  0  0  0  0  0  0  0  0
  182.4750  175.9670  139.5950 C   0  0  1  0  0  3  0  0  0  0  0  0
  183.1950  180.0660  138.5300 C   0  0  0  0  0  2  0  0  0  0  0  0
  181.6440  175.4600  140.5950 O   0  0  0  0  0  1  0  0  0  0  0  0
  181.6530  176.2900  138.3360 C   0  0  1  0  0  3  0  0  0  0  0  0
  183.0650  178.6190  138.0790 C   0  0  2  0  0  3  0  0  0  0  0  0
  181.3090  178.0790  138.1360 S   0  0  0  0  0  0  0  0  0  0  0  0
  183.3220  177.1280  140.1320 C   0  0  2  0  0  3  0  0  0  0  0  0
  182.5400  178.0010  140.8990 O   0  0  0  0  0  1  0  0  0  0  0  0
  184.9560  178.9810  139.3980 C   0  0  2  0  0  3  0  0  0  0  0  0
  184.0210  177.8620  138.9750 C   0  0  2  0  0  3  0  0  0  0  0  0
  182.3150  175.7320  137.0850 C   0  0  0  0  0  2  0  0  0  0  0  0
  184.5800  174.7930  136.7620 C   0  0  0  0  0  1  0  0  0  0  0  0
  183.2430  174.5860  137.4400 C   0  0  0  0  0  2  0  0  0  0  0  0
  187.7320  177.5430  139.1810 C   0  0  0  0  0  2  0  0  0  0  0  0
  188.9320  177.8820  138.3070 C   0  0  0  0  0  2  0  0  0  0  0  0
  190.8770  175.9260  138.5360 C   0  0  0  0  0  0  0  0  0  0  0  0
  191.2680  176.9440  139.4390 N   0  0  0  0  0  0  0  0  0  0  0  0
  191.0980  174.8230  137.9740 O   0  0  0  0  0  0  0  0  0  0  0  0
  190.0730  177.0790  138.7040 N   0  0  0  0  0  0  0  0  0  0  0  0
  192.2470  177.5040  140.3490 C   0  0  0  0  0  2  0  0  0  0  0  0
  193.5290  177.3000  139.8400 O   0  0  0  0  0  1  0  0  0  0  0  0
  1 25  1  6  0  0  0
  1  4  1  0  0  0  0
  1  2  1  0  0  0  0
  2  7  1  0  0  0  0
  4  8  1  1  0  0  0
  6  5  1  1  0  0  0
  7  6  1  0  0  0  0
  8 10  1  0  0  0  0
  9  6  1  0  0  0  0
  9  3  1  1  0  0  0
  9  5  1  0  0  0  0
 10  3  2  0  0  0  0
 12 18  1  0  0  0  0
 12 14  1  1  0  0  0
 13 11  1  0  0  0  0
 15 22  1  6  0  0  0
 15 12  1  0  0  0  0
 16 17  1  0  0  0  0
 16 13  1  1  0  0  0
 16 21  1  0  0  0  0
 17 15  1  0  0  0  0
 18 19  1  6  0  0  0
 20 11  1  1  0  0  0
 20  4  1  0  0  0  0
 21 20  1  0  0  0  0
 21 18  1  0  0  0  0
 22 24  1  0  0  0  0
 23 24  1  0  0  0  0
 26 30  1  0  0  0  0
 26 25  1  0  0  0  0
 27 30  1  0  0  0  0
 27 28  1  0  0  0  0
 28 31  1  0  0  0  0
 29 27  2  0  0  0  0
 30 28  1  0  0  0  0
 32 31  1  0  0  0  0
M  END
>  <MODEL>
5

>  <REMARK>
 VINA RESULT:      -5.9      3.103      5.644
  Name = 
  7 active torsions:
  status: ('A' for Active; 'I' for Inactive)
    1  A    between atoms: C_2  and  C_5
    2  A    between atoms: C_5  and  C_18
    3  A    between atoms: C_10  and  C_24
    4  A    between atoms: N_14  and  C_21
    5  A    between atoms: C_15  and  C_19
    6  A    between atoms: C_18  and  N_29
    7  A    between atoms: C_19  and  C_26
                            x       y       z     vdW  Elec       q    Type
                         _______ _______ _______ _____ _____    ______ ____

>  <TORSDO>
F 7

$$$$
=
 OpenBabel11052414303D

 32 36  0  0  1  0  0  0  0  0999 V2000
  186.4290  178.8650  141.0410 C   0  0  2  0  0  3  0  0  0  0  0  0
  185.4830  179.3900  142.1360 C   0  0  0  0  0  2  0  0  0  0  0  0
  182.6770  178.8140  139.5340 C   0  0  0  0  0  3  0  0  0  0  0  0
  185.7570  178.6200  139.6640 C   0  0  1  0  0  3  0  0  0  0  0  0
  182.1940  177.9400  141.8700 C   0  0  0  0  0  2  0  0  0  0  0  0
  183.3580  178.9100  141.8210 C   0  0  1  0  0  3  0  0  0  0  0  0
  184.4930  178.4580  142.4870 O   0  0  0  0  0  0  0  0  0  0  0  0
  184.9250  179.7500  139.2450 N   0  0  0  0  0  2  0  0  0  0  0  0
  183.1170  177.9540  140.6680 C   0  0  2  0  0  3  0  0  0  0  0  0
  183.5260  179.6490  138.9180 C   0  0  0  0  0  3  0  0  0  0  0  0
  186.8770  179.2580  137.5490 O   0  0  0  0  0  0  0  0  0  0  0  0
  185.0430  175.1160  136.8930 C   0  0  1  0  0  3  0  0  0  0  0  0
  187.4720  178.6290  136.4350 C   0  0  0  0  0  2  0  0  0  0  0  0
  183.7770  174.8560  136.3640 O   0  0  0  0  0  1  0  0  0  0  0  0
  186.1270  174.8190  135.8430 C   0  0  1  0  0  3  0  0  0  0  0  0
  187.4060  177.1180  136.5960 C   0  0  2  0  0  3  0  0  0  0  0  0
  186.7990  176.3290  135.0510 S   0  0  0  0  0  0  0  0  0  0  0  0
  185.0970  176.5220  137.5020 C   0  0  2  0  0  3  0  0  0  0  0  0
  184.4920  177.4560  136.6520 O   0  0  0  0  0  1  0  0  0  0  0  0
  186.7160  178.2540  138.5140 C   0  0  2  0  0  3  0  0  0  0  0  0
  186.5500  176.9100  137.8260 C   0  0  2  0  0  3  0  0  0  0  0  0
  187.2530  173.9810  136.4310 C   0  0  0  0  0  2  0  0  0  0  0  0
  186.3950  171.7790  135.7020 C   0  0  0  0  0  1  0  0  0  0  0  0
  186.7260  172.6390  136.9020 C   0  0  0  0  0  2  0  0  0  0  0  0
  187.2660  177.6860  141.5460 C   0  0  0  0  0  2  0  0  0  0  0  0
  188.5410  178.1240  142.2550 C   0  0  0  0  0  2  0  0  0  0  0  0
  189.1240  177.4990  144.8880 C   0  0  0  0  0  0  0  0  0  0  0  0
  187.7110  177.5580  144.8260 N   0  0  0  0  0  0  0  0  0  0  0  0
  190.1810  177.3530  145.5540 O   0  0  0  0  0  0  0  0  0  0  0  0
  188.4730  177.7630  143.6590 N   0  0  0  0  0  0  0  0  0  0  0  0
  186.4250  177.5510  145.4950 C   0  0  0  0  0  2  0  0  0  0  0  0
  185.9320  178.8520  145.5730 O   0  0  0  0  0  1  0  0  0  0  0  0
  1 25  1  1  0  0  0
  1  2  1  0  0  0  0
  2  7  1  0  0  0  0
  4  8  1  6  0  0  0
  4  1  1  0  0  0  0
  6  5  1  1  0  0  0
  6  7  1  0  0  0  0
  9  3  1  6  0  0  0
  9  6  1  0  0  0  0
  9  5  1  0  0  0  0
 10  8  1  0  0  0  0
 10  3  2  0  0  0  0
 12 14  1  6  0  0  0
 12 18  1  0  0  0  0
 13 11  1  0  0  0  0
 15 22  1  1  0  0  0
 15 12  1  0  0  0  0
 16 13  1  6  0  0  0
 16 21  1  0  0  0  0
 17 15  1  0  0  0  0
 17 16  1  0  0  0  0
 18 19  1  6  0  0  0
 18 21  1  0  0  0  0
 20 11  1  6  0  0  0
 20  4  1  0  0  0  0
 21 20  1  0  0  0  0
 22 24  1  0  0  0  0
 23 24  1  0  0  0  0
 25 26  1  0  0  0  0
 26 30  1  0  0  0  0
 27 29  2  0  0  0  0
 28 27  1  0  0  0  0
 28 31  1  0  0  0  0
 30 28  1  0  0  0  0
 30 27  1  0  0  0  0
 31 32  1  0  0  0  0
M  END
>  <MODEL>
6

>  <REMARK>
 VINA RESULT:      -5.7      1.958      2.548
  Name = 
  7 active torsions:
  status: ('A' for Active; 'I' for Inactive)
    1  A    between atoms: C_2  and  C_5
    2  A    between atoms: C_5  and  C_18
    3  A    between atoms: C_10  and  C_24
    4  A    between atoms: N_14  and  C_21
    5  A    between atoms: C_15  and  C_19
    6  A    between atoms: C_18  and  N_29
    7  A    between atoms: C_19  and  C_26
                            x       y       z     vdW  Elec       q    Type
                         _______ _______ _______ _____ _____    ______ ____

>  <TORSDO>
F 7

$$$$
=
 OpenBabel11052414303D

 32 36  0  0  1  0  0  0  0  0999 V2000
  188.3770  178.4170  140.1630 C   0  0  2  0  0  3  0  0  0  0  0  0
  188.8210  178.9960  138.8070 C   0  0  0  0  0  2  0  0  0  0  0  0
  191.0470  175.8410  138.5560 C   0  0  0  0  0  3  0  0  0  0  0  0
  189.1490  177.1480  140.6120 C   0  0  1  0  0  3  0  0  0  0  0  0
  189.7090  176.3990  136.4710 C   0  0  0  0  0  2  0  0  0  0  0  0
  189.7840  177.5450  137.4610 C   0  0  1  0  0  3  0  0  0  0  0  0
  188.5500  178.1290  137.7360 O   0  0  0  0  0  0  0  0  0  0  0  0
  190.5980  177.3020  140.4730 N   0  0  0  0  0  2  0  0  0  0  0  0
  189.7110  176.1140  137.9590 C   0  0  2  0  0  3  0  0  0  0  0  0
  191.4360  176.4240  139.6990 C   0  0  0  0  0  3  0  0  0  0  0  0
  187.5840  177.0550  142.5290 O   0  0  0  0  0  0  0  0  0  0  0  0
  191.6800  178.2240  144.2040 C   0  0  1  0  0  3  0  0  0  0  0  0
  187.6280  176.8280  143.9210 C   0  0  0  0  0  2  0  0  0  0  0  0
  192.1410  179.5270  144.4010 O   0  0  0  0  0  1  0  0  0  0  0  0
  191.2940  177.5900  145.5500 C   0  0  1  0  0  3  0  0  0  0  0  0
  189.0590  176.5560  144.3580 C   0  0  2  0  0  3  0  0  0  0  0  0
  189.4850  177.5550  145.8400 S   0  0  0  0  0  0  0  0  0  0  0  0
  190.5820  178.1950  143.1330 C   0  0  2  0  0  3  0  0  0  0  0  0
  189.6670  179.2360  143.3310 O   0  0  0  0  0  1  0  0  0  0  0  0
  188.8340  176.6510  142.0370 C   0  0  2  0  0  3  0  0  0  0  0  0
  189.8850  176.8240  143.1190 C   0  0  2  0  0  3  0  0  0  0  0  0
  191.8830  176.1940  145.6940 C   0  0  0  0  0  2  0  0  0  0  0  0
  192.8060  175.6280  147.9170 C   0  0  0  0  0  1  0  0  0  0  0  0
  191.5600  175.6190  147.0590 C   0  0  0  0  0  2  0  0  0  0  0  0
  186.8520  178.2820  140.2390 C   0  0  0  0  0  2  0  0  0  0  0  0
  186.2080  179.3220  141.1450 C   0  0  0  0  0  2  0  0  0  0  0  0
  183.7190  178.1330  141.3760 C   0  0  0  0  0  0  0  0  0  0  0  0
  184.0250  178.6060  142.6740 N   0  0  0  0  0  0  0  0  0  0  0  0
  182.9550  177.5120  140.5930 O   0  0  0  0  0  0  0  0  0  0  0  0
  184.9230  178.8390  141.6140 N   0  0  0  0  0  0  0  0  0  0  0  0
  183.7110  178.6790  144.0880 C   0  0  0  0  0  2  0  0  0  0  0  0
  184.8750  178.9340  144.8120 O   0  0  0  0  0  1  0  0  0  0  0  0
  1 25  1  6  0  0  0
  1  4  1  0  0  0  0
  2  1  1  0  0  0  0
  3 10  2  0  0  0  0
  4  8  1  1  0  0  0
  4 20  1  0  0  0  0
  6  5  1  6  0  0  0
  6  7  1  0  0  0  0
  6  9  1  0  0  0  0
  7  2  1  0  0  0  0
  9  5  1  6  0  0  0
  9  3  1  0  0  0  0
 10  8  1  0  0  0  0
 11 13  1  0  0  0  0
 12 14  1  1  0  0  0
 12 15  1  0  0  0  0
 15 22  1  6  0  0  0
 15 17  1  0  0  0  0
 16 13  1  6  0  0  0
 16 17  1  0  0  0  0
 18 19  1  1  0  0  0
 18 12  1  0  0  0  0
 20 11  1  1  0  0  0
 20 21  1  0  0  0  0
 21 18  1  0  0  0  0
 21 16  1  0  0  0  0
 22 24  1  0  0  0  0
 24 23  1  0  0  0  0
 25 26  1  0  0  0  0
 26 30  1  0  0  0  0
 27 30  1  0  0  0  0
 27 28  1  0  0  0  0
 28 31  1  0  0  0  0
 29 27  2  0  0  0  0
 30 28  1  0  0  0  0
 31 32  1  0  0  0  0
M  END
>  <MODEL>
7

>  <REMARK>
 VINA RESULT:      -5.7      3.113      7.230
  Name = 
  7 active torsions:
  status: ('A' for Active; 'I' for Inactive)
    1  A    between atoms: C_2  and  C_5
    2  A    between atoms: C_5  and  C_18
    3  A    between atoms: C_10  and  C_24
    4  A    between atoms: N_14  and  C_21
    5  A    between atoms: C_15  and  C_19
    6  A    between atoms: C_18  and  N_29
    7  A    between atoms: C_19  and  C_26
                            x       y       z     vdW  Elec       q    Type
                         _______ _______ _______ _____ _____    ______ ____

>  <TORSDO>
F 7

$$$$
=
 OpenBabel11052414303D

 32 36  0  0  1  0  0  0  0  0999 V2000
  187.9190  177.7210  141.2170 C   0  0  2  0  0  3  0  0  0  0  0  0
  187.8330  177.1240  142.6330 C   0  0  0  0  0  2  0  0  0  0  0  0
  191.6870  177.4690  142.6610 C   0  0  0  0  0  3  0  0  0  0  0  0
  189.3620  177.9090  140.6770 C   0  0  1  0  0  3  0  0  0  0  0  0
  190.5030  178.3040  144.7470 C   0  0  0  0  0  2  0  0  0  0  0  0
  189.6280  177.4310  143.8690 C   0  0  1  0  0  3  0  0  0  0  0  0
  188.3730  177.9750  143.6110 O   0  0  0  0  0  0  0  0  0  0  0  0
  190.1860  176.7150  140.8740 N   0  0  0  0  0  2  0  0  0  0  0  0
  190.6460  178.3630  143.2390 C   0  0  2  0  0  3  0  0  0  0  0  0
  191.4360  176.7040  141.5890 C   0  0  0  0  0  3  0  0  0  0  0  0
  188.3250  179.0030  138.7120 O   0  0  0  0  0  0  0  0  0  0  0  0
  189.9950  174.9890  137.2790 C   0  0  1  0  0  3  0  0  0  0  0  0
  188.4560  178.9990  137.3070 C   0  0  0  0  0  2  0  0  0  0  0  0
  189.2900  173.7860  137.2170 O   0  0  0  0  0  1  0  0  0  0  0  0
  190.1600  175.5790  135.8690 C   0  0  1  0  0  3  0  0  0  0  0  0
  189.5650  178.0460  136.8920 C   0  0  2  0  0  3  0  0  0  0  0  0
  189.0040  176.9570  135.5210 S   0  0  0  0  0  0  0  0  0  0  0  0
  189.3620  175.9350  138.3080 C   0  0  2  0  0  3  0  0  0  0  0  0
  187.9680  175.9480  138.1790 O   0  0  0  0  0  1  0  0  0  0  0  0
  189.4640  178.3500  139.2030 C   0  0  2  0  0  3  0  0  0  0  0  0
  189.9570  177.3470  138.1750 C   0  0  2  0  0  3  0  0  0  0  0  0
  191.5970  176.0130  135.6150 C   0  0  0  0  0  2  0  0  0  0  0  0
  193.5510  176.1830  137.1210 C   0  0  0  0  0  1  0  0  0  0  0  0
  192.5510  175.2330  136.4980 C   0  0  0  0  0  2  0  0  0  0  0  0
  187.0340  178.9650  141.0820 C   0  0  0  0  0  2  0  0  0  0  0  0
  185.5520  178.6600  141.2550 C   0  0  0  0  0  2  0  0  0  0  0  0
  183.9940  179.5400  139.1430 C   0  0  0  0  0  0  0  0  0  0  0  0
  184.6920  178.4150  138.6440 N   0  0  0  0  0  0  0  0  0  0  0  0
  183.2040  180.5020  138.9620 O   0  0  0  0  0  0  0  0  0  0  0  0
  184.8670  178.8100  139.9850 N   0  0  0  0  0  0  0  0  0  0  0  0
  185.0640  177.5620  137.5320 C   0  0  0  0  0  2  0  0  0  0  0  0
  184.3580  176.3620  137.6070 O   0  0  0  0  0  1  0  0  0  0  0  0
  1 25  1  1  0  0  0
  1  2  1  0  0  0  0
  2  7  1  0  0  0  0
  4  8  1  6  0  0  0
  4  1  1  0  0  0  0
  6  5  1  1  0  0  0
  7  6  1  0  0  0  0
  8 10  1  0  0  0  0
  9  3  1  1  0  0  0
  9  6  1  0  0  0  0
  9  5  1  0  0  0  0
 10  3  2  0  0  0  0
 12 14  1  6  0  0  0
 12 18  1  0  0  0  0
 13 11  1  0  0  0  0
 15 22  1  1  0  0  0
 15 12  1  0  0  0  0
 16 13  1  1  0  0  0
 16 21  1  0  0  0  0
 17 15  1  0  0  0  0
 17 16  1  0  0  0  0
 18 19  1  6  0  0  0
 20 11  1  6  0  0  0
 20  4  1  0  0  0  0
 21 18  1  0  0  0  0
 21 20  1  0  0  0  0
 22 24  1  0  0  0  0
 24 23  1  0  0  0  0
 25 26  1  0  0  0  0
 27 30  1  0  0  0  0
 28 27  1  0  0  0  0
 28 30  1  0  0  0  0
 29 27  2  0  0  0  0
 30 26  1  0  0  0  0
 31 32  1  0  0  0  0
 31 28  1  0  0  0  0
M  END
>  <MODEL>
8

>  <REMARK>
 VINA RESULT:      -5.6      2.157      5.230
  Name = 
  7 active torsions:
  status: ('A' for Active; 'I' for Inactive)
    1  A    between atoms: C_2  and  C_5
    2  A    between atoms: C_5  and  C_18
    3  A    between atoms: C_10  and  C_24
    4  A    between atoms: N_14  and  C_21
    5  A    between atoms: C_15  and  C_19
    6  A    between atoms: C_18  and  N_29
    7  A    between atoms: C_19  and  C_26
                            x       y       z     vdW  Elec       q    Type
                         _______ _______ _______ _____ _____    ______ ____

>  <TORSDO>
F 7

$$$$
=
 OpenBabel11052414303D

 32 36  0  0  1  0  0  0  0  0999 V2000
  187.9240  178.1960  139.6540 C   0  0  2  0  0  3  0  0  0  0  0  0
  187.8030  178.9960  140.9640 C   0  0  0  0  0  2  0  0  0  0  0  0
  183.9880  178.8120  140.3420 C   0  0  0  0  0  3  0  0  0  0  0  0
  186.5880  177.9860  138.8940 C   0  0  1  0  0  3  0  0  0  0  0  0
  184.7360  178.2540  142.7040 C   0  0  0  0  0  2  0  0  0  0  0  0
  185.8050  178.9500  141.8850 C   0  0  1  0  0  3  0  0  0  0  0  0
  187.0470  178.3240  141.9380 O   0  0  0  0  0  0  0  0  0  0  0  0
  185.8220  179.2270  138.7680 N   0  0  0  0  0  2  0  0  0  0  0  0
  184.8520  177.9740  141.2200 C   0  0  2  0  0  3  0  0  0  0  0  0
  184.4710  179.3960  139.2360 C   0  0  0  0  0  3  0  0  0  0  0  0
  186.6680  178.2350  136.4310 O   0  0  0  0  0  0  0  0  0  0  0  0
  183.6320  174.9330  137.3410 C   0  0  1  0  0  3  0  0  0  0  0  0
  186.4340  177.4540  135.2800 C   0  0  0  0  0  2  0  0  0  0  0  0
  182.2570  175.1090  137.5030 O   0  0  0  0  0  1  0  0  0  0  0  0
  183.9280  174.3040  135.9690 C   0  0  1  0  0  3  0  0  0  0  0  0
  186.0170  176.0480  135.6830 C   0  0  2  0  0  3  0  0  0  0  0  0
  184.5360  175.5150  134.7350 S   0  0  0  0  0  0  0  0  0  0  0  0
  184.3830  176.2390  137.6320 C   0  0  2  0  0  3  0  0  0  0  0  0
  183.7420  177.3260  137.0260 O   0  0  0  0  0  1  0  0  0  0  0  0
  186.7130  177.3330  137.5030 C   0  0  2  0  0  3  0  0  0  0  0  0
  185.8500  176.1240  137.1850 C   0  0  2  0  0  3  0  0  0  0  0  0
  184.8980  173.1380  136.0920 C   0  0  0  0  0  2  0  0  0  0  0  0
  183.3850  171.2890  136.7300 C   0  0  0  0  0  1  0  0  0  0  0  0
  184.4780  172.2140  137.2190 C   0  0  0  0  0  2  0  0  0  0  0  0
  188.7360  176.9120  139.8590 C   0  0  0  0  0  2  0  0  0  0  0  0
  190.0610  176.9220  139.1080 C   0  0  0  0  0  2  0  0  0  0  0  0
  192.5230  177.4240  140.2700 C   0  0  0  0  0  0  0  0  0  0  0  0
  191.5900  177.5010  141.3310 N   0  0  0  0  0  0  0  0  0  0  0  0
  193.7020  177.5300  139.8430 O   0  0  0  0  0  0  0  0  0  0  0  0
  191.1490  177.1770  140.0330 N   0  0  0  0  0  0  0  0  0  0  0  0
  191.2880  177.8170  142.7140 C   0  0  0  0  0  2  0  0  0  0  0  0
  190.0540  177.2690  143.0590 O   0  0  0  0  0  1  0  0  0  0  0  0
  1 25  1  1  0  0  0
  1  2  1  0  0  0  0
  2  7  1  0  0  0  0
  4  8  1  6  0  0  0
  4  1  1  0  0  0  0
  6  7  1  0  0  0  0
  6  5  1  1  0  0  0
  8 10  1  0  0  0  0
  9  3  1  6  0  0  0
  9  6  1  0  0  0  0
  9  5  1  0  0  0  0
 10  3  2  0  0  0  0
 12 14  1  6  0  0  0
 12 18  1  0  0  0  0
 13 11  1  0  0  0  0
 15 22  1  1  0  0  0
 15 12  1  0  0  0  0
 16 13  1  6  0  0  0
 16 21  1  0  0  0  0
 17 16  1  0  0  0  0
 17 15  1  0  0  0  0
 18 19  1  6  0  0  0
 20 11  1  6  0  0  0
 20  4  1  0  0  0  0
 21 20  1  0  0  0  0
 21 18  1  0  0  0  0
 22 24  1  0  0  0  0
 23 24  1  0  0  0  0
 26 25  1  0  0  0  0
 26 30  1  0  0  0  0
 27 28  1  0  0  0  0
 28 31  1  0  0  0  0
 29 27  2  0  0  0  0
 30 27  1  0  0  0  0
 30 28  1  0  0  0  0
 31 32  1  0  0  0  0
M  END
>  <MODEL>
9

>  <REMARK>
 VINA RESULT:      -5.6      2.785      4.113
  Name = 
  7 active torsions:
  status: ('A' for Active; 'I' for Inactive)
    1  A    between atoms: C_2  and  C_5
    2  A    between atoms: C_5  and  C_18
    3  A    between atoms: C_10  and  C_24
    4  A    between atoms: N_14  and  C_21
    5  A    between atoms: C_15  and  C_19
    6  A    between atoms: C_18  and  N_29
    7  A    between atoms: C_19  and  C_26
                            x       y       z     vdW  Elec       q    Type
                         _______ _______ _______ _____ _____    ______ ____

>  <TORSDO>
F 7

$$$$
