=
 OpenBabel11052412333D

 30 34  0  0  1  0  0  0  0  0999 V2000
  188.7590  177.8540  140.5370 C   0  0  1  0  0  3  0  0  0  0  0  0
  190.2310  177.9950  138.7240 C   0  0  0  0  0  2  0  0  0  0  0  0
  184.7400  178.0870  139.3130 C   0  0  0  0  0  0  0  0  0  0  0  0
  187.6430  178.0420  142.7990 C   0  0  2  0  0  3  0  0  0  0  0  0
  188.5730  177.2170  141.9190 C   0  0  2  0  0  3  0  0  0  0  0  0
  189.9200  176.8860  145.2540 C   0  0  0  0  0  2  0  0  0  0  0  0
  185.2540  179.9310  143.2790 C   0  0  0  0  0  2  0  0  0  0  0  0
  189.4340  177.7460  144.0860 C   0  0  1  0  0  3  0  0  0  0  0  0
  190.4040  175.7860  142.7730 C   0  0  0  0  0  2  0  0  0  0  0  0
  183.9640  178.5470  141.5920 C   0  0  1  0  0  3  0  0  0  0  0  0
  183.9610  177.7540  140.3090 C   0  0  0  0  0  0  0  0  0  0  0  0
  189.8500  177.2090  142.7080 C   0  0  1  0  0  3  0  0  0  0  0  0
  188.0340  177.8660  144.1320 O   0  0  0  0  0  0  0  0  0  0  0  0
  189.3560  177.9780  137.4770 C   0  0  0  0  0  2  0  0  0  0  0  0
  183.1520  177.9460  142.5650 O   0  0  0  0  0  0  0  0  0  0  0  0
  183.0340  179.4550  144.4560 C   0  0  0  0  0  2  0  0  0  0  0  0
  191.5910  175.7020  143.7390 C   0  0  0  0  0  2  0  0  0  0  0  0
  189.6950  177.0870  139.7280 N   0  0  0  0  0  2  0  0  0  0  0  0
  185.6210  178.3860  138.3850 C   0  0  0  0  0  3  0  0  0  0  0  0
  187.7770  179.6460  136.8690 O   0  0  0  0  0  0  0  0  0  0  0  0
  191.3790  176.4860  145.0440 C   0  0  0  0  0  2  0  0  0  0  0  0
  187.4190  177.8700  139.8910 C   0  0  0  0  0  3  0  0  0  0  0  0
  186.1710  177.6580  142.6130 C   0  0  0  0  0  2  0  0  0  0  0  0
  183.1040  176.6710  140.1620 O   0  0  0  0  0  1  0  0  0  0  0  0
  185.3610  178.8830  142.1630 C   0  0  2  0  0  3  0  0  0  0  0  0
  182.4310  179.0090  143.1200 C   0  0  0  0  0  2  0  0  0  0  0  0
  185.0110  180.0540  145.6520 O   0  0  0  0  0  1  0  0  0  0  0  0
  188.0600  178.7120  137.6650 C   0  0  0  0  0  0  0  0  0  0  0  0
  187.0690  178.2950  138.6770 C   0  0  0  0  0  0  0  0  0  0  0  0
  184.5620  179.3710  144.5230 C   0  0  2  0  0  3  0  0  0  0  0  0
  1 22  1  6  0  0  0
  1  5  1  0  0  0  0
  2 18  1  0  0  0  0
  3 11  2  0  0  0  0
  4 23  1  1  0  0  0
  4 13  1  0  0  0  0
  5 12  1  0  0  0  0
  5  4  1  0  0  0  0
  7 30  1  0  0  0  0
  8 13  1  0  0  0  0
  8  6  1  0  0  0  0
  9 17  1  0  0  0  0
 10 25  1  0  0  0  0
 10 15  1  0  0  0  0
 11 10  1  0  0  0  0
 12  9  1  0  0  0  0
 12  8  1  0  0  0  0
 14 28  1  0  0  0  0
 14  2  1  0  0  0  0
 15 26  1  0  0  0  0
 16 30  1  0  0  0  0
 17 21  1  0  0  0  0
 18  1  1  0  0  0  0
 19 29  1  0  0  0  0
 19  3  2  0  0  0  0
 20 28  2  0  0  0  0
 21  6  1  0  0  0  0
 24 11  1  0  0  0  0
 25 23  1  0  0  0  0
 25  7  1  0  0  0  0
 26 16  1  0  0  0  0
 28 29  1  0  0  0  0
 29 22  2  0  0  0  0
 30 27  1  0  0  0  0
M  END
>  <MODEL>
1

>  <REMARK>
 VINA RESULT:      -8.6      0.000      0.000
  Name = 
  0 active torsions:
  status: ('A' for Active; 'I' for Inactive)
                            x       y       z     vdW  Elec       q    Type
                         _______ _______ _______ _____ _____    ______ ____

>  <TORSDO>
F 0

$$$$
=
 OpenBabel11052412333D

 30 34  0  0  1  0  0  0  0  0999 V2000
  186.7830  178.5450  141.1310 C   0  0  1  0  0  3  0  0  0  0  0  0
  189.1140  178.7210  141.0370 C   0  0  0  0  0  2  0  0  0  0  0  0
  185.1440  177.4420  137.4150 C   0  0  0  0  0  0  0  0  0  0  0  0
  184.3270  178.8610  141.6460 C   0  0  2  0  0  3  0  0  0  0  0  0
  185.6190  178.1630  142.0520 C   0  0  2  0  0  3  0  0  0  0  0  0
  183.9280  178.8620  145.1670 C   0  0  0  0  0  2  0  0  0  0  0  0
  182.3830  180.0920  139.5940 C   0  0  0  0  0  2  0  0  0  0  0  0
  184.4930  179.3160  143.8180 C   0  0  1  0  0  3  0  0  0  0  0  0
  186.1700  177.4730  144.3650 C   0  0  0  0  0  2  0  0  0  0  0  0
  182.8860  178.1100  138.0960 C   0  0  1  0  0  3  0  0  0  0  0  0
  183.8890  177.1120  137.5740 C   0  0  0  0  0  0  0  0  0  0  0  0
  185.8300  178.6520  143.4550 C   0  0  1  0  0  3  0  0  0  0  0  0
  183.5580  179.0600  142.8000 O   0  0  0  0  0  0  0  0  0  0  0  0
  189.5130  178.2270  139.6520 C   0  0  0  0  0  2  0  0  0  0  0  0
  181.6350  177.5140  138.3050 O   0  0  0  0  0  0  0  0  0  0  0  0
  180.0700  179.2740  138.8740 C   0  0  0  0  0  2  0  0  0  0  0  0
  186.1900  177.9010  145.8360 C   0  0  0  0  0  2  0  0  0  0  0  0
  188.0220  177.9160  141.5650 N   0  0  0  0  0  2  0  0  0  0  0  0
  186.4140  177.7810  137.3840 C   0  0  0  0  0  3  0  0  0  0  0  0
  188.9270  179.2550  137.5920 O   0  0  0  0  0  0  0  0  0  0  0  0
  185.0330  178.8380  146.2200 C   0  0  0  0  0  2  0  0  0  0  0  0
  186.4210  178.0730  139.7670 C   0  0  0  0  0  3  0  0  0  0  0  0
  183.5380  178.0660  140.6020 C   0  0  0  0  0  2  0  0  0  0  0  0
  183.4810  175.8310  137.2260 O   0  0  0  0  0  1  0  0  0  0  0  0
  183.3340  178.9150  139.3380 C   0  0  2  0  0  3  0  0  0  0  0  0
  180.7210  178.4310  137.7720 C   0  0  0  0  0  2  0  0  0  0  0  0
  180.4020  180.6040  140.8270 O   0  0  0  0  0  1  0  0  0  0  0  0
  188.5200  178.6070  138.5910 C   0  0  0  0  0  0  0  0  0  0  0  0
  187.1190  178.1430  138.6340 C   0  0  0  0  0  0  0  0  0  0  0  0
  180.9990  179.6190  140.0420 C   0  0  2  0  0  3  0  0  0  0  0  0
  1 22  1  6  0  0  0
  1 18  1  0  0  0  0
  1  5  1  0  0  0  0
  2 18  1  0  0  0  0
  3 11  2  0  0  0  0
  4 23  1  6  0  0  0
  4  5  1  0  0  0  0
  4 13  1  0  0  0  0
  5 12  1  0  0  0  0
  6 21  1  0  0  0  0
  7 30  1  0  0  0  0
  8  6  1  0  0  0  0
  9 17  1  0  0  0  0
 10 15  1  0  0  0  0
 10 25  1  0  0  0  0
 11 10  1  0  0  0  0
 12  8  1  0  0  0  0
 12  9  1  0  0  0  0
 13  8  1  0  0  0  0
 14  2  1  0  0  0  0
 16 30  1  0  0  0  0
 17 21  1  0  0  0  0
 19  3  2  0  0  0  0
 19 29  1  0  0  0  0
 20 28  2  0  0  0  0
 24 11  1  0  0  0  0
 25  7  1  0  0  0  0
 25 23  1  0  0  0  0
 26 15  1  0  0  0  0
 26 16  1  0  0  0  0
 28 29  1  0  0  0  0
 28 14  1  0  0  0  0
 29 22  2  0  0  0  0
 30 27  1  0  0  0  0
M  END
>  <MODEL>
2

>  <REMARK>
 VINA RESULT:      -8.4      2.404      4.165
  Name = 
  0 active torsions:
  status: ('A' for Active; 'I' for Inactive)
                            x       y       z     vdW  Elec       q    Type
                         _______ _______ _______ _____ _____    ______ ____

>  <TORSDO>
F 0

$$$$
=
 OpenBabel11052412333D

 30 34  0  0  1  0  0  0  0  0999 V2000
  184.9050  178.6460  143.1720 C   0  0  1  0  0  3  0  0  0  0  0  0
  183.7530  179.2060  145.1290 C   0  0  0  0  0  2  0  0  0  0  0  0
  188.5790  176.7690  144.0000 C   0  0  0  0  0  0  0  0  0  0  0  0
  185.8870  178.6030  140.8420 C   0  0  2  0  0  3  0  0  0  0  0  0
  184.7080  178.2010  141.7180 C   0  0  2  0  0  3  0  0  0  0  0  0
  183.2450  179.0270  138.5200 C   0  0  0  0  0  2  0  0  0  0  0  0
  188.8720  179.1810  140.3270 C   0  0  0  0  0  2  0  0  0  0  0  0
  184.1300  179.3780  139.7190 C   0  0  1  0  0  3  0  0  0  0  0  0
  182.3830  177.9470  140.9050 C   0  0  0  0  0  2  0  0  0  0  0  0
  189.3950  177.1260  141.7160 C   0  0  1  0  0  3  0  0  0  0  0  0
  189.0620  176.2530  142.9010 C   0  0  0  0  0  0  0  0  0  0  0  0
  183.5580  178.9110  141.0660 C   0  0  1  0  0  3  0  0  0  0  0  0
  185.4110  178.8250  139.5440 O   0  0  0  0  0  0  0  0  0  0  0  0
  184.5550  178.5990  146.2720 C   0  0  0  0  0  2  0  0  0  0  0  0
  189.7780  176.3580  140.6080 O   0  0  0  0  0  0  0  0  0  0  0  0
  190.5400  177.8840  138.8870 C   0  0  0  0  0  2  0  0  0  0  0  0
  181.2680  178.5730  140.0610 C   0  0  0  0  0  2  0  0  0  0  0  0
  183.7460  178.3070  143.9840 N   0  0  0  0  0  2  0  0  0  0  0  0
  187.9870  177.3140  145.0390 C   0  0  0  0  0  3  0  0  0  0  0  0
  186.7660  179.2140  146.8930 O   0  0  0  0  0  0  0  0  0  0  0  0
  181.7840  179.3400  138.8330 C   0  0  0  0  0  2  0  0  0  0  0  0
  186.1090  177.9320  143.6770 C   0  0  0  0  0  3  0  0  0  0  0  0
  186.9960  177.5450  140.8350 C   0  0  0  0  0  2  0  0  0  0  0  0
  189.2940  174.8850  142.8430 O   0  0  0  0  0  1  0  0  0  0  0  0
  188.3130  178.1620  141.3300 C   0  0  2  0  0  3  0  0  0  0  0  0
  190.9020  177.0200  140.1000 C   0  0  0  0  0  2  0  0  0  0  0  0
  189.0550  179.5110  137.9690 O   0  0  0  0  0  1  0  0  0  0  0  0
  186.0380  178.6500  146.0340 C   0  0  0  0  0  0  0  0  0  0  0  0
  186.6650  177.9630  144.8880 C   0  0  0  0  0  0  0  0  0  0  0  0
  189.1600  178.5440  138.9670 C   0  0  2  0  0  3  0  0  0  0  0  0
  1 22  1  1  0  0  0
  1 18  1  0  0  0  0
  2 14  1  0  0  0  0
  3 19  2  0  0  0  0
  4 23  1  6  0  0  0
  4  5  1  0  0  0  0
  5  1  1  0  0  0  0
  6 21  1  0  0  0  0
  6  8  1  0  0  0  0
  7 25  1  0  0  0  0
  8 12  1  0  0  0  0
  9 12  1  0  0  0  0
 10 11  1  0  0  0  0
 11  3  2  0  0  0  0
 12  5  1  0  0  0  0
 13  8  1  0  0  0  0
 13  4  1  0  0  0  0
 15 10  1  0  0  0  0
 16 30  1  0  0  0  0
 16 26  1  0  0  0  0
 17  9  1  0  0  0  0
 18  2  1  0  0  0  0
 21 17  1  0  0  0  0
 22 29  2  0  0  0  0
 23 25  1  0  0  0  0
 24 11  1  0  0  0  0
 25 10  1  0  0  0  0
 26 15  1  0  0  0  0
 27 30  1  0  0  0  0
 28 14  1  0  0  0  0
 28 20  2  0  0  0  0
 29 19  1  0  0  0  0
 29 28  1  0  0  0  0
 30  7  1  0  0  0  0
M  END
>  <MODEL>
3

>  <REMARK>
 VINA RESULT:      -8.3      2.356      7.458
  Name = 
  0 active torsions:
  status: ('A' for Active; 'I' for Inactive)
                            x       y       z     vdW  Elec       q    Type
                         _______ _______ _______ _____ _____    ______ ____

>  <TORSDO>
F 0

$$$$
=
 OpenBabel11052412333D

 30 34  0  0  1  0  0  0  0  0999 V2000
  187.0230  177.8090  141.9420 C   0  0  1  0  0  3  0  0  0  0  0  0
  185.1750  178.1160  143.3440 C   0  0  0  0  0  2  0  0  0  0  0  0
  186.1320  178.7720  137.9440 C   0  0  0  0  0  0  0  0  0  0  0  0
  189.1340  176.9710  140.8300 C   0  0  2  0  0  3  0  0  0  0  0  0
  188.5530  177.8920  141.8950 C   0  0  2  0  0  3  0  0  0  0  0  0
  191.6490  176.6820  143.3090 C   0  0  0  0  0  2  0  0  0  0  0  0
  189.0660  175.4930  138.1250 C   0  0  0  0  0  2  0  0  0  0  0  0
  190.2870  176.4330  142.6550 C   0  0  1  0  0  3  0  0  0  0  0  0
  189.7280  178.5420  143.9750 C   0  0  0  0  0  2  0  0  0  0  0  0
  188.1300  177.6200  137.1130 C   0  0  1  0  0  3  0  0  0  0  0  0
  187.2410  178.8300  137.2530 C   0  0  0  0  0  0  0  0  0  0  0  0
  189.1810  177.3740  143.1550 C   0  0  1  0  0  3  0  0  0  0  0  0
  190.4000  176.5520  141.2590 O   0  0  0  0  0  0  0  0  0  0  0  0
  184.1000  178.7620  142.4790 C   0  0  0  0  0  2  0  0  0  0  0  0
  189.3190  177.9360  136.4410 O   0  0  0  0  0  0  0  0  0  0  0  0
  190.5130  175.8640  136.0490 C   0  0  0  0  0  2  0  0  0  0  0  0
  190.5550  178.0410  145.1640 C   0  0  0  0  0  2  0  0  0  0  0  0
  186.4860  178.6500  143.0020 N   0  0  0  0  0  2  0  0  0  0  0  0
  185.0910  178.7000  138.7430 C   0  0  0  0  0  3  0  0  0  0  0  0
  183.0440  177.7590  140.6020 O   0  0  0  0  0  0  0  0  0  0  0  0
  191.4850  176.8680  144.8150 C   0  0  0  0  0  2  0  0  0  0  0  0
  186.5290  178.2770  140.6190 C   0  0  0  0  0  3  0  0  0  0  0  0
  189.2250  177.6490  139.4590 C   0  0  0  0  0  2  0  0  0  0  0  0
  187.5790  180.0200  136.6200 O   0  0  0  0  0  1  0  0  0  0  0  0
  188.4180  176.8510  138.4240 C   0  0  2  0  0  3  0  0  0  0  0  0
  189.4940  176.8850  135.5320 C   0  0  0  0  0  2  0  0  0  0  0  0
  191.2330  174.5170  137.8820 O   0  0  0  0  0  1  0  0  0  0  0  0
  184.1050  178.2510  141.0670 C   0  0  0  0  0  0  0  0  0  0  0  0
  185.2770  178.4170  140.1840 C   0  0  0  0  0  0  0  0  0  0  0  0
  190.4810  175.6470  137.5650 C   0  0  2  0  0  3  0  0  0  0  0  0
  1 22  1  6  0  0  0
  1 18  1  0  0  0  0
  3 19  2  0  0  0  0
  4 23  1  6  0  0  0
  4 13  1  0  0  0  0
  4  5  1  0  0  0  0
  5  1  1  0  0  0  0
  5 12  1  0  0  0  0
  6 21  1  0  0  0  0
  7 25  1  0  0  0  0
  8 12  1  0  0  0  0
  8  6  1  0  0  0  0
  9 17  1  0  0  0  0
 10 11  1  0  0  0  0
 10 25  1  0  0  0  0
 11  3  2  0  0  0  0
 12  9  1  0  0  0  0
 13  8  1  0  0  0  0
 14  2  1  0  0  0  0
 15 10  1  0  0  0  0
 16 30  1  0  0  0  0
 18  2  1  0  0  0  0
 19 29  1  0  0  0  0
 20 28  2  0  0  0  0
 21 17  1  0  0  0  0
 24 11  1  0  0  0  0
 25 23  1  0  0  0  0
 26 16  1  0  0  0  0
 26 15  1  0  0  0  0
 28 14  1  0  0  0  0
 29 22  2  0  0  0  0
 29 28  1  0  0  0  0
 30 27  1  0  0  0  0
 30  7  1  0  0  0  0
M  END
>  <MODEL>
4

>  <REMARK>
 VINA RESULT:      -8.1      2.104      5.849
  Name = 
  0 active torsions:
  status: ('A' for Active; 'I' for Inactive)
                            x       y       z     vdW  Elec       q    Type
                         _______ _______ _______ _____ _____    ______ ____

>  <TORSDO>
F 0

$$$$
=
 OpenBabel11052412333D

 30 34  0  0  1  0  0  0  0  0999 V2000
  186.9300  178.3290  145.5250 C   0  0  1  0  0  3  0  0  0  0  0  0
  186.7320  178.8380  147.8010 C   0  0  0  0  0  2  0  0  0  0  0  0
  190.4970  176.2600  144.6880 C   0  0  0  0  0  0  0  0  0  0  0  0
  186.8500  178.3630  142.9980 C   0  0  2  0  0  3  0  0  0  0  0  0
  186.1200  177.9680  144.2750 C   0  0  2  0  0  3  0  0  0  0  0  0
  183.5120  179.0160  142.0070 C   0  0  0  0  0  2  0  0  0  0  0  0
  189.3790  178.8410  141.3000 C   0  0  0  0  0  2  0  0  0  0  0  0
  184.8340  179.2680  142.7350 C   0  0  1  0  0  3  0  0  0  0  0  0
  183.6570  177.8540  144.5020 C   0  0  0  0  0  2  0  0  0  0  0  0
  190.3090  176.6980  142.2830 C   0  0  1  0  0  3  0  0  0  0  0  0
  190.4470  175.7800  143.4730 C   0  0  0  0  0  0  0  0  0  0  0  0
  184.8480  178.7580  144.1840 C   0  0  1  0  0  3  0  0  0  0  0  0
  185.8910  178.6710  142.0250 O   0  0  0  0  0  0  0  0  0  0  0  0
  187.9000  178.1400  148.4850 C   0  0  0  0  0  2  0  0  0  0  0  0
  190.1500  175.9720  141.0950 O   0  0  0  0  0  0  0  0  0  0  0  0
  190.2160  177.5490  139.2570 C   0  0  0  0  0  2  0  0  0  0  0  0
  182.3320  178.5690  144.2190 C   0  0  0  0  0  2  0  0  0  0  0  0
  186.1960  177.9990  146.7380 N   0  0  0  0  0  2  0  0  0  0  0  0
  190.4250  176.7760  145.8940 C   0  0  0  0  0  3  0  0  0  0  0  0
  190.2010  178.6280  148.1420 O   0  0  0  0  0  0  0  0  0  0  0  0
  182.3350  179.3750  142.9110 C   0  0  0  0  0  2  0  0  0  0  0  0
  188.1900  177.5410  145.4600 C   0  0  0  0  0  3  0  0  0  0  0  0
  187.7900  177.2620  142.4980 C   0  0  0  0  0  2  0  0  0  0  0  0
  190.5520  174.4080  143.2840 O   0  0  0  0  0  1  0  0  0  0  0  0
  189.2280  177.7960  142.4140 C   0  0  2  0  0  3  0  0  0  0  0  0
  190.9970  176.6110  140.1820 C   0  0  0  0  0  2  0  0  0  0  0  0
  188.5840  179.2830  139.0910 O   0  0  0  0  0  1  0  0  0  0  0  0
  189.1490  178.1400  147.6510 C   0  0  0  0  0  0  0  0  0  0  0  0
  189.2010  177.4860  146.3280 C   0  0  0  0  0  0  0  0  0  0  0  0
  189.0360  178.2620  139.9260 C   0  0  2  0  0  3  0  0  0  0  0  0
  1 22  1  6  0  0  0
  1 18  1  0  0  0  0
  2 14  1  0  0  0  0
  3 19  2  0  0  0  0
  4 23  1  6  0  0  0
  4  5  1  0  0  0  0
  5  1  1  0  0  0  0
  6  8  1  0  0  0  0
  6 21  1  0  0  0  0
  7 25  1  0  0  0  0
  8 12  1  0  0  0  0
 10 25  1  0  0  0  0
 10 11  1  0  0  0  0
 11  3  2  0  0  0  0
 12  5  1  0  0  0  0
 12  9  1  0  0  0  0
 13  8  1  0  0  0  0
 13  4  1  0  0  0  0
 15 10  1  0  0  0  0
 16 30  1  0  0  0  0
 16 26  1  0  0  0  0
 17  9  1  0  0  0  0
 18  2  1  0  0  0  0
 19 29  1  0  0  0  0
 21 17  1  0  0  0  0
 22 29  2  0  0  0  0
 24 11  1  0  0  0  0
 25 23  1  0  0  0  0
 26 15  1  0  0  0  0
 27 30  1  0  0  0  0
 28 20  2  0  0  0  0
 28 14  1  0  0  0  0
 29 28  1  0  0  0  0
 30  7  1  0  0  0  0
M  END
>  <MODEL>
5

>  <REMARK>
 VINA RESULT:      -8.0      2.639      7.524
  Name = 
  0 active torsions:
  status: ('A' for Active; 'I' for Inactive)
                            x       y       z     vdW  Elec       q    Type
                         _______ _______ _______ _____ _____    ______ ____

>  <TORSDO>
F 0

$$$$
=
 OpenBabel11052412333D

 30 34  0  0  1  0  0  0  0  0999 V2000
  187.5120  177.6490  139.7970 C   0  0  1  0  0  3  0  0  0  0  0  0
  188.0360  177.0230  137.6050 C   0  0  0  0  0  2  0  0  0  0  0  0
  190.9420  177.8770  142.2230 C   0  0  0  0  0  0  0  0  0  0  0  0
  186.4100  177.9630  142.0520 C   0  0  2  0  0  3  0  0  0  0  0  0
  186.5460  178.4980  140.6320 C   0  0  2  0  0  3  0  0  0  0  0  0
  183.0930  179.0870  141.5140 C   0  0  0  0  0  2  0  0  0  0  0  0
  187.4670  176.5600  144.5850 C   0  0  0  0  0  2  0  0  0  0  0  0
  184.2990  178.1550  141.3730 C   0  0  1  0  0  3  0  0  0  0  0  0
  184.7710  179.7320  139.4250 C   0  0  0  0  0  2  0  0  0  0  0  0
  189.6130  177.8740  144.2830 C   0  0  1  0  0  3  0  0  0  0  0  0
  190.6400  178.4670  143.3500 C   0  0  0  0  0  0  0  0  0  0  0  0
  185.1400  178.4190  140.1150 C   0  0  1  0  0  3  0  0  0  0  0  0
  185.1210  178.2650  142.5090 O   0  0  0  0  0  0  0  0  0  0  0  0
  189.5570  176.9990  137.5320 C   0  0  0  0  0  2  0  0  0  0  0  0
  189.3550  178.7270  145.3650 O   0  0  0  0  0  0  0  0  0  0  0  0
  187.9100  177.5400  146.9060 C   0  0  0  0  0  2  0  0  0  0  0  0
  183.2820  179.7660  139.0670 C   0  0  0  0  0  2  0  0  0  0  0  0
  187.5870  178.1370  138.4280 N   0  0  0  0  0  2  0  0  0  0  0  0
  191.1280  177.3140  141.0500 C   0  0  0  0  0  3  0  0  0  0  0  0
  190.9790  175.5290  138.7420 O   0  0  0  0  0  0  0  0  0  0  0  0
  182.3700  179.2190  140.1760 C   0  0  0  0  0  2  0  0  0  0  0  0
  188.8440  177.7520  140.4510 C   0  0  0  0  0  3  0  0  0  0  0  0
  187.4670  178.5430  142.9980 C   0  0  0  0  0  2  0  0  0  0  0  0
  191.3010  179.6380  143.6960 O   0  0  0  0  0  1  0  0  0  0  0  0
  188.2990  177.4080  143.6140 C   0  0  2  0  0  3  0  0  0  0  0  0
  189.3410  177.8800  146.4790 C   0  0  0  0  0  2  0  0  0  0  0  0
  185.7420  176.8160  146.2180 O   0  0  0  0  0  1  0  0  0  0  0  0
  190.1930  176.5110  138.8020 C   0  0  0  0  0  0  0  0  0  0  0  0
  190.0100  177.2180  140.0850 C   0  0  0  0  0  0  0  0  0  0  0  0
  186.9200  177.3930  145.7450 C   0  0  2  0  0  3  0  0  0  0  0  0
  1 22  1  1  0  0  0
  1  5  1  0  0  0  0
  2 18  1  0  0  0  0
  3 11  2  0  0  0  0
  4 13  1  0  0  0  0
  4 23  1  1  0  0  0
  5  4  1  0  0  0  0
  7 30  1  0  0  0  0
  8  6  1  0  0  0  0
  8 13  1  0  0  0  0
  9 12  1  0  0  0  0
 10 15  1  0  0  0  0
 11 24  1  0  0  0  0
 11 10  1  0  0  0  0
 12  5  1  0  0  0  0
 12  8  1  0  0  0  0
 14  2  1  0  0  0  0
 14 28  1  0  0  0  0
 15 26  1  0  0  0  0
 17  9  1  0  0  0  0
 17 21  1  0  0  0  0
 18  1  1  0  0  0  0
 19  3  2  0  0  0  0
 20 28  2  0  0  0  0
 21  6  1  0  0  0  0
 23 25  1  0  0  0  0
 25 10  1  0  0  0  0
 25  7  1  0  0  0  0
 26 16  1  0  0  0  0
 28 29  1  0  0  0  0
 29 22  2  0  0  0  0
 29 19  1  0  0  0  0
 30 27  1  0  0  0  0
 30 16  1  0  0  0  0
M  END
>  <MODEL>
6

>  <REMARK>
 VINA RESULT:      -7.3      2.161      5.675
  Name = 
  0 active torsions:
  status: ('A' for Active; 'I' for Inactive)
                            x       y       z     vdW  Elec       q    Type
                         _______ _______ _______ _____ _____    ______ ____

>  <TORSDO>
F 0

$$$$
=
 OpenBabel11052412333D

 30 34  0  0  1  0  0  0  0  0999 V2000
  188.3690  177.1180  139.1830 C   0  0  1  0  0  3  0  0  0  0  0  0
  190.0130  177.1410  140.8470 C   0  0  0  0  0  2  0  0  0  0  0  0
  184.9390  179.2630  140.3410 C   0  0  0  0  0  0  0  0  0  0  0  0
  186.8190  176.4840  137.2870 C   0  0  2  0  0  3  0  0  0  0  0  0
  188.1620  177.0980  137.6640 C   0  0  2  0  0  3  0  0  0  0  0  0
  188.7940  175.3030  134.5940 C   0  0  0  0  0  2  0  0  0  0  0  0
  183.8380  175.8640  137.7660 C   0  0  0  0  0  2  0  0  0  0  0  0
  188.2670  175.3560  136.0300 C   0  0  1  0  0  3  0  0  0  0  0  0
  190.1830  177.0270  136.2360 C   0  0  0  0  0  2  0  0  0  0  0  0
  183.5830  178.2570  138.5640 C   0  0  1  0  0  3  0  0  0  0  0  0
  184.1630  179.4380  139.3030 C   0  0  0  0  0  0  0  0  0  0  0  0
  189.1410  176.1910  136.9780 C   0  0  1  0  0  3  0  0  0  0  0  0
  186.9570  175.8670  136.0380 O   0  0  0  0  0  0  0  0  0  0  0  0
  189.5010  178.0880  141.9250 C   0  0  0  0  0  2  0  0  0  0  0  0
  182.8880  178.6660  137.4170 O   0  0  0  0  0  0  0  0  0  0  0  0
  181.7890  176.7150  136.4910 C   0  0  0  0  0  2  0  0  0  0  0  0
  191.0740  176.1430  135.3570 C   0  0  0  0  0  2  0  0  0  0  0  0
  189.6790  177.6520  139.5260 N   0  0  0  0  0  2  0  0  0  0  0  0
  185.8060  179.0400  141.3030 C   0  0  0  0  0  3  0  0  0  0  0  0
  187.5590  177.7540  143.2540 O   0  0  0  0  0  0  0  0  0  0  0  0
  190.3010  175.0560  134.5940 C   0  0  0  0  0  2  0  0  0  0  0  0
  187.3000  177.9850  139.7480 C   0  0  0  0  0  3  0  0  0  0  0  0
  185.6930  177.5220  137.2550 C   0  0  0  0  0  2  0  0  0  0  0  0
  183.8530  180.7310  138.9020 O   0  0  0  0  0  1  0  0  0  0  0  0
  184.5810  177.1220  138.2360 C   0  0  2  0  0  3  0  0  0  0  0  0
  181.7070  177.9140  137.4410 C   0  0  0  0  0  2  0  0  0  0  0  0
  183.0710  174.8430  135.7470 O   0  0  0  0  0  1  0  0  0  0  0  0
  188.0120  178.0100  142.1070 C   0  0  0  0  0  0  0  0  0  0  0  0
  187.0760  178.3380  141.0130 C   0  0  0  0  0  0  0  0  0  0  0  0
  183.1760  176.0690  136.4020 C   0  0  2  0  0  3  0  0  0  0  0  0
  1 18  1  0  0  0  0
  1 22  1  1  0  0  0
  2 14  1  0  0  0  0
  3 19  2  0  0  0  0
  4 23  1  6  0  0  0
  4  5  1  0  0  0  0
  5  1  1  0  0  0  0
  6  8  1  0  0  0  0
  7 25  1  0  0  0  0
  8 13  1  0  0  0  0
  8 12  1  0  0  0  0
  9 12  1  0  0  0  0
 10 11  1  0  0  0  0
 11  3  2  0  0  0  0
 12  5  1  0  0  0  0
 13  4  1  0  0  0  0
 14 28  1  0  0  0  0
 15 26  1  0  0  0  0
 15 10  1  0  0  0  0
 16 26  1  0  0  0  0
 17  9  1  0  0  0  0
 18  2  1  0  0  0  0
 21  6  1  0  0  0  0
 21 17  1  0  0  0  0
 22 29  2  0  0  0  0
 23 25  1  0  0  0  0
 24 11  1  0  0  0  0
 25 10  1  0  0  0  0
 27 30  1  0  0  0  0
 28 20  2  0  0  0  0
 29 19  1  0  0  0  0
 29 28  1  0  0  0  0
 30 16  1  0  0  0  0
 30  7  1  0  0  0  0
M  END
>  <MODEL>
7

>  <REMARK>
 VINA RESULT:      -6.6      2.662      6.201
  Name = 
  0 active torsions:
  status: ('A' for Active; 'I' for Inactive)
                            x       y       z     vdW  Elec       q    Type
                         _______ _______ _______ _____ _____    ______ ____

>  <TORSDO>
F 0

$$$$
=
 OpenBabel11052412333D

 30 34  0  0  1  0  0  0  0  0999 V2000
  184.6980  177.8850  140.8500 C   0  0  1  0  0  3  0  0  0  0  0  0
  182.5040  177.5800  140.0970 C   0  0  0  0  0  2  0  0  0  0  0  0
  187.3980  178.3590  137.6570 C   0  0  0  0  0  0  0  0  0  0  0  0
  186.8780  177.7920  142.1280 C   0  0  2  0  0  3  0  0  0  0  0  0
  185.5310  178.4890  141.9870 C   0  0  2  0  0  3  0  0  0  0  0  0
  186.1900  178.4630  145.5390 C   0  0  0  0  0  2  0  0  0  0  0  0
  189.3420  176.2990  141.0290 C   0  0  0  0  0  2  0  0  0  0  0  0
  186.0570  177.7400  144.1960 C   0  0  1  0  0  3  0  0  0  0  0  0
  184.3100  179.5670  143.8520 C   0  0  0  0  0  2  0  0  0  0  0  0
  189.3360  177.9420  139.0980 C   0  0  1  0  0  3  0  0  0  0  0  0
  188.5480  178.7750  138.1180 C   0  0  0  0  0  0  0  0  0  0  0  0
  184.8990  178.2580  143.3280 C   0  0  1  0  0  3  0  0  0  0  0  0
  187.2590  177.8490  143.4750 O   0  0  0  0  0  0  0  0  0  0  0  0
  182.5490  177.7890  138.5890 C   0  0  0  0  0  2  0  0  0  0  0  0
  190.4710  178.6270  139.5540 O   0  0  0  0  0  0  0  0  0  0  0  0
  191.7730  177.0830  140.8920 C   0  0  0  0  0  2  0  0  0  0  0  0
  183.8410  179.4190  145.3030 C   0  0  0  0  0  2  0  0  0  0  0  0
  183.3920  178.5220  140.7640 N   0  0  0  0  0  2  0  0  0  0  0  0
  186.1950  177.9580  137.3120 C   0  0  0  0  0  3  0  0  0  0  0  0
  183.7230  176.4260  137.0360 O   0  0  0  0  0  0  0  0  0  0  0  0
  184.8170  178.6280  146.1870 C   0  0  0  0  0  2  0  0  0  0  0  0
  185.4620  178.1140  139.5940 C   0  0  0  0  0  3  0  0  0  0  0  0
  187.9550  178.4170  141.2360 C   0  0  0  0  0  2  0  0  0  0  0  0
  189.0560  179.9880  137.6710 O   0  0  0  0  0  1  0  0  0  0  0  0
  188.5250  177.3600  140.2790 C   0  0  2  0  0  3  0  0  0  0  0  0
  191.4950  177.6740  139.5060 C   0  0  0  0  0  2  0  0  0  0  0  0
  190.8500  176.1230  142.8730 O   0  0  0  0  0  1  0  0  0  0  0  0
  183.8140  177.2680  137.9670 C   0  0  0  0  0  0  0  0  0  0  0  0
  185.1400  177.8010  138.3390 C   0  0  0  0  0  0  0  0  0  0  0  0
  190.5290  176.9140  141.7710 C   0  0  2  0  0  3  0  0  0  0  0  0
  1 22  1  6  0  0  0
  1  5  1  0  0  0  0
  2 18  1  0  0  0  0
  3 11  2  0  0  0  0
  4 23  1  6  0  0  0
  4 13  1  0  0  0  0
  5  4  1  0  0  0  0
  5 12  1  0  0  0  0
  6 21  1  0  0  0  0
  7 30  1  0  0  0  0
  8  6  1  0  0  0  0
  9 17  1  0  0  0  0
 10 15  1  0  0  0  0
 10 25  1  0  0  0  0
 11 10  1  0  0  0  0
 12  9  1  0  0  0  0
 12  8  1  0  0  0  0
 13  8  1  0  0  0  0
 14  2  1  0  0  0  0
 16 30  1  0  0  0  0
 17 21  1  0  0  0  0
 18  1  1  0  0  0  0
 19  3  2  0  0  0  0
 19 29  1  0  0  0  0
 20 28  2  0  0  0  0
 24 11  1  0  0  0  0
 25  7  1  0  0  0  0
 25 23  1  0  0  0  0
 26 15  1  0  0  0  0
 26 16  1  0  0  0  0
 28 29  1  0  0  0  0
 28 14  1  0  0  0  0
 29 22  2  0  0  0  0
 30 27  1  0  0  0  0
M  END
>  <MODEL>
8

>  <REMARK>
 VINA RESULT:      -6.5      2.252      5.811
  Name = 
  0 active torsions:
  status: ('A' for Active; 'I' for Inactive)
                            x       y       z     vdW  Elec       q    Type
                         _______ _______ _______ _____ _____    ______ ____

>  <TORSDO>
F 0

$$$$
=
 OpenBabel11052412333D

 30 34  0  0  1  0  0  0  0  0999 V2000
  190.7940  176.4070  139.5920 C   0  0  1  0  0  3  0  0  0  0  0  0
  191.7450  176.8620  141.6810 C   0  0  0  0  0  2  0  0  0  0  0  0
  187.0390  178.2530  139.1460 C   0  0  0  0  0  0  0  0  0  0  0  0
  190.0540  175.3320  137.4260 C   0  0  2  0  0  3  0  0  0  0  0  0
  191.1350  176.1510  138.1200 C   0  0  2  0  0  3  0  0  0  0  0  0
  192.9230  174.0410  135.7960 C   0  0  0  0  0  2  0  0  0  0  0  0
  187.1430  174.4220  136.9770 C   0  0  0  0  0  2  0  0  0  0  0  0
  191.9240  174.2270  136.9410 C   0  0  1  0  0  3  0  0  0  0  0  0
  193.5280  176.1330  137.4860 C   0  0  0  0  0  2  0  0  0  0  0  0
  186.4640  176.8520  137.2180 C   0  0  1  0  0  3  0  0  0  0  0  0
  186.6670  178.1860  137.8950 C   0  0  0  0  0  0  0  0  0  0  0  0
  192.3510  175.2860  137.9680 C   0  0  1  0  0  3  0  0  0  0  0  0
  190.6630  174.5700  136.4210 O   0  0  0  0  0  0  0  0  0  0  0  0
  190.8250  177.8780  142.3450 C   0  0  0  0  0  2  0  0  0  0  0  0
  186.1890  177.0100  135.8530 O   0  0  0  0  0  0  0  0  0  0  0  0
  185.6190  174.8300  134.9630 C   0  0  0  0  0  2  0  0  0  0  0  0
  194.7290  175.2520  137.1230 C   0  0  0  0  0  2  0  0  0  0  0  0
  191.8610  177.1400  140.2570 N   0  0  0  0  0  2  0  0  0  0  0  0
  187.5270  178.2730  140.3670 C   0  0  0  0  0  3  0  0  0  0  0  0
  188.5680  177.4940  142.9820 O   0  0  0  0  0  0  0  0  0  0  0  0
  194.3480  173.9840  136.3440 C   0  0  0  0  0  2  0  0  0  0  0  0
  189.5390  177.2060  139.6080 C   0  0  0  0  0  3  0  0  0  0  0  0
  188.9430  176.2090  136.8400 C   0  0  0  0  0  2  0  0  0  0  0  0
  186.4300  179.3630  137.1970 O   0  0  0  0  0  1  0  0  0  0  0  0
  187.5880  175.8140  137.4450 C   0  0  2  0  0  3  0  0  0  0  0  0
  185.1290  176.1290  135.6090 C   0  0  0  0  0  2  0  0  0  0  0  0
  187.2040  173.0450  135.0250 O   0  0  0  0  0  1  0  0  0  0  0  0
  189.3750  177.6440  142.0280 C   0  0  0  0  0  0  0  0  0  0  0  0
  188.8620  177.7000  140.6440 C   0  0  0  0  0  0  0  0  0  0  0  0
  186.9900  174.3540  135.4560 C   0  0  2  0  0  3  0  0  0  0  0  0
  1 22  1  6  0  0  0
  1 18  1  0  0  0  0
  2 14  1  0  0  0  0
  3 19  2  0  0  0  0
  4 23  1  6  0  0  0
  4  5  1  0  0  0  0
  5  1  1  0  0  0  0
  6 21  1  0  0  0  0
  6  8  1  0  0  0  0
  7 25  1  0  0  0  0
  8 12  1  0  0  0  0
  9 12  1  0  0  0  0
 10 25  1  0  0  0  0
 10 11  1  0  0  0  0
 11  3  2  0  0  0  0
 12  5  1  0  0  0  0
 13  8  1  0  0  0  0
 13  4  1  0  0  0  0
 15 10  1  0  0  0  0
 16 30  1  0  0  0  0
 16 26  1  0  0  0  0
 17  9  1  0  0  0  0
 18  2  1  0  0  0  0
 19 29  1  0  0  0  0
 21 17  1  0  0  0  0
 22 29  2  0  0  0  0
 23 25  1  0  0  0  0
 24 11  1  0  0  0  0
 26 15  1  0  0  0  0
 27 30  1  0  0  0  0
 28 14  1  0  0  0  0
 28 20  2  0  0  0  0
 29 28  1  0  0  0  0
 30  7  1  0  0  0  0
M  END
>  <MODEL>
9

>  <REMARK>
 VINA RESULT:      -6.4      3.506      6.880
  Name = 
  0 active torsions:
  status: ('A' for Active; 'I' for Inactive)
                            x       y       z     vdW  Elec       q    Type
                         _______ _______ _______ _____ _____    ______ ____

>  <TORSDO>
F 0

$$$$
