=
 OpenBabel11052412253D

 30 32  0  0  1  0  0  0  0  0999 V2000
  191.0150  177.8400  145.4930 C   0  0  1  0  0  3  0  0  0  0  0  0
  189.7640  177.2440  146.1310 C   0  0  1  0  0  3  0  0  0  0  0  0
  190.3080  176.2210  147.0730 C   0  0  0  0  0  3  0  0  0  0  0  0
  192.0800  177.0790  146.0340 O   0  0  0  0  0  0  0  0  0  0  0  0
  191.6220  176.1670  146.9660 C   0  0  0  0  0  3  0  0  0  0  0  0
  191.9890  177.7170  143.3410 O   0  0  0  0  0  0  0  0  0  0  0  0
  190.9620  177.6890  144.0050 C   0  0  0  0  0  0  0  0  0  0  0  0
  189.6330  177.4820  143.3470 C   0  0  2  0  0  3  0  0  0  0  0  0
  188.1680  175.6040  143.0610 O   0  0  0  0  0  0  0  0  0  0  0  0
  189.3520  176.0250  143.1420 C   0  0  0  0  0  0  0  0  0  0  0  0
  190.4360  175.1140  143.0070 N   0  0  0  0  0  1  0  0  0  0  0  0
  189.5380  178.2740  142.0470 C   0  0  0  0  0  2  0  0  0  0  0  0
  190.8290  177.3200  140.1430 C   0  0  0  0  0  1  0  0  0  0  0  0
  189.4820  177.3480  140.8370 C   0  0  2  0  0  3  0  0  0  0  0  0
  188.3780  177.7520  139.8600 C   0  0  0  0  0  2  0  0  0  0  0  0
  188.4450  178.4500  137.6220 C   0  0  0  0  0  2  0  0  0  0  0  0
  187.4290  177.4120  137.7440 C   0  0  0  0  0  2  0  0  0  0  0  0
  188.6790  177.3010  138.5090 N   0  0  0  0  0  0  0  0  0  0  0  0
  189.0040  178.3200  146.8880 C   0  0  0  0  0  2  0  0  0  0  0  0
  187.6890  177.7790  147.4280 C   0  0  1  0  0  3  0  0  0  0  0  0
  187.7670  177.7220  148.9380 C   0  0  0  0  0  1  0  0  0  0  0  0
  186.5910  178.6590  147.0410 N   0  0  0  0  0  2  0  0  0  0  0  0
  184.5810  178.3560  142.9960 C   0  0  0  0  0  0  0  0  0  0  0  0
  183.8630  179.4190  143.7560 C   0  0  0  0  0  2  0  0  0  0  0  0
  184.1060  177.9920  141.7820 F   0  0  0  0  0  0  0  0  0  0  0  0
  185.7920  178.4810  145.8660 C   0  0  0  0  0  0  0  0  0  0  0  0
  183.4540  178.9410  145.1070 C   0  0  0  0  0  3  0  0  0  0  0  0
  185.7380  177.8430  143.4140 C   0  0  0  0  0  3  0  0  0  0  0  0
  184.3280  178.5610  146.0390 C   0  0  0  0  0  3  0  0  0  0  0  0
  186.3840  178.1200  144.7130 C   0  0  0  0  0  3  0  0  0  0  0  0
  1  7  1  6  0  0  0
  1  4  1  0  0  0  0
  1  2  1  0  0  0  0
  2 19  1  1  0  0  0
  2  3  1  0  0  0  0
  4  5  1  0  0  0  0
  5  3  2  0  0  0  0
  6  7  2  0  0  0  0
  8 12  1  6  0  0  0
  8  7  1  0  0  0  0
  9 10  2  0  0  0  0
 10  8  1  0  0  0  0
 11 10  1  0  0  0  0
 14 13  1  6  0  0  0
 14 12  1  0  0  0  0
 15 14  1  0  0  0  0
 16 17  1  0  0  0  0
 16 18  1  0  0  0  0
 17 18  1  0  0  0  0
 18 15  1  0  0  0  0
 19 20  1  0  0  0  0
 20 21  1  1  0  0  0
 22 20  1  0  0  0  0
 23 28  2  0  0  0  0
 23 24  1  0  0  0  0
 24 27  1  0  0  0  0
 25 23  1  0  0  0  0
 26 29  1  0  0  0  0
 26 22  1  0  0  0  0
 27 29  2  0  0  0  0
 28 30  1  0  0  0  0
 30 26  2  0  0  0  0
M  END
>  <MODEL>
1

>  <REMARK>
 VINA RESULT:      -7.8      0.000      0.000
  Name = 
  11 active torsions:
  status: ('A' for Active; 'I' for Inactive)
    1  A    between atoms: N_3  and  C_11
    2  A    between atoms: N_3  and  C_19
    3  A    between atoms: C_4  and  C_13
    4  A    between atoms: C_7  and  C_30
    5  A    between atoms: C_8  and  C_12
    6  A    between atoms: C_8  and  C_13
    7  A    between atoms: C_9  and  C_12
    8  A    between atoms: C_9  and  N_21
    9  A    between atoms: C_10  and  C_25
   10  A    between atoms: C_11  and  C_25
   11  A    between atoms: C_13  and  C_30
                            x       y       z     vdW  Elec       q    Type
                         _______ _______ _______ _____ _____    ______ ____

>  <TORSDO>
F 11

$$$$
=
 OpenBabel11052412253D

 30 32  0  0  1  0  0  0  0  0999 V2000
  187.3070  178.3120  144.5390 C   0  0  1  0  0  3  0  0  0  0  0  0
  185.8720  177.8880  144.8340 C   0  0  1  0  0  3  0  0  0  0  0  0
  185.8750  177.6490  146.3080 C   0  0  0  0  0  3  0  0  0  0  0  0
  187.9700  178.1900  145.7860 O   0  0  0  0  0  0  0  0  0  0  0  0
  187.0910  177.8260  146.7880 C   0  0  0  0  0  3  0  0  0  0  0  0
  187.5140  176.2540  143.3910 O   0  0  0  0  0  0  0  0  0  0  0  0
  187.9220  177.3990  143.5240 C   0  0  0  0  0  0  0  0  0  0  0  0
  189.0280  177.9210  142.6600 C   0  0  2  0  0  3  0  0  0  0  0  0
  189.3120  177.0220  140.4540 O   0  0  0  0  0  0  0  0  0  0  0  0
  188.6790  177.8090  141.2080 C   0  0  0  0  0  0  0  0  0  0  0  0
  187.6030  178.5750  140.6840 N   0  0  0  0  0  1  0  0  0  0  0  0
  190.3480  177.2320  142.9900 C   0  0  0  0  0  2  0  0  0  0  0  0
  191.7730  178.9210  144.1350 C   0  0  0  0  0  1  0  0  0  0  0  0
  190.8970  177.7000  144.3320 C   0  0  2  0  0  3  0  0  0  0  0  0
  191.6660  176.5930  145.0520 C   0  0  0  0  0  2  0  0  0  0  0  0
  191.9780  175.7050  147.2010 C   0  0  0  0  0  2  0  0  0  0  0  0
  190.7820  176.5370  147.2230 C   0  0  0  0  0  2  0  0  0  0  0  0
  191.9480  176.9580  146.4330 N   0  0  0  0  0  0  0  0  0  0  0  0
  184.9140  179.0110  144.4750 C   0  0  0  0  0  2  0  0  0  0  0  0
  183.9370  178.5700  143.3960 C   0  0  1  0  0  3  0  0  0  0  0  0
  182.5640  179.1100  143.7290 C   0  0  0  0  0  1  0  0  0  0  0  0
  184.3540  179.0950  142.1000 N   0  0  0  0  0  2  0  0  0  0  0  0
  183.2360  176.7500  138.3930 C   0  0  0  0  0  0  0  0  0  0  0  0
  184.4970  177.4800  138.0780 C   0  0  0  0  0  2  0  0  0  0  0  0
  182.6260  176.0510  137.4070 F   0  0  0  0  0  0  0  0  0  0  0  0
  183.9570  178.5410  140.8400 C   0  0  0  0  0  0  0  0  0  0  0  0
  184.3860  178.9290  138.4080 C   0  0  0  0  0  3  0  0  0  0  0  0
  182.7570  176.6640  139.6340 C   0  0  0  0  0  3  0  0  0  0  0  0
  184.1790  179.3790  139.6450 C   0  0  0  0  0  3  0  0  0  0  0  0
  183.2900  177.3720  140.8140 C   0  0  0  0  0  3  0  0  0  0  0  0
  1  7  1  6  0  0  0
  1  2  1  0  0  0  0
  1  4  1  0  0  0  0
  2 19  1  1  0  0  0
  2  3  1  0  0  0  0
  3  5  2  0  0  0  0
  4  5  1  0  0  0  0
  6  7  2  0  0  0  0
  8 12  1  6  0  0  0
  8  7  1  0  0  0  0
  9 10  2  0  0  0  0
 10  8  1  0  0  0  0
 11 10  1  0  0  0  0
 12 14  1  0  0  0  0
 14 13  1  6  0  0  0
 14 15  1  0  0  0  0
 15 18  1  0  0  0  0
 16 17  1  0  0  0  0
 18 16  1  0  0  0  0
 18 17  1  0  0  0  0
 20 21  1  1  0  0  0
 20 19  1  0  0  0  0
 22 20  1  0  0  0  0
 23 28  2  0  0  0  0
 24 23  1  0  0  0  0
 24 27  1  0  0  0  0
 25 23  1  0  0  0  0
 26 22  1  0  0  0  0
 27 29  2  0  0  0  0
 28 30  1  0  0  0  0
 29 26  1  0  0  0  0
 30 26  2  0  0  0  0
M  END
>  <MODEL>
2

>  <REMARK>
 VINA RESULT:      -7.5      2.609      5.558
  Name = 
  11 active torsions:
  status: ('A' for Active; 'I' for Inactive)
    1  A    between atoms: N_3  and  C_11
    2  A    between atoms: N_3  and  C_19
    3  A    between atoms: C_4  and  C_13
    4  A    between atoms: C_7  and  C_30
    5  A    between atoms: C_8  and  C_12
    6  A    between atoms: C_8  and  C_13
    7  A    between atoms: C_9  and  C_12
    8  A    between atoms: C_9  and  N_21
    9  A    between atoms: C_10  and  C_25
   10  A    between atoms: C_11  and  C_25
   11  A    between atoms: C_13  and  C_30
                            x       y       z     vdW  Elec       q    Type
                         _______ _______ _______ _____ _____    ______ ____

>  <TORSDO>
F 11

$$$$
=
 OpenBabel11052412253D

 30 32  0  0  1  0  0  0  0  0999 V2000
  187.7590  177.3940  138.3660 C   0  0  1  0  0  3  0  0  0  0  0  0
  186.5390  178.1910  137.9150 C   0  0  1  0  0  3  0  0  0  0  0  0
  186.4290  177.8680  136.4610 C   0  0  0  0  0  3  0  0  0  0  0  0
  188.2500  176.8040  137.1740 O   0  0  0  0  0  0  0  0  0  0  0  0
  187.4300  177.0880  136.0980 C   0  0  0  0  0  3  0  0  0  0  0  0
  189.0250  179.3900  138.4530 O   0  0  0  0  0  0  0  0  0  0  0  0
  188.7850  178.3050  138.9640 C   0  0  0  0  0  0  0  0  0  0  0  0
  189.4940  177.8740  140.2100 C   0  0  2  0  0  3  0  0  0  0  0  0
  190.5780  175.9220  139.3310 O   0  0  0  0  0  0  0  0  0  0  0  0
  190.7010  177.0460  139.8870 C   0  0  0  0  0  0  0  0  0  0  0  0
  191.9970  177.5500  140.1830 N   0  0  0  0  0  1  0  0  0  0  0  0
  188.5410  177.1550  141.1600 C   0  0  0  0  0  2  0  0  0  0  0  0
  188.2800  176.0850  143.3920 C   0  0  0  0  0  1  0  0  0  0  0  0
  189.1720  176.9580  142.5330 C   0  0  2  0  0  3  0  0  0  0  0  0
  189.4570  178.2890  143.2270 C   0  0  0  0  0  2  0  0  0  0  0  0
  191.5400  179.0230  144.0180 C   0  0  0  0  0  2  0  0  0  0  0  0
  191.6470  177.6040  143.7060 C   0  0  0  0  0  2  0  0  0  0  0  0
  190.4140  178.1240  144.3120 N   0  0  0  0  0  0  0  0  0  0  0  0
  185.3050  177.7180  138.6640 C   0  0  0  0  0  2  0  0  0  0  0  0
  184.8660  178.7470  139.6950 C   0  0  1  0  0  3  0  0  0  0  0  0
  183.8900  179.7040  139.0450 C   0  0  0  0  0  1  0  0  0  0  0  0
  184.2080  178.0830  140.8140 N   0  0  0  0  0  2  0  0  0  0  0  0
  184.9460  178.8640  145.2110 C   0  0  0  0  0  0  0  0  0  0  0  0
  183.5130  178.4770  145.0770 C   0  0  0  0  0  2  0  0  0  0  0  0
  185.4020  179.2560  146.4240 F   0  0  0  0  0  0  0  0  0  0  0  0
  184.3210  178.5010  142.1790 C   0  0  0  0  0  0  0  0  0  0  0  0
  182.8270  179.2810  144.0260 C   0  0  0  0  0  3  0  0  0  0  0  0
  185.8170  178.7210  144.2120 C   0  0  0  0  0  3  0  0  0  0  0  0
  183.1810  179.2520  142.7410 C   0  0  0  0  0  3  0  0  0  0  0  0
  185.4850  178.3200  142.8310 C   0  0  0  0  0  3  0  0  0  0  0  0
  1  7  1  6  0  0  0
  2  1  1  0  0  0  0
  2 19  1  1  0  0  0
  3  2  1  0  0  0  0
  4  1  1  0  0  0  0
  5  3  2  0  0  0  0
  5  4  1  0  0  0  0
  6  7  2  0  0  0  0
  7  8  1  0  0  0  0
  8 12  1  1  0  0  0
  9 10  2  0  0  0  0
 10 11  1  0  0  0  0
 10  8  1  0  0  0  0
 12 14  1  0  0  0  0
 14 15  1  0  0  0  0
 14 13  1  1  0  0  0
 15 18  1  0  0  0  0
 16 18  1  0  0  0  0
 17 16  1  0  0  0  0
 17 18  1  0  0  0  0
 19 20  1  0  0  0  0
 20 21  1  6  0  0  0
 20 22  1  0  0  0  0
 22 26  1  0  0  0  0
 23 25  1  0  0  0  0
 24 23  1  0  0  0  0
 26 29  1  0  0  0  0
 26 30  2  0  0  0  0
 27 24  1  0  0  0  0
 28 23  2  0  0  0  0
 29 27  2  0  0  0  0
 30 28  1  0  0  0  0
M  END
>  <MODEL>
3

>  <REMARK>
 VINA RESULT:      -7.4      2.985      6.288
  Name = 
  11 active torsions:
  status: ('A' for Active; 'I' for Inactive)
    1  A    between atoms: N_3  and  C_11
    2  A    between atoms: N_3  and  C_19
    3  A    between atoms: C_4  and  C_13
    4  A    between atoms: C_7  and  C_30
    5  A    between atoms: C_8  and  C_12
    6  A    between atoms: C_8  and  C_13
    7  A    between atoms: C_9  and  C_12
    8  A    between atoms: C_9  and  N_21
    9  A    between atoms: C_10  and  C_25
   10  A    between atoms: C_11  and  C_25
   11  A    between atoms: C_13  and  C_30
                            x       y       z     vdW  Elec       q    Type
                         _______ _______ _______ _____ _____    ______ ____

>  <TORSDO>
F 11

$$$$
=
 OpenBabel11052412253D

 30 32  0  0  1  0  0  0  0  0999 V2000
  188.5790  177.5720  144.4530 C   0  0  1  0  0  3  0  0  0  0  0  0
  187.1930  177.4950  145.0850 C   0  0  1  0  0  3  0  0  0  0  0  0
  187.4810  177.3510  146.5430 C   0  0  0  0  0  3  0  0  0  0  0  0
  189.4680  177.3810  145.5390 O   0  0  0  0  0  0  0  0  0  0  0  0
  188.7850  177.2820  146.7370 C   0  0  0  0  0  3  0  0  0  0  0  0
  187.9590  175.5530  143.3880 O   0  0  0  0  0  0  0  0  0  0  0  0
  188.7480  176.4860  143.4370 C   0  0  0  0  0  0  0  0  0  0  0  0
  189.8850  176.5770  142.4670 C   0  0  2  0  0  3  0  0  0  0  0  0
  191.6660  175.5950  143.7400 O   0  0  0  0  0  0  0  0  0  0  0  0
  191.2020  176.6240  143.1810 C   0  0  0  0  0  0  0  0  0  0  0  0
  191.9470  177.8350  143.1980 N   0  0  0  0  0  1  0  0  0  0  0  0
  189.7020  177.7570  141.5190 C   0  0  0  0  0  2  0  0  0  0  0  0
  190.9690  176.7420  139.6320 C   0  0  0  0  0  1  0  0  0  0  0  0
  189.6270  177.2960  140.0680 C   0  0  2  0  0  3  0  0  0  0  0  0
  189.1760  178.4180  139.1350 C   0  0  0  0  0  2  0  0  0  0  0  0
  188.3680  178.7550  136.9590 C   0  0  0  0  0  2  0  0  0  0  0  0
  188.2130  177.3450  137.2870 C   0  0  0  0  0  2  0  0  0  0  0  0
  189.4080  178.0700  137.7400 N   0  0  0  0  0  0  0  0  0  0  0  0
  186.4270  178.7800  144.8150 C   0  0  0  0  0  2  0  0  0  0  0  0
  184.9780  178.4850  144.4570 C   0  0  1  0  0  3  0  0  0  0  0  0
  184.1180  178.7070  145.6820 C   0  0  0  0  0  1  0  0  0  0  0  0
  184.5340  179.3810  143.3940 N   0  0  0  0  0  2  0  0  0  0  0  0
  184.7420  178.6850  138.9270 C   0  0  0  0  0  0  0  0  0  0  0  0
  183.4220  179.3200  139.2040 C   0  0  0  0  0  2  0  0  0  0  0  0
  185.0130  178.2730  137.6660 F   0  0  0  0  0  0  0  0  0  0  0  0
  184.4530  179.0130  142.0130 C   0  0  0  0  0  0  0  0  0  0  0  0
  182.6900  178.6060  140.2870 C   0  0  0  0  0  3  0  0  0  0  0  0
  185.7050  178.6200  139.8460 C   0  0  0  0  0  3  0  0  0  0  0  0
  183.1500  178.5100  141.5350 C   0  0  0  0  0  3  0  0  0  0  0  0
  185.5710  179.0100  141.2640 C   0  0  0  0  0  3  0  0  0  0  0  0
  1  7  1  6  0  0  0
  1  2  1  0  0  0  0
  1  4  1  0  0  0  0
  2 19  1  1  0  0  0
  2  3  1  0  0  0  0
  3  5  2  0  0  0  0
  4  5  1  0  0  0  0
  6  7  2  0  0  0  0
  8 12  1  1  0  0  0
  8 10  1  0  0  0  0
  8  7  1  0  0  0  0
 10 11  1  0  0  0  0
 10  9  2  0  0  0  0
 14 13  1  6  0  0  0
 14 12  1  0  0  0  0
 15 14  1  0  0  0  0
 16 17  1  0  0  0  0
 16 18  1  0  0  0  0
 17 18  1  0  0  0  0
 18 15  1  0  0  0  0
 20 19  1  0  0  0  0
 20 21  1  1  0  0  0
 22 20  1  0  0  0  0
 23 24  1  0  0  0  0
 23 28  2  0  0  0  0
 24 27  1  0  0  0  0
 25 23  1  0  0  0  0
 26 22  1  0  0  0  0
 27 29  2  0  0  0  0
 28 30  1  0  0  0  0
 29 26  1  0  0  0  0
 30 26  2  0  0  0  0
M  END
>  <MODEL>
4

>  <REMARK>
 VINA RESULT:      -7.4      2.097      3.257
  Name = 
  11 active torsions:
  status: ('A' for Active; 'I' for Inactive)
    1  A    between atoms: N_3  and  C_11
    2  A    between atoms: N_3  and  C_19
    3  A    between atoms: C_4  and  C_13
    4  A    between atoms: C_7  and  C_30
    5  A    between atoms: C_8  and  C_12
    6  A    between atoms: C_8  and  C_13
    7  A    between atoms: C_9  and  C_12
    8  A    between atoms: C_9  and  N_21
    9  A    between atoms: C_10  and  C_25
   10  A    between atoms: C_11  and  C_25
   11  A    between atoms: C_13  and  C_30
                            x       y       z     vdW  Elec       q    Type
                         _______ _______ _______ _____ _____    ______ ____

>  <TORSDO>
F 11

$$$$
=
 OpenBabel11052412253D

 30 32  0  0  1  0  0  0  0  0999 V2000
  186.6790  177.6380  145.7670 C   0  0  1  0  0  3  0  0  0  0  0  0
  188.1360  177.8970  145.3950 C   0  0  1  0  0  3  0  0  0  0  0  0
  188.8780  177.5800  146.6510 C   0  0  0  0  0  3  0  0  0  0  0  0
  186.7250  177.3080  147.1450 O   0  0  0  0  0  0  0  0  0  0  0  0
  188.0260  177.2630  147.6080 C   0  0  0  0  0  3  0  0  0  0  0  0
  185.9110  179.8010  146.3390 O   0  0  0  0  0  0  0  0  0  0  0  0
  185.8590  178.8700  145.5470 C   0  0  0  0  0  0  0  0  0  0  0  0
  184.9920  178.9510  144.3290 C   0  0  2  0  0  3  0  0  0  0  0  0
  183.1890  179.0260  145.9100 O   0  0  0  0  0  0  0  0  0  0  0  0
  183.5420  179.0250  144.7010 C   0  0  0  0  0  0  0  0  0  0  0  0
  182.5600  179.1270  143.6780 N   0  0  0  0  0  1  0  0  0  0  0  0
  185.2820  177.7980  143.3740 C   0  0  0  0  0  2  0  0  0  0  0  0
  186.3270  179.6950  142.1470 C   0  0  0  0  0  1  0  0  0  0  0  0
  185.7310  178.3080  142.0100 C   0  0  2  0  0  3  0  0  0  0  0  0
  184.5880  178.3090  140.9960 C   0  0  0  0  0  2  0  0  0  0  0  0
  183.4540  179.4560  139.2940 C   0  0  0  0  0  2  0  0  0  0  0  0
  184.6600  178.8730  138.7220 C   0  0  0  0  0  2  0  0  0  0  0  0
  184.6960  179.4350  140.0790 N   0  0  0  0  0  0  0  0  0  0  0  0
  188.5580  176.9640  144.2730 C   0  0  0  0  0  2  0  0  0  0  0  0
  189.0690  177.7500  143.0750 C   0  0  1  0  0  3  0  0  0  0  0  0
  190.3420  178.4680  143.4680 C   0  0  0  0  0  1  0  0  0  0  0  0
  189.3560  176.8430  141.9680 N   0  0  0  0  0  2  0  0  0  0  0  0
  189.4530  178.0750  137.6140 C   0  0  0  0  0  0  0  0  0  0  0  0
  190.1800  176.7770  137.7110 C   0  0  0  0  0  2  0  0  0  0  0  0
  189.4290  178.7180  136.4230 F   0  0  0  0  0  0  0  0  0  0  0  0
  189.5930  177.2670  140.6210 C   0  0  0  0  0  0  0  0  0  0  0  0
  191.2200  176.8140  138.7780 C   0  0  0  0  0  3  0  0  0  0  0  0
  188.7270  178.5590  138.6210 C   0  0  0  0  0  3  0  0  0  0  0  0
  190.9350  176.9990  140.0660 C   0  0  0  0  0  3  0  0  0  0  0  0
  188.6560  177.9920  139.9830 C   0  0  0  0  0  3  0  0  0  0  0  0
  1  7  1  1  0  0  0
  1  4  1  0  0  0  0
  2 19  1  6  0  0  0
  2  1  1  0  0  0  0
  2  3  1  0  0  0  0
  3  5  2  0  0  0  0
  4  5  1  0  0  0  0
  7  6  2  0  0  0  0
  8 12  1  6  0  0  0
  8 10  1  0  0  0  0
  8  7  1  0  0  0  0
 10  9  2  0  0  0  0
 11 10  1  0  0  0  0
 14 13  1  1  0  0  0
 14 12  1  0  0  0  0
 15 14  1  0  0  0  0
 16 18  1  0  0  0  0
 17 16  1  0  0  0  0
 17 18  1  0  0  0  0
 18 15  1  0  0  0  0
 20 21  1  1  0  0  0
 20 19  1  0  0  0  0
 22 20  1  0  0  0  0
 23 24  1  0  0  0  0
 23 28  2  0  0  0  0
 24 27  1  0  0  0  0
 25 23  1  0  0  0  0
 26 22  1  0  0  0  0
 27 29  2  0  0  0  0
 28 30  1  0  0  0  0
 29 26  1  0  0  0  0
 30 26  2  0  0  0  0
M  END
>  <MODEL>
5

>  <REMARK>
 VINA RESULT:      -7.4      3.025      5.990
  Name = 
  11 active torsions:
  status: ('A' for Active; 'I' for Inactive)
    1  A    between atoms: N_3  and  C_11
    2  A    between atoms: N_3  and  C_19
    3  A    between atoms: C_4  and  C_13
    4  A    between atoms: C_7  and  C_30
    5  A    between atoms: C_8  and  C_12
    6  A    between atoms: C_8  and  C_13
    7  A    between atoms: C_9  and  C_12
    8  A    between atoms: C_9  and  N_21
    9  A    between atoms: C_10  and  C_25
   10  A    between atoms: C_11  and  C_25
   11  A    between atoms: C_13  and  C_30
                            x       y       z     vdW  Elec       q    Type
                         _______ _______ _______ _____ _____    ______ ____

>  <TORSDO>
F 11

$$$$
=
 OpenBabel11052412253D

 30 32  0  0  1  0  0  0  0  0999 V2000
  184.7850  178.0730  143.3050 C   0  0  1  0  0  3  0  0  0  0  0  0
  185.8610  178.4770  144.3080 C   0  0  1  0  0  3  0  0  0  0  0  0
  185.0780  178.9500  145.4880 C   0  0  0  0  0  3  0  0  0  0  0  0
  183.5680  178.4230  143.9410 O   0  0  0  0  0  0  0  0  0  0  0  0
  183.7870  178.9050  145.2170 C   0  0  0  0  0  3  0  0  0  0  0  0
  185.7120  179.7920  141.9700 O   0  0  0  0  0  0  0  0  0  0  0  0
  184.9520  178.8360  142.0280 C   0  0  0  0  0  0  0  0  0  0  0  0
  184.1880  178.3930  140.8190 C   0  0  2  0  0  3  0  0  0  0  0  0
  185.6680  178.4880  138.9330 O   0  0  0  0  0  0  0  0  0  0  0  0
  184.7290  179.0290  139.5750 C   0  0  0  0  0  0  0  0  0  0  0  0
  184.1540  180.2400  139.0990 N   0  0  0  0  0  1  0  0  0  0  0  0
  182.6950  178.6490  140.9920 C   0  0  0  0  0  2  0  0  0  0  0  0
  182.6840  176.3950  139.9340 C   0  0  0  0  0  1  0  0  0  0  0  0
  181.8660  177.6430  140.2020 C   0  0  2  0  0  3  0  0  0  0  0  0
  181.3410  178.2370  138.8960 C   0  0  0  0  0  2  0  0  0  0  0  0
  181.5650  178.1920  136.5610 C   0  0  0  0  0  2  0  0  0  0  0  0
  180.4100  177.3800  136.9220 C   0  0  0  0  0  2  0  0  0  0  0  0
  181.6110  177.3550  137.7690 N   0  0  0  0  0  0  0  0  0  0  0  0
  186.7080  177.2690  144.6750 C   0  0  0  0  0  2  0  0  0  0  0  0
  188.1790  177.6430  144.7660 C   0  0  1  0  0  3  0  0  0  0  0  0
  188.6570  177.4090  146.1820 C   0  0  0  0  0  1  0  0  0  0  0  0
  188.9620  176.8140  143.8550 N   0  0  0  0  0  2  0  0  0  0  0  0
  189.6740  177.8160  139.4990 C   0  0  0  0  0  0  0  0  0  0  0  0
  190.6650  176.7640  139.8670 C   0  0  0  0  0  2  0  0  0  0  0  0
  189.7450  178.3710  138.2660 F   0  0  0  0  0  0  0  0  0  0  0  0
  189.3670  177.2190  142.5430 C   0  0  0  0  0  0  0  0  0  0  0  0
  191.4110  177.1270  141.1050 C   0  0  0  0  0  3  0  0  0  0  0  0
  188.6530  178.1380  140.2920 C   0  0  0  0  0  3  0  0  0  0  0  0
  190.8190  177.2920  142.2890 C   0  0  0  0  0  3  0  0  0  0  0  0
  188.4370  177.6380  141.6650 C   0  0  0  0  0  3  0  0  0  0  0  0
  1  7  1  6  0  0  0
  1  4  1  0  0  0  0
  1  2  1  0  0  0  0
  2 19  1  1  0  0  0
  2  3  1  0  0  0  0
  4  5  1  0  0  0  0
  5  3  2  0  0  0  0
  6  7  2  0  0  0  0
  8 12  1  1  0  0  0
  8  7  1  0  0  0  0
  9 10  2  0  0  0  0
 10  8  1  0  0  0  0
 11 10  1  0  0  0  0
 14 13  1  6  0  0  0
 14 12  1  0  0  0  0
 15 14  1  0  0  0  0
 16 17  1  0  0  0  0
 16 18  1  0  0  0  0
 17 18  1  0  0  0  0
 18 15  1  0  0  0  0
 19 20  1  0  0  0  0
 20 21  1  1  0  0  0
 22 20  1  0  0  0  0
 23 24  1  0  0  0  0
 23 28  2  0  0  0  0
 24 27  1  0  0  0  0
 25 23  1  0  0  0  0
 26 22  1  0  0  0  0
 27 29  2  0  0  0  0
 28 30  1  0  0  0  0
 29 26  1  0  0  0  0
 30 26  2  0  0  0  0
M  END
>  <MODEL>
6

>  <REMARK>
 VINA RESULT:      -7.4      3.674      6.583
  Name = 
  11 active torsions:
  status: ('A' for Active; 'I' for Inactive)
    1  A    between atoms: N_3  and  C_11
    2  A    between atoms: N_3  and  C_19
    3  A    between atoms: C_4  and  C_13
    4  A    between atoms: C_7  and  C_30
    5  A    between atoms: C_8  and  C_12
    6  A    between atoms: C_8  and  C_13
    7  A    between atoms: C_9  and  C_12
    8  A    between atoms: C_9  and  N_21
    9  A    between atoms: C_10  and  C_25
   10  A    between atoms: C_11  and  C_25
   11  A    between atoms: C_13  and  C_30
                            x       y       z     vdW  Elec       q    Type
                         _______ _______ _______ _____ _____    ______ ____

>  <TORSDO>
F 11

$$$$
=
 OpenBabel11052412253D

 30 32  0  0  1  0  0  0  0  0999 V2000
  186.7050  177.8920  140.9410 C   0  0  1  0  0  3  0  0  0  0  0  0
  185.9630  178.7540  141.9570 C   0  0  1  0  0  3  0  0  0  0  0  0
  184.8900  179.4030  141.1470 C   0  0  0  0  0  3  0  0  0  0  0  0
  186.0760  178.1880  139.7070 O   0  0  0  0  0  0  0  0  0  0  0  0
  185.0110  179.0520  139.8800 C   0  0  0  0  0  3  0  0  0  0  0  0
  188.5950  179.1260  141.6490 O   0  0  0  0  0  0  0  0  0  0  0  0
  188.1530  178.2670  140.8990 C   0  0  0  0  0  0  0  0  0  0  0  0
  189.0550  177.5550  139.9380 C   0  0  2  0  0  3  0  0  0  0  0  0
  190.1430  176.1810  141.5760 O   0  0  0  0  0  0  0  0  0  0  0  0
  190.2640  177.0090  140.6340 C   0  0  0  0  0  0  0  0  0  0  0  0
  191.5600  177.4050  140.2050 N   0  0  0  0  0  1  0  0  0  0  0  0
  189.4260  178.4590  138.7660 C   0  0  0  0  0  2  0  0  0  0  0  0
  187.9280  178.7400  136.7970 C   0  0  0  0  0  1  0  0  0  0  0  0
  188.9790  177.8570  137.4400 C   0  0  2  0  0  3  0  0  0  0  0  0
  188.4580  176.4300  137.6070 C   0  0  0  0  0  2  0  0  0  0  0  0
  186.7830  174.8540  137.1450 C   0  0  0  0  0  2  0  0  0  0  0  0
  187.4780  175.1560  135.9010 C   0  0  0  0  0  2  0  0  0  0  0  0
  187.2190  176.2310  136.8690 N   0  0  0  0  0  0  0  0  0  0  0  0
  185.3600  177.8770  143.0410 C   0  0  0  0  0  2  0  0  0  0  0  0
  185.4570  178.5490  144.4030 C   0  0  1  0  0  3  0  0  0  0  0  0
  184.0640  178.9130  144.8680 C   0  0  0  0  0  1  0  0  0  0  0  0
  186.0590  177.6350  145.3680 N   0  0  0  0  0  2  0  0  0  0  0  0
  190.5130  177.1770  146.0320 C   0  0  0  0  0  0  0  0  0  0  0  0
  189.8370  176.6170  147.2370 C   0  0  0  0  0  2  0  0  0  0  0  0
  191.8640  177.2580  146.0230 F   0  0  0  0  0  0  0  0  0  0  0  0
  187.4460  177.6390  145.7260 C   0  0  0  0  0  0  0  0  0  0  0  0
  188.8420  177.5740  147.7980 C   0  0  0  0  0  3  0  0  0  0  0  0
  189.8430  177.4840  144.9210 C   0  0  0  0  0  3  0  0  0  0  0  0
  187.7710  177.9890  147.1230 C   0  0  0  0  0  3  0  0  0  0  0  0
  188.3750  177.4650  144.7680 C   0  0  0  0  0  3  0  0  0  0  0  0
  1  7  1  6  0  0  0
  1  2  1  0  0  0  0
  2 19  1  1  0  0  0
  3  2  1  0  0  0  0
  4  5  1  0  0  0  0
  4  1  1  0  0  0  0
  5  3  2  0  0  0  0
  7  6  2  0  0  0  0
  8 12  1  6  0  0  0
  8 10  1  0  0  0  0
  8  7  1  0  0  0  0
 10  9  2  0  0  0  0
 11 10  1  0  0  0  0
 14 13  1  1  0  0  0
 14 15  1  0  0  0  0
 14 12  1  0  0  0  0
 17 18  1  0  0  0  0
 17 16  1  0  0  0  0
 18 16  1  0  0  0  0
 18 15  1  0  0  0  0
 19 20  1  0  0  0  0
 20 21  1  1  0  0  0
 20 22  1  0  0  0  0
 22 26  1  0  0  0  0
 23 24  1  0  0  0  0
 24 27  1  0  0  0  0
 25 23  1  0  0  0  0
 26 29  1  0  0  0  0
 28 23  2  0  0  0  0
 29 27  2  0  0  0  0
 30 28  1  0  0  0  0
 30 26  2  0  0  0  0
M  END
>  <MODEL>
7

>  <REMARK>
 VINA RESULT:      -7.3      2.592      5.234
  Name = 
  11 active torsions:
  status: ('A' for Active; 'I' for Inactive)
    1  A    between atoms: N_3  and  C_11
    2  A    between atoms: N_3  and  C_19
    3  A    between atoms: C_4  and  C_13
    4  A    between atoms: C_7  and  C_30
    5  A    between atoms: C_8  and  C_12
    6  A    between atoms: C_8  and  C_13
    7  A    between atoms: C_9  and  C_12
    8  A    between atoms: C_9  and  N_21
    9  A    between atoms: C_10  and  C_25
   10  A    between atoms: C_11  and  C_25
   11  A    between atoms: C_13  and  C_30
                            x       y       z     vdW  Elec       q    Type
                         _______ _______ _______ _____ _____    ______ ____

>  <TORSDO>
F 11

$$$$
=
 OpenBabel11052412253D

 30 32  0  0  1  0  0  0  0  0999 V2000
  184.4890  178.1640  143.0690 C   0  0  1  0  0  3  0  0  0  0  0  0
  185.3400  178.6940  144.2180 C   0  0  1  0  0  3  0  0  0  0  0  0
  184.3300  179.1560  145.2160 C   0  0  0  0  0  3  0  0  0  0  0  0
  183.1570  178.4450  143.4630 O   0  0  0  0  0  0  0  0  0  0  0  0
  183.1140  178.9990  144.7280 C   0  0  0  0  0  3  0  0  0  0  0  0
  185.6820  179.7530  141.7850 O   0  0  0  0  0  0  0  0  0  0  0  0
  184.8250  178.8810  141.7980 C   0  0  0  0  0  0  0  0  0  0  0  0
  184.1080  178.4950  140.5410 C   0  0  2  0  0  3  0  0  0  0  0  0
  184.1790  180.4070  139.0930 O   0  0  0  0  0  0  0  0  0  0  0  0
  184.6300  179.2620  139.3640 C   0  0  0  0  0  0  0  0  0  0  0  0
  185.6650  178.7030  138.5660 N   0  0  0  0  0  1  0  0  0  0  0  0
  182.6000  178.6480  140.7040 C   0  0  0  0  0  2  0  0  0  0  0  0
  180.5120  177.2980  140.5710 C   0  0  0  0  0  1  0  0  0  0  0  0
  181.8470  177.5850  139.9130 C   0  0  2  0  0  3  0  0  0  0  0  0
  182.6620  176.3010  139.7620 C   0  0  0  0  0  2  0  0  0  0  0  0
  183.6710  175.3600  137.8650 C   0  0  0  0  0  2  0  0  0  0  0  0
  182.8920  176.5150  137.4380 C   0  0  0  0  0  2  0  0  0  0  0  0
  182.3740  175.6380  138.4980 N   0  0  0  0  0  0  0  0  0  0  0  0
  186.1900  177.5750  144.7940 C   0  0  0  0  0  2  0  0  0  0  0  0
  187.3140  178.1320  145.6540 C   0  0  1  0  0  3  0  0  0  0  0  0
  186.9800  177.8910  147.1110 C   0  0  0  0  0  1  0  0  0  0  0  0
  188.5680  177.4570  145.3360 N   0  0  0  0  0  2  0  0  0  0  0  0
  190.6270  177.4860  141.3050 C   0  0  0  0  0  0  0  0  0  0  0  0
  191.6890  177.2760  142.3300 C   0  0  0  0  0  2  0  0  0  0  0  0
  190.9950  177.6410  140.0110 F   0  0  0  0  0  0  0  0  0  0  0  0
  189.3010  177.6510  144.1200 C   0  0  0  0  0  0  0  0  0  0  0  0
  191.6100  178.2970  143.4130 C   0  0  0  0  0  3  0  0  0  0  0  0
  189.3300  177.4040  141.5990 C   0  0  0  0  0  3  0  0  0  0  0  0
  190.5550  178.4250  144.2170 C   0  0  0  0  0  3  0  0  0  0  0  0
  188.7620  177.2520  142.9540 C   0  0  0  0  0  3  0  0  0  0  0  0
  1  7  1  6  0  0  0
  1  4  1  0  0  0  0
  1  2  1  0  0  0  0
  2 19  1  1  0  0  0
  2  3  1  0  0  0  0
  4  5  1  0  0  0  0
  5  3  2  0  0  0  0
  6  7  2  0  0  0  0
  8 12  1  1  0  0  0
  8  7  1  0  0  0  0
  9 10  2  0  0  0  0
 10  8  1  0  0  0  0
 11 10  1  0  0  0  0
 14 13  1  1  0  0  0
 14 12  1  0  0  0  0
 15 14  1  0  0  0  0
 16 18  1  0  0  0  0
 17 16  1  0  0  0  0
 17 18  1  0  0  0  0
 18 15  1  0  0  0  0
 19 20  1  0  0  0  0
 20 21  1  1  0  0  0
 22 20  1  0  0  0  0
 23 28  2  0  0  0  0
 23 24  1  0  0  0  0
 24 27  1  0  0  0  0
 25 23  1  0  0  0  0
 26 29  1  0  0  0  0
 26 22  1  0  0  0  0
 27 29  2  0  0  0  0
 28 30  1  0  0  0  0
 30 26  2  0  0  0  0
M  END
>  <MODEL>
8

>  <REMARK>
 VINA RESULT:      -7.3      3.515      6.507
  Name = 
  11 active torsions:
  status: ('A' for Active; 'I' for Inactive)
    1  A    between atoms: N_3  and  C_11
    2  A    between atoms: N_3  and  C_19
    3  A    between atoms: C_4  and  C_13
    4  A    between atoms: C_7  and  C_30
    5  A    between atoms: C_8  and  C_12
    6  A    between atoms: C_8  and  C_13
    7  A    between atoms: C_9  and  C_12
    8  A    between atoms: C_9  and  N_21
    9  A    between atoms: C_10  and  C_25
   10  A    between atoms: C_11  and  C_25
   11  A    between atoms: C_13  and  C_30
                            x       y       z     vdW  Elec       q    Type
                         _______ _______ _______ _____ _____    ______ ____

>  <TORSDO>
F 11

$$$$
=
 OpenBabel11052412253D

 30 32  0  0  1  0  0  0  0  0999 V2000
  186.4200  178.6880  144.6960 C   0  0  1  0  0  3  0  0  0  0  0  0
  185.1240  178.2610  144.0140 C   0  0  1  0  0  3  0  0  0  0  0  0
  184.1030  178.3850  145.0970 C   0  0  0  0  0  3  0  0  0  0  0  0
  186.0480  178.9100  146.0450 O   0  0  0  0  0  0  0  0  0  0  0  0
  184.6880  178.7450  146.2250 C   0  0  0  0  0  3  0  0  0  0  0  0
  187.2420  176.6190  143.8950 O   0  0  0  0  0  0  0  0  0  0  0  0
  187.4400  177.5960  144.6030 C   0  0  0  0  0  0  0  0  0  0  0  0
  188.7170  177.7340  145.3740 C   0  0  2  0  0  3  0  0  0  0  0  0
  190.5310  178.8330  144.2540 O   0  0  0  0  0  0  0  0  0  0  0  0
  189.9020  177.7610  144.4580 C   0  0  0  0  0  0  0  0  0  0  0  0
  190.3370  176.5580  143.8390 N   0  0  0  0  0  1  0  0  0  0  0  0
  188.8340  176.6440  146.4340 C   0  0  0  0  0  2  0  0  0  0  0  0
  188.9740  178.6360  147.9210 C   0  0  0  0  0  1  0  0  0  0  0  0
  189.4070  177.1960  147.7340 C   0  0  2  0  0  3  0  0  0  0  0  0
  190.9300  177.0790  147.7810 C   0  0  0  0  0  2  0  0  0  0  0  0
  192.7930  175.6690  147.9920 C   0  0  0  0  0  2  0  0  0  0  0  0
  192.3530  175.6350  146.6030 C   0  0  0  0  0  2  0  0  0  0  0  0
  191.3560  175.6900  147.6820 N   0  0  0  0  0  0  0  0  0  0  0  0
  184.8050  179.2050  142.8670 C   0  0  0  0  0  2  0  0  0  0  0  0
  185.2580  178.6200  141.5380 C   0  0  1  0  0  3  0  0  0  0  0  0
  184.2240  178.9460  140.4830 C   0  0  0  0  0  1  0  0  0  0  0  0
  186.5380  179.2020  141.1470 N   0  0  0  0  0  2  0  0  0  0  0  0
  190.1450  177.3050  139.1760 C   0  0  0  0  0  0  0  0  0  0  0  0
  189.6020  178.3050  138.2120 C   0  0  0  0  0  2  0  0  0  0  0  0
  191.1720  176.5160  138.7840 F   0  0  0  0  0  0  0  0  0  0  0  0
  187.5400  178.5110  140.3940 C   0  0  0  0  0  0  0  0  0  0  0  0
  188.1390  178.1170  137.9980 C   0  0  0  0  0  3  0  0  0  0  0  0
  189.7360  177.2470  140.4440 C   0  0  0  0  0  3  0  0  0  0  0  0
  187.2390  178.2450  138.9730 C   0  0  0  0  0  3  0  0  0  0  0  0
  188.6230  178.0230  141.0270 C   0  0  0  0  0  3  0  0  0  0  0  0
  1  7  1  1  0  0  0
  1  4  1  0  0  0  0
  2 19  1  6  0  0  0
  2  1  1  0  0  0  0
  2  3  1  0  0  0  0
  3  5  2  0  0  0  0
  4  5  1  0  0  0  0
  6  7  2  0  0  0  0
  7  8  1  0  0  0  0
  8 12  1  1  0  0  0
  9 10  2  0  0  0  0
 10  8  1  0  0  0  0
 11 10  1  0  0  0  0
 12 14  1  0  0  0  0
 14 15  1  0  0  0  0
 14 13  1  6  0  0  0
 17 18  1  0  0  0  0
 17 16  1  0  0  0  0
 18 15  1  0  0  0  0
 18 16  1  0  0  0  0
 20 21  1  6  0  0  0
 20 19  1  0  0  0  0
 22 20  1  0  0  0  0
 23 28  2  0  0  0  0
 24 23  1  0  0  0  0
 25 23  1  0  0  0  0
 26 30  2  0  0  0  0
 26 22  1  0  0  0  0
 27 24  1  0  0  0  0
 27 29  2  0  0  0  0
 28 30  1  0  0  0  0
 29 26  1  0  0  0  0
M  END
>  <MODEL>
9

>  <REMARK>
 VINA RESULT:      -7.3      2.372      6.772
  Name = 
  11 active torsions:
  status: ('A' for Active; 'I' for Inactive)
    1  A    between atoms: N_3  and  C_11
    2  A    between atoms: N_3  and  C_19
    3  A    between atoms: C_4  and  C_13
    4  A    between atoms: C_7  and  C_30
    5  A    between atoms: C_8  and  C_12
    6  A    between atoms: C_8  and  C_13
    7  A    between atoms: C_9  and  C_12
    8  A    between atoms: C_9  and  N_21
    9  A    between atoms: C_10  and  C_25
   10  A    between atoms: C_11  and  C_25
   11  A    between atoms: C_13  and  C_30
                            x       y       z     vdW  Elec       q    Type
                         _______ _______ _______ _____ _____    ______ ____

>  <TORSDO>
F 11

$$$$
