=
 OpenBabel11052414313D

 32 34  0  0  1  0  0  0  0  0999 V2000
  185.1870  179.6240  143.3210 C   0  0  1  0  0  3  0  0  0  0  0  0
  186.1920  177.2720  143.8300 C   0  0  0  0  0  2  0  0  0  0  0  0
  183.8550  179.9020  143.7210 O   0  0  0  0  0  0  0  0  0  0  0  0
  186.0200  178.7300  144.2930 C   0  0  2  0  0  3  0  0  0  0  0  0
  188.3600  177.2440  146.3200 C   0  0  0  0  0  3  0  0  0  0  0  0
  189.2790  177.5390  143.8930 C   0  0  0  0  0  0  0  0  0  0  0  0
  185.3710  178.7940  145.6920 C   0  0  2  0  0  3  0  0  0  0  0  0
  188.8230  177.3840  145.1110 C   0  0  0  0  0  0  0  0  0  0  0  0
  186.0600  177.9450  146.7580 C   0  0  0  0  0  2  0  0  0  0  0  0
  183.8770  178.4520  145.6480 C   0  0  0  0  0  2  0  0  0  0  0  0
  187.1110  177.1710  142.6990 N   0  0  0  0  0  0  0  0  0  0  0  0
  187.5250  178.3190  146.9180 C   0  0  1  0  0  3  0  0  0  0  0  0
  183.2840  178.7370  144.2680 C   0  0  0  0  0  2  0  0  0  0  0  0
  188.4090  177.2980  142.7110 C   0  0  0  0  0  3  0  0  0  0  0  0
  191.1610  179.2090  144.0000 C   0  0  0  0  0  1  0  0  0  0  0  0
  190.6670  177.8770  143.6880 N   0  0  0  0  0  0  0  0  0  0  0  0
  191.7120  175.6750  143.9060 C   0  0  0  0  0  1  0  0  0  0  0  0
  191.6140  176.9450  143.0790 C   0  0  0  0  0  2  0  0  0  0  0  0
  187.8770  178.4620  148.3870 C   0  0  0  0  0  2  0  0  0  0  0  0
  189.3700  178.2890  148.5950 C   0  0  0  0  0  1  0  0  0  0  0  0
  186.3250  179.6410  141.2300 O   0  0  0  0  0  0  0  0  0  0  0  0
  185.2820  179.3200  141.8600 C   0  0  0  0  0  0  0  0  0  0  0  0
  184.2230  178.6720  141.2200 O   0  0  0  0  0  0  0  0  0  0  0  0
  184.2990  180.3880  139.2100 O   0  0  0  0  0  0  0  0  0  0  0  0
  183.7550  179.0340  139.6060 P   0  0  2  0  0  0  0  0  0  0  0  0
  182.0680  179.0530  139.4990 O   0  0  0  0  0  1  0  0  0  0  0  0
  183.4640  177.5540  137.3120 C   0  0  0  0  0  2  0  0  0  0  0  0
  184.4210  177.7650  138.4930 C   0  0  0  0  0  3  0  0  0  0  0  0
  184.1590  177.0450  136.0430 C   0  0  0  0  0  2  0  0  0  0  0  0
  186.4370  177.0870  137.1280 C   0  0  0  0  0  2  0  0  0  0  0  0
  185.8100  178.1740  138.0110 C   0  0  0  0  0  2  0  0  0  0  0  0
  185.4070  176.2360  136.3740 C   0  0  0  0  0  2  0  0  0  0  0  0
  1 22  1  6  0  0  0
  1  3  1  0  0  0  0
  1  4  1  0  0  0  0
  3 13  1  0  0  0  0
  4  2  1  6  0  0  0
  4  7  1  0  0  0  0
  5 12  1  0  0  0  0
  6  8  2  0  0  0  0
  7 10  1  6  0  0  0
  7  9  1  0  0  0  0
  8  5  2  0  0  0  0
  9 12  1  0  0  0  0
 11 14  2  0  0  0  0
 11  2  1  0  0  0  0
 12 19  1  1  0  0  0
 13 10  1  0  0  0  0
 14  6  1  0  0  0  0
 16  6  1  0  0  0  0
 16 15  1  0  0  0  0
 18 16  1  0  0  0  0
 18 17  1  0  0  0  0
 19 20  1  0  0  0  0
 21 22  2  0  0  0  0
 23 22  1  0  0  0  0
 25 24  2  6  0  0  0
 25 23  1  0  0  0  0
 26 25  1  0  0  0  0
 27 28  1  0  0  0  0
 28 25  1  0  0  0  0
 29 32  1  0  0  0  0
 29 27  1  0  0  0  0
 30 31  1  0  0  0  0
 31 28  1  0  0  0  0
 32 30  1  0  0  0  0
M  END
>  <MODEL>
1

>  <REMARK>
 VINA RESULT:      -8.7      0.000      0.000
  Name = 
  7 active torsions:
  status: ('A' for Active; 'I' for Inactive)
    1  A    between atoms: C_1  and  C_27
    2  A    between atoms: C_7  and  P_22
    3  A    between atoms: C_10  and  N_12
    4  A    between atoms: N_12  and  C_31
    5  A    between atoms: C_13  and  C_29
    6  A    between atoms: O_16  and  P_22
    7  A    between atoms: O_16  and  C_27
                            x       y       z     vdW  Elec       q    Type
                         _______ _______ _______ _____ _____    ______ ____

>  <TORSDO>
F 7

$$$$
=
 OpenBabel11052414313D

 32 34  0  0  1  0  0  0  0  0999 V2000
  185.2480  179.6460  143.3860 C   0  0  1  0  0  3  0  0  0  0  0  0
  186.2420  177.2870  143.8820 C   0  0  0  0  0  2  0  0  0  0  0  0
  183.9190  179.9300  143.7920 O   0  0  0  0  0  0  0  0  0  0  0  0
  186.0800  178.7440  144.3510 C   0  0  2  0  0  3  0  0  0  0  0  0
  188.4200  177.2370  146.3640 C   0  0  0  0  0  3  0  0  0  0  0  0
  189.3310  177.5370  143.9340 C   0  0  0  0  0  0  0  0  0  0  0  0
  185.4370  178.8050  145.7530 C   0  0  2  0  0  3  0  0  0  0  0  0
  188.8780  177.3790  145.1530 C   0  0  0  0  0  0  0  0  0  0  0  0
  186.1240  177.9480  146.8130 C   0  0  0  0  0  2  0  0  0  0  0  0
  183.9410  178.4720  145.7140 C   0  0  0  0  0  2  0  0  0  0  0  0
  187.1560  177.1850  142.7470 N   0  0  0  0  0  0  0  0  0  0  0  0
  187.5930  178.3140  146.9690 C   0  0  1  0  0  3  0  0  0  0  0  0
  183.3440  178.7660  144.3360 C   0  0  0  0  0  2  0  0  0  0  0  0
  188.4550  177.3050  142.7550 C   0  0  0  0  0  3  0  0  0  0  0  0
  191.2260  179.1890  144.0570 C   0  0  0  0  0  1  0  0  0  0  0  0
  190.7200  177.8670  143.7250 N   0  0  0  0  0  0  0  0  0  0  0  0
  191.7110  175.6350  143.8690 C   0  0  0  0  0  1  0  0  0  0  0  0
  191.6560  176.9390  143.0930 C   0  0  0  0  0  2  0  0  0  0  0  0
  187.9510  178.4490  148.4370 C   0  0  0  0  0  2  0  0  0  0  0  0
  189.4320  178.1960  148.6480 C   0  0  0  0  0  1  0  0  0  0  0  0
  186.3490  179.7250  141.2770 O   0  0  0  0  0  0  0  0  0  0  0  0
  185.3360  179.3480  141.9230 C   0  0  0  0  0  0  0  0  0  0  0  0
  184.3040  178.6430  141.3010 O   0  0  0  0  0  0  0  0  0  0  0  0
  185.1340  177.9790  138.8800 O   0  0  0  0  0  0  0  0  0  0  0  0
  184.0270  178.7110  139.6050 P   0  0  2  0  0  0  0  0  0  0  0  0
  183.9960  180.3250  139.1030 O   0  0  0  0  0  1  0  0  0  0  0  0
  182.6190  176.4060  139.1090 C   0  0  0  0  0  2  0  0  0  0  0  0
  182.4350  177.9260  139.2280 C   0  0  0  0  0  3  0  0  0  0  0  0
  181.3520  175.6080  139.4380 C   0  0  0  0  0  2  0  0  0  0  0  0
  180.0350  177.6900  139.9820 C   0  0  0  0  0  2  0  0  0  0  0  0
  181.4160  178.2740  140.3080 C   0  0  0  0  0  2  0  0  0  0  0  0
  180.0910  176.4100  139.1390 C   0  0  0  0  0  2  0  0  0  0  0  0
  1 22  1  6  0  0  0
  1  3  1  0  0  0  0
  1  4  1  0  0  0  0
  3 13  1  0  0  0  0
  4  2  1  6  0  0  0
  4  7  1  0  0  0  0
  5 12  1  0  0  0  0
  6  8  2  0  0  0  0
  7 10  1  6  0  0  0
  7  9  1  0  0  0  0
  8  5  2  0  0  0  0
  9 12  1  0  0  0  0
 11 14  2  0  0  0  0
 11  2  1  0  0  0  0
 12 19  1  1  0  0  0
 13 10  1  0  0  0  0
 14  6  1  0  0  0  0
 16  6  1  0  0  0  0
 16 15  1  0  0  0  0
 18 16  1  0  0  0  0
 18 17  1  0  0  0  0
 19 20  1  0  0  0  0
 21 22  2  0  0  0  0
 23 22  1  0  0  0  0
 25 24  2  6  0  0  0
 25 23  1  0  0  0  0
 26 25  1  0  0  0  0
 27 28  1  0  0  0  0
 27 29  1  0  0  0  0
 28 25  1  0  0  0  0
 28 31  1  0  0  0  0
 30 31  1  0  0  0  0
 32 29  1  0  0  0  0
 32 30  1  0  0  0  0
M  END
>  <MODEL>
2

>  <REMARK>
 VINA RESULT:      -8.7      1.552      2.192
  Name = 
  7 active torsions:
  status: ('A' for Active; 'I' for Inactive)
    1  A    between atoms: C_1  and  C_27
    2  A    between atoms: C_7  and  P_22
    3  A    between atoms: C_10  and  N_12
    4  A    between atoms: N_12  and  C_31
    5  A    between atoms: C_13  and  C_29
    6  A    between atoms: O_16  and  P_22
    7  A    between atoms: O_16  and  C_27
                            x       y       z     vdW  Elec       q    Type
                         _______ _______ _______ _____ _____    ______ ____

>  <TORSDO>
F 7

$$$$
=
 OpenBabel11052414313D

 32 34  0  0  1  0  0  0  0  0999 V2000
  186.7360  179.0860  141.6850 C   0  0  1  0  0  3  0  0  0  0  0  0
  187.1450  176.8270  142.9210 C   0  0  0  0  0  2  0  0  0  0  0  0
  185.4080  179.4520  141.3470 O   0  0  0  0  0  0  0  0  0  0  0  0
  186.9150  178.3430  143.0470 C   0  0  2  0  0  3  0  0  0  0  0  0
  187.8510  177.1560  146.1310 C   0  0  0  0  0  3  0  0  0  0  0  0
  189.8390  177.0370  144.4400 C   0  0  0  0  0  0  0  0  0  0  0  0
  185.6870  178.6450  143.9320 C   0  0  2  0  0  3  0  0  0  0  0  0
  188.8450  177.0890  145.2910 C   0  0  0  0  0  0  0  0  0  0  0  0
  185.6990  177.9650  145.3000 C   0  0  0  0  0  2  0  0  0  0  0  0
  184.3700  178.3320  143.2140 C   0  0  0  0  0  2  0  0  0  0  0  0
  188.4780  176.5260  142.4040 N   0  0  0  0  0  0  0  0  0  0  0  0
  186.9400  178.3300  146.1000 C   0  0  1  0  0  3  0  0  0  0  0  0
  184.5360  178.4020  141.6960 C   0  0  0  0  0  2  0  0  0  0  0  0
  189.6180  176.6260  143.0280 C   0  0  0  0  0  3  0  0  0  0  0  0
  191.7390  176.5960  146.0320 C   0  0  0  0  0  1  0  0  0  0  0  0
  191.1830  177.3080  144.8920 N   0  0  0  0  0  0  0  0  0  0  0  0
  191.1940  179.6260  144.1120 C   0  0  0  0  0  1  0  0  0  0  0  0
  192.0080  178.3580  144.3000 C   0  0  0  0  0  2  0  0  0  0  0  0
  186.5610  178.7010  147.5220 C   0  0  0  0  0  2  0  0  0  0  0  0
  187.6980  178.3820  148.4750 C   0  0  0  0  0  1  0  0  0  0  0  0
  188.7380  178.6800  140.4620 O   0  0  0  0  0  0  0  0  0  0  0  0
  187.4860  178.5490  140.5080 C   0  0  0  0  0  0  0  0  0  0  0  0
  186.7910  177.8950  139.4880 O   0  0  0  0  0  0  0  0  0  0  0  0
  187.9290  179.1070  137.4320 O   0  0  0  0  0  1  0  0  0  0  0  0
  187.4030  177.7650  137.8870 P   0  0  2  0  0  0  0  0  0  0  0  0
  186.1660  177.2640  136.8490 O   0  0  0  0  0  0  0  0  0  0  0  0
  188.3100  175.3030  137.0760 C   0  0  0  0  0  2  0  0  0  0  0  0
  188.7490  176.5470  137.8600 C   0  0  0  0  0  3  0  0  0  0  0  0
  189.4760  174.5350  136.4420 C   0  0  0  0  0  2  0  0  0  0  0  0
  191.1830  176.1920  137.2840 C   0  0  0  0  0  2  0  0  0  0  0  0
  190.0010  177.1700  137.2510 C   0  0  0  0  0  2  0  0  0  0  0  0
  190.7640  174.7170  137.2360 C   0  0  0  0  0  2  0  0  0  0  0  0
  1 22  1  6  0  0  0
  1  4  1  0  0  0  0
  3  1  1  0  0  0  0
  3 13  1  0  0  0  0
  4  2  1  6  0  0  0
  4  7  1  0  0  0  0
  6 16  1  0  0  0  0
  6  8  2  0  0  0  0
  7 10  1  6  0  0  0
  7  9  1  0  0  0  0
  8  5  2  0  0  0  0
  9 12  1  0  0  0  0
 11  2  1  0  0  0  0
 11 14  2  0  0  0  0
 12  5  1  0  0  0  0
 12 19  1  1  0  0  0
 13 10  1  0  0  0  0
 14  6  1  0  0  0  0
 16 15  1  0  0  0  0
 17 18  1  0  0  0  0
 18 16  1  0  0  0  0
 19 20  1  0  0  0  0
 21 22  2  0  0  0  0
 23 22  1  0  0  0  0
 24 25  1  0  0  0  0
 25 26  2  6  0  0  0
 25 23  1  0  0  0  0
 27 28  1  0  0  0  0
 28 25  1  0  0  0  0
 29 27  1  0  0  0  0
 29 32  1  0  0  0  0
 31 30  1  0  0  0  0
 31 28  1  0  0  0  0
 32 30  1  0  0  0  0
M  END
>  <MODEL>
3

>  <REMARK>
 VINA RESULT:      -8.1      2.459      3.205
  Name = 
  7 active torsions:
  status: ('A' for Active; 'I' for Inactive)
    1  A    between atoms: C_1  and  C_27
    2  A    between atoms: C_7  and  P_22
    3  A    between atoms: C_10  and  N_12
    4  A    between atoms: N_12  and  C_31
    5  A    between atoms: C_13  and  C_29
    6  A    between atoms: O_16  and  P_22
    7  A    between atoms: O_16  and  C_27
                            x       y       z     vdW  Elec       q    Type
                         _______ _______ _______ _____ _____    ______ ____

>  <TORSDO>
F 7

$$$$
=
 OpenBabel11052414313D

 32 34  0  0  1  0  0  0  0  0999 V2000
  186.9180  177.0170  143.5560 C   0  0  1  0  0  3  0  0  0  0  0  0
  186.7770  179.1030  142.0000 C   0  0  0  0  0  2  0  0  0  0  0  0
  186.5080  177.1410  144.9090 O   0  0  0  0  0  0  0  0  0  0  0  0
  186.0870  177.8270  142.5130 C   0  0  2  0  0  3  0  0  0  0  0  0
  184.2770  179.0100  139.8440 C   0  0  0  0  0  3  0  0  0  0  0  0
  186.6020  178.1070  139.0700 C   0  0  0  0  0  0  0  0  0  0  0  0
  184.7110  178.1540  143.1320 C   0  0  2  0  0  3  0  0  0  0  0  0
  185.4370  178.5660  139.4520 C   0  0  0  0  0  0  0  0  0  0  0  0
  183.7820  178.9720  142.2380 C   0  0  0  0  0  2  0  0  0  0  0  0
  184.8430  178.8370  144.4980 C   0  0  0  0  0  2  0  0  0  0  0  0
  187.8880  178.7910  141.1040 N   0  0  0  0  0  0  0  0  0  0  0  0
  183.5300  178.2840  140.9060 C   0  0  1  0  0  3  0  0  0  0  0  0
  186.1710  178.4830  145.1680 C   0  0  0  0  0  2  0  0  0  0  0  0
  187.8260  178.3560  139.8770 C   0  0  0  0  0  3  0  0  0  0  0  0
  185.5320  176.9930  137.0830 C   0  0  0  0  0  1  0  0  0  0  0  0
  186.7190  177.4130  137.8100 N   0  0  0  0  0  0  0  0  0  0  0  0
  188.4670  178.0290  136.2140 C   0  0  0  0  0  1  0  0  0  0  0  0
  188.0110  177.0200  137.2530 C   0  0  0  0  0  2  0  0  0  0  0  0
  182.0500  178.3020  140.5730 C   0  0  0  0  0  2  0  0  0  0  0  0
  181.2380  178.7160  141.7860 C   0  0  0  0  0  1  0  0  0  0  0  0
  188.9980  176.0520  142.9140 O   0  0  0  0  0  0  0  0  0  0  0  0
  188.4060  177.0440  143.4170 C   0  0  0  0  0  0  0  0  0  0  0  0
  189.1160  178.1750  143.8300 O   0  0  0  0  0  0  0  0  0  0  0  0
  191.3000  179.6640  143.8750 O   0  0  0  0  0  1  0  0  0  0  0  0
  190.8350  178.2260  143.8670 P   0  0  2  0  0  0  0  0  0  0  0  0
  191.4510  177.4430  142.5010 O   0  0  0  0  0  0  0  0  0  0  0  0
  190.3500  177.4670  146.4610 C   0  0  0  0  0  2  0  0  0  0  0  0
  191.4240  177.3910  145.3660 C   0  0  0  0  0  3  0  0  0  0  0  0
  190.4240  176.3170  147.4720 C   0  0  0  0  0  2  0  0  0  0  0  0
  192.3600  175.2270  146.2760 C   0  0  0  0  0  2  0  0  0  0  0  0
  191.7840  175.9440  145.0470 C   0  0  0  0  0  2  0  0  0  0  0  0
  191.8440  175.7820  147.6090 C   0  0  0  0  0  2  0  0  0  0  0  0
  1 22  1  1  0  0  0
  1  3  1  0  0  0  0
  3 13  1  0  0  0  0
  4  2  1  1  0  0  0
  4  7  1  0  0  0  0
  4  1  1  0  0  0  0
  5 12  1  0  0  0  0
  6  8  2  0  0  0  0
  6 14  1  0  0  0  0
  7  9  1  6  0  0  0
  7 10  1  0  0  0  0
  8  5  2  0  0  0  0
 10 13  1  0  0  0  0
 11  2  1  0  0  0  0
 12 19  1  6  0  0  0
 12  9  1  0  0  0  0
 14 11  2  0  0  0  0
 15 16  1  0  0  0  0
 16  6  1  0  0  0  0
 17 18  1  0  0  0  0
 18 16  1  0  0  0  0
 19 20  1  0  0  0  0
 21 22  2  0  0  0  0
 22 23  1  0  0  0  0
 23 25  1  0  0  0  0
 25 26  2  6  0  0  0
 25 24  1  0  0  0  0
 25 28  1  0  0  0  0
 27 29  1  0  0  0  0
 28 27  1  0  0  0  0
 29 32  1  0  0  0  0
 30 32  1  0  0  0  0
 31 28  1  0  0  0  0
 31 30  1  0  0  0  0
M  END
>  <MODEL>
4

>  <REMARK>
 VINA RESULT:      -7.9      3.153      7.586
  Name = 
  7 active torsions:
  status: ('A' for Active; 'I' for Inactive)
    1  A    between atoms: C_1  and  C_27
    2  A    between atoms: C_7  and  P_22
    3  A    between atoms: C_10  and  N_12
    4  A    between atoms: N_12  and  C_31
    5  A    between atoms: C_13  and  C_29
    6  A    between atoms: O_16  and  P_22
    7  A    between atoms: O_16  and  C_27
                            x       y       z     vdW  Elec       q    Type
                         _______ _______ _______ _____ _____    ______ ____

>  <TORSDO>
F 7

$$$$
=
 OpenBabel11052414313D

 32 34  0  0  1  0  0  0  0  0999 V2000
  186.7380  179.0790  141.6770 C   0  0  1  0  0  3  0  0  0  0  0  0
  187.1410  176.8210  142.9160 C   0  0  0  0  0  2  0  0  0  0  0  0
  185.4100  179.4500  141.3410 O   0  0  0  0  0  0  0  0  0  0  0  0
  186.9170  178.3390  143.0390 C   0  0  2  0  0  3  0  0  0  0  0  0
  187.8550  177.1530  146.1230 C   0  0  0  0  0  3  0  0  0  0  0  0
  189.8380  177.0230  144.4280 C   0  0  0  0  0  0  0  0  0  0  0  0
  185.6920  178.6470  143.9270 C   0  0  2  0  0  3  0  0  0  0  0  0
  188.8470  177.0810  145.2820 C   0  0  0  0  0  0  0  0  0  0  0  0
  185.7040  177.9690  145.2950 C   0  0  0  0  0  2  0  0  0  0  0  0
  184.3720  178.3380  143.2120 C   0  0  0  0  0  2  0  0  0  0  0  0
  188.4710  176.5130  142.3960 N   0  0  0  0  0  0  0  0  0  0  0  0
  186.9480  178.3310  146.0930 C   0  0  1  0  0  3  0  0  0  0  0  0
  184.5350  178.4050  141.6930 C   0  0  0  0  0  2  0  0  0  0  0  0
  189.6130  176.6110  143.0180 C   0  0  0  0  0  3  0  0  0  0  0  0
  191.7480  176.5610  146.0030 C   0  0  0  0  0  1  0  0  0  0  0  0
  191.1840  177.2890  144.8780 N   0  0  0  0  0  0  0  0  0  0  0  0
  191.1800  179.6120  144.1110 C   0  0  0  0  0  1  0  0  0  0  0  0
  192.0040  178.3500  144.2970 C   0  0  0  0  0  2  0  0  0  0  0  0
  186.5730  178.7050  147.5150 C   0  0  0  0  0  2  0  0  0  0  0  0
  187.7110  178.3830  148.4660 C   0  0  0  0  0  1  0  0  0  0  0  0
  188.7380  178.6430  140.4610 O   0  0  0  0  0  0  0  0  0  0  0  0
  187.4830  178.5370  140.4990 C   0  0  0  0  0  0  0  0  0  0  0  0
  186.7800  177.9070  139.4690 O   0  0  0  0  0  0  0  0  0  0  0  0
  188.4480  176.7050  137.8070 O   0  0  0  0  0  1  0  0  0  0  0  0
  187.3950  177.7870  137.8680 P   0  0  2  0  0  0  0  0  0  0  0  0
  188.0790  179.2650  137.4140 O   0  0  0  0  0  0  0  0  0  0  0  0
  186.2400  175.9590  136.1760 C   0  0  0  0  0  2  0  0  0  0  0  0
  186.0370  177.3730  136.7380 C   0  0  0  0  0  3  0  0  0  0  0  0
  184.9330  175.2670  135.7690 C   0  0  0  0  0  2  0  0  0  0  0  0
  183.5230  177.2220  136.5190 C   0  0  0  0  0  2  0  0  0  0  0  0
  184.7010  177.4900  137.4650 C   0  0  0  0  0  2  0  0  0  0  0  0
  183.8680  176.2780  135.3600 C   0  0  0  0  0  2  0  0  0  0  0  0
  1 22  1  6  0  0  0
  1  4  1  0  0  0  0
  3  1  1  0  0  0  0
  3 13  1  0  0  0  0
  4  2  1  6  0  0  0
  4  7  1  0  0  0  0
  6 16  1  0  0  0  0
  6  8  2  0  0  0  0
  7 10  1  6  0  0  0
  7  9  1  0  0  0  0
  8  5  2  0  0  0  0
  9 12  1  0  0  0  0
 11  2  1  0  0  0  0
 11 14  2  0  0  0  0
 12  5  1  0  0  0  0
 12 19  1  1  0  0  0
 13 10  1  0  0  0  0
 14  6  1  0  0  0  0
 16 15  1  0  0  0  0
 17 18  1  0  0  0  0
 18 16  1  0  0  0  0
 19 20  1  0  0  0  0
 21 22  2  0  0  0  0
 23 22  1  0  0  0  0
 24 25  1  0  0  0  0
 25 26  2  6  0  0  0
 25 23  1  0  0  0  0
 27 28  1  0  0  0  0
 28 31  1  0  0  0  0
 28 25  1  0  0  0  0
 29 27  1  0  0  0  0
 30 31  1  0  0  0  0
 32 29  1  0  0  0  0
 32 30  1  0  0  0  0
M  END
>  <MODEL>
5

>  <REMARK>
 VINA RESULT:      -7.9      1.906      2.707
  Name = 
  7 active torsions:
  status: ('A' for Active; 'I' for Inactive)
    1  A    between atoms: C_1  and  C_27
    2  A    between atoms: C_7  and  P_22
    3  A    between atoms: C_10  and  N_12
    4  A    between atoms: N_12  and  C_31
    5  A    between atoms: C_13  and  C_29
    6  A    between atoms: O_16  and  P_22
    7  A    between atoms: O_16  and  C_27
                            x       y       z     vdW  Elec       q    Type
                         _______ _______ _______ _____ _____    ______ ____

>  <TORSDO>
F 7

$$$$
=
 OpenBabel11052414313D

 32 34  0  0  1  0  0  0  0  0999 V2000
  186.3470  177.4280  143.9170 C   0  0  1  0  0  3  0  0  0  0  0  0
  185.2360  179.5050  142.8000 C   0  0  0  0  0  2  0  0  0  0  0  0
  186.7070  177.4960  145.2870 O   0  0  0  0  0  0  0  0  0  0  0  0
  185.0270  178.1610  143.5190 C   0  0  2  0  0  3  0  0  0  0  0  0
  181.9910  179.1820  142.2810 C   0  0  0  0  0  3  0  0  0  0  0  0
  183.6170  178.5260  140.3450 C   0  0  0  0  0  0  0  0  0  0  0  0
  184.1670  178.3410  144.7890 C   0  0  2  0  0  3  0  0  0  0  0  0
  182.7980  178.8610  141.3110 C   0  0  0  0  0  0  0  0  0  0  0  0
  182.8440  179.0700  144.5700 C   0  0  0  0  0  2  0  0  0  0  0  0
  184.9470  179.0200  145.9200 C   0  0  0  0  0  2  0  0  0  0  0  0
  185.7250  179.3160  141.4370 N   0  0  0  0  0  0  0  0  0  0  0  0
  181.9810  178.3740  143.5290 C   0  0  1  0  0  3  0  0  0  0  0  0
  186.4520  178.7950  145.7680 C   0  0  0  0  0  2  0  0  0  0  0  0
  185.0580  178.8890  140.4010 C   0  0  0  0  0  3  0  0  0  0  0  0
  182.5360  178.6260  138.0730 C   0  0  0  0  0  1  0  0  0  0  0  0
  183.1030  177.8600  139.1720 N   0  0  0  0  0  0  0  0  0  0  0  0
  181.6750  175.9010  139.5000 C   0  0  0  0  0  1  0  0  0  0  0  0
  183.0410  176.4040  139.0670 C   0  0  0  0  0  2  0  0  0  0  0  0
  180.5530  178.2460  144.0270 C   0  0  0  0  0  2  0  0  0  0  0  0
  179.6740  179.3090  143.3940 C   0  0  0  0  0  1  0  0  0  0  0  0
  187.6370  176.8840  141.9910 O   0  0  0  0  0  0  0  0  0  0  0  0
  187.5270  177.6070  143.0170 C   0  0  0  0  0  0  0  0  0  0  0  0
  188.4810  178.5830  143.3180 O   0  0  0  0  0  0  0  0  0  0  0  0
  190.9010  179.4720  143.9030 O   0  0  0  0  0  1  0  0  0  0  0  0
  190.1300  178.2030  143.6250 P   0  0  2  0  0  0  0  0  0  0  0  0
  190.7900  177.4270  142.2750 O   0  0  0  0  0  0  0  0  0  0  0  0
  191.6330  176.4860  145.1530 C   0  0  0  0  0  2  0  0  0  0  0  0
  190.2300  177.1050  145.0660 C   0  0  0  0  0  3  0  0  0  0  0  0
  192.0450  176.1000  146.5780 C   0  0  0  0  0  2  0  0  0  0  0  0
  189.8910  176.9660  147.5670 C   0  0  0  0  0  2  0  0  0  0  0  0
  189.8920  177.8810  146.3350 C   0  0  0  0  0  2  0  0  0  0  0  0
  190.8350  175.7640  147.4400 C   0  0  0  0  0  2  0  0  0  0  0  0
  1 22  1  6  0  0  0
  1  3  1  0  0  0  0
  3 13  1  0  0  0  0
  4  2  1  1  0  0  0
  4  1  1  0  0  0  0
  4  7  1  0  0  0  0
  5 12  1  0  0  0  0
  6 14  1  0  0  0  0
  6  8  2  0  0  0  0
  7  9  1  6  0  0  0
  7 10  1  0  0  0  0
  8  5  2  0  0  0  0
 11  2  1  0  0  0  0
 12 19  1  1  0  0  0
 12  9  1  0  0  0  0
 13 10  1  0  0  0  0
 14 11  2  0  0  0  0
 15 16  1  0  0  0  0
 16  6  1  0  0  0  0
 18 16  1  0  0  0  0
 18 17  1  0  0  0  0
 20 19  1  0  0  0  0
 21 22  2  0  0  0  0
 22 23  1  0  0  0  0
 23 25  1  0  0  0  0
 25 26  2  6  0  0  0
 25 24  1  0  0  0  0
 25 28  1  0  0  0  0
 27 29  1  0  0  0  0
 28 27  1  0  0  0  0
 28 31  1  0  0  0  0
 29 32  1  0  0  0  0
 31 30  1  0  0  0  0
 32 30  1  0  0  0  0
M  END
>  <MODEL>
6

>  <REMARK>
 VINA RESULT:      -7.8      3.082      7.660
  Name = 
  7 active torsions:
  status: ('A' for Active; 'I' for Inactive)
    1  A    between atoms: C_1  and  C_27
    2  A    between atoms: C_7  and  P_22
    3  A    between atoms: C_10  and  N_12
    4  A    between atoms: N_12  and  C_31
    5  A    between atoms: C_13  and  C_29
    6  A    between atoms: O_16  and  P_22
    7  A    between atoms: O_16  and  C_27
                            x       y       z     vdW  Elec       q    Type
                         _______ _______ _______ _____ _____    ______ ____

>  <TORSDO>
F 7

$$$$
=
 OpenBabel11052414313D

 32 34  0  0  1  0  0  0  0  0999 V2000
  190.0450  176.1880  142.4950 C   0  0  1  0  0  3  0  0  0  0  0  0
  189.0880  178.6020  142.7300 C   0  0  0  0  0  2  0  0  0  0  0  0
  191.0980  175.7810  143.3540 O   0  0  0  0  0  0  0  0  0  0  0  0
  188.9660  177.1210  143.1300 C   0  0  2  0  0  3  0  0  0  0  0  0
  186.1350  178.7430  144.2020 C   0  0  0  0  0  3  0  0  0  0  0  0
  186.2040  178.6070  141.5940 C   0  0  0  0  0  0  0  0  0  0  0  0
  189.0210  176.9560  144.6640 C   0  0  2  0  0  3  0  0  0  0  0  0
  186.1660  178.6830  142.9010 C   0  0  0  0  0  0  0  0  0  0  0  0
  188.0350  177.8280  145.4380 C   0  0  0  0  0  2  0  0  0  0  0  0
  190.4360  177.1660  145.2150 C   0  0  0  0  0  2  0  0  0  0  0  0
  188.6840  178.8200  141.3430 N   0  0  0  0  0  0  0  0  0  0  0  0
  186.5990  177.5800  145.0040 C   0  0  1  0  0  3  0  0  0  0  0  0
  191.4940  176.8730  144.1500 C   0  0  0  0  0  2  0  0  0  0  0  0
  187.4760  178.8070  140.8510 C   0  0  0  0  0  3  0  0  0  0  0  0
  183.7950  177.8810  141.5140 C   0  0  0  0  0  1  0  0  0  0  0  0
  184.9820  178.4000  140.8540 N   0  0  0  0  0  0  0  0  0  0  0  0
  183.9210  179.7240  139.0920 C   0  0  0  0  0  1  0  0  0  0  0  0
  184.9000  178.6080  139.4100 C   0  0  0  0  0  2  0  0  0  0  0  0
  185.7000  177.4220  146.2160 C   0  0  0  0  0  2  0  0  0  0  0  0
  185.6070  178.7290  146.9810 C   0  0  0  0  0  1  0  0  0  0  0  0
  191.5300  177.3180  141.0150 O   0  0  0  0  0  0  0  0  0  0  0  0
  190.5420  176.5450  141.1300 C   0  0  0  0  0  0  0  0  0  0  0  0
  189.9140  176.0030  140.0060 O   0  0  0  0  0  0  0  0  0  0  0  0
  190.8200  174.5820  137.9690 O   0  0  0  0  0  0  0  0  0  0  0  0
  190.6440  176.0040  138.4490 P   0  0  2  0  0  0  0  0  0  0  0  0
  192.1530  176.7610  138.5340 O   0  0  0  0  0  1  0  0  0  0  0  0
  188.2790  176.1170  137.0570 C   0  0  0  0  0  2  0  0  0  0  0  0
  189.5760  176.9050  137.2910 C   0  0  0  0  0  3  0  0  0  0  0  0
  187.0880  176.9980  136.6660 C   0  0  0  0  0  2  0  0  0  0  0  0
  188.4440  179.1190  136.8420 C   0  0  0  0  0  2  0  0  0  0  0  0
  189.2820  178.3000  137.8320 C   0  0  0  0  0  2  0  0  0  0  0  0
  187.5390  178.2630  135.9460 C   0  0  0  0  0  2  0  0  0  0  0  0
  1 22  1  6  0  0  0
  1  4  1  0  0  0  0
  1  3  1  0  0  0  0
  3 13  1  0  0  0  0
  4  2  1  1  0  0  0
  4  7  1  0  0  0  0
  5 12  1  0  0  0  0
  6  8  2  0  0  0  0
  7 10  1  1  0  0  0
  7  9  1  0  0  0  0
  8  5  2  0  0  0  0
 11  2  1  0  0  0  0
 12  9  1  0  0  0  0
 12 19  1  1  0  0  0
 13 10  1  0  0  0  0
 14 11  2  0  0  0  0
 14  6  1  0  0  0  0
 16 15  1  0  0  0  0
 16  6  1  0  0  0  0
 17 18  1  0  0  0  0
 18 16  1  0  0  0  0
 19 20  1  0  0  0  0
 21 22  2  0  0  0  0
 23 22  1  0  0  0  0
 25 24  2  6  0  0  0
 25 26  1  0  0  0  0
 25 23  1  0  0  0  0
 27 28  1  0  0  0  0
 28 31  1  0  0  0  0
 28 25  1  0  0  0  0
 29 27  1  0  0  0  0
 30 31  1  0  0  0  0
 32 29  1  0  0  0  0
 32 30  1  0  0  0  0
M  END
>  <MODEL>
7

>  <REMARK>
 VINA RESULT:      -7.8      3.584      5.771
  Name = 
  7 active torsions:
  status: ('A' for Active; 'I' for Inactive)
    1  A    between atoms: C_1  and  C_27
    2  A    between atoms: C_7  and  P_22
    3  A    between atoms: C_10  and  N_12
    4  A    between atoms: N_12  and  C_31
    5  A    between atoms: C_13  and  C_29
    6  A    between atoms: O_16  and  P_22
    7  A    between atoms: O_16  and  C_27
                            x       y       z     vdW  Elec       q    Type
                         _______ _______ _______ _____ _____    ______ ____

>  <TORSDO>
F 7

$$$$
=
 OpenBabel11052414313D

 32 34  0  0  1  0  0  0  0  0999 V2000
  186.7030  177.3430  137.7340 C   0  0  1  0  0  3  0  0  0  0  0  0
  188.8120  178.6280  138.5700 C   0  0  0  0  0  2  0  0  0  0  0  0
  186.3740  177.3890  136.3560 O   0  0  0  0  0  0  0  0  0  0  0  0
  188.2260  177.2950  138.0720 C   0  0  2  0  0  3  0  0  0  0  0  0
  191.3870  176.6810  139.2690 C   0  0  0  0  0  3  0  0  0  0  0  0
  189.7570  177.3100  141.2110 C   0  0  0  0  0  0  0  0  0  0  0  0
  188.9860  176.7870  136.8280 C   0  0  2  0  0  3  0  0  0  0  0  0
  190.5800  176.9990  140.2420 C   0  0  0  0  0  0  0  0  0  0  0  0
  190.5020  176.7060  136.9900 C   0  0  0  0  0  2  0  0  0  0  0  0
  188.6450  177.6010  135.5740 C   0  0  0  0  0  2  0  0  0  0  0  0
  188.3630  178.9410  139.9240 N   0  0  0  0  0  0  0  0  0  0  0  0
  190.8990  175.8190  138.1600 C   0  0  1  0  0  3  0  0  0  0  0  0
  187.2670  178.2530  135.6950 C   0  0  0  0  0  2  0  0  0  0  0  0
  188.7410  178.3820  141.0400 C   0  0  0  0  0  3  0  0  0  0  0  0
  188.7180  176.0890  143.1520 C   0  0  0  0  0  1  0  0  0  0  0  0
  189.8830  176.6580  142.4930 N   0  0  0  0  0  0  0  0  0  0  0  0
  191.5560  178.0150  143.6520 C   0  0  0  0  0  1  0  0  0  0  0  0
  191.1460  176.6160  143.2260 C   0  0  0  0  0  2  0  0  0  0  0  0
  192.0050  174.8650  137.7490 C   0  0  0  0  0  2  0  0  0  0  0  0
  193.2000  175.6360  137.2190 C   0  0  0  0  0  1  0  0  0  0  0  0
  185.4460  179.3430  138.0320 O   0  0  0  0  0  0  0  0  0  0  0  0
  185.8510  178.2660  138.5450 C   0  0  0  0  0  0  0  0  0  0  0  0
  185.5020  177.9130  139.8510 O   0  0  0  0  0  0  0  0  0  0  0  0
  183.0010  177.5000  140.6020 O   0  0  0  0  0  1  0  0  0  0  0  0
  184.1040  178.5330  140.6360 P   0  0  2  0  0  0  0  0  0  0  0  0
  183.5870  179.9350  139.8430 O   0  0  0  0  0  0  0  0  0  0  0  0
  183.2270  179.0030  143.1960 C   0  0  0  0  0  2  0  0  0  0  0  0
  184.5120  178.9260  142.3600 C   0  0  0  0  0  3  0  0  0  0  0  0
  183.4400  178.6830  144.6800 C   0  0  0  0  0  2  0  0  0  0  0  0
  185.8990  178.2200  144.3520 C   0  0  0  0  0  2  0  0  0  0  0  0
  185.4700  177.8780  142.9190 C   0  0  0  0  0  2  0  0  0  0  0  0
  184.8540  179.0290  145.1300 C   0  0  0  0  0  2  0  0  0  0  0  0
  1  4  1  0  0  0  0
  1 22  1  1  0  0  0
  2 11  1  0  0  0  0
  3  1  1  0  0  0  0
  4  2  1  6  0  0  0
  5  8  2  0  0  0  0
  6 16  1  0  0  0  0
  7 10  1  6  0  0  0
  7  9  1  0  0  0  0
  7  4  1  0  0  0  0
  8  6  2  0  0  0  0
  9 12  1  0  0  0  0
 10 13  1  0  0  0  0
 11 14  2  0  0  0  0
 12 19  1  6  0  0  0
 12  5  1  0  0  0  0
 13  3  1  0  0  0  0
 14  6  1  0  0  0  0
 16 15  1  0  0  0  0
 16 18  1  0  0  0  0
 18 17  1  0  0  0  0
 20 19  1  0  0  0  0
 21 22  2  0  0  0  0
 22 23  1  0  0  0  0
 23 25  1  0  0  0  0
 24 25  1  0  0  0  0
 25 26  2  6  0  0  0
 25 28  1  0  0  0  0
 27 29  1  0  0  0  0
 28 31  1  0  0  0  0
 28 27  1  0  0  0  0
 29 32  1  0  0  0  0
 30 32  1  0  0  0  0
 31 30  1  0  0  0  0
M  END
>  <MODEL>
8

>  <REMARK>
 VINA RESULT:      -7.6      2.711      6.794
  Name = 
  7 active torsions:
  status: ('A' for Active; 'I' for Inactive)
    1  A    between atoms: C_1  and  C_27
    2  A    between atoms: C_7  and  P_22
    3  A    between atoms: C_10  and  N_12
    4  A    between atoms: N_12  and  C_31
    5  A    between atoms: C_13  and  C_29
    6  A    between atoms: O_16  and  P_22
    7  A    between atoms: O_16  and  C_27
                            x       y       z     vdW  Elec       q    Type
                         _______ _______ _______ _____ _____    ______ ____

>  <TORSDO>
F 7

$$$$
=
 OpenBabel11052414313D

 32 34  0  0  1  0  0  0  0  0999 V2000
  189.6780  176.3790  141.9950 C   0  0  1  0  0  3  0  0  0  0  0  0
  188.6900  178.7310  142.5320 C   0  0  0  0  0  2  0  0  0  0  0  0
  190.8460  175.9530  142.6780 O   0  0  0  0  0  0  0  0  0  0  0  0
  188.6650  177.2220  142.8320 C   0  0  2  0  0  3  0  0  0  0  0  0
  185.9530  178.6530  144.3790 C   0  0  0  0  0  3  0  0  0  0  0  0
  185.6830  178.7040  141.7820 C   0  0  0  0  0  0  0  0  0  0  0  0
  188.9260  176.9510  144.3290 C   0  0  2  0  0  3  0  0  0  0  0  0
  185.8140  178.6860  143.0850 C   0  0  0  0  0  0  0  0  0  0  0  0
  188.0260  177.7270  145.2880 C   0  0  0  0  0  2  0  0  0  0  0  0
  190.3940  177.1760  144.7070 C   0  0  0  0  0  2  0  0  0  0  0  0
  188.1010  179.0300  141.2290 N   0  0  0  0  0  0  0  0  0  0  0  0
  186.5530  177.4550  145.0250 C   0  0  1  0  0  3  0  0  0  0  0  0
  191.3110  177.0010  143.4950 C   0  0  0  0  0  2  0  0  0  0  0  0
  186.8400  179.0060  140.8980 C   0  0  0  0  0  3  0  0  0  0  0  0
  183.1940  178.4100  142.0290 C   0  0  0  0  0  1  0  0  0  0  0  0
  184.3800  178.5030  141.1920 N   0  0  0  0  0  0  0  0  0  0  0  0
  183.7140  179.5700  139.0940 C   0  0  0  0  0  1  0  0  0  0  0  0
  184.1980  178.2920  139.7580 C   0  0  0  0  0  2  0  0  0  0  0  0
  185.8260  177.1770  146.3280 C   0  0  0  0  0  2  0  0  0  0  0  0
  185.3600  178.4750  146.9620 C   0  0  0  0  0  1  0  0  0  0  0  0
  191.0720  177.4340  140.3790 O   0  0  0  0  0  0  0  0  0  0  0  0
  189.9800  176.8500  140.6080 C   0  0  0  0  0  0  0  0  0  0  0  0
  189.0550  176.6210  139.5860 O   0  0  0  0  0  0  0  0  0  0  0  0
  190.5260  176.9590  137.4160 O   0  0  0  0  0  0  0  0  0  0  0  0
  189.1980  177.3380  138.0300 P   0  0  2  0  0  0  0  0  0  0  0  0
  189.1050  179.0200  138.1740 O   0  0  0  0  0  1  0  0  0  0  0  0
  187.6180  175.2440  137.2190 C   0  0  0  0  0  2  0  0  0  0  0  0
  187.8500  176.7420  136.9730 C   0  0  0  0  0  3  0  0  0  0  0  0
  186.1850  174.7890  136.9210 C   0  0  0  0  0  2  0  0  0  0  0  0
  185.4410  177.1210  136.3100 C   0  0  0  0  0  2  0  0  0  0  0  0
  186.5830  177.5470  137.2420 C   0  0  0  0  0  2  0  0  0  0  0  0
  185.5310  175.6590  135.8550 C   0  0  0  0  0  2  0  0  0  0  0  0
  1 22  1  6  0  0  0
  1  3  1  0  0  0  0
  1  4  1  0  0  0  0
  3 13  1  0  0  0  0
  4  2  1  1  0  0  0
  4  7  1  0  0  0  0
  5 12  1  0  0  0  0
  6  8  2  0  0  0  0
  7 10  1  1  0  0  0
  7  9  1  0  0  0  0
  8  5  2  0  0  0  0
 11  2  1  0  0  0  0
 12  9  1  0  0  0  0
 12 19  1  1  0  0  0
 13 10  1  0  0  0  0
 14 11  2  0  0  0  0
 14  6  1  0  0  0  0
 16  6  1  0  0  0  0
 16 15  1  0  0  0  0
 17 18  1  0  0  0  0
 18 16  1  0  0  0  0
 19 20  1  0  0  0  0
 21 22  2  0  0  0  0
 23 22  1  0  0  0  0
 25 24  2  6  0  0  0
 25 26  1  0  0  0  0
 25 23  1  0  0  0  0
 28 27  1  0  0  0  0
 28 31  1  0  0  0  0
 28 25  1  0  0  0  0
 29 27  1  0  0  0  0
 30 31  1  0  0  0  0
 32 30  1  0  0  0  0
 32 29  1  0  0  0  0
M  END
>  <MODEL>
9

>  <REMARK>
 VINA RESULT:      -7.6      3.046      5.347
  Name = 
  7 active torsions:
  status: ('A' for Active; 'I' for Inactive)
    1  A    between atoms: C_1  and  C_27
    2  A    between atoms: C_7  and  P_22
    3  A    between atoms: C_10  and  N_12
    4  A    between atoms: N_12  and  C_31
    5  A    between atoms: C_13  and  C_29
    6  A    between atoms: O_16  and  P_22
    7  A    between atoms: O_16  and  C_27
                            x       y       z     vdW  Elec       q    Type
                         _______ _______ _______ _____ _____    ______ ____

>  <TORSDO>
F 7

$$$$
