=
 OpenBabel11052412343D

 30 34  0  0  1  0  0  0  0  0999 V2000
  190.5240  176.9600  139.8560 C   0  0  0  0  0  0  0  0  0  0  0  0
  188.8610  175.5860  136.5600 C   0  0  0  0  0  2  0  0  0  0  0  0
  187.9620  177.1500  136.4070 S   0  0  2  0  0  0  0  0  0  0  0  0
  190.9090  175.9620  138.8050 C   0  0  1  0  0  3  0  0  0  0  0  0
  191.4220  177.5890  140.5260 N   0  0  0  0  0  2  0  0  0  0  0  0
  190.3690  175.7750  136.4100 C   0  0  0  0  0  2  0  0  0  0  0  0
  190.8980  176.7080  137.4820 C   0  0  2  0  0  3  0  0  0  0  0  0
  189.0620  177.3100  139.9870 C   0  0  2  0  0  3  0  0  0  0  0  0
  187.4470  177.5600  138.1010 C   0  0  1  0  0  3  0  0  0  0  0  0
  186.6740  176.7220  135.7170 O   0  0  0  0  0  0  0  0  0  0  0  0
  192.2120  176.2530  138.0720 C   0  0  0  0  0  2  0  0  0  0  0  0
  188.5960  178.2120  138.8490 C   0  0  0  0  0  2  0  0  0  0  0  0
  188.6720  177.8130  141.3570 C   0  0  0  0  0  0  0  0  0  0  0  0
  188.9740  178.9540  141.6670 O   0  0  0  0  0  0  0  0  0  0  0  0
  188.0010  176.9250  142.3830 C   0  0  2  0  0  3  0  0  0  0  0  0
  188.0220  177.5610  143.7620 C   0  0  2  0  0  3  0  0  0  0  0  0
  188.9120  176.3680  143.4890 C   0  0  2  0  0  3  0  0  0  0  0  0
  186.0610  178.3300  145.0480 C   0  0  0  0  0  2  0  0  0  0  0  0
  186.9500  177.5390  145.9830 C   0  0  0  0  0  2  0  0  0  0  0  0
  186.8020  177.1110  144.5370 C   0  0  0  0  0  3  0  0  0  0  0  0
  190.3710  176.8320  143.4410 C   0  0  0  0  0  2  0  0  0  0  0  0
  191.4470  177.0860  145.7040 C   0  0  0  0  0  1  0  0  0  0  0  0
  191.5380  178.9730  144.0780 C   0  0  0  0  0  1  0  0  0  0  0  0
  190.7230  177.7940  144.5750 C   0  0  0  0  0  3  0  0  0  0  0  0
  186.2810  178.5330  138.0840 C   0  0  0  0  0  2  0  0  0  0  0  0
  185.1530  177.9710  138.8140 N   0  0  0  0  0  2  0  0  0  0  0  0
  184.6440  178.9970  139.7150 C   0  0  0  0  0  0  0  0  0  0  0  0
  184.3020  180.2380  139.1750 O   0  0  0  0  0  1  0  0  0  0  0  0
  183.9180  178.5430  140.9570 C   0  0  0  0  0  2  0  0  0  0  0  0
  185.3530  179.0630  141.0420 C   0  0  0  0  0  2  0  0  0  0  0  0
  1  8  1  0  0  0  0
  1  5  2  0  0  0  0
  3 10  2  6  0  0  0
  3  2  1  0  0  0  0
  3  9  1  0  0  0  0
  4 11  1  1  0  0  0
  4  1  1  0  0  0  0
  6  2  1  0  0  0  0
  7  6  1  6  0  0  0
  7 11  1  0  0  0  0
  7  4  1  0  0  0  0
  8 13  1  1  0  0  0
  9 25  1  6  0  0  0
  9 12  1  0  0  0  0
 12  8  1  0  0  0  0
 13 14  2  0  0  0  0
 15 13  1  6  0  0  0
 15 17  1  0  0  0  0
 15 16  1  0  0  0  0
 16 20  1  1  0  0  0
 17 21  1  6  0  0  0
 17 16  1  0  0  0  0
 18 19  1  0  0  0  0
 20 18  1  0  0  0  0
 20 19  1  0  0  0  0
 21 24  1  0  0  0  0
 23 24  1  0  0  0  0
 24 22  1  0  0  0  0
 25 26  1  0  0  0  0
 26 27  1  0  0  0  0
 27 29  1  0  0  0  0
 27 30  1  0  0  0  0
 28 27  1  0  0  0  0
 29 30  1  0  0  0  0
M  END
>  <MODEL>
1

>  <REMARK>
 VINA RESULT:      -8.1      0.000      0.000
  Name = 
  8 active torsions:
  status: ('A' for Active; 'I' for Inactive)
    1  A    between atoms: C_1  and  C_4
    2  A    between atoms: C_1  and  C_22
    3  A    between atoms: N_7  and  C_10
    4  A    between atoms: N_7  and  C_25
    5  A    between atoms: C_8  and  C_30
    6  A    between atoms: C_9  and  C_12
    7  A    between atoms: C_9  and  C_21
    8  A    between atoms: C_23  and  C_25
                            x       y       z     vdW  Elec       q    Type
                         _______ _______ _______ _____ _____    ______ ____

>  <TORSDO>
F 8

$$$$
=
 OpenBabel11052412343D

 30 34  0  0  1  0  0  0  0  0999 V2000
  190.3120  176.7100  141.1530 C   0  0  0  0  0  0  0  0  0  0  0  0
  188.3340  177.2030  137.7830 C   0  0  0  0  0  2  0  0  0  0  0  0
  187.4960  178.6250  138.5260 S   0  0  2  0  0  0  0  0  0  0  0  0
  190.5680  176.3860  139.7110 C   0  0  1  0  0  3  0  0  0  0  0  0
  191.2870  176.9110  141.9650 N   0  0  0  0  0  2  0  0  0  0  0  0
  189.8320  177.4440  137.6130 C   0  0  0  0  0  2  0  0  0  0  0  0
  190.4850  177.7010  138.9570 C   0  0  2  0  0  3  0  0  0  0  0  0
  188.8820  176.9410  141.5760 C   0  0  2  0  0  3  0  0  0  0  0  0
  187.1360  178.1140  140.2330 C   0  0  1  0  0  3  0  0  0  0  0  0
  186.1400  178.6060  137.8350 O   0  0  0  0  0  0  0  0  0  0  0  0
  191.8200  177.0120  139.1130 C   0  0  0  0  0  2  0  0  0  0  0  0
  188.3680  178.2970  141.1010 C   0  0  0  0  0  2  0  0  0  0  0  0
  188.6240  176.6760  143.0400 C   0  0  0  0  0  0  0  0  0  0  0  0
  188.1010  175.6190  143.3580 O   0  0  0  0  0  0  0  0  0  0  0  0
  188.9100  177.7060  144.1110 C   0  0  2  0  0  3  0  0  0  0  0  0
  188.5350  177.1880  145.4890 C   0  0  2  0  0  3  0  0  0  0  0  0
  187.6840  178.2650  144.8510 C   0  0  2  0  0  3  0  0  0  0  0  0
  189.9540  176.7370  147.4580 C   0  0  0  0  0  2  0  0  0  0  0  0
  188.8280  177.6490  147.8950 C   0  0  0  0  0  2  0  0  0  0  0  0
  189.4470  177.8160  146.5220 C   0  0  0  0  0  3  0  0  0  0  0  0
  186.3350  177.6620  144.4470 C   0  0  0  0  0  2  0  0  0  0  0  0
  185.4950  178.7830  146.5400 C   0  0  0  0  0  1  0  0  0  0  0  0
  184.6490  179.5300  144.3160 C   0  0  0  0  0  1  0  0  0  0  0  0
  185.1520  178.3500  145.1270 C   0  0  0  0  0  3  0  0  0  0  0  0
  186.0170  178.9580  140.8180 C   0  0  0  0  0  2  0  0  0  0  0  0
  184.8820  178.1130  141.1590 N   0  0  0  0  0  2  0  0  0  0  0  0
  183.7050  178.6450  140.4850 C   0  0  0  0  0  0  0  0  0  0  0  0
  183.8450  179.8190  139.7430 O   0  0  0  0  0  1  0  0  0  0  0  0
  182.6340  177.6690  140.0670 C   0  0  0  0  0  2  0  0  0  0  0  0
  182.4370  178.5610  141.2930 C   0  0  0  0  0  2  0  0  0  0  0  0
  1  8  1  0  0  0  0
  1  5  2  0  0  0  0
  2  3  1  0  0  0  0
  3 10  2  6  0  0  0
  3  9  1  0  0  0  0
  4 11  1  1  0  0  0
  4  1  1  0  0  0  0
  6  2  1  0  0  0  0
  7  6  1  6  0  0  0
  7 11  1  0  0  0  0
  7  4  1  0  0  0  0
  8 13  1  1  0  0  0
  9 25  1  1  0  0  0
  9 12  1  0  0  0  0
 12  8  1  0  0  0  0
 13 14  2  0  0  0  0
 15 13  1  6  0  0  0
 15 17  1  0  0  0  0
 15 16  1  0  0  0  0
 16 20  1  1  0  0  0
 17 21  1  6  0  0  0
 17 16  1  0  0  0  0
 18 19  1  0  0  0  0
 20 18  1  0  0  0  0
 20 19  1  0  0  0  0
 21 24  1  0  0  0  0
 23 24  1  0  0  0  0
 24 22  1  0  0  0  0
 25 26  1  0  0  0  0
 27 26  1  0  0  0  0
 27 30  1  0  0  0  0
 28 27  1  0  0  0  0
 29 27  1  0  0  0  0
 29 30  1  0  0  0  0
M  END
>  <MODEL>
2

>  <REMARK>
 VINA RESULT:      -7.6      1.763      3.095
  Name = 
  8 active torsions:
  status: ('A' for Active; 'I' for Inactive)
    1  A    between atoms: C_1  and  C_4
    2  A    between atoms: C_1  and  C_22
    3  A    between atoms: N_7  and  C_10
    4  A    between atoms: N_7  and  C_25
    5  A    between atoms: C_8  and  C_30
    6  A    between atoms: C_9  and  C_12
    7  A    between atoms: C_9  and  C_21
    8  A    between atoms: C_23  and  C_25
                            x       y       z     vdW  Elec       q    Type
                         _______ _______ _______ _____ _____    ______ ____

>  <TORSDO>
F 8

$$$$
=
 OpenBabel11052412343D

 30 34  0  0  1  0  0  0  0  0999 V2000
  187.8020  178.3590  140.0650 C   0  0  0  0  0  0  0  0  0  0  0  0
  191.4420  177.6840  141.4110 C   0  0  0  0  0  2  0  0  0  0  0  0
  190.7320  176.6100  142.6840 S   0  0  2  0  0  0  0  0  0  0  0  0
  189.1770  178.3670  139.4660 C   0  0  1  0  0  3  0  0  0  0  0  0
  186.7710  178.1140  139.3390 N   0  0  0  0  0  2  0  0  0  0  0  0
  191.2340  177.1240  140.0060 C   0  0  0  0  0  2  0  0  0  0  0  0
  189.7540  176.9820  139.7040 C   0  0  2  0  0  3  0  0  0  0  0  0
  187.6900  178.4940  141.5630 C   0  0  2  0  0  3  0  0  0  0  0  0
  189.2330  177.4740  143.2390 C   0  0  1  0  0  3  0  0  0  0  0  0
  191.7100  176.7760  143.8380 O   0  0  0  0  0  0  0  0  0  0  0  0
  189.3890  177.4080  138.3020 C   0  0  0  0  0  2  0  0  0  0  0  0
  188.0910  177.2060  142.2750 C   0  0  0  0  0  2  0  0  0  0  0  0
  186.3700  179.0600  142.0320 C   0  0  0  0  0  0  0  0  0  0  0  0
  186.2570  180.2710  142.1300 O   0  0  0  0  0  0  0  0  0  0  0  0
  185.2210  178.1760  142.4640 C   0  0  2  0  0  3  0  0  0  0  0  0
  184.0950  178.9930  143.0750 C   0  0  2  0  0  3  0  0  0  0  0  0
  184.9440  178.1230  143.9760 C   0  0  2  0  0  3  0  0  0  0  0  0
  181.6900  179.3470  142.6450 C   0  0  0  0  0  2  0  0  0  0  0  0
  181.8240  178.5920  143.9500 C   0  0  0  0  0  2  0  0  0  0  0  0
  182.7750  178.3010  142.8070 C   0  0  0  0  0  3  0  0  0  0  0  0
  185.8340  179.0190  144.8430 C   0  0  0  0  0  2  0  0  0  0  0  0
  186.2080  179.7940  147.2100 C   0  0  0  0  0  1  0  0  0  0  0  0
  184.4320  178.1110  146.7290 C   0  0  0  0  0  1  0  0  0  0  0  0
  185.7970  178.6360  146.3210 C   0  0  0  0  0  3  0  0  0  0  0  0
  188.8140  176.9860  144.6150 C   0  0  0  0  0  2  0  0  0  0  0  0
  189.1200  177.9970  145.6170 N   0  0  0  0  0  2  0  0  0  0  0  0
  189.5430  177.3140  146.8320 C   0  0  0  0  0  0  0  0  0  0  0  0
  190.6690  176.4920  146.7680 O   0  0  0  0  0  1  0  0  0  0  0  0
  189.2180  177.9650  148.1540 C   0  0  0  0  0  2  0  0  0  0  0  0
  188.4110  176.7640  147.6590 C   0  0  0  0  0  2  0  0  0  0  0  0
  1  8  1  0  0  0  0
  2  3  1  0  0  0  0
  3  9  1  0  0  0  0
  3 10  2  1  0  0  0
  4 11  1  6  0  0  0
  4  7  1  0  0  0  0
  4  1  1  0  0  0  0
  5  1  2  0  0  0  0
  6  2  1  0  0  0  0
  7 11  1  6  0  0  0
  7  6  1  0  0  0  0
  8 13  1  6  0  0  0
  8 12  1  0  0  0  0
  9 25  1  1  0  0  0
 12  9  1  0  0  0  0
 13 14  2  0  0  0  0
 15 13  1  1  0  0  0
 15 16  1  0  0  0  0
 15 17  1  0  0  0  0
 16 20  1  6  0  0  0
 16 17  1  0  0  0  0
 17 21  1  1  0  0  0
 18 20  1  0  0  0  0
 18 19  1  0  0  0  0
 20 19  1  0  0  0  0
 21 24  1  0  0  0  0
 24 23  1  0  0  0  0
 24 22  1  0  0  0  0
 25 26  1  0  0  0  0
 26 27  1  0  0  0  0
 27 30  1  0  0  0  0
 27 29  1  0  0  0  0
 28 27  1  0  0  0  0
 30 29  1  0  0  0  0
M  END
>  <MODEL>
3

>  <REMARK>
 VINA RESULT:      -7.4      2.784      5.855
  Name = 
  8 active torsions:
  status: ('A' for Active; 'I' for Inactive)
    1  A    between atoms: C_1  and  C_4
    2  A    between atoms: C_1  and  C_22
    3  A    between atoms: N_7  and  C_10
    4  A    between atoms: N_7  and  C_25
    5  A    between atoms: C_8  and  C_30
    6  A    between atoms: C_9  and  C_12
    7  A    between atoms: C_9  and  C_21
    8  A    between atoms: C_23  and  C_25
                            x       y       z     vdW  Elec       q    Type
                         _______ _______ _______ _____ _____    ______ ____

>  <TORSDO>
F 8

$$$$
=
 OpenBabel11052412343D

 30 34  0  0  1  0  0  0  0  0999 V2000
  189.6790  177.0650  140.4170 C   0  0  0  0  0  0  0  0  0  0  0  0
  186.4410  177.8310  138.3090 C   0  0  0  0  0  2  0  0  0  0  0  0
  185.9700  179.0620  139.5500 S   0  0  2  0  0  0  0  0  0  0  0  0
  189.3020  176.9610  138.9690 C   0  0  1  0  0  3  0  0  0  0  0  0
  190.9030  177.2400  140.7670 N   0  0  0  0  0  2  0  0  0  0  0  0
  187.7180  178.2230  137.5680 C   0  0  0  0  0  2  0  0  0  0  0  0
  188.8760  178.3540  138.5380 C   0  0  2  0  0  3  0  0  0  0  0  0
  188.5620  177.1120  141.4300 C   0  0  2  0  0  3  0  0  0  0  0  0
  186.3850  178.2980  141.1460 C   0  0  1  0  0  3  0  0  0  0  0  0
  184.4490  179.0180  139.4960 O   0  0  0  0  0  0  0  0  0  0  0  0
  190.1650  177.7690  138.0090 C   0  0  0  0  0  2  0  0  0  0  0  0
  187.8650  178.4690  141.4350 C   0  0  0  0  0  2  0  0  0  0  0  0
  188.9600  176.6310  142.8060 C   0  0  0  0  0  0  0  0  0  0  0  0
  188.5150  175.5650  143.2010 O   0  0  0  0  0  0  0  0  0  0  0  0
  189.8150  177.4630  143.7370 C   0  0  2  0  0  3  0  0  0  0  0  0
  189.9050  176.8310  145.1150 C   0  0  2  0  0  3  0  0  0  0  0  0
  189.0870  178.0920  144.9370 C   0  0  2  0  0  3  0  0  0  0  0  0
  191.9370  175.9090  146.1700 C   0  0  0  0  0  2  0  0  0  0  0  0
  191.2300  176.7690  147.1950 C   0  0  0  0  0  2  0  0  0  0  0  0
  191.2400  177.1830  145.7380 C   0  0  0  0  0  3  0  0  0  0  0  0
  187.6000  177.7450  145.0640 C   0  0  0  0  0  2  0  0  0  0  0  0
  188.0920  178.3430  147.4610 C   0  0  0  0  0  1  0  0  0  0  0  0
  185.7260  178.1320  146.7030 C   0  0  0  0  0  1  0  0  0  0  0  0
  187.1440  177.6260  146.5170 C   0  0  0  0  0  3  0  0  0  0  0  0
  185.6040  178.9550  142.2710 C   0  0  0  0  0  2  0  0  0  0  0  0
  184.6690  178.0020  142.8510 N   0  0  0  0  0  2  0  0  0  0  0  0
  183.4460  178.7190  143.1880 C   0  0  0  0  0  0  0  0  0  0  0  0
  182.4860  178.8900  142.1900 O   0  0  0  0  0  1  0  0  0  0  0  0
  182.9750  178.6690  144.6200 C   0  0  0  0  0  2  0  0  0  0  0  0
  183.6560  179.9220  144.0690 C   0  0  0  0  0  2  0  0  0  0  0  0
  1  5  2  0  0  0  0
  1  8  1  0  0  0  0
  2  3  1  0  0  0  0
  3 10  2  1  0  0  0
  3  9  1  0  0  0  0
  4 11  1  6  0  0  0
  4  1  1  0  0  0  0
  6  2  1  0  0  0  0
  7  6  1  6  0  0  0
  7  4  1  0  0  0  0
  8 12  1  0  0  0  0
  8 13  1  1  0  0  0
  9 12  1  0  0  0  0
  9 25  1  1  0  0  0
 11  7  1  0  0  0  0
 13 14  2  0  0  0  0
 15 13  1  6  0  0  0
 15 17  1  0  0  0  0
 15 16  1  0  0  0  0
 16 20  1  1  0  0  0
 17 21  1  6  0  0  0
 17 16  1  0  0  0  0
 18 19  1  0  0  0  0
 20 18  1  0  0  0  0
 20 19  1  0  0  0  0
 21 24  1  0  0  0  0
 24 23  1  0  0  0  0
 24 22  1  0  0  0  0
 25 26  1  0  0  0  0
 26 27  1  0  0  0  0
 27 30  1  0  0  0  0
 27 29  1  0  0  0  0
 28 27  1  0  0  0  0
 30 29  1  0  0  0  0
M  END
>  <MODEL>
4

>  <REMARK>
 VINA RESULT:      -7.4      2.103      3.662
  Name = 
  8 active torsions:
  status: ('A' for Active; 'I' for Inactive)
    1  A    between atoms: C_1  and  C_4
    2  A    between atoms: C_1  and  C_22
    3  A    between atoms: N_7  and  C_10
    4  A    between atoms: N_7  and  C_25
    5  A    between atoms: C_8  and  C_30
    6  A    between atoms: C_9  and  C_12
    7  A    between atoms: C_9  and  C_21
    8  A    between atoms: C_23  and  C_25
                            x       y       z     vdW  Elec       q    Type
                         _______ _______ _______ _____ _____    ______ ____

>  <TORSDO>
F 8

$$$$
=
 OpenBabel11052412343D

 30 34  0  0  1  0  0  0  0  0999 V2000
  187.8840  178.1330  139.3300 C   0  0  0  0  0  0  0  0  0  0  0  0
  184.6180  176.8290  137.5550 C   0  0  0  0  0  2  0  0  0  0  0  0
  183.6760  178.0950  138.4420 S   0  0  2  0  0  0  0  0  0  0  0  0
  187.5810  177.4320  138.0390 C   0  0  1  0  0  3  0  0  0  0  0  0
  188.9210  178.8830  139.4430 N   0  0  0  0  0  2  0  0  0  0  0  0
  185.6080  177.4390  136.5650 C   0  0  0  0  0  2  0  0  0  0  0  0
  186.6060  178.3230  137.2880 C   0  0  2  0  0  3  0  0  0  0  0  0
  186.8540  178.0510  140.4290 C   0  0  2  0  0  3  0  0  0  0  0  0
  184.3790  178.1110  140.1180 C   0  0  1  0  0  3  0  0  0  0  0  0
  182.3160  177.4330  138.6120 O   0  0  0  0  0  0  0  0  0  0  0  0
  188.0190  178.1660  136.7780 C   0  0  0  0  0  2  0  0  0  0  0  0
  185.6500  178.9410  140.1400 C   0  0  0  0  0  2  0  0  0  0  0  0
  187.4230  178.2330  141.8170 C   0  0  0  0  0  0  0  0  0  0  0  0
  188.2550  179.1090  141.9960 O   0  0  0  0  0  0  0  0  0  0  0  0
  187.0620  177.3160  142.9650 C   0  0  2  0  0  3  0  0  0  0  0  0
  187.8960  177.6210  144.1980 C   0  0  2  0  0  3  0  0  0  0  0  0
  188.1640  176.3480  143.4250 C   0  0  2  0  0  3  0  0  0  0  0  0
  187.0710  178.5040  146.3500 C   0  0  0  0  0  2  0  0  0  0  0  0
  188.0000  177.3480  146.6480 C   0  0  0  0  0  2  0  0  0  0  0  0
  187.0890  177.2940  145.4380 C   0  0  0  0  0  3  0  0  0  0  0  0
  189.5050  176.4780  142.6960 C   0  0  0  0  0  2  0  0  0  0  0  0
  191.6060  175.7490  143.8800 C   0  0  0  0  0  1  0  0  0  0  0  0
  191.3880  178.1050  143.0930 C   0  0  0  0  0  1  0  0  0  0  0  0
  190.6440  176.8950  143.6260 C   0  0  0  0  0  3  0  0  0  0  0  0
  183.3980  178.7230  141.1030 C   0  0  0  0  0  2  0  0  0  0  0  0
  183.5060  178.0560  142.3930 N   0  0  0  0  0  2  0  0  0  0  0  0
  183.2090  179.0340  143.4310 C   0  0  0  0  0  0  0  0  0  0  0  0
  182.0580  179.8100  143.2960 O   0  0  0  0  0  1  0  0  0  0  0  0
  183.7100  178.7510  144.8260 C   0  0  0  0  0  2  0  0  0  0  0  0
  184.4130  179.7810  143.9410 C   0  0  0  0  0  2  0  0  0  0  0  0
  1  5  2  0  0  0  0
  1  8  1  0  0  0  0
  2  3  1  0  0  0  0
  3 10  2  1  0  0  0
  3  9  1  0  0  0  0
  4 11  1  6  0  0  0
  4  1  1  0  0  0  0
  6  2  1  0  0  0  0
  7  6  1  6  0  0  0
  7  4  1  0  0  0  0
  8 13  1  1  0  0  0
  9 12  1  0  0  0  0
  9 25  1  1  0  0  0
 11  7  1  0  0  0  0
 12  8  1  0  0  0  0
 13 14  2  0  0  0  0
 15 13  1  6  0  0  0
 15 17  1  0  0  0  0
 15 16  1  0  0  0  0
 16 20  1  1  0  0  0
 17 21  1  6  0  0  0
 17 16  1  0  0  0  0
 18 19  1  0  0  0  0
 20 18  1  0  0  0  0
 20 19  1  0  0  0  0
 21 24  1  0  0  0  0
 23 24  1  0  0  0  0
 24 22  1  0  0  0  0
 25 26  1  0  0  0  0
 26 27  1  0  0  0  0
 27 30  1  0  0  0  0
 27 29  1  0  0  0  0
 28 27  1  0  0  0  0
 30 29  1  0  0  0  0
M  END
>  <MODEL>
5

>  <REMARK>
 VINA RESULT:      -6.9      2.490      3.261
  Name = 
  8 active torsions:
  status: ('A' for Active; 'I' for Inactive)
    1  A    between atoms: C_1  and  C_4
    2  A    between atoms: C_1  and  C_22
    3  A    between atoms: N_7  and  C_10
    4  A    between atoms: N_7  and  C_25
    5  A    between atoms: C_8  and  C_30
    6  A    between atoms: C_9  and  C_12
    7  A    between atoms: C_9  and  C_21
    8  A    between atoms: C_23  and  C_25
                            x       y       z     vdW  Elec       q    Type
                         _______ _______ _______ _____ _____    ______ ____

>  <TORSDO>
F 8

$$$$
=
 OpenBabel11052412343D

 30 34  0  0  1  0  0  0  0  0999 V2000
  185.4320  178.4120  143.2420 C   0  0  0  0  0  0  0  0  0  0  0  0
  188.7450  176.2910  143.4490 C   0  0  0  0  0  2  0  0  0  0  0  0
  189.4950  177.4140  142.2420 S   0  0  2  0  0  0  0  0  0  0  0  0
  186.0760  177.5420  144.2800 C   0  0  1  0  0  3  0  0  0  0  0  0
  184.6450  179.3690  143.5830 N   0  0  0  0  0  2  0  0  0  0  0  0
  188.4270  176.9950  144.7670 C   0  0  0  0  0  2  0  0  0  0  0  0
  187.4500  178.1330  144.5400 C   0  0  2  0  0  3  0  0  0  0  0  0
  185.8600  178.2250  141.8070 C   0  0  2  0  0  3  0  0  0  0  0  0
  188.1810  177.7390  141.0290 C   0  0  1  0  0  3  0  0  0  0  0  0
  190.4680  176.5040  141.5070 O   0  0  0  0  0  0  0  0  0  0  0  0
  186.3840  178.2240  145.6060 C   0  0  0  0  0  2  0  0  0  0  0  0
  187.2440  178.8130  141.5530 C   0  0  0  0  0  2  0  0  0  0  0  0
  184.8240  178.6570  140.7960 C   0  0  0  0  0  0  0  0  0  0  0  0
  184.7680  179.8360  140.4860 O   0  0  0  0  0  0  0  0  0  0  0  0
  183.8040  177.6960  140.2250 C   0  0  2  0  0  3  0  0  0  0  0  0
  182.7850  178.4220  139.3620 C   0  0  2  0  0  3  0  0  0  0  0  0
  182.3570  177.8850  140.7110 C   0  0  2  0  0  3  0  0  0  0  0  0
  181.9460  178.3000  137.0440 C   0  0  0  0  0  2  0  0  0  0  0  0
  180.8510  177.8030  137.9620 C   0  0  0  0  0  2  0  0  0  0  0  0
  182.3000  177.4870  138.2730 C   0  0  0  0  0  3  0  0  0  0  0  0
  182.1280  179.0600  141.6670 C   0  0  0  0  0  2  0  0  0  0  0  0
  179.8190  178.0530  141.6450 C   0  0  0  0  0  1  0  0  0  0  0  0
  180.8880  178.6400  143.8200 C   0  0  0  0  0  1  0  0  0  0  0  0
  180.7640  179.0060  142.3530 C   0  0  0  0  0  3  0  0  0  0  0  0
  188.7740  178.2270  139.7180 C   0  0  0  0  0  2  0  0  0  0  0  0
  188.3790  177.3410  138.6330 N   0  0  0  0  0  2  0  0  0  0  0  0
  187.8140  178.1570  137.5670 C   0  0  0  0  0  0  0  0  0  0  0  0
  188.4250  179.3790  137.2780 O   0  0  0  0  0  1  0  0  0  0  0  0
  187.0870  177.4500  136.4510 C   0  0  0  0  0  2  0  0  0  0  0  0
  186.3090  178.1870  137.5410 C   0  0  0  0  0  2  0  0  0  0  0  0
  1  5  2  0  0  0  0
  1  4  1  0  0  0  0
  2  6  1  0  0  0  0
  3 10  2  6  0  0  0
  3  2  1  0  0  0  0
  4  7  1  0  0  0  0
  4 11  1  1  0  0  0
  7  6  1  1  0  0  0
  7 11  1  0  0  0  0
  8 13  1  6  0  0  0
  8  1  1  0  0  0  0
  9 25  1  6  0  0  0
  9 12  1  0  0  0  0
  9  3  1  0  0  0  0
 12  8  1  0  0  0  0
 14 13  2  0  0  0  0
 15 17  1  0  0  0  0
 15 13  1  1  0  0  0
 16 20  1  6  0  0  0
 16 15  1  0  0  0  0
 16 17  1  0  0  0  0
 17 21  1  1  0  0  0
 18 19  1  0  0  0  0
 18 20  1  0  0  0  0
 19 20  1  0  0  0  0
 21 24  1  0  0  0  0
 22 24  1  0  0  0  0
 24 23  1  0  0  0  0
 26 25  1  0  0  0  0
 27 26  1  0  0  0  0
 28 27  1  0  0  0  0
 29 30  1  0  0  0  0
 29 27  1  0  0  0  0
 30 27  1  0  0  0  0
M  END
>  <MODEL>
6

>  <REMARK>
 VINA RESULT:      -6.9      2.682      7.080
  Name = 
  8 active torsions:
  status: ('A' for Active; 'I' for Inactive)
    1  A    between atoms: C_1  and  C_4
    2  A    between atoms: C_1  and  C_22
    3  A    between atoms: N_7  and  C_10
    4  A    between atoms: N_7  and  C_25
    5  A    between atoms: C_8  and  C_30
    6  A    between atoms: C_9  and  C_12
    7  A    between atoms: C_9  and  C_21
    8  A    between atoms: C_23  and  C_25
                            x       y       z     vdW  Elec       q    Type
                         _______ _______ _______ _____ _____    ______ ____

>  <TORSDO>
F 8

$$$$
=
 OpenBabel11052412343D

 30 34  0  0  1  0  0  0  0  0999 V2000
  188.9210  177.6740  144.2310 C   0  0  0  0  0  0  0  0  0  0  0  0
  185.6700  179.0810  145.9530 C   0  0  0  0  0  2  0  0  0  0  0  0
  184.6880  178.3190  144.6370 S   0  0  2  0  0  0  0  0  0  0  0  0
  188.5340  178.0460  145.6310 C   0  0  1  0  0  3  0  0  0  0  0  0
  189.8270  176.7890  144.0120 N   0  0  0  0  0  2  0  0  0  0  0  0
  186.3760  178.0390  146.8180 C   0  0  0  0  0  2  0  0  0  0  0  0
  187.3200  177.2010  145.9770 C   0  0  2  0  0  3  0  0  0  0  0  0
  188.1080  178.2560  143.1010 C   0  0  2  0  0  3  0  0  0  0  0  0
  185.6380  178.6140  143.1150 C   0  0  1  0  0  3  0  0  0  0  0  0
  183.4980  179.2620  144.5250 O   0  0  0  0  0  0  0  0  0  0  0  0
  188.6400  176.9270  146.6580 C   0  0  0  0  0  2  0  0  0  0  0  0
  186.7440  177.5830  142.9850 C   0  0  0  0  0  2  0  0  0  0  0  0
  188.8530  178.3440  141.7900 C   0  0  0  0  0  0  0  0  0  0  0  0
  189.0750  179.4490  141.3190 O   0  0  0  0  0  0  0  0  0  0  0  0
  189.2530  177.1150  141.0040 C   0  0  2  0  0  3  0  0  0  0  0  0
  190.0590  177.4860  139.7710 C   0  0  2  0  0  3  0  0  0  0  0  0
  188.6410  176.9860  139.5990 C   0  0  2  0  0  3  0  0  0  0  0  0
  191.8530  176.7530  138.2420 C   0  0  0  0  0  2  0  0  0  0  0  0
  190.6920  175.7940  138.0920 C   0  0  0  0  0  2  0  0  0  0  0  0
  191.0290  176.3670  139.4540 C   0  0  0  0  0  3  0  0  0  0  0  0
  187.7500  178.1510  139.1560 C   0  0  0  0  0  2  0  0  0  0  0  0
  188.5020  178.7030  136.8170 C   0  0  0  0  0  1  0  0  0  0  0  0
  187.0980  176.6810  137.2160 C   0  0  0  0  0  1  0  0  0  0  0  0
  187.4030  178.0970  137.6700 C   0  0  0  0  0  3  0  0  0  0  0  0
  184.7410  178.5020  141.8950 C   0  0  0  0  0  2  0  0  0  0  0  0
  185.2190  179.3870  140.8420 N   0  0  0  0  0  2  0  0  0  0  0  0
  184.2550  179.3500  139.7510 C   0  0  0  0  0  0  0  0  0  0  0  0
  184.1530  180.4700  138.9230 O   0  0  0  0  0  1  0  0  0  0  0  0
  183.9090  178.0040  139.1640 C   0  0  0  0  0  2  0  0  0  0  0  0
  182.9380  178.7140  140.1080 C   0  0  0  0  0  2  0  0  0  0  0  0
  1  4  1  0  0  0  0
  2  6  1  0  0  0  0
  3 10  2  6  0  0  0
  3  2  1  0  0  0  0
  4  7  1  0  0  0  0
  4 11  1  1  0  0  0
  5  1  2  0  0  0  0
  7 11  1  1  0  0  0
  7  6  1  0  0  0  0
  8 13  1  6  0  0  0
  8  1  1  0  0  0  0
  9 25  1  6  0  0  0
  9  3  1  0  0  0  0
 12  8  1  0  0  0  0
 12  9  1  0  0  0  0
 14 13  2  0  0  0  0
 15 13  1  1  0  0  0
 16 20  1  6  0  0  0
 16 15  1  0  0  0  0
 17 21  1  1  0  0  0
 17 16  1  0  0  0  0
 17 15  1  0  0  0  0
 18 20  1  0  0  0  0
 19 18  1  0  0  0  0
 19 20  1  0  0  0  0
 22 24  1  0  0  0  0
 23 24  1  0  0  0  0
 24 21  1  0  0  0  0
 26 25  1  0  0  0  0
 27 30  1  0  0  0  0
 27 26  1  0  0  0  0
 28 27  1  0  0  0  0
 29 27  1  0  0  0  0
 29 30  1  0  0  0  0
M  END
>  <MODEL>
7

>  <REMARK>
 VINA RESULT:      -6.7      2.475      6.506
  Name = 
  8 active torsions:
  status: ('A' for Active; 'I' for Inactive)
    1  A    between atoms: C_1  and  C_4
    2  A    between atoms: C_1  and  C_22
    3  A    between atoms: N_7  and  C_10
    4  A    between atoms: N_7  and  C_25
    5  A    between atoms: C_8  and  C_30
    6  A    between atoms: C_9  and  C_12
    7  A    between atoms: C_9  and  C_21
    8  A    between atoms: C_23  and  C_25
                            x       y       z     vdW  Elec       q    Type
                         _______ _______ _______ _____ _____    ______ ____

>  <TORSDO>
F 8

$$$$
=
 OpenBabel11052412343D

 30 34  0  0  1  0  0  0  0  0999 V2000
  190.8670  177.0950  144.1390 C   0  0  0  0  0  0  0  0  0  0  0  0
  188.9930  178.2100  147.4190 C   0  0  0  0  0  2  0  0  0  0  0  0
  187.4710  177.4960  146.7470 S   0  0  2  0  0  0  0  0  0  0  0  0
  191.2690  177.3450  145.5620 C   0  0  1  0  0  3  0  0  0  0  0  0
  191.5280  176.2740  143.4040 N   0  0  0  0  0  2  0  0  0  0  0  0
  190.0530  177.1460  147.6940 C   0  0  0  0  0  2  0  0  0  0  0  0
  190.4200  176.4180  146.4150 C   0  0  2  0  0  3  0  0  0  0  0  0
  189.5790  177.7150  143.6550 C   0  0  2  0  0  3  0  0  0  0  0  0
  187.4820  177.9470  144.9870 C   0  0  1  0  0  3  0  0  0  0  0  0
  186.3940  178.3840  147.3560 O   0  0  0  0  0  0  0  0  0  0  0  0
  191.9030  176.1620  146.2810 C   0  0  0  0  0  2  0  0  0  0  0  0
  188.3610  176.9840  144.2090 C   0  0  0  0  0  2  0  0  0  0  0  0
  189.5270  177.9340  142.1610 C   0  0  0  0  0  0  0  0  0  0  0  0
  189.1220  179.0070  141.7430 O   0  0  0  0  0  0  0  0  0  0  0  0
  189.8740  176.8430  141.1720 C   0  0  2  0  0  3  0  0  0  0  0  0
  190.5830  177.4080  139.9530 C   0  0  2  0  0  3  0  0  0  0  0  0
  189.1590  176.9150  139.8130 C   0  0  2  0  0  3  0  0  0  0  0  0
  191.9290  176.7530  137.9910 C   0  0  0  0  0  2  0  0  0  0  0  0
  190.8810  175.6850  138.2140 C   0  0  0  0  0  2  0  0  0  0  0  0
  191.5320  176.3650  139.4010 C   0  0  0  0  0  3  0  0  0  0  0  0
  188.2300  178.1180  139.6170 C   0  0  0  0  0  2  0  0  0  0  0  0
  188.7430  178.9750  137.3050 C   0  0  0  0  0  1  0  0  0  0  0  0
  187.3810  176.9050  137.5780 C   0  0  0  0  0  1  0  0  0  0  0  0
  187.7350  178.2530  138.1780 C   0  0  0  0  0  3  0  0  0  0  0  0
  186.0780  177.8780  144.4090 C   0  0  0  0  0  2  0  0  0  0  0  0
  186.1420  177.7600  142.9590 N   0  0  0  0  0  2  0  0  0  0  0  0
  185.2090  178.7210  142.3880 C   0  0  0  0  0  0  0  0  0  0  0  0
  185.7240  179.7530  141.6010 O   0  0  0  0  0  1  0  0  0  0  0  0
  183.8030  178.2530  142.1050 C   0  0  0  0  0  2  0  0  0  0  0  0
  184.0990  179.1370  143.3180 C   0  0  0  0  0  2  0  0  0  0  0  0
  1  4  1  0  0  0  0
  2  6  1  0  0  0  0
  3 10  2  1  0  0  0
  3  2  1  0  0  0  0
  4 11  1  6  0  0  0
  4  7  1  0  0  0  0
  5  1  2  0  0  0  0
  7 11  1  1  0  0  0
  7  6  1  0  0  0  0
  8 13  1  6  0  0  0
  8  1  1  0  0  0  0
  8 12  1  0  0  0  0
  9 25  1  6  0  0  0
  9  3  1  0  0  0  0
 12  9  1  0  0  0  0
 14 13  2  0  0  0  0
 15 13  1  1  0  0  0
 16 20  1  6  0  0  0
 16 15  1  0  0  0  0
 17 21  1  1  0  0  0
 17 16  1  0  0  0  0
 17 15  1  0  0  0  0
 18 19  1  0  0  0  0
 18 20  1  0  0  0  0
 19 20  1  0  0  0  0
 22 24  1  0  0  0  0
 23 24  1  0  0  0  0
 24 21  1  0  0  0  0
 26 25  1  0  0  0  0
 27 26  1  0  0  0  0
 27 30  1  0  0  0  0
 28 27  1  0  0  0  0
 29 27  1  0  0  0  0
 29 30  1  0  0  0  0
M  END
>  <MODEL>
8

>  <REMARK>
 VINA RESULT:      -6.6      2.761      6.759
  Name = 
  8 active torsions:
  status: ('A' for Active; 'I' for Inactive)
    1  A    between atoms: C_1  and  C_4
    2  A    between atoms: C_1  and  C_22
    3  A    between atoms: N_7  and  C_10
    4  A    between atoms: N_7  and  C_25
    5  A    between atoms: C_8  and  C_30
    6  A    between atoms: C_9  and  C_12
    7  A    between atoms: C_9  and  C_21
    8  A    between atoms: C_23  and  C_25
                            x       y       z     vdW  Elec       q    Type
                         _______ _______ _______ _____ _____    ______ ____

>  <TORSDO>
F 8

$$$$
=
 OpenBabel11052412343D

 30 34  0  0  1  0  0  0  0  0999 V2000
  185.2030  178.2340  143.5630 C   0  0  0  0  0  0  0  0  0  0  0  0
  188.7570  176.5390  143.4540 C   0  0  0  0  0  2  0  0  0  0  0  0
  189.2170  177.6750  142.1230 S   0  0  2  0  0  0  0  0  0  0  0  0
  186.0650  177.5040  144.5500 C   0  0  1  0  0  3  0  0  0  0  0  0
  184.3460  179.1070  143.9580 N   0  0  0  0  0  2  0  0  0  0  0  0
  188.5060  177.2690  144.7720 C   0  0  0  0  0  2  0  0  0  0  0  0
  187.3760  178.2680  144.6190 C   0  0  2  0  0  3  0  0  0  0  0  0
  185.4830  178.0220  142.0960 C   0  0  2  0  0  3  0  0  0  0  0  0
  187.7420  177.7750  141.0640 C   0  0  1  0  0  3  0  0  0  0  0  0
  190.2050  176.8500  141.3120 O   0  0  0  0  0  0  0  0  0  0  0  0
  186.4360  178.2890  145.8010 C   0  0  0  0  0  2  0  0  0  0  0  0
  186.7450  178.7560  141.6540 C   0  0  0  0  0  2  0  0  0  0  0  0
  184.2920  178.2700  141.2010 C   0  0  0  0  0  0  0  0  0  0  0  0
  183.3460  177.5020  141.2640 O   0  0  0  0  0  0  0  0  0  0  0  0
  184.2710  179.3810  140.1740 C   0  0  2  0  0  3  0  0  0  0  0  0
  183.1020  179.2270  139.2170 C   0  0  2  0  0  3  0  0  0  0  0  0
  184.5030  178.9540  138.7150 C   0  0  2  0  0  3  0  0  0  0  0  0
  181.1960  180.7900  139.0930 C   0  0  0  0  0  2  0  0  0  0  0  0
  181.5960  180.4320  137.6790 C   0  0  0  0  0  2  0  0  0  0  0  0
  182.6580  180.5970  138.7470 C   0  0  0  0  0  3  0  0  0  0  0  0
  184.6680  177.4480  138.4860 C   0  0  0  0  0  2  0  0  0  0  0  0
  183.8540  176.6800  136.2290 C   0  0  0  0  0  1  0  0  0  0  0  0
  183.0650  175.5150  138.2870 C   0  0  0  0  0  1  0  0  0  0  0  0
  183.5090  176.8410  137.6980 C   0  0  0  0  0  3  0  0  0  0  0  0
  188.1150  178.2580  139.6730 C   0  0  0  0  0  2  0  0  0  0  0  0
  188.2480  177.1230  138.7710 N   0  0  0  0  0  2  0  0  0  0  0  0
  188.6340  177.6320  137.4620 C   0  0  0  0  0  0  0  0  0  0  0  0
  189.3990  176.8080  136.6340 O   0  0  0  0  0  1  0  0  0  0  0  0
  187.7300  178.6460  136.8070 C   0  0  0  0  0  2  0  0  0  0  0  0
  189.0450  179.0810  137.4560 C   0  0  0  0  0  2  0  0  0  0  0  0
  1  5  2  0  0  0  0
  1  4  1  0  0  0  0
  2  6  1  0  0  0  0
  3 10  2  6  0  0  0
  3  2  1  0  0  0  0
  4  7  1  0  0  0  0
  4 11  1  1  0  0  0
  7  6  1  1  0  0  0
  7 11  1  0  0  0  0
  8 13  1  6  0  0  0
  8  1  1  0  0  0  0
  9 25  1  6  0  0  0
  9 12  1  0  0  0  0
  9  3  1  0  0  0  0
 12  8  1  0  0  0  0
 13 14  2  0  0  0  0
 15 13  1  1  0  0  0
 16 20  1  6  0  0  0
 16 15  1  0  0  0  0
 17 21  1  1  0  0  0
 17 16  1  0  0  0  0
 17 15  1  0  0  0  0
 19 20  1  0  0  0  0
 19 18  1  0  0  0  0
 20 18  1  0  0  0  0
 22 24  1  0  0  0  0
 24 23  1  0  0  0  0
 24 21  1  0  0  0  0
 26 25  1  0  0  0  0
 27 26  1  0  0  0  0
 28 27  1  0  0  0  0
 29 30  1  0  0  0  0
 29 27  1  0  0  0  0
 30 27  1  0  0  0  0
M  END
>  <MODEL>
9

>  <REMARK>
 VINA RESULT:      -6.6      2.634      7.172
  Name = 
  8 active torsions:
  status: ('A' for Active; 'I' for Inactive)
    1  A    between atoms: C_1  and  C_4
    2  A    between atoms: C_1  and  C_22
    3  A    between atoms: N_7  and  C_10
    4  A    between atoms: N_7  and  C_25
    5  A    between atoms: C_8  and  C_30
    6  A    between atoms: C_9  and  C_12
    7  A    between atoms: C_9  and  C_21
    8  A    between atoms: C_23  and  C_25
                            x       y       z     vdW  Elec       q    Type
                         _______ _______ _______ _____ _____    ______ ____

>  <TORSDO>
F 8

$$$$
