=
 OpenBabel11052413003D

 31 33  0  0  1  0  0  0  0  0999 V2000
  192.2200  175.3030  143.9210 F   0  0  0  0  0  0  0  0  0  0  0  0
  188.6810  178.0720  144.7640 C   0  0  1  0  0  3  0  0  0  0  0  0
  190.2010  178.2520  144.9460 C   0  0  0  0  0  2  0  0  0  0  0  0
  191.4210  176.4100  143.6990 C   0  0  0  0  0  0  0  0  0  0  0  0
  190.5750  175.5930  141.6610 O   0  0  0  0  0  0  0  0  0  0  0  0
  188.8440  176.1130  143.1530 C   0  0  0  0  0  2  0  0  0  0  0  0
  188.3220  177.5510  143.3360 C   0  0  1  0  0  0  0  0  0  0  0  0
  190.2980  176.0120  142.7740 C   0  0  0  0  0  0  0  0  0  0  0  0
  190.9390  176.9200  145.0540 C   0  0  0  0  0  2  0  0  0  0  0  0
  192.1900  177.3870  143.0890 F   0  0  0  0  0  0  0  0  0  0  0  0
  188.0310  177.2930  145.9420 C   0  0  1  0  0  3  0  0  0  0  0  0
  188.8430  178.0490  148.1140 C   0  0  0  0  0  2  0  0  0  0  0  0
  189.0340  176.9870  147.0530 C   0  0  0  0  0  2  0  0  0  0  0  0
  187.3750  178.3960  148.0680 C   0  0  0  0  0  2  0  0  0  0  0  0
  186.9490  178.1310  146.6310 C   0  0  2  0  0  3  0  0  0  0  0  0
  184.7230  178.6280  146.3090 C   0  0  0  0  0  1  0  0  0  0  0  0
  185.6470  177.5900  146.5220 O   0  0  0  0  0  0  0  0  0  0  0  0
  186.1510  178.5230  143.1870 O   0  0  0  0  0  0  0  0  0  0  0  0
  186.8280  177.5060  143.1530 C   0  0  0  0  0  3  0  0  0  0  0  0
  188.8990  178.4860  142.2460 C   0  0  0  0  0  2  0  0  0  0  0  0
  188.4160  178.1500  140.8380 C   0  0  0  0  0  2  0  0  0  0  0  0
  189.5390  178.3550  139.8270 C   0  0  0  0  0  2  0  0  0  0  0  0
  189.2990  177.6540  138.4720 C   0  0  1  0  0  0  0  0  0  0  0  0
  187.9580  176.9460  138.5860 C   0  0  0  0  0  1  0  0  0  0  0  0
  189.1900  178.5870  137.2340 C   0  0  0  0  0  3  0  0  0  0  0  0
  187.7980  178.6960  136.6330 C   0  0  0  0  0  2  0  0  0  0  0  0
  188.8480  177.8360  135.9560 C   0  0  0  0  0  2  0  0  0  0  0  0
  191.5680  176.9530  138.0770 O   0  0  0  0  0  0  0  0  0  0  0  0
  190.3650  176.6070  138.2390 C   0  0  0  0  0  0  0  0  0  0  0  0
  190.0150  175.2620  138.1260 O   0  0  0  0  0  0  0  0  0  0  0  0
  190.9410  174.3310  137.8590 O   0  0  0  0  0  1  0  0  0  0  0  0
  2  3  1  1  0  0  0
  2 11  1  0  0  0  0
  3  9  1  0  0  0  0
  4  1  1  0  0  0  0
  4  9  1  0  0  0  0
  5  8  2  0  0  0  0
  6  7  1  0  0  0  0
  7 20  1  6  0  0  0
  7  2  1  0  0  0  0
  8  6  1  0  0  0  0
  8  4  1  0  0  0  0
 10  4  1  0  0  0  0
 11 15  1  0  0  0  0
 11 13  1  1  0  0  0
 13 12  1  0  0  0  0
 14 12  1  0  0  0  0
 15 17  1  1  0  0  0
 15 14  1  0  0  0  0
 16 17  1  0  0  0  0
 19 18  2  0  0  0  0
 19  7  1  0  0  0  0
 21 20  1  0  0  0  0
 22 21  1  0  0  0  0
 23 24  1  1  0  0  0
 23 22  1  0  0  0  0
 25 23  1  0  0  0  0
 26 25  1  0  0  0  0
 27 26  1  0  0  0  0
 27 25  1  0  0  0  0
 28 29  2  0  0  0  0
 29 23  1  0  0  0  0
 30 29  1  0  0  0  0
 31 30  1  0  0  0  0
M  END
>  <MODEL>
1

>  <REMARK>
 VINA RESULT:      -8.2      0.000      0.000
  Name = 
  10 active torsions:
  status: ('A' for Active; 'I' for Inactive)
    1  A    between atoms: O_1  and  C_19
    2  A    between atoms: C_3  and  C_22
    3  A    between atoms: C_4  and  C_5
    4  A    between atoms: C_9  and  C_22
    5  A    between atoms: C_9  and  C_23
    6  A    between atoms: C_15  and  C_21
    7  A    between atoms: C_15  and  C_23
    8  A    between atoms: C_19  and  C_22
    9  A    between atoms: C_21  and  C_29
   10  A    between atoms: C_30  and  O_31
                            x       y       z     vdW  Elec       q    Type
                         _______ _______ _______ _____ _____    ______ ____

>  <TORSDO>
F 10

$$$$
=
 OpenBabel11052413003D

 31 33  0  0  1  0  0  0  0  0999 V2000
  192.2460  175.4800  143.8160 F   0  0  0  0  0  0  0  0  0  0  0  0
  188.6070  178.0800  144.7600 C   0  0  1  0  0  3  0  0  0  0  0  0
  190.1210  178.3490  144.8530 C   0  0  0  0  0  2  0  0  0  0  0  0
  191.3750  176.5330  143.6020 C   0  0  0  0  0  0  0  0  0  0  0  0
  190.4690  175.5980  141.6410 O   0  0  0  0  0  0  0  0  0  0  0  0
  188.7940  176.0760  143.2080 C   0  0  0  0  0  2  0  0  0  0  0  0
  188.2020  177.4900  143.3720 C   0  0  1  0  0  0  0  0  0  0  0  0
  190.2290  176.0410  142.7530 C   0  0  0  0  0  0  0  0  0  0  0  0
  190.9380  177.0640  144.9640 C   0  0  0  0  0  2  0  0  0  0  0  0
  192.0550  177.5280  142.9190 F   0  0  0  0  0  0  0  0  0  0  0  0
  188.0650  177.3100  145.9970 C   0  0  1  0  0  3  0  0  0  0  0  0
  189.0500  178.0980  148.0850 C   0  0  0  0  0  2  0  0  0  0  0  0
  189.1610  177.0250  147.0230 C   0  0  0  0  0  2  0  0  0  0  0  0
  187.5790  178.4330  148.1590 C   0  0  0  0  0  2  0  0  0  0  0  0
  187.0370  178.1470  146.7650 C   0  0  2  0  0  3  0  0  0  0  0  0
  184.7980  178.5970  146.4670 C   0  0  0  0  0  1  0  0  0  0  0  0
  185.7350  177.5940  146.7720 O   0  0  0  0  0  0  0  0  0  0  0  0
  185.9760  178.3370  143.3020 O   0  0  0  0  0  0  0  0  0  0  0  0
  186.7050  177.3570  143.2730 C   0  0  0  0  0  3  0  0  0  0  0  0
  188.6670  178.4150  142.2220 C   0  0  0  0  0  2  0  0  0  0  0  0
  188.0650  178.0520  140.8680 C   0  0  0  0  0  2  0  0  0  0  0  0
  188.8580  178.7050  139.7400 C   0  0  0  0  0  2  0  0  0  0  0  0
  188.6650  178.0300  138.3650 C   0  0  1  0  0  0  0  0  0  0  0  0
  189.2250  178.9940  137.3310 C   0  0  0  0  0  1  0  0  0  0  0  0
  189.4170  176.6870  138.1550 C   0  0  0  0  0  3  0  0  0  0  0  0
  190.9150  176.7440  138.4040 C   0  0  0  0  0  2  0  0  0  0  0  0
  190.3860  176.7290  136.9830 C   0  0  0  0  0  2  0  0  0  0  0  0
  186.7390  176.7060  137.7860 O   0  0  0  0  0  0  0  0  0  0  0  0
  187.1900  177.8470  138.0850 C   0  0  0  0  0  0  0  0  0  0  0  0
  186.3330  178.9470  138.0820 O   0  0  0  0  0  0  0  0  0  0  0  0
  185.2850  179.0040  138.9140 O   0  0  0  0  0  1  0  0  0  0  0  0
  2  3  1  1  0  0  0
  2 11  1  0  0  0  0
  3  9  1  0  0  0  0
  4  1  1  0  0  0  0
  4  9  1  0  0  0  0
  5  8  2  0  0  0  0
  6  7  1  0  0  0  0
  7 20  1  6  0  0  0
  7  2  1  0  0  0  0
  8  6  1  0  0  0  0
  8  4  1  0  0  0  0
 10  4  1  0  0  0  0
 11 15  1  0  0  0  0
 11 13  1  1  0  0  0
 12 14  1  0  0  0  0
 13 12  1  0  0  0  0
 15 17  1  1  0  0  0
 15 14  1  0  0  0  0
 16 17  1  0  0  0  0
 19 18  2  0  0  0  0
 19  7  1  0  0  0  0
 21 20  1  0  0  0  0
 22 21  1  0  0  0  0
 23 24  1  6  0  0  0
 23 22  1  0  0  0  0
 25 23  1  0  0  0  0
 25 26  1  0  0  0  0
 27 25  1  0  0  0  0
 27 26  1  0  0  0  0
 28 29  2  0  0  0  0
 29 23  1  0  0  0  0
 30 29  1  0  0  0  0
 30 31  1  0  0  0  0
M  END
>  <MODEL>
2

>  <REMARK>
 VINA RESULT:      -8.1      1.449      2.217
  Name = 
  10 active torsions:
  status: ('A' for Active; 'I' for Inactive)
    1  A    between atoms: O_1  and  C_19
    2  A    between atoms: C_3  and  C_22
    3  A    between atoms: C_4  and  C_5
    4  A    between atoms: C_9  and  C_22
    5  A    between atoms: C_9  and  C_23
    6  A    between atoms: C_15  and  C_21
    7  A    between atoms: C_15  and  C_23
    8  A    between atoms: C_19  and  C_22
    9  A    between atoms: C_21  and  C_29
   10  A    between atoms: C_30  and  O_31
                            x       y       z     vdW  Elec       q    Type
                         _______ _______ _______ _____ _____    ______ ____

>  <TORSDO>
F 10

$$$$
=
 OpenBabel11052413003D

 31 33  0  0  1  0  0  0  0  0999 V2000
  192.7180  178.5050  143.9420 F   0  0  0  0  0  0  0  0  0  0  0  0
  189.5200  176.7740  141.1710 C   0  0  1  0  0  3  0  0  0  0  0  0
  190.7250  176.1320  141.8860 C   0  0  0  0  0  2  0  0  0  0  0  0
  191.6080  177.7340  143.6440 C   0  0  0  0  0  0  0  0  0  0  0  0
  190.1270  179.1110  144.8490 O   0  0  0  0  0  0  0  0  0  0  0  0
  189.4340  178.8570  142.6250 C   0  0  0  0  0  2  0  0  0  0  0  0
  188.6450  177.6220  142.1470 C   0  0  1  0  0  0  0  0  0  0  0  0
  190.3780  178.5990  143.7690 C   0  0  0  0  0  0  0  0  0  0  0  0
  191.8020  177.1520  142.2470 C   0  0  0  0  0  2  0  0  0  0  0  0
  191.5360  176.7020  144.5640 F   0  0  0  0  0  0  0  0  0  0  0  0
  189.9260  177.4840  139.8480 C   0  0  1  0  0  3  0  0  0  0  0  0
  190.7600  175.9200  138.1730 C   0  0  0  0  0  2  0  0  0  0  0  0
  191.1990  176.8940  139.2450 C   0  0  0  0  0  2  0  0  0  0  0  0
  189.4810  176.4960  137.6140 C   0  0  0  0  0  2  0  0  0  0  0  0
  188.8640  177.2830  138.7620 C   0  0  2  0  0  3  0  0  0  0  0  0
  188.8610  178.9650  137.1890 C   0  0  0  0  0  1  0  0  0  0  0  0
  188.2320  178.4780  138.3480 O   0  0  0  0  0  0  0  0  0  0  0  0
  187.2210  179.3240  141.2780 O   0  0  0  0  0  0  0  0  0  0  0  0
  187.4130  178.1290  141.4430 C   0  0  0  0  0  3  0  0  0  0  0  0
  188.1780  176.7700  143.3520 C   0  0  0  0  0  2  0  0  0  0  0  0
  186.8010  177.1630  143.8780 C   0  0  0  0  0  2  0  0  0  0  0  0
  186.9030  178.3960  144.7710 C   0  0  0  0  0  2  0  0  0  0  0  0
  186.7520  178.0940  146.2770 C   0  0  1  0  0  0  0  0  0  0  0  0
  186.3400  176.6340  146.3830 C   0  0  0  0  0  1  0  0  0  0  0  0
  188.0400  178.2420  147.1340 C   0  0  0  0  0  3  0  0  0  0  0  0
  188.9030  176.9940  147.2170 C   0  0  0  0  0  2  0  0  0  0  0  0
  188.0200  177.3810  148.3870 C   0  0  0  0  0  2  0  0  0  0  0  0
  185.9180  179.9230  147.6010 O   0  0  0  0  0  0  0  0  0  0  0  0
  185.6420  178.9380  146.8620 C   0  0  0  0  0  0  0  0  0  0  0  0
  184.3080  178.5900  146.6490 O   0  0  0  0  0  0  0  0  0  0  0  0
  183.6170  179.1070  145.6240 O   0  0  0  0  0  1  0  0  0  0  0  0
  2  3  1  1  0  0  0
  2  7  1  0  0  0  0
  3  9  1  0  0  0  0
  4  8  1  0  0  0  0
  4  1  1  0  0  0  0
  4 10  1  0  0  0  0
  6  8  1  0  0  0  0
  7 19  1  6  0  0  0
  7  6  1  0  0  0  0
  7 20  1  0  0  0  0
  8  5  2  0  0  0  0
  9  4  1  0  0  0  0
 11 13  1  6  0  0  0
 11  2  1  0  0  0  0
 12 13  1  0  0  0  0
 14 12  1  0  0  0  0
 14 15  1  0  0  0  0
 15 17  1  6  0  0  0
 15 11  1  0  0  0  0
 16 17  1  0  0  0  0
 18 19  2  0  0  0  0
 20 21  1  0  0  0  0
 21 22  1  0  0  0  0
 22 23  1  0  0  0  0
 23 24  1  1  0  0  0
 23 29  1  0  0  0  0
 23 25  1  0  0  0  0
 25 26  1  0  0  0  0
 25 27  1  0  0  0  0
 26 27  1  0  0  0  0
 29 28  2  0  0  0  0
 30 29  1  0  0  0  0
 31 30  1  0  0  0  0
M  END
>  <MODEL>
3

>  <REMARK>
 VINA RESULT:      -6.7      1.939      7.431
  Name = 
  10 active torsions:
  status: ('A' for Active; 'I' for Inactive)
    1  A    between atoms: O_1  and  C_19
    2  A    between atoms: C_3  and  C_22
    3  A    between atoms: C_4  and  C_5
    4  A    between atoms: C_9  and  C_22
    5  A    between atoms: C_9  and  C_23
    6  A    between atoms: C_15  and  C_21
    7  A    between atoms: C_15  and  C_23
    8  A    between atoms: C_19  and  C_22
    9  A    between atoms: C_21  and  C_29
   10  A    between atoms: C_30  and  O_31
                            x       y       z     vdW  Elec       q    Type
                         _______ _______ _______ _____ _____    ______ ____

>  <TORSDO>
F 10

$$$$
=
 OpenBabel11052413003D

 31 33  0  0  1  0  0  0  0  0999 V2000
  192.2610  178.1220  144.9230 F   0  0  0  0  0  0  0  0  0  0  0  0
  189.7580  176.8260  141.3240 C   0  0  1  0  0  3  0  0  0  0  0  0
  190.7960  176.0790  142.1840 C   0  0  0  0  0  2  0  0  0  0  0  0
  191.2550  177.4120  144.2930 C   0  0  0  0  0  0  0  0  0  0  0  0
  189.5260  178.6230  145.3330 O   0  0  0  0  0  0  0  0  0  0  0  0
  189.3250  178.6880  142.9980 C   0  0  0  0  0  2  0  0  0  0  0  0
  188.6800  177.5390  142.1980 C   0  0  1  0  0  0  0  0  0  0  0  0
  190.0100  178.2630  144.2710 C   0  0  0  0  0  0  0  0  0  0  0  0
  191.7520  177.0270  142.9030 C   0  0  0  0  0  2  0  0  0  0  0  0
  191.0090  176.2620  145.0250 F   0  0  0  0  0  0  0  0  0  0  0  0
  190.4220  177.7090  140.2290 C   0  0  1  0  0  3  0  0  0  0  0  0
  191.5720  176.3810  138.5370 C   0  0  0  0  0  2  0  0  0  0  0  0
  191.7890  177.1730  139.8080 C   0  0  0  0  0  2  0  0  0  0  0  0
  190.4320  177.0720  137.8280 C   0  0  0  0  0  2  0  0  0  0  0  0
  189.5990  177.7010  138.9360 C   0  0  2  0  0  3  0  0  0  0  0  0
  188.9020  179.0360  137.1940 C   0  0  0  0  0  1  0  0  0  0  0  0
  189.0640  178.9630  138.5880 O   0  0  0  0  0  0  0  0  0  0  0  0
  187.4140  179.3580  141.3190 O   0  0  0  0  0  0  0  0  0  0  0  0
  187.6160  178.1520  141.3250 C   0  0  0  0  0  3  0  0  0  0  0  0
  187.9840  176.5340  143.1470 C   0  0  0  0  0  2  0  0  0  0  0  0
  186.5400  176.9030  143.4740 C   0  0  0  0  0  2  0  0  0  0  0  0
  186.4230  177.3630  144.9240 C   0  0  0  0  0  2  0  0  0  0  0  0
  185.3470  178.4450  145.1530 C   0  0  1  0  0  0  0  0  0  0  0  0
  185.8890  179.7270  144.5420 C   0  0  0  0  0  1  0  0  0  0  0  0
  183.9720  178.1920  144.4750 C   0  0  0  0  0  3  0  0  0  0  0  0
  183.8140  178.8080  143.0940 C   0  0  0  0  0  2  0  0  0  0  0  0
  183.1580  179.4640  144.2940 C   0  0  0  0  0  2  0  0  0  0  0  0
  184.1990  178.1220  147.2450 O   0  0  0  0  0  0  0  0  0  0  0  0
  185.1570  178.6750  146.6360 C   0  0  0  0  0  0  0  0  0  0  0  0
  185.9920  179.5550  147.3230 O   0  0  0  0  0  0  0  0  0  0  0  0
  187.0760  179.1090  147.9730 O   0  0  0  0  0  1  0  0  0  0  0  0
  2  3  1  1  0  0  0
  2  7  1  0  0  0  0
  3  9  1  0  0  0  0
  4  1  1  0  0  0  0
  4 10  1  0  0  0  0
  6  8  1  0  0  0  0
  7 19  1  6  0  0  0
  7  6  1  0  0  0  0
  7 20  1  0  0  0  0
  8  4  1  0  0  0  0
  8  5  2  0  0  0  0
  9  4  1  0  0  0  0
 11 13  1  6  0  0  0
 11  2  1  0  0  0  0
 12 13  1  0  0  0  0
 14 12  1  0  0  0  0
 14 15  1  0  0  0  0
 15 17  1  6  0  0  0
 15 11  1  0  0  0  0
 16 17  1  0  0  0  0
 18 19  2  0  0  0  0
 20 21  1  0  0  0  0
 21 22  1  0  0  0  0
 22 23  1  0  0  0  0
 23 24  1  6  0  0  0
 23 29  1  0  0  0  0
 25 23  1  0  0  0  0
 26 27  1  0  0  0  0
 26 25  1  0  0  0  0
 27 25  1  0  0  0  0
 29 28  2  0  0  0  0
 29 30  1  0  0  0  0
 30 31  1  0  0  0  0
M  END
>  <MODEL>
4

>  <REMARK>
 VINA RESULT:      -6.7      2.206      7.104
  Name = 
  10 active torsions:
  status: ('A' for Active; 'I' for Inactive)
    1  A    between atoms: O_1  and  C_19
    2  A    between atoms: C_3  and  C_22
    3  A    between atoms: C_4  and  C_5
    4  A    between atoms: C_9  and  C_22
    5  A    between atoms: C_9  and  C_23
    6  A    between atoms: C_15  and  C_21
    7  A    between atoms: C_15  and  C_23
    8  A    between atoms: C_19  and  C_22
    9  A    between atoms: C_21  and  C_29
   10  A    between atoms: C_30  and  O_31
                            x       y       z     vdW  Elec       q    Type
                         _______ _______ _______ _____ _____    ______ ____

>  <TORSDO>
F 10

$$$$
=
 OpenBabel11052413003D

 31 33  0  0  1  0  0  0  0  0999 V2000
  184.8150  177.7810  142.7840 F   0  0  0  0  0  0  0  0  0  0  0  0
  189.0760  178.0390  141.1490 C   0  0  1  0  0  3  0  0  0  0  0  0
  187.9500  179.0850  141.2680 C   0  0  0  0  0  2  0  0  0  0  0  0
  186.1350  178.1930  142.8010 C   0  0  0  0  0  0  0  0  0  0  0  0
  186.6970  176.8580  144.6570 O   0  0  0  0  0  0  0  0  0  0  0  0
  188.0930  176.4060  142.8290 C   0  0  0  0  0  2  0  0  0  0  0  0
  189.3150  177.2820  142.4930 C   0  0  1  0  0  0  0  0  0  0  0  0
  186.9570  177.1350  143.4960 C   0  0  0  0  0  0  0  0  0  0  0  0
  186.5660  178.4460  141.3590 C   0  0  0  0  0  2  0  0  0  0  0  0
  186.2140  179.3760  143.5170 F   0  0  0  0  0  0  0  0  0  0  0  0
  188.9160  177.1370  139.8930 C   0  0  1  0  0  3  0  0  0  0  0  0
  188.8140  178.4300  137.8280 C   0  0  0  0  0  2  0  0  0  0  0  0
  187.9570  177.7410  138.8680 C   0  0  0  0  0  2  0  0  0  0  0  0
  190.0800  177.6120  137.7520 C   0  0  0  0  0  2  0  0  0  0  0  0
  190.2400  176.9990  139.1360 C   0  0  2  0  0  3  0  0  0  0  0  0
  191.3250  175.4250  137.8520 C   0  0  0  0  0  1  0  0  0  0  0  0
  190.7530  175.6810  139.1100 O   0  0  0  0  0  0  0  0  0  0  0  0
  190.4450  175.1990  142.7490 O   0  0  0  0  0  0  0  0  0  0  0  0
  190.5010  176.3610  142.3740 C   0  0  0  0  0  3  0  0  0  0  0  0
  189.6090  178.2760  143.6420 C   0  0  0  0  0  2  0  0  0  0  0  0
  190.1440  177.6070  144.9050 C   0  0  0  0  0  2  0  0  0  0  0  0
  189.7980  178.4390  146.1360 C   0  0  0  0  0  2  0  0  0  0  0  0
  189.7330  177.6240  147.4450 C   0  0  1  0  0  0  0  0  0  0  0  0
  190.1070  178.5810  148.5660 C   0  0  0  0  0  1  0  0  0  0  0  0
  188.3390  177.0460  147.8190 C   0  0  0  0  0  3  0  0  0  0  0  0
  187.1760  178.0080  147.6380 C   0  0  0  0  0  2  0  0  0  0  0  0
  187.7190  177.7310  149.0260 C   0  0  0  0  0  2  0  0  0  0  0  0
  190.3890  175.3090  147.3720 O   0  0  0  0  0  0  0  0  0  0  0  0
  190.7600  176.5150  147.4120 C   0  0  0  0  0  0  0  0  0  0  0  0
  192.1200  176.8140  147.5010 O   0  0  0  0  0  0  0  0  0  0  0  0
  192.9000  176.2030  148.4040 O   0  0  0  0  0  1  0  0  0  0  0  0
  1  4  1  0  0  0  0
  2  3  1  1  0  0  0
  2  7  1  0  0  0  0
  3  9  1  0  0  0  0
  4  8  1  0  0  0  0
  4 10  1  0  0  0  0
  6  8  1  0  0  0  0
  7 19  1  6  0  0  0
  7  6  1  0  0  0  0
  7 20  1  0  0  0  0
  8  5  2  0  0  0  0
  9  4  1  0  0  0  0
 11 13  1  6  0  0  0
 11  2  1  0  0  0  0
 12 13  1  0  0  0  0
 14 12  1  0  0  0  0
 14 15  1  0  0  0  0
 15 17  1  6  0  0  0
 15 11  1  0  0  0  0
 16 17  1  0  0  0  0
 19 18  2  0  0  0  0
 20 21  1  0  0  0  0
 21 22  1  0  0  0  0
 22 23  1  0  0  0  0
 23 25  1  0  0  0  0
 23 24  1  1  0  0  0
 25 27  1  0  0  0  0
 26 25  1  0  0  0  0
 26 27  1  0  0  0  0
 28 29  2  0  0  0  0
 29 23  1  0  0  0  0
 29 30  1  0  0  0  0
 30 31  1  0  0  0  0
M  END
>  <MODEL>
5

>  <REMARK>
 VINA RESULT:      -6.6      2.846      7.910
  Name = 
  10 active torsions:
  status: ('A' for Active; 'I' for Inactive)
    1  A    between atoms: O_1  and  C_19
    2  A    between atoms: C_3  and  C_22
    3  A    between atoms: C_4  and  C_5
    4  A    between atoms: C_9  and  C_22
    5  A    between atoms: C_9  and  C_23
    6  A    between atoms: C_15  and  C_21
    7  A    between atoms: C_15  and  C_23
    8  A    between atoms: C_19  and  C_22
    9  A    between atoms: C_21  and  C_29
   10  A    between atoms: C_30  and  O_31
                            x       y       z     vdW  Elec       q    Type
                         _______ _______ _______ _____ _____    ______ ____

>  <TORSDO>
F 10

$$$$
=
 OpenBabel11052413003D

 31 33  0  0  1  0  0  0  0  0999 V2000
  185.0960  179.5370  143.0910 F   0  0  0  0  0  0  0  0  0  0  0  0
  188.7330  176.9850  144.1650 C   0  0  1  0  0  3  0  0  0  0  0  0
  187.2200  176.6920  144.1940 C   0  0  0  0  0  2  0  0  0  0  0  0
  185.9910  178.4990  142.9060 C   0  0  0  0  0  0  0  0  0  0  0  0
  186.9620  179.4620  140.9900 O   0  0  0  0  0  0  0  0  0  0  0  0
  188.5790  178.9970  142.6220 C   0  0  0  0  0  2  0  0  0  0  0  0
  189.1850  177.5910  142.8000 C   0  0  1  0  0  0  0  0  0  0  0  0
  187.1630  179.0150  142.1080 C   0  0  0  0  0  0  0  0  0  0  0  0
  186.3800  177.9640  144.2800 C   0  0  0  0  0  2  0  0  0  0  0  0
  185.3550  177.4990  142.1890 F   0  0  0  0  0  0  0  0  0  0  0  0
  189.2120  177.7530  145.4300 C   0  0  1  0  0  3  0  0  0  0  0  0
  187.8860  177.2110  147.4030 C   0  0  0  0  0  2  0  0  0  0  0  0
  188.0430  178.2270  146.2920 C   0  0  0  0  0  2  0  0  0  0  0  0
  189.2820  176.7060  147.6800 C   0  0  0  0  0  2  0  0  0  0  0  0
  190.0230  176.8440  146.3580 C   0  0  2  0  0  3  0  0  0  0  0  0
  192.0560  176.2790  147.2820 C   0  0  0  0  0  1  0  0  0  0  0  0
  191.3740  177.2350  146.5100 O   0  0  0  0  0  0  0  0  0  0  0  0
  191.4260  176.8300  143.0750 O   0  0  0  0  0  0  0  0  0  0  0  0
  190.6830  177.7480  142.7630 C   0  0  0  0  0  3  0  0  0  0  0  0
  188.7820  176.6690  141.6250 C   0  0  0  0  0  2  0  0  0  0  0  0
  189.5230  176.9760  140.3270 C   0  0  0  0  0  2  0  0  0  0  0  0
  188.5330  177.1810  139.1850 C   0  0  0  0  0  2  0  0  0  0  0  0
  189.0750  176.7620  137.8010 C   0  0  1  0  0  0  0  0  0  0  0  0
  188.1690  175.6470  137.3040 C   0  0  0  0  0  1  0  0  0  0  0  0
  189.0530  177.8590  136.7010 C   0  0  0  0  0  3  0  0  0  0  0  0
  189.0550  179.2880  137.2180 C   0  0  0  0  0  2  0  0  0  0  0  0
  187.7680  178.6730  136.7020 C   0  0  0  0  0  2  0  0  0  0  0  0
  191.4750  176.9380  137.7270 O   0  0  0  0  0  0  0  0  0  0  0  0
  190.4730  176.2020  137.9460 C   0  0  0  0  0  0  0  0  0  0  0  0
  190.6620  174.8540  138.2470 O   0  0  0  0  0  0  0  0  0  0  0  0
  191.5780  174.1260  137.5940 O   0  0  0  0  0  1  0  0  0  0  0  0
  2  3  1  6  0  0  0
  2 11  1  0  0  0  0
  3  9  1  0  0  0  0
  4  1  1  0  0  0  0
  4  9  1  0  0  0  0
  5  8  2  0  0  0  0
  6  7  1  0  0  0  0
  7 20  1  6  0  0  0
  7  2  1  0  0  0  0
  8  6  1  0  0  0  0
  8  4  1  0  0  0  0
 10  4  1  0  0  0  0
 11 13  1  1  0  0  0
 11 15  1  0  0  0  0
 12 14  1  0  0  0  0
 13 12  1  0  0  0  0
 15 17  1  1  0  0  0
 15 14  1  0  0  0  0
 17 16  1  0  0  0  0
 19  7  1  0  0  0  0
 19 18  2  0  0  0  0
 21 20  1  0  0  0  0
 22 21  1  0  0  0  0
 23 24  1  6  0  0  0
 23 29  1  0  0  0  0
 23 22  1  0  0  0  0
 25 27  1  0  0  0  0
 25 26  1  0  0  0  0
 25 23  1  0  0  0  0
 27 26  1  0  0  0  0
 28 29  2  0  0  0  0
 29 30  1  0  0  0  0
 31 30  1  0  0  0  0
M  END
>  <MODEL>
6

>  <REMARK>
 VINA RESULT:      -6.3      2.451      3.723
  Name = 
  10 active torsions:
  status: ('A' for Active; 'I' for Inactive)
    1  A    between atoms: O_1  and  C_19
    2  A    between atoms: C_3  and  C_22
    3  A    between atoms: C_4  and  C_5
    4  A    between atoms: C_9  and  C_22
    5  A    between atoms: C_9  and  C_23
    6  A    between atoms: C_15  and  C_21
    7  A    between atoms: C_15  and  C_23
    8  A    between atoms: C_19  and  C_22
    9  A    between atoms: C_21  and  C_29
   10  A    between atoms: C_30  and  O_31
                            x       y       z     vdW  Elec       q    Type
                         _______ _______ _______ _____ _____    ______ ____

>  <TORSDO>
F 10

$$$$
=
 OpenBabel11052413003D

 31 33  0  0  1  0  0  0  0  0999 V2000
  185.7470  179.8620  146.6140 F   0  0  0  0  0  0  0  0  0  0  0  0
  186.7540  177.5190  142.8200 C   0  0  1  0  0  3  0  0  0  0  0  0
  186.5670  177.0810  144.2860 C   0  0  0  0  0  2  0  0  0  0  0  0
  185.4840  178.9660  145.5930 C   0  0  0  0  0  0  0  0  0  0  0  0
  183.8800  180.3530  144.5710 O   0  0  0  0  0  0  0  0  0  0  0  0
  185.5730  179.7560  143.0640 C   0  0  0  0  0  2  0  0  0  0  0  0
  185.5710  178.4060  142.3200 C   0  0  1  0  0  0  0  0  0  0  0  0
  184.9190  179.7300  144.4210 C   0  0  0  0  0  0  0  0  0  0  0  0
  186.7800  178.2290  145.2700 C   0  0  0  0  0  2  0  0  0  0  0  0
  184.5400  178.0580  146.0430 F   0  0  0  0  0  0  0  0  0  0  0  0
  188.1760  178.0860  142.5470 C   0  0  1  0  0  3  0  0  0  0  0  0
  189.9330  176.4850  143.0920 C   0  0  0  0  0  2  0  0  0  0  0  0
  189.1750  177.6790  143.6300 C   0  0  0  0  0  2  0  0  0  0  0  0
  190.0050  176.7000  141.5990 C   0  0  0  0  0  2  0  0  0  0  0  0
  188.7640  177.5120  141.2550 C   0  0  2  0  0  3  0  0  0  0  0  0
  189.6530  177.8780  139.1620 C   0  0  0  0  0  1  0  0  0  0  0  0
  188.9880  178.4770  140.2460 O   0  0  0  0  0  0  0  0  0  0  0  0
  185.3060  179.7530  140.3710 O   0  0  0  0  0  0  0  0  0  0  0  0
  185.7250  178.7110  140.8530 C   0  0  0  0  0  3  0  0  0  0  0  0
  184.2180  177.6790  142.5080 C   0  0  0  0  0  2  0  0  0  0  0  0
  183.1700  178.0650  141.4680 C   0  0  0  0  0  2  0  0  0  0  0  0
  182.1330  179.0030  142.0780 C   0  0  0  0  0  2  0  0  0  0  0  0
  180.7100  178.8220  141.5070 C   0  0  1  0  0  0  0  0  0  0  0  0
  180.7450  177.5610  140.6580 C   0  0  0  0  0  1  0  0  0  0  0  0
  179.5800  178.6080  142.5510 C   0  0  0  0  0  3  0  0  0  0  0  0
  179.7610  179.3640  143.8570 C   0  0  0  0  0  2  0  0  0  0  0  0
  180.0550  177.8780  143.7970 C   0  0  0  0  0  2  0  0  0  0  0  0
  179.7190  180.9700  141.0580 O   0  0  0  0  0  0  0  0  0  0  0  0
  180.3680  179.9860  140.6040 C   0  0  0  0  0  0  0  0  0  0  0  0
  180.6990  179.9460  139.2500 O   0  0  0  0  0  0  0  0  0  0  0  0
  181.8460  180.4780  138.8070 O   0  0  0  0  0  1  0  0  0  0  0  0
  2  3  1  1  0  0  0
  3  9  1  0  0  0  0
  4 10  1  0  0  0  0
  4  1  1  0  0  0  0
  6  8  1  0  0  0  0
  7 19  1  6  0  0  0
  7 20  1  0  0  0  0
  7  2  1  0  0  0  0
  7  6  1  0  0  0  0
  8  5  2  0  0  0  0
  8  4  1  0  0  0  0
  9  4  1  0  0  0  0
 11  2  1  0  0  0  0
 11 13  1  1  0  0  0
 12 13  1  0  0  0  0
 14 12  1  0  0  0  0
 15 17  1  6  0  0  0
 15 14  1  0  0  0  0
 15 11  1  0  0  0  0
 16 17  1  0  0  0  0
 18 19  2  0  0  0  0
 21 22  1  0  0  0  0
 21 20  1  0  0  0  0
 23 24  1  6  0  0  0
 23 22  1  0  0  0  0
 23 25  1  0  0  0  0
 25 27  1  0  0  0  0
 25 26  1  0  0  0  0
 27 26  1  0  0  0  0
 29 28  2  0  0  0  0
 29 23  1  0  0  0  0
 30 29  1  0  0  0  0
 31 30  1  0  0  0  0
M  END
>  <MODEL>
7

>  <REMARK>
 VINA RESULT:      -6.3      4.468      7.630
  Name = 
  10 active torsions:
  status: ('A' for Active; 'I' for Inactive)
    1  A    between atoms: O_1  and  C_19
    2  A    between atoms: C_3  and  C_22
    3  A    between atoms: C_4  and  C_5
    4  A    between atoms: C_9  and  C_22
    5  A    between atoms: C_9  and  C_23
    6  A    between atoms: C_15  and  C_21
    7  A    between atoms: C_15  and  C_23
    8  A    between atoms: C_19  and  C_22
    9  A    between atoms: C_21  and  C_29
   10  A    between atoms: C_30  and  O_31
                            x       y       z     vdW  Elec       q    Type
                         _______ _______ _______ _____ _____    ______ ____

>  <TORSDO>
F 10

$$$$
=
 OpenBabel11052413003D

 31 33  0  0  1  0  0  0  0  0999 V2000
  185.6590  179.8750  146.4110 F   0  0  0  0  0  0  0  0  0  0  0  0
  186.6950  177.5110  142.6380 C   0  0  1  0  0  3  0  0  0  0  0  0
  186.4700  177.0780  144.1000 C   0  0  0  0  0  2  0  0  0  0  0  0
  185.3980  178.9850  145.3850 C   0  0  0  0  0  0  0  0  0  0  0  0
  183.8440  180.4030  144.3310 O   0  0  0  0  0  0  0  0  0  0  0  0
  185.5550  179.7710  142.8590 C   0  0  0  0  0  2  0  0  0  0  0  0
  185.5400  178.4220  142.1140 C   0  0  1  0  0  0  0  0  0  0  0  0
  184.8730  179.7590  144.2020 C   0  0  0  0  0  0  0  0  0  0  0  0
  186.6850  178.2210  145.0890 C   0  0  0  0  0  2  0  0  0  0  0  0
  184.4270  178.0960  145.8160 F   0  0  0  0  0  0  0  0  0  0  0  0
  188.1340  178.0490  142.3950 C   0  0  1  0  0  3  0  0  0  0  0  0
  189.8460  176.4010  142.9430 C   0  0  0  0  0  2  0  0  0  0  0  0
  189.1060  177.6050  143.4860 C   0  0  0  0  0  2  0  0  0  0  0  0
  189.9450  176.6340  141.4540 C   0  0  0  0  0  2  0  0  0  0  0  0
  188.7280  177.4790  141.1030 C   0  0  2  0  0  3  0  0  0  0  0  0
  189.7580  177.8810  139.0830 C   0  0  0  0  0  1  0  0  0  0  0  0
  188.9880  178.4530  140.1110 O   0  0  0  0  0  0  0  0  0  0  0  0
  185.3030  179.7530  140.1520 O   0  0  0  0  0  0  0  0  0  0  0  0
  185.7300  178.7220  140.6510 C   0  0  0  0  0  3  0  0  0  0  0  0
  184.1690  177.7230  142.2740 C   0  0  0  0  0  2  0  0  0  0  0  0
  183.2900  177.8130  141.0300 C   0  0  0  0  0  2  0  0  0  0  0  0
  181.9490  178.4550  141.3710 C   0  0  0  0  0  2  0  0  0  0  0  0
  181.0730  178.7690  140.1390 C   0  0  1  0  0  0  0  0  0  0  0  0
  182.0040  178.7600  138.9370 C   0  0  0  0  0  1  0  0  0  0  0  0
  179.9500  177.7430  139.8230 C   0  0  0  0  0  3  0  0  0  0  0  0
  179.4520  176.9470  141.0190 C   0  0  0  0  0  2  0  0  0  0  0  0
  180.3930  176.3010  140.0200 C   0  0  0  0  0  2  0  0  0  0  0  0
  180.8400  181.0710  139.4720 O   0  0  0  0  0  0  0  0  0  0  0  0
  180.4850  180.1570  140.2670 C   0  0  0  0  0  0  0  0  0  0  0  0
  179.6060  180.4540  141.3080 O   0  0  0  0  0  0  0  0  0  0  0  0
  180.0630  180.8780  142.4940 O   0  0  0  0  0  1  0  0  0  0  0  0
  2  3  1  1  0  0  0
  3  9  1  0  0  0  0
  4 10  1  0  0  0  0
  4  1  1  0  0  0  0
  6  8  1  0  0  0  0
  7 19  1  6  0  0  0
  7 20  1  0  0  0  0
  7  2  1  0  0  0  0
  7  6  1  0  0  0  0
  8  5  2  0  0  0  0
  8  4  1  0  0  0  0
  9  4  1  0  0  0  0
 11  2  1  0  0  0  0
 11 13  1  1  0  0  0
 12 13  1  0  0  0  0
 14 12  1  0  0  0  0
 15 17  1  6  0  0  0
 15 14  1  0  0  0  0
 15 11  1  0  0  0  0
 16 17  1  0  0  0  0
 18 19  2  0  0  0  0
 21 22  1  0  0  0  0
 21 20  1  0  0  0  0
 23 24  1  6  0  0  0
 23 29  1  0  0  0  0
 23 22  1  0  0  0  0
 25 27  1  0  0  0  0
 25 23  1  0  0  0  0
 25 26  1  0  0  0  0
 27 26  1  0  0  0  0
 28 29  2  0  0  0  0
 29 30  1  0  0  0  0
 30 31  1  0  0  0  0
M  END
>  <MODEL>
8

>  <REMARK>
 VINA RESULT:      -6.2      4.751      7.516
  Name = 
  10 active torsions:
  status: ('A' for Active; 'I' for Inactive)
    1  A    between atoms: O_1  and  C_19
    2  A    between atoms: C_3  and  C_22
    3  A    between atoms: C_4  and  C_5
    4  A    between atoms: C_9  and  C_22
    5  A    between atoms: C_9  and  C_23
    6  A    between atoms: C_15  and  C_21
    7  A    between atoms: C_15  and  C_23
    8  A    between atoms: C_19  and  C_22
    9  A    between atoms: C_21  and  C_29
   10  A    between atoms: C_30  and  O_31
                            x       y       z     vdW  Elec       q    Type
                         _______ _______ _______ _____ _____    ______ ____

>  <TORSDO>
F 10

$$$$
=
 OpenBabel11052413003D

 31 33  0  0  1  0  0  0  0  0999 V2000
  192.6360  175.2100  135.8610 F   0  0  0  0  0  0  0  0  0  0  0  0
  188.6930  176.0360  138.0220 C   0  0  1  0  0  3  0  0  0  0  0  0
  189.3790  174.7260  137.5870 C   0  0  0  0  0  2  0  0  0  0  0  0
  191.7870  175.2090  136.9540 C   0  0  0  0  0  0  0  0  0  0  0  0
  193.0170  176.8440  138.1170 O   0  0  0  0  0  0  0  0  0  0  0  0
  190.7760  177.4830  137.8650 C   0  0  0  0  0  2  0  0  0  0  0  0
  189.6670  176.9720  138.8050 C   0  0  1  0  0  0  0  0  0  0  0  0
  191.9260  176.5300  137.6680 C   0  0  0  0  0  0  0  0  0  0  0  0
  190.3740  174.9360  136.4490 C   0  0  0  0  0  2  0  0  0  0  0  0
  192.1740  174.1870  137.8040 F   0  0  0  0  0  0  0  0  0  0  0  0
  187.9090  176.7080  136.8610 C   0  0  1  0  0  3  0  0  0  0  0  0
  186.6770  175.0910  135.5140 C   0  0  0  0  0  2  0  0  0  0  0  0
  187.9640  175.8840  135.5760 C   0  0  0  0  0  2  0  0  0  0  0  0
  185.6400  175.9650  136.1770 C   0  0  0  0  0  2  0  0  0  0  0  0
  186.4140  176.8050  137.1830 C   0  0  2  0  0  3  0  0  0  0  0  0
  185.4360  178.3440  138.5910 C   0  0  0  0  0  1  0  0  0  0  0  0
  185.9350  178.1310  137.2940 O   0  0  0  0  0  0  0  0  0  0  0  0
  189.0680  179.2790  138.8000 O   0  0  0  0  0  0  0  0  0  0  0  0
  188.9320  178.1820  139.3210 C   0  0  0  0  0  3  0  0  0  0  0  0
  190.2760  176.2400  140.0250 C   0  0  0  0  0  2  0  0  0  0  0  0
  190.6260  177.1710  141.1820 C   0  0  0  0  0  2  0  0  0  0  0  0
  190.4610  176.4490  142.5150 C   0  0  0  0  0  2  0  0  0  0  0  0
  190.7180  177.3420  143.7480 C   0  0  1  0  0  0  0  0  0  0  0  0
  191.6130  178.4770  143.2780 C   0  0  0  0  0  1  0  0  0  0  0  0
  189.4640  178.0130  144.3750 C   0  0  0  0  0  3  0  0  0  0  0  0
  188.6590  177.1240  145.3080 C   0  0  0  0  0  2  0  0  0  0  0  0
  188.1600  177.3910  143.9010 C   0  0  0  0  0  2  0  0  0  0  0  0
  191.8360  175.3750  144.5700 O   0  0  0  0  0  0  0  0  0  0  0  0
  191.4670  176.5590  144.8030 C   0  0  0  0  0  0  0  0  0  0  0  0
  191.6890  177.1130  146.0640 O   0  0  0  0  0  0  0  0  0  0  0  0
  192.1470  176.3610  147.0740 O   0  0  0  0  0  1  0  0  0  0  0  0
  1  4  1  0  0  0  0
  2  3  1  6  0  0  0
  2  7  1  0  0  0  0
  4  8  1  0  0  0  0
  4 10  1  0  0  0  0
  6  7  1  0  0  0  0
  7 19  1  1  0  0  0
  7 20  1  0  0  0  0
  8  6  1  0  0  0  0
  8  5  2  0  0  0  0
  9  4  1  0  0  0  0
  9  3  1  0  0  0  0
 11 13  1  6  0  0  0
 11 15  1  0  0  0  0
 11  2  1  0  0  0  0
 12 13  1  0  0  0  0
 12 14  1  0  0  0  0
 14 15  1  0  0  0  0
 15 17  1  6  0  0  0
 17 16  1  0  0  0  0
 18 19  2  0  0  0  0
 20 21  1  0  0  0  0
 21 22  1  0  0  0  0
 22 23  1  0  0  0  0
 23 24  1  6  0  0  0
 23 25  1  0  0  0  0
 23 29  1  0  0  0  0
 25 26  1  0  0  0  0
 27 25  1  0  0  0  0
 27 26  1  0  0  0  0
 28 29  2  0  0  0  0
 29 30  1  0  0  0  0
 30 31  1  0  0  0  0
M  END
>  <MODEL>
9

>  <REMARK>
 VINA RESULT:      -6.1      3.032      7.651
  Name = 
  10 active torsions:
  status: ('A' for Active; 'I' for Inactive)
    1  A    between atoms: O_1  and  C_19
    2  A    between atoms: C_3  and  C_22
    3  A    between atoms: C_4  and  C_5
    4  A    between atoms: C_9  and  C_22
    5  A    between atoms: C_9  and  C_23
    6  A    between atoms: C_15  and  C_21
    7  A    between atoms: C_15  and  C_23
    8  A    between atoms: C_19  and  C_22
    9  A    between atoms: C_21  and  C_29
   10  A    between atoms: C_30  and  O_31
                            x       y       z     vdW  Elec       q    Type
                         _______ _______ _______ _____ _____    ______ ____

>  <TORSDO>
F 10

$$$$
