=
 OpenBabel11052412483D

 25 27  0  0  1  0  0  0  0  0999 V2000
  188.3450  176.9540  142.7050 C   0  0  2  0  0  3  0  0  0  0  0  0
  186.7460  178.5610  141.6090 C   0  0  0  0  0  0  0  0  0  0  0  0
  185.4680  179.3180  141.6590 C   0  0  0  0  0  1  0  0  0  0  0  0
  189.1690  177.1480  141.4620 C   0  0  0  0  0  3  0  0  0  0  0  0
  187.4440  178.5430  140.5150 N   0  0  0  0  0  0  0  0  0  0  0  0
  188.7100  177.8700  140.4350 C   0  0  0  0  0  0  0  0  0  0  0  0
  187.2270  177.8940  142.7780 N   0  0  0  0  0  2  0  0  0  0  0  0
  189.1790  177.0500  143.9020 N   0  0  0  0  0  0  0  0  0  0  0  0
  188.6450  177.2890  145.1940 C   0  0  0  0  0  0  0  0  0  0  0  0
  187.8400  177.7430  147.7910 C   0  0  0  0  0  3  0  0  0  0  0  0
  189.5860  177.4150  146.1830 C   0  0  0  0  0  0  0  0  0  0  0  0
  189.2090  177.6430  147.5050 C   0  0  0  0  0  3  0  0  0  0  0  0
  186.9170  177.6190  146.7930 N   0  0  0  0  0  0  0  0  0  0  0  0
  190.6390  176.9250  143.8980 C   0  0  1  0  0  3  0  0  0  0  0  0
  191.2630  177.2650  145.6040 S   0  0  0  0  0  0  0  0  0  0  0  0
  187.2870  177.3930  145.5010 C   0  0  0  0  0  3  0  0  0  0  0  0
  191.0520  175.5250  143.4720 C   0  0  0  0  0  2  0  0  0  0  0  0
  192.0730  174.9600  144.4390 C   0  0  0  0  0  1  0  0  0  0  0  0
  189.5290  177.9890  139.2000 C   0  0  0  0  0  2  0  0  0  0  0  0
  190.9090  177.3870  139.4300 C   0  0  0  0  0  2  0  0  0  0  0  0
  191.3510  176.4950  138.2710 C   0  0  2  0  0  3  0  0  0  0  0  0
  190.5690  175.2680  138.2580 N   0  0  0  0  0  1  0  0  0  0  0  0
  192.8480  176.1820  138.3210 C   0  0  2  0  0  3  0  0  0  0  0  0
  193.4960  177.0690  139.1830 O   0  0  0  0  0  1  0  0  0  0  0  0
  193.4640  176.3040  136.9390 C   0  0  0  0  0  1  0  0  0  0  0  0
  1  4  1  6  0  0  0
  1  7  1  0  0  0  0
  1  8  1  0  0  0  0
  2  3  1  0  0  0  0
  2  7  1  0  0  0  0
  5  2  2  0  0  0  0
  6  5  1  0  0  0  0
  6  4  2  0  0  0  0
  8  9  1  0  0  0  0
  9 16  2  0  0  0  0
  9 11  1  0  0  0  0
 11 12  2  0  0  0  0
 12 10  1  0  0  0  0
 13 10  2  0  0  0  0
 14 17  1  1  0  0  0
 14  8  1  0  0  0  0
 14 15  1  0  0  0  0
 15 11  1  0  0  0  0
 16 13  1  0  0  0  0
 17 18  1  0  0  0  0
 19 20  1  0  0  0  0
 19  6  1  0  0  0  0
 21 22  1  1  0  0  0
 21 23  1  0  0  0  0
 21 20  1  0  0  0  0
 23 25  1  6  0  0  0
 23 24  1  0  0  0  0
M  END
>  <MODEL>
1

>  <REMARK>
 VINA RESULT:      -7.6      0.000      0.000
  Name = 
  6 active torsions:
  status: ('A' for Active; 'I' for Inactive)
    1  A    between atoms: N_1  and  C_3
    2  A    between atoms: C_2  and  C_21
    3  A    between atoms: C_4  and  C_18
    4  A    between atoms: C_6  and  C_15
    5  A    between atoms: C_6  and  C_23
    6  A    between atoms: C_15  and  C_21
                            x       y       z     vdW  Elec       q    Type
                         _______ _______ _______ _____ _____    ______ ____

>  <TORSDO>
F 6

$$$$
=
 OpenBabel11052412483D

 25 27  0  0  1  0  0  0  0  0999 V2000
  188.3340  176.9700  142.7500 C   0  0  2  0  0  3  0  0  0  0  0  0
  186.6960  178.5750  141.7070 C   0  0  0  0  0  0  0  0  0  0  0  0
  185.4030  179.3030  141.7840 C   0  0  0  0  0  1  0  0  0  0  0  0
  189.1480  177.2170  141.5100 C   0  0  0  0  0  3  0  0  0  0  0  0
  187.3900  178.6020  140.6100 N   0  0  0  0  0  0  0  0  0  0  0  0
  188.6690  177.9580  140.5060 C   0  0  0  0  0  0  0  0  0  0  0  0
  187.1970  177.8840  142.8540 N   0  0  0  0  0  2  0  0  0  0  0  0
  189.1710  177.0500  143.9460 N   0  0  0  0  0  0  0  0  0  0  0  0
  188.6440  177.2980  145.2400 C   0  0  0  0  0  0  0  0  0  0  0  0
  187.8510  177.7630  147.8380 C   0  0  0  0  0  3  0  0  0  0  0  0
  189.5890  177.4050  146.2270 C   0  0  0  0  0  0  0  0  0  0  0  0
  189.2170  177.6380  147.5500 C   0  0  0  0  0  3  0  0  0  0  0  0
  186.9240  177.6550  146.8420 N   0  0  0  0  0  0  0  0  0  0  0  0
  190.6290  176.8990  143.9400 C   0  0  1  0  0  3  0  0  0  0  0  0
  191.2610  177.2250  145.6450 S   0  0  0  0  0  0  0  0  0  0  0  0
  187.2880  177.4250  145.5490 C   0  0  0  0  0  3  0  0  0  0  0  0
  191.0160  175.4920  143.5110 C   0  0  0  0  0  2  0  0  0  0  0  0
  192.0760  174.9330  144.4380 C   0  0  0  0  0  1  0  0  0  0  0  0
  189.4800  178.1290  139.2710 C   0  0  0  0  0  2  0  0  0  0  0  0
  188.8970  177.2870  138.1440 C   0  0  0  0  0  2  0  0  0  0  0  0
  188.3650  178.1450  136.9970 C   0  0  2  0  0  3  0  0  0  0  0  0
  188.7210  179.5400  137.2100 N   0  0  0  0  0  1  0  0  0  0  0  0
  186.8530  177.9930  136.8150 C   0  0  2  0  0  3  0  0  0  0  0  0
  186.1760  178.8410  137.6930 O   0  0  0  0  0  1  0  0  0  0  0  0
  186.4250  176.5620  137.0880 C   0  0  0  0  0  1  0  0  0  0  0  0
  1  4  1  6  0  0  0
  1  7  1  0  0  0  0
  1  8  1  0  0  0  0
  2  3  1  0  0  0  0
  2  7  1  0  0  0  0
  5  2  2  0  0  0  0
  6  5  1  0  0  0  0
  6  4  2  0  0  0  0
  8  9  1  0  0  0  0
  9 16  2  0  0  0  0
  9 11  1  0  0  0  0
 11 12  2  0  0  0  0
 12 10  1  0  0  0  0
 13 10  2  0  0  0  0
 14 17  1  1  0  0  0
 14  8  1  0  0  0  0
 14 15  1  0  0  0  0
 15 11  1  0  0  0  0
 16 13  1  0  0  0  0
 17 18  1  0  0  0  0
 19  6  1  0  0  0  0
 20 19  1  0  0  0  0
 21 22  1  1  0  0  0
 21 20  1  0  0  0  0
 23 21  1  0  0  0  0
 23 25  1  1  0  0  0
 23 24  1  0  0  0  0
M  END
>  <MODEL>
2

>  <REMARK>
 VINA RESULT:      -7.5      2.284      2.771
  Name = 
  6 active torsions:
  status: ('A' for Active; 'I' for Inactive)
    1  A    between atoms: N_1  and  C_3
    2  A    between atoms: C_2  and  C_21
    3  A    between atoms: C_4  and  C_18
    4  A    between atoms: C_6  and  C_15
    5  A    between atoms: C_6  and  C_23
    6  A    between atoms: C_15  and  C_21
                            x       y       z     vdW  Elec       q    Type
                         _______ _______ _______ _____ _____    ______ ____

>  <TORSDO>
F 6

$$$$
=
 OpenBabel11052412483D

 25 27  0  0  1  0  0  0  0  0999 V2000
  187.2860  178.8990  141.1460 C   0  0  2  0  0  3  0  0  0  0  0  0
  185.0660  178.7140  139.9710 C   0  0  0  0  0  0  0  0  0  0  0  0
  184.2900  178.7420  138.7040 C   0  0  0  0  0  1  0  0  0  0  0  0
  186.4850  178.6550  142.3950 C   0  0  0  0  0  3  0  0  0  0  0  0
  184.4440  178.6660  141.1100 N   0  0  0  0  0  0  0  0  0  0  0  0
  185.1510  178.5830  142.3570 C   0  0  0  0  0  0  0  0  0  0  0  0
  186.4950  178.6910  139.9340 N   0  0  0  0  0  2  0  0  0  0  0  0
  188.4880  178.0670  141.1280 N   0  0  0  0  0  0  0  0  0  0  0  0
  189.1760  177.7360  139.9320 C   0  0  0  0  0  0  0  0  0  0  0  0
  190.6740  176.9660  137.7500 C   0  0  0  0  0  3  0  0  0  0  0  0
  190.2410  176.8900  140.1060 C   0  0  0  0  0  0  0  0  0  0  0  0
  191.0170  176.4850  139.0210 C   0  0  0  0  0  3  0  0  0  0  0  0
  189.6080  177.8050  137.5950 N   0  0  0  0  0  0  0  0  0  0  0  0
  189.0990  177.4790  142.3230 C   0  0  1  0  0  3  0  0  0  0  0  0
  190.4970  176.3930  141.7960 S   0  0  0  0  0  0  0  0  0  0  0  0
  188.8510  178.2020  138.6570 C   0  0  0  0  0  3  0  0  0  0  0  0
  189.6180  178.5700  143.2460 C   0  0  0  0  0  2  0  0  0  0  0  0
  190.3650  177.9590  144.4140 C   0  0  0  0  0  1  0  0  0  0  0  0
  184.3910  178.4000  143.6220 C   0  0  0  0  0  2  0  0  0  0  0  0
  185.0130  179.2410  144.7290 C   0  0  0  0  0  2  0  0  0  0  0  0
  185.4580  178.3910  145.9190 C   0  0  2  0  0  3  0  0  0  0  0  0
  185.1840  179.0920  147.1640 N   0  0  0  0  0  1  0  0  0  0  0  0
  186.9360  178.0030  145.8300 C   0  0  2  0  0  3  0  0  0  0  0  0
  187.0750  176.7920  145.1510 O   0  0  0  0  0  1  0  0  0  0  0  0
  187.5320  177.8570  147.2190 C   0  0  0  0  0  1  0  0  0  0  0  0
  1  8  1  6  0  0  0
  1  4  1  0  0  0  0
  2  5  2  0  0  0  0
  3  2  1  0  0  0  0
  5  6  1  0  0  0  0
  6  4  2  0  0  0  0
  6 19  1  0  0  0  0
  7  2  1  0  0  0  0
  7  1  1  0  0  0  0
  8 14  1  0  0  0  0
  9 11  1  0  0  0  0
  9  8  1  0  0  0  0
 10 12  1  0  0  0  0
 11 15  1  0  0  0  0
 12 11  2  0  0  0  0
 13 10  2  0  0  0  0
 13 16  1  0  0  0  0
 14 17  1  1  0  0  0
 15 14  1  0  0  0  0
 16  9  2  0  0  0  0
 17 18  1  0  0  0  0
 19 20  1  0  0  0  0
 20 21  1  0  0  0  0
 21 22  1  1  0  0  0
 23 21  1  0  0  0  0
 23 25  1  1  0  0  0
 24 23  1  0  0  0  0
M  END
>  <MODEL>
3

>  <REMARK>
 VINA RESULT:      -7.4      2.626      6.821
  Name = 
  6 active torsions:
  status: ('A' for Active; 'I' for Inactive)
    1  A    between atoms: N_1  and  C_3
    2  A    between atoms: C_2  and  C_21
    3  A    between atoms: C_4  and  C_18
    4  A    between atoms: C_6  and  C_15
    5  A    between atoms: C_6  and  C_23
    6  A    between atoms: C_15  and  C_21
                            x       y       z     vdW  Elec       q    Type
                         _______ _______ _______ _____ _____    ______ ____

>  <TORSDO>
F 6

$$$$
=
 OpenBabel11052412483D

 25 27  0  0  1  0  0  0  0  0999 V2000
  187.5060  177.2770  143.1540 C   0  0  2  0  0  3  0  0  0  0  0  0
  188.6940  178.0520  141.0720 C   0  0  0  0  0  0  0  0  0  0  0  0
  188.6270  178.4560  139.6440 C   0  0  0  0  0  1  0  0  0  0  0  0
  188.8770  177.2900  143.7700 C   0  0  0  0  0  3  0  0  0  0  0  0
  189.8480  177.8810  141.6430 N   0  0  0  0  0  0  0  0  0  0  0  0
  189.9630  177.5420  143.0330 C   0  0  0  0  0  0  0  0  0  0  0  0
  187.4910  177.8960  141.8280 N   0  0  0  0  0  2  0  0  0  0  0  0
  186.5330  177.9200  144.0350 N   0  0  0  0  0  0  0  0  0  0  0  0
  185.2260  178.2730  143.6110 C   0  0  0  0  0  0  0  0  0  0  0  0
  182.6470  179.0440  143.0170 C   0  0  0  0  0  3  0  0  0  0  0  0
  184.4810  178.9290  144.5560 C   0  0  0  0  0  0  0  0  0  0  0  0
  183.1730  179.3300  144.2840 C   0  0  0  0  0  3  0  0  0  0  0  0
  183.4050  178.3920  142.0870 N   0  0  0  0  0  0  0  0  0  0  0  0
  186.8010  178.2810  145.4300 C   0  0  1  0  0  3  0  0  0  0  0  0
  185.3410  179.2000  146.0910 S   0  0  0  0  0  0  0  0  0  0  0  0
  184.6820  177.9990  142.3550 C   0  0  0  0  0  3  0  0  0  0  0  0
  187.0400  177.0320  146.2640 C   0  0  0  0  0  2  0  0  0  0  0  0
  187.7400  177.3920  147.5600 C   0  0  0  0  0  1  0  0  0  0  0  0
  191.3070  177.4870  143.6670 C   0  0  0  0  0  2  0  0  0  0  0  0
  191.1670  177.4820  145.1840 C   0  0  0  0  0  2  0  0  0  0  0  0
  192.0010  176.3820  145.8380 C   0  0  2  0  0  3  0  0  0  0  0  0
  191.9590  175.1740  145.0270 N   0  0  0  0  0  1  0  0  0  0  0  0
  191.5490  176.0880  147.2700 C   0  0  2  0  0  3  0  0  0  0  0  0
  191.0020  177.2360  147.8460 O   0  0  0  0  0  1  0  0  0  0  0  0
  192.7230  175.6270  148.1150 C   0  0  0  0  0  1  0  0  0  0  0  0
  1  4  1  1  0  0  0
  1  8  1  0  0  0  0
  2  5  2  0  0  0  0
  2  7  1  0  0  0  0
  3  2  1  0  0  0  0
  5  6  1  0  0  0  0
  6 19  1  0  0  0  0
  6  4  2  0  0  0  0
  7  1  1  0  0  0  0
  8 14  1  0  0  0  0
  9  8  1  0  0  0  0
  9 11  1  0  0  0  0
 10 12  1  0  0  0  0
 11 15  1  0  0  0  0
 12 11  2  0  0  0  0
 13 16  1  0  0  0  0
 13 10  2  0  0  0  0
 14 15  1  0  0  0  0
 14 17  1  1  0  0  0
 16  9  2  0  0  0  0
 17 18  1  0  0  0  0
 19 20  1  0  0  0  0
 20 21  1  0  0  0  0
 21 22  1  6  0  0  0
 21 23  1  0  0  0  0
 23 24  1  0  0  0  0
 23 25  1  1  0  0  0
M  END
>  <MODEL>
4

>  <REMARK>
 VINA RESULT:      -7.3      3.253      5.724
  Name = 
  6 active torsions:
  status: ('A' for Active; 'I' for Inactive)
    1  A    between atoms: N_1  and  C_3
    2  A    between atoms: C_2  and  C_21
    3  A    between atoms: C_4  and  C_18
    4  A    between atoms: C_6  and  C_15
    5  A    between atoms: C_6  and  C_23
    6  A    between atoms: C_15  and  C_21
                            x       y       z     vdW  Elec       q    Type
                         _______ _______ _______ _____ _____    ______ ____

>  <TORSDO>
F 6

$$$$
=
 OpenBabel11052412483D

 25 27  0  0  1  0  0  0  0  0999 V2000
  188.5960  178.4240  140.7680 C   0  0  2  0  0  3  0  0  0  0  0  0
  186.1360  178.5920  141.2830 C   0  0  0  0  0  0  0  0  0  0  0  0
  184.7750  179.0190  140.8670 C   0  0  0  0  0  1  0  0  0  0  0  0
  188.6890  177.7690  142.1190 C   0  0  0  0  0  3  0  0  0  0  0  0
  186.3380  178.1630  142.4910 N   0  0  0  0  0  0  0  0  0  0  0  0
  187.6240  177.6900  142.9220 C   0  0  0  0  0  0  0  0  0  0  0  0
  187.2100  178.6090  140.3390 N   0  0  0  0  0  2  0  0  0  0  0  0
  189.3480  177.6660  139.7690 N   0  0  0  0  0  0  0  0  0  0  0  0
  189.0750  177.7420  138.3790 C   0  0  0  0  0  0  0  0  0  0  0  0
  188.7310  177.7300  135.6450 C   0  0  0  0  0  3  0  0  0  0  0  0
  189.8390  176.9090  137.6050 C   0  0  0  0  0  0  0  0  0  0  0  0
  189.6880  176.8820  136.2190 C   0  0  0  0  0  3  0  0  0  0  0  0
  187.9770  178.5520  136.4320 N   0  0  0  0  0  0  0  0  0  0  0  0
  190.4420  176.7450  140.0900 C   0  0  1  0  0  3  0  0  0  0  0  0
  190.9830  175.9110  138.5330 S   0  0  0  0  0  0  0  0  0  0  0  0
  188.1270  178.5790  137.7870 C   0  0  0  0  0  3  0  0  0  0  0  0
  191.6130  177.5020  140.6980 C   0  0  0  0  0  2  0  0  0  0  0  0
  192.8490  177.3390  139.8360 C   0  0  0  0  0  1  0  0  0  0  0  0
  187.7700  177.0880  144.2740 C   0  0  0  0  0  2  0  0  0  0  0  0
  188.7680  177.8930  145.0970 C   0  0  0  0  0  2  0  0  0  0  0  0
  189.6190  177.0050  146.0030 C   0  0  2  0  0  3  0  0  0  0  0  0
  189.5940  177.5120  147.3670 N   0  0  0  0  0  1  0  0  0  0  0  0
  191.0590  176.8780  145.4990 C   0  0  2  0  0  3  0  0  0  0  0  0
  191.9480  176.9040  146.5740 O   0  0  0  0  0  1  0  0  0  0  0  0
  191.3960  178.0210  144.5570 C   0  0  0  0  0  1  0  0  0  0  0  0
  1  8  1  6  0  0  0
  1  4  1  0  0  0  0
  2  5  2  0  0  0  0
  3  2  1  0  0  0  0
  4  6  2  0  0  0  0
  5  6  1  0  0  0  0
  6 19  1  0  0  0  0
  7  1  1  0  0  0  0
  7  2  1  0  0  0  0
  8 14  1  0  0  0  0
  9  8  1  0  0  0  0
 10 12  2  0  0  0  0
 10 13  1  0  0  0  0
 11  9  2  0  0  0  0
 11 15  1  0  0  0  0
 12 11  1  0  0  0  0
 13 16  2  0  0  0  0
 14 17  1  6  0  0  0
 15 14  1  0  0  0  0
 16  9  1  0  0  0  0
 18 17  1  0  0  0  0
 19 20  1  0  0  0  0
 20 21  1  0  0  0  0
 21 22  1  1  0  0  0
 23 25  1  6  0  0  0
 23 21  1  0  0  0  0
 23 24  1  0  0  0  0
M  END
>  <MODEL>
5

>  <REMARK>
 VINA RESULT:      -7.3      2.735      6.680
  Name = 
  6 active torsions:
  status: ('A' for Active; 'I' for Inactive)
    1  A    between atoms: N_1  and  C_3
    2  A    between atoms: C_2  and  C_21
    3  A    between atoms: C_4  and  C_18
    4  A    between atoms: C_6  and  C_15
    5  A    between atoms: C_6  and  C_23
    6  A    between atoms: C_15  and  C_21
                            x       y       z     vdW  Elec       q    Type
                         _______ _______ _______ _____ _____    ______ ____

>  <TORSDO>
F 6

$$$$
=
 OpenBabel11052412483D

 25 27  0  0  1  0  0  0  0  0999 V2000
  188.1010  176.8930  144.4080 C   0  0  2  0  0  3  0  0  0  0  0  0
  187.8610  177.5830  146.8190 C   0  0  0  0  0  0  0  0  0  0  0  0
  188.3070  177.4530  148.2300 C   0  0  0  0  0  1  0  0  0  0  0  0
  186.9770  177.8620  144.1670 C   0  0  0  0  0  3  0  0  0  0  0  0
  186.7990  178.2730  146.5370 N   0  0  0  0  0  0  0  0  0  0  0  0
  186.3600  178.4710  145.1850 C   0  0  0  0  0  0  0  0  0  0  0  0
  188.6280  176.9870  145.7700 N   0  0  0  0  0  2  0  0  0  0  0  0
  189.1690  177.0790  143.4270 N   0  0  0  0  0  0  0  0  0  0  0  0
  188.9230  177.4790  142.0890 C   0  0  0  0  0  0  0  0  0  0  0  0
  188.6910  178.2480  139.4520 C   0  0  0  0  0  3  0  0  0  0  0  0
  190.0420  177.5350  141.2990 C   0  0  0  0  0  0  0  0  0  0  0  0
  189.9550  177.9220  139.9620 C   0  0  0  0  0  3  0  0  0  0  0  0
  187.5870  178.1850  140.2530 N   0  0  0  0  0  0  0  0  0  0  0  0
  190.5900  176.8620  143.7100 C   0  0  1  0  0  3  0  0  0  0  0  0
  191.5410  177.0720  142.1400 S   0  0  0  0  0  0  0  0  0  0  0  0
  187.6730  177.8080  141.5600 C   0  0  0  0  0  3  0  0  0  0  0  0
  191.0840  177.8610  144.7450 C   0  0  0  0  0  2  0  0  0  0  0  0
  191.6810  179.0750  144.0610 C   0  0  0  0  0  1  0  0  0  0  0  0
  185.2140  179.3770  144.9090 C   0  0  0  0  0  2  0  0  0  0  0  0
  183.9910  178.5620  144.5040 C   0  0  0  0  0  2  0  0  0  0  0  0
  183.2810  179.1530  143.2880 C   0  0  2  0  0  3  0  0  0  0  0  0
  181.8400  179.0040  143.4290 N   0  0  0  0  0  1  0  0  0  0  0  0
  183.7640  178.5270  141.9770 C   0  0  2  0  0  3  0  0  0  0  0  0
  184.6700  179.3780  141.3430 O   0  0  0  0  0  1  0  0  0  0  0  0
  182.5930  178.2750  141.0440 C   0  0  0  0  0  1  0  0  0  0  0  0
  1  8  1  6  0  0  0
  1  7  1  0  0  0  0
  2  3  1  0  0  0  0
  4  1  1  0  0  0  0
  4  6  2  0  0  0  0
  5  2  2  0  0  0  0
  6  5  1  0  0  0  0
  7  2  1  0  0  0  0
  8 14  1  0  0  0  0
  9  8  1  0  0  0  0
 10 12  2  0  0  0  0
 10 13  1  0  0  0  0
 11  9  2  0  0  0  0
 11 15  1  0  0  0  0
 12 11  1  0  0  0  0
 13 16  2  0  0  0  0
 14 17  1  1  0  0  0
 15 14  1  0  0  0  0
 16  9  1  0  0  0  0
 18 17  1  0  0  0  0
 19  6  1  0  0  0  0
 20 19  1  0  0  0  0
 21 22  1  1  0  0  0
 21 20  1  0  0  0  0
 23 25  1  6  0  0  0
 23 21  1  0  0  0  0
 24 23  1  0  0  0  0
M  END
>  <MODEL>
6

>  <REMARK>
 VINA RESULT:      -7.2      2.822      6.649
  Name = 
  6 active torsions:
  status: ('A' for Active; 'I' for Inactive)
    1  A    between atoms: N_1  and  C_3
    2  A    between atoms: C_2  and  C_21
    3  A    between atoms: C_4  and  C_18
    4  A    between atoms: C_6  and  C_15
    5  A    between atoms: C_6  and  C_23
    6  A    between atoms: C_15  and  C_21
                            x       y       z     vdW  Elec       q    Type
                         _______ _______ _______ _____ _____    ______ ____

>  <TORSDO>
F 6

$$$$
=
 OpenBabel11052412483D

 25 27  0  0  1  0  0  0  0  0999 V2000
  187.1280  177.0220  143.8600 C   0  0  2  0  0  3  0  0  0  0  0  0
  185.4330  178.3440  142.5470 C   0  0  0  0  0  0  0  0  0  0  0  0
  184.0280  178.7980  142.3760 C   0  0  0  0  0  1  0  0  0  0  0  0
  188.1010  177.5110  142.8230 C   0  0  0  0  0  3  0  0  0  0  0  0
  186.3080  178.5840  141.6190 N   0  0  0  0  0  0  0  0  0  0  0  0
  187.6870  178.2120  141.7630 C   0  0  0  0  0  0  0  0  0  0  0  0
  185.8290  177.6860  143.7530 N   0  0  0  0  0  2  0  0  0  0  0  0
  187.6780  177.1790  145.2050 N   0  0  0  0  0  0  0  0  0  0  0  0
  189.0570  177.0160  145.4970 C   0  0  0  0  0  0  0  0  0  0  0  0
  191.6810  176.7530  146.3000 C   0  0  0  0  0  3  0  0  0  0  0  0
  189.3740  177.1350  146.8250 C   0  0  0  0  0  0  0  0  0  0  0  0
  190.6920  177.0080  147.2600 C   0  0  0  0  0  3  0  0  0  0  0  0
  191.3460  176.6340  144.9810 N   0  0  0  0  0  0  0  0  0  0  0  0
  186.8760  177.5040  146.3880 C   0  0  1  0  0  3  0  0  0  0  0  0
  187.9710  177.4490  147.8750 S   0  0  0  0  0  0  0  0  0  0  0  0
  190.0570  176.7610  144.5570 C   0  0  0  0  0  3  0  0  0  0  0  0
  186.2660  178.8900  146.2520 C   0  0  0  0  0  2  0  0  0  0  0  0
  184.7710  178.8330  146.4970 C   0  0  0  0  0  1  0  0  0  0  0  0
  188.6720  178.6260  140.7290 C   0  0  0  0  0  2  0  0  0  0  0  0
  188.1600  178.2530  139.3430 C   0  0  0  0  0  2  0  0  0  0  0  0
  189.2110  178.4830  138.2590 C   0  0  2  0  0  3  0  0  0  0  0  0
  188.6890  179.3780  137.2380 N   0  0  0  0  0  1  0  0  0  0  0  0
  189.6920  177.1700  137.6340 C   0  0  2  0  0  3  0  0  0  0  0  0
  188.7590  176.1580  137.8640 O   0  0  0  0  0  1  0  0  0  0  0  0
  191.0240  176.7530  138.2310 C   0  0  0  0  0  1  0  0  0  0  0  0
  1  4  1  6  0  0  0
  1  8  1  0  0  0  0
  2  7  1  0  0  0  0
  3  2  1  0  0  0  0
  5  6  1  0  0  0  0
  5  2  2  0  0  0  0
  6  4  2  0  0  0  0
  7  1  1  0  0  0  0
  8  9  1  0  0  0  0
  8 14  1  0  0  0  0
  9 11  1  0  0  0  0
 10 12  1  0  0  0  0
 11 12  2  0  0  0  0
 11 15  1  0  0  0  0
 13 10  2  0  0  0  0
 14 17  1  6  0  0  0
 14 15  1  0  0  0  0
 16 13  1  0  0  0  0
 16  9  2  0  0  0  0
 17 18  1  0  0  0  0
 19  6  1  0  0  0  0
 20 19  1  0  0  0  0
 21 22  1  6  0  0  0
 21 20  1  0  0  0  0
 23 24  1  0  0  0  0
 23 25  1  1  0  0  0
 23 21  1  0  0  0  0
M  END
>  <MODEL>
7

>  <REMARK>
 VINA RESULT:      -7.1      2.129      3.552
  Name = 
  6 active torsions:
  status: ('A' for Active; 'I' for Inactive)
    1  A    between atoms: N_1  and  C_3
    2  A    between atoms: C_2  and  C_21
    3  A    between atoms: C_4  and  C_18
    4  A    between atoms: C_6  and  C_15
    5  A    between atoms: C_6  and  C_23
    6  A    between atoms: C_15  and  C_21
                            x       y       z     vdW  Elec       q    Type
                         _______ _______ _______ _____ _____    ______ ____

>  <TORSDO>
F 6

$$$$
=
 OpenBabel11052412483D

 25 27  0  0  1  0  0  0  0  0999 V2000
  187.6390  177.0290  143.4450 C   0  0  2  0  0  3  0  0  0  0  0  0
  186.5010  178.0770  145.4330 C   0  0  0  0  0  0  0  0  0  0  0  0
  186.3840  178.2110  146.9080 C   0  0  0  0  0  1  0  0  0  0  0  0
  186.6780  177.8580  142.6380 C   0  0  0  0  0  3  0  0  0  0  0  0
  185.6160  178.6300  144.6610 N   0  0  0  0  0  0  0  0  0  0  0  0
  185.7170  178.5730  143.2300 C   0  0  0  0  0  0  0  0  0  0  0  0
  187.6130  177.3810  144.8650 N   0  0  0  0  0  2  0  0  0  0  0  0
  188.9950  177.1370  142.9110 N   0  0  0  0  0  0  0  0  0  0  0  0
  189.2690  177.2780  141.5260 C   0  0  0  0  0  0  0  0  0  0  0  0
  190.0410  177.5600  138.8950 C   0  0  0  0  0  3  0  0  0  0  0  0
  190.6020  177.2950  141.2100 C   0  0  0  0  0  0  0  0  0  0  0  0
  191.0230  177.4380  139.8880 C   0  0  0  0  0  3  0  0  0  0  0  0
  188.7170  177.5390  139.2290 N   0  0  0  0  0  0  0  0  0  0  0  0
  190.2070  177.0960  143.7340 C   0  0  1  0  0  3  0  0  0  0  0  0
  191.6780  177.1160  142.6170 S   0  0  0  0  0  0  0  0  0  0  0  0
  188.3080  177.4010  140.5210 C   0  0  0  0  0  3  0  0  0  0  0  0
  190.2570  178.2970  144.6660 C   0  0  0  0  0  2  0  0  0  0  0  0
  191.1650  179.3680  144.0960 C   0  0  0  0  0  1  0  0  0  0  0  0
  184.7500  179.3330  142.3940 C   0  0  0  0  0  2  0  0  0  0  0  0
  183.6430  178.4060  141.9060 C   0  0  0  0  0  2  0  0  0  0  0  0
  183.3740  178.5660  140.4110 C   0  0  2  0  0  3  0  0  0  0  0  0
  183.0280  177.2800  139.8250 N   0  0  0  0  0  1  0  0  0  0  0  0
  184.5590  179.1950  139.6750 C   0  0  2  0  0  3  0  0  0  0  0  0
  184.1750  180.4010  139.0870 O   0  0  0  0  0  1  0  0  0  0  0  0
  185.0690  178.2620  138.5910 C   0  0  0  0  0  1  0  0  0  0  0  0
  1  4  1  6  0  0  0
  1  7  1  0  0  0  0
  2  3  1  0  0  0  0
  4  6  2  0  0  0  0
  5  2  2  0  0  0  0
  6  5  1  0  0  0  0
  7  2  1  0  0  0  0
  8  1  1  0  0  0  0
  8 14  1  0  0  0  0
  9  8  1  0  0  0  0
 10 13  2  0  0  0  0
 10 12  1  0  0  0  0
 11  9  1  0  0  0  0
 11 15  1  0  0  0  0
 12 11  2  0  0  0  0
 13 16  1  0  0  0  0
 14 17  1  1  0  0  0
 15 14  1  0  0  0  0
 16  9  2  0  0  0  0
 18 17  1  0  0  0  0
 19  6  1  0  0  0  0
 20 19  1  0  0  0  0
 21 22  1  6  0  0  0
 21 20  1  0  0  0  0
 23 25  1  6  0  0  0
 23 21  1  0  0  0  0
 24 23  1  0  0  0  0
M  END
>  <MODEL>
8

>  <REMARK>
 VINA RESULT:      -7.1      2.784      5.978
  Name = 
  6 active torsions:
  status: ('A' for Active; 'I' for Inactive)
    1  A    between atoms: N_1  and  C_3
    2  A    between atoms: C_2  and  C_21
    3  A    between atoms: C_4  and  C_18
    4  A    between atoms: C_6  and  C_15
    5  A    between atoms: C_6  and  C_23
    6  A    between atoms: C_15  and  C_21
                            x       y       z     vdW  Elec       q    Type
                         _______ _______ _______ _____ _____    ______ ____

>  <TORSDO>
F 6

$$$$
=
 OpenBabel11052412483D

 25 27  0  0  1  0  0  0  0  0999 V2000
  189.9130  176.7880  141.9740 C   0  0  2  0  0  3  0  0  0  0  0  0
  190.3930  178.4950  143.7620 C   0  0  0  0  0  0  0  0  0  0  0  0
  191.3230  179.4920  144.3530 C   0  0  0  0  0  1  0  0  0  0  0  0
  188.6000  176.6190  142.6880 C   0  0  0  0  0  3  0  0  0  0  0  0
  189.3080  178.1680  144.3950 N   0  0  0  0  0  0  0  0  0  0  0  0
  188.3540  177.2500  143.8390 C   0  0  0  0  0  0  0  0  0  0  0  0
  190.6710  177.9330  142.4770 N   0  0  0  0  0  2  0  0  0  0  0  0
  189.7100  176.8980  140.5300 N   0  0  0  0  0  0  0  0  0  0  0  0
  188.5610  177.5010  139.9580 C   0  0  0  0  0  0  0  0  0  0  0  0
  186.4260  178.6250  138.6240 C   0  0  0  0  0  3  0  0  0  0  0  0
  188.5150  177.4500  138.5890 C   0  0  0  0  0  0  0  0  0  0  0  0
  187.4490  178.0110  137.8870 C   0  0  0  0  0  3  0  0  0  0  0  0
  186.4870  178.6630  139.9870 N   0  0  0  0  0  0  0  0  0  0  0  0
  190.6520  176.3910  139.5270 C   0  0  1  0  0  3  0  0  0  0  0  0
  189.9060  176.6190  137.8520 S   0  0  0  0  0  0  0  0  0  0  0  0
  187.5310  178.1160  140.6720 C   0  0  0  0  0  3  0  0  0  0  0  0
  191.9700  177.1440  139.6080 C   0  0  0  0  0  2  0  0  0  0  0  0
  192.8740  176.7470  138.4580 C   0  0  0  0  0  1  0  0  0  0  0  0
  187.0680  177.0100  144.5450 C   0  0  0  0  0  2  0  0  0  0  0  0
  186.9200  177.9880  145.7050 C   0  0  0  0  0  2  0  0  0  0  0  0
  185.6730  178.8600  145.5690 C   0  0  2  0  0  3  0  0  0  0  0  0
  184.7810  178.6370  146.6960 N   0  0  0  0  0  1  0  0  0  0  0  0
  184.9430  178.6220  144.2450 C   0  0  2  0  0  3  0  0  0  0  0  0
  185.2760  179.6180  143.3260 O   0  0  0  0  0  1  0  0  0  0  0  0
  183.4400  178.6330  144.4570 C   0  0  0  0  0  1  0  0  0  0  0  0
  1  8  1  6  0  0  0
  1  7  1  0  0  0  0
  1  4  1  0  0  0  0
  2  3  1  0  0  0  0
  2  5  2  0  0  0  0
  4  6  2  0  0  0  0
  6  5  1  0  0  0  0
  6 19  1  0  0  0  0
  7  2  1  0  0  0  0
  9  8  1  0  0  0  0
  9 16  1  0  0  0  0
 10 13  1  0  0  0  0
 11  9  2  0  0  0  0
 12 11  1  0  0  0  0
 12 10  2  0  0  0  0
 13 16  2  0  0  0  0
 14 17  1  6  0  0  0
 14  8  1  0  0  0  0
 15 11  1  0  0  0  0
 15 14  1  0  0  0  0
 18 17  1  0  0  0  0
 19 20  1  0  0  0  0
 21 20  1  0  0  0  0
 21 22  1  1  0  0  0
 23 25  1  1  0  0  0
 23 21  1  0  0  0  0
 24 23  1  0  0  0  0
M  END
>  <MODEL>
9

>  <REMARK>
 VINA RESULT:      -7.1      3.102      7.084
  Name = 
  6 active torsions:
  status: ('A' for Active; 'I' for Inactive)
    1  A    between atoms: N_1  and  C_3
    2  A    between atoms: C_2  and  C_21
    3  A    between atoms: C_4  and  C_18
    4  A    between atoms: C_6  and  C_15
    5  A    between atoms: C_6  and  C_23
    6  A    between atoms: C_15  and  C_21
                            x       y       z     vdW  Elec       q    Type
                         _______ _______ _______ _____ _____    ______ ____

>  <TORSDO>
F 6

$$$$
