=
 OpenBabel11052415443D

 34 38  0  0  1  0  0  0  0  0999 V2000
  183.1910  178.2790  139.6270 C   0  0  1  0  0  0  0  0  0  0  0  0
  184.7350  175.4000  137.3220 C   0  0  0  0  0  2  0  0  0  0  0  0
  182.6420  175.6150  138.5320 C   0  0  0  0  0  3  0  0  0  0  0  0
  183.2360  179.8000  139.5030 C   0  0  0  0  0  1  0  0  0  0  0  0
  180.7030  178.4540  140.2580 C   0  0  0  0  0  3  0  0  0  0  0  0
  179.2720  176.3940  140.1820 C   0  0  0  0  0  2  0  0  0  0  0  0
  179.5590  177.8260  140.5770 C   0  0  0  0  0  3  0  0  0  0  0  0
  181.6460  176.2790  139.4370 C   0  0  1  0  0  3  0  0  0  0  0  0
  181.7450  177.8060  139.3730 C   0  0  2  0  0  3  0  0  0  0  0  0
  180.2220  175.8620  139.1030 C   0  0  0  0  0  2  0  0  0  0  0  0
  185.2270  176.1830  136.1140 C   0  0  0  0  0  2  0  0  0  0  0  0
  186.4710  176.9860  136.4750 C   0  0  2  0  0  3  0  0  0  0  0  0
  186.1250  178.2750  137.2160 C   0  0  0  0  0  2  0  0  0  0  0  0
  183.7930  176.2040  138.1690 C   0  0  0  0  0  0  0  0  0  0  0  0
  185.5640  177.9980  138.6020 C   0  0  0  0  0  2  0  0  0  0  0  0
  184.0750  177.6640  138.5100 C   0  0  2  0  0  3  0  0  0  0  0  0
  187.2220  177.3000  135.2690 N   0  0  0  0  0  0  0  0  0  0  0  0
  188.2680  176.5010  134.8670 O   0  0  0  0  0  0  0  0  0  0  0  0
  186.9130  178.3020  134.5940 O   0  0  0  0  0  0  0  0  0  0  0  0
  183.6290  177.8340  141.0400 C   0  0  0  0  0  2  0  0  0  0  0  0
  183.8300  178.9770  142.0290 C   0  0  0  0  0  2  0  0  0  0  0  0
  185.4650  178.9750  145.3890 C   0  0  0  0  0  2  0  0  0  0  0  0
  185.8660  177.7790  142.8400 C   0  0  0  0  0  3  0  0  0  0  0  0
  188.7600  177.0280  145.8150 C   0  0  0  0  0  2  0  0  0  0  0  0
  187.7090  178.1190  146.0130 C   0  0  0  0  0  2  0  0  0  0  0  0
  186.4220  177.7880  145.2620 C   0  0  2  0  0  3  0  0  0  0  0  0
  187.8600  176.5350  143.4890 C   0  0  0  0  0  2  0  0  0  0  0  0
  186.7170  177.4470  143.8140 C   0  0  0  0  0  0  0  0  0  0  0  0
  189.1020  176.8450  144.3320 C   0  0  1  0  0  3  0  0  0  0  0  0
  184.6870  178.5460  143.1190 N   0  0  0  0  0  0  0  0  0  0  0  0
  184.2510  178.7660  144.4940 C   0  0  0  0  0  2  0  0  0  0  0  0
  189.8880  177.9950  143.7800 C   0  0  0  0  0  0  0  0  0  0  0  0
  190.8830  178.5040  144.4880 C   0  0  0  0  0  2  0  0  0  0  0  0
  189.5770  178.5410  142.5400 O   0  0  0  0  0  1  0  0  0  0  0  0
  1  4  1  6  0  0  0
  1 20  1  0  0  0  0
  2 14  1  0  0  0  0
  5  7  2  0  0  0  0
  6  7  1  0  0  0  0
  8  3  1  6  0  0  0
  9  8  1  0  0  0  0
  9  1  1  0  0  0  0
  9  5  1  1  0  0  0
 10  8  1  0  0  0  0
 10  6  1  0  0  0  0
 11 12  1  0  0  0  0
 11  2  1  0  0  0  0
 12 17  1  6  0  0  0
 12 13  1  0  0  0  0
 13 15  1  0  0  0  0
 14 16  1  0  0  0  0
 14  3  2  0  0  0  0
 16 15  1  1  0  0  0
 16  1  1  0  0  0  0
 18 17  2  0  0  0  0
 19 17  2  0  0  0  0
 20 21  1  0  0  0  0
 21 30  1  0  0  0  0
 23 30  1  0  0  0  0
 23 28  2  0  0  0  0
 24 25  1  0  0  0  0
 26 22  1  6  0  0  0
 26 25  1  0  0  0  0
 27 28  1  0  0  0  0
 27 29  1  0  0  0  0
 28 26  1  0  0  0  0
 29 32  1  6  0  0  0
 29 24  1  0  0  0  0
 30 31  1  0  0  0  0
 31 22  1  0  0  0  0
 32 33  2  0  0  0  0
 34 32  1  0  0  0  0
M  END
>  <MODEL>
1

>  <REMARK>
 VINA RESULT:      -8.3      0.000      0.000
  Name = 
  5 active torsions:
  status: ('A' for Active; 'I' for Inactive)
    1  A    between atoms: C_1  and  C_8
    2  A    between atoms: N_3  and  C_25
    3  A    between atoms: C_8  and  C_18
    4  A    between atoms: C_11  and  C_29
    5  A    between atoms: C_18  and  N_30
                            x       y       z     vdW  Elec       q    Type
                         _______ _______ _______ _____ _____    ______ ____

>  <TORSDO>
F 5

$$$$
=
 OpenBabel11052415443D

 34 38  0  0  1  0  0  0  0  0999 V2000
  188.9140  177.3010  137.5680 C   0  0  1  0  0  0  0  0  0  0  0  0
  190.9250  173.8740  137.1260 C   0  0  0  0  0  2  0  0  0  0  0  0
  188.6020  174.4900  136.7930 C   0  0  0  0  0  3  0  0  0  0  0  0
  189.3060  178.7450  137.2600 C   0  0  0  0  0  1  0  0  0  0  0  0
  186.5980  177.7650  136.5490 C   0  0  0  0  0  3  0  0  0  0  0  0
  185.1120  175.8320  135.9540 C   0  0  0  0  0  2  0  0  0  0  0  0
  185.3840  177.2980  136.2140 C   0  0  0  0  0  3  0  0  0  0  0  0
  187.4140  175.4060  136.8050 C   0  0  1  0  0  3  0  0  0  0  0  0
  187.8150  176.8660  136.5770 C   0  0  2  0  0  3  0  0  0  0  0  0
  186.3870  175.0070  135.7560 C   0  0  0  0  0  2  0  0  0  0  0  0
  192.1550  174.3190  136.3480 C   0  0  0  0  0  2  0  0  0  0  0  0
  193.0940  175.1110  137.2510 C   0  0  2  0  0  3  0  0  0  0  0  0
  192.6360  176.5560  137.4260 C   0  0  0  0  0  2  0  0  0  0  0  0
  189.8390  174.9090  137.1040 C   0  0  0  0  0  0  0  0  0  0  0  0
  191.3440  176.6480  138.2240 C   0  0  0  0  0  2  0  0  0  0  0  0
  190.1440  176.3890  137.3130 C   0  0  2  0  0  3  0  0  0  0  0  0
  194.4410  175.0870  136.7030 N   0  0  0  0  0  0  0  0  0  0  0  0
  195.0300  176.2410  136.2370 O   0  0  0  0  0  0  0  0  0  0  0  0
  195.0690  174.0100  136.6550 O   0  0  0  0  0  0  0  0  0  0  0  0
  188.3750  177.1770  139.0100 C   0  0  0  0  0  2  0  0  0  0  0  0
  188.3110  178.4950  139.7760 C   0  0  0  0  0  2  0  0  0  0  0  0
  185.8460  179.2680  142.4760 C   0  0  0  0  0  2  0  0  0  0  0  0
  188.0390  177.5080  142.0540 C   0  0  0  0  0  3  0  0  0  0  0  0
  186.2090  177.4550  145.8540 C   0  0  0  0  0  2  0  0  0  0  0  0
  185.8940  178.5690  144.8560 C   0  0  0  0  0  2  0  0  0  0  0  0
  186.0420  178.0790  143.4170 C   0  0  2  0  0  3  0  0  0  0  0  0
  187.8890  176.4370  144.2400 C   0  0  0  0  0  2  0  0  0  0  0  0
  187.3870  177.4070  143.2140 C   0  0  0  0  0  0  0  0  0  0  0  0
  187.6370  176.9280  145.6690 C   0  0  1  0  0  3  0  0  0  0  0  0
  187.5340  178.3250  140.9900 N   0  0  0  0  0  0  0  0  0  0  0  0
  186.1780  178.8630  141.0460 C   0  0  0  0  0  2  0  0  0  0  0  0
  188.6720  177.9120  146.1210 C   0  0  0  0  0  0  0  0  0  0  0  0
  188.6850  178.3140  147.3820 C   0  0  0  0  0  2  0  0  0  0  0  0
  189.6110  178.4180  145.2300 O   0  0  0  0  0  1  0  0  0  0  0  0
  1  4  1  6  0  0  0
  1 20  1  0  0  0  0
  3  8  1  0  0  0  0
  3 14  2  0  0  0  0
  6  7  1  0  0  0  0
  7  5  2  0  0  0  0
  8 10  1  6  0  0  0
  9  5  1  1  0  0  0
  9  8  1  0  0  0  0
  9  1  1  0  0  0  0
 10  6  1  0  0  0  0
 11  2  1  0  0  0  0
 11 12  1  0  0  0  0
 12 17  1  6  0  0  0
 12 13  1  0  0  0  0
 13 15  1  0  0  0  0
 14  2  1  0  0  0  0
 14 16  1  0  0  0  0
 16  1  1  0  0  0  0
 16 15  1  1  0  0  0
 18 17  2  0  0  0  0
 19 17  2  0  0  0  0
 20 21  1  0  0  0  0
 21 30  1  0  0  0  0
 23 28  2  0  0  0  0
 25 24  1  0  0  0  0
 26 22  1  6  0  0  0
 26 25  1  0  0  0  0
 27 29  1  0  0  0  0
 28 26  1  0  0  0  0
 28 27  1  0  0  0  0
 29 24  1  0  0  0  0
 29 32  1  6  0  0  0
 30 31  1  0  0  0  0
 30 23  1  0  0  0  0
 31 22  1  0  0  0  0
 32 33  2  0  0  0  0
 34 32  1  0  0  0  0
M  END
>  <MODEL>
2

>  <REMARK>
 VINA RESULT:      -8.1      3.754      5.559
  Name = 
  5 active torsions:
  status: ('A' for Active; 'I' for Inactive)
    1  A    between atoms: C_1  and  C_8
    2  A    between atoms: N_3  and  C_25
    3  A    between atoms: C_8  and  C_18
    4  A    between atoms: C_11  and  C_29
    5  A    between atoms: C_18  and  N_30
                            x       y       z     vdW  Elec       q    Type
                         _______ _______ _______ _____ _____    ______ ____

>  <TORSDO>
F 5

$$$$
=
 OpenBabel11052415443D

 34 38  0  0  1  0  0  0  0  0999 V2000
  183.3640  178.2670  141.4110 C   0  0  1  0  0  0  0  0  0  0  0  0
  184.9180  179.2520  144.9620 C   0  0  0  0  0  2  0  0  0  0  0  0
  182.6690  179.3320  144.0530 C   0  0  0  0  0  3  0  0  0  0  0  0
  183.6670  177.1040  140.4680 C   0  0  0  0  0  1  0  0  0  0  0  0
  180.8560  177.8990  140.9790 C   0  0  0  0  0  3  0  0  0  0  0  0
  179.1790  178.9570  142.5160 C   0  0  0  0  0  2  0  0  0  0  0  0
  179.5880  178.2580  141.2380 C   0  0  0  0  0  3  0  0  0  0  0  0
  181.6120  179.1790  143.0000 C   0  0  1  0  0  3  0  0  0  0  0  0
  181.9550  178.0660  142.0040 C   0  0  2  0  0  3  0  0  0  0  0  0
  180.2490  178.8920  143.6110 C   0  0  0  0  0  2  0  0  0  0  0  0
  185.7770  178.0380  145.2860 C   0  0  0  0  0  2  0  0  0  0  0  0
  187.0190  178.0180  144.4030 C   0  0  2  0  0  3  0  0  0  0  0  0
  186.7200  177.4790  143.0070 C   0  0  0  0  0  2  0  0  0  0  0  0
  183.9480  178.9750  143.8510 C   0  0  0  0  0  0  0  0  0  0  0  0
  185.8330  178.4260  142.2130 C   0  0  0  0  0  2  0  0  0  0  0  0
  184.3680  178.2190  142.5950 C   0  0  2  0  0  3  0  0  0  0  0  0
  188.0550  177.2100  145.0290 N   0  0  0  0  0  0  0  0  0  0  0  0
  188.0930  177.0560  146.3960 O   0  0  0  0  0  0  0  0  0  0  0  0
  188.9160  176.6530  144.3190 O   0  0  0  0  0  0  0  0  0  0  0  0
  183.4090  179.6110  140.6530 C   0  0  0  0  0  2  0  0  0  0  0  0
  183.7030  179.4860  139.1620 C   0  0  0  0  0  2  0  0  0  0  0  0
  181.2830  179.6080  136.3170 C   0  0  0  0  0  2  0  0  0  0  0  0
  181.9220  181.1510  138.6190 C   0  0  0  0  0  3  0  0  0  0  0  0
  178.9550  182.6620  136.0300 C   0  0  0  0  0  2  0  0  0  0  0  0
  179.8410  181.4950  135.5980 C   0  0  0  0  0  2  0  0  0  0  0  0
  180.2980  180.6730  136.8010 C   0  0  2  0  0  3  0  0  0  0  0  0
  180.2160  182.8490  138.2300 C   0  0  0  0  0  2  0  0  0  0  0  0
  180.9030  181.5690  137.8640 C   0  0  0  0  0  0  0  0  0  0  0  0
  179.6930  183.5940  136.9970 C   0  0  1  0  0  3  0  0  0  0  0  0
  182.5350  179.8750  138.3920 N   0  0  0  0  0  0  0  0  0  0  0  0
  181.9100  178.8970  137.5090 C   0  0  0  0  0  2  0  0  0  0  0  0
  180.7670  184.3870  136.3180 C   0  0  0  0  0  0  0  0  0  0  0  0
  180.6110  184.7490  135.0540 C   0  0  0  0  0  2  0  0  0  0  0  0
  181.9300  184.7380  136.9940 O   0  0  0  0  0  1  0  0  0  0  0  0
  1  4  1  6  0  0  0
  1  9  1  0  0  0  0
  1 16  1  0  0  0  0
  2 11  1  0  0  0  0
  5  7  2  0  0  0  0
  6 10  1  0  0  0  0
  7  6  1  0  0  0  0
  8 10  1  1  0  0  0
  8  3  1  0  0  0  0
  9  5  1  6  0  0  0
  9  8  1  0  0  0  0
 12 17  1  1  0  0  0
 12 11  1  0  0  0  0
 13 12  1  0  0  0  0
 14  3  2  0  0  0  0
 14  2  1  0  0  0  0
 15 13  1  0  0  0  0
 16 15  1  6  0  0  0
 16 14  1  0  0  0  0
 17 18  2  0  0  0  0
 19 17  2  0  0  0  0
 20  1  1  0  0  0  0
 21 20  1  0  0  0  0
 22 26  1  0  0  0  0
 22 31  1  0  0  0  0
 24 29  1  0  0  0  0
 25 24  1  0  0  0  0
 26 25  1  6  0  0  0
 26 28  1  0  0  0  0
 28 27  1  0  0  0  0
 28 23  2  0  0  0  0
 29 32  1  6  0  0  0
 29 27  1  0  0  0  0
 30 23  1  0  0  0  0
 30 21  1  0  0  0  0
 31 30  1  0  0  0  0
 32 34  1  0  0  0  0
 33 32  2  0  0  0  0
M  END
>  <MODEL>
3

>  <REMARK>
 VINA RESULT:      -8.1      3.605      8.560
  Name = 
  5 active torsions:
  status: ('A' for Active; 'I' for Inactive)
    1  A    between atoms: C_1  and  C_8
    2  A    between atoms: N_3  and  C_25
    3  A    between atoms: C_8  and  C_18
    4  A    between atoms: C_11  and  C_29
    5  A    between atoms: C_18  and  N_30
                            x       y       z     vdW  Elec       q    Type
                         _______ _______ _______ _____ _____    ______ ____

>  <TORSDO>
F 5

$$$$
=
 OpenBabel11052415443D

 34 38  0  0  1  0  0  0  0  0999 V2000
  187.8520  177.4890  143.8910 C   0  0  1  0  0  0  0  0  0  0  0  0
  189.6620  178.1770  147.3890 C   0  0  0  0  0  2  0  0  0  0  0  0
  187.4320  178.6460  146.5520 C   0  0  0  0  0  3  0  0  0  0  0  0
  187.9210  176.2970  142.9390 C   0  0  0  0  0  1  0  0  0  0  0  0
  185.3050  177.5590  143.5380 C   0  0  0  0  0  3  0  0  0  0  0  0
  183.8830  178.8810  145.1270 C   0  0  0  0  0  2  0  0  0  0  0  0
  184.1260  178.1280  143.8370 C   0  0  0  0  0  3  0  0  0  0  0  0
  186.3320  178.6800  145.5330 C   0  0  1  0  0  3  0  0  0  0  0  0
  186.4480  177.5300  144.5280 C   0  0  2  0  0  3  0  0  0  0  0  0
  184.9600  178.6280  146.1870 C   0  0  0  0  0  2  0  0  0  0  0  0
  190.3090  176.8330  147.6870 C   0  0  0  0  0  2  0  0  0  0  0  0
  191.5020  176.6040  146.7650 C   0  0  2  0  0  3  0  0  0  0  0  0
  191.0710  176.1310  145.3800 C   0  0  0  0  0  2  0  0  0  0  0  0
  188.6230  178.0750  146.3100 C   0  0  0  0  0  0  0  0  0  0  0  0
  190.3350  177.2200  144.6140 C   0  0  0  0  0  2  0  0  0  0  0  0
  188.8680  177.2650  145.0420 C   0  0  2  0  0  3  0  0  0  0  0  0
  192.4030  175.6290  147.3580 N   0  0  0  0  0  0  0  0  0  0  0  0
  192.8140  175.7580  148.6650 O   0  0  0  0  0  0  0  0  0  0  0  0
  192.8060  174.6660  146.6760 O   0  0  0  0  0  0  0  0  0  0  0  0
  188.1020  178.8100  143.1310 C   0  0  0  0  0  2  0  0  0  0  0  0
  188.7120  178.6350  141.7430 C   0  0  0  0  0  2  0  0  0  0  0  0
  185.2680  178.6190  140.2920 C   0  0  0  0  0  2  0  0  0  0  0  0
  187.9320  178.1360  139.4230 C   0  0  0  0  0  3  0  0  0  0  0  0
  184.8350  177.5060  136.6310 C   0  0  0  0  0  2  0  0  0  0  0  0
  184.5160  177.7010  138.1130 C   0  0  0  0  0  2  0  0  0  0  0  0
  185.5690  178.5720  138.7930 C   0  0  2  0  0  3  0  0  0  0  0  0
  187.3270  177.6380  137.1140 C   0  0  0  0  0  2  0  0  0  0  0  0
  186.9640  178.0510  138.5080 C   0  0  0  0  0  0  0  0  0  0  0  0
  186.2040  176.8450  136.4370 C   0  0  1  0  0  3  0  0  0  0  0  0
  187.6650  178.6430  140.7370 N   0  0  0  0  0  0  0  0  0  0  0  0
  186.4030  179.3140  141.0320 C   0  0  0  0  0  2  0  0  0  0  0  0
  186.2060  175.4040  136.8430 C   0  0  0  0  0  0  0  0  0  0  0  0
  187.3390  174.8310  137.2170 C   0  0  0  0  0  2  0  0  0  0  0  0
  185.0340  174.6560  136.8210 O   0  0  0  0  0  1  0  0  0  0  0  0
  1  4  1  6  0  0  0
  1  9  1  0  0  0  0
  1 16  1  0  0  0  0
  2 11  1  0  0  0  0
  5  7  2  0  0  0  0
  6 10  1  0  0  0  0
  7  6  1  0  0  0  0
  8 10  1  1  0  0  0
  8  3  1  0  0  0  0
  9  5  1  6  0  0  0
  9  8  1  0  0  0  0
 12 17  1  1  0  0  0
 12 11  1  0  0  0  0
 13 12  1  0  0  0  0
 14  3  2  0  0  0  0
 14  2  1  0  0  0  0
 15 13  1  0  0  0  0
 16 15  1  6  0  0  0
 16 14  1  0  0  0  0
 17 18  2  0  0  0  0
 19 17  2  0  0  0  0
 20  1  1  0  0  0  0
 21 20  1  0  0  0  0
 22 31  1  0  0  0  0
 23 30  1  0  0  0  0
 24 25  1  0  0  0  0
 26 25  1  6  0  0  0
 26 22  1  0  0  0  0
 27 28  1  0  0  0  0
 28 26  1  0  0  0  0
 28 23  2  0  0  0  0
 29 24  1  0  0  0  0
 29 32  1  1  0  0  0
 29 27  1  0  0  0  0
 30 31  1  0  0  0  0
 30 21  1  0  0  0  0
 32 33  2  0  0  0  0
 34 32  1  0  0  0  0
M  END
>  <MODEL>
4

>  <REMARK>
 VINA RESULT:      -7.6      2.978      8.591
  Name = 
  5 active torsions:
  status: ('A' for Active; 'I' for Inactive)
    1  A    between atoms: C_1  and  C_8
    2  A    between atoms: N_3  and  C_25
    3  A    between atoms: C_8  and  C_18
    4  A    between atoms: C_11  and  C_29
    5  A    between atoms: C_18  and  N_30
                            x       y       z     vdW  Elec       q    Type
                         _______ _______ _______ _____ _____    ______ ____

>  <TORSDO>
F 5

$$$$
=
 OpenBabel11052415443D

 34 38  0  0  1  0  0  0  0  0999 V2000
  187.7540  177.3190  143.9850 C   0  0  1  0  0  0  0  0  0  0  0  0
  191.3060  178.6280  142.6960 C   0  0  0  0  0  2  0  0  0  0  0  0
  190.2490  178.5730  144.8800 C   0  0  0  0  0  3  0  0  0  0  0  0
  186.9300  176.0940  143.5930 C   0  0  0  0  0  1  0  0  0  0  0  0
  187.1900  176.8490  146.4500 C   0  0  0  0  0  3  0  0  0  0  0  0
  188.5230  177.9800  148.2490 C   0  0  0  0  0  2  0  0  0  0  0  0
  187.3360  177.1920  147.7400 C   0  0  0  0  0  3  0  0  0  0  0  0
  189.1450  178.3060  145.8600 C   0  0  1  0  0  3  0  0  0  0  0  0
  188.2680  177.1280  145.4260 C   0  0  2  0  0  3  0  0  0  0  0  0
  189.6870  178.0310  147.2540 C   0  0  0  0  0  2  0  0  0  0  0  0
  191.7840  177.4680  141.8340 C   0  0  0  0  0  2  0  0  0  0  0  0
  190.9880  177.4110  140.5350 C   0  0  2  0  0  3  0  0  0  0  0  0
  189.6240  176.7550  140.7270 C   0  0  0  0  0  2  0  0  0  0  0  0
  190.1610  178.2360  143.5830 C   0  0  0  0  0  0  0  0  0  0  0  0
  188.6990  177.6100  141.5800 C   0  0  0  0  0  2  0  0  0  0  0  0
  189.0010  177.3940  143.0630 C   0  0  2  0  0  3  0  0  0  0  0  0
  191.7440  176.6860  139.5260 N   0  0  0  0  0  0  0  0  0  0  0  0
  191.1760  175.6310  138.8490 O   0  0  0  0  0  0  0  0  0  0  0  0
  192.9170  177.0230  139.2720 O   0  0  0  0  0  0  0  0  0  0  0  0
  186.8940  178.6000  143.9190 C   0  0  0  0  0  2  0  0  0  0  0  0
  186.0780  178.7480  142.6390 C   0  0  0  0  0  2  0  0  0  0  0  0
  182.9190  178.6280  144.6310 C   0  0  0  0  0  2  0  0  0  0  0  0
  183.6960  178.9390  141.9140 C   0  0  0  0  0  3  0  0  0  0  0  0
  179.5640  178.7670  142.7450 C   0  0  0  0  0  2  0  0  0  0  0  0
  180.5880  178.3890  143.8150 C   0  0  0  0  0  2  0  0  0  0  0  0
  181.8990  179.1460  143.6160 C   0  0  2  0  0  3  0  0  0  0  0  0
  181.4230  179.1580  141.0560 C   0  0  0  0  0  2  0  0  0  0  0  0
  182.3910  179.0030  142.1890 C   0  0  0  0  0  0  0  0  0  0  0  0
  180.0890  178.4590  141.3380 C   0  0  1  0  0  3  0  0  0  0  0  0
  184.6730  178.9160  142.9620 N   0  0  0  0  0  0  0  0  0  0  0  0
  184.2920  179.2160  144.3390 C   0  0  0  0  0  2  0  0  0  0  0  0
  180.1500  176.9890  141.0590 C   0  0  0  0  0  0  0  0  0  0  0  0
  181.0100  176.5290  140.1650 C   0  0  0  0  0  2  0  0  0  0  0  0
  179.3050  176.1030  141.7190 O   0  0  0  0  0  1  0  0  0  0  0  0
  1  4  1  6  0  0  0
  1  9  1  0  0  0  0
  2 14  1  0  0  0  0
  5  7  2  0  0  0  0
  7  6  1  0  0  0  0
  8  3  1  6  0  0  0
  8 10  1  0  0  0  0
  9  8  1  0  0  0  0
  9  5  1  1  0  0  0
 10  6  1  0  0  0  0
 11  2  1  0  0  0  0
 12 17  1  6  0  0  0
 12 13  1  0  0  0  0
 12 11  1  0  0  0  0
 13 15  1  0  0  0  0
 14  3  2  0  0  0  0
 16 15  1  6  0  0  0
 16 14  1  0  0  0  0
 16  1  1  0  0  0  0
 18 17  2  0  0  0  0
 19 17  2  0  0  0  0
 20  1  1  0  0  0  0
 21 30  1  0  0  0  0
 21 20  1  0  0  0  0
 23 28  2  0  0  0  0
 23 30  1  0  0  0  0
 24 25  1  0  0  0  0
 26 25  1  6  0  0  0
 26 22  1  0  0  0  0
 27 29  1  0  0  0  0
 27 28  1  0  0  0  0
 28 26  1  0  0  0  0
 29 32  1  1  0  0  0
 29 24  1  0  0  0  0
 30 31  1  0  0  0  0
 31 22  1  0  0  0  0
 32 34  1  0  0  0  0
 33 32  2  0  0  0  0
M  END
>  <MODEL>
5

>  <REMARK>
 VINA RESULT:      -7.4      3.106      7.842
  Name = 
  5 active torsions:
  status: ('A' for Active; 'I' for Inactive)
    1  A    between atoms: C_1  and  C_8
    2  A    between atoms: N_3  and  C_25
    3  A    between atoms: C_8  and  C_18
    4  A    between atoms: C_11  and  C_29
    5  A    between atoms: C_18  and  N_30
                            x       y       z     vdW  Elec       q    Type
                         _______ _______ _______ _____ _____    ______ ____

>  <TORSDO>
F 5

$$$$
=
 OpenBabel11052415443D

 34 38  0  0  1  0  0  0  0  0999 V2000
  189.0240  177.1830  137.9060 C   0  0  1  0  0  0  0  0  0  0  0  0
  190.8530  173.7890  136.8430 C   0  0  0  0  0  2  0  0  0  0  0  0
  188.5300  174.4930  136.8470 C   0  0  0  0  0  3  0  0  0  0  0  0
  189.4300  178.6440  137.7270 C   0  0  0  0  0  1  0  0  0  0  0  0
  186.6290  177.8170  137.2140 C   0  0  0  0  0  3  0  0  0  0  0  0
  185.0200  176.0040  136.5670 C   0  0  0  0  0  2  0  0  0  0  0  0
  185.3700  177.4210  136.9640 C   0  0  0  0  0  3  0  0  0  0  0  0
  187.3830  175.4270  137.0990 C   0  0  1  0  0  3  0  0  0  0  0  0
  187.8090  176.8950  137.0000 C   0  0  2  0  0  3  0  0  0  0  0  0
  186.2360  175.1800  136.1320 C   0  0  0  0  0  2  0  0  0  0  0  0
  192.0060  174.2980  135.9900 C   0  0  0  0  0  2  0  0  0  0  0  0
  193.0640  174.9550  136.8690 C   0  0  2  0  0  3  0  0  0  0  0  0
  192.6800  176.3780  137.2620 C   0  0  0  0  0  2  0  0  0  0  0  0
  189.8080  174.8440  137.0640 C   0  0  0  0  0  0  0  0  0  0  0  0
  191.4860  176.4010  138.2050 C   0  0  0  0  0  2  0  0  0  0  0  0
  190.1850  176.2800  137.4100 C   0  0  2  0  0  3  0  0  0  0  0  0
  194.3430  174.9660  136.1750 N   0  0  0  0  0  0  0  0  0  0  0  0
  195.4760  175.4350  136.8000 O   0  0  0  0  0  0  0  0  0  0  0  0
  194.4120  174.5480  135.0020 O   0  0  0  0  0  0  0  0  0  0  0  0
  188.6400  176.8980  139.3750 C   0  0  0  0  0  2  0  0  0  0  0  0
  188.8230  178.0840  140.3160 C   0  0  0  0  0  2  0  0  0  0  0  0
  190.9060  175.9130  142.5350 C   0  0  0  0  0  2  0  0  0  0  0  0
  189.4590  178.3550  142.7160 C   0  0  0  0  0  3  0  0  0  0  0  0
  191.2510  176.8920  146.2430 C   0  0  0  0  0  2  0  0  0  0  0  0
  191.1420  176.0060  145.0030 C   0  0  0  0  0  2  0  0  0  0  0  0
  191.1510  176.8410  143.7250 C   0  0  2  0  0  3  0  0  0  0  0  0
  190.0070  178.7650  145.0570 C   0  0  0  0  0  2  0  0  0  0  0  0
  190.1230  177.9540  143.8030 C   0  0  0  0  0  0  0  0  0  0  0  0
  190.0950  177.8950  146.3160 C   0  0  1  0  0  3  0  0  0  0  0  0
  189.6300  177.6900  141.4580 N   0  0  0  0  0  0  0  0  0  0  0  0
  190.7130  176.7320  141.2650 C   0  0  0  0  0  2  0  0  0  0  0  0
  188.7890  177.2390  146.6420 C   0  0  0  0  0  0  0  0  0  0  0  0
  187.7220  177.5030  145.9040 C   0  0  0  0  0  2  0  0  0  0  0  0
  188.6790  176.3660  147.7190 O   0  0  0  0  0  1  0  0  0  0  0  0
  1  4  1  6  0  0  0
  1 20  1  0  0  0  0
  2 14  1  0  0  0  0
  3 14  2  0  0  0  0
  3  8  1  0  0  0  0
  6  7  1  0  0  0  0
  7  5  2  0  0  0  0
  8 10  1  6  0  0  0
  9  8  1  0  0  0  0
  9  5  1  1  0  0  0
  9  1  1  0  0  0  0
 10  6  1  0  0  0  0
 11  2  1  0  0  0  0
 11 12  1  0  0  0  0
 12 17  1  6  0  0  0
 12 13  1  0  0  0  0
 13 15  1  0  0  0  0
 14 16  1  0  0  0  0
 16  1  1  0  0  0  0
 16 15  1  1  0  0  0
 17 18  2  0  0  0  0
 19 17  2  0  0  0  0
 20 21  1  0  0  0  0
 21 30  1  0  0  0  0
 23 28  2  0  0  0  0
 24 29  1  0  0  0  0
 25 24  1  0  0  0  0
 26 22  1  6  0  0  0
 26 28  1  0  0  0  0
 26 25  1  0  0  0  0
 27 29  1  0  0  0  0
 28 27  1  0  0  0  0
 29 32  1  6  0  0  0
 30 23  1  0  0  0  0
 31 30  1  0  0  0  0
 31 22  1  0  0  0  0
 32 34  1  0  0  0  0
 33 32  2  0  0  0  0
M  END
>  <MODEL>
6

>  <REMARK>
 VINA RESULT:      -7.3      4.089      5.961
  Name = 
  5 active torsions:
  status: ('A' for Active; 'I' for Inactive)
    1  A    between atoms: C_1  and  C_8
    2  A    between atoms: N_3  and  C_25
    3  A    between atoms: C_8  and  C_18
    4  A    between atoms: C_11  and  C_29
    5  A    between atoms: C_18  and  N_30
                            x       y       z     vdW  Elec       q    Type
                         _______ _______ _______ _____ _____    ______ ____

>  <TORSDO>
F 5

$$$$
=
 OpenBabel11052415443D

 34 38  0  0  1  0  0  0  0  0999 V2000
  188.4440  177.2790  143.9140 C   0  0  1  0  0  0  0  0  0  0  0  0
  189.7650  178.2520  147.5610 C   0  0  0  0  0  2  0  0  0  0  0  0
  187.6700  178.6340  146.3970 C   0  0  0  0  0  3  0  0  0  0  0  0
  188.6400  176.0170  143.0760 C   0  0  0  0  0  1  0  0  0  0  0  0
  185.9690  177.2990  143.2160 C   0  0  0  0  0  3  0  0  0  0  0  0
  184.3470  178.7270  144.4900 C   0  0  0  0  0  2  0  0  0  0  0  0
  184.7610  177.8790  143.3070 C   0  0  0  0  0  3  0  0  0  0  0  0
  186.7180  178.5800  145.2380 C   0  0  1  0  0  3  0  0  0  0  0  0
  186.9670  177.3570  144.3510 C   0  0  2  0  0  3  0  0  0  0  0  0
  185.2700  178.5660  145.7020 C   0  0  0  0  0  2  0  0  0  0  0  0
  190.3630  176.9400  148.0480 C   0  0  0  0  0  2  0  0  0  0  0  0
  191.6700  176.6510  147.3160 C   0  0  2  0  0  3  0  0  0  0  0  0
  191.4300  176.0690  145.9260 C   0  0  0  0  0  2  0  0  0  0  0  0
  188.8820  178.0580  146.3630 C   0  0  0  0  0  0  0  0  0  0  0  0
  190.8060  177.0880  144.9850 C   0  0  0  0  0  2  0  0  0  0  0  0
  189.2950  177.1530  145.2060 C   0  0  2  0  0  3  0  0  0  0  0  0
  192.4800  175.7330  148.1000 N   0  0  0  0  0  0  0  0  0  0  0  0
  193.4150  176.2080  148.9910 O   0  0  0  0  0  0  0  0  0  0  0  0
  192.3260  174.5030  147.9620 O   0  0  0  0  0  0  0  0  0  0  0  0
  188.7980  178.5400  143.0950 C   0  0  0  0  0  2  0  0  0  0  0  0
  189.8400  178.3120  142.0050 C   0  0  0  0  0  2  0  0  0  0  0  0
  187.0890  177.8780  139.5130 C   0  0  0  0  0  2  0  0  0  0  0  0
  189.9270  177.7040  139.5840 C   0  0  0  0  0  3  0  0  0  0  0  0
  188.0080  176.6870  135.9680 C   0  0  0  0  0  2  0  0  0  0  0  0
  187.2000  176.8570  137.2540 C   0  0  0  0  0  2  0  0  0  0  0  0
  187.8700  177.8530  138.1980 C   0  0  2  0  0  3  0  0  0  0  0  0
  190.1720  177.1160  137.2300 C   0  0  0  0  0  2  0  0  0  0  0  0
  189.3290  177.4960  138.4080 C   0  0  0  0  0  0  0  0  0  0  0  0
  189.4270  176.1900  136.2630 C   0  0  1  0  0  3  0  0  0  0  0  0
  189.1890  178.1880  140.7130 N   0  0  0  0  0  0  0  0  0  0  0  0
  187.8350  178.7080  140.5480 C   0  0  0  0  0  2  0  0  0  0  0  0
  189.4510  174.7620  136.7150 C   0  0  0  0  0  0  0  0  0  0  0  0
  188.5370  173.9190  136.2620 C   0  0  0  0  0  2  0  0  0  0  0  0
  190.4120  174.3150  137.6140 O   0  0  0  0  0  1  0  0  0  0  0  0
  1  4  1  6  0  0  0
  1  9  1  0  0  0  0
  1 16  1  0  0  0  0
  2 11  1  0  0  0  0
  5  7  2  0  0  0  0
  6 10  1  0  0  0  0
  7  6  1  0  0  0  0
  8 10  1  1  0  0  0
  8  3  1  0  0  0  0
  9  5  1  6  0  0  0
  9  8  1  0  0  0  0
 12 11  1  0  0  0  0
 12 17  1  1  0  0  0
 13 12  1  0  0  0  0
 14  3  2  0  0  0  0
 14  2  1  0  0  0  0
 15 13  1  0  0  0  0
 16 15  1  6  0  0  0
 16 14  1  0  0  0  0
 17 18  2  0  0  0  0
 19 17  2  0  0  0  0
 20  1  1  0  0  0  0
 21 20  1  0  0  0  0
 22 31  1  0  0  0  0
 23 30  1  0  0  0  0
 24 29  1  0  0  0  0
 24 25  1  0  0  0  0
 26 25  1  6  0  0  0
 26 28  1  0  0  0  0
 26 22  1  0  0  0  0
 27 28  1  0  0  0  0
 28 23  2  0  0  0  0
 29 32  1  1  0  0  0
 29 27  1  0  0  0  0
 30 21  1  0  0  0  0
 31 30  1  0  0  0  0
 32 34  1  0  0  0  0
 33 32  2  0  0  0  0
M  END
>  <MODEL>
7

>  <REMARK>
 VINA RESULT:      -7.3      3.740      8.940
  Name = 
  5 active torsions:
  status: ('A' for Active; 'I' for Inactive)
    1  A    between atoms: C_1  and  C_8
    2  A    between atoms: N_3  and  C_25
    3  A    between atoms: C_8  and  C_18
    4  A    between atoms: C_11  and  C_29
    5  A    between atoms: C_18  and  N_30
                            x       y       z     vdW  Elec       q    Type
                         _______ _______ _______ _____ _____    ______ ____

>  <TORSDO>
F 5

$$$$
=
 OpenBabel11052415443D

 34 38  0  0  1  0  0  0  0  0999 V2000
  187.9020  177.2440  144.2850 C   0  0  1  0  0  0  0  0  0  0  0  0
  191.3010  178.6270  142.6950 C   0  0  0  0  0  2  0  0  0  0  0  0
  190.4400  178.5470  144.9630 C   0  0  0  0  0  3  0  0  0  0  0  0
  187.0730  176.0030  143.9620 C   0  0  0  0  0  1  0  0  0  0  0  0
  187.5650  176.7580  146.7880 C   0  0  0  0  0  3  0  0  0  0  0  0
  189.0270  177.9130  148.4680 C   0  0  0  0  0  2  0  0  0  0  0  0
  187.8160  177.1020  148.0620 C   0  0  0  0  0  3  0  0  0  0  0  0
  189.4310  178.2560  146.0350 C   0  0  1  0  0  3  0  0  0  0  0  0
  188.5440  177.0610  145.6750 C   0  0  2  0  0  3  0  0  0  0  0  0
  190.0980  177.9900  147.3750 C   0  0  0  0  0  2  0  0  0  0  0  0
  191.7250  177.4790  141.7910 C   0  0  0  0  0  2  0  0  0  0  0  0
  190.8200  177.4090  140.5660 C   0  0  2  0  0  3  0  0  0  0  0  0
  189.4920  176.7240  140.8740 C   0  0  0  0  0  2  0  0  0  0  0  0
  190.2460  178.2110  143.6780 C   0  0  0  0  0  0  0  0  0  0  0  0
  188.6280  177.5580  141.8070 C   0  0  0  0  0  2  0  0  0  0  0  0
  189.0620  177.3460  143.2580 C   0  0  2  0  0  3  0  0  0  0  0  0
  191.5000  176.7000  139.4920 N   0  0  0  0  0  0  0  0  0  0  0  0
  190.8810  175.6600  138.8380 O   0  0  0  0  0  0  0  0  0  0  0  0
  192.6530  177.0400  139.1620 O   0  0  0  0  0  0  0  0  0  0  0  0
  187.0130  178.5070  144.2990 C   0  0  0  0  0  2  0  0  0  0  0  0
  185.6380  178.3040  144.9250 C   0  0  0  0  0  2  0  0  0  0  0  0
  182.2170  178.6290  143.4560 C   0  0  0  0  0  2  0  0  0  0  0  0
  184.9180  178.7180  142.5700 C   0  0  0  0  0  3  0  0  0  0  0  0
  181.9000  179.0390  139.6400 C   0  0  0  0  0  2  0  0  0  0  0  0
  181.5560  178.6060  141.0640 C   0  0  0  0  0  2  0  0  0  0  0  0
  182.5320  179.2040  142.0740 C   0  0  2  0  0  3  0  0  0  0  0  0
  184.3710  179.1410  140.2310 C   0  0  0  0  0  2  0  0  0  0  0  0
  183.9660  178.9370  141.6590 C   0  0  0  0  0  0  0  0  0  0  0  0
  183.3190  178.6070  139.2530 C   0  0  1  0  0  3  0  0  0  0  0  0
  184.6010  178.6400  143.9660 N   0  0  0  0  0  0  0  0  0  0  0  0
  183.2880  179.0480  144.4530 C   0  0  0  0  0  2  0  0  0  0  0  0
  183.4310  177.1270  139.0530 C   0  0  0  0  0  0  0  0  0  0  0  0
  184.2230  176.6530  138.1050 C   0  0  0  0  0  2  0  0  0  0  0  0
  182.7030  176.2440  139.8440 O   0  0  0  0  0  1  0  0  0  0  0  0
  1  4  1  6  0  0  0
  1 20  1  0  0  0  0
  1  9  1  0  0  0  0
  2 14  1  0  0  0  0
  5  7  2  0  0  0  0
  7  6  1  0  0  0  0
  8  3  1  6  0  0  0
  8 10  1  0  0  0  0
  9  8  1  0  0  0  0
  9  5  1  1  0  0  0
 10  6  1  0  0  0  0
 11  2  1  0  0  0  0
 12 17  1  6  0  0  0
 12 13  1  0  0  0  0
 12 11  1  0  0  0  0
 13 15  1  0  0  0  0
 14  3  2  0  0  0  0
 16 15  1  6  0  0  0
 16 14  1  0  0  0  0
 16  1  1  0  0  0  0
 18 17  2  0  0  0  0
 19 17  2  0  0  0  0
 20 21  1  0  0  0  0
 22 31  1  0  0  0  0
 23 30  1  0  0  0  0
 24 25  1  0  0  0  0
 26 25  1  6  0  0  0
 26 22  1  0  0  0  0
 27 28  1  0  0  0  0
 28 26  1  0  0  0  0
 28 23  2  0  0  0  0
 29 32  1  1  0  0  0
 29 24  1  0  0  0  0
 29 27  1  0  0  0  0
 30 31  1  0  0  0  0
 30 21  1  0  0  0  0
 32 34  1  0  0  0  0
 33 32  2  0  0  0  0
M  END
>  <MODEL>
8

>  <REMARK>
 VINA RESULT:      -7.1      2.515      7.640
  Name = 
  5 active torsions:
  status: ('A' for Active; 'I' for Inactive)
    1  A    between atoms: C_1  and  C_8
    2  A    between atoms: N_3  and  C_25
    3  A    between atoms: C_8  and  C_18
    4  A    between atoms: C_11  and  C_29
    5  A    between atoms: C_18  and  N_30
                            x       y       z     vdW  Elec       q    Type
                         _______ _______ _______ _____ _____    ______ ____

>  <TORSDO>
F 5

$$$$
=
 OpenBabel11052415443D

 34 38  0  0  1  0  0  0  0  0999 V2000
  189.0220  177.3890  137.7960 C   0  0  1  0  0  0  0  0  0  0  0  0
  191.1840  174.0750  137.2190 C   0  0  0  0  0  2  0  0  0  0  0  0
  188.9130  174.6990  136.6350 C   0  0  0  0  0  3  0  0  0  0  0  0
  189.4070  178.8660  137.7320 C   0  0  0  0  0  1  0  0  0  0  0  0
  186.8600  177.9500  136.5210 C   0  0  0  0  0  3  0  0  0  0  0  0
  185.5350  176.0910  135.4790 C   0  0  0  0  0  2  0  0  0  0  0  0
  185.7210  177.5140  135.9580 C   0  0  0  0  0  3  0  0  0  0  0  0
  187.7060  175.5890  136.5920 C   0  0  1  0  0  3  0  0  0  0  0  0
  188.0890  177.0720  136.6100 C   0  0  2  0  0  3  0  0  0  0  0  0
  186.8510  175.3150  135.3640 C   0  0  0  0  0  2  0  0  0  0  0  0
  192.4970  174.6350  136.6880 C   0  0  0  0  0  2  0  0  0  0  0  0
  193.2730  175.3160  137.8100 C   0  0  2  0  0  3  0  0  0  0  0  0
  192.7490  176.7190  138.0990 C   0  0  0  0  0  2  0  0  0  0  0  0
  190.0800  175.0900  137.1710 C   0  0  0  0  0  0  0  0  0  0  0  0
  191.3550  176.6890  138.7070 C   0  0  0  0  0  2  0  0  0  0  0  0
  190.3040  176.5340  137.6080 C   0  0  2  0  0  3  0  0  0  0  0  0
  194.6840  175.3810  137.4630 N   0  0  0  0  0  0  0  0  0  0  0  0
  195.0920  175.9880  136.2970 O   0  0  0  0  0  0  0  0  0  0  0  0
  195.5320  174.8820  138.2300 O   0  0  0  0  0  0  0  0  0  0  0  0
  188.2900  177.0720  139.1180 C   0  0  0  0  0  2  0  0  0  0  0  0
  188.3500  178.1870  140.1570 C   0  0  0  0  0  2  0  0  0  0  0  0
  185.3950  178.2580  142.4430 C   0  0  0  0  0  2  0  0  0  0  0  0
  185.9580  178.7390  139.6970 C   0  0  0  0  0  3  0  0  0  0  0  0
  181.9310  178.9900  140.9280 C   0  0  0  0  0  2  0  0  0  0  0  0
  182.9890  178.3870  141.8510 C   0  0  0  0  0  2  0  0  0  0  0  0
  184.3640  178.9940  141.5860 C   0  0  2  0  0  3  0  0  0  0  0  0
  183.6650  179.3160  139.0980 C   0  0  0  0  0  2  0  0  0  0  0  0
  184.7020  178.9330  140.1090 C   0  0  0  0  0  0  0  0  0  0  0  0
  182.2820  178.7610  139.4530 C   0  0  1  0  0  3  0  0  0  0  0  0
  187.0130  178.4930  140.6350 N   0  0  0  0  0  0  0  0  0  0  0  0
  186.8010  178.7000  142.0640 C   0  0  0  0  0  2  0  0  0  0  0  0
  182.1240  177.3290  139.0430 C   0  0  0  0  0  0  0  0  0  0  0  0
  182.6440  176.9160  137.8990 C   0  0  0  0  0  2  0  0  0  0  0  0
  181.4280  176.4310  139.8450 O   0  0  0  0  0  1  0  0  0  0  0  0
  1  4  1  6  0  0  0
  1 20  1  0  0  0  0
  3 14  2  0  0  0  0
  6  7  1  0  0  0  0
  7  5  2  0  0  0  0
  8 10  1  6  0  0  0
  8  9  1  0  0  0  0
  8  3  1  0  0  0  0
  9  5  1  1  0  0  0
  9  1  1  0  0  0  0
 10  6  1  0  0  0  0
 11  2  1  0  0  0  0
 11 12  1  0  0  0  0
 12 17  1  6  0  0  0
 12 13  1  0  0  0  0
 13 15  1  0  0  0  0
 14  2  1  0  0  0  0
 14 16  1  0  0  0  0
 16  1  1  0  0  0  0
 16 15  1  1  0  0  0
 17 19  2  0  0  0  0
 18 17  2  0  0  0  0
 20 21  1  0  0  0  0
 21 30  1  0  0  0  0
 23 28  2  0  0  0  0
 23 30  1  0  0  0  0
 24 25  1  0  0  0  0
 26 25  1  6  0  0  0
 26 22  1  0  0  0  0
 27 29  1  0  0  0  0
 27 28  1  0  0  0  0
 28 26  1  0  0  0  0
 29 32  1  1  0  0  0
 29 24  1  0  0  0  0
 30 31  1  0  0  0  0
 31 22  1  0  0  0  0
 32 34  1  0  0  0  0
 33 32  2  0  0  0  0
M  END
>  <MODEL>
9

>  <REMARK>
 VINA RESULT:      -7.0      4.055      6.897
  Name = 
  5 active torsions:
  status: ('A' for Active; 'I' for Inactive)
    1  A    between atoms: C_1  and  C_8
    2  A    between atoms: N_3  and  C_25
    3  A    between atoms: C_8  and  C_18
    4  A    between atoms: C_11  and  C_29
    5  A    between atoms: C_18  and  N_30
                            x       y       z     vdW  Elec       q    Type
                         _______ _______ _______ _____ _____    ______ ____

>  <TORSDO>
F 5

$$$$
