=
 OpenBabel11052415543D

 34 38  0  0  1  0  0  0  0  0999 V2000
  183.3460  178.4480  141.6970 C   0  0  0  0  0  0  0  0  0  0  0  0
  182.9270  178.5230  144.5830 C   0  0  0  0  0  2  0  0  0  0  0  0
  184.3870  178.4000  142.5310 C   0  0  0  0  0  3  0  0  0  0  0  0
  181.7260  178.5250  143.6190 C   0  0  1  0  0  3  0  0  0  0  0  0
  179.5450  179.8130  143.2160 C   0  0  0  0  0  2  0  0  0  0  0  0
  180.5410  179.2670  144.2470 C   0  0  0  0  0  2  0  0  0  0  0  0
  184.2550  178.9420  143.9280 C   0  0  2  0  0  3  0  0  0  0  0  0
  180.8630  178.9550  141.2450 C   0  0  0  0  0  2  0  0  0  0  0  0
  182.0580  179.0570  142.2100 C   0  0  2  0  0  3  0  0  0  0  0  0
  179.5080  178.9430  141.9620 C   0  0  0  0  0  2  0  0  0  0  0  0
  186.4690  178.2920  146.9560 C   0  0  0  0  0  3  0  0  0  0  0  0
  186.5950  178.1020  144.1590 C   0  0  0  0  0  3  0  0  0  0  0  0
  189.8630  177.0200  146.5240 C   0  0  0  0  0  0  0  0  0  0  0  0
  188.7110  177.4730  147.0920 N   0  0  0  0  0  0  0  0  0  0  0  0
  187.6360  177.8320  146.3400 C   0  0  0  0  0  0  0  0  0  0  0  0
  188.8680  177.2780  144.3320 C   0  0  0  0  0  3  0  0  0  0  0  0
  187.6990  177.7390  144.9330 C   0  0  0  0  0  0  0  0  0  0  0  0
  189.9570  176.9150  145.1280 C   0  0  0  0  0  3  0  0  0  0  0  0
  185.4250  178.5610  144.7760 C   0  0  0  0  0  0  0  0  0  0  0  0
  185.3670  178.6570  146.1760 C   0  0  0  0  0  3  0  0  0  0  0  0
  191.5690  177.4950  148.1030 O   0  0  0  0  0  1  0  0  0  0  0  0
  190.9960  176.6380  147.3790 C   0  0  0  0  0  0  0  0  0  0  0  0
  191.4530  175.3250  147.3820 O   0  0  0  0  0  0  0  0  0  0  0  0
  184.4660  178.0250  137.9350 C   0  0  0  0  0  2  0  0  0  0  0  0
  184.5580  179.8450  139.4750 O   0  0  0  0  0  0  0  0  0  0  0  0
  183.6860  176.7580  137.6890 C   0  0  0  0  0  0  0  0  0  0  0  0
  183.0070  176.1550  138.6770 C   0  0  0  0  0  3  0  0  0  0  0  0
  184.1800  178.6600  139.2680 C   0  0  0  0  0  0  0  0  0  0  0  0
  182.9300  176.7230  140.0340 C   0  0  0  0  0  3  0  0  0  0  0  0
  183.4900  177.8980  140.3320 C   0  0  0  0  0  0  0  0  0  0  0  0
  184.6070  175.1320  135.9250 C   0  0  0  0  0  0  0  0  0  0  0  0
  184.5390  174.7130  134.6030 O   0  0  0  0  0  0  0  0  0  0  0  0
  185.4210  174.5760  136.7080 O   0  0  0  0  0  1  0  0  0  0  0  0
  183.7450  176.1870  136.3730 N   0  0  0  0  0  2  0  0  0  0  0  0
  1  9  1  0  0  0  0
  1  3  2  0  0  0  0
  3  7  1  0  0  0  0
  4  6  1  1  0  0  0
  4  2  1  0  0  0  0
  5  6  1  0  0  0  0
  7  2  1  0  0  0  0
  7 19  1  1  0  0  0
  8 10  1  0  0  0  0
  9  8  1  6  0  0  0
  9  4  1  0  0  0  0
 10  5  1  0  0  0  0
 12 19  2  0  0  0  0
 12 17  1  0  0  0  0
 13 14  1  0  0  0  0
 13 22  1  0  0  0  0
 15 11  1  0  0  0  0
 15 14  2  0  0  0  0
 16 17  2  0  0  0  0
 16 18  1  0  0  0  0
 17 15  1  0  0  0  0
 18 13  2  0  0  0  0
 19 20  1  0  0  0  0
 20 11  2  0  0  0  0
 22 23  2  0  0  0  0
 22 21  1  0  0  0  0
 24 28  1  0  0  0  0
 26 24  1  0  0  0  0
 26 27  2  0  0  0  0
 27 29  1  0  0  0  0
 28 25  2  0  0  0  0
 28 30  1  0  0  0  0
 29 30  2  0  0  0  0
 30  1  1  0  0  0  0
 31 34  1  0  0  0  0
 31 33  1  0  0  0  0
 32 31  2  0  0  0  0
 34 26  1  0  0  0  0
M  END
>  <MODEL>
1

>  <REMARK>
 VINA RESULT:     -10.5      0.000      0.000
  Name = 
  4 active torsions:
  status: ('A' for Active; 'I' for Inactive)
    1  A    between atoms: C_1  and  C_34
    2  A    between atoms: CA_7  and  C_15
    3  A    between atoms: C_18  and  C_30
    4  A    between atoms: C_23  and  N_25
                            x       y       z     vdW  Elec       q    Type
                         _______ _______ _______ _____ _____    ______ ____

>  <TORSDO>
F 4

$$$$
=
 OpenBabel11052415543D

 34 38  0  0  1  0  0  0  0  0999 V2000
  187.7570  177.6300  144.5690 C   0  0  0  0  0  0  0  0  0  0  0  0
  185.5640  178.8430  146.0620 C   0  0  0  0  0  2  0  0  0  0  0  0
  186.5580  177.7830  144.0020 C   0  0  0  0  0  3  0  0  0  0  0  0
  186.9620  178.7130  146.6950 C   0  0  1  0  0  3  0  0  0  0  0  0
  188.0580  177.8950  148.8650 C   0  0  0  0  0  2  0  0  0  0  0  0
  186.8470  178.5800  148.2170 C   0  0  0  0  0  2  0  0  0  0  0  0
  185.3310  177.9070  144.8630 C   0  0  2  0  0  3  0  0  0  0  0  0
  189.2450  177.5500  146.6670 C   0  0  0  0  0  2  0  0  0  0  0  0
  187.8220  177.5890  146.0810 C   0  0  2  0  0  3  0  0  0  0  0  0
  189.3360  178.1570  148.0710 C   0  0  0  0  0  2  0  0  0  0  0  0
  181.8540  179.1450  143.9310 C   0  0  0  0  0  3  0  0  0  0  0  0
  184.2160  178.3120  142.6660 C   0  0  0  0  0  3  0  0  0  0  0  0
  180.9020  179.5120  140.4270 C   0  0  0  0  0  0  0  0  0  0  0  0
  180.8610  179.5160  141.7880 N   0  0  0  0  0  0  0  0  0  0  0  0
  181.9290  179.1280  142.5360 C   0  0  0  0  0  0  0  0  0  0  0  0
  183.1780  178.6960  140.5090 C   0  0  0  0  0  3  0  0  0  0  0  0
  183.1170  178.7070  141.9010 C   0  0  0  0  0  0  0  0  0  0  0  0
  182.0680  179.1000  139.7650 C   0  0  0  0  0  3  0  0  0  0  0  0
  184.1420  178.3310  144.0640 C   0  0  0  0  0  0  0  0  0  0  0  0
  182.9560  178.7460  144.6930 C   0  0  0  0  0  3  0  0  0  0  0  0
  178.9360  179.1000  139.1630 O   0  0  0  0  0  0  0  0  0  0  0  0
  179.7230  179.9470  139.6620 C   0  0  0  0  0  0  0  0  0  0  0  0
  179.4790  181.3020  139.4720 O   0  0  0  0  0  1  0  0  0  0  0  0
  190.3520  176.2630  141.9270 C   0  0  0  0  0  2  0  0  0  0  0  0
  188.5040  175.2760  143.0670 O   0  0  0  0  0  0  0  0  0  0  0  0
  191.3350  177.3960  142.0840 C   0  0  0  0  0  0  0  0  0  0  0  0
  191.0680  178.4440  142.8770 C   0  0  0  0  0  3  0  0  0  0  0  0
  189.2270  176.2980  142.9240 C   0  0  0  0  0  0  0  0  0  0  0  0
  189.8390  178.5230  143.6840 C   0  0  0  0  0  3  0  0  0  0  0  0
  188.9530  177.5230  143.7060 C   0  0  0  0  0  0  0  0  0  0  0  0
  192.6490  177.1980  139.8840 C   0  0  0  0  0  0  0  0  0  0  0  0
  193.9070  177.1470  139.2990 O   0  0  0  0  0  1  0  0  0  0  0  0
  191.6250  177.1250  139.1550 O   0  0  0  0  0  0  0  0  0  0  0  0
  192.5410  177.3390  141.3070 N   0  0  0  0  0  2  0  0  0  0  0  0
  1  9  1  0  0  0  0
  3  1  2  0  0  0  0
  3  7  1  0  0  0  0
  4  2  1  6  0  0  0
  4  6  1  0  0  0  0
  6  5  1  0  0  0  0
  7 19  1  6  0  0  0
  7  2  1  0  0  0  0
  8 10  1  0  0  0  0
  9  8  1  6  0  0  0
  9  4  1  0  0  0  0
 10  5  1  0  0  0  0
 11 20  1  0  0  0  0
 12 19  1  0  0  0  0
 13 14  2  0  0  0  0
 14 15  1  0  0  0  0
 15 11  2  0  0  0  0
 16 17  1  0  0  0  0
 17 15  1  0  0  0  0
 17 12  2  0  0  0  0
 18 13  1  0  0  0  0
 18 16  2  0  0  0  0
 19 20  2  0  0  0  0
 21 22  2  0  0  0  0
 22 13  1  0  0  0  0
 23 22  1  0  0  0  0
 24 26  1  0  0  0  0
 24 28  1  0  0  0  0
 26 27  2  0  0  0  0
 27 29  1  0  0  0  0
 28 25  2  0  0  0  0
 28 30  1  0  0  0  0
 29 30  2  0  0  0  0
 30  1  1  0  0  0  0
 31 34  1  0  0  0  0
 32 31  1  0  0  0  0
 33 31  2  0  0  0  0
 34 26  1  0  0  0  0
M  END
>  <MODEL>
2

>  <REMARK>
 VINA RESULT:     -10.3      3.484      8.544
  Name = 
  4 active torsions:
  status: ('A' for Active; 'I' for Inactive)
    1  A    between atoms: C_1  and  C_34
    2  A    between atoms: CA_7  and  C_15
    3  A    between atoms: C_18  and  C_30
    4  A    between atoms: C_23  and  N_25
                            x       y       z     vdW  Elec       q    Type
                         _______ _______ _______ _____ _____    ______ ____

>  <TORSDO>
F 4

$$$$
=
 OpenBabel11052415543D

 34 38  0  0  1  0  0  0  0  0999 V2000
  189.1750  177.1680  143.5020 C   0  0  0  0  0  0  0  0  0  0  0  0
  187.5520  178.0210  145.7710 C   0  0  0  0  0  2  0  0  0  0  0  0
  187.8730  177.4210  143.3440 C   0  0  0  0  0  3  0  0  0  0  0  0
  189.0640  177.7780  145.9390 C   0  0  1  0  0  3  0  0  0  0  0  0
  190.6850  176.5420  147.4950 C   0  0  0  0  0  2  0  0  0  0  0  0
  189.3750  177.3310  147.3710 C   0  0  0  0  0  2  0  0  0  0  0  0
  186.9460  177.3500  144.5250 C   0  0  2  0  0  3  0  0  0  0  0  0
  191.1880  176.6720  145.0280 C   0  0  0  0  0  2  0  0  0  0  0  0
  189.6610  176.8160  144.8920 C   0  0  2  0  0  3  0  0  0  0  0  0
  191.6990  176.9770  146.4400 C   0  0  0  0  0  2  0  0  0  0  0  0
  183.5700  179.0750  144.8660 C   0  0  0  0  0  3  0  0  0  0  0  0
  185.1170  177.8180  142.8920 C   0  0  0  0  0  3  0  0  0  0  0  0
  181.3680  179.4160  141.9750 C   0  0  0  0  0  0  0  0  0  0  0  0
  181.8690  179.4920  143.2390 N   0  0  0  0  0  0  0  0  0  0  0  0
  183.0860  178.9780  143.5590 C   0  0  0  0  0  0  0  0  0  0  0  0
  183.3700  178.2540  141.2670 C   0  0  0  0  0  3  0  0  0  0  0  0
  183.8640  178.3430  142.5670 C   0  0  0  0  0  0  0  0  0  0  0  0
  182.1170  178.7920  140.9660 C   0  0  0  0  0  3  0  0  0  0  0  0
  185.6020  177.9180  144.2010 C   0  0  0  0  0  0  0  0  0  0  0  0
  184.8230  178.5450  145.1870 C   0  0  0  0  0  3  0  0  0  0  0  0
  179.6240  180.9870  142.3230 O   0  0  0  0  0  1  0  0  0  0  0  0
  180.0490  179.9930  141.6770 C   0  0  0  0  0  0  0  0  0  0  0  0
  179.2540  179.4320  140.6840 O   0  0  0  0  0  0  0  0  0  0  0  0
  190.4490  177.5710  139.7880 C   0  0  0  0  0  2  0  0  0  0  0  0
  188.3000  177.1800  140.7470 O   0  0  0  0  0  0  0  0  0  0  0  0
  191.9100  177.3830  140.1100 C   0  0  0  0  0  0  0  0  0  0  0  0
  192.3310  177.2470  141.3760 C   0  0  0  0  0  3  0  0  0  0  0  0
  189.5360  177.3170  140.9550 C   0  0  0  0  0  0  0  0  0  0  0  0
  191.3960  177.2100  142.5130 C   0  0  0  0  0  3  0  0  0  0  0  0
  190.0740  177.2550  142.3310 C   0  0  0  0  0  0  0  0  0  0  0  0
  193.0100  176.4220  137.9950 C   0  0  0  0  0  0  0  0  0  0  0  0
  193.9750  176.6130  137.0150 O   0  0  0  0  0  0  0  0  0  0  0  0
  192.2970  175.3840  137.9670 O   0  0  0  0  0  1  0  0  0  0  0  0
  192.8390  177.4150  139.0160 N   0  0  0  0  0  2  0  0  0  0  0  0
  1  9  1  0  0  0  0
  3  1  2  0  0  0  0
  3  7  1  0  0  0  0
  4  2  1  1  0  0  0
  4  6  1  0  0  0  0
  6  5  1  0  0  0  0
  7 19  1  6  0  0  0
  7  2  1  0  0  0  0
  8 10  1  0  0  0  0
  9  8  1  6  0  0  0
  9  4  1  0  0  0  0
 10  5  1  0  0  0  0
 11 20  1  0  0  0  0
 12 19  1  0  0  0  0
 13 14  2  0  0  0  0
 14 15  1  0  0  0  0
 15 11  2  0  0  0  0
 16 17  1  0  0  0  0
 17 12  2  0  0  0  0
 17 15  1  0  0  0  0
 18 16  2  0  0  0  0
 18 13  1  0  0  0  0
 19 20  2  0  0  0  0
 22 13  1  0  0  0  0
 22 21  1  0  0  0  0
 23 22  2  0  0  0  0
 24 26  1  0  0  0  0
 24 28  1  0  0  0  0
 25 28  2  0  0  0  0
 26 27  2  0  0  0  0
 27 29  1  0  0  0  0
 28 30  1  0  0  0  0
 30 29  2  0  0  0  0
 30  1  1  0  0  0  0
 31 34  1  0  0  0  0
 32 31  2  0  0  0  0
 33 31  1  0  0  0  0
 34 26  1  0  0  0  0
M  END
>  <MODEL>
3

>  <REMARK>
 VINA RESULT:      -9.9      3.949      8.375
  Name = 
  4 active torsions:
  status: ('A' for Active; 'I' for Inactive)
    1  A    between atoms: C_1  and  C_34
    2  A    between atoms: CA_7  and  C_15
    3  A    between atoms: C_18  and  C_30
    4  A    between atoms: C_23  and  N_25
                            x       y       z     vdW  Elec       q    Type
                         _______ _______ _______ _____ _____    ______ ____

>  <TORSDO>
F 4

$$$$
=
 OpenBabel11052415543D

 34 38  0  0  1  0  0  0  0  0999 V2000
  190.7360  176.7130  138.4310 C   0  0  0  0  0  0  0  0  0  0  0  0
  188.2730  177.5630  139.7430 C   0  0  0  0  0  2  0  0  0  0  0  0
  190.7230  176.9720  139.7410 C   0  0  0  0  0  3  0  0  0  0  0  0
  188.2790  177.2140  138.2430 C   0  0  1  0  0  3  0  0  0  0  0  0
  187.4850  178.1870  136.0060 C   0  0  0  0  0  2  0  0  0  0  0  0
  187.2040  178.0200  137.5050 C   0  0  0  0  0  2  0  0  0  0  0  0
  189.6670  177.8720  140.3180 C   0  0  2  0  0  3  0  0  0  0  0  0
  189.6530  176.9030  136.1030 C   0  0  0  0  0  2  0  0  0  0  0  0
  189.6620  177.3530  137.5760 C   0  0  2  0  0  3  0  0  0  0  0  0
  188.2700  177.0000  135.4520 C   0  0  0  0  0  2  0  0  0  0  0  0
  190.8410  177.8230  143.9390 C   0  0  0  0  0  3  0  0  0  0  0  0
  188.4410  177.7350  142.4890 C   0  0  0  0  0  3  0  0  0  0  0  0
  188.4220  177.6140  146.6630 C   0  0  0  0  0  0  0  0  0  0  0  0
  189.5930  177.6970  145.9740 N   0  0  0  0  0  0  0  0  0  0  0  0
  189.6220  177.7360  144.6150 C   0  0  0  0  0  0  0  0  0  0  0  0
  187.2050  177.6050  144.5710 C   0  0  0  0  0  3  0  0  0  0  0  0
  188.4150  177.6900  143.8840 C   0  0  0  0  0  0  0  0  0  0  0  0
  187.2050  177.5670  145.9670 C   0  0  0  0  0  3  0  0  0  0  0  0
  189.6620  177.8230  141.8120 C   0  0  0  0  0  0  0  0  0  0  0  0
  190.8620  177.8640  142.5420 C   0  0  0  0  0  3  0  0  0  0  0  0
  187.5550  176.9550  148.7720 O   0  0  0  0  0  0  0  0  0  0  0  0
  188.4420  177.5810  148.1340 C   0  0  0  0  0  0  0  0  0  0  0  0
  189.4380  178.2550  148.8300 O   0  0  0  0  0  1  0  0  0  0  0  0
  192.4690  173.6080  136.7160 C   0  0  0  0  0  2  0  0  0  0  0  0
  190.2830  173.9830  137.5930 O   0  0  0  0  0  0  0  0  0  0  0  0
  193.8790  174.1220  136.8680 C   0  0  0  0  0  0  0  0  0  0  0  0
  194.1250  175.3400  137.3730 C   0  0  0  0  0  3  0  0  0  0  0  0
  191.4410  174.4500  137.4220 C   0  0  0  0  0  0  0  0  0  0  0  0
  193.0480  176.2160  137.8660 C   0  0  0  0  0  3  0  0  0  0  0  0
  191.7740  175.8150  137.8830 C   0  0  0  0  0  0  0  0  0  0  0  0
  195.6820  172.3130  137.1480 C   0  0  0  0  0  0  0  0  0  0  0  0
  196.6970  171.5970  136.5280 O   0  0  0  0  0  0  0  0  0  0  0  0
  195.4230  172.0920  138.3610 O   0  0  0  0  0  1  0  0  0  0  0  0
  194.9440  173.2850  136.3950 N   0  0  0  0  0  2  0  0  0  0  0  0
  1  3  2  0  0  0  0
  2  7  1  0  0  0  0
  3  7  1  0  0  0  0
  4  6  1  6  0  0  0
  4  2  1  0  0  0  0
  5  6  1  0  0  0  0
  7 19  1  1  0  0  0
  9  8  1  6  0  0  0
  9  4  1  0  0  0  0
  9  1  1  0  0  0  0
 10  5  1  0  0  0  0
 10  8  1  0  0  0  0
 11 15  1  0  0  0  0
 12 17  1  0  0  0  0
 13 22  1  0  0  0  0
 14 13  1  0  0  0  0
 15 14  2  0  0  0  0
 16 18  1  0  0  0  0
 17 16  2  0  0  0  0
 17 15  1  0  0  0  0
 18 13  2  0  0  0  0
 19 12  2  0  0  0  0
 19 20  1  0  0  0  0
 20 11  2  0  0  0  0
 22 21  2  0  0  0  0
 22 23  1  0  0  0  0
 24 26  1  0  0  0  0
 24 28  1  0  0  0  0
 26 27  2  0  0  0  0
 27 29  1  0  0  0  0
 28 25  2  0  0  0  0
 28 30  1  0  0  0  0
 29 30  2  0  0  0  0
 30  1  1  0  0  0  0
 31 33  1  0  0  0  0
 32 31  2  0  0  0  0
 34 26  1  0  0  0  0
 34 31  1  0  0  0  0
M  END
>  <MODEL>
4

>  <REMARK>
 VINA RESULT:      -9.4      5.878      7.989
  Name = 
  4 active torsions:
  status: ('A' for Active; 'I' for Inactive)
    1  A    between atoms: C_1  and  C_34
    2  A    between atoms: CA_7  and  C_15
    3  A    between atoms: C_18  and  C_30
    4  A    between atoms: C_23  and  N_25
                            x       y       z     vdW  Elec       q    Type
                         _______ _______ _______ _____ _____    ______ ____

>  <TORSDO>
F 4

$$$$
=
 OpenBabel11052415543D

 34 38  0  0  1  0  0  0  0  0999 V2000
  189.0570  177.9080  141.3940 C   0  0  0  0  0  0  0  0  0  0  0  0
  187.1460  177.5980  139.2110 C   0  0  0  0  0  2  0  0  0  0  0  0
  187.7830  178.2740  141.5540 C   0  0  0  0  0  3  0  0  0  0  0  0
  188.6040  177.1280  139.0460 C   0  0  1  0  0  3  0  0  0  0  0  0
  190.5480  177.3330  137.3860 C   0  0  0  0  0  2  0  0  0  0  0  0
  189.0300  177.2210  137.5770 C   0  0  0  0  0  2  0  0  0  0  0  0
  186.9410  178.6070  140.3540 C   0  0  2  0  0  3  0  0  0  0  0  0
  191.0280  177.2840  139.8610 C   0  0  0  0  0  2  0  0  0  0  0  0
  189.5990  177.8450  139.9820 C   0  0  2  0  0  3  0  0  0  0  0  0
  191.3040  176.6230  138.5070 C   0  0  0  0  0  2  0  0  0  0  0  0
  183.1640  179.0020  140.0830 C   0  0  0  0  0  3  0  0  0  0  0  0
  185.1240  178.6890  142.0660 C   0  0  0  0  0  3  0  0  0  0  0  0
  181.0880  179.0210  143.0850 C   0  0  0  0  0  0  0  0  0  0  0  0
  181.4840  179.0630  141.7820 N   0  0  0  0  0  0  0  0  0  0  0  0
  182.7930  178.9570  141.4290 C   0  0  0  0  0  0  0  0  0  0  0  0
  183.3950  178.7570  143.7640 C   0  0  0  0  0  3  0  0  0  0  0  0
  183.7800  178.8020  142.4260 C   0  0  0  0  0  0  0  0  0  0  0  0
  182.0440  178.8670  144.0990 C   0  0  0  0  0  3  0  0  0  0  0  0
  185.4960  178.7320  140.7170 C   0  0  0  0  0  0  0  0  0  0  0  0
  184.5110  178.8920  139.7280 C   0  0  0  0  0  3  0  0  0  0  0  0
  178.9490  180.0300  142.8910 O   0  0  0  0  0  0  0  0  0  0  0  0
  179.6590  179.1330  143.4160 C   0  0  0  0  0  0  0  0  0  0  0  0
  179.0870  178.2530  144.3270 O   0  0  0  0  0  1  0  0  0  0  0  0
  190.9920  175.8270  144.1340 C   0  0  0  0  0  2  0  0  0  0  0  0
  189.3990  175.2420  142.4580 O   0  0  0  0  0  0  0  0  0  0  0  0
  191.4310  177.0210  144.9450 C   0  0  0  0  0  0  0  0  0  0  0  0
  191.1730  178.2720  144.5370 C   0  0  0  0  0  3  0  0  0  0  0  0
  190.0360  176.1700  143.0240 C   0  0  0  0  0  0  0  0  0  0  0  0
  190.3980  178.5540  143.3170 C   0  0  0  0  0  3  0  0  0  0  0  0
  189.8660  177.5720  142.5850 C   0  0  0  0  0  0  0  0  0  0  0  0
  191.6810  176.6490  147.4760 C   0  0  0  0  0  0  0  0  0  0  0  0
  192.5650  176.4160  148.5200 O   0  0  0  0  0  1  0  0  0  0  0  0
  190.4490  176.7450  147.7190 O   0  0  0  0  0  0  0  0  0  0  0  0
  192.1860  176.7690  146.1390 N   0  0  0  0  0  2  0  0  0  0  0  0
  1  3  2  0  0  0  0
  1 30  1  0  0  0  0
  2  7  1  0  0  0  0
  4  6  1  6  0  0  0
  4  2  1  0  0  0  0
  4  9  1  0  0  0  0
  5  6  1  0  0  0  0
  5 10  1  0  0  0  0
  7 19  1  1  0  0  0
  7  3  1  0  0  0  0
  9  8  1  1  0  0  0
  9  1  1  0  0  0  0
 10  8  1  0  0  0  0
 11 15  1  0  0  0  0
 12 17  1  0  0  0  0
 13 22  1  0  0  0  0
 13 18  1  0  0  0  0
 14 13  2  0  0  0  0
 15 14  1  0  0  0  0
 15 17  2  0  0  0  0
 16 18  2  0  0  0  0
 17 16  1  0  0  0  0
 19 12  2  0  0  0  0
 20 11  2  0  0  0  0
 20 19  1  0  0  0  0
 21 22  2  0  0  0  0
 22 23  1  0  0  0  0
 24 26  1  0  0  0  0
 25 28  2  0  0  0  0
 26 34  1  0  0  0  0
 27 26  2  0  0  0  0
 28 24  1  0  0  0  0
 29 27  1  0  0  0  0
 30 28  1  0  0  0  0
 30 29  2  0  0  0  0
 31 33  2  0  0  0  0
 31 32  1  0  0  0  0
 34 31  1  0  0  0  0
M  END
>  <MODEL>
5

>  <REMARK>
 VINA RESULT:      -9.3      3.514      9.505
  Name = 
  4 active torsions:
  status: ('A' for Active; 'I' for Inactive)
    1  A    between atoms: C_1  and  C_34
    2  A    between atoms: CA_7  and  C_15
    3  A    between atoms: C_18  and  C_30
    4  A    between atoms: C_23  and  N_25
                            x       y       z     vdW  Elec       q    Type
                         _______ _______ _______ _____ _____    ______ ____

>  <TORSDO>
F 4

$$$$
=
 OpenBabel11052415543D

 34 38  0  0  1  0  0  0  0  0999 V2000
  183.1850  178.0570  140.9820 C   0  0  0  0  0  0  0  0  0  0  0  0
  183.5690  178.4440  143.8480 C   0  0  0  0  0  2  0  0  0  0  0  0
  184.4080  177.9880  141.5150 C   0  0  0  0  0  3  0  0  0  0  0  0
  182.1550  178.4710  143.2380 C   0  0  1  0  0  3  0  0  0  0  0  0
  180.0390  179.9200  143.2730 C   0  0  0  0  0  2  0  0  0  0  0  0
  181.2380  179.3800  144.0640 C   0  0  0  0  0  2  0  0  0  0  0  0
  184.6960  178.6690  142.8240 C   0  0  2  0  0  3  0  0  0  0  0  0
  180.7130  178.7560  141.1400 C   0  0  0  0  0  2  0  0  0  0  0  0
  182.1290  178.8330  141.7400 C   0  0  2  0  0  3  0  0  0  0  0  0
  179.6060  178.9430  142.1820 C   0  0  0  0  0  2  0  0  0  0  0  0
  188.3130  177.5050  143.0540 C   0  0  0  0  0  3  0  0  0  0  0  0
  186.2130  178.2480  144.7610 C   0  0  0  0  0  3  0  0  0  0  0  0
  189.9250  177.1160  146.3060 C   0  0  0  0  0  0  0  0  0  0  0  0
  189.7050  177.1330  144.9620 N   0  0  0  0  0  0  0  0  0  0  0  0
  188.5040  177.4970  144.4380 C   0  0  0  0  0  0  0  0  0  0  0  0
  187.6510  177.8580  146.6740 C   0  0  0  0  0  3  0  0  0  0  0  0
  187.4460  177.8690  145.2960 C   0  0  0  0  0  0  0  0  0  0  0  0
  188.8950  177.4800  147.1850 C   0  0  0  0  0  3  0  0  0  0  0  0
  186.0230  178.2580  143.3740 C   0  0  0  0  0  0  0  0  0  0  0  0
  187.0760  177.8830  142.5230 C   0  0  0  0  0  3  0  0  0  0  0  0
  192.0130  176.0010  146.1330 O   0  0  0  0  0  0  0  0  0  0  0  0
  191.2430  176.7200  146.8240 C   0  0  0  0  0  0  0  0  0  0  0  0
  191.6430  177.1290  148.0900 O   0  0  0  0  0  1  0  0  0  0  0  0
  182.8100  177.3730  137.1130 C   0  0  0  0  0  2  0  0  0  0  0  0
  183.0350  179.3630  138.4080 O   0  0  0  0  0  0  0  0  0  0  0  0
  182.3430  175.9460  137.2580 C   0  0  0  0  0  0  0  0  0  0  0  0
  182.2830  175.3530  138.4600 C   0  0  0  0  0  3  0  0  0  0  0  0
  182.9190  178.1080  138.4200 C   0  0  0  0  0  0  0  0  0  0  0  0
  182.6020  176.0710  139.7040 C   0  0  0  0  0  3  0  0  0  0  0  0
  182.9170  177.3690  139.7010 C   0  0  0  0  0  0  0  0  0  0  0  0
  180.8760  174.4020  135.8200 C   0  0  0  0  0  0  0  0  0  0  0  0
  180.7360  173.7660  134.5940 O   0  0  0  0  0  0  0  0  0  0  0  0
  179.9890  174.2480  136.7000 O   0  0  0  0  0  1  0  0  0  0  0  0
  182.0250  175.2270  136.0570 N   0  0  0  0  0  2  0  0  0  0  0  0
  1  3  2  0  0  0  0
  1  9  1  0  0  0  0
  3  7  1  0  0  0  0
  4  2  1  1  0  0  0
  4  6  1  0  0  0  0
  5  6  1  0  0  0  0
  7 19  1  1  0  0  0
  7  2  1  0  0  0  0
  8 10  1  0  0  0  0
  9  8  1  6  0  0  0
  9  4  1  0  0  0  0
 10  5  1  0  0  0  0
 11 15  1  0  0  0  0
 12 17  1  0  0  0  0
 13 22  1  0  0  0  0
 13 18  1  0  0  0  0
 14 13  2  0  0  0  0
 15 14  1  0  0  0  0
 15 17  2  0  0  0  0
 16 18  2  0  0  0  0
 17 16  1  0  0  0  0
 19 12  2  0  0  0  0
 20 11  2  0  0  0  0
 20 19  1  0  0  0  0
 21 22  2  0  0  0  0
 22 23  1  0  0  0  0
 24 26  1  0  0  0  0
 24 28  1  0  0  0  0
 25 28  2  0  0  0  0
 26 27  2  0  0  0  0
 27 29  1  0  0  0  0
 28 30  1  0  0  0  0
 30 29  2  0  0  0  0
 30  1  1  0  0  0  0
 31 34  1  0  0  0  0
 31 33  1  0  0  0  0
 32 31  2  0  0  0  0
 34 26  1  0  0  0  0
M  END
>  <MODEL>
6

>  <REMARK>
 VINA RESULT:      -9.3      1.655      2.155
  Name = 
  4 active torsions:
  status: ('A' for Active; 'I' for Inactive)
    1  A    between atoms: C_1  and  C_34
    2  A    between atoms: CA_7  and  C_15
    3  A    between atoms: C_18  and  C_30
    4  A    between atoms: C_23  and  N_25
                            x       y       z     vdW  Elec       q    Type
                         _______ _______ _______ _____ _____    ______ ____

>  <TORSDO>
F 4

$$$$
=
 OpenBabel11052415543D

 34 38  0  0  1  0  0  0  0  0999 V2000
  184.8830  178.5910  141.1250 C   0  0  0  0  0  0  0  0  0  0  0  0
  187.0220  177.8530  142.9670 C   0  0  0  0  0  2  0  0  0  0  0  0
  186.1280  178.4100  140.6770 C   0  0  0  0  0  3  0  0  0  0  0  0
  185.5760  178.0120  143.4720 C   0  0  1  0  0  3  0  0  0  0  0  0
  184.2800  179.1720  145.3580 C   0  0  0  0  0  2  0  0  0  0  0  0
  185.5700  178.4550  144.9390 C   0  0  0  0  0  2  0  0  0  0  0  0
  187.2920  178.5440  141.6190 C   0  0  2  0  0  3  0  0  0  0  0  0
  183.2420  178.9890  143.0670 C   0  0  0  0  0  2  0  0  0  0  0  0
  184.7040  178.9290  142.5900 C   0  0  2  0  0  3  0  0  0  0  0  0
  183.0800  178.6700  144.5570 C   0  0  0  0  0  2  0  0  0  0  0  0
  190.8690  177.3140  141.1860 C   0  0  0  0  0  3  0  0  0  0  0  0
  188.6090  177.8540  139.6130 C   0  0  0  0  0  3  0  0  0  0  0  0
  192.1400  176.4570  137.8740 C   0  0  0  0  0  0  0  0  0  0  0  0
  192.0580  176.6620  139.2180 N   0  0  0  0  0  0  0  0  0  0  0  0
  190.9190  177.1170  139.8040 C   0  0  0  0  0  0  0  0  0  0  0  0
  189.8450  177.1880  137.6360 C   0  0  0  0  0  3  0  0  0  0  0  0
  189.7820  177.3910  139.0130 C   0  0  0  0  0  0  0  0  0  0  0  0
  191.0280  176.7190  137.0600 C   0  0  0  0  0  3  0  0  0  0  0  0
  188.5580  178.0490  140.9980 C   0  0  0  0  0  0  0  0  0  0  0  0
  189.6930  177.7810  141.7810 C   0  0  0  0  0  3  0  0  0  0  0  0
  194.1750  176.7410  136.6860 O   0  0  0  0  0  0  0  0  0  0  0  0
  193.3930  175.9580  137.2870 C   0  0  0  0  0  0  0  0  0  0  0  0
  193.7140  174.6090  137.3810 O   0  0  0  0  0  1  0  0  0  0  0  0
  182.4300  179.2150  138.0960 C   0  0  0  0  0  2  0  0  0  0  0  0
  184.1420  180.5290  139.1120 O   0  0  0  0  0  0  0  0  0  0  0  0
  181.4910  178.0820  138.4300 C   0  0  0  0  0  0  0  0  0  0  0  0
  181.7480  177.2410  139.4430 C   0  0  0  0  0  3  0  0  0  0  0  0
  183.4790  179.4570  139.1460 C   0  0  0  0  0  0  0  0  0  0  0  0
  182.9160  177.4090  140.3230 C   0  0  0  0  0  3  0  0  0  0  0  0
  183.7510  178.4420  140.1870 C   0  0  0  0  0  0  0  0  0  0  0  0
  180.2590  177.0990  136.4000 C   0  0  0  0  0  0  0  0  0  0  0  0
  179.0650  177.0510  135.6940 O   0  0  0  0  0  0  0  0  0  0  0  0
  181.2460  176.4320  135.9890 O   0  0  0  0  0  1  0  0  0  0  0  0
  180.3440  177.9010  137.5850 N   0  0  0  0  0  2  0  0  0  0  0  0
  1  9  1  0  0  0  0
  3  1  2  0  0  0  0
  3  7  1  0  0  0  0
  4  2  1  6  0  0  0
  4  6  1  0  0  0  0
  6  5  1  0  0  0  0
  7 19  1  6  0  0  0
  7  2  1  0  0  0  0
  8 10  1  0  0  0  0
  9  8  1  1  0  0  0
  9  4  1  0  0  0  0
 10  5  1  0  0  0  0
 11 20  1  0  0  0  0
 12 19  1  0  0  0  0
 13 14  2  0  0  0  0
 14 15  1  0  0  0  0
 15 11  2  0  0  0  0
 16 17  1  0  0  0  0
 17 12  2  0  0  0  0
 17 15  1  0  0  0  0
 18 16  2  0  0  0  0
 18 13  1  0  0  0  0
 19 20  2  0  0  0  0
 21 22  2  0  0  0  0
 22 23  1  0  0  0  0
 22 13  1  0  0  0  0
 24 26  1  0  0  0  0
 24 28  1  0  0  0  0
 25 28  2  0  0  0  0
 26 27  2  0  0  0  0
 27 29  1  0  0  0  0
 28 30  1  0  0  0  0
 30 29  2  0  0  0  0
 30  1  1  0  0  0  0
 31 34  1  0  0  0  0
 32 31  2  0  0  0  0
 33 31  1  0  0  0  0
 34 26  1  0  0  0  0
M  END
>  <MODEL>
7

>  <REMARK>
 VINA RESULT:      -9.2      4.377      5.732
  Name = 
  4 active torsions:
  status: ('A' for Active; 'I' for Inactive)
    1  A    between atoms: C_1  and  C_34
    2  A    between atoms: CA_7  and  C_15
    3  A    between atoms: C_18  and  C_30
    4  A    between atoms: C_23  and  N_25
                            x       y       z     vdW  Elec       q    Type
                         _______ _______ _______ _____ _____    ______ ____

>  <TORSDO>
F 4

$$$$
=
 OpenBabel11052415543D

 34 38  0  0  1  0  0  0  0  0999 V2000
  185.8920  178.6220  142.6590 C   0  0  0  0  0  0  0  0  0  0  0  0
  188.2410  177.4480  143.9300 C   0  0  0  0  0  2  0  0  0  0  0  0
  187.0220  178.4560  141.9670 C   0  0  0  0  0  3  0  0  0  0  0  0
  186.9200  177.5930  144.7100 C   0  0  1  0  0  3  0  0  0  0  0  0
  186.0690  178.4640  146.9670 C   0  0  0  0  0  2  0  0  0  0  0  0
  187.2030  177.7650  146.2070 C   0  0  0  0  0  2  0  0  0  0  0  0
  188.3360  178.3540  142.6900 C   0  0  2  0  0  3  0  0  0  0  0  0
  184.6450  178.7540  144.9070 C   0  0  0  0  0  2  0  0  0  0  0  0
  185.9940  178.7010  144.1680 C   0  0  2  0  0  3  0  0  0  0  0  0
  184.7120  178.1820  146.3270 C   0  0  0  0  0  2  0  0  0  0  0  0
  191.7470  177.2750  141.3860 C   0  0  0  0  0  3  0  0  0  0  0  0
  189.1480  177.7070  140.4190 C   0  0  0  0  0  3  0  0  0  0  0  0
  192.2000  176.4510  137.8590 C   0  0  0  0  0  0  0  0  0  0  0  0
  192.4420  176.6610  139.1830 N   0  0  0  0  0  0  0  0  0  0  0  0
  191.4630  177.0710  140.0330 C   0  0  0  0  0  0  0  0  0  0  0  0
  189.8880  177.0820  138.1960 C   0  0  0  0  0  3  0  0  0  0  0  0
  190.1570  177.2910  139.5480 C   0  0  0  0  0  0  0  0  0  0  0  0
  190.9110  176.6600  137.3450 C   0  0  0  0  0  3  0  0  0  0  0  0
  189.4310  177.9100  141.7750 C   0  0  0  0  0  0  0  0  0  0  0  0
  190.7340  177.6950  142.2540 C   0  0  0  0  0  3  0  0  0  0  0  0
  193.3160  174.8200  136.5460 O   0  0  0  0  0  0  0  0  0  0  0  0
  193.2900  176.0020  136.9810 C   0  0  0  0  0  0  0  0  0  0  0  0
  194.3100  176.8800  136.6350 O   0  0  0  0  0  1  0  0  0  0  0  0
  183.2700  178.9410  139.7260 C   0  0  0  0  0  2  0  0  0  0  0  0
  185.6180  179.3350  139.8710 O   0  0  0  0  0  0  0  0  0  0  0  0
  182.0490  178.8910  140.6110 C   0  0  0  0  0  0  0  0  0  0  0  0
  182.1570  178.6880  141.9320 C   0  0  0  0  0  3  0  0  0  0  0  0
  184.5640  179.0200  140.4870 C   0  0  0  0  0  0  0  0  0  0  0  0
  183.4610  178.5660  142.6030 C   0  0  0  0  0  3  0  0  0  0  0  0
  184.6080  178.7070  141.9320 C   0  0  0  0  0  0  0  0  0  0  0  0
  180.2000  180.1820  139.3790 C   0  0  0  0  0  0  0  0  0  0  0  0
  178.9310  180.1170  138.8210 O   0  0  0  0  0  0  0  0  0  0  0  0
  180.8350  181.2700  139.3440 O   0  0  0  0  0  1  0  0  0  0  0  0
  180.7660  179.0090  139.9780 N   0  0  0  0  0  2  0  0  0  0  0  0
  1  9  1  0  0  0  0
  3  1  2  0  0  0  0
  3  7  1  0  0  0  0
  4  2  1  6  0  0  0
  4  6  1  0  0  0  0
  6  5  1  0  0  0  0
  7 19  1  6  0  0  0
  7  2  1  0  0  0  0
  8 10  1  0  0  0  0
  9  4  1  0  0  0  0
  9  8  1  1  0  0  0
 10  5  1  0  0  0  0
 11 20  1  0  0  0  0
 12 19  1  0  0  0  0
 13 14  2  0  0  0  0
 14 15  1  0  0  0  0
 15 11  2  0  0  0  0
 16 17  1  0  0  0  0
 17 15  1  0  0  0  0
 17 12  2  0  0  0  0
 18 13  1  0  0  0  0
 18 16  2  0  0  0  0
 19 20  2  0  0  0  0
 21 22  2  0  0  0  0
 22 13  1  0  0  0  0
 23 22  1  0  0  0  0
 24 28  1  0  0  0  0
 24 26  1  0  0  0  0
 25 28  2  0  0  0  0
 26 27  2  0  0  0  0
 27 29  1  0  0  0  0
 28 30  1  0  0  0  0
 30 29  2  0  0  0  0
 30  1  1  0  0  0  0
 31 34  1  0  0  0  0
 32 31  2  0  0  0  0
 33 31  1  0  0  0  0
 34 26  1  0  0  0  0
M  END
>  <MODEL>
8

>  <REMARK>
 VINA RESULT:      -8.9      4.308      6.583
  Name = 
  4 active torsions:
  status: ('A' for Active; 'I' for Inactive)
    1  A    between atoms: C_1  and  C_34
    2  A    between atoms: CA_7  and  C_15
    3  A    between atoms: C_18  and  C_30
    4  A    between atoms: C_23  and  N_25
                            x       y       z     vdW  Elec       q    Type
                         _______ _______ _______ _____ _____    ______ ____

>  <TORSDO>
F 4

$$$$
=
 OpenBabel11052415543D

 34 38  0  0  1  0  0  0  0  0999 V2000
  182.5120  177.5620  139.6370 C   0  0  0  0  0  0  0  0  0  0  0  0
  182.2070  178.9720  142.1730 C   0  0  0  0  0  2  0  0  0  0  0  0
  183.5200  177.6010  140.5120 C   0  0  0  0  0  3  0  0  0  0  0  0
  181.0310  178.8800  141.1830 C   0  0  1  0  0  3  0  0  0  0  0  0
  179.2900  180.3990  140.0690 C   0  0  0  0  0  2  0  0  0  0  0  0
  180.1190  180.1040  141.3260 C   0  0  0  0  0  2  0  0  0  0  0  0
  183.5820  178.7020  141.5350 C   0  0  2  0  0  3  0  0  0  0  0  0
  180.2610  178.4650  138.7750 C   0  0  0  0  0  2  0  0  0  0  0  0
  181.4620  178.6490  139.7210 C   0  0  2  0  0  3  0  0  0  0  0  0
  178.9770  179.1200  139.2950 C   0  0  0  0  0  2  0  0  0  0  0  0
  186.8420  177.6660  143.2060 C   0  0  0  0  0  3  0  0  0  0  0  0
  184.3240  178.6770  143.9190 C   0  0  0  0  0  3  0  0  0  0  0  0
  187.2240  177.9180  146.8270 C   0  0  0  0  0  0  0  0  0  0  0  0
  187.4780  177.6800  145.5100 N   0  0  0  0  0  0  0  0  0  0  0  0
  186.5470  177.9200  144.5480 C   0  0  0  0  0  0  0  0  0  0  0  0
  185.0000  178.6750  146.2480 C   0  0  0  0  0  3  0  0  0  0  0  0
  185.2800  178.4260  144.9050 C   0  0  0  0  0  0  0  0  0  0  0  0
  185.9740  178.4220  147.2150 C   0  0  0  0  0  3  0  0  0  0  0  0
  184.6190  178.4240  142.5740 C   0  0  0  0  0  0  0  0  0  0  0  0
  185.8810  177.9150  142.2220 C   0  0  0  0  0  3  0  0  0  0  0  0
  188.1440  178.0770  149.0090 O   0  0  0  0  0  1  0  0  0  0  0  0
  188.2650  177.6500  147.8300 C   0  0  0  0  0  0  0  0  0  0  0  0
  189.4000  176.9300  147.4770 O   0  0  0  0  0  0  0  0  0  0  0  0
  183.3090  175.3390  136.4740 C   0  0  0  0  0  2  0  0  0  0  0  0
  183.8770  177.5720  137.0880 O   0  0  0  0  0  0  0  0  0  0  0  0
  182.2610  174.2920  136.7590 C   0  0  0  0  0  0  0  0  0  0  0  0
  181.5230  174.3350  137.8780 C   0  0  0  0  0  3  0  0  0  0  0  0
  183.2400  176.5280  137.3920 C   0  0  0  0  0  0  0  0  0  0  0  0
  181.6430  175.4290  138.8560 C   0  0  0  0  0  3  0  0  0  0  0  0
  182.4600  176.4650  138.6470 C   0  0  0  0  0  0  0  0  0  0  0  0
  182.6180  171.8770  135.9560 C   0  0  0  0  0  0  0  0  0  0  0  0
  182.4050  170.9640  134.9320 O   0  0  0  0  0  0  0  0  0  0  0  0
  183.2370  171.5120  136.9910 O   0  0  0  0  0  1  0  0  0  0  0  0
  182.1250  173.2170  135.8190 N   0  0  0  0  0  2  0  0  0  0  0  0
  1  9  1  0  0  0  0
  1  3  2  0  0  0  0
  3  7  1  0  0  0  0
  4  6  1  6  0  0  0
  4  2  1  0  0  0  0
  5  6  1  0  0  0  0
  7  2  1  0  0  0  0
  7 19  1  1  0  0  0
  8 10  1  0  0  0  0
  9  8  1  6  0  0  0
  9  4  1  0  0  0  0
 10  5  1  0  0  0  0
 11 15  1  0  0  0  0
 12 17  1  0  0  0  0
 13 18  1  0  0  0  0
 13 22  1  0  0  0  0
 14 13  2  0  0  0  0
 15 17  2  0  0  0  0
 15 14  1  0  0  0  0
 16 18  2  0  0  0  0
 17 16  1  0  0  0  0
 19 12  2  0  0  0  0
 20 19  1  0  0  0  0
 20 11  2  0  0  0  0
 22 21  1  0  0  0  0
 23 22  2  0  0  0  0
 24 26  1  0  0  0  0
 24 28  1  0  0  0  0
 25 28  2  0  0  0  0
 26 27  2  0  0  0  0
 27 29  1  0  0  0  0
 28 30  1  0  0  0  0
 30 29  2  0  0  0  0
 30  1  1  0  0  0  0
 31 33  1  0  0  0  0
 32 31  2  0  0  0  0
 34 31  1  0  0  0  0
 34 26  1  0  0  0  0
M  END
>  <MODEL>
9

>  <REMARK>
 VINA RESULT:      -8.6      2.063      3.084
  Name = 
  4 active torsions:
  status: ('A' for Active; 'I' for Inactive)
    1  A    between atoms: C_1  and  C_34
    2  A    between atoms: CA_7  and  C_15
    3  A    between atoms: C_18  and  C_30
    4  A    between atoms: C_23  and  N_25
                            x       y       z     vdW  Elec       q    Type
                         _______ _______ _______ _____ _____    ______ ____

>  <TORSDO>
F 4

$$$$
