=
 OpenBabel11052412493D

 25 29  0  0  0  0  0  0  0  0999 V2000
  186.9710  177.9220  144.9850 C   0  0  0  0  0  0  0  0  0  0  0  0
  188.1740  177.5980  144.3290 C   0  0  0  0  0  0  0  0  0  0  0  0
  188.0230  177.5060  147.1320 C   0  0  0  0  0  3  0  0  0  0  0  0
  185.7390  178.3130  144.4260 C   0  0  0  0  0  0  0  0  0  0  0  0
  183.1610  179.1110  143.6980 C   0  0  0  0  0  3  0  0  0  0  0  0
  189.1830  177.1950  146.4880 N   0  0  0  0  0  0  0  0  0  0  0  0
  184.7630  178.5540  145.3920 C   0  0  0  0  0  0  0  0  0  0  0  0
  183.4720  178.9520  145.0560 C   0  0  0  0  0  3  0  0  0  0  0  0
  190.5030  176.9000  144.5070 C   0  0  0  0  0  0  0  0  0  0  0  0
  191.6080  176.5370  145.2700 O   0  0  0  0  0  1  0  0  0  0  0  0
  188.3020  177.6280  142.9350 C   0  0  0  0  0  3  0  0  0  0  0  0
  184.1340  178.8710  142.7110 C   0  0  0  0  0  3  0  0  0  0  0  0
  186.9170  177.8700  146.3750 C   0  0  0  0  0  0  0  0  0  0  0  0
  185.3850  178.2950  146.9360 S   0  0  0  0  0  0  0  0  0  0  0  0
  190.6110  176.9360  143.1150 C   0  0  0  0  0  3  0  0  0  0  0  0
  185.4310  178.4700  143.0710 C   0  0  0  0  0  3  0  0  0  0  0  0
  189.5160  177.2990  142.3150 C   0  0  0  0  0  0  0  0  0  0  0  0
  189.2900  177.2290  145.1260 C   0  0  0  0  0  0  0  0  0  0  0  0
  188.8010  178.0380  138.6630 C   0  0  0  0  0  0  0  0  0  0  0  0
  189.6400  177.3340  140.8380 C   0  0  0  0  0  0  0  0  0  0  0  0
  188.6840  178.0040  140.0560 C   0  0  0  0  0  3  0  0  0  0  0  0
  187.8270  178.7200  137.8840 N   0  0  0  0  0  1  0  0  0  0  0  0
  190.7150  176.6960  140.1940 C   0  0  0  0  0  3  0  0  0  0  0  0
  189.8740  177.4000  138.0370 C   0  0  0  0  0  3  0  0  0  0  0  0
  190.8310  176.7290  138.8020 C   0  0  0  0  0  3  0  0  0  0  0  0
  1 13  1  0  0  0  0
  2  1  2  0  0  0  0
  2 18  1  0  0  0  0
  4  1  1  0  0  0  0
  4  7  1  0  0  0  0
  5  8  1  0  0  0  0
  6  3  1  0  0  0  0
  7 14  1  0  0  0  0
  8  7  2  0  0  0  0
  9 18  1  0  0  0  0
  9 10  1  0  0  0  0
 11  2  1  0  0  0  0
 12 16  1  0  0  0  0
 12  5  2  0  0  0  0
 13 14  1  0  0  0  0
 13  3  2  0  0  0  0
 15  9  2  0  0  0  0
 16  4  2  0  0  0  0
 17 11  2  0  0  0  0
 17 15  1  0  0  0  0
 18  6  2  0  0  0  0
 19 21  1  0  0  0  0
 20 17  1  0  0  0  0
 21 20  2  0  0  0  0
 22 19  1  0  0  0  0
 23 20  1  0  0  0  0
 24 19  2  0  0  0  0
 24 25  1  0  0  0  0
 25 23  2  0  0  0  0
M  END
>  <MODEL>
1

>  <REMARK>
 VINA RESULT:     -10.9      0.000      0.000
  Name = 
  1 active torsions:
  status: ('A' for Active; 'I' for Inactive)
    1  A    between atoms: C_6  and  C_23
                            x       y       z     vdW  Elec       q    Type
                         _______ _______ _______ _____ _____    ______ ____

>  <TORSDO>
F 1

$$$$
=
 OpenBabel11052412493D

 25 29  0  0  0  0  0  0  0  0999 V2000
  188.9840  177.6440  143.8970 C   0  0  0  0  0  0  0  0  0  0  0  0
  188.0060  177.9370  142.9280 C   0  0  0  0  0  0  0  0  0  0  0  0
  190.6870  177.5880  142.1670 C   0  0  0  0  0  3  0  0  0  0  0  0
  188.8300  177.4850  145.2870 C   0  0  0  0  0  0  0  0  0  0  0  0
  188.9230  177.1030  148.0550 C   0  0  0  0  0  3  0  0  0  0  0  0
  189.7310  177.8720  141.2380 N   0  0  0  0  0  0  0  0  0  0  0  0
  190.0330  177.1980  145.9320 C   0  0  0  0  0  0  0  0  0  0  0  0
  190.1060  177.0030  147.3080 C   0  0  0  0  0  3  0  0  0  0  0  0
  187.4710  178.3370  140.5840 C   0  0  0  0  0  0  0  0  0  0  0  0
  187.8540  178.4500  139.2520 O   0  0  0  0  0  1  0  0  0  0  0  0
  186.6560  178.1200  143.2550 C   0  0  0  0  0  3  0  0  0  0  0  0
  187.7020  177.3920  147.4190 C   0  0  0  0  0  3  0  0  0  0  0  0
  190.3070  177.4750  143.4990 C   0  0  0  0  0  0  0  0  0  0  0  0
  191.2970  177.1330  144.8200 S   0  0  0  0  0  0  0  0  0  0  0  0
  186.1290  178.5170  140.9300 C   0  0  0  0  0  3  0  0  0  0  0  0
  187.6490  177.5850  146.0300 C   0  0  0  0  0  3  0  0  0  0  0  0
  185.7070  178.4110  142.2640 C   0  0  0  0  0  0  0  0  0  0  0  0
  188.4180  178.0470  141.5750 C   0  0  0  0  0  0  0  0  0  0  0  0
  181.9460  178.8140  141.9630 C   0  0  0  0  0  0  0  0  0  0  0  0
  184.2810  178.6030  142.6220 C   0  0  0  0  0  0  0  0  0  0  0  0
  183.2910  178.6340  141.6250 C   0  0  0  0  0  3  0  0  0  0  0  0
  180.9550  178.8430  140.9440 N   0  0  0  0  0  1  0  0  0  0  0  0
  183.8950  178.7580  143.9650 C   0  0  0  0  0  3  0  0  0  0  0  0
  181.5770  178.9670  143.3010 C   0  0  0  0  0  3  0  0  0  0  0  0
  182.5510  178.9390  144.3020 C   0  0  0  0  0  3  0  0  0  0  0  0
  1  4  1  0  0  0  0
  2 11  1  0  0  0  0
  2  1  1  0  0  0  0
  3 13  1  0  0  0  0
  4  7  2  0  0  0  0
  4 16  1  0  0  0  0
  6 18  1  0  0  0  0
  6  3  2  0  0  0  0
  7  8  1  0  0  0  0
  8  5  2  0  0  0  0
  9 15  2  0  0  0  0
  9 18  1  0  0  0  0
 10  9  1  0  0  0  0
 12  5  1  0  0  0  0
 13  1  2  0  0  0  0
 13 14  1  0  0  0  0
 14  7  1  0  0  0  0
 15 17  1  0  0  0  0
 16 12  2  0  0  0  0
 17 20  1  0  0  0  0
 17 11  2  0  0  0  0
 18  2  2  0  0  0  0
 19 24  1  0  0  0  0
 20 23  2  0  0  0  0
 21 19  2  0  0  0  0
 21 20  1  0  0  0  0
 22 19  1  0  0  0  0
 23 25  1  0  0  0  0
 24 25  2  0  0  0  0
M  END
>  <MODEL>
2

>  <REMARK>
 VINA RESULT:     -10.7      2.835      6.062
  Name = 
  1 active torsions:
  status: ('A' for Active; 'I' for Inactive)
    1  A    between atoms: C_6  and  C_23
                            x       y       z     vdW  Elec       q    Type
                         _______ _______ _______ _____ _____    ______ ____

>  <TORSDO>
F 1

$$$$
=
 OpenBabel11052412493D

 25 29  0  0  0  0  0  0  0  0999 V2000
  189.2380  177.4760  143.5870 C   0  0  0  0  0  0  0  0  0  0  0  0
  188.0600  177.6970  144.3250 C   0  0  0  0  0  0  0  0  0  0  0  0
  190.4850  177.1980  145.6510 C   0  0  0  0  0  3  0  0  0  0  0  0
  189.4150  177.4630  142.1900 C   0  0  0  0  0  0  0  0  0  0  0  0
  190.1560  177.3580  139.4970 C   0  0  0  0  0  3  0  0  0  0  0  0
  189.3390  177.4130  146.3560 N   0  0  0  0  0  0  0  0  0  0  0  0
  190.7350  177.2080  141.8180 C   0  0  0  0  0  0  0  0  0  0  0  0
  191.1300  177.1510  140.4850 C   0  0  0  0  0  3  0  0  0  0  0  0
  186.9900  177.8750  146.5080 C   0  0  0  0  0  0  0  0  0  0  0  0
  187.0490  177.8410  147.8970 O   0  0  0  0  0  1  0  0  0  0  0  0
  186.8260  177.9500  143.7130 C   0  0  0  0  0  3  0  0  0  0  0  0
  188.8200  177.6160  139.8560 C   0  0  0  0  0  3  0  0  0  0  0  0
  190.4300  177.2300  144.2630 C   0  0  0  0  0  0  0  0  0  0  0  0
  191.7020  176.9960  143.1820 S   0  0  0  0  0  0  0  0  0  0  0  0
  185.7670  178.1250  145.8790 C   0  0  0  0  0  3  0  0  0  0  0  0
  188.4430  177.6700  141.2070 C   0  0  0  0  0  3  0  0  0  0  0  0
  185.6710  178.1660  144.4790 C   0  0  0  0  0  0  0  0  0  0  0  0
  188.1420  177.6580  145.7410 C   0  0  0  0  0  0  0  0  0  0  0  0
  183.0180  178.5950  141.8010 C   0  0  0  0  0  0  0  0  0  0  0  0
  184.3710  178.4320  143.8200 C   0  0  0  0  0  0  0  0  0  0  0  0
  184.2450  178.3440  142.4230 C   0  0  0  0  0  3  0  0  0  0  0  0
  182.9060  178.5020  140.3870 N   0  0  0  0  0  1  0  0  0  0  0  0
  183.2400  178.7800  144.5810 C   0  0  0  0  0  3  0  0  0  0  0  0
  181.9030  178.9390  142.5690 C   0  0  0  0  0  3  0  0  0  0  0  0
  182.0150  179.0310  143.9590 C   0  0  0  0  0  3  0  0  0  0  0  0
  1 13  1  0  0  0  0
  1  2  2  0  0  0  0
  2 18  1  0  0  0  0
  3  6  1  0  0  0  0
  4  1  1  0  0  0  0
  5 12  2  0  0  0  0
  5  8  1  0  0  0  0
  7  4  1  0  0  0  0
  7 14  1  0  0  0  0
  8  7  2  0  0  0  0
  9 10  1  0  0  0  0
 11  2  1  0  0  0  0
 11 17  2  0  0  0  0
 12 16  1  0  0  0  0
 13  3  2  0  0  0  0
 14 13  1  0  0  0  0
 15  9  2  0  0  0  0
 16  4  2  0  0  0  0
 17 15  1  0  0  0  0
 18  6  2  0  0  0  0
 18  9  1  0  0  0  0
 19 21  2  0  0  0  0
 19 24  1  0  0  0  0
 20 17  1  0  0  0  0
 20 23  2  0  0  0  0
 21 20  1  0  0  0  0
 22 19  1  0  0  0  0
 24 25  2  0  0  0  0
 25 23  1  0  0  0  0
M  END
>  <MODEL>
3

>  <REMARK>
 VINA RESULT:     -10.7      2.344      5.908
  Name = 
  1 active torsions:
  status: ('A' for Active; 'I' for Inactive)
    1  A    between atoms: C_6  and  C_23
                            x       y       z     vdW  Elec       q    Type
                         _______ _______ _______ _____ _____    ______ ____

>  <TORSDO>
F 1

$$$$
=
 OpenBabel11052412493D

 25 29  0  0  0  0  0  0  0  0999 V2000
  186.1150  178.3950  141.8980 C   0  0  0  0  0  0  0  0  0  0  0  0
  187.4750  178.0820  142.0850 C   0  0  0  0  0  0  0  0  0  0  0  0
  186.4740  178.5430  139.5020 C   0  0  0  0  0  3  0  0  0  0  0  0
  185.0990  178.5260  142.8630 C   0  0  0  0  0  0  0  0  0  0  0  0
  182.8360  178.8680  144.4680 C   0  0  0  0  0  3  0  0  0  0  0  0
  187.7880  178.2380  139.6940 N   0  0  0  0  0  0  0  0  0  0  0  0
  183.8630  178.8490  142.3030 C   0  0  0  0  0  0  0  0  0  0  0  0
  182.7220  179.0240  143.0790 C   0  0  0  0  0  3  0  0  0  0  0  0
  189.6650  177.6980  141.0870 C   0  0  0  0  0  0  0  0  0  0  0  0
  190.4970  177.6220  139.9750 O   0  0  0  0  0  1  0  0  0  0  0  0
  188.0240  177.8430  143.3510 C   0  0  0  0  0  3  0  0  0  0  0  0
  184.0750  178.5430  145.0500 C   0  0  0  0  0  3  0  0  0  0  0  0
  185.6390  178.6200  140.6090 C   0  0  0  0  0  0  0  0  0  0  0  0
  183.9920  178.9780  140.6280 S   0  0  0  0  0  0  0  0  0  0  0  0
  190.1940  177.4630  142.3580 C   0  0  0  0  0  3  0  0  0  0  0  0
  185.2150  178.3710  144.2480 C   0  0  0  0  0  3  0  0  0  0  0  0
  189.3830  177.5320  143.5020 C   0  0  0  0  0  0  0  0  0  0  0  0
  188.3070  178.0080  140.9380 C   0  0  0  0  0  0  0  0  0  0  0  0
  189.7860  177.4220  147.2720 C   0  0  0  0  0  0  0  0  0  0  0  0
  189.9520  177.2810  144.8470 C   0  0  0  0  0  0  0  0  0  0  0  0
  189.2490  177.6580  146.0040 C   0  0  0  0  0  3  0  0  0  0  0  0
  189.0630  177.8090  148.4340 N   0  0  0  0  0  1  0  0  0  0  0  0
  191.2070  176.6630  144.9890 C   0  0  0  0  0  3  0  0  0  0  0  0
  191.0330  176.8060  147.3990 C   0  0  0  0  0  3  0  0  0  0  0  0
  191.7430  176.4260  146.2580 C   0  0  0  0  0  3  0  0  0  0  0  0
  1  2  1  0  0  0  0
  1  4  1  0  0  0  0
  2 11  1  0  0  0  0
  3  6  2  0  0  0  0
  3 13  1  0  0  0  0
  4 16  1  0  0  0  0
  5 12  1  0  0  0  0
  6 18  1  0  0  0  0
  7  4  2  0  0  0  0
  7  8  1  0  0  0  0
  8  5  2  0  0  0  0
  9 15  2  0  0  0  0
 10  9  1  0  0  0  0
 11 17  2  0  0  0  0
 13 14  1  0  0  0  0
 13  1  2  0  0  0  0
 14  7  1  0  0  0  0
 15 17  1  0  0  0  0
 16 12  2  0  0  0  0
 17 20  1  0  0  0  0
 18  9  1  0  0  0  0
 18  2  2  0  0  0  0
 19 24  1  0  0  0  0
 19 22  1  0  0  0  0
 20 23  2  0  0  0  0
 20 21  1  0  0  0  0
 21 19  2  0  0  0  0
 23 25  1  0  0  0  0
 25 24  2  0  0  0  0
M  END
>  <MODEL>
4

>  <REMARK>
 VINA RESULT:     -10.6      2.239      5.314
  Name = 
  1 active torsions:
  status: ('A' for Active; 'I' for Inactive)
    1  A    between atoms: C_6  and  C_23
                            x       y       z     vdW  Elec       q    Type
                         _______ _______ _______ _____ _____    ______ ____

>  <TORSDO>
F 1

$$$$
=
 OpenBabel11052412493D

 25 29  0  0  0  0  0  0  0  0999 V2000
  187.4940  177.8760  145.7260 C   0  0  0  0  0  0  0  0  0  0  0  0
  186.6180  178.2090  144.6760 C   0  0  0  0  0  0  0  0  0  0  0  0
  185.7570  178.3830  147.3440 C   0  0  0  0  0  3  0  0  0  0  0  0
  188.8300  177.4380  145.6560 C   0  0  0  0  0  0  0  0  0  0  0  0
  191.4690  176.5550  145.9190 C   0  0  0  0  0  3  0  0  0  0  0  0
  184.9160  178.7030  146.3190 N   0  0  0  0  0  0  0  0  0  0  0  0
  189.3860  177.2030  146.9130 C   0  0  0  0  0  0  0  0  0  0  0  0
  190.6970  176.7630  147.0710 C   0  0  0  0  0  3  0  0  0  0  0  0
  184.4050  178.9680  143.9910 C   0  0  0  0  0  0  0  0  0  0  0  0
  183.1130  179.3820  144.2970 O   0  0  0  0  0  1  0  0  0  0  0  0
  186.9970  178.1390  143.3300 C   0  0  0  0  0  3  0  0  0  0  0  0
  190.9240  176.7880  144.6440 C   0  0  0  0  0  3  0  0  0  0  0  0
  187.0470  177.9690  147.0410 C   0  0  0  0  0  0  0  0  0  0  0  0
  188.2610  177.5240  148.1250 S   0  0  0  0  0  0  0  0  0  0  0  0
  184.8020  178.8910  142.6530 C   0  0  0  0  0  3  0  0  0  0  0  0
  189.5990  177.2320  144.5050 C   0  0  0  0  0  3  0  0  0  0  0  0
  186.0980  178.4780  142.3080 C   0  0  0  0  0  0  0  0  0  0  0  0
  185.3040  178.6290  145.0100 C   0  0  0  0  0  0  0  0  0  0  0  0
  188.2560  178.1790  139.2010 C   0  0  0  0  0  0  0  0  0  0  0  0
  186.5120  178.4000  140.8870 C   0  0  0  0  0  0  0  0  0  0  0  0
  187.8660  178.2530  140.5420 C   0  0  0  0  0  3  0  0  0  0  0  0
  189.6300  178.0300  138.8680 N   0  0  0  0  0  1  0  0  0  0  0  0
  185.5560  178.4730  139.8580 C   0  0  0  0  0  3  0  0  0  0  0  0
  187.2960  178.2530  138.1900 C   0  0  0  0  0  3  0  0  0  0  0  0
  185.9460  178.3990  138.5180 C   0  0  0  0  0  3  0  0  0  0  0  0
  1 13  2  0  0  0  0
  2 18  1  0  0  0  0
  2  1  1  0  0  0  0
  4  1  1  0  0  0  0
  4  7  1  0  0  0  0
  5  8  1  0  0  0  0
  6  3  2  0  0  0  0
  7  8  2  0  0  0  0
  7 14  1  0  0  0  0
  9 10  1  0  0  0  0
  9 18  2  0  0  0  0
 11  2  2  0  0  0  0
 12  5  2  0  0  0  0
 13  3  1  0  0  0  0
 13 14  1  0  0  0  0
 15  9  1  0  0  0  0
 16 12  1  0  0  0  0
 16  4  2  0  0  0  0
 17 15  2  0  0  0  0
 17 11  1  0  0  0  0
 18  6  1  0  0  0  0
 19 21  1  0  0  0  0
 20 17  1  0  0  0  0
 21 20  2  0  0  0  0
 22 19  1  0  0  0  0
 23 20  1  0  0  0  0
 24 25  1  0  0  0  0
 24 19  2  0  0  0  0
 25 23  2  0  0  0  0
M  END
>  <MODEL>
5

>  <REMARK>
 VINA RESULT:     -10.5      2.582      4.775
  Name = 
  1 active torsions:
  status: ('A' for Active; 'I' for Inactive)
    1  A    between atoms: C_6  and  C_23
                            x       y       z     vdW  Elec       q    Type
                         _______ _______ _______ _____ _____    ______ ____

>  <TORSDO>
F 1

$$$$
=
 OpenBabel11052412493D

 25 29  0  0  0  0  0  0  0  0999 V2000
  188.5860  177.6540  144.7730 C   0  0  0  0  0  0  0  0  0  0  0  0
  187.2100  177.9520  144.7950 C   0  0  0  0  0  0  0  0  0  0  0  0
  188.6140  177.5810  147.1990 C   0  0  0  0  0  3  0  0  0  0  0  0
  189.4380  177.5000  143.6620 C   0  0  0  0  0  0  0  0  0  0  0  0
  191.4210  177.1210  141.7290 C   0  0  0  0  0  3  0  0  0  0  0  0
  187.2820  177.8700  147.2090 N   0  0  0  0  0  0  0  0  0  0  0  0
  190.7500  177.2050  144.0290 C   0  0  0  0  0  0  0  0  0  0  0  0
  191.7560  177.0120  143.0870 C   0  0  0  0  0  3  0  0  0  0  0  0
  185.2010  178.3530  146.1170 C   0  0  0  0  0  0  0  0  0  0  0  0
  184.5550  178.4590  147.3440 O   0  0  0  0  0  1  0  0  0  0  0  0
  186.4640  178.1460  143.6250 C   0  0  0  0  0  3  0  0  0  0  0  0
  190.1010  177.4190  141.3420 C   0  0  0  0  0  3  0  0  0  0  0  0
  189.2630  177.4740  145.9750 C   0  0  0  0  0  0  0  0  0  0  0  0
  190.8910  177.1280  145.7060 S   0  0  0  0  0  0  0  0  0  0  0  0
  184.4740  178.5420  144.9390 C   0  0  0  0  0  3  0  0  0  0  0  0
  189.1010  177.6100  142.3090 C   0  0  0  0  0  3  0  0  0  0  0  0
  185.0950  178.4420  143.6840 C   0  0  0  0  0  0  0  0  0  0  0  0
  186.5700  178.0560  146.0570 C   0  0  0  0  0  0  0  0  0  0  0  0
  184.2340  179.0560  140.0400 C   0  0  0  0  0  0  0  0  0  0  0  0
  184.3160  178.6460  142.4390 C   0  0  0  0  0  0  0  0  0  0  0  0
  184.9680  178.8650  141.2140 C   0  0  0  0  0  3  0  0  0  0  0  0
  184.9080  179.2770  138.8070 N   0  0  0  0  0  1  0  0  0  0  0  0
  182.9100  178.6250  142.4630 C   0  0  0  0  0  3  0  0  0  0  0  0
  182.8380  179.0320  140.0780 C   0  0  0  0  0  3  0  0  0  0  0  0
  182.1760  178.8160  141.2890 C   0  0  0  0  0  3  0  0  0  0  0  0
  1  2  2  0  0  0  0
  1 13  1  0  0  0  0
  2 18  1  0  0  0  0
  3  6  1  0  0  0  0
  4  7  1  0  0  0  0
  4  1  1  0  0  0  0
  5  8  1  0  0  0  0
  7 14  1  0  0  0  0
  8  7  2  0  0  0  0
  9 10  1  0  0  0  0
 11 17  2  0  0  0  0
 11  2  1  0  0  0  0
 12  5  2  0  0  0  0
 12 16  1  0  0  0  0
 13  3  2  0  0  0  0
 14 13  1  0  0  0  0
 15  9  2  0  0  0  0
 16  4  2  0  0  0  0
 17 15  1  0  0  0  0
 18  9  1  0  0  0  0
 18  6  2  0  0  0  0
 19 24  2  0  0  0  0
 19 21  1  0  0  0  0
 20 23  1  0  0  0  0
 20 17  1  0  0  0  0
 21 20  2  0  0  0  0
 22 19  1  0  0  0  0
 24 25  1  0  0  0  0
 25 23  2  0  0  0  0
M  END
>  <MODEL>
6

>  <REMARK>
 VINA RESULT:     -10.5      2.441      5.559
  Name = 
  1 active torsions:
  status: ('A' for Active; 'I' for Inactive)
    1  A    between atoms: C_6  and  C_23
                            x       y       z     vdW  Elec       q    Type
                         _______ _______ _______ _____ _____    ______ ____

>  <TORSDO>
F 1

$$$$
=
 OpenBabel11052412493D

 25 29  0  0  0  0  0  0  0  0999 V2000
  185.2100  178.5200  141.5670 C   0  0  0  0  0  0  0  0  0  0  0  0
  186.5420  178.2610  141.9430 C   0  0  0  0  0  0  0  0  0  0  0  0
  185.8840  178.6270  139.2370 C   0  0  0  0  0  3  0  0  0  0  0  0
  184.0690  178.6360  142.3830 C   0  0  0  0  0  0  0  0  0  0  0  0
  181.6000  178.9300  143.6600 C   0  0  0  0  0  3  0  0  0  0  0  0
  187.1700  178.3750  139.6130 N   0  0  0  0  0  0  0  0  0  0  0  0
  182.9110  178.9000  141.6530 C   0  0  0  0  0  0  0  0  0  0  0  0
  181.6690  179.0510  142.2640 C   0  0  0  0  0  3  0  0  0  0  0  0
  188.8590  177.9360  141.2580 C   0  0  0  0  0  0  0  0  0  0  0  0
  189.8350  177.8640  140.2710 O   0  0  0  0  0  1  0  0  0  0  0  0
  186.9220  178.0710  143.2770 C   0  0  0  0  0  3  0  0  0  0  0  0
  182.7590  178.6640  144.4110 C   0  0  0  0  0  3  0  0  0  0  0  0
  184.9050  178.6990  140.2200 C   0  0  0  0  0  0  0  0  0  0  0  0
  183.2600  178.9970  140.0080 S   0  0  0  0  0  0  0  0  0  0  0  0
  189.2180  177.7480  142.5950 C   0  0  0  0  0  3  0  0  0  0  0  0
  184.0020  178.5160  143.7750 C   0  0  0  0  0  3  0  0  0  0  0  0
  188.2580  177.8140  143.6170 C   0  0  0  0  0  0  0  0  0  0  0  0
  187.5230  178.1920  140.9200 C   0  0  0  0  0  0  0  0  0  0  0  0
  190.3390  177.0900  146.7060 C   0  0  0  0  0  0  0  0  0  0  0  0
  188.6490  177.6140  145.0330 C   0  0  0  0  0  0  0  0  0  0  0  0
  189.9710  177.2780  145.3700 C   0  0  0  0  0  3  0  0  0  0  0  0
  191.6810  176.7500  147.0320 N   0  0  0  0  0  1  0  0  0  0  0  0
  187.7030  177.7570  146.0640 C   0  0  0  0  0  3  0  0  0  0  0  0
  189.3900  177.2350  147.7190 C   0  0  0  0  0  3  0  0  0  0  0  0
  188.0720  177.5690  147.3980 C   0  0  0  0  0  3  0  0  0  0  0  0
  1  2  1  0  0  0  0
  1  4  1  0  0  0  0
  2 11  1  0  0  0  0
  3  6  2  0  0  0  0
  3 13  1  0  0  0  0
  4 16  1  0  0  0  0
  5 12  1  0  0  0  0
  6 18  1  0  0  0  0
  7  8  1  0  0  0  0
  7  4  2  0  0  0  0
  8  5  2  0  0  0  0
  9 15  2  0  0  0  0
 10  9  1  0  0  0  0
 11 17  2  0  0  0  0
 13  1  2  0  0  0  0
 14 13  1  0  0  0  0
 14  7  1  0  0  0  0
 15 17  1  0  0  0  0
 16 12  2  0  0  0  0
 17 20  1  0  0  0  0
 18  9  1  0  0  0  0
 18  2  2  0  0  0  0
 19 22  1  0  0  0  0
 19 24  1  0  0  0  0
 20 21  1  0  0  0  0
 20 23  2  0  0  0  0
 21 19  2  0  0  0  0
 23 25  1  0  0  0  0
 25 24  2  0  0  0  0
M  END
>  <MODEL>
7

>  <REMARK>
 VINA RESULT:     -10.5      2.454      5.660
  Name = 
  1 active torsions:
  status: ('A' for Active; 'I' for Inactive)
    1  A    between atoms: C_6  and  C_23
                            x       y       z     vdW  Elec       q    Type
                         _______ _______ _______ _____ _____    ______ ____

>  <TORSDO>
F 1

$$$$
=
 OpenBabel11052412493D

 25 29  0  0  0  0  0  0  0  0999 V2000
  187.8390  177.7250  145.5490 C   0  0  0  0  0  0  0  0  0  0  0  0
  187.2330  177.9810  144.3050 C   0  0  0  0  0  0  0  0  0  0  0  0
  185.7560  178.2480  146.6790 C   0  0  0  0  0  3  0  0  0  0  0  0
  189.1630  177.3280  145.8200 C   0  0  0  0  0  0  0  0  0  0  0  0
  191.6800  176.5440  146.7480 C   0  0  0  0  0  3  0  0  0  0  0  0
  185.1780  178.4940  145.4690 N   0  0  0  0  0  0  0  0  0  0  0  0
  189.4070  177.1680  147.1840 C   0  0  0  0  0  0  0  0  0  0  0  0
  190.6510  176.7790  147.6720 C   0  0  0  0  0  3  0  0  0  0  0  0
  185.2320  178.6370  143.0750 C   0  0  0  0  0  0  0  0  0  0  0  0
  183.8970  179.0220  143.0450 O   0  0  0  0  0  1  0  0  0  0  0  0
  187.9240  177.8630  143.0930 C   0  0  0  0  0  3  0  0  0  0  0  0
  191.4500  176.7010  145.3690 C   0  0  0  0  0  3  0  0  0  0  0  0
  187.0900  177.8630  146.7140 C   0  0  0  0  0  0  0  0  0  0  0  0
  188.0180  177.5070  148.0750 S   0  0  0  0  0  0  0  0  0  0  0  0
  185.9390  178.5130  141.8760 C   0  0  0  0  0  3  0  0  0  0  0  0
  190.1880  177.0950  144.8980 C   0  0  0  0  0  3  0  0  0  0  0  0
  187.2880  178.1260  141.8700 C   0  0  0  0  0  0  0  0  0  0  0  0
  185.8690  178.3730  144.2950 C   0  0  0  0  0  0  0  0  0  0  0  0
  188.0950  178.1320  138.1630 C   0  0  0  0  0  0  0  0  0  0  0  0
  188.0310  177.9980  140.5940 C   0  0  0  0  0  0  0  0  0  0  0  0
  187.3950  178.2530  139.3670 C   0  0  0  0  0  3  0  0  0  0  0  0
  187.4380  178.3930  136.9290 N   0  0  0  0  0  1  0  0  0  0  0  0
  189.3840  177.6170  140.5880 C   0  0  0  0  0  3  0  0  0  0  0  0
  189.4390  177.7530  138.1720 C   0  0  0  0  0  3  0  0  0  0  0  0
  190.0840  177.4960  139.3850 C   0  0  0  0  0  3  0  0  0  0  0  0
  1  4  1  0  0  0  0
  1 13  2  0  0  0  0
  2  1  1  0  0  0  0
  3 13  1  0  0  0  0
  4  7  1  0  0  0  0
  5  8  1  0  0  0  0
  6  3  2  0  0  0  0
  7  8  2  0  0  0  0
  7 14  1  0  0  0  0
  9 18  2  0  0  0  0
 10  9  1  0  0  0  0
 11  2  2  0  0  0  0
 12  5  2  0  0  0  0
 13 14  1  0  0  0  0
 15  9  1  0  0  0  0
 16 12  1  0  0  0  0
 16  4  2  0  0  0  0
 17 15  2  0  0  0  0
 17 11  1  0  0  0  0
 18  2  1  0  0  0  0
 18  6  1  0  0  0  0
 19 24  2  0  0  0  0
 19 21  1  0  0  0  0
 20 17  1  0  0  0  0
 21 20  2  0  0  0  0
 22 19  1  0  0  0  0
 23 20  1  0  0  0  0
 24 25  1  0  0  0  0
 25 23  2  0  0  0  0
M  END
>  <MODEL>
8

>  <REMARK>
 VINA RESULT:     -10.3      2.295      4.394
  Name = 
  1 active torsions:
  status: ('A' for Active; 'I' for Inactive)
    1  A    between atoms: C_6  and  C_23
                            x       y       z     vdW  Elec       q    Type
                         _______ _______ _______ _____ _____    ______ ____

>  <TORSDO>
F 1

$$$$
=
 OpenBabel11052412493D

 25 29  0  0  0  0  0  0  0  0999 V2000
  187.5140  177.8800  144.3570 C   0  0  0  0  0  0  0  0  0  0  0  0
  188.4030  177.7480  143.2740 C   0  0  0  0  0  0  0  0  0  0  0  0
  189.2760  177.2250  145.8910 C   0  0  0  0  0  3  0  0  0  0  0  0
  186.1570  178.2590  144.3440 C   0  0  0  0  0  0  0  0  0  0  0  0
  183.4790  178.9660  144.7190 C   0  0  0  0  0  3  0  0  0  0  0  0
  190.1290  177.1000  144.8360 N   0  0  0  0  0  0  0  0  0  0  0  0
  185.5930  178.2800  145.6180 C   0  0  0  0  0  0  0  0  0  0  0  0
  184.2620  178.6280  145.8330 C   0  0  0  0  0  3  0  0  0  0  0  0
  190.6490  177.2050  142.4960 C   0  0  0  0  0  0  0  0  0  0  0  0
  191.9590  176.8130  142.7460 O   0  0  0  0  0  1  0  0  0  0  0  0
  188.0180  177.9970  141.9500 C   0  0  0  0  0  3  0  0  0  0  0  0
  184.0330  178.9490  143.4270 C   0  0  0  0  0  3  0  0  0  0  0  0
  187.9660  177.6160  145.6460 C   0  0  0  0  0  0  0  0  0  0  0  0
  186.7340  177.8380  146.7760 S   0  0  0  0  0  0  0  0  0  0  0  0
  190.2460  177.4580  141.1830 C   0  0  0  0  0  3  0  0  0  0  0  0
  185.3780  178.5950  143.2320 C   0  0  0  0  0  3  0  0  0  0  0  0
  188.9310  177.8550  140.8950 C   0  0  0  0  0  0  0  0  0  0  0  0
  189.7360  177.3470  143.5500 C   0  0  0  0  0  0  0  0  0  0  0  0
  186.7950  178.1290  137.7710 C   0  0  0  0  0  0  0  0  0  0  0  0
  188.5120  178.1210  139.4980 C   0  0  0  0  0  0  0  0  0  0  0  0
  187.1900  177.8780  139.0880 C   0  0  0  0  0  3  0  0  0  0  0  0
  185.4540  177.8780  137.3710 N   0  0  0  0  0  1  0  0  0  0  0  0
  189.4310  178.6210  138.5580 C   0  0  0  0  0  3  0  0  0  0  0  0
  187.7180  178.6260  136.8480 C   0  0  0  0  0  3  0  0  0  0  0  0
  189.0360  178.8720  137.2410 C   0  0  0  0  0  3  0  0  0  0  0  0
  1 13  2  0  0  0  0
  2 18  1  0  0  0  0
  2  1  1  0  0  0  0
  4  1  1  0  0  0  0
  4  7  1  0  0  0  0
  5  8  1  0  0  0  0
  6  3  2  0  0  0  0
  7  8  2  0  0  0  0
  7 14  1  0  0  0  0
  9 10  1  0  0  0  0
  9 18  2  0  0  0  0
 11  2  2  0  0  0  0
 12  5  2  0  0  0  0
 13  3  1  0  0  0  0
 13 14  1  0  0  0  0
 15  9  1  0  0  0  0
 16 12  1  0  0  0  0
 16  4  2  0  0  0  0
 17 15  2  0  0  0  0
 17 11  1  0  0  0  0
 18  6  1  0  0  0  0
 19 21  1  0  0  0  0
 20 17  1  0  0  0  0
 21 20  2  0  0  0  0
 22 19  1  0  0  0  0
 23 20  1  0  0  0  0
 24 25  1  0  0  0  0
 24 19  2  0  0  0  0
 25 23  2  0  0  0  0
M  END
>  <MODEL>
9

>  <REMARK>
 VINA RESULT:     -10.1      1.329      1.812
  Name = 
  1 active torsions:
  status: ('A' for Active; 'I' for Inactive)
    1  A    between atoms: C_6  and  C_23
                            x       y       z     vdW  Elec       q    Type
                         _______ _______ _______ _____ _____    ______ ____

>  <TORSDO>
F 1

$$$$
