=
 OpenBabel11052415413D

 34 38  0  0  1  0  0  0  0  0999 V2000
  187.6820  177.6440  144.6360 C   0  0  2  0  0  3  0  0  0  0  0  0
  183.9220  178.5260  145.2230 C   0  0  0  0  0  2  0  0  0  0  0  0
  182.8880  178.9270  141.8930 C   0  0  0  0  0  0  0  0  0  0  0  0
  185.7960  178.3260  146.7160 O   0  0  0  0  0  0  0  0  0  0  0  0
  189.4340  177.6810  146.4630 C   0  0  0  0  0  3  0  0  0  0  0  0
  188.8460  178.0680  148.7780 C   0  0  0  0  0  3  0  0  0  0  0  0
  183.2440  178.6890  140.7080 O   0  0  0  0  0  0  0  0  0  0  0  0
  189.8110  177.8060  147.8020 C   0  0  0  0  0  3  0  0  0  0  0  0
  187.1290  178.1200  147.0710 C   0  0  0  0  0  0  0  0  0  0  0  0
  188.0890  177.8130  146.0880 C   0  0  0  0  0  0  0  0  0  0  0  0
  187.5080  178.2260  148.4130 C   0  0  0  0  0  3  0  0  0  0  0  0
  183.4360  179.5870  144.2450 C   0  0  0  0  0  2  0  0  0  0  0  0
  181.5400  178.8540  142.2270 O   0  0  0  0  0  1  0  0  0  0  0  0
  183.8610  179.2760  142.8860 N   0  0  0  0  0  0  0  0  0  0  0  0
  185.2850  179.2450  142.5690 C   0  0  0  0  0  2  0  0  0  0  0  0
  185.4330  178.6100  145.3700 C   0  0  1  0  0  3  0  0  0  0  0  0
  185.8500  177.8720  142.9130 C   0  0  0  0  0  2  0  0  0  0  0  0
  186.1580  177.6540  144.4070 C   0  0  1  0  0  3  0  0  0  0  0  0
  188.3010  176.3860  144.0110 C   0  0  0  0  0  2  0  0  0  0  0  0
  189.7440  176.6160  143.5690 C   0  0  0  0  0  2  0  0  0  0  0  0
  189.8870  177.9410  142.8340 C   0  0  0  0  0  2  0  0  0  0  0  0
  190.4240  177.0250  139.2240 N   0  0  0  0  0  0  0  0  0  0  0  0
  188.4430  178.1560  140.8000 C   0  0  0  0  0  3  0  0  0  0  0  0
  187.8230  177.5610  136.6910 C   0  0  0  0  0  0  0  0  0  0  0  0
  189.0380  177.1840  137.2830 C   0  0  0  0  0  3  0  0  0  0  0  0
  189.2450  177.3860  138.6500 C   0  0  0  0  0  0  0  0  0  0  0  0
  187.0200  178.3450  138.8470 C   0  0  0  0  0  3  0  0  0  0  0  0
  188.2280  177.9690  139.4360 C   0  0  0  0  0  0  0  0  0  0  0  0
  186.8200  178.1420  137.4780 C   0  0  0  0  0  3  0  0  0  0  0  0
  189.6600  177.7690  141.3680 C   0  0  0  0  0  0  0  0  0  0  0  0
  190.6500  177.2050  140.5540 C   0  0  0  0  0  3  0  0  0  0  0  0
  187.5930  177.3430  135.2550 C   0  0  0  0  0  0  0  0  0  0  0  0
  186.6620  178.0750  134.5950 F   0  0  0  0  0  0  0  0  0  0  0  0
  188.2560  176.4760  134.6240 O   0  0  0  0  0  0  0  0  0  0  0  0
  1 19  1  1  0  0  0
  1 10  1  0  0  0  0
  3 13  1  0  0  0  0
  3 14  1  0  0  0  0
  4  9  1  0  0  0  0
  5  8  1  0  0  0  0
  7  3  2  0  0  0  0
  8  6  2  0  0  0  0
  9 11  2  0  0  0  0
 10  5  2  0  0  0  0
 10  9  1  0  0  0  0
 11  6  1  0  0  0  0
 12  2  1  0  0  0  0
 14 12  1  0  0  0  0
 15 14  1  0  0  0  0
 15 17  1  0  0  0  0
 16  2  1  1  0  0  0
 16  4  1  0  0  0  0
 18 17  1  6  0  0  0
 18  1  1  0  0  0  0
 18 16  1  0  0  0  0
 20 19  1  0  0  0  0
 21 20  1  0  0  0  0
 22 31  1  0  0  0  0
 23 30  1  0  0  0  0
 24 25  2  0  0  0  0
 24 29  1  0  0  0  0
 25 26  1  0  0  0  0
 26 22  2  0  0  0  0
 26 28  1  0  0  0  0
 27 28  1  0  0  0  0
 28 23  2  0  0  0  0
 29 27  2  0  0  0  0
 30 21  1  0  0  0  0
 31 30  2  0  0  0  0
 32 24  1  0  0  0  0
 33 32  1  0  0  0  0
 34 32  2  0  0  0  0
M  END
>  <MODEL>
1

>  <REMARK>
 VINA RESULT:     -10.2      0.000      0.000
  Name = 
  5 active torsions:
  status: ('A' for Active; 'I' for Inactive)
    1  A    between atoms: C_1  and  C_9
    2  A    between atoms: C_7  and  C_11
    3  A    between atoms: C_8  and  C_9
    4  A    between atoms: C_8  and  C_18
    5  A    between atoms: C_18  and  C_30
                            x       y       z     vdW  Elec       q    Type
                         _______ _______ _______ _____ _____    ______ ____

>  <TORSDO>
F 5

$$$$
=
 OpenBabel11052415413D

 34 38  0  0  1  0  0  0  0  0999 V2000
  184.9460  178.3680  141.7470 C   0  0  2  0  0  3  0  0  0  0  0  0
  183.2040  179.1160  138.3310 C   0  0  0  0  0  2  0  0  0  0  0  0
  179.8510  178.6990  139.2820 C   0  0  0  0  0  0  0  0  0  0  0  0
  185.5040  178.7690  138.9410 O   0  0  0  0  0  0  0  0  0  0  0  0
  187.4220  177.8980  141.9860 C   0  0  0  0  0  3  0  0  0  0  0  0
  188.9390  178.0920  140.1100 C   0  0  0  0  0  3  0  0  0  0  0  0
  179.1110  178.6150  140.2970 O   0  0  0  0  0  1  0  0  0  0  0  0
  188.7150  177.8210  141.4620 C   0  0  0  0  0  3  0  0  0  0  0  0
  186.5690  178.4830  139.7940 C   0  0  0  0  0  0  0  0  0  0  0  0
  186.3420  178.2530  141.1640 C   0  0  0  0  0  0  0  0  0  0  0  0
  187.8670  178.4220  139.2770 C   0  0  0  0  0  3  0  0  0  0  0  0
  182.0040  178.2060  138.1030 C   0  0  0  0  0  2  0  0  0  0  0  0
  179.3740  179.3380  138.1430 O   0  0  0  0  0  0  0  0  0  0  0  0
  181.1690  178.1370  139.2960 N   0  0  0  0  0  0  0  0  0  0  0  0
  181.7160  177.5650  140.5220 C   0  0  0  0  0  2  0  0  0  0  0  0
  184.1650  178.4680  139.3160 C   0  0  1  0  0  3  0  0  0  0  0  0
  182.4780  178.6400  141.2860 C   0  0  0  0  0  2  0  0  0  0  0  0
  183.8990  178.9240  140.7610 C   0  0  1  0  0  3  0  0  0  0  0  0
  184.9340  179.1850  143.0460 C   0  0  0  0  0  2  0  0  0  0  0  0
  184.5390  178.3380  144.2520 C   0  0  0  0  0  2  0  0  0  0  0  0
  184.8620  179.0550  145.5550 C   0  0  0  0  0  2  0  0  0  0  0  0
  187.5990  178.1990  147.9920 N   0  0  0  0  0  0  0  0  0  0  0  0
  187.1500  178.0840  145.2580 C   0  0  0  0  0  3  0  0  0  0  0  0
  190.7670  176.7120  146.8880 C   0  0  0  0  0  0  0  0  0  0  0  0
  189.7680  177.2310  147.7250 C   0  0  0  0  0  3  0  0  0  0  0  0
  188.5660  177.6920  147.1820 C   0  0  0  0  0  0  0  0  0  0  0  0
  189.3520  177.1150  144.9540 C   0  0  0  0  0  3  0  0  0  0  0  0
  188.3580  177.6310  145.7870 C   0  0  0  0  0  0  0  0  0  0  0  0
  190.5530  176.6590  145.5040 C   0  0  0  0  0  3  0  0  0  0  0  0
  186.1690  178.5940  146.1120 C   0  0  0  0  0  0  0  0  0  0  0  0
  186.4170  178.6490  147.4890 C   0  0  0  0  0  3  0  0  0  0  0  0
  192.0320  176.2160  147.4530 C   0  0  0  0  0  0  0  0  0  0  0  0
  192.6920  175.1950  146.8530 F   0  0  0  0  0  0  0  0  0  0  0  0
  192.5130  176.7320  148.4980 O   0  0  0  0  0  0  0  0  0  0  0  0
  1 19  1  1  0  0  0
  3 14  1  0  0  0  0
  3  7  1  0  0  0  0
  4 16  1  0  0  0  0
  4  9  1  0  0  0  0
  6  8  2  0  0  0  0
  8  5  1  0  0  0  0
  9 10  1  0  0  0  0
 10  1  1  0  0  0  0
 10  5  2  0  0  0  0
 11  9  2  0  0  0  0
 11  6  1  0  0  0  0
 12  2  1  0  0  0  0
 12 14  1  0  0  0  0
 13  3  2  0  0  0  0
 14 15  1  0  0  0  0
 15 17  1  0  0  0  0
 16  2  1  6  0  0  0
 16 18  1  0  0  0  0
 18 17  1  1  0  0  0
 18  1  1  0  0  0  0
 19 20  1  0  0  0  0
 20 21  1  0  0  0  0
 21 30  1  0  0  0  0
 23 28  2  0  0  0  0
 23 30  1  0  0  0  0
 24 32  1  0  0  0  0
 24 25  2  0  0  0  0
 26 25  1  0  0  0  0
 26 22  2  0  0  0  0
 27 29  2  0  0  0  0
 27 28  1  0  0  0  0
 28 26  1  0  0  0  0
 29 24  1  0  0  0  0
 30 31  2  0  0  0  0
 31 22  1  0  0  0  0
 32 34  2  0  0  0  0
 33 32  1  0  0  0  0
M  END
>  <MODEL>
2

>  <REMARK>
 VINA RESULT:      -9.9      3.737      7.620
  Name = 
  5 active torsions:
  status: ('A' for Active; 'I' for Inactive)
    1  A    between atoms: C_1  and  C_9
    2  A    between atoms: C_7  and  C_11
    3  A    between atoms: C_8  and  C_9
    4  A    between atoms: C_8  and  C_18
    5  A    between atoms: C_18  and  C_30
                            x       y       z     vdW  Elec       q    Type
                         _______ _______ _______ _____ _____    ______ ____

>  <TORSDO>
F 5

$$$$
=
 OpenBabel11052415413D

 34 38  0  0  1  0  0  0  0  0999 V2000
  187.6170  177.5330  144.3560 C   0  0  2  0  0  3  0  0  0  0  0  0
  183.9210  178.5950  145.0470 C   0  0  0  0  0  2  0  0  0  0  0  0
  182.8040  179.0060  141.7450 C   0  0  0  0  0  0  0  0  0  0  0  0
  185.8300  178.3250  146.4830 O   0  0  0  0  0  0  0  0  0  0  0  0
  189.4240  177.5100  146.1270 C   0  0  0  0  0  3  0  0  0  0  0  0
  188.9280  177.9500  148.4550 C   0  0  0  0  0  3  0  0  0  0  0  0
  183.1110  178.7380  140.5530 O   0  0  0  0  0  0  0  0  0  0  0  0
  189.8490  177.6320  147.4530 C   0  0  0  0  0  3  0  0  0  0  0  0
  187.1620  178.0620  146.8000 C   0  0  0  0  0  0  0  0  0  0  0  0
  188.0760  177.7000  145.7920 C   0  0  0  0  0  0  0  0  0  0  0  0
  187.5870  178.1660  148.1290 C   0  0  0  0  0  3  0  0  0  0  0  0
  183.4540  179.6660  144.0710 C   0  0  0  0  0  2  0  0  0  0  0  0
  181.4650  178.9990  142.1210 O   0  0  0  0  0  1  0  0  0  0  0  0
  183.8220  179.3210  142.7040 N   0  0  0  0  0  0  0  0  0  0  0  0
  185.2320  179.2200  142.3440 C   0  0  0  0  0  2  0  0  0  0  0  0
  185.4380  178.6100  145.1460 C   0  0  1  0  0  3  0  0  0  0  0  0
  185.7440  177.8270  142.6870 C   0  0  0  0  0  2  0  0  0  0  0  0
  186.0880  177.6110  144.1730 C   0  0  1  0  0  3  0  0  0  0  0  0
  188.1580  176.2410  143.7280 C   0  0  0  0  0  2  0  0  0  0  0  0
  189.4860  176.4650  143.0100 C   0  0  0  0  0  2  0  0  0  0  0  0
  189.3330  177.4660  141.8750 C   0  0  0  0  0  2  0  0  0  0  0  0
  192.6900  177.2810  140.1860 N   0  0  0  0  0  0  0  0  0  0  0  0
  190.0290  176.8190  139.5590 C   0  0  0  0  0  3  0  0  0  0  0  0
  193.0400  176.1730  136.7050 C   0  0  0  0  0  0  0  0  0  0  0  0
  193.3720  176.6230  137.9920 C   0  0  0  0  0  3  0  0  0  0  0  0
  192.3700  176.8420  138.9400 C   0  0  0  0  0  0  0  0  0  0  0  0
  190.6890  176.1610  137.3200 C   0  0  0  0  0  3  0  0  0  0  0  0
  191.0200  176.6070  138.6010 C   0  0  0  0  0  0  0  0  0  0  0  0
  191.6960  175.9470  136.3760 C   0  0  0  0  0  3  0  0  0  0  0  0
  190.3860  177.2630  140.8350 C   0  0  0  0  0  0  0  0  0  0  0  0
  191.7340  177.4960  141.1300 C   0  0  0  0  0  3  0  0  0  0  0  0
  194.0900  175.9320  135.7040 C   0  0  0  0  0  0  0  0  0  0  0  0
  193.9320  174.9600  134.7710 F   0  0  0  0  0  0  0  0  0  0  0  0
  195.1450  176.6210  135.7020 O   0  0  0  0  0  0  0  0  0  0  0  0
  1 19  1  1  0  0  0
  1 10  1  0  0  0  0
  3 13  1  0  0  0  0
  3 14  1  0  0  0  0
  4  9  1  0  0  0  0
  5  8  1  0  0  0  0
  7  3  2  0  0  0  0
  8  6  2  0  0  0  0
  9 11  2  0  0  0  0
 10  5  2  0  0  0  0
 10  9  1  0  0  0  0
 11  6  1  0  0  0  0
 12  2  1  0  0  0  0
 14 12  1  0  0  0  0
 15 17  1  0  0  0  0
 15 14  1  0  0  0  0
 16  2  1  1  0  0  0
 16  4  1  0  0  0  0
 18 17  1  6  0  0  0
 18  1  1  0  0  0  0
 18 16  1  0  0  0  0
 20 19  1  0  0  0  0
 21 20  1  0  0  0  0
 22 31  1  0  0  0  0
 23 30  1  0  0  0  0
 24 25  2  0  0  0  0
 25 26  1  0  0  0  0
 26 22  2  0  0  0  0
 27 28  1  0  0  0  0
 28 26  1  0  0  0  0
 28 23  2  0  0  0  0
 29 24  1  0  0  0  0
 29 27  2  0  0  0  0
 30 31  2  0  0  0  0
 30 21  1  0  0  0  0
 32 24  1  0  0  0  0
 33 32  1  0  0  0  0
 34 32  2  0  0  0  0
M  END
>  <MODEL>
3

>  <REMARK>
 VINA RESULT:      -9.9      2.466      2.936
  Name = 
  5 active torsions:
  status: ('A' for Active; 'I' for Inactive)
    1  A    between atoms: C_1  and  C_9
    2  A    between atoms: C_7  and  C_11
    3  A    between atoms: C_8  and  C_9
    4  A    between atoms: C_8  and  C_18
    5  A    between atoms: C_18  and  C_30
                            x       y       z     vdW  Elec       q    Type
                         _______ _______ _______ _____ _____    ______ ____

>  <TORSDO>
F 5

$$$$
=
 OpenBabel11052415413D

 34 38  0  0  1  0  0  0  0  0999 V2000
  185.2060  178.7890  140.7260 C   0  0  2  0  0  3  0  0  0  0  0  0
  187.6370  177.1940  138.1160 C   0  0  0  0  0  2  0  0  0  0  0  0
  190.6420  177.3940  139.9180 C   0  0  0  0  0  0  0  0  0  0  0  0
  185.3480  177.9180  137.9760 O   0  0  0  0  0  0  0  0  0  0  0  0
  182.8680  179.5800  140.1650 C   0  0  0  0  0  3  0  0  0  0  0  0
  181.8880  179.2030  137.9850 C   0  0  0  0  0  3  0  0  0  0  0  0
  191.0930  177.5870  141.0790 O   0  0  0  0  0  1  0  0  0  0  0  0
  181.7900  179.7050  139.2850 C   0  0  0  0  0  3  0  0  0  0  0  0
  184.1590  178.4850  138.4300 C   0  0  0  0  0  0  0  0  0  0  0  0
  184.0520  178.9500  139.7550 C   0  0  0  0  0  0  0  0  0  0  0  0
  183.0710  178.5960  137.5580 C   0  0  0  0  0  3  0  0  0  0  0  0
  188.9880  177.8960  138.1070 C   0  0  0  0  0  2  0  0  0  0  0  0
  191.2890  176.4940  139.0780 O   0  0  0  0  0  0  0  0  0  0  0  0
  189.4790  178.0980  139.4650 N   0  0  0  0  0  0  0  0  0  0  0  0
  188.7320  178.9560  140.3780 C   0  0  0  0  0  2  0  0  0  0  0  0
  186.5720  178.1270  138.6700 C   0  0  1  0  0  3  0  0  0  0  0  0
  187.6280  178.1460  141.0450 C   0  0  0  0  0  2  0  0  0  0  0  0
  186.3680  177.9340  140.1830 C   0  0  1  0  0  3  0  0  0  0  0  0
  184.7400  178.2440  142.0840 C   0  0  0  0  0  2  0  0  0  0  0  0
  184.8160  179.3000  143.1820 C   0  0  0  0  0  2  0  0  0  0  0  0
  184.5450  178.6890  144.5500 C   0  0  0  0  0  2  0  0  0  0  0  0
  187.0690  177.9780  147.2490 N   0  0  0  0  0  0  0  0  0  0  0  0
  186.9290  177.9280  144.4800 C   0  0  0  0  0  3  0  0  0  0  0  0
  190.4570  176.8090  146.4610 C   0  0  0  0  0  0  0  0  0  0  0  0
  189.3320  177.2100  147.1970 C   0  0  0  0  0  3  0  0  0  0  0  0
  188.1590  177.5860  146.5370 C   0  0  0  0  0  0  0  0  0  0  0  0
  189.2280  177.1620  144.3950 C   0  0  0  0  0  3  0  0  0  0  0  0
  188.1080  177.5600  145.1270 C   0  0  0  0  0  0  0  0  0  0  0  0
  190.3990  176.7900  145.0610 C   0  0  0  0  0  3  0  0  0  0  0  0
  185.8200  178.3200  145.2340 C   0  0  0  0  0  0  0  0  0  0  0  0
  185.9120  178.3440  146.6310 C   0  0  0  0  0  3  0  0  0  0  0  0
  191.6920  176.4020  147.1480 C   0  0  0  0  0  0  0  0  0  0  0  0
  192.4110  175.3470  146.6910 F   0  0  0  0  0  0  0  0  0  0  0  0
  192.0950  177.0270  148.1660 O   0  0  0  0  0  0  0  0  0  0  0  0
  1 19  1  1  0  0  0
  3  7  1  0  0  0  0
  4  9  1  0  0  0  0
  4 16  1  0  0  0  0
  6  8  1  0  0  0  0
  8  5  2  0  0  0  0
  9 10  2  0  0  0  0
 10  5  1  0  0  0  0
 10  1  1  0  0  0  0
 11  6  2  0  0  0  0
 11  9  1  0  0  0  0
 12  2  1  0  0  0  0
 12 14  1  0  0  0  0
 13  3  2  0  0  0  0
 14  3  1  0  0  0  0
 14 15  1  0  0  0  0
 15 17  1  0  0  0  0
 16  2  1  6  0  0  0
 16 18  1  0  0  0  0
 18  1  1  0  0  0  0
 18 17  1  1  0  0  0
 19 20  1  0  0  0  0
 20 21  1  0  0  0  0
 21 30  1  0  0  0  0
 23 28  2  0  0  0  0
 23 30  1  0  0  0  0
 24 32  1  0  0  0  0
 24 25  2  0  0  0  0
 26 25  1  0  0  0  0
 26 22  2  0  0  0  0
 27 29  2  0  0  0  0
 27 28  1  0  0  0  0
 28 26  1  0  0  0  0
 29 24  1  0  0  0  0
 30 31  2  0  0  0  0
 31 22  1  0  0  0  0
 32 34  2  0  0  0  0
 33 32  1  0  0  0  0
M  END
>  <MODEL>
4

>  <REMARK>
 VINA RESULT:      -9.6      3.607      8.573
  Name = 
  5 active torsions:
  status: ('A' for Active; 'I' for Inactive)
    1  A    between atoms: C_1  and  C_9
    2  A    between atoms: C_7  and  C_11
    3  A    between atoms: C_8  and  C_9
    4  A    between atoms: C_8  and  C_18
    5  A    between atoms: C_18  and  C_30
                            x       y       z     vdW  Elec       q    Type
                         _______ _______ _______ _____ _____    ______ ____

>  <TORSDO>
F 5

$$$$
=
 OpenBabel11052415413D

 34 38  0  0  1  0  0  0  0  0999 V2000
  188.8080  177.1690  143.9900 C   0  0  2  0  0  3  0  0  0  0  0  0
  185.3940  178.0040  145.6970 C   0  0  0  0  0  2  0  0  0  0  0  0
  183.5470  178.9670  142.8710 C   0  0  0  0  0  0  0  0  0  0  0  0
  187.5790  177.5290  146.5800 O   0  0  0  0  0  0  0  0  0  0  0  0
  190.9770  176.8750  145.2610 C   0  0  0  0  0  3  0  0  0  0  0  0
  191.0430  176.8840  147.6800 C   0  0  0  0  0  3  0  0  0  0  0  0
  183.5640  178.9220  141.6130 O   0  0  0  0  0  0  0  0  0  0  0  0
  191.7000  176.7700  146.4520 C   0  0  0  0  0  3  0  0  0  0  0  0
  188.9440  177.2460  146.5270 C   0  0  0  0  0  0  0  0  0  0  0  0
  189.5910  177.0900  145.2870 C   0  0  0  0  0  0  0  0  0  0  0  0
  189.6680  177.1220  147.7180 C   0  0  0  0  0  3  0  0  0  0  0  0
  184.7330  179.2200  145.0620 C   0  0  0  0  0  2  0  0  0  0  0  0
  182.3330  178.8610  143.5400 O   0  0  0  0  0  1  0  0  0  0  0  0
  184.7670  179.1310  143.6080 N   0  0  0  0  0  0  0  0  0  0  0  0
  186.0520  179.1290  142.9190 C   0  0  0  0  0  2  0  0  0  0  0  0
  186.8930  178.0370  145.4430 C   0  0  1  0  0  3  0  0  0  0  0  0
  186.6040  177.7100  142.8800 C   0  0  0  0  0  2  0  0  0  0  0  0
  187.2800  177.2420  144.1840 C   0  0  1  0  0  3  0  0  0  0  0  0
  189.1640  176.0220  143.0340 C   0  0  0  0  0  2  0  0  0  0  0  0
  190.5890  176.1420  142.5010 C   0  0  0  0  0  2  0  0  0  0  0  0
  190.7380  177.3630  141.6050 C   0  0  0  0  0  2  0  0  0  0  0  0
  189.7900  176.1910  138.1570 N   0  0  0  0  0  0  0  0  0  0  0  0
  188.7550  177.8210  140.1470 C   0  0  0  0  0  3  0  0  0  0  0  0
  186.6410  177.2090  136.5720 C   0  0  0  0  0  0  0  0  0  0  0  0
  187.8800  176.5850  136.7740 C   0  0  0  0  0  3  0  0  0  0  0  0
  188.5860  176.7930  137.9620 C   0  0  0  0  0  0  0  0  0  0  0  0
  186.8130  178.2520  138.7610 C   0  0  0  0  0  3  0  0  0  0  0  0
  188.0460  177.6300  138.9620 C   0  0  0  0  0  0  0  0  0  0  0  0
  186.1140  178.0430  137.5690 C   0  0  0  0  0  3  0  0  0  0  0  0
  189.9860  177.1860  140.3270 C   0  0  0  0  0  0  0  0  0  0  0  0
  190.4950  176.3710  139.3080 C   0  0  0  0  0  3  0  0  0  0  0  0
  185.8870  176.9890  135.3280 C   0  0  0  0  0  0  0  0  0  0  0  0
  184.9220  177.8650  134.9520 F   0  0  0  0  0  0  0  0  0  0  0  0
  186.1280  175.9880  134.6020 O   0  0  0  0  0  0  0  0  0  0  0  0
  1 19  1  6  0  0  0
  1 18  1  0  0  0  0
  1 10  1  0  0  0  0
  3 13  1  0  0  0  0
  3 14  1  0  0  0  0
  5 10  2  0  0  0  0
  5  8  1  0  0  0  0
  6 11  1  0  0  0  0
  7  3  2  0  0  0  0
  8  6  2  0  0  0  0
  9  4  1  0  0  0  0
  9 11  2  0  0  0  0
 10  9  1  0  0  0  0
 12  2  1  0  0  0  0
 14 12  1  0  0  0  0
 15 14  1  0  0  0  0
 16  2  1  1  0  0  0
 16  4  1  0  0  0  0
 17 15  1  0  0  0  0
 18 17  1  6  0  0  0
 18 16  1  0  0  0  0
 20 19  1  0  0  0  0
 21 20  1  0  0  0  0
 22 31  1  0  0  0  0
 23 30  1  0  0  0  0
 24 25  2  0  0  0  0
 24 29  1  0  0  0  0
 25 26  1  0  0  0  0
 26 22  2  0  0  0  0
 26 28  1  0  0  0  0
 27 28  1  0  0  0  0
 28 23  2  0  0  0  0
 29 27  2  0  0  0  0
 30 21  1  0  0  0  0
 31 30  2  0  0  0  0
 32 24  1  0  0  0  0
 33 32  1  0  0  0  0
 34 32  2  0  0  0  0
M  END
>  <MODEL>
5

>  <REMARK>
 VINA RESULT:      -9.5      1.284      1.578
  Name = 
  5 active torsions:
  status: ('A' for Active; 'I' for Inactive)
    1  A    between atoms: C_1  and  C_9
    2  A    between atoms: C_7  and  C_11
    3  A    between atoms: C_8  and  C_9
    4  A    between atoms: C_8  and  C_18
    5  A    between atoms: C_18  and  C_30
                            x       y       z     vdW  Elec       q    Type
                         _______ _______ _______ _____ _____    ______ ____

>  <TORSDO>
F 5

$$$$
=
 OpenBabel11052415413D

 34 38  0  0  1  0  0  0  0  0999 V2000
  184.3200  179.0110  138.6850 C   0  0  2  0  0  3  0  0  0  0  0  0
  185.5040  175.8730  136.6810 C   0  0  0  0  0  2  0  0  0  0  0  0
  188.9800  176.2790  136.9600 C   0  0  0  0  0  0  0  0  0  0  0  0
  183.3510  176.9060  136.9610 O   0  0  0  0  0  0  0  0  0  0  0  0
  181.9540  179.9070  138.6190 C   0  0  0  0  0  3  0  0  0  0  0  0
  180.1840  178.7370  137.4550 C   0  0  0  0  0  3  0  0  0  0  0  0
  189.8560  176.9100  137.6080 O   0  0  0  0  0  1  0  0  0  0  0  0
  180.6140  179.8140  138.2330 C   0  0  0  0  0  3  0  0  0  0  0  0
  182.4420  177.8610  137.4150 C   0  0  0  0  0  0  0  0  0  0  0  0
  182.8740  178.9210  138.2350 C   0  0  0  0  0  0  0  0  0  0  0  0
  181.0970  177.7620  137.0450 C   0  0  0  0  0  3  0  0  0  0  0  0
  186.7400  176.1770  135.8450 C   0  0  0  0  0  2  0  0  0  0  0  0
  189.2360  174.9700  136.5660 O   0  0  0  0  0  0  0  0  0  0  0  0
  187.7320  176.9030  136.6270 N   0  0  0  0  0  0  0  0  0  0  0  0
  187.4130  178.2330  137.1340 C   0  0  0  0  0  2  0  0  0  0  0  0
  184.7500  177.1600  136.9760 C   0  0  1  0  0  3  0  0  0  0  0  0
  186.6660  178.1060  138.4560 C   0  0  0  0  0  2  0  0  0  0  0  0
  185.1670  177.7750  138.3230 C   0  0  1  0  0  3  0  0  0  0  0  0
  184.4340  179.3080  140.1870 C   0  0  0  0  0  2  0  0  0  0  0  0
  183.9710  178.1310  141.0410 C   0  0  0  0  0  2  0  0  0  0  0  0
  183.2190  178.6110  142.2740 C   0  0  0  0  0  2  0  0  0  0  0  0
  184.4070  178.9390  145.8300 N   0  0  0  0  0  0  0  0  0  0  0  0
  185.3990  178.0820  143.3860 C   0  0  0  0  0  3  0  0  0  0  0  0
  187.7800  177.9050  146.8390 C   0  0  0  0  0  0  0  0  0  0  0  0
  186.4680  178.3960  146.9110 C   0  0  0  0  0  3  0  0  0  0  0  0
  185.6770  178.4590  145.7620 C   0  0  0  0  0  0  0  0  0  0  0  0
  187.5070  177.5360  144.4530 C   0  0  0  0  0  3  0  0  0  0  0  0
  186.2010  178.0240  144.5250 C   0  0  0  0  0  0  0  0  0  0  0  0
  188.2930  177.4790  145.6060 C   0  0  0  0  0  3  0  0  0  0  0  0
  184.0940  178.5720  143.4840 C   0  0  0  0  0  0  0  0  0  0  0  0
  183.6130  179.0050  144.7260 C   0  0  0  0  0  3  0  0  0  0  0  0
  188.6160  177.8270  148.0470 C   0  0  0  0  0  0  0  0  0  0  0  0
  188.0940  178.1430  149.2580 F   0  0  0  0  0  0  0  0  0  0  0  0
  189.8210  177.4680  147.9700 O   0  0  0  0  0  0  0  0  0  0  0  0
  1 19  1  1  0  0  0
  3  7  1  0  0  0  0
  4 16  1  0  0  0  0
  4  9  1  0  0  0  0
  6  8  1  0  0  0  0
  8  5  2  0  0  0  0
  9 10  2  0  0  0  0
 10  5  1  0  0  0  0
 10  1  1  0  0  0  0
 11  9  1  0  0  0  0
 11  6  2  0  0  0  0
 12 14  1  0  0  0  0
 12  2  1  0  0  0  0
 13  3  2  0  0  0  0
 14  3  1  0  0  0  0
 14 15  1  0  0  0  0
 15 17  1  0  0  0  0
 16  2  1  1  0  0  0
 16 18  1  0  0  0  0
 18 17  1  6  0  0  0
 18  1  1  0  0  0  0
 19 20  1  0  0  0  0
 20 21  1  0  0  0  0
 21 30  1  0  0  0  0
 23 30  2  0  0  0  0
 23 28  1  0  0  0  0
 24 25  1  0  0  0  0
 24 32  1  0  0  0  0
 26 22  1  0  0  0  0
 26 25  2  0  0  0  0
 27 28  2  0  0  0  0
 27 29  1  0  0  0  0
 28 26  1  0  0  0  0
 29 24  2  0  0  0  0
 30 31  1  0  0  0  0
 31 22  2  0  0  0  0
 32 33  1  0  0  0  0
 34 32  2  0  0  0  0
M  END
>  <MODEL>
6

>  <REMARK>
 VINA RESULT:      -9.5      3.665      9.333
  Name = 
  5 active torsions:
  status: ('A' for Active; 'I' for Inactive)
    1  A    between atoms: C_1  and  C_9
    2  A    between atoms: C_7  and  C_11
    3  A    between atoms: C_8  and  C_9
    4  A    between atoms: C_8  and  C_18
    5  A    between atoms: C_18  and  C_30
                            x       y       z     vdW  Elec       q    Type
                         _______ _______ _______ _____ _____    ______ ____

>  <TORSDO>
F 5

$$$$
=
 OpenBabel11052415413D

 34 38  0  0  1  0  0  0  0  0999 V2000
  184.6240  178.9100  141.6270 C   0  0  2  0  0  3  0  0  0  0  0  0
  180.8070  178.5210  140.8910 C   0  0  0  0  0  2  0  0  0  0  0  0
  180.7930  179.2790  137.4630 C   0  0  0  0  0  0  0  0  0  0  0  0
  182.0710  178.5720  142.9360 O   0  0  0  0  0  0  0  0  0  0  0  0
  185.5930  179.0790  143.9590 C   0  0  0  0  0  3  0  0  0  0  0  0
  184.2180  178.7940  145.9300 C   0  0  0  0  0  3  0  0  0  0  0  0
  181.5590  179.4030  136.4720 O   0  0  0  0  0  0  0  0  0  0  0  0
  185.4670  179.0300  145.3500 C   0  0  0  0  0  3  0  0  0  0  0  0
  183.2110  178.6940  143.7290 C   0  0  0  0  0  0  0  0  0  0  0  0
  184.4740  178.8880  143.1370 C   0  0  0  0  0  0  0  0  0  0  0  0
  183.0920  178.6280  145.1210 C   0  0  0  0  0  3  0  0  0  0  0  0
  180.3170  179.5720  139.9040 C   0  0  0  0  0  2  0  0  0  0  0  0
  179.5200  178.7500  137.2790 O   0  0  0  0  0  1  0  0  0  0  0  0
  181.2250  179.6840  138.7690 N   0  0  0  0  0  0  0  0  0  0  0  0
  182.5950  180.1340  138.9880 C   0  0  0  0  0  2  0  0  0  0  0  0
  182.0710  179.0080  141.5810 C   0  0  1  0  0  3  0  0  0  0  0  0
  183.4610  178.9450  139.3860 C   0  0  0  0  0  2  0  0  0  0  0  0
  183.3420  178.5230  140.8630 C   0  0  1  0  0  3  0  0  0  0  0  0
  185.8010  178.0430  141.1570 C   0  0  0  0  0  2  0  0  0  0  0  0
  187.0760  178.8590  140.9710 C   0  0  0  0  0  2  0  0  0  0  0  0
  188.2330  177.9750  140.5260 C   0  0  0  0  0  2  0  0  0  0  0  0
  191.1770  176.7900  142.5470 N   0  0  0  0  0  0  0  0  0  0  0  0
  188.6030  177.7210  142.9890 C   0  0  0  0  0  3  0  0  0  0  0  0
  191.0930  176.7130  146.2150 C   0  0  0  0  0  0  0  0  0  0  0  0
  191.5590  176.5850  144.8980 C   0  0  0  0  0  3  0  0  0  0  0  0
  190.7290  176.9170  143.8240 C   0  0  0  0  0  0  0  0  0  0  0  0
  188.9550  177.5100  145.3780 C   0  0  0  0  0  3  0  0  0  0  0  0
  189.4190  177.3840  144.0680 C   0  0  0  0  0  0  0  0  0  0  0  0
  189.7900  177.1730  146.4470 C   0  0  0  0  0  3  0  0  0  0  0  0
  189.0910  177.5890  141.6860 C   0  0  0  0  0  0  0  0  0  0  0  0
  190.3910  177.1120  141.4830 C   0  0  0  0  0  3  0  0  0  0  0  0
  191.9640  176.3750  147.3510 C   0  0  0  0  0  0  0  0  0  0  0  0
  192.6790  175.2220  147.3420 F   0  0  0  0  0  0  0  0  0  0  0  0
  192.0560  177.1480  148.3410 O   0  0  0  0  0  0  0  0  0  0  0  0
  1 19  1  1  0  0  0
  1 10  1  0  0  0  0
  3 14  1  0  0  0  0
  4  9  1  0  0  0  0
  5  8  1  0  0  0  0
  7  3  2  0  0  0  0
  8  6  2  0  0  0  0
  9 11  2  0  0  0  0
 10  9  1  0  0  0  0
 10  5  2  0  0  0  0
 11  6  1  0  0  0  0
 12  2  1  0  0  0  0
 13  3  1  0  0  0  0
 14 15  1  0  0  0  0
 14 12  1  0  0  0  0
 15 17  1  0  0  0  0
 16  2  1  6  0  0  0
 16  4  1  0  0  0  0
 18 17  1  6  0  0  0
 18 16  1  0  0  0  0
 18  1  1  0  0  0  0
 20 19  1  0  0  0  0
 21 20  1  0  0  0  0
 21 30  1  0  0  0  0
 22 26  1  0  0  0  0
 23 28  1  0  0  0  0
 24 29  1  0  0  0  0
 24 32  1  0  0  0  0
 25 24  2  0  0  0  0
 26 28  2  0  0  0  0
 26 25  1  0  0  0  0
 27 29  2  0  0  0  0
 28 27  1  0  0  0  0
 30 23  2  0  0  0  0
 31 30  1  0  0  0  0
 31 22  2  0  0  0  0
 32 34  2  0  0  0  0
 33 32  1  0  0  0  0
M  END
>  <MODEL>
7

>  <REMARK>
 VINA RESULT:      -9.3      3.668      6.520
  Name = 
  5 active torsions:
  status: ('A' for Active; 'I' for Inactive)
    1  A    between atoms: C_1  and  C_9
    2  A    between atoms: C_7  and  C_11
    3  A    between atoms: C_8  and  C_9
    4  A    between atoms: C_8  and  C_18
    5  A    between atoms: C_18  and  C_30
                            x       y       z     vdW  Elec       q    Type
                         _______ _______ _______ _____ _____    ______ ____

>  <TORSDO>
F 5

$$$$
=
 OpenBabel11052415413D

 34 38  0  0  1  0  0  0  0  0999 V2000
  189.7890  177.4180  137.2600 C   0  0  2  0  0  3  0  0  0  0  0  0
  191.2640  173.8170  136.9150 C   0  0  0  0  0  2  0  0  0  0  0  0
  194.5210  174.4060  138.0850 C   0  0  0  0  0  0  0  0  0  0  0  0
  189.2130  174.8130  136.1530 O   0  0  0  0  0  0  0  0  0  0  0  0
  187.6260  178.1580  136.1720 C   0  0  0  0  0  3  0  0  0  0  0  0
  186.1960  176.5980  134.9980 C   0  0  0  0  0  3  0  0  0  0  0  0
  195.2120  175.2520  138.7110 O   0  0  0  0  0  1  0  0  0  0  0  0
  186.4580  177.8940  135.4520 C   0  0  0  0  0  3  0  0  0  0  0  0
  188.2880  175.8370  135.9520 C   0  0  0  0  0  0  0  0  0  0  0  0
  188.5390  177.1300  136.4490 C   0  0  0  0  0  0  0  0  0  0  0  0
  187.1090  175.5720  135.2470 C   0  0  0  0  0  3  0  0  0  0  0  0
  192.7130  173.8480  136.4460 C   0  0  0  0  0  2  0  0  0  0  0  0
  194.7790  173.0510  138.2610 O   0  0  0  0  0  0  0  0  0  0  0  0
  193.4820  174.8340  137.1950 N   0  0  0  0  0  0  0  0  0  0  0  0
  193.1320  176.2460  137.0920 C   0  0  0  0  0  2  0  0  0  0  0  0
  190.5600  175.1010  136.5060 C   0  0  1  0  0  3  0  0  0  0  0  0
  192.0190  176.5660  138.0820 C   0  0  0  0  0  2  0  0  0  0  0  0
  190.6050  176.1620  137.6210 C   0  0  1  0  0  3  0  0  0  0  0  0
  189.4750  178.2250  138.5270 C   0  0  0  0  0  2  0  0  0  0  0  0
  188.7900  177.3760  139.5930 C   0  0  0  0  0  2  0  0  0  0  0  0
  188.4640  178.2030  140.8280 C   0  0  0  0  0  2  0  0  0  0  0  0
  191.3090  176.8850  142.9080 N   0  0  0  0  0  0  0  0  0  0  0  0
  188.7340  177.8400  143.2900 C   0  0  0  0  0  3  0  0  0  0  0  0
  191.0810  176.6560  146.5630 C   0  0  0  0  0  0  0  0  0  0  0  0
  191.5950  176.5760  145.2610 C   0  0  0  0  0  3  0  0  0  0  0  0
  190.8130  176.9660  144.1710 C   0  0  0  0  0  0  0  0  0  0  0  0
  188.9890  177.5230  145.6800 C   0  0  0  0  0  3  0  0  0  0  0  0
  189.5020  177.4450  144.3840 C   0  0  0  0  0  0  0  0  0  0  0  0
  189.7770  177.1280  146.7650 C   0  0  0  0  0  3  0  0  0  0  0  0
  189.2700  177.7550  142.0030 C   0  0  0  0  0  0  0  0  0  0  0  0
  190.5700  177.2650  141.8300 C   0  0  0  0  0  3  0  0  0  0  0  0
  191.9020  176.2560  147.7160 C   0  0  0  0  0  0  0  0  0  0  0  0
  192.1020  174.9420  147.9870 F   0  0  0  0  0  0  0  0  0  0  0  0
  192.4260  177.1250  148.4630 O   0  0  0  0  0  0  0  0  0  0  0  0
  1 18  1  0  0  0  0
  1 19  1  1  0  0  0
  3 13  2  0  0  0  0
  3  7  1  0  0  0  0
  4 16  1  0  0  0  0
  5 10  1  0  0  0  0
  6 11  2  0  0  0  0
  6  8  1  0  0  0  0
  8  5  2  0  0  0  0
  9  4  1  0  0  0  0
  9 10  2  0  0  0  0
 10  1  1  0  0  0  0
 11  9  1  0  0  0  0
 12  2  1  0  0  0  0
 12 14  1  0  0  0  0
 14  3  1  0  0  0  0
 15 14  1  0  0  0  0
 15 17  1  0  0  0  0
 16  2  1  1  0  0  0
 16 18  1  0  0  0  0
 18 17  1  6  0  0  0
 19 20  1  0  0  0  0
 20 21  1  0  0  0  0
 21 30  1  0  0  0  0
 22 26  1  0  0  0  0
 23 28  1  0  0  0  0
 24 29  1  0  0  0  0
 24 32  1  0  0  0  0
 25 24  2  0  0  0  0
 26 28  2  0  0  0  0
 26 25  1  0  0  0  0
 27 29  2  0  0  0  0
 28 27  1  0  0  0  0
 30 23  2  0  0  0  0
 31 30  1  0  0  0  0
 31 22  2  0  0  0  0
 32 33  1  0  0  0  0
 32 34  2  0  0  0  0
M  END
>  <MODEL>
8

>  <REMARK>
 VINA RESULT:      -9.2      4.582     10.166
  Name = 
  5 active torsions:
  status: ('A' for Active; 'I' for Inactive)
    1  A    between atoms: C_1  and  C_9
    2  A    between atoms: C_7  and  C_11
    3  A    between atoms: C_8  and  C_9
    4  A    between atoms: C_8  and  C_18
    5  A    between atoms: C_18  and  C_30
                            x       y       z     vdW  Elec       q    Type
                         _______ _______ _______ _____ _____    ______ ____

>  <TORSDO>
F 5

$$$$
=
 OpenBabel11052415413D

 34 38  0  0  1  0  0  0  0  0999 V2000
  181.9530  178.7120  139.1340 C   0  0  2  0  0  3  0  0  0  0  0  0
  180.1690  180.6210  136.2290 C   0  0  0  0  0  2  0  0  0  0  0  0
  181.3490  183.8680  136.8520 C   0  0  0  0  0  0  0  0  0  0  0  0
  179.9380  178.3880  137.0900 O   0  0  0  0  0  0  0  0  0  0  0  0
  181.3270  176.3720  139.8680 C   0  0  0  0  0  3  0  0  0  0  0  0
  179.6930  175.0570  138.6610 C   0  0  0  0  0  3  0  0  0  0  0  0
  182.2290  184.4970  137.4970 O   0  0  0  0  0  1  0  0  0  0  0  0
  180.6070  175.1850  139.7100 C   0  0  0  0  0  3  0  0  0  0  0  0
  180.1900  177.3180  137.9480 C   0  0  0  0  0  0  0  0  0  0  0  0
  181.1440  177.4390  138.9770 C   0  0  0  0  0  0  0  0  0  0  0  0
  179.4840  176.1220  137.7820 C   0  0  0  0  0  3  0  0  0  0  0  0
  179.6940  181.9980  136.6730 C   0  0  0  0  0  2  0  0  0  0  0  0
  180.9700  184.3240  135.5950 O   0  0  0  0  0  0  0  0  0  0  0  0
  180.7380  182.6970  137.4110 N   0  0  0  0  0  0  0  0  0  0  0  0
  181.2110  182.1500  138.6780 C   0  0  0  0  0  2  0  0  0  0  0  0
  180.3240  179.7120  137.4390 C   0  0  1  0  0  3  0  0  0  0  0  0
  182.2890  181.1080  138.4100 C   0  0  0  0  0  2  0  0  0  0  0  0
  181.7610  179.7240  137.9870 C   0  0  1  0  0  3  0  0  0  0  0  0
  183.4470  178.4200  139.3350 C   0  0  0  0  0  2  0  0  0  0  0  0
  183.9860  179.0440  140.6180 C   0  0  0  0  0  2  0  0  0  0  0  0
  183.1110  178.6880  141.8110 C   0  0  0  0  0  2  0  0  0  0  0  0
  184.1000  179.0000  145.4280 N   0  0  0  0  0  0  0  0  0  0  0  0
  185.2120  178.1180  143.0470 C   0  0  0  0  0  3  0  0  0  0  0  0
  187.3880  177.9020  146.6300 C   0  0  0  0  0  0  0  0  0  0  0  0
  186.0840  178.4190  146.6270 C   0  0  0  0  0  3  0  0  0  0  0  0
  185.3620  178.4950  145.4340 C   0  0  0  0  0  0  0  0  0  0  0  0
  187.2440  177.5320  144.2320 C   0  0  0  0  0  3  0  0  0  0  0  0
  185.9460  178.0460  144.2290 C   0  0  0  0  0  0  0  0  0  0  0  0
  187.9620  177.4620  145.4290 C   0  0  0  0  0  3  0  0  0  0  0  0
  183.9140  178.6340  143.0690 C   0  0  0  0  0  0  0  0  0  0  0  0
  183.3720  179.0800  144.2810 C   0  0  0  0  0  3  0  0  0  0  0  0
  188.1520  177.8100  147.8840 C   0  0  0  0  0  0  0  0  0  0  0  0
  187.5050  177.7720  149.0750 F   0  0  0  0  0  0  0  0  0  0  0  0
  189.4110  177.7670  147.8660 O   0  0  0  0  0  0  0  0  0  0  0  0
  1 19  1  6  0  0  0
  2 12  1  0  0  0  0
  3 14  1  0  0  0  0
  3  7  1  0  0  0  0
  4 16  1  0  0  0  0
  4  9  1  0  0  0  0
  6  8  2  0  0  0  0
  8  5  1  0  0  0  0
  9 10  1  0  0  0  0
 10  1  1  0  0  0  0
 10  5  2  0  0  0  0
 11  9  2  0  0  0  0
 11  6  1  0  0  0  0
 12 14  1  0  0  0  0
 13  3  2  0  0  0  0
 14 15  1  0  0  0  0
 16  2  1  6  0  0  0
 16 18  1  0  0  0  0
 17 15  1  0  0  0  0
 18 17  1  1  0  0  0
 18  1  1  0  0  0  0
 19 20  1  0  0  0  0
 20 21  1  0  0  0  0
 21 30  1  0  0  0  0
 22 26  1  0  0  0  0
 23 30  2  0  0  0  0
 23 28  1  0  0  0  0
 24 32  1  0  0  0  0
 25 24  1  0  0  0  0
 26 25  2  0  0  0  0
 27 29  1  0  0  0  0
 28 27  2  0  0  0  0
 28 26  1  0  0  0  0
 29 24  2  0  0  0  0
 30 31  1  0  0  0  0
 31 22  2  0  0  0  0
 32 33  1  0  0  0  0
 34 32  2  0  0  0  0
M  END
>  <MODEL>
9

>  <REMARK>
 VINA RESULT:      -9.2      4.898      9.371
  Name = 
  5 active torsions:
  status: ('A' for Active; 'I' for Inactive)
    1  A    between atoms: C_1  and  C_9
    2  A    between atoms: C_7  and  C_11
    3  A    between atoms: C_8  and  C_9
    4  A    between atoms: C_8  and  C_18
    5  A    between atoms: C_18  and  C_30
                            x       y       z     vdW  Elec       q    Type
                         _______ _______ _______ _____ _____    ______ ____

>  <TORSDO>
F 5

$$$$
