=
 OpenBabel11052415523D

 34 39  0  0  1  0  0  0  0  0999 V2000
  183.0810  177.7180  138.5590 C   0  0  0  0  0  0  0  0  0  0  0  0
  185.5730  175.5690  136.9490 C   0  0  0  0  0  2  0  0  0  0  0  0
  183.1160  175.1050  137.4110 O   0  0  0  0  0  0  0  0  0  0  0  0
  180.6410  177.0430  138.9480 C   0  0  0  0  0  3  0  0  0  0  0  0
  179.9910  175.8890  138.6250 N   0  0  0  0  0  0  0  0  0  0  0  0
  182.0010  175.6030  137.9350 C   0  0  0  0  0  0  0  0  0  0  0  0
  181.9430  176.9110  138.5220 C   0  0  0  0  0  0  0  0  0  0  0  0
  180.7990  175.0220  138.0160 N   0  0  0  0  0  0  0  0  0  0  0  0
  186.3830  176.7650  137.2860 N   0  0  2  0  0  0  0  0  0  0  0  0
  184.2100  175.8730  137.4490 C   0  0  0  0  0  0  0  0  0  0  0  0
  185.4940  177.6470  137.8880 O   0  0  0  0  0  0  0  0  0  0  0  0
  184.2260  177.1300  137.9950 C   0  0  0  0  0  0  0  0  0  0  0  0
  188.3220  177.4540  135.9390 C   0  0  2  0  0  0  0  0  0  0  0  0
  188.8470  177.5070  134.6490 O   0  0  0  0  0  1  0  0  0  0  0  0
  189.3930  176.8290  137.2730 S   0  0  0  0  0  1  0  0  0  0  0  0
  186.8070  177.3690  136.0280 C   0  0  2  0  0  3  0  0  0  0  0  0
  187.5330  178.6850  136.3030 C   0  0  0  0  0  2  0  0  0  0  0  0
  183.0950  179.0720  139.1880 C   0  0  0  0  0  2  0  0  0  0  0  0
  184.0210  179.0900  140.3550 C   0  0  0  0  0  0  0  0  0  0  0  0
  185.0890  179.7540  140.2870 O   0  0  0  0  0  0  0  0  0  0  0  0
  183.6600  178.3790  141.5460 N   0  0  0  0  0  2  0  0  0  0  0  0
  184.4540  178.7200  145.1720 C   0  0  0  0  0  3  0  0  0  0  0  0
  185.7270  177.8800  142.8220 C   0  0  0  0  0  3  0  0  0  0  0  0
  187.7910  177.7920  146.4840 C   0  0  0  0  0  0  0  0  0  0  0  0
  186.4650  178.2420  146.4350 C   0  0  0  0  0  3  0  0  0  0  0  0
  185.7760  178.2720  145.2210 C   0  0  0  0  0  0  0  0  0  0  0  0
  187.7390  177.4010  144.0830 C   0  0  0  0  0  3  0  0  0  0  0  0
  186.4180  177.8480  144.0360 C   0  0  0  0  0  0  0  0  0  0  0  0
  188.4230  177.3730  145.3030 C   0  0  0  0  0  3  0  0  0  0  0  0
  184.3980  178.3290  142.7730 C   0  0  0  0  0  0  0  0  0  0  0  0
  183.7700  178.7480  143.9520 C   0  0  0  0  0  3  0  0  0  0  0  0
  188.5130  177.7620  147.7670 C   0  0  0  0  0  0  0  0  0  0  0  0
  187.9320  178.0960  148.8340 O   0  0  0  0  0  1  0  0  0  0  0  0
  189.8440  177.3620  147.8130 O   0  0  0  0  0  0  0  0  0  0  0  0
  1 18  1  0  0  0  0
  2 10  1  0  0  0  0
  3 10  1  0  0  0  0
  3  6  1  0  0  0  0
  5  4  2  0  0  0  0
  6  8  2  0  0  0  0
  6  7  1  0  0  0  0
  7  1  2  0  0  0  0
  7  4  1  0  0  0  0
  8  5  1  0  0  0  0
  9  2  1  6  0  0  0
  9 11  1  0  0  0  0
 10 12  2  0  0  0  0
 11 12  1  0  0  0  0
 12  1  1  0  0  0  0
 13 14  1  6  0  0  0
 13 16  1  0  0  0  0
 13 17  1  0  0  0  0
 13 15  1  0  0  0  0
 16 17  1  1  0  0  0
 16  9  1  0  0  0  0
 18 19  1  0  0  0  0
 19 21  1  0  0  0  0
 20 19  2  0  0  0  0
 21 30  1  0  0  0  0
 22 26  1  0  0  0  0
 23 28  1  0  0  0  0
 24 32  1  0  0  0  0
 25 24  1  0  0  0  0
 26 25  2  0  0  0  0
 27 29  1  0  0  0  0
 28 27  2  0  0  0  0
 28 26  1  0  0  0  0
 29 24  2  0  0  0  0
 30 23  2  0  0  0  0
 30 31  1  0  0  0  0
 31 22  2  0  0  0  0
 32 34  2  0  0  0  0
 32 33  1  0  0  0  0
M  END
>  <MODEL>
1

>  <REMARK>
 VINA RESULT:      -9.5      0.000      0.000
  Name = 
  5 active torsions:
  status: ('A' for Active; 'I' for Inactive)
    1  A    between atoms: C_1  and  C_9
    2  A    between atoms: C_7  and  C_11
    3  A    between atoms: C_8  and  C_9
    4  A    between atoms: N_18  and  C_30
    5  A    between atoms: N_23  and  C_25
                            x       y       z     vdW  Elec       q    Type
                         _______ _______ _______ _____ _____    ______ ____

>  <TORSDO>
F 5

$$$$
=
 OpenBabel11052415523D

 34 39  0  0  1  0  0  0  0  0999 V2000
  182.0630  178.0480  139.6720 C   0  0  0  0  0  0  0  0  0  0  0  0
  182.0270  174.5900  138.4600 C   0  0  0  0  0  2  0  0  0  0  0  0
  180.3070  175.8070  139.8820 O   0  0  0  0  0  0  0  0  0  0  0  0
  180.2210  179.0770  141.1240 C   0  0  0  0  0  3  0  0  0  0  0  0
  179.0660  178.5250  141.5940 N   0  0  0  0  0  0  0  0  0  0  0  0
  180.0100  176.9620  140.4710 C   0  0  0  0  0  0  0  0  0  0  0  0
  180.8670  178.1090  140.3890 C   0  0  0  0  0  0  0  0  0  0  0  0
  178.9330  177.2570  141.2060 N   0  0  0  0  0  0  0  0  0  0  0  0
  183.3220  175.0810  137.9280 N   0  0  2  0  0  0  0  0  0  0  0  0
  181.4540  175.7410  139.1990 C   0  0  0  0  0  0  0  0  0  0  0  0
  183.4010  176.4080  138.3310 O   0  0  0  0  0  0  0  0  0  0  0  0
  182.3200  176.7990  139.0820 C   0  0  0  0  0  0  0  0  0  0  0  0
  183.7850  173.7920  135.8840 C   0  0  2  0  0  0  0  0  0  0  0  0
  183.2930  173.4390  134.6290 O   0  0  0  0  0  1  0  0  0  0  0  0
  184.4540  172.4690  136.9430 S   0  0  0  0  0  1  0  0  0  0  0  0
  183.2220  175.0750  136.4730 C   0  0  2  0  0  3  0  0  0  0  0  0
  184.6200  175.0460  135.8570 C   0  0  0  0  0  2  0  0  0  0  0  0
  183.0150  179.1950  139.5800 C   0  0  0  0  0  2  0  0  0  0  0  0
  184.0170  179.1230  140.6790 C   0  0  0  0  0  0  0  0  0  0  0  0
  185.1670  179.6060  140.5000 O   0  0  0  0  0  0  0  0  0  0  0  0
  183.6420  178.5370  141.9320 N   0  0  0  0  0  2  0  0  0  0  0  0
  184.6870  178.7870  145.5020 C   0  0  0  0  0  3  0  0  0  0  0  0
  185.7570  177.9110  143.0660 C   0  0  0  0  0  3  0  0  0  0  0  0
  188.0470  177.6650  146.5830 C   0  0  0  0  0  0  0  0  0  0  0  0
  186.7470  178.1850  146.6260 C   0  0  0  0  0  3  0  0  0  0  0  0
  185.9830  178.2690  145.4600 C   0  0  0  0  0  0  0  0  0  0  0  0
  187.8180  177.3090  144.1880 C   0  0  0  0  0  3  0  0  0  0  0  0
  186.5230  177.8270  144.2310 C   0  0  0  0  0  0  0  0  0  0  0  0
  188.5770  177.2280  145.3590 C   0  0  0  0  0  3  0  0  0  0  0  0
  184.4540  178.4310  143.1080 C   0  0  0  0  0  0  0  0  0  0  0  0
  183.9280  178.8670  144.3300 C   0  0  0  0  0  3  0  0  0  0  0  0
  188.8480  177.5790  147.8160 C   0  0  0  0  0  0  0  0  0  0  0  0
  188.3500  177.9130  148.9250 O   0  0  0  0  0  1  0  0  0  0  0  0
  190.1610  177.1260  147.7680 O   0  0  0  0  0  0  0  0  0  0  0  0
  1  7  2  0  0  0  0
  2 10  1  0  0  0  0
  3  6  1  0  0  0  0
  4  5  2  0  0  0  0
  6  8  2  0  0  0  0
  7  6  1  0  0  0  0
  7  4  1  0  0  0  0
  8  5  1  0  0  0  0
  9 11  1  0  0  0  0
  9  2  1  1  0  0  0
 10  3  1  0  0  0  0
 11 12  1  0  0  0  0
 12 10  2  0  0  0  0
 12  1  1  0  0  0  0
 13 14  1  6  0  0  0
 13 16  1  0  0  0  0
 13 15  1  0  0  0  0
 16 17  1  6  0  0  0
 16  9  1  0  0  0  0
 17 13  1  0  0  0  0
 18  1  1  0  0  0  0
 18 19  1  0  0  0  0
 19 21  1  0  0  0  0
 20 19  2  0  0  0  0
 21 30  1  0  0  0  0
 23 30  2  0  0  0  0
 23 28  1  0  0  0  0
 24 25  1  0  0  0  0
 24 32  1  0  0  0  0
 26 22  1  0  0  0  0
 26 25  2  0  0  0  0
 27 28  2  0  0  0  0
 27 29  1  0  0  0  0
 28 26  1  0  0  0  0
 29 24  2  0  0  0  0
 30 31  1  0  0  0  0
 31 22  2  0  0  0  0
 32 33  1  0  0  0  0
 34 32  2  0  0  0  0
M  END
>  <MODEL>
2

>  <REMARK>
 VINA RESULT:      -9.4      2.393      2.955
  Name = 
  5 active torsions:
  status: ('A' for Active; 'I' for Inactive)
    1  A    between atoms: C_1  and  C_9
    2  A    between atoms: C_7  and  C_11
    3  A    between atoms: C_8  and  C_9
    4  A    between atoms: N_18  and  C_30
    5  A    between atoms: N_23  and  C_25
                            x       y       z     vdW  Elec       q    Type
                         _______ _______ _______ _____ _____    ______ ____

>  <TORSDO>
F 5

$$$$
=
 OpenBabel11052415523D

 34 39  0  0  1  0  0  0  0  0999 V2000
  188.2280  176.5880  137.4810 C   0  0  0  0  0  0  0  0  0  0  0  0
  184.5780  176.3830  137.2450 C   0  0  0  0  0  2  0  0  0  0  0  0
  186.3120  174.5620  136.8720 O   0  0  0  0  0  0  0  0  0  0  0  0
  189.8060  174.6190  137.0410 C   0  0  0  0  0  3  0  0  0  0  0  0
  189.5230  173.3310  136.6970 N   0  0  0  0  0  0  0  0  0  0  0  0
  187.6130  174.2920  136.8640 C   0  0  0  0  0  0  0  0  0  0  0  0
  188.6070  175.2830  137.1630 C   0  0  0  0  0  0  0  0  0  0  0  0
  188.2100  173.1270  136.5910 N   0  0  0  0  0  0  0  0  0  0  0  0
  184.7750  177.8140  137.5850 N   0  0  2  0  0  0  0  0  0  0  0  0
  185.9440  175.8120  137.1700 C   0  0  0  0  0  0  0  0  0  0  0  0
  186.1500  177.9690  137.7140 O   0  0  0  0  0  0  0  0  0  0  0  0
  186.8400  176.8080  137.4640 C   0  0  0  0  0  0  0  0  0  0  0  0
  182.7280  178.4370  138.7970 C   0  0  2  0  0  0  0  0  0  0  0  0
  181.9460  178.1670  139.9190 O   0  0  0  0  0  1  0  0  0  0  0  0
  181.8910  178.5820  137.1860 S   0  0  0  0  0  1  0  0  0  0  0  0
  184.1890  178.0300  138.9020 C   0  0  2  0  0  3  0  0  0  0  0  0
  183.7730  179.4940  139.0500 C   0  0  0  0  0  2  0  0  0  0  0  0
  189.2140  177.6730  137.7650 C   0  0  0  0  0  2  0  0  0  0  0  0
  189.1810  178.0330  139.2100 C   0  0  0  0  0  0  0  0  0  0  0  0
  188.6640  179.1260  139.5630 O   0  0  0  0  0  0  0  0  0  0  0  0
  189.7070  177.1120  140.1740 N   0  0  0  0  0  2  0  0  0  0  0  0
  190.9840  177.6260  143.6390 C   0  0  0  0  0  3  0  0  0  0  0  0
  188.5280  177.2180  142.3530 C   0  0  0  0  0  3  0  0  0  0  0  0
  188.6700  177.6790  146.5300 C   0  0  0  0  0  0  0  0  0  0  0  0
  189.8500  177.7290  145.7770 C   0  0  0  0  0  3  0  0  0  0  0  0
  189.8070  177.5760  144.3890 C   0  0  0  0  0  0  0  0  0  0  0  0
  187.3920  177.3200  144.4910 C   0  0  0  0  0  3  0  0  0  0  0  0
  188.5690  177.3700  143.7410 C   0  0  0  0  0  0  0  0  0  0  0  0
  187.4430  177.4740  145.8800 C   0  0  0  0  0  3  0  0  0  0  0  0
  189.7100  177.2680  141.5990 C   0  0  0  0  0  0  0  0  0  0  0  0
  190.9330  177.4720  142.2490 C   0  0  0  0  0  3  0  0  0  0  0  0
  188.7210  177.8410  147.9930 C   0  0  0  0  0  0  0  0  0  0  0  0
  189.7650  178.2720  148.5510 O   0  0  0  0  0  0  0  0  0  0  0  0
  187.6150  177.5210  148.7720 O   0  0  0  0  0  1  0  0  0  0  0  0
  1 18  1  0  0  0  0
  3 10  1  0  0  0  0
  4  7  1  0  0  0  0
  5  4  2  0  0  0  0
  6  3  1  0  0  0  0
  6  7  1  0  0  0  0
  7  1  2  0  0  0  0
  8  5  1  0  0  0  0
  8  6  2  0  0  0  0
  9  2  1  1  0  0  0
  9 11  1  0  0  0  0
  9 16  1  0  0  0  0
 10  2  1  0  0  0  0
 10 12  2  0  0  0  0
 12  1  1  0  0  0  0
 12 11  1  0  0  0  0
 13 15  1  6  0  0  0
 13 16  1  0  0  0  0
 13 17  1  0  0  0  0
 13 14  1  0  0  0  0
 16 17  1  6  0  0  0
 18 19  1  0  0  0  0
 19 20  2  0  0  0  0
 19 21  1  0  0  0  0
 21 30  1  0  0  0  0
 22 26  1  0  0  0  0
 23 28  1  0  0  0  0
 24 32  1  0  0  0  0
 25 24  2  0  0  0  0
 26 25  1  0  0  0  0
 27 29  2  0  0  0  0
 28 26  2  0  0  0  0
 28 27  1  0  0  0  0
 29 24  1  0  0  0  0
 30 31  1  0  0  0  0
 30 23  2  0  0  0  0
 31 22  2  0  0  0  0
 32 33  2  0  0  0  0
 32 34  1  0  0  0  0
M  END
>  <MODEL>
3

>  <REMARK>
 VINA RESULT:      -9.3      2.769      5.202
  Name = 
  5 active torsions:
  status: ('A' for Active; 'I' for Inactive)
    1  A    between atoms: C_1  and  C_9
    2  A    between atoms: C_7  and  C_11
    3  A    between atoms: C_8  and  C_9
    4  A    between atoms: N_18  and  C_30
    5  A    between atoms: N_23  and  C_25
                            x       y       z     vdW  Elec       q    Type
                         _______ _______ _______ _____ _____    ______ ____

>  <TORSDO>
F 5

$$$$
=
 OpenBabel11052415523D

 34 39  0  0  1  0  0  0  0  0999 V2000
  190.2300  176.1800  137.3100 C   0  0  0  0  0  0  0  0  0  0  0  0
  188.5630  173.0410  136.4200 C   0  0  0  0  0  2  0  0  0  0  0  0
  191.0020  173.4490  137.0090 O   0  0  0  0  0  0  0  0  0  0  0  0
  192.7250  176.3740  137.8530 C   0  0  0  0  0  3  0  0  0  0  0  0
  193.6900  175.4120  137.8910 N   0  0  0  0  0  0  0  0  0  0  0  0
  191.8930  174.3740  137.3510 C   0  0  0  0  0  0  0  0  0  0  0  0
  191.5440  175.7570  137.5110 C   0  0  0  0  0  0  0  0  0  0  0  0
  193.1980  174.2100  137.5920 N   0  0  0  0  0  0  0  0  0  0  0  0
  187.4460  174.0130  136.3160 N   0  0  2  0  0  0  0  0  0  0  0  0
  189.7430  173.8510  136.8100 C   0  0  0  0  0  0  0  0  0  0  0  0
  187.9990  175.2390  136.6640 O   0  0  0  0  0  0  0  0  0  0  0  0
  189.3410  175.1550  136.9440 C   0  0  0  0  0  0  0  0  0  0  0  0
  185.2130  173.0740  136.7410 C   0  0  2  0  0  0  0  0  0  0  0  0
  184.4690  172.2520  137.5860 O   0  0  0  0  0  1  0  0  0  0  0  0
  185.0370  172.8370  134.9440 S   0  0  0  0  0  1  0  0  0  0  0  0
  186.4750  173.6670  137.3470 C   0  0  2  0  0  3  0  0  0  0  0  0
  185.2160  174.5170  137.1790 C   0  0  0  0  0  2  0  0  0  0  0  0
  189.8110  177.6090  137.4260 C   0  0  0  0  0  2  0  0  0  0  0  0
  189.6010  177.9710  138.8550 C   0  0  0  0  0  0  0  0  0  0  0  0
  188.9380  179.0030  139.1410 O   0  0  0  0  0  0  0  0  0  0  0  0
  190.1280  177.1170  139.8780 N   0  0  0  0  0  2  0  0  0  0  0  0
  191.0250  177.6560  143.4570 C   0  0  0  0  0  3  0  0  0  0  0  0
  188.7230  177.2260  141.9190 C   0  0  0  0  0  3  0  0  0  0  0  0
  188.4150  177.7090  146.0840 C   0  0  0  0  0  0  0  0  0  0  0  0
  189.6690  177.7630  145.4610 C   0  0  0  0  0  3  0  0  0  0  0  0
  189.7750  177.6030  144.0780 C   0  0  0  0  0  0  0  0  0  0  0  0
  187.3650  177.3310  143.9230 C   0  0  0  0  0  3  0  0  0  0  0  0
  188.6140  177.3850  143.3020 C   0  0  0  0  0  0  0  0  0  0  0  0
  187.2650  177.4920  145.3080 C   0  0  0  0  0  3  0  0  0  0  0  0
  189.9790  177.2810  141.2950 C   0  0  0  0  0  0  0  0  0  0  0  0
  191.1230  177.4960  142.0700 C   0  0  0  0  0  3  0  0  0  0  0  0
  188.3080  177.8780  147.5430 C   0  0  0  0  0  0  0  0  0  0  0  0
  187.1790  177.9230  148.1000 O   0  0  0  0  0  0  0  0  0  0  0  0
  189.4560  177.9910  148.3200 O   0  0  0  0  0  1  0  0  0  0  0  0
  1 18  1  0  0  0  0
  1  7  2  0  0  0  0
  2 10  1  0  0  0  0
  3  6  1  0  0  0  0
  4  5  2  0  0  0  0
  6  7  1  0  0  0  0
  6  8  2  0  0  0  0
  7  4  1  0  0  0  0
  8  5  1  0  0  0  0
  9  2  1  1  0  0  0
  9 11  1  0  0  0  0
  9 16  1  0  0  0  0
 10 12  2  0  0  0  0
 10  3  1  0  0  0  0
 11 12  1  0  0  0  0
 12  1  1  0  0  0  0
 13 15  1  6  0  0  0
 13 17  1  0  0  0  0
 13 16  1  0  0  0  0
 13 14  1  0  0  0  0
 16 17  1  6  0  0  0
 18 19  1  0  0  0  0
 19 20  2  0  0  0  0
 19 21  1  0  0  0  0
 21 30  1  0  0  0  0
 22 26  1  0  0  0  0
 23 28  1  0  0  0  0
 24 32  1  0  0  0  0
 25 24  1  0  0  0  0
 26 25  2  0  0  0  0
 27 29  1  0  0  0  0
 28 27  2  0  0  0  0
 28 26  1  0  0  0  0
 29 24  2  0  0  0  0
 30 23  2  0  0  0  0
 30 31  1  0  0  0  0
 31 22  2  0  0  0  0
 32 33  2  0  0  0  0
 32 34  1  0  0  0  0
M  END
>  <MODEL>
4

>  <REMARK>
 VINA RESULT:      -9.2      3.750      6.445
  Name = 
  5 active torsions:
  status: ('A' for Active; 'I' for Inactive)
    1  A    between atoms: C_1  and  C_9
    2  A    between atoms: C_7  and  C_11
    3  A    between atoms: C_8  and  C_9
    4  A    between atoms: N_18  and  C_30
    5  A    between atoms: N_23  and  C_25
                            x       y       z     vdW  Elec       q    Type
                         _______ _______ _______ _____ _____    ______ ____

>  <TORSDO>
F 5

$$$$
=
 OpenBabel11052415523D

 34 39  0  0  1  0  0  0  0  0999 V2000
  189.3350  176.4400  137.2870 C   0  0  0  0  0  0  0  0  0  0  0  0
  191.6890  173.6740  136.8060 C   0  0  0  0  0  2  0  0  0  0  0  0
  189.1470  173.6380  136.7730 O   0  0  0  0  0  0  0  0  0  0  0  0
  186.7880  176.1800  137.2340 C   0  0  0  0  0  3  0  0  0  0  0  0
  186.0260  175.0690  137.0260 N   0  0  0  0  0  0  0  0  0  0  0  0
  188.0530  174.3810  136.9020 C   0  0  0  0  0  0  0  0  0  0  0  0
  188.1060  175.7910  137.1620 C   0  0  0  0  0  0  0  0  0  0  0  0
  186.7780  173.9860  136.8250 N   0  0  0  0  0  0  0  0  0  0  0  0
  192.6100  174.8100  137.0550 N   0  0  2  0  0  0  0  0  0  0  0  0
  190.3280  174.2540  136.8980 C   0  0  0  0  0  0  0  0  0  0  0  0
  191.7850  175.9140  137.2280 O   0  0  0  0  0  0  0  0  0  0  0  0
  190.4510  175.5970  137.1470 C   0  0  0  0  0  0  0  0  0  0  0  0
  194.8330  174.6490  136.0150 C   0  0  2  0  0  0  0  0  0  0  0  0
  195.5200  174.3130  134.8500 O   0  0  0  0  0  1  0  0  0  0  0  0
  195.4580  173.9930  137.5950 S   0  0  0  0  0  1  0  0  0  0  0  0
  193.3720  175.0260  135.8310 C   0  0  2  0  0  3  0  0  0  0  0  0
  194.4320  176.1020  136.0620 C   0  0  0  0  0  2  0  0  0  0  0  0
  189.4570  177.8960  137.5930 C   0  0  0  0  0  2  0  0  0  0  0  0
  189.2830  178.1330  139.0530 C   0  0  0  0  0  0  0  0  0  0  0  0
  188.4610  179.0030  139.4440 O   0  0  0  0  0  0  0  0  0  0  0  0
  190.0280  177.3390  139.9850 N   0  0  0  0  0  2  0  0  0  0  0  0
  191.1040  177.4980  143.5510 C   0  0  0  0  0  3  0  0  0  0  0  0
  188.7160  177.3850  142.0900 C   0  0  0  0  0  3  0  0  0  0  0  0
  188.6110  177.5350  146.2910 C   0  0  0  0  0  0  0  0  0  0  0  0
  189.8410  177.5410  145.6170 C   0  0  0  0  0  3  0  0  0  0  0  0
  189.8790  177.4920  144.2220 C   0  0  0  0  0  0  0  0  0  0  0  0
  187.4510  177.4280  144.1550 C   0  0  0  0  0  3  0  0  0  0  0  0
  188.6750  177.4350  143.4850 C   0  0  0  0  0  0  0  0  0  0  0  0
  187.4190  177.4780  145.5520 C   0  0  0  0  0  3  0  0  0  0  0  0
  189.9470  177.3930  141.4150 C   0  0  0  0  0  0  0  0  0  0  0  0
  191.1350  177.4490  142.1530 C   0  0  0  0  0  3  0  0  0  0  0  0
  188.5770  177.5880  147.7620 C   0  0  0  0  0  0  0  0  0  0  0  0
  187.9480  176.7140  148.4180 O   0  0  0  0  0  0  0  0  0  0  0  0
  189.2390  178.6040  148.4420 O   0  0  0  0  0  1  0  0  0  0  0  0
  1 18  1  0  0  0  0
  2 10  1  0  0  0  0
  3 10  1  0  0  0  0
  3  6  1  0  0  0  0
  5  4  2  0  0  0  0
  6  7  1  0  0  0  0
  7  4  1  0  0  0  0
  7  1  2  0  0  0  0
  8  6  2  0  0  0  0
  8  5  1  0  0  0  0
  9  2  1  6  0  0  0
  9 11  1  0  0  0  0
 10 12  2  0  0  0  0
 12 11  1  0  0  0  0
 12  1  1  0  0  0  0
 13 14  1  6  0  0  0
 13 17  1  0  0  0  0
 13 15  1  0  0  0  0
 16 13  1  0  0  0  0
 16 17  1  1  0  0  0
 16  9  1  0  0  0  0
 18 19  1  0  0  0  0
 19 20  2  0  0  0  0
 19 21  1  0  0  0  0
 21 30  1  0  0  0  0
 22 26  1  0  0  0  0
 23 28  1  0  0  0  0
 24 32  1  0  0  0  0
 25 24  1  0  0  0  0
 26 25  2  0  0  0  0
 27 29  1  0  0  0  0
 28 27  2  0  0  0  0
 28 26  1  0  0  0  0
 29 24  2  0  0  0  0
 30 23  2  0  0  0  0
 30 31  1  0  0  0  0
 31 22  2  0  0  0  0
 32 33  2  0  0  0  0
 32 34  1  0  0  0  0
M  END
>  <MODEL>
5

>  <REMARK>
 VINA RESULT:      -8.8      3.775      5.604
  Name = 
  5 active torsions:
  status: ('A' for Active; 'I' for Inactive)
    1  A    between atoms: C_1  and  C_9
    2  A    between atoms: C_7  and  C_11
    3  A    between atoms: C_8  and  C_9
    4  A    between atoms: N_18  and  C_30
    5  A    between atoms: N_23  and  C_25
                            x       y       z     vdW  Elec       q    Type
                         _______ _______ _______ _____ _____    ______ ____

>  <TORSDO>
F 5

$$$$
=
 OpenBabel11052415523D

 34 39  0  0  1  0  0  0  0  0999 V2000
  189.6340  177.4910  145.3690 C   0  0  0  0  0  0  0  0  0  0  0  0
  190.6160  177.0890  141.8620 C   0  0  0  0  0  2  0  0  0  0  0  0
  191.6910  176.1130  143.9490 O   0  0  0  0  0  0  0  0  0  0  0  0
  190.8790  176.4270  147.3370 C   0  0  0  0  0  3  0  0  0  0  0  0
  191.9800  175.6240  147.3450 N   0  0  0  0  0  0  0  0  0  0  0  0
  191.6200  176.0510  145.2750 C   0  0  0  0  0  0  0  0  0  0  0  0
  190.6030  176.7300  146.0240 C   0  0  0  0  0  0  0  0  0  0  0  0
  192.4300  175.3930  146.1110 N   0  0  0  0  0  0  0  0  0  0  0  0
  189.4470  177.9950  141.7430 N   0  0  2  0  0  0  0  0  0  0  0  0
  190.7680  176.8460  143.3170 C   0  0  0  0  0  0  0  0  0  0  0  0
  188.9980  178.1800  143.0450 O   0  0  0  0  0  0  0  0  0  0  0  0
  189.7690  177.5210  143.9700 C   0  0  0  0  0  0  0  0  0  0  0  0
  188.4720  177.5380  139.5310 C   0  0  2  0  0  0  0  0  0  0  0  0
  187.9200  176.5510  138.7160 O   0  0  0  0  0  1  0  0  0  0  0  0
  189.7430  178.6270  138.8140 S   0  0  0  0  0  1  0  0  0  0  0  0
  188.4070  177.2660  141.0260 C   0  0  2  0  0  3  0  0  0  0  0  0
  187.4420  178.2530  140.3680 C   0  0  0  0  0  2  0  0  0  0  0  0
  188.5710  178.2510  146.0930 C   0  0  0  0  0  2  0  0  0  0  0  0
  187.2340  177.9460  145.5130 C   0  0  0  0  0  0  0  0  0  0  0  0
  186.8000  176.7640  145.5470 O   0  0  0  0  0  0  0  0  0  0  0  0
  186.4500  179.0120  144.9620 N   0  0  0  0  0  2  0  0  0  0  0  0
  182.7270  178.9070  144.7900 C   0  0  0  0  0  3  0  0  0  0  0  0
  184.9080  178.7220  143.0410 C   0  0  0  0  0  3  0  0  0  0  0  0
  180.9850  178.4330  141.5550 C   0  0  0  0  0  0  0  0  0  0  0  0
  181.2060  178.6220  142.9270 C   0  0  0  0  0  3  0  0  0  0  0  0
  182.5070  178.7180  143.4240 C   0  0  0  0  0  0  0  0  0  0  0  0
  183.3880  178.4370  141.1760 C   0  0  0  0  0  3  0  0  0  0  0  0
  183.6070  178.6250  142.5420 C   0  0  0  0  0  0  0  0  0  0  0  0
  182.0830  178.3410  140.6850 C   0  0  0  0  0  3  0  0  0  0  0  0
  185.1290  178.9120  144.4140 C   0  0  0  0  0  0  0  0  0  0  0  0
  184.0340  179.0030  145.2800 C   0  0  0  0  0  3  0  0  0  0  0  0
  179.6110  178.3320  141.0370 C   0  0  0  0  0  0  0  0  0  0  0  0
  178.9310  177.2880  141.2290 O   0  0  0  0  0  1  0  0  0  0  0  0
  179.0500  179.3900  140.3300 O   0  0  0  0  0  0  0  0  0  0  0  0
  1  7  2  0  0  0  0
  1 18  1  0  0  0  0
  2 10  1  0  0  0  0
  3  6  1  0  0  0  0
  4  5  2  0  0  0  0
  6  7  1  0  0  0  0
  6  8  2  0  0  0  0
  7  4  1  0  0  0  0
  8  5  1  0  0  0  0
  9  2  1  1  0  0  0
  9 11  1  0  0  0  0
 10  3  1  0  0  0  0
 10 12  2  0  0  0  0
 11 12  1  0  0  0  0
 12  1  1  0  0  0  0
 13 14  1  6  0  0  0
 13 17  1  0  0  0  0
 13 16  1  0  0  0  0
 15 13  1  0  0  0  0
 16 17  1  1  0  0  0
 16  9  1  0  0  0  0
 19 20  2  0  0  0  0
 19 18  1  0  0  0  0
 21 19  1  0  0  0  0
 22 31  1  0  0  0  0
 23 30  1  0  0  0  0
 24 25  2  0  0  0  0
 25 26  1  0  0  0  0
 26 22  2  0  0  0  0
 27 28  1  0  0  0  0
 28 23  2  0  0  0  0
 28 26  1  0  0  0  0
 29 27  2  0  0  0  0
 29 24  1  0  0  0  0
 30 21  1  0  0  0  0
 30 31  2  0  0  0  0
 32 33  1  0  0  0  0
 32 24  1  0  0  0  0
 34 32  2  0  0  0  0
M  END
>  <MODEL>
6

>  <REMARK>
 VINA RESULT:      -8.7      3.966      8.194
  Name = 
  5 active torsions:
  status: ('A' for Active; 'I' for Inactive)
    1  A    between atoms: C_1  and  C_9
    2  A    between atoms: C_7  and  C_11
    3  A    between atoms: C_8  and  C_9
    4  A    between atoms: N_18  and  C_30
    5  A    between atoms: N_23  and  C_25
                            x       y       z     vdW  Elec       q    Type
                         _______ _______ _______ _____ _____    ______ ____

>  <TORSDO>
F 5

$$$$
=
 OpenBabel11052415523D

 34 39  0  0  1  0  0  0  0  0999 V2000
  186.1910  177.1800  137.0900 C   0  0  0  0  0  0  0  0  0  0  0  0
  182.5950  176.7540  137.6500 C   0  0  0  0  0  2  0  0  0  0  0  0
  184.1780  175.3370  136.2530 O   0  0  0  0  0  0  0  0  0  0  0  0
  187.6050  175.6360  135.6160 C   0  0  0  0  0  3  0  0  0  0  0  0
  187.2420  174.5290  134.9060 N   0  0  0  0  0  0  0  0  0  0  0  0
  185.4360  175.2010  135.8470 C   0  0  0  0  0  0  0  0  0  0  0  0
  186.4750  176.1070  136.2440 C   0  0  0  0  0  0  0  0  0  0  0  0
  185.9430  174.2620  135.0410 N   0  0  0  0  0  0  0  0  0  0  0  0
  182.8740  177.9860  138.4270 N   0  0  2  0  0  0  0  0  0  0  0  0
  183.8990  176.3670  137.0590 C   0  0  0  0  0  0  0  0  0  0  0  0
  184.2390  178.2050  138.2810 O   0  0  0  0  0  0  0  0  0  0  0  0
  184.8430  177.2700  137.4760 C   0  0  0  0  0  0  0  0  0  0  0  0
  181.4620  178.4740  140.3800 C   0  0  2  0  0  0  0  0  0  0  0  0
  180.8180  177.9160  141.4840 O   0  0  0  0  0  1  0  0  0  0  0  0
  180.5180  179.6280  139.3340 S   0  0  0  0  0  1  0  0  0  0  0  0
  182.6330  177.6760  139.8310 C   0  0  2  0  0  3  0  0  0  0  0  0
  182.8680  178.9210  140.6850 C   0  0  0  0  0  2  0  0  0  0  0  0
  187.2190  178.1780  137.5100 C   0  0  0  0  0  2  0  0  0  0  0  0
  187.7780  177.8130  138.8410 C   0  0  0  0  0  0  0  0  0  0  0  0
  188.7250  176.9860  138.9090 O   0  0  0  0  0  0  0  0  0  0  0  0
  187.2510  178.4400  140.0180 N   0  0  0  0  0  2  0  0  0  0  0  0
  189.5580  177.9750  142.9090 C   0  0  0  0  0  3  0  0  0  0  0  0
  186.8010  178.1470  142.4390 C   0  0  0  0  0  3  0  0  0  0  0  0
  188.2410  177.5810  146.3490 C   0  0  0  0  0  0  0  0  0  0  0  0
  189.1390  177.6840  145.2770 C   0  0  0  0  0  3  0  0  0  0  0  0
  188.6640  177.8720  143.9770 C   0  0  0  0  0  0  0  0  0  0  0  0
  186.3800  177.8560  144.8070 C   0  0  0  0  0  3  0  0  0  0  0  0
  187.2740  177.9590  143.7400 C   0  0  0  0  0  0  0  0  0  0  0  0
  186.8620  177.6680  146.1060 C   0  0  0  0  0  3  0  0  0  0  0  0
  187.7000  178.2510  141.3660 C   0  0  0  0  0  0  0  0  0  0  0  0
  189.0750  178.1630  141.6090 C   0  0  0  0  0  3  0  0  0  0  0  0
  188.7480  177.3840  147.7170 C   0  0  0  0  0  0  0  0  0  0  0  0
  187.9470  177.2380  148.6800 O   0  0  0  0  0  1  0  0  0  0  0  0
  190.1160  177.3550  147.9600 O   0  0  0  0  0  0  0  0  0  0  0  0
  1 12  1  0  0  0  0
  1 18  1  0  0  0  0
  3 10  1  0  0  0  0
  4  7  1  0  0  0  0
  5  8  1  0  0  0  0
  5  4  2  0  0  0  0
  6  7  1  0  0  0  0
  6  3  1  0  0  0  0
  7  1  2  0  0  0  0
  8  6  2  0  0  0  0
  9  2  1  6  0  0  0
  9 16  1  0  0  0  0
 10 12  2  0  0  0  0
 10  2  1  0  0  0  0
 11  9  1  0  0  0  0
 12 11  1  0  0  0  0
 13 15  1  6  0  0  0
 13 17  1  0  0  0  0
 13 14  1  0  0  0  0
 16 13  1  0  0  0  0
 16 17  1  1  0  0  0
 18 19  1  0  0  0  0
 19 20  2  0  0  0  0
 19 21  1  0  0  0  0
 21 30  1  0  0  0  0
 22 26  1  0  0  0  0
 23 28  1  0  0  0  0
 24 32  1  0  0  0  0
 25 24  2  0  0  0  0
 26 25  1  0  0  0  0
 27 29  2  0  0  0  0
 28 26  2  0  0  0  0
 28 27  1  0  0  0  0
 29 24  1  0  0  0  0
 30 31  1  0  0  0  0
 30 23  2  0  0  0  0
 31 22  2  0  0  0  0
 32 34  2  0  0  0  0
 32 33  1  0  0  0  0
M  END
>  <MODEL>
7

>  <REMARK>
 VINA RESULT:      -8.5      2.591      4.785
  Name = 
  5 active torsions:
  status: ('A' for Active; 'I' for Inactive)
    1  A    between atoms: C_1  and  C_9
    2  A    between atoms: C_7  and  C_11
    3  A    between atoms: C_8  and  C_9
    4  A    between atoms: N_18  and  C_30
    5  A    between atoms: N_23  and  C_25
                            x       y       z     vdW  Elec       q    Type
                         _______ _______ _______ _____ _____    ______ ____

>  <TORSDO>
F 5

$$$$
=
 OpenBabel11052415523D

 34 39  0  0  1  0  0  0  0  0999 V2000
  183.9030  177.9000  137.7710 C   0  0  0  0  0  0  0  0  0  0  0  0
  186.4830  175.7120  136.3620 C   0  0  0  0  0  2  0  0  0  0  0  0
  183.9660  175.6560  136.0080 O   0  0  0  0  0  0  0  0  0  0  0  0
  181.3990  177.6530  137.2960 C   0  0  0  0  0  3  0  0  0  0  0  0
  180.7420  176.7540  136.5100 N   0  0  0  0  0  0  0  0  0  0  0  0
  182.8140  176.2360  136.3310 C   0  0  0  0  0  0  0  0  0  0  0  0
  182.7410  177.3640  137.2140 C   0  0  0  0  0  0  0  0  0  0  0  0
  181.5840  175.9010  135.9270 N   0  0  0  0  0  0  0  0  0  0  0  0
  187.2920  176.6180  137.2150 N   0  0  2  0  0  0  0  0  0  0  0  0
  185.0810  176.1620  136.5440 C   0  0  0  0  0  0  0  0  0  0  0  0
  186.3770  177.5020  137.7740 O   0  0  0  0  0  0  0  0  0  0  0  0
  185.0840  177.2370  137.3960 C   0  0  0  0  0  0  0  0  0  0  0  0
  189.4790  176.6810  136.0920 C   0  0  2  0  0  0  0  0  0  0  0  0
  190.1400  177.0210  134.9130 O   0  0  0  0  0  1  0  0  0  0  0  0
  189.8410  175.0600  136.8380 S   0  0  0  0  0  1  0  0  0  0  0  0
  188.1550  177.3900  136.3300 C   0  0  2  0  0  3  0  0  0  0  0  0
  189.4160  177.8190  137.0790 C   0  0  0  0  0  2  0  0  0  0  0  0
  183.8910  179.0490  138.7240 C   0  0  0  0  0  2  0  0  0  0  0  0
  184.3220  178.6010  140.0780 C   0  0  0  0  0  0  0  0  0  0  0  0
  183.6180  177.7670  140.7060 O   0  0  0  0  0  0  0  0  0  0  0  0
  185.5490  179.1010  140.6230 N   0  0  0  0  0  2  0  0  0  0  0  0
  188.0660  177.8820  143.0890 C   0  0  0  0  0  3  0  0  0  0  0  0
  185.4420  178.8630  143.0900 C   0  0  0  0  0  3  0  0  0  0  0  0
  187.2820  177.7630  146.7070 C   0  0  0  0  0  0  0  0  0  0  0  0
  187.9790  177.6400  145.4970 C   0  0  0  0  0  3  0  0  0  0  0  0
  187.3710  178.0040  144.2940 C   0  0  0  0  0  0  0  0  0  0  0  0
  185.3530  178.6220  145.4990 C   0  0  0  0  0  3  0  0  0  0  0  0
  186.0480  178.4990  144.2950 C   0  0  0  0  0  0  0  0  0  0  0  0
  185.9670  178.2550  146.7000 C   0  0  0  0  0  3  0  0  0  0  0  0
  186.1410  178.7410  141.8790 C   0  0  0  0  0  0  0  0  0  0  0  0
  187.4510  178.2490  141.8870 C   0  0  0  0  0  3  0  0  0  0  0  0
  187.9280  177.3780  147.9730 C   0  0  0  0  0  0  0  0  0  0  0  0
  188.4840  176.2530  148.0890 O   0  0  0  0  0  0  0  0  0  0  0  0
  187.9300  178.2530  149.0530 O   0  0  0  0  0  1  0  0  0  0  0  0
  1 18  1  0  0  0  0
  2 10  1  0  0  0  0
  3  6  1  0  0  0  0
  3 10  1  0  0  0  0
  5  4  2  0  0  0  0
  6  7  1  0  0  0  0
  7  4  1  0  0  0  0
  7  1  2  0  0  0  0
  8  6  2  0  0  0  0
  8  5  1  0  0  0  0
  9  2  1  6  0  0  0
  9 11  1  0  0  0  0
 10 12  2  0  0  0  0
 12  1  1  0  0  0  0
 12 11  1  0  0  0  0
 13 14  1  6  0  0  0
 13 16  1  0  0  0  0
 13 15  1  0  0  0  0
 13 17  1  0  0  0  0
 16 17  1  1  0  0  0
 16  9  1  0  0  0  0
 18 19  1  0  0  0  0
 19 21  1  0  0  0  0
 19 20  2  0  0  0  0
 21 30  1  0  0  0  0
 22 26  1  0  0  0  0
 23 28  1  0  0  0  0
 24 32  1  0  0  0  0
 25 24  2  0  0  0  0
 26 28  2  0  0  0  0
 26 25  1  0  0  0  0
 27 29  2  0  0  0  0
 28 27  1  0  0  0  0
 29 24  1  0  0  0  0
 30 31  1  0  0  0  0
 30 23  2  0  0  0  0
 31 22  2  0  0  0  0
 32 33  2  0  0  0  0
 32 34  1  0  0  0  0
M  END
>  <MODEL>
8

>  <REMARK>
 VINA RESULT:      -8.4      1.386      2.000
  Name = 
  5 active torsions:
  status: ('A' for Active; 'I' for Inactive)
    1  A    between atoms: C_1  and  C_9
    2  A    between atoms: C_7  and  C_11
    3  A    between atoms: C_8  and  C_9
    4  A    between atoms: N_18  and  C_30
    5  A    between atoms: N_23  and  C_25
                            x       y       z     vdW  Elec       q    Type
                         _______ _______ _______ _____ _____    ______ ____

>  <TORSDO>
F 5

$$$$
=
 OpenBabel11052415523D

 34 39  0  0  1  0  0  0  0  0999 V2000
  182.0730  178.0190  139.9840 C   0  0  0  0  0  0  0  0  0  0  0  0
  182.7110  174.8130  138.3300 C   0  0  0  0  0  2  0  0  0  0  0  0
  180.7370  175.5050  139.7750 O   0  0  0  0  0  0  0  0  0  0  0  0
  180.0120  178.5040  141.4250 C   0  0  0  0  0  3  0  0  0  0  0  0
  178.9540  177.7020  141.7370 N   0  0  0  0  0  0  0  0  0  0  0  0
  180.2130  176.4970  140.4870 C   0  0  0  0  0  0  0  0  0  0  0  0
  180.8540  177.7740  140.6180 C   0  0  0  0  0  0  0  0  0  0  0  0
  179.0670  176.4980  141.1770 N   0  0  0  0  0  0  0  0  0  0  0  0
  183.9210  175.5870  137.9590 N   0  0  2  0  0  0  0  0  0  0  0  0
  181.9080  175.7330  139.1710 C   0  0  0  0  0  0  0  0  0  0  0  0
  183.7430  176.8380  138.5370 O   0  0  0  0  0  0  0  0  0  0  0  0
  182.5750  176.9280  139.2550 C   0  0  0  0  0  0  0  0  0  0  0  0
  185.1590  176.4440  136.0140 C   0  0  2  0  0  0  0  0  0  0  0  0
  185.4810  176.2070  134.6790 O   0  0  0  0  0  1  0  0  0  0  0  0
  186.5060  176.9040  137.1500 S   0  0  0  0  0  1  0  0  0  0  0  0
  183.8910  175.7700  136.5130 C   0  0  2  0  0  3  0  0  0  0  0  0
  183.9030  177.2610  136.1780 C   0  0  0  0  0  2  0  0  0  0  0  0
  182.8080  179.3130  140.1100 C   0  0  0  0  0  2  0  0  0  0  0  0
  183.9630  179.1620  141.0380 C   0  0  0  0  0  0  0  0  0  0  0  0
  185.0760  179.6630  140.7260 O   0  0  0  0  0  0  0  0  0  0  0  0
  183.7750  178.4800  142.2850 N   0  0  0  0  0  2  0  0  0  0  0  0
  185.3620  178.5060  145.6590 C   0  0  0  0  0  3  0  0  0  0  0  0
  186.0170  177.7390  143.0450 C   0  0  0  0  0  3  0  0  0  0  0  0
  188.8080  177.2400  146.1490 C   0  0  0  0  0  0  0  0  0  0  0  0
  187.5480  177.7900  146.4190 C   0  0  0  0  0  3  0  0  0  0  0  0
  186.6180  177.9570  145.3900 C   0  0  0  0  0  0  0  0  0  0  0  0
  188.2040  177.0230  143.8030 C   0  0  0  0  0  3  0  0  0  0  0  0
  186.9480  177.5710  144.0720 C   0  0  0  0  0  0  0  0  0  0  0  0
  189.1300  176.8580  144.8380 C   0  0  0  0  0  3  0  0  0  0  0  0
  184.7540  178.2890  143.3150 C   0  0  0  0  0  0  0  0  0  0  0  0
  184.4350  178.6700  144.6230 C   0  0  0  0  0  3  0  0  0  0  0  0
  189.7840  177.0650  147.2380 C   0  0  0  0  0  0  0  0  0  0  0  0
  190.6350  176.1370  147.1900 O   0  0  0  0  0  0  0  0  0  0  0  0
  189.7760  177.9250  148.3300 O   0  0  0  0  0  1  0  0  0  0  0  0
  1 18  1  0  0  0  0
  1  7  2  0  0  0  0
  2 10  1  0  0  0  0
  3  6  1  0  0  0  0
  4  5  2  0  0  0  0
  6  7  1  0  0  0  0
  6  8  2  0  0  0  0
  7  4  1  0  0  0  0
  8  5  1  0  0  0  0
  9  2  1  1  0  0  0
  9 11  1  0  0  0  0
 10 12  2  0  0  0  0
 10  3  1  0  0  0  0
 11 12  1  0  0  0  0
 12  1  1  0  0  0  0
 13 14  1  6  0  0  0
 13 17  1  0  0  0  0
 13 16  1  0  0  0  0
 13 15  1  0  0  0  0
 16 17  1  1  0  0  0
 16  9  1  0  0  0  0
 18 19  1  0  0  0  0
 19 21  1  0  0  0  0
 20 19  2  0  0  0  0
 21 30  1  0  0  0  0
 23 30  2  0  0  0  0
 23 28  1  0  0  0  0
 24 25  1  0  0  0  0
 24 32  1  0  0  0  0
 26 22  1  0  0  0  0
 26 25  2  0  0  0  0
 27 28  2  0  0  0  0
 27 29  1  0  0  0  0
 28 26  1  0  0  0  0
 29 24  2  0  0  0  0
 30 31  1  0  0  0  0
 31 22  2  0  0  0  0
 32 34  1  0  0  0  0
 33 32  2  0  0  0  0
M  END
>  <MODEL>
9

>  <REMARK>
 VINA RESULT:      -8.4      1.782      2.368
  Name = 
  5 active torsions:
  status: ('A' for Active; 'I' for Inactive)
    1  A    between atoms: C_1  and  C_9
    2  A    between atoms: C_7  and  C_11
    3  A    between atoms: C_8  and  C_9
    4  A    between atoms: N_18  and  C_30
    5  A    between atoms: N_23  and  C_25
                            x       y       z     vdW  Elec       q    Type
                         _______ _______ _______ _____ _____    ______ ____

>  <TORSDO>
F 5

$$$$
