=
 OpenBabel11052415203D

 37 39  0  0  1  0  0  0  0  0999 V2000
  189.6100  177.0940  142.8480 C   0  0  1  0  0  0  0  0  0  0  0  0
  191.0900  176.9980  139.9590 C   0  0  0  0  0  0  0  0  0  0  0  0
  187.9780  178.8090  138.7870 C   0  0  0  0  0  3  0  0  0  0  0  0
  189.7900  177.5810  144.3130 C   0  0  2  0  0  3  0  0  0  0  0  0
  184.6830  178.5300  143.0620 C   0  0  0  0  0  2  0  0  0  0  0  0
  189.4460  176.1420  138.3610 C   0  0  0  0  0  3  0  0  0  0  0  0
  186.9710  178.9040  144.0710 C   0  0  0  0  0  2  0  0  0  0  0  0
  186.2010  177.0530  145.3360 F   0  0  0  0  0  0  0  0  0  0  0  0
  189.2660  178.5420  139.0030 C   0  0  0  0  0  3  0  0  0  0  0  0
  184.3480  178.1990  140.5890 C   0  0  0  0  0  3  0  0  0  0  0  0
  188.3010  176.1050  137.4300 C   0  0  0  0  0  3  0  0  0  0  0  0
  188.5550  177.3240  145.2150 C   0  0  2  0  0  3  0  0  0  0  0  0
  190.8740  176.6520  142.3800 O   0  0  0  0  0  0  0  0  0  0  0  0
  191.5490  178.2140  140.4450 F   0  0  0  0  0  0  0  0  0  0  0  0
  185.5640  178.4070  138.4600 C   0  0  0  0  0  2  0  0  0  0  0  0
  187.1960  176.8390  137.5350 C   0  0  0  0  0  3  0  0  0  0  0  0
  190.7450  176.0480  141.1100 C   0  0  0  0  0  2  0  0  0  0  0  0
  187.2120  177.4350  144.4730 C   0  0  2  0  0  0  0  0  0  0  0  0
  186.0670  179.1270  142.8590 C   0  0  0  0  0  2  0  0  0  0  0  0
  186.9210  177.7560  138.6800 C   0  0  1  0  0  3  0  0  0  0  0  0
  188.5600  175.9640  142.8260 C   0  0  0  0  0  2  0  0  0  0  0  0
  189.8680  177.1890  139.0920 C   0  0  0  0  0  0  0  0  0  0  0  0
  183.7900  178.7900  141.8510 C   0  0  1  0  0  3  0  0  0  0  0  0
  192.1040  176.4280  139.2090 F   0  0  0  0  0  0  0  0  0  0  0  0
  187.1820  176.4740  143.2630 C   0  0  0  0  0  2  0  0  0  0  0  0
  188.5750  178.0990  146.3800 O   0  0  0  0  0  1  0  0  0  0  0  0
  189.1560  178.1540  142.0510 O   0  0  0  0  0  1  0  0  0  0  0  0
  185.0090  178.9720  139.7290 C   0  0  0  0  0  3  0  0  0  0  0  0
  191.8070  179.0700  144.2240 C   0  0  0  0  0  1  0  0  0  0  0  0
  190.3020  179.0230  144.4090 C   0  0  0  0  0  2  0  0  0  0  0  0
  182.3510  178.3310  142.1280 C   0  0  2  0  0  3  0  0  0  0  0  0
  181.5570  177.9140  140.8800 C   0  0  0  0  0  2  0  0  0  0  0  0
  181.2690  179.6930  139.1490 C   0  0  0  0  0  1  0  0  0  0  0  0
  180.6370  179.0040  140.3440 C   0  0  0  0  0  2  0  0  0  0  0  0
  181.6570  179.2760  142.8920 O   0  0  0  0  0  0  0  0  0  0  0  0
  179.7150  178.6140  144.0910 C   0  0  0  0  0  1  0  0  0  0  0  0
  181.2270  178.5780  144.0220 C   0  0  0  0  0  2  0  0  0  0  0  0
  1 27  1  6  0  0  0
  1  4  1  0  0  0  0
  2 14  1  0  0  0  0
  2 17  1  0  0  0  0
  3  9  2  0  0  0  0
  4 30  1  6  0  0  0
  4 12  1  0  0  0  0
  6 22  2  0  0  0  0
  7 18  1  0  0  0  0
  9 22  1  0  0  0  0
 10 23  1  0  0  0  0
 11 16  2  0  0  0  0
 11  6  1  0  0  0  0
 12 26  1  1  0  0  0
 13  1  1  0  0  0  0
 15 20  1  0  0  0  0
 15 28  1  0  0  0  0
 17 13  1  0  0  0  0
 18 12  1  0  0  0  0
 18  8  1  1  0  0  0
 19  5  1  0  0  0  0
 19  7  1  0  0  0  0
 20 16  1  6  0  0  0
 20  3  1  0  0  0  0
 21  1  1  0  0  0  0
 21 25  1  0  0  0  0
 22  2  1  0  0  0  0
 23 31  1  1  0  0  0
 23  5  1  0  0  0  0
 24  2  1  0  0  0  0
 25 18  1  0  0  0  0
 28 10  2  0  0  0  0
 29 30  1  0  0  0  0
 31 32  1  6  0  0  0
 31 35  1  0  0  0  0
 33 34  1  0  0  0  0
 34 32  1  0  0  0  0
 35 37  1  0  0  0  0
 37 36  1  0  0  0  0
M  END
>  <MODEL>
1

>  <REMARK>
 VINA RESULT:      -6.6      0.000      0.000
  Name = 
  6 active torsions:
  status: ('A' for Active; 'I' for Inactive)
    1  A    between atoms: C_2  and  C_6
    2  A    between atoms: C_2  and  C_35
    3  A    between atoms: C_5  and  C_23
    4  A    between atoms: C_6  and  O_8
    5  A    between atoms: C_6  and  C_31
    6  A    between atoms: O_8  and  C_19
                            x       y       z     vdW  Elec       q    Type
                         _______ _______ _______ _____ _____    ______ ____

>  <TORSDO>
F 6

$$$$
=
 OpenBabel11052415203D

 37 39  0  0  1  0  0  0  0  0999 V2000
  186.9750  177.8110  146.0800 C   0  0  1  0  0  0  0  0  0  0  0  0
  190.0630  177.3710  146.9860 C   0  0  0  0  0  0  0  0  0  0  0  0
  190.8130  178.5410  143.4630 C   0  0  0  0  0  3  0  0  0  0  0  0
  185.6760  178.5760  146.4530 C   0  0  2  0  0  3  0  0  0  0  0  0
  185.9440  178.6450  141.1180 C   0  0  0  0  0  2  0  0  0  0  0  0
  191.1240  176.0420  145.2260 C   0  0  0  0  0  3  0  0  0  0  0  0
  185.5140  179.4750  143.4670 C   0  0  0  0  0  2  0  0  0  0  0  0
  183.8440  177.8060  143.2500 F   0  0  0  0  0  0  0  0  0  0  0  0
  190.8360  178.4780  144.7950 C   0  0  0  0  0  3  0  0  0  0  0  0
  188.2090  177.8290  140.3800 C   0  0  0  0  0  3  0  0  0  0  0  0
  191.7740  175.6940  143.9470 C   0  0  0  0  0  3  0  0  0  0  0  0
  184.5030  178.3380  145.4670 C   0  0  2  0  0  3  0  0  0  0  0  0
  187.6280  177.4500  147.2870 O   0  0  0  0  0  0  0  0  0  0  0  0
  189.8790  178.7020  147.3310 F   0  0  0  0  0  0  0  0  0  0  0  0
  190.5540  177.7920  141.1250 C   0  0  0  0  0  2  0  0  0  0  0  0
  191.5500  176.2940  142.7800 C   0  0  0  0  0  3  0  0  0  0  0  0
  188.7330  176.6120  147.0180 C   0  0  0  0  0  2  0  0  0  0  0  0
  184.9510  178.1460  144.0070 C   0  0  2  0  0  0  0  0  0  0  0  0
  186.5260  179.3600  142.3280 C   0  0  0  0  0  2  0  0  0  0  0  0
  190.5290  177.3640  142.5840 C   0  0  1  0  0  3  0  0  0  0  0  0
  186.6000  176.5760  145.2360 C   0  0  0  0  0  2  0  0  0  0  0  0
  190.6690  177.2490  145.6090 C   0  0  0  0  0  0  0  0  0  0  0  0
  186.9630  178.5680  139.9830 C   0  0  1  0  0  3  0  0  0  0  0  0
  190.9150  176.8020  147.9180 F   0  0  0  0  0  0  0  0  0  0  0  0
  185.9640  176.9840  143.9020 C   0  0  0  0  0  2  0  0  0  0  0  0
  183.5030  179.3090  145.5840 O   0  0  0  0  0  1  0  0  0  0  0  0
  187.8120  178.6430  145.3230 O   0  0  0  0  0  1  0  0  0  0  0  0
  189.2980  178.5070  140.7370 C   0  0  0  0  0  3  0  0  0  0  0  0
  186.2110  180.2830  148.2120 C   0  0  0  0  0  1  0  0  0  0  0  0
  185.9130  180.0630  146.7420 C   0  0  0  0  0  2  0  0  0  0  0  0
  186.3190  177.9940  138.7130 C   0  0  2  0  0  3  0  0  0  0  0  0
  187.3170  177.4890  137.6570 C   0  0  0  0  0  2  0  0  0  0  0  0
  189.0810  179.1430  137.0310 C   0  0  0  0  0  1  0  0  0  0  0  0
  187.7370  178.5540  136.6510 C   0  0  0  0  0  2  0  0  0  0  0  0
  185.3940  178.8890  138.1660 O   0  0  0  0  0  0  0  0  0  0  0  0
  183.0870  178.8380  138.7340 C   0  0  0  0  0  1  0  0  0  0  0  0
  184.2230  178.1460  138.0110 C   0  0  0  0  0  2  0  0  0  0  0  0
  1 27  1  6  0  0  0
  1  4  1  0  0  0  0
  1 13  1  0  0  0  0
  2 17  1  0  0  0  0
  2 14  1  0  0  0  0
  2 24  1  0  0  0  0
  3  9  2  0  0  0  0
  4 30  1  6  0  0  0
  5 19  1  0  0  0  0
  6 22  2  0  0  0  0
  7 18  1  0  0  0  0
  9 22  1  0  0  0  0
 10 28  2  0  0  0  0
 11  6  1  0  0  0  0
 12 26  1  6  0  0  0
 12  4  1  0  0  0  0
 16 11  2  0  0  0  0
 17 13  1  0  0  0  0
 18  8  1  6  0  0  0
 18 12  1  0  0  0  0
 19  7  1  0  0  0  0
 20 15  1  6  0  0  0
 20 16  1  0  0  0  0
 20  3  1  0  0  0  0
 21  1  1  0  0  0  0
 22  2  1  0  0  0  0
 23 31  1  6  0  0  0
 23 10  1  0  0  0  0
 23  5  1  0  0  0  0
 25 18  1  0  0  0  0
 25 21  1  0  0  0  0
 28 15  1  0  0  0  0
 30 29  1  0  0  0  0
 31 32  1  6  0  0  0
 34 33  1  0  0  0  0
 34 32  1  0  0  0  0
 35 31  1  0  0  0  0
 37 35  1  0  0  0  0
 37 36  1  0  0  0  0
M  END
>  <MODEL>
2

>  <REMARK>
 VINA RESULT:      -5.6      2.916      5.589
  Name = 
  6 active torsions:
  status: ('A' for Active; 'I' for Inactive)
    1  A    between atoms: C_2  and  C_6
    2  A    between atoms: C_2  and  C_35
    3  A    between atoms: C_5  and  C_23
    4  A    between atoms: C_6  and  O_8
    5  A    between atoms: C_6  and  C_31
    6  A    between atoms: O_8  and  C_19
                            x       y       z     vdW  Elec       q    Type
                         _______ _______ _______ _____ _____    ______ ____

>  <TORSDO>
F 6

$$$$
=
 OpenBabel11052415203D

 37 39  0  0  1  0  0  0  0  0999 V2000
  190.5590  177.4240  145.0300 C   0  0  1  0  0  0  0  0  0  0  0  0
  188.8570  177.4790  147.7950 C   0  0  0  0  0  0  0  0  0  0  0  0
  185.8870  177.1280  145.4710 C   0  0  0  0  0  3  0  0  0  0  0  0
  191.6950  176.6620  144.2930 C   0  0  2  0  0  3  0  0  0  0  0  0
  188.0490  177.8270  140.5670 C   0  0  0  0  0  2  0  0  0  0  0  0
  187.0730  179.1250  147.4850 C   0  0  0  0  0  3  0  0  0  0  0  0
  189.7910  176.4950  141.8230 C   0  0  0  0  0  2  0  0  0  0  0  0
  191.1060  178.2530  140.9280 F   0  0  0  0  0  0  0  0  0  0  0  0
  186.7340  176.8760  146.4700 C   0  0  0  0  0  3  0  0  0  0  0  0
  185.9540  178.6750  141.6770 C   0  0  0  0  0  3  0  0  0  0  0  0
  185.7970  179.7280  147.0490 C   0  0  0  0  0  3  0  0  0  0  0  0
  191.9740  177.1840  142.8600 C   0  0  2  0  0  3  0  0  0  0  0  0
  190.8840  177.4590  146.4100 O   0  0  0  0  0  0  0  0  0  0  0  0
  189.0650  176.1160  147.6470 F   0  0  0  0  0  0  0  0  0  0  0  0
  184.6640  178.4140  143.7560 C   0  0  0  0  0  2  0  0  0  0  0  0
  185.1460  179.4310  145.9270 C   0  0  0  0  0  3  0  0  0  0  0  0
  189.9700  178.2780  147.1110 C   0  0  0  0  0  2  0  0  0  0  0  0
  190.7180  177.6890  142.1290 C   0  0  2  0  0  0  0  0  0  0  0  0
  188.3050  176.8210  141.6780 C   0  0  0  0  0  2  0  0  0  0  0  0
  185.6710  178.4900  144.8930 C   0  0  1  0  0  3  0  0  0  0  0  0
  190.4410  178.8400  144.4300 C   0  0  0  0  0  2  0  0  0  0  0  0
  187.5250  177.8880  147.2130 C   0  0  0  0  0  0  0  0  0  0  0  0
  186.5560  178.1150  140.4200 C   0  0  1  0  0  3  0  0  0  0  0  0
  188.8770  177.7690  149.1490 F   0  0  0  0  0  0  0  0  0  0  0  0
  190.0160  178.7890  142.9580 C   0  0  0  0  0  2  0  0  0  0  0  0
  192.6950  176.2660  142.0890 O   0  0  0  0  0  1  0  0  0  0  0  0
  189.3430  176.7490  144.8490 O   0  0  0  0  0  1  0  0  0  0  0  0
  185.2820  177.8770  142.5050 C   0  0  0  0  0  3  0  0  0  0  0  0
  192.4300  174.5380  145.4090 C   0  0  0  0  0  1  0  0  0  0  0  0
  191.5300  175.1380  144.3460 C   0  0  0  0  0  2  0  0  0  0  0  0
  186.2910  179.0030  139.1960 C   0  0  2  0  0  3  0  0  0  0  0  0
  184.9090  178.8120  138.5500 C   0  0  0  0  0  2  0  0  0  0  0  0
  182.7230  178.9660  139.7500 C   0  0  0  0  0  1  0  0  0  0  0  0
  183.8410  179.7530  139.0940 C   0  0  0  0  0  2  0  0  0  0  0  0
  187.3220  178.8910  138.2580 O   0  0  0  0  0  0  0  0  0  0  0  0
  187.5920  176.9510  136.9120 C   0  0  0  0  0  1  0  0  0  0  0  0
  186.7620  178.1870  137.1910 C   0  0  0  0  0  2  0  0  0  0  0  0
  1 27  1  6  0  0  0
  1 13  1  0  0  0  0
  2 24  1  0  0  0  0
  3  9  2  0  0  0  0
  4 30  1  6  0  0  0
  4  1  1  0  0  0  0
  5 19  1  0  0  0  0
  7 18  1  0  0  0  0
  9 22  1  0  0  0  0
 10 28  2  0  0  0  0
 11  6  1  0  0  0  0
 12 26  1  6  0  0  0
 12  4  1  0  0  0  0
 13 17  1  0  0  0  0
 14  2  1  0  0  0  0
 16 11  2  0  0  0  0
 17  2  1  0  0  0  0
 18  8  1  6  0  0  0
 18 12  1  0  0  0  0
 18 25  1  0  0  0  0
 19  7  1  0  0  0  0
 20 15  1  6  0  0  0
 20  3  1  0  0  0  0
 20 16  1  0  0  0  0
 21  1  1  0  0  0  0
 22  6  2  0  0  0  0
 22  2  1  0  0  0  0
 23 31  1  6  0  0  0
 23  5  1  0  0  0  0
 23 10  1  0  0  0  0
 25 21  1  0  0  0  0
 28 15  1  0  0  0  0
 30 29  1  0  0  0  0
 31 32  1  6  0  0  0
 32 34  1  0  0  0  0
 34 33  1  0  0  0  0
 35 31  1  0  0  0  0
 36 37  1  0  0  0  0
 37 35  1  0  0  0  0
M  END
>  <MODEL>
3

>  <REMARK>
 VINA RESULT:      -5.5      2.386      6.217
  Name = 
  6 active torsions:
  status: ('A' for Active; 'I' for Inactive)
    1  A    between atoms: C_2  and  C_6
    2  A    between atoms: C_2  and  C_35
    3  A    between atoms: C_5  and  C_23
    4  A    between atoms: C_6  and  O_8
    5  A    between atoms: C_6  and  C_31
    6  A    between atoms: O_8  and  C_19
                            x       y       z     vdW  Elec       q    Type
                         _______ _______ _______ _____ _____    ______ ____

>  <TORSDO>
F 6

$$$$
=
 OpenBabel11052415203D

 37 39  0  0  1  0  0  0  0  0999 V2000
  186.6910  176.2690  136.1940 C   0  0  1  0  0  0  0  0  0  0  0  0
  183.4890  176.7830  136.0170 C   0  0  0  0  0  0  0  0  0  0  0  0
  184.0840  178.8590  139.1270 C   0  0  0  0  0  3  0  0  0  0  0  0
  188.0130  176.4210  135.3910 C   0  0  2  0  0  3  0  0  0  0  0  0
  189.2000  177.7070  140.4390 C   0  0  0  0  0  2  0  0  0  0  0  0
  182.5840  176.3260  138.2440 C   0  0  0  0  0  3  0  0  0  0  0  0
  189.2200  177.8120  137.9140 C   0  0  0  0  0  2  0  0  0  0  0  0
  190.3090  175.7420  138.3020 F   0  0  0  0  0  0  0  0  0  0  0  0
  183.6910  178.5290  137.8960 C   0  0  0  0  0  3  0  0  0  0  0  0
  187.0750  177.9310  141.7710 C   0  0  0  0  0  3  0  0  0  0  0  0
  182.2230  176.5120  139.6630 C   0  0  0  0  0  3  0  0  0  0  0  0
  189.2780  175.9930  136.1800 C   0  0  2  0  0  3  0  0  0  0  0  0
  185.6650  175.9190  135.2790 O   0  0  0  0  0  0  0  0  0  0  0  0
  183.9640  177.8550  135.2760 F   0  0  0  0  0  0  0  0  0  0  0  0
  184.7170  178.5800  141.4970 C   0  0  0  0  0  2  0  0  0  0  0  0
  182.9170  177.2240  140.5490 C   0  0  0  0  0  3  0  0  0  0  0  0
  184.4730  175.6100  135.9700 C   0  0  0  0  0  2  0  0  0  0  0  0
  189.1960  176.2870  137.6880 C   0  0  2  0  0  0  0  0  0  0  0  0
  188.5590  178.3100  139.1980 C   0  0  0  0  0  2  0  0  0  0  0  0
  184.2250  177.8730  140.2430 C   0  0  1  0  0  3  0  0  0  0  0  0
  186.8890  175.1900  137.2770 C   0  0  0  0  0  2  0  0  0  0  0  0
  183.2610  177.1800  137.4560 C   0  0  0  0  0  0  0  0  0  0  0  0
  188.5430  178.2410  141.7100 C   0  0  1  0  0  3  0  0  0  0  0  0
  182.2910  176.3740  135.4550 F   0  0  0  0  0  0  0  0  0  0  0  0
  187.9470  175.6150  138.3020 C   0  0  0  0  0  2  0  0  0  0  0  0
  190.4540  176.4940  135.6120 O   0  0  0  0  0  1  0  0  0  0  0  0
  186.3730  177.4860  136.8150 O   0  0  0  0  0  1  0  0  0  0  0  0
  186.1840  178.8620  141.4330 C   0  0  0  0  0  3  0  0  0  0  0  0
  186.8140  178.4750  134.5940 C   0  0  0  0  0  1  0  0  0  0  0  0
  188.1630  177.7980  134.7330 C   0  0  0  0  0  2  0  0  0  0  0  0
  189.2970  177.7570  142.9570 C   0  0  2  0  0  3  0  0  0  0  0  0
  190.7590  177.3520  142.7080 C   0  0  0  0  0  2  0  0  0  0  0  0
  191.1290  179.4930  143.9420 C   0  0  0  0  0  1  0  0  0  0  0  0
  191.7700  178.2020  143.4690 C   0  0  0  0  0  2  0  0  0  0  0  0
  188.5860  176.7500  143.6180 O   0  0  0  0  0  0  0  0  0  0  0  0
  187.2960  177.7640  145.3370 C   0  0  0  0  0  1  0  0  0  0  0  0
  188.6130  177.1160  144.9640 C   0  0  0  0  0  2  0  0  0  0  0  0
  1 27  1  1  0  0  0
  1 21  1  0  0  0  0
  2 22  1  0  0  0  0
  4 30  1  1  0  0  0
  4 12  1  0  0  0  0
  4  1  1  0  0  0  0
  5 23  1  0  0  0  0
  6 11  1  0  0  0  0
  7 19  1  0  0  0  0
  9  3  2  0  0  0  0
 11 16  2  0  0  0  0
 12 26  1  6  0  0  0
 12 18  1  0  0  0  0
 13 17  1  0  0  0  0
 13  1  1  0  0  0  0
 14  2  1  0  0  0  0
 17  2  1  0  0  0  0
 18  7  1  0  0  0  0
 18  8  1  1  0  0  0
 18 25  1  0  0  0  0
 19  5  1  0  0  0  0
 20  3  1  6  0  0  0
 20 16  1  0  0  0  0
 20 15  1  0  0  0  0
 21 25  1  0  0  0  0
 22  9  1  0  0  0  0
 22  6  2  0  0  0  0
 23 10  1  0  0  0  0
 23 31  1  1  0  0  0
 24  2  1  0  0  0  0
 28 15  1  0  0  0  0
 28 10  2  0  0  0  0
 29 30  1  0  0  0  0
 31 32  1  6  0  0  0
 31 35  1  0  0  0  0
 32 34  1  0  0  0  0
 34 33  1  0  0  0  0
 35 37  1  0  0  0  0
 37 36  1  0  0  0  0
M  END
>  <MODEL>
4

>  <REMARK>
 VINA RESULT:      -5.4      3.516      7.555
  Name = 
  6 active torsions:
  status: ('A' for Active; 'I' for Inactive)
    1  A    between atoms: C_2  and  C_6
    2  A    between atoms: C_2  and  C_35
    3  A    between atoms: C_5  and  C_23
    4  A    between atoms: C_6  and  O_8
    5  A    between atoms: C_6  and  C_31
    6  A    between atoms: O_8  and  C_19
                            x       y       z     vdW  Elec       q    Type
                         _______ _______ _______ _____ _____    ______ ____

>  <TORSDO>
F 6

$$$$
=
 OpenBabel11052415203D

 37 39  0  0  1  0  0  0  0  0999 V2000
  186.6380  176.2680  136.1320 C   0  0  1  0  0  0  0  0  0  0  0  0
  183.4400  176.8120  135.9850 C   0  0  0  0  0  0  0  0  0  0  0  0
  184.0870  178.8950  139.0810 C   0  0  0  0  0  3  0  0  0  0  0  0
  187.9530  176.4040  135.3150 C   0  0  2  0  0  3  0  0  0  0  0  0
  189.2040  177.6980  140.3450 C   0  0  0  0  0  2  0  0  0  0  0  0
  182.5540  176.3720  138.2230 C   0  0  0  0  0  3  0  0  0  0  0  0
  189.2000  177.7930  137.8190 C   0  0  0  0  0  2  0  0  0  0  0  0
  190.2730  175.7140  138.2040 F   0  0  0  0  0  0  0  0  0  0  0  0
  183.6790  178.5640  137.8560 C   0  0  0  0  0  3  0  0  0  0  0  0
  187.0950  177.9470  141.6980 C   0  0  0  0  0  3  0  0  0  0  0  0
  182.2090  176.5680  139.6460 C   0  0  0  0  0  3  0  0  0  0  0  0
  189.2220  175.9670  136.0920 C   0  0  2  0  0  3  0  0  0  0  0  0
  185.6000  175.9250  135.2280 O   0  0  0  0  0  0  0  0  0  0  0  0
  183.9180  177.8770  135.2350 F   0  0  0  0  0  0  0  0  0  0  0  0
  184.7410  178.6180  141.4450 C   0  0  0  0  0  2  0  0  0  0  0  0
  182.9180  177.2760  140.5220 C   0  0  0  0  0  3  0  0  0  0  0  0
  184.4120  175.6290  135.9320 C   0  0  0  0  0  2  0  0  0  0  0  0
  189.1590  176.2670  137.6000 C   0  0  2  0  0  0  0  0  0  0  0  0
  188.5570  178.3020  139.1080 C   0  0  0  0  0  2  0  0  0  0  0  0
  184.2300  177.9110  140.2000 C   0  0  1  0  0  3  0  0  0  0  0  0
  186.8370  175.1910  137.2170 C   0  0  0  0  0  2  0  0  0  0  0  0
  183.2310  177.2170  137.4250 C   0  0  0  0  0  0  0  0  0  0  0  0
  188.5660  178.2420  141.6210 C   0  0  1  0  0  3  0  0  0  0  0  0
  182.2330  176.4130  135.4380 F   0  0  0  0  0  0  0  0  0  0  0  0
  187.9090  175.6100  138.2290 C   0  0  0  0  0  2  0  0  0  0  0  0
  190.3970  176.4540  135.5100 O   0  0  0  0  0  1  0  0  0  0  0  0
  186.3390  177.4900  136.7510 O   0  0  0  0  0  1  0  0  0  0  0  0
  186.2110  178.8850  141.3650 C   0  0  0  0  0  3  0  0  0  0  0  0
  186.7790  178.5010  134.5940 C   0  0  0  0  0  1  0  0  0  0  0  0
  188.1100  177.7770  134.6500 C   0  0  0  0  0  2  0  0  0  0  0  0
  189.3280  177.7560  142.8610 C   0  0  2  0  0  3  0  0  0  0  0  0
  188.5170  176.8490  143.8010 C   0  0  0  0  0  2  0  0  0  0  0  0
  186.6590  177.5010  145.3380 C   0  0  0  0  0  1  0  0  0  0  0  0
  188.1620  177.5030  145.1300 C   0  0  0  0  0  2  0  0  0  0  0  0
  189.9110  178.8260  143.5490 O   0  0  0  0  0  0  0  0  0  0  0  0
  191.7480  177.8480  144.6960 C   0  0  0  0  0  1  0  0  0  0  0  0
  191.2850  178.6010  143.4660 C   0  0  0  0  0  2  0  0  0  0  0  0
  1 27  1  1  0  0  0
  1 21  1  0  0  0  0
  2 22  1  0  0  0  0
  4 30  1  1  0  0  0
  4 12  1  0  0  0  0
  4  1  1  0  0  0  0
  5 23  1  0  0  0  0
  6 11  1  0  0  0  0
  7 19  1  0  0  0  0
  9  3  2  0  0  0  0
 11 16  2  0  0  0  0
 12 26  1  6  0  0  0
 12 18  1  0  0  0  0
 13 17  1  0  0  0  0
 13  1  1  0  0  0  0
 14  2  1  0  0  0  0
 17  2  1  0  0  0  0
 18  7  1  0  0  0  0
 18  8  1  1  0  0  0
 18 25  1  0  0  0  0
 19  5  1  0  0  0  0
 20  3  1  6  0  0  0
 20 16  1  0  0  0  0
 20 15  1  0  0  0  0
 21 25  1  0  0  0  0
 22  9  1  0  0  0  0
 22  6  2  0  0  0  0
 23 10  1  0  0  0  0
 23 31  1  1  0  0  0
 24  2  1  0  0  0  0
 28 15  1  0  0  0  0
 28 10  2  0  0  0  0
 29 30  1  0  0  0  0
 31 35  1  0  0  0  0
 31 32  1  1  0  0  0
 32 34  1  0  0  0  0
 34 33  1  0  0  0  0
 37 35  1  0  0  0  0
 37 36  1  0  0  0  0
M  END
>  <MODEL>
5

>  <REMARK>
 VINA RESULT:      -5.4      3.548      7.618
  Name = 
  6 active torsions:
  status: ('A' for Active; 'I' for Inactive)
    1  A    between atoms: C_2  and  C_6
    2  A    between atoms: C_2  and  C_35
    3  A    between atoms: C_5  and  C_23
    4  A    between atoms: C_6  and  O_8
    5  A    between atoms: C_6  and  C_31
    6  A    between atoms: O_8  and  C_19
                            x       y       z     vdW  Elec       q    Type
                         _______ _______ _______ _____ _____    ______ ____

>  <TORSDO>
F 6

$$$$
=
 OpenBabel11052415203D

 37 39  0  0  1  0  0  0  0  0999 V2000
  190.4960  177.5630  144.4340 C   0  0  1  0  0  0  0  0  0  0  0  0
  189.6410  177.4650  147.5650 C   0  0  0  0  0  0  0  0  0  0  0  0
  186.1360  177.2040  146.1550 C   0  0  0  0  0  3  0  0  0  0  0  0
  191.3750  176.8480  143.3700 C   0  0  2  0  0  3  0  0  0  0  0  0
  186.8340  178.1670  140.8830 C   0  0  0  0  0  2  0  0  0  0  0  0
  187.8510  179.1090  147.8520 C   0  0  0  0  0  3  0  0  0  0  0  0
  188.8520  176.7890  141.5300 C   0  0  0  0  0  2  0  0  0  0  0  0
  189.8720  178.6010  140.3900 F   0  0  0  0  0  0  0  0  0  0  0  0
  187.2280  176.9110  146.8620 C   0  0  0  0  0  3  0  0  0  0  0  0
  185.1410  178.9400  142.5790 C   0  0  0  0  0  3  0  0  0  0  0  0
  186.5090  179.7220  147.8240 C   0  0  0  0  0  3  0  0  0  0  0  0
  191.2420  177.4450  141.9440 C   0  0  2  0  0  3  0  0  0  0  0  0
  191.1960  177.5310  145.6670 O   0  0  0  0  0  0  0  0  0  0  0  0
  189.7920  176.1120  147.2950 F   0  0  0  0  0  0  0  0  0  0  0  0
  184.4870  178.5640  144.9210 C   0  0  0  0  0  2  0  0  0  0  0  0
  185.5660  179.4750  146.9170 C   0  0  0  0  0  3  0  0  0  0  0  0
  190.5220  178.3060  146.6360 C   0  0  0  0  0  2  0  0  0  0  0  0
  189.8340  177.9740  141.6230 C   0  0  2  0  0  0  0  0  0  0  0  0
  187.3870  177.1080  141.8250 C   0  0  0  0  0  2  0  0  0  0  0  0
  185.7730  178.5920  145.7310 C   0  0  1  0  0  3  0  0  0  0  0  0
  190.2220  179.0060  143.9630 C   0  0  0  0  0  2  0  0  0  0  0  0
  188.2020  177.8900  147.4020 C   0  0  0  0  0  0  0  0  0  0  0  0
  185.3620  178.4490  141.1770 C   0  0  1  0  0  3  0  0  0  0  0  0
  190.0430  177.6860  148.8710 F   0  0  0  0  0  0  0  0  0  0  0  0
  189.4000  179.0250  142.6700 C   0  0  0  0  0  2  0  0  0  0  0  0
  191.7120  176.5720  140.9560 O   0  0  0  0  0  1  0  0  0  0  0  0
  189.2750  176.8880  144.5680 O   0  0  0  0  0  1  0  0  0  0  0  0
  184.7250  178.0960  143.5210 C   0  0  0  0  0  3  0  0  0  0  0  0
  192.1140  174.7090  144.4520 C   0  0  0  0  0  1  0  0  0  0  0  0
  191.2230  175.3230  143.3890 C   0  0  0  0  0  2  0  0  0  0  0  0
  184.7680  179.3950  140.1230 C   0  0  2  0  0  3  0  0  0  0  0  0
  183.2560  179.2380  139.8970 C   0  0  0  0  0  2  0  0  0  0  0  0
  181.5270  178.6020  141.5850 C   0  0  0  0  0  1  0  0  0  0  0  0
  182.6330  178.0900  140.6820 C   0  0  0  0  0  2  0  0  0  0  0  0
  185.4820  179.3250  138.9220 O   0  0  0  0  0  0  0  0  0  0  0  0
  185.7420  177.6080  137.3010 C   0  0  0  0  0  1  0  0  0  0  0  0
  184.7720  178.4190  138.1340 C   0  0  0  0  0  2  0  0  0  0  0  0
  1 27  1  1  0  0  0
  1 13  1  0  0  0  0
  2 24  1  0  0  0  0
  3  9  2  0  0  0  0
  4 30  1  6  0  0  0
  4  1  1  0  0  0  0
  5 23  1  0  0  0  0
  5 19  1  0  0  0  0
  7 18  1  0  0  0  0
  7 19  1  0  0  0  0
  9 22  1  0  0  0  0
 10 28  2  0  0  0  0
 11  6  1  0  0  0  0
 12 26  1  6  0  0  0
 12  4  1  0  0  0  0
 13 17  1  0  0  0  0
 14  2  1  0  0  0  0
 16 11  2  0  0  0  0
 17  2  1  0  0  0  0
 18  8  1  6  0  0  0
 18 12  1  0  0  0  0
 18 25  1  0  0  0  0
 20 15  1  1  0  0  0
 20  3  1  0  0  0  0
 20 16  1  0  0  0  0
 21  1  1  0  0  0  0
 22  2  1  0  0  0  0
 22  6  2  0  0  0  0
 23 31  1  6  0  0  0
 23 10  1  0  0  0  0
 25 21  1  0  0  0  0
 28 15  1  0  0  0  0
 30 29  1  0  0  0  0
 31 32  1  6  0  0  0
 32 34  1  0  0  0  0
 34 33  1  0  0  0  0
 35 31  1  0  0  0  0
 36 37  1  0  0  0  0
 37 35  1  0  0  0  0
M  END
>  <MODEL>
6

>  <REMARK>
 VINA RESULT:      -5.2      2.393      5.961
  Name = 
  6 active torsions:
  status: ('A' for Active; 'I' for Inactive)
    1  A    between atoms: C_2  and  C_6
    2  A    between atoms: C_2  and  C_35
    3  A    between atoms: C_5  and  C_23
    4  A    between atoms: C_6  and  O_8
    5  A    between atoms: C_6  and  C_31
    6  A    between atoms: O_8  and  C_19
                            x       y       z     vdW  Elec       q    Type
                         _______ _______ _______ _____ _____    ______ ____

>  <TORSDO>
F 6

$$$$
=
 OpenBabel11052415203D

 37 39  0  0  1  0  0  0  0  0999 V2000
  182.1790  178.4670  141.2060 C   0  0  1  0  0  0  0  0  0  0  0  0
  183.4720  179.2660  144.0760 C   0  0  0  0  0  0  0  0  0  0  0  0
  186.6830  179.4890  142.0820 C   0  0  0  0  0  3  0  0  0  0  0  0
  181.0820  178.8830  140.1860 C   0  0  2  0  0  3  0  0  0  0  0  0
  185.3190  177.4200  137.2790 C   0  0  0  0  0  2  0  0  0  0  0  0
  185.4460  177.8510  144.3700 C   0  0  0  0  0  3  0  0  0  0  0  0
  183.2860  178.7500  137.9760 C   0  0  0  0  0  2  0  0  0  0  0  0
  182.3040  176.6740  137.3870 F   0  0  0  0  0  0  0  0  0  0  0  0
  185.6830  179.8400  142.8910 C   0  0  0  0  0  3  0  0  0  0  0  0
  187.3150  177.1370  138.7860 C   0  0  0  0  0  3  0  0  0  0  0  0
  186.8270  177.3450  144.2370 C   0  0  0  0  0  3  0  0  0  0  0  0
  181.0640  178.0200  138.8980 C   0  0  2  0  0  3  0  0  0  0  0  0
  181.6690  178.6990  142.5090 O   0  0  0  0  0  0  0  0  0  0  0  0
  183.1420  180.5200  143.5830 F   0  0  0  0  0  0  0  0  0  0  0  0
  188.2660  178.0300  140.8730 C   0  0  0  0  0  2  0  0  0  0  0  0
  187.5940  177.4700  143.1560 C   0  0  0  0  0  3  0  0  0  0  0  0
  182.5570  178.1900  143.4830 C   0  0  0  0  0  2  0  0  0  0  0  0
  182.4570  177.5400  138.4550 C   0  0  2  0  0  0  0  0  0  0  0  0
  184.8030  178.6060  138.0800 C   0  0  0  0  0  2  0  0  0  0  0  0
  187.1230  178.0740  141.8750 C   0  0  1  0  0  3  0  0  0  0  0  0
  182.5300  176.9830  140.9800 C   0  0  0  0  0  2  0  0  0  0  0  0
  184.9080  178.9220  143.7610 C   0  0  0  0  0  0  0  0  0  0  0  0
  186.8390  177.3130  137.3730 C   0  0  1  0  0  3  0  0  0  0  0  0
  183.2920  179.2870  145.4490 F   0  0  0  0  0  0  0  0  0  0  0  0
  183.1490  176.7600  139.5950 C   0  0  0  0  0  2  0  0  0  0  0  0
  180.3650  178.6350  137.8540 O   0  0  0  0  0  1  0  0  0  0  0  0
  183.3290  179.2440  141.0050 O   0  0  0  0  0  1  0  0  0  0  0  0
  187.7750  178.1840  139.4690 C   0  0  0  0  0  3  0  0  0  0  0  0
  179.7680  181.0150  140.3350 C   0  0  0  0  0  1  0  0  0  0  0  0
  181.0750  180.3870  139.8900 C   0  0  0  0  0  2  0  0  0  0  0  0
  187.3670  176.2190  136.4350 C   0  0  2  0  0  3  0  0  0  0  0  0
  186.3530  175.1110  136.1030 C   0  0  0  0  0  2  0  0  0  0  0  0
  185.0220  173.5440  137.5230 C   0  0  0  0  0  1  0  0  0  0  0  0
  186.4140  173.9200  137.0510 C   0  0  0  0  0  2  0  0  0  0  0  0
  188.5760  175.6920  136.9020 O   0  0  0  0  0  0  0  0  0  0  0  0
  190.6900  176.7660  137.0520 C   0  0  0  0  0  1  0  0  0  0  0  0
  189.5600  176.3260  136.1440 C   0  0  0  0  0  2  0  0  0  0  0  0
  1 27  1  6  0  0  0
  1 13  1  0  0  0  0
  2 24  1  0  0  0  0
  3  9  2  0  0  0  0
  4 30  1  6  0  0  0
  4  1  1  0  0  0  0
  5 23  1  0  0  0  0
  5 19  1  0  0  0  0
  7 19  1  0  0  0  0
  7 18  1  0  0  0  0
  9 22  1  0  0  0  0
 10 28  2  0  0  0  0
 11  6  1  0  0  0  0
 12 26  1  6  0  0  0
 12  4  1  0  0  0  0
 13 17  1  0  0  0  0
 14  2  1  0  0  0  0
 16 11  2  0  0  0  0
 17  2  1  0  0  0  0
 18  8  1  6  0  0  0
 18 12  1  0  0  0  0
 18 25  1  0  0  0  0
 20 15  1  6  0  0  0
 20  3  1  0  0  0  0
 20 16  1  0  0  0  0
 21  1  1  0  0  0  0
 22  2  1  0  0  0  0
 22  6  2  0  0  0  0
 23 31  1  6  0  0  0
 23 10  1  0  0  0  0
 25 21  1  0  0  0  0
 28 15  1  0  0  0  0
 30 29  1  0  0  0  0
 31 32  1  1  0  0  0
 31 35  1  0  0  0  0
 32 34  1  0  0  0  0
 34 33  1  0  0  0  0
 37 35  1  0  0  0  0
 37 36  1  0  0  0  0
M  END
>  <MODEL>
7

>  <REMARK>
 VINA RESULT:      -5.1      3.451      8.099
  Name = 
  6 active torsions:
  status: ('A' for Active; 'I' for Inactive)
    1  A    between atoms: C_2  and  C_6
    2  A    between atoms: C_2  and  C_35
    3  A    between atoms: C_5  and  C_23
    4  A    between atoms: C_6  and  O_8
    5  A    between atoms: C_6  and  C_31
    6  A    between atoms: O_8  and  C_19
                            x       y       z     vdW  Elec       q    Type
                         _______ _______ _______ _____ _____    ______ ____

>  <TORSDO>
F 6

$$$$
=
 OpenBabel11052415203D

 37 39  0  0  1  0  0  0  0  0999 V2000
  181.4820  176.2210  137.8760 C   0  0  1  0  0  0  0  0  0  0  0  0
  181.2520  178.5060  140.1720 C   0  0  0  0  0  0  0  0  0  0  0  0
  184.7370  179.4200  139.0040 C   0  0  0  0  0  3  0  0  0  0  0  0
  180.7900  175.6870  136.5910 C   0  0  2  0  0  3  0  0  0  0  0  0
  186.0450  175.3650  135.6790 C   0  0  0  0  0  2  0  0  0  0  0  0
  183.2990  178.3630  141.5070 C   0  0  0  0  0  3  0  0  0  0  0  0
  183.5940  175.7750  135.2160 C   0  0  0  0  0  2  0  0  0  0  0  0
  183.6190  173.4270  135.5450 F   0  0  0  0  0  0  0  0  0  0  0  0
  183.4470  179.5450  139.3200 C   0  0  0  0  0  3  0  0  0  0  0  0
  187.2890  176.5930  137.4910 C   0  0  0  0  0  3  0  0  0  0  0  0
  184.7070  178.5320  141.9150 C   0  0  0  0  0  3  0  0  0  0  0  0
  181.5400  174.5070  135.9200 C   0  0  2  0  0  3  0  0  0  0  0  0
  180.4660  176.6530  138.7670 O   0  0  0  0  0  0  0  0  0  0  0  0
  180.7620  179.1940  139.0730 F   0  0  0  0  0  0  0  0  0  0  0  0
  187.0330  178.5140  139.0080 C   0  0  0  0  0  2  0  0  0  0  0  0
  185.7490  178.5870  141.0880 C   0  0  0  0  0  3  0  0  0  0  0  0
  181.0230  176.9990  140.0180 C   0  0  0  0  0  2  0  0  0  0  0  0
  183.0710  174.5900  136.0540 C   0  0  2  0  0  0  0  0  0  0  0  0
  184.9170  176.3860  135.6740 C   0  0  0  0  0  2  0  0  0  0  0  0
  185.6420  178.3960  139.6120 C   0  0  1  0  0  3  0  0  0  0  0  0
  182.3390  175.0920  138.4840 C   0  0  0  0  0  2  0  0  0  0  0  0
  182.7280  178.7650  140.3570 C   0  0  0  0  0  0  0  0  0  0  0  0
  187.3620  176.0040  136.1120 C   0  0  1  0  0  3  0  0  0  0  0  0
  180.5630  178.9430  141.2910 F   0  0  0  0  0  0  0  0  0  0  0  0
  183.4780  174.6870  137.5410 C   0  0  0  0  0  2  0  0  0  0  0  0
  181.1410  174.3070  134.5940 O   0  0  0  0  0  1  0  0  0  0  0  0
  182.3140  177.3010  137.5510 O   0  0  0  0  0  1  0  0  0  0  0  0
  187.0980  177.9030  137.6450 C   0  0  0  0  0  3  0  0  0  0  0  0
  178.9500  177.1360  135.6920 C   0  0  0  0  0  1  0  0  0  0  0  0
  180.4250  176.7970  135.5990 C   0  0  0  0  0  2  0  0  0  0  0  0
  188.5240  175.0120  135.9580 C   0  0  2  0  0  3  0  0  0  0  0  0
  188.1040  173.5780  135.5980 C   0  0  0  0  0  2  0  0  0  0  0  0
  186.7850  172.5200  137.4380 C   0  0  0  0  0  1  0  0  0  0  0  0
  188.1460  172.6120  136.7750 C   0  0  0  0  0  2  0  0  0  0  0  0
  189.3640  175.0410  137.0770 O   0  0  0  0  0  0  0  0  0  0  0  0
  191.1540  176.5600  137.4430 C   0  0  0  0  0  1  0  0  0  0  0  0
  190.6060  175.4400  136.5830 C   0  0  0  0  0  2  0  0  0  0  0  0
  1 27  1  6  0  0  0
  1 21  1  0  0  0  0
  1 13  1  0  0  0  0
  2 22  1  0  0  0  0
  2 24  1  0  0  0  0
  3  9  2  0  0  0  0
  4 30  1  6  0  0  0
  4  1  1  0  0  0  0
  5 23  1  0  0  0  0
  6 11  1  0  0  0  0
  7 19  1  0  0  0  0
  7 18  1  0  0  0  0
  9 22  1  0  0  0  0
 10 28  2  0  0  0  0
 12 26  1  6  0  0  0
 12 18  1  0  0  0  0
 12  4  1  0  0  0  0
 13 17  1  0  0  0  0
 14  2  1  0  0  0  0
 15 20  1  0  0  0  0
 16 11  2  0  0  0  0
 17  2  1  0  0  0  0
 18  8  1  6  0  0  0
 18 25  1  0  0  0  0
 19  5  1  0  0  0  0
 20  3  1  6  0  0  0
 20 16  1  0  0  0  0
 22  6  2  0  0  0  0
 23 31  1  1  0  0  0
 23 10  1  0  0  0  0
 25 21  1  0  0  0  0
 28 15  1  0  0  0  0
 30 29  1  0  0  0  0
 31 32  1  1  0  0  0
 31 35  1  0  0  0  0
 32 34  1  0  0  0  0
 34 33  1  0  0  0  0
 37 35  1  0  0  0  0
 37 36  1  0  0  0  0
M  END
>  <MODEL>
8

>  <REMARK>
 VINA RESULT:      -5.0      4.446      9.471
  Name = 
  6 active torsions:
  status: ('A' for Active; 'I' for Inactive)
    1  A    between atoms: C_2  and  C_6
    2  A    between atoms: C_2  and  C_35
    3  A    between atoms: C_5  and  C_23
    4  A    between atoms: C_6  and  O_8
    5  A    between atoms: C_6  and  C_31
    6  A    between atoms: O_8  and  C_19
                            x       y       z     vdW  Elec       q    Type
                         _______ _______ _______ _____ _____    ______ ____

>  <TORSDO>
F 6

$$$$
=
 OpenBabel11052415203D

 37 39  0  0  1  0  0  0  0  0999 V2000
  189.9930  177.3420  139.6770 C   0  0  1  0  0  0  0  0  0  0  0  0
  190.8400  176.5320  142.7070 C   0  0  0  0  0  0  0  0  0  0  0  0
  187.0950  176.4150  143.2610 C   0  0  0  0  0  3  0  0  0  0  0  0
  190.1590  176.9140  138.1920 C   0  0  2  0  0  3  0  0  0  0  0  0
  185.0900  178.5200  138.7050 C   0  0  0  0  0  2  0  0  0  0  0  0
  189.5620  177.9900  144.2010 C   0  0  0  0  0  3  0  0  0  0  0  0
  187.0550  177.1320  137.9300 C   0  0  0  0  0  2  0  0  0  0  0  0
  187.4800  179.1930  136.8370 F   0  0  0  0  0  0  0  0  0  0  0  0
  188.3710  176.0280  143.2330 C   0  0  0  0  0  3  0  0  0  0  0  0
  184.5490  178.8290  141.1450 C   0  0  0  0  0  3  0  0  0  0  0  0
  188.4370  178.5300  144.9900 C   0  0  0  0  0  3  0  0  0  0  0  0
  189.3640  177.7960  137.1940 C   0  0  2  0  0  3  0  0  0  0  0  0
  191.2180  177.0790  140.3430 O   0  0  0  0  0  0  0  0  0  0  0  0
  190.7380  175.2780  142.1230 F   0  0  0  0  0  0  0  0  0  0  0  0
  185.1480  177.9280  143.3550 C   0  0  0  0  0  2  0  0  0  0  0  0
  187.1500  178.4390  144.6610 C   0  0  0  0  0  3  0  0  0  0  0  0
  191.1840  177.5950  141.6580 C   0  0  0  0  0  2  0  0  0  0  0  0
  188.0290  178.3150  137.7540 C   0  0  2  0  0  0  0  0  0  0  0  0
  185.9680  177.3110  138.9890 C   0  0  0  0  0  2  0  0  0  0  0  0
  186.6660  177.8430  143.3820 C   0  0  1  0  0  3  0  0  0  0  0  0
  189.6210  178.8370  139.7250 C   0  0  0  0  0  2  0  0  0  0  0  0
  189.5500  176.9140  143.3930 C   0  0  0  0  0  0  0  0  0  0  0  0
  183.9940  178.6620  139.7590 C   0  0  1  0  0  3  0  0  0  0  0  0
  191.8630  176.4870  143.6380 F   0  0  0  0  0  0  0  0  0  0  0  0
  188.2600  179.0950  139.0680 C   0  0  0  0  0  2  0  0  0  0  0  0
  189.2060  177.1800  135.9480 O   0  0  0  0  0  1  0  0  0  0  0  0
  188.9650  176.5960  140.2710 O   0  0  0  0  0  1  0  0  0  0  0  0
  184.6100  177.7830  141.9670 C   0  0  0  0  0  3  0  0  0  0  0  0
  191.2280  174.7290  137.5800 C   0  0  0  0  0  1  0  0  0  0  0  0
  189.9320  175.4150  137.9680 C   0  0  0  0  0  2  0  0  0  0  0  0
  183.0160  179.7820  139.3800 C   0  0  2  0  0  3  0  0  0  0  0  0
  181.7260  179.8220  140.2150 C   0  0  0  0  0  2  0  0  0  0  0  0
  180.7720  178.3980  142.0340 C   0  0  0  0  0  1  0  0  0  0  0  0
  181.1850  178.4430  140.5750 C   0  0  0  0  0  2  0  0  0  0  0  0
  182.7440  179.7730  138.0070 O   0  0  0  0  0  0  0  0  0  0  0  0
  180.8810  180.2080  136.5970 C   0  0  0  0  0  1  0  0  0  0  0  0
  181.6280  180.5970  137.8560 C   0  0  0  0  0  2  0  0  0  0  0  0
  1 21  1  0  0  0  0
  1 27  1  1  0  0  0
  1 13  1  0  0  0  0
  2 22  1  0  0  0  0
  2 24  1  0  0  0  0
  4 30  1  1  0  0  0
  4  1  1  0  0  0  0
  5 19  1  0  0  0  0
  5 23  1  0  0  0  0
  6 11  1  0  0  0  0
  7 19  1  0  0  0  0
  9  3  2  0  0  0  0
  9 22  1  0  0  0  0
 10 28  2  0  0  0  0
 12 26  1  6  0  0  0
 12 18  1  0  0  0  0
 12  4  1  0  0  0  0
 13 17  1  0  0  0  0
 14  2  1  0  0  0  0
 15 20  1  0  0  0  0
 16 11  2  0  0  0  0
 17  2  1  0  0  0  0
 18  8  1  6  0  0  0
 18  7  1  0  0  0  0
 18 25  1  0  0  0  0
 20  3  1  1  0  0  0
 20 16  1  0  0  0  0
 22  6  2  0  0  0  0
 23 31  1  6  0  0  0
 23 10  1  0  0  0  0
 25 21  1  0  0  0  0
 28 15  1  0  0  0  0
 29 30  1  0  0  0  0
 31 32  1  1  0  0  0
 32 34  1  0  0  0  0
 34 33  1  0  0  0  0
 35 31  1  0  0  0  0
 36 37  1  0  0  0  0
 37 35  1  0  0  0  0
M  END
>  <MODEL>
9

>  <REMARK>
 VINA RESULT:      -4.2      2.182      5.396
  Name = 
  6 active torsions:
  status: ('A' for Active; 'I' for Inactive)
    1  A    between atoms: C_2  and  C_6
    2  A    between atoms: C_2  and  C_35
    3  A    between atoms: C_5  and  C_23
    4  A    between atoms: C_6  and  O_8
    5  A    between atoms: C_6  and  C_31
    6  A    between atoms: O_8  and  C_19
                            x       y       z     vdW  Elec       q    Type
                         _______ _______ _______ _____ _____    ______ ____

>  <TORSDO>
F 6

$$$$
