=
 OpenBabel11052412443D

 25 26  0  0  1  0  0  0  0  0999 V2000
  187.0270  177.6770  145.2060 N   0  0  0  0  0  0  0  0  0  0  0  0
  188.0870  177.2670  144.4880 C   0  0  0  0  0  0  0  0  0  0  0  0
  189.4140  177.8410  147.6560 C   0  0  0  0  0  1  0  0  0  0  0  0
  188.7300  177.6760  146.5300 C   0  0  0  0  0  0  0  0  0  0  0  0
  190.4870  176.8870  144.9520 C   0  0  2  0  0  3  0  0  0  0  0  0
  191.5930  176.8540  145.9540 C   0  0  0  0  0  1  0  0  0  0  0  0
  188.0140  176.9030  143.2480 N   0  0  0  0  0  1  0  0  0  0  0  0
  187.4070  177.9320  146.4480 N   0  0  0  0  0  0  0  0  0  0  0  0
  189.2240  177.2440  145.2910 C   0  0  0  0  0  0  0  0  0  0  0  0
  185.6600  177.8220  144.7170 C   0  0  1  0  0  3  0  0  0  0  0  0
  183.5040  179.4570  143.5800 C   0  0  0  0  0  2  0  0  0  0  0  0
  184.8760  178.8190  145.5800 C   0  0  1  0  0  3  0  0  0  0  0  0
  183.4600  178.9980  145.0340 C   0  0  0  0  0  2  0  0  0  0  0  0
  184.2520  178.4350  142.7320 C   0  0  0  0  0  2  0  0  0  0  0  0
  184.7990  178.3370  146.9480 N   0  0  0  0  0  1  0  0  0  0  0  0
  185.6760  178.2670  143.2530 C   0  0  0  0  0  2  0  0  0  0  0  0
  190.8510  176.4810  143.5590 C   0  0  0  0  0  2  0  0  0  0  0  0
  191.2780  177.6980  142.7520 C   0  0  0  0  0  2  0  0  0  0  0  0
  191.8780  177.2740  141.4210 C   0  0  0  0  0  2  0  0  0  0  0  0
  189.7150  177.9780  140.3220 N   0  0  0  0  0  2  0  0  0  0  0  0
  190.8080  177.0610  140.4040 C   0  0  0  0  0  0  0  0  0  0  0  0
  190.8640  176.0570  139.6450 O   0  0  0  0  0  0  0  0  0  0  0  0
  187.3450  178.3460  139.9840 C   0  0  0  0  0  1  0  0  0  0  0  0
  188.9260  178.5840  138.1010 C   0  0  0  0  0  1  0  0  0  0  0  0
  188.6240  177.8150  139.3720 C   0  0  0  0  0  3  0  0  0  0  0  0
  1  8  1  0  0  0  0
  2  1  1  0  0  0  0
  2  9  2  0  0  0  0
  4  3  1  0  0  0  0
  5  9  1  0  0  0  0
  5  6  1  1  0  0  0
  7  2  1  0  0  0  0
  8  4  2  0  0  0  0
  9  4  1  0  0  0  0
 10 16  1  6  0  0  0
 10  1  1  0  0  0  0
 10 12  1  0  0  0  0
 11 13  1  0  0  0  0
 12 15  1  1  0  0  0
 13 12  1  0  0  0  0
 14 16  1  0  0  0  0
 14 11  1  0  0  0  0
 17  5  1  0  0  0  0
 18 17  1  0  0  0  0
 19 18  1  0  0  0  0
 20 21  1  0  0  0  0
 21 19  1  0  0  0  0
 22 21  2  0  0  0  0
 24 25  1  0  0  0  0
 25 23  1  0  0  0  0
 25 20  1  0  0  0  0
M  END
>  <MODEL>
1

>  <REMARK>
 VINA RESULT:      -8.7      0.000      0.000
  Name = 
  6 active torsions:
  status: ('A' for Active; 'I' for Inactive)
    1  A    between atoms: N_1  and  C_5
    2  A    between atoms: N_2  and  C_21
    3  A    between atoms: C_6  and  C_15
    4  A    between atoms: C_6  and  C_23
    5  A    between atoms: C_13  and  C_20
    6  A    between atoms: C_20  and  C_23
                            x       y       z     vdW  Elec       q    Type
                         _______ _______ _______ _____ _____    ______ ____

>  <TORSDO>
F 6

$$$$
=
 OpenBabel11052412443D

 25 26  0  0  1  0  0  0  0  0999 V2000
  188.4640  177.5570  141.8230 N   0  0  0  0  0  0  0  0  0  0  0  0
  187.9950  177.2940  143.0550 C   0  0  0  0  0  0  0  0  0  0  0  0
  185.5550  179.3570  141.6700 C   0  0  0  0  0  1  0  0  0  0  0  0
  186.5790  178.5880  142.0190 C   0  0  0  0  0  0  0  0  0  0  0  0
  185.9760  177.9200  144.3410 C   0  0  2  0  0  3  0  0  0  0  0  0
  184.6530  178.6110  144.3630 C   0  0  0  0  0  1  0  0  0  0  0  0
  188.5920  176.5120  143.8960 N   0  0  0  0  0  1  0  0  0  0  0  0
  187.6130  178.3450  141.1850 N   0  0  0  0  0  0  0  0  0  0  0  0
  186.7730  177.9350  143.2440 C   0  0  0  0  0  0  0  0  0  0  0  0
  189.7110  177.0580  141.2510 C   0  0  1  0  0  3  0  0  0  0  0  0
  192.2970  177.5230  139.9440 C   0  0  0  0  0  2  0  0  0  0  0  0
  189.8000  177.3980  139.7580 C   0  0  1  0  0  3  0  0  0  0  0  0
  191.1270  176.9130  139.1790 C   0  0  0  0  0  2  0  0  0  0  0  0
  192.2130  177.1410  141.4180 C   0  0  0  0  0  2  0  0  0  0  0  0
  188.7080  176.7640  139.0390 N   0  0  0  0  0  1  0  0  0  0  0  0
  190.9020  177.6430  142.0130 C   0  0  0  0  0  2  0  0  0  0  0  0
  186.3570  177.1910  145.5900 C   0  0  0  0  0  2  0  0  0  0  0  0
  186.7780  178.1810  146.6670 C   0  0  0  0  0  2  0  0  0  0  0  0
  187.4410  177.4580  147.8270 C   0  0  0  0  0  2  0  0  0  0  0  0
  189.7420  176.7390  147.0720 N   0  0  0  0  0  2  0  0  0  0  0  0
  188.9190  177.6560  147.7970 C   0  0  0  0  0  0  0  0  0  0  0  0
  189.4320  178.6150  148.4340 O   0  0  0  0  0  0  0  0  0  0  0  0
  191.8160  175.6000  147.5920 C   0  0  0  0  0  1  0  0  0  0  0  0
  191.6470  177.0340  145.5870 C   0  0  0  0  0  1  0  0  0  0  0  0
  191.1920  176.8570  147.0230 C   0  0  0  0  0  3  0  0  0  0  0  0
  1  2  1  0  0  0  0
  2  9  2  0  0  0  0
  2  7  1  0  0  0  0
  3  4  1  0  0  0  0
  4  9  1  0  0  0  0
  5  6  1  6  0  0  0
  5 17  1  0  0  0  0
  8  1  1  0  0  0  0
  8  4  2  0  0  0  0
  9  5  1  0  0  0  0
 10  1  1  1  0  0  0
 10 16  1  0  0  0  0
 11 14  1  0  0  0  0
 12 15  1  6  0  0  0
 12 10  1  0  0  0  0
 13 12  1  0  0  0  0
 13 11  1  0  0  0  0
 14 16  1  0  0  0  0
 17 18  1  0  0  0  0
 18 19  1  0  0  0  0
 20 21  1  0  0  0  0
 21 19  1  0  0  0  0
 21 22  2  0  0  0  0
 24 25  1  0  0  0  0
 25 20  1  0  0  0  0
 25 23  1  0  0  0  0
M  END
>  <MODEL>
2

>  <REMARK>
 VINA RESULT:      -8.6      2.613      6.919
  Name = 
  6 active torsions:
  status: ('A' for Active; 'I' for Inactive)
    1  A    between atoms: N_1  and  C_5
    2  A    between atoms: N_2  and  C_21
    3  A    between atoms: C_6  and  C_15
    4  A    between atoms: C_6  and  C_23
    5  A    between atoms: C_13  and  C_20
    6  A    between atoms: C_20  and  C_23
                            x       y       z     vdW  Elec       q    Type
                         _______ _______ _______ _____ _____    ______ ____

>  <TORSDO>
F 6

$$$$
=
 OpenBabel11052412443D

 25 26  0  0  1  0  0  0  0  0999 V2000
  186.4870  178.6180  141.7530 N   0  0  0  0  0  0  0  0  0  0  0  0
  187.3530  177.8060  142.3840 C   0  0  0  0  0  0  0  0  0  0  0  0
  188.9150  178.4690  139.3430 C   0  0  0  0  0  1  0  0  0  0  0  0
  188.1730  178.3390  140.4350 C   0  0  0  0  0  0  0  0  0  0  0  0
  189.5650  176.8360  141.8500 C   0  0  2  0  0  3  0  0  0  0  0  0
  190.7160  176.7530  140.9030 C   0  0  0  0  0  1  0  0  0  0  0  0
  187.1680  177.3560  143.5830 N   0  0  0  0  0  1  0  0  0  0  0  0
  186.9740  178.9460  140.5660 N   0  0  0  0  0  0  0  0  0  0  0  0
  188.4690  177.5870  141.5800 C   0  0  0  0  0  0  0  0  0  0  0  0
  185.2070  179.0850  142.2750 C   0  0  1  0  0  3  0  0  0  0  0  0
  182.8330  178.7040  143.9590 C   0  0  0  0  0  2  0  0  0  0  0  0
  184.0700  178.1460  141.8510 C   0  0  1  0  0  3  0  0  0  0  0  0
  182.7420  178.6170  142.4390 C   0  0  0  0  0  2  0  0  0  0  0  0
  183.9410  179.6710  144.3610 C   0  0  0  0  0  2  0  0  0  0  0  0
  183.9640  178.1190  140.4020 N   0  0  0  0  0  1  0  0  0  0  0  0
  185.2770  179.1960  143.8000 C   0  0  0  0  0  2  0  0  0  0  0  0
  189.7040  176.0600  143.1220 C   0  0  0  0  0  2  0  0  0  0  0  0
  191.0870  176.2750  143.7180 C   0  0  0  0  0  2  0  0  0  0  0  0
  191.0860  177.4680  144.6580 C   0  0  0  0  0  2  0  0  0  0  0  0
  189.1010  177.8440  146.1740 N   0  0  0  0  0  2  0  0  0  0  0  0
  190.3250  177.1580  145.9030 C   0  0  0  0  0  0  0  0  0  0  0  0
  190.7840  176.3140  146.7190 O   0  0  0  0  0  0  0  0  0  0  0  0
  188.9590  178.3500  148.5390 C   0  0  0  0  0  1  0  0  0  0  0  0
  186.9050  178.1110  147.1880 C   0  0  0  0  0  1  0  0  0  0  0  0
  188.3220  177.6100  147.3820 C   0  0  0  0  0  3  0  0  0  0  0  0
  1  2  1  0  0  0  0
  2  7  1  0  0  0  0
  3  4  1  0  0  0  0
  4  8  2  0  0  0  0
  4  9  1  0  0  0  0
  5  6  1  1  0  0  0
  5 17  1  0  0  0  0
  8  1  1  0  0  0  0
  9  5  1  0  0  0  0
  9  2  2  0  0  0  0
 10  1  1  1  0  0  0
 10 16  1  0  0  0  0
 11 14  1  0  0  0  0
 12 15  1  6  0  0  0
 12 10  1  0  0  0  0
 12 13  1  0  0  0  0
 13 11  1  0  0  0  0
 16 14  1  0  0  0  0
 17 18  1  0  0  0  0
 18 19  1  0  0  0  0
 19 21  1  0  0  0  0
 20 25  1  0  0  0  0
 21 20  1  0  0  0  0
 21 22  2  0  0  0  0
 24 25  1  0  0  0  0
 25 23  1  0  0  0  0
M  END
>  <MODEL>
3

>  <REMARK>
 VINA RESULT:      -8.5      2.259      5.109
  Name = 
  6 active torsions:
  status: ('A' for Active; 'I' for Inactive)
    1  A    between atoms: N_1  and  C_5
    2  A    between atoms: N_2  and  C_21
    3  A    between atoms: C_6  and  C_15
    4  A    between atoms: C_6  and  C_23
    5  A    between atoms: C_13  and  C_20
    6  A    between atoms: C_20  and  C_23
                            x       y       z     vdW  Elec       q    Type
                         _______ _______ _______ _____ _____    ______ ____

>  <TORSDO>
F 6

$$$$
=
 OpenBabel11052412443D

 25 26  0  0  1  0  0  0  0  0999 V2000
  189.3270  177.3450  142.4180 N   0  0  0  0  0  0  0  0  0  0  0  0
  188.4100  177.2590  143.3980 C   0  0  0  0  0  0  0  0  0  0  0  0
  191.3660  177.9760  145.0960 C   0  0  0  0  0  1  0  0  0  0  0  0
  190.3520  177.7130  144.2800 C   0  0  0  0  0  0  0  0  0  0  0  0
  188.4390  177.4980  145.8600 C   0  0  2  0  0  3  0  0  0  0  0  0
  189.2160  177.8280  147.0910 C   0  0  0  0  0  1  0  0  0  0  0  0
  187.1520  177.0460  143.1850 N   0  0  0  0  0  1  0  0  0  0  0  0
  190.5110  177.6170  142.9440 N   0  0  0  0  0  0  0  0  0  0  0  0
  189.0130  177.4890  144.6330 C   0  0  0  0  0  0  0  0  0  0  0  0
  189.0790  177.1740  140.9900 C   0  0  1  0  0  3  0  0  0  0  0  0
  189.7150  177.7750  138.1880 C   0  0  0  0  0  2  0  0  0  0  0  0
  188.6660  178.5040  140.3460 C   0  0  1  0  0  3  0  0  0  0  0  0
  188.4530  178.3250  138.8450 C   0  0  0  0  0  2  0  0  0  0  0  0
  190.0870  176.4350  138.8150 C   0  0  0  0  0  2  0  0  0  0  0  0
  187.4330  178.9840  140.9470 N   0  0  0  0  0  1  0  0  0  0  0  0
  190.3270  176.6070  140.3110 C   0  0  0  0  0  2  0  0  0  0  0  0
  186.9870  177.2000  146.0610 C   0  0  0  0  0  2  0  0  0  0  0  0
  186.3110  178.3510  146.7910 C   0  0  0  0  0  2  0  0  0  0  0  0
  184.8150  178.3510  146.5230 C   0  0  0  0  0  2  0  0  0  0  0  0
  183.4060  178.5220  144.4340 N   0  0  0  0  0  2  0  0  0  0  0  0
  184.5150  178.9860  145.2070 C   0  0  0  0  0  0  0  0  0  0  0  0
  185.2590  179.9070  144.7770 O   0  0  0  0  0  0  0  0  0  0  0  0
  183.7850  178.2890  142.0520 C   0  0  0  0  0  1  0  0  0  0  0  0
  181.5750  178.9950  142.9020 C   0  0  0  0  0  1  0  0  0  0  0  0
  183.0720  179.0770  143.1300 C   0  0  0  0  0  3  0  0  0  0  0  0
  1  8  1  0  0  0  0
  1  2  1  0  0  0  0
  2  9  2  0  0  0  0
  4  9  1  0  0  0  0
  4  3  1  0  0  0  0
  5 17  1  0  0  0  0
  5  6  1  6  0  0  0
  7  2  1  0  0  0  0
  8  4  2  0  0  0  0
  9  5  1  0  0  0  0
 10 16  1  6  0  0  0
 10  1  1  0  0  0  0
 11 14  1  0  0  0  0
 11 13  1  0  0  0  0
 12 15  1  1  0  0  0
 12 10  1  0  0  0  0
 13 12  1  0  0  0  0
 14 16  1  0  0  0  0
 17 18  1  0  0  0  0
 19 18  1  0  0  0  0
 20 21  1  0  0  0  0
 21 19  1  0  0  0  0
 22 21  2  0  0  0  0
 23 25  1  0  0  0  0
 24 25  1  0  0  0  0
 25 20  1  0  0  0  0
M  END
>  <MODEL>
4

>  <REMARK>
 VINA RESULT:      -8.4      2.299      5.926
  Name = 
  6 active torsions:
  status: ('A' for Active; 'I' for Inactive)
    1  A    between atoms: N_1  and  C_5
    2  A    between atoms: N_2  and  C_21
    3  A    between atoms: C_6  and  C_15
    4  A    between atoms: C_6  and  C_23
    5  A    between atoms: C_13  and  C_20
    6  A    between atoms: C_20  and  C_23
                            x       y       z     vdW  Elec       q    Type
                         _______ _______ _______ _____ _____    ______ ____

>  <TORSDO>
F 6

$$$$
=
 OpenBabel11052412443D

 25 26  0  0  1  0  0  0  0  0999 V2000
  188.1020  177.8410  145.6270 N   0  0  0  0  0  0  0  0  0  0  0  0
  187.4900  177.9860  144.4390 C   0  0  0  0  0  0  0  0  0  0  0  0
  184.8900  178.2550  146.7400 C   0  0  0  0  0  1  0  0  0  0  0  0
  186.0020  178.1320  146.0250 C   0  0  0  0  0  0  0  0  0  0  0  0
  185.1630  178.3690  143.6920 C   0  0  2  0  0  3  0  0  0  0  0  0
  183.7410  178.6280  144.0630 C   0  0  0  0  0  1  0  0  0  0  0  0
  188.1180  177.9930  143.3070 N   0  0  0  0  0  1  0  0  0  0  0  0
  187.2060  177.9250  146.5980 N   0  0  0  0  0  0  0  0  0  0  0  0
  186.1240  178.1790  144.6290 C   0  0  0  0  0  0  0  0  0  0  0  0
  189.5300  177.6290  145.8410 C   0  0  1  0  0  3  0  0  0  0  0  0
  191.8130  175.8480  146.3230 C   0  0  0  0  0  2  0  0  0  0  0  0
  189.7900  177.0230  147.2260 C   0  0  1  0  0  3  0  0  0  0  0  0
  191.2810  176.7630  147.4230 C   0  0  0  0  0  2  0  0  0  0  0  0
  191.5810  176.4860  144.9580 C   0  0  0  0  0  2  0  0  0  0  0  0
  189.3260  177.9320  148.2600 N   0  0  0  0  0  1  0  0  0  0  0  0
  190.0910  176.7260  144.7400 C   0  0  0  0  0  2  0  0  0  0  0  0
  185.4670  178.3550  142.2270 C   0  0  0  0  0  2  0  0  0  0  0  0
  184.1890  178.5470  141.4250 C   0  0  0  0  0  2  0  0  0  0  0  0
  184.4660  179.3410  140.1590 C   0  0  0  0  0  2  0  0  0  0  0  0
  186.5550  178.6180  138.9370 N   0  0  0  0  0  2  0  0  0  0  0  0
  185.1460  178.4900  139.1410 C   0  0  0  0  0  0  0  0  0  0  0  0
  184.4670  177.6840  138.4490 O   0  0  0  0  0  0  0  0  0  0  0  0
  187.5130  178.6910  136.7130 C   0  0  0  0  0  1  0  0  0  0  0  0
  188.6140  177.3940  138.5050 C   0  0  0  0  0  1  0  0  0  0  0  0
  187.2780  177.8390  137.9420 C   0  0  0  0  0  3  0  0  0  0  0  0
  1 10  1  0  0  0  0
  1  8  1  0  0  0  0
  2  9  2  0  0  0  0
  2  1  1  0  0  0  0
  4  8  2  0  0  0  0
  4  3  1  0  0  0  0
  5  6  1  1  0  0  0
  5  9  1  0  0  0  0
  7  2  1  0  0  0  0
  9  4  1  0  0  0  0
 10 16  1  6  0  0  0
 10 12  1  0  0  0  0
 11 13  1  0  0  0  0
 12 13  1  0  0  0  0
 12 15  1  1  0  0  0
 14 11  1  0  0  0  0
 16 14  1  0  0  0  0
 17  5  1  0  0  0  0
 18 17  1  0  0  0  0
 19 18  1  0  0  0  0
 20 21  1  0  0  0  0
 21 19  1  0  0  0  0
 22 21  2  0  0  0  0
 23 25  1  0  0  0  0
 25 24  1  0  0  0  0
 25 20  1  0  0  0  0
M  END
>  <MODEL>
5

>  <REMARK>
 VINA RESULT:      -8.2      2.131      5.360
  Name = 
  6 active torsions:
  status: ('A' for Active; 'I' for Inactive)
    1  A    between atoms: N_1  and  C_5
    2  A    between atoms: N_2  and  C_21
    3  A    between atoms: C_6  and  C_15
    4  A    between atoms: C_6  and  C_23
    5  A    between atoms: C_13  and  C_20
    6  A    between atoms: C_20  and  C_23
                            x       y       z     vdW  Elec       q    Type
                         _______ _______ _______ _____ _____    ______ ____

>  <TORSDO>
F 6

$$$$
=
 OpenBabel11052412443D

 25 26  0  0  1  0  0  0  0  0999 V2000
  185.5290  178.2110  144.0710 N   0  0  0  0  0  0  0  0  0  0  0  0
  186.7210  177.6540  144.3480 C   0  0  0  0  0  0  0  0  0  0  0  0
  185.8620  179.2700  147.3110 C   0  0  0  0  0  1  0  0  0  0  0  0
  186.0110  178.7210  146.1110 C   0  0  0  0  0  0  0  0  0  0  0  0
  188.2110  177.5730  146.3210 C   0  0  2  0  0  3  0  0  0  0  0  0
  188.4300  177.9180  147.7570 C   0  0  0  0  0  1  0  0  0  0  0  0
  187.3770  176.9150  143.5120 N   0  0  0  0  0  1  0  0  0  0  0  0
  185.0900  178.8640  145.1350 N   0  0  0  0  0  0  0  0  0  0  0  0
  187.0900  177.9490  145.6580 C   0  0  0  0  0  0  0  0  0  0  0  0
  184.8080  178.1190  142.8050 C   0  0  1  0  0  3  0  0  0  0  0  0
  183.6120  179.3790  140.4400 C   0  0  0  0  0  2  0  0  0  0  0  0
  183.4670  178.8570  142.8880 C   0  0  1  0  0  3  0  0  0  0  0  0
  182.7400  178.7940  141.5470 C   0  0  0  0  0  2  0  0  0  0  0  0
  184.9240  178.6070  140.3470 C   0  0  0  0  0  2  0  0  0  0  0  0
  182.6290  178.2530  143.9100 N   0  0  0  0  0  1  0  0  0  0  0  0
  185.6700  178.6840  141.6750 C   0  0  0  0  0  2  0  0  0  0  0  0
  189.2890  176.7690  145.6670 C   0  0  0  0  0  2  0  0  0  0  0  0
  190.3610  177.6900  145.1030 C   0  0  0  0  0  2  0  0  0  0  0  0
  191.4060  176.8910  144.3410 C   0  0  0  0  0  2  0  0  0  0  0  0
  190.6970  177.4070  141.9730 N   0  0  0  0  0  2  0  0  0  0  0  0
  190.8730  176.4510  143.0190 C   0  0  0  0  0  0  0  0  0  0  0  0
  190.5570  175.2430  142.8470 O   0  0  0  0  0  0  0  0  0  0  0  0
  189.0510  178.0190  140.3030 C   0  0  0  0  0  1  0  0  0  0  0  0
  191.2500  177.1240  139.6190 C   0  0  0  0  0  1  0  0  0  0  0  0
  190.1570  177.0520  140.6680 C   0  0  0  0  0  3  0  0  0  0  0  0
  1  2  1  0  0  0  0
  1  8  1  0  0  0  0
  2  9  2  0  0  0  0
  4  3  1  0  0  0  0
  5  6  1  1  0  0  0
  7  2  1  0  0  0  0
  8  4  2  0  0  0  0
  9  4  1  0  0  0  0
  9  5  1  0  0  0  0
 10 16  1  6  0  0  0
 10 12  1  0  0  0  0
 10  1  1  0  0  0  0
 11 13  1  0  0  0  0
 12 15  1  1  0  0  0
 13 12  1  0  0  0  0
 14 11  1  0  0  0  0
 14 16  1  0  0  0  0
 17  5  1  0  0  0  0
 18 17  1  0  0  0  0
 19 18  1  0  0  0  0
 20 21  1  0  0  0  0
 21 19  1  0  0  0  0
 22 21  2  0  0  0  0
 23 25  1  0  0  0  0
 24 25  1  0  0  0  0
 25 20  1  0  0  0  0
M  END
>  <MODEL>
6

>  <REMARK>
 VINA RESULT:      -8.2      1.712      2.727
  Name = 
  6 active torsions:
  status: ('A' for Active; 'I' for Inactive)
    1  A    between atoms: N_1  and  C_5
    2  A    between atoms: N_2  and  C_21
    3  A    between atoms: C_6  and  C_15
    4  A    between atoms: C_6  and  C_23
    5  A    between atoms: C_13  and  C_20
    6  A    between atoms: C_20  and  C_23
                            x       y       z     vdW  Elec       q    Type
                         _______ _______ _______ _____ _____    ______ ____

>  <TORSDO>
F 6

$$$$
=
 OpenBabel11052412443D

 25 26  0  0  1  0  0  0  0  0999 V2000
  188.0820  177.8480  145.7130 N   0  0  0  0  0  0  0  0  0  0  0  0
  187.4120  177.9540  144.5520 C   0  0  0  0  0  0  0  0  0  0  0  0
  184.9360  178.3440  146.9700 C   0  0  0  0  0  1  0  0  0  0  0  0
  186.0080  178.1800  146.2050 C   0  0  0  0  0  0  0  0  0  0  0  0
  185.0530  178.3340  143.9100 C   0  0  2  0  0  3  0  0  0  0  0  0
  183.6550  178.6250  144.3430 C   0  0  0  0  0  1  0  0  0  0  0  0
  187.9800  177.9090  143.3900 N   0  0  0  0  0  1  0  0  0  0  0  0
  187.2380  177.9810  146.7240 N   0  0  0  0  0  0  0  0  0  0  0  0
  186.0590  178.1700  144.8040 C   0  0  0  0  0  0  0  0  0  0  0  0
  189.5170  177.6280  145.8610 C   0  0  1  0  0  3  0  0  0  0  0  0
  191.8110  175.8320  146.2250 C   0  0  0  0  0  2  0  0  0  0  0  0
  189.8340  177.0060  147.2270 C   0  0  1  0  0  3  0  0  0  0  0  0
  191.3320  176.7380  147.3560 C   0  0  0  0  0  2  0  0  0  0  0  0
  191.5230  176.4850  144.8770 C   0  0  0  0  0  2  0  0  0  0  0  0
  189.4210  177.9060  148.2900 N   0  0  0  0  0  1  0  0  0  0  0  0
  190.0260  176.7350  144.7280 C   0  0  0  0  0  2  0  0  0  0  0  0
  185.2810  178.2590  142.4340 C   0  0  0  0  0  2  0  0  0  0  0  0
  183.9500  178.2740  141.6960 C   0  0  0  0  0  2  0  0  0  0  0  0
  184.1710  178.2350  140.1930 C   0  0  0  0  0  2  0  0  0  0  0  0
  182.1490  179.5270  139.4040 N   0  0  0  0  0  2  0  0  0  0  0  0
  183.5680  179.4330  139.5410 C   0  0  0  0  0  0  0  0  0  0  0  0
  184.3190  180.3400  139.0900 O   0  0  0  0  0  0  0  0  0  0  0  0
  181.1590  180.2820  137.3260 C   0  0  0  0  0  1  0  0  0  0  0  0
  180.2200  181.0090  139.4930 C   0  0  0  0  0  1  0  0  0  0  0  0
  181.4960  180.6540  138.7540 C   0  0  0  0  0  3  0  0  0  0  0  0
  1 10  1  0  0  0  0
  1  8  1  0  0  0  0
  2  9  2  0  0  0  0
  2  1  1  0  0  0  0
  4  8  2  0  0  0  0
  4  3  1  0  0  0  0
  5  6  1  6  0  0  0
  5  9  1  0  0  0  0
  7  2  1  0  0  0  0
  9  4  1  0  0  0  0
 10 16  1  6  0  0  0
 10 12  1  0  0  0  0
 11 13  1  0  0  0  0
 12 13  1  0  0  0  0
 12 15  1  1  0  0  0
 14 11  1  0  0  0  0
 16 14  1  0  0  0  0
 17  5  1  0  0  0  0
 18 17  1  0  0  0  0
 19 18  1  0  0  0  0
 20 21  1  0  0  0  0
 21 19  1  0  0  0  0
 22 21  2  0  0  0  0
 23 25  1  0  0  0  0
 25 20  1  0  0  0  0
 25 24  1  0  0  0  0
M  END
>  <MODEL>
7

>  <REMARK>
 VINA RESULT:      -8.1      3.231      6.281
  Name = 
  6 active torsions:
  status: ('A' for Active; 'I' for Inactive)
    1  A    between atoms: N_1  and  C_5
    2  A    between atoms: N_2  and  C_21
    3  A    between atoms: C_6  and  C_15
    4  A    between atoms: C_6  and  C_23
    5  A    between atoms: C_13  and  C_20
    6  A    between atoms: C_20  and  C_23
                            x       y       z     vdW  Elec       q    Type
                         _______ _______ _______ _____ _____    ______ ____

>  <TORSDO>
F 6

$$$$
=
 OpenBabel11052412443D

 25 26  0  0  1  0  0  0  0  0999 V2000
  189.6910  177.4110  141.1270 N   0  0  0  0  0  0  0  0  0  0  0  0
  188.7190  177.7730  140.2720 C   0  0  0  0  0  0  0  0  0  0  0  0
  190.7950  175.7470  138.3450 C   0  0  0  0  0  1  0  0  0  0  0  0
  190.1320  176.4790  139.2320 C   0  0  0  0  0  0  0  0  0  0  0  0
  188.2020  177.3130  137.8970 C   0  0  2  0  0  3  0  0  0  0  0  0
  188.5490  176.5770  136.6450 C   0  0  0  0  0  1  0  0  0  0  0  0
  187.7050  178.5050  140.6080 N   0  0  0  0  0  1  0  0  0  0  0  0
  190.5570  176.6280  140.5040 N   0  0  0  0  0  0  0  0  0  0  0  0
  188.9480  177.2000  139.0230 C   0  0  0  0  0  0  0  0  0  0  0  0
  189.7950  177.8030  142.5290 C   0  0  1  0  0  3  0  0  0  0  0  0
  190.9820  177.4930  145.1950 C   0  0  0  0  0  2  0  0  0  0  0  0
  189.3960  176.6430  143.4490 C   0  0  1  0  0  3  0  0  0  0  0  0
  189.5500  177.0460  144.9140 C   0  0  0  0  0  2  0  0  0  0  0  0
  191.3460  178.6720  144.2990 C   0  0  0  0  0  2  0  0  0  0  0  0
  188.0140  176.2670  143.2040 N   0  0  0  0  0  1  0  0  0  0  0  0
  191.2190  178.2710  142.8330 C   0  0  0  0  0  2  0  0  0  0  0  0
  186.9720  178.1620  137.8390 C   0  0  0  0  0  2  0  0  0  0  0  0
  185.7290  177.2910  137.9510 C   0  0  0  0  0  2  0  0  0  0  0  0
  184.4740  178.1490  137.9690 C   0  0  0  0  0  2  0  0  0  0  0  0
  183.9880  178.1760  140.4470 N   0  0  0  0  0  2  0  0  0  0  0  0
  184.3560  178.8830  139.2620 C   0  0  0  0  0  0  0  0  0  0  0  0
  184.5560  180.1270  139.2910 O   0  0  0  0  0  0  0  0  0  0  0  0
  182.4140  178.6240  142.2340 C   0  0  0  0  0  1  0  0  0  0  0  0
  184.8040  178.2500  142.7390 C   0  0  0  0  0  1  0  0  0  0  0  0
  183.8280  178.8340  141.7360 C   0  0  0  0  0  3  0  0  0  0  0  0
  2  7  1  0  0  0  0
  2  1  1  0  0  0  0
  3  4  1  0  0  0  0
  4  8  2  0  0  0  0
  5  6  1  1  0  0  0
  5  9  1  0  0  0  0
  8  1  1  0  0  0  0
  9  4  1  0  0  0  0
  9  2  2  0  0  0  0
 10  1  1  6  0  0  0
 10 16  1  0  0  0  0
 10 12  1  0  0  0  0
 12 15  1  1  0  0  0
 12 13  1  0  0  0  0
 13 11  1  0  0  0  0
 14 11  1  0  0  0  0
 16 14  1  0  0  0  0
 17  5  1  0  0  0  0
 17 18  1  0  0  0  0
 18 19  1  0  0  0  0
 19 21  1  0  0  0  0
 20 25  1  0  0  0  0
 21 22  2  0  0  0  0
 21 20  1  0  0  0  0
 25 23  1  0  0  0  0
 25 24  1  0  0  0  0
M  END
>  <MODEL>
8

>  <REMARK>
 VINA RESULT:      -8.1      2.551      6.668
  Name = 
  6 active torsions:
  status: ('A' for Active; 'I' for Inactive)
    1  A    between atoms: N_1  and  C_5
    2  A    between atoms: N_2  and  C_21
    3  A    between atoms: C_6  and  C_15
    4  A    between atoms: C_6  and  C_23
    5  A    between atoms: C_13  and  C_20
    6  A    between atoms: C_20  and  C_23
                            x       y       z     vdW  Elec       q    Type
                         _______ _______ _______ _____ _____    ______ ____

>  <TORSDO>
F 6

$$$$
=
 OpenBabel11052412443D

 25 26  0  0  1  0  0  0  0  0999 V2000
  190.5790  177.1300  142.9910 N   0  0  0  0  0  0  0  0  0  0  0  0
  190.2820  177.5200  144.2430 C   0  0  0  0  0  0  0  0  0  0  0  0
  192.3820  174.7820  144.7120 C   0  0  0  0  0  1  0  0  0  0  0  0
  191.6110  175.7940  144.3350 C   0  0  0  0  0  0  0  0  0  0  0  0
  190.8850  176.7530  146.5150 C   0  0  2  0  0  3  0  0  0  0  0  0
  191.6860  175.8240  147.3680 C   0  0  0  0  0  1  0  0  0  0  0  0
  189.5490  178.5510  144.5160 N   0  0  0  0  0  1  0  0  0  0  0  0
  191.3840  176.0800  143.0350 N   0  0  0  0  0  0  0  0  0  0  0  0
  190.9220  176.6920  145.1620 C   0  0  0  0  0  0  0  0  0  0  0  0
  190.1070  177.7540  141.7590 C   0  0  1  0  0  3  0  0  0  0  0  0
  188.8240  177.5770  139.1240 C   0  0  0  0  0  2  0  0  0  0  0  0
  190.8570  177.1950  140.5430 C   0  0  1  0  0  3  0  0  0  0  0  0
  190.3250  177.8200  139.2550 C   0  0  0  0  0  2  0  0  0  0  0  0
  188.0930  178.1730  140.3220 C   0  0  0  0  0  2  0  0  0  0  0  0
  192.2760  177.4840  140.6590 N   0  0  0  0  0  1  0  0  0  0  0  0
  188.5990  177.5370  141.6120 C   0  0  0  0  0  2  0  0  0  0  0  0
  190.0600  177.7660  147.2440 C   0  0  0  0  0  2  0  0  0  0  0  0
  188.7160  177.1670  147.6310 C   0  0  0  0  0  2  0  0  0  0  0  0
  187.6050  178.1900  147.4570 C   0  0  0  0  0  2  0  0  0  0  0  0
  185.6580  178.6960  145.9300 N   0  0  0  0  0  2  0  0  0  0  0  0
  186.7510  177.8460  146.2840 C   0  0  0  0  0  0  0  0  0  0  0  0
  186.9840  176.7930  145.6320 O   0  0  0  0  0  0  0  0  0  0  0  0
  183.4150  179.0310  145.0790 C   0  0  0  0  0  1  0  0  0  0  0  0
  185.3410  178.9800  143.5340 C   0  0  0  0  0  1  0  0  0  0  0  0
  184.7680  178.4060  144.8150 C   0  0  0  0  0  3  0  0  0  0  0  0
  1  8  1  0  0  0  0
  1  2  1  0  0  0  0
  2  7  1  0  0  0  0
  2  9  2  0  0  0  0
  4  3  1  0  0  0  0
  4  9  1  0  0  0  0
  5 17  1  0  0  0  0
  5  6  1  6  0  0  0
  8  4  2  0  0  0  0
  9  5  1  0  0  0  0
 10 16  1  6  0  0  0
 10  1  1  0  0  0  0
 11 13  1  0  0  0  0
 11 14  1  0  0  0  0
 12 15  1  1  0  0  0
 12 10  1  0  0  0  0
 13 12  1  0  0  0  0
 14 16  1  0  0  0  0
 17 18  1  0  0  0  0
 19 18  1  0  0  0  0
 20 21  1  0  0  0  0
 21 19  1  0  0  0  0
 22 21  2  0  0  0  0
 24 25  1  0  0  0  0
 25 23  1  0  0  0  0
 25 20  1  0  0  0  0
M  END
>  <MODEL>
9

>  <REMARK>
 VINA RESULT:      -8.0      2.175      5.831
  Name = 
  6 active torsions:
  status: ('A' for Active; 'I' for Inactive)
    1  A    between atoms: N_1  and  C_5
    2  A    between atoms: N_2  and  C_21
    3  A    between atoms: C_6  and  C_15
    4  A    between atoms: C_6  and  C_23
    5  A    between atoms: C_13  and  C_20
    6  A    between atoms: C_20  and  C_23
                            x       y       z     vdW  Elec       q    Type
                         _______ _______ _______ _____ _____    ______ ____

>  <TORSDO>
F 6

$$$$
