=
 OpenBabel11052415403D

 34 37  0  0  1  0  0  0  0  0999 V2000
  187.3520  178.2800  138.8070 C   0  0  2  0  0  3  0  0  0  0  0  0
  190.7140  176.6900  139.7440 N   0  0  0  0  0  2  0  0  0  0  0  0
  189.8290  177.2390  137.5820 C   0  0  0  0  0  2  0  0  0  0  0  0
  186.5010  177.7720  136.4120 C   0  0  0  0  0  0  0  0  0  0  0  0
  187.0910  178.0140  134.7510 S   0  0  0  0  0  0  0  0  0  0  0  0
  185.4730  176.9550  136.6020 C   0  0  0  0  0  2  0  0  0  0  0  0
  188.8360  178.0760  136.8100 C   0  0  2  0  0  3  0  0  0  0  0  0
  187.5260  177.8970  137.3990 N   0  0  0  0  0  0  0  0  0  0  0  0
  188.7590  177.6140  135.3620 C   0  0  0  0  0  2  0  0  0  0  0  0
  191.2720  177.3160  140.9320 C   0  0  0  0  0  2  0  0  0  0  0  0
  190.3020  177.1440  142.0910 C   0  0  2  0  0  3  0  0  0  0  0  0
  189.2420  178.2020  142.0470 C   0  0  0  0  0  3  0  0  0  0  0  0
  189.8490  177.6430  139.0560 C   0  0  1  0  0  3  0  0  0  0  0  0
  188.4350  178.4150  141.0000 C   0  0  0  0  0  3  0  0  0  0  0  0
  188.4340  177.6410  139.7030 C   0  0  1  0  0  3  0  0  0  0  0  0
  191.0310  177.2010  143.3970 C   0  0  0  0  0  0  0  0  0  0  0  0
  190.9010  178.4110  144.2570 C   0  0  0  0  0  1  0  0  0  0  0  0
  191.7300  176.2700  143.7660 O   0  0  0  0  0  0  0  0  0  0  0  0
  185.9560  177.9710  139.3530 C   0  0  0  0  0  2  0  0  0  0  0  0
  185.6180  178.8690  140.5370 C   0  0  0  0  0  2  0  0  0  0  0  0
  183.3850  177.8620  140.9140 C   0  0  0  0  0  1  0  0  0  0  0  0
  184.7360  178.1420  141.5400 C   0  0  2  0  0  3  0  0  0  0  0  0
  184.5630  178.9450  142.7040 O   0  0  0  0  0  0  0  0  0  0  0  0
  185.5280  179.6710  146.1710 N   0  0  0  0  0  2  0  0  0  0  0  0
  187.0660  177.8050  146.3720 C   0  0  0  0  0  0  0  0  0  0  0  0
  185.8590  178.4810  146.9380 C   0  0  0  0  0  2  0  0  0  0  0  0
  184.5690  179.3000  145.1350 C   0  0  1  0  0  3  0  0  0  0  0  0
  186.3260  177.9430  143.9400 C   0  0  0  0  0  3  0  0  0  0  0  0
  185.2080  178.6930  143.9220 C   0  0  0  0  0  0  0  0  0  0  0  0
  187.2080  177.5600  145.0640 C   0  0  0  0  0  3  0  0  0  0  0  0
  183.5450  178.5020  145.6230 F   0  0  0  0  0  0  0  0  0  0  0  0
  188.0990  177.3210  147.3070 C   0  0  0  0  0  0  0  0  0  0  0  0
  187.9590  177.5190  148.7120 N   0  0  0  0  0  1  0  0  0  0  0  0
  189.1190  176.7240  146.8700 O   0  0  0  0  0  0  0  0  0  0  0  0
  1 19  1  1  0  0  0
  1 15  1  0  0  0  0
  2 10  1  0  0  0  0
  4  6  2  0  0  0  0
  4  8  1  0  0  0  0
  5  9  1  0  0  0  0
  5  4  1  0  0  0  0
  7  9  1  6  0  0  0
  7  8  1  0  0  0  0
  7  3  1  0  0  0  0
  8  1  1  0  0  0  0
 10 11  1  0  0  0  0
 11 16  1  1  0  0  0
 12 11  1  0  0  0  0
 13  3  1  6  0  0  0
 13 15  1  0  0  0  0
 13  2  1  0  0  0  0
 14 12  2  0  0  0  0
 15 14  1  1  0  0  0
 16 18  2  0  0  0  0
 16 17  1  0  0  0  0
 19 20  1  0  0  0  0
 20 22  1  0  0  0  0
 22 21  1  6  0  0  0
 22 23  1  0  0  0  0
 23 29  1  0  0  0  0
 24 26  1  0  0  0  0
 25 26  1  0  0  0  0
 25 32  1  0  0  0  0
 27 31  1  1  0  0  0
 27 24  1  0  0  0  0
 28 30  1  0  0  0  0
 29 28  2  0  0  0  0
 29 27  1  0  0  0  0
 30 25  2  0  0  0  0
 32 33  1  0  0  0  0
 34 32  2  0  0  0  0
M  END
>  <MODEL>
1

>  <REMARK>
 VINA RESULT:      -8.5      0.000      0.000
  Name = 
  7 active torsions:
  status: ('A' for Active; 'I' for Inactive)
    1  A    between atoms: C_1  and  C_9
    2  A    between atoms: C_3  and  C_25
    3  A    between atoms: O_6  and  C_28
    4  A    between atoms: O_6  and  C_30
    5  A    between atoms: C_7  and  C_11
    6  A    between atoms: C_8  and  C_9
    7  A    between atoms: C_8  and  C_30
                            x       y       z     vdW  Elec       q    Type
                         _______ _______ _______ _____ _____    ______ ____

>  <TORSDO>
F 7

$$$$
=
 OpenBabel11052415403D

 34 37  0  0  1  0  0  0  0  0999 V2000
  185.3610  178.1380  141.9450 C   0  0  2  0  0  3  0  0  0  0  0  0
  184.5030  179.0650  145.5670 N   0  0  0  0  0  2  0  0  0  0  0  0
  183.0660  178.8660  143.6550 C   0  0  0  0  0  2  0  0  0  0  0  0
  183.7010  178.9910  140.1470 C   0  0  0  0  0  0  0  0  0  0  0  0
  181.9670  178.8070  139.7950 S   0  0  0  0  0  0  0  0  0  0  0  0
  184.3740  179.9450  139.5140 C   0  0  0  0  0  2  0  0  0  0  0  0
  182.8900  178.2750  142.2750 C   0  0  2  0  0  3  0  0  0  0  0  0
  184.0500  178.6130  141.4790 N   0  0  0  0  0  0  0  0  0  0  0  0
  181.6690  178.8720  141.5900 C   0  0  0  0  0  2  0  0  0  0  0  0
  185.2600  178.2520  146.5050 C   0  0  0  0  0  2  0  0  0  0  0  0
  186.7470  178.4750  146.2750 C   0  0  2  0  0  3  0  0  0  0  0  0
  187.2380  177.6130  145.1510 C   0  0  0  0  0  3  0  0  0  0  0  0
  184.3370  178.3330  144.3150 C   0  0  1  0  0  3  0  0  0  0  0  0
  186.7290  177.6300  143.9140 C   0  0  0  0  0  3  0  0  0  0  0  0
  185.6000  178.5070  143.4240 C   0  0  1  0  0  3  0  0  0  0  0  0
  187.5200  178.1820  147.5220 C   0  0  0  0  0  0  0  0  0  0  0  0
  188.4180  176.9940  147.5660 C   0  0  0  0  0  1  0  0  0  0  0  0
  187.4220  178.9020  148.5040 O   0  0  0  0  0  0  0  0  0  0  0  0
  186.5260  178.6200  141.0780 C   0  0  0  0  0  2  0  0  0  0  0  0
  187.5900  177.5380  140.9370 C   0  0  0  0  0  2  0  0  0  0  0  0
  189.0190  178.3130  139.0660 C   0  0  0  0  0  1  0  0  0  0  0  0
  188.9370  178.1410  140.5690 C   0  0  2  0  0  3  0  0  0  0  0  0
  189.9870  177.2840  141.0070 O   0  0  0  0  0  0  0  0  0  0  0  0
  191.7880  178.5900  143.9270 N   0  0  0  0  0  2  0  0  0  0  0  0
  191.5210  176.5880  145.2710 C   0  0  0  0  0  0  0  0  0  0  0  0
  191.2970  178.0630  145.1900 C   0  0  0  0  0  2  0  0  0  0  0  0
  190.6890  178.5880  142.9680 C   0  0  1  0  0  3  0  0  0  0  0  0
  190.6790  176.0670  142.9260 C   0  0  0  0  0  3  0  0  0  0  0  0
  190.4620  177.2520  142.3240 C   0  0  0  0  0  0  0  0  0  0  0  0
  191.2020  175.7540  144.2730 C   0  0  0  0  0  3  0  0  0  0  0  0
  189.5160  179.0980  143.5040 F   0  0  0  0  0  0  0  0  0  0  0  0
  192.0380  176.0270  146.5340 C   0  0  0  0  0  0  0  0  0  0  0  0
  192.0160  176.7960  147.7340 N   0  0  0  0  0  1  0  0  0  0  0  0
  192.5060  174.8580  146.5630 O   0  0  0  0  0  0  0  0  0  0  0  0
  1 19  1  6  0  0  0
  1 15  1  0  0  0  0
  2 10  1  0  0  0  0
  4  8  1  0  0  0  0
  5  4  1  0  0  0  0
  5  9  1  0  0  0  0
  6  4  2  0  0  0  0
  7  9  1  6  0  0  0
  7  3  1  0  0  0  0
  8  1  1  0  0  0  0
  8  7  1  0  0  0  0
 11 10  1  0  0  0  0
 11 16  1  1  0  0  0
 12 11  1  0  0  0  0
 13  3  1  6  0  0  0
 13  2  1  0  0  0  0
 14 12  2  0  0  0  0
 15 14  1  1  0  0  0
 15 13  1  0  0  0  0
 16 17  1  0  0  0  0
 16 18  2  0  0  0  0
 20 19  1  0  0  0  0
 22 21  1  6  0  0  0
 22 20  1  0  0  0  0
 22 23  1  0  0  0  0
 23 29  1  0  0  0  0
 24 26  1  0  0  0  0
 25 32  1  0  0  0  0
 26 25  1  0  0  0  0
 27 31  1  1  0  0  0
 27 24  1  0  0  0  0
 28 30  1  0  0  0  0
 29 28  2  0  0  0  0
 29 27  1  0  0  0  0
 30 25  2  0  0  0  0
 32 34  2  0  0  0  0
 32 33  1  0  0  0  0
M  END
>  <MODEL>
2

>  <REMARK>
 VINA RESULT:      -8.5      2.971      5.866
  Name = 
  7 active torsions:
  status: ('A' for Active; 'I' for Inactive)
    1  A    between atoms: C_1  and  C_9
    2  A    between atoms: C_3  and  C_25
    3  A    between atoms: O_6  and  C_28
    4  A    between atoms: O_6  and  C_30
    5  A    between atoms: C_7  and  C_11
    6  A    between atoms: C_8  and  C_9
    7  A    between atoms: C_8  and  C_30
                            x       y       z     vdW  Elec       q    Type
                         _______ _______ _______ _____ _____    ______ ____

>  <TORSDO>
F 7

$$$$
=
 OpenBabel11052415403D

 34 37  0  0  1  0  0  0  0  0999 V2000
  187.4550  177.8650  139.7190 C   0  0  2  0  0  3  0  0  0  0  0  0
  183.9830  179.3100  140.4720 N   0  0  0  0  0  2  0  0  0  0  0  0
  184.9170  178.5760  138.3870 C   0  0  0  0  0  2  0  0  0  0  0  0
  188.2810  178.1480  137.2790 C   0  0  0  0  0  0  0  0  0  0  0  0
  187.7200  177.6720  135.6590 S   0  0  0  0  0  0  0  0  0  0  0  0
  189.2480  179.0520  137.3690 C   0  0  0  0  0  2  0  0  0  0  0  0
  185.9720  177.7270  137.7150 C   0  0  2  0  0  3  0  0  0  0  0  0
  187.2620  178.0670  138.2760 N   0  0  0  0  0  0  0  0  0  0  0  0
  186.0240  178.0210  136.2230 C   0  0  0  0  0  2  0  0  0  0  0  0
  183.4640  178.7890  141.7260 C   0  0  0  0  0  2  0  0  0  0  0  0
  184.4120  179.1640  142.8540 C   0  0  2  0  0  3  0  0  0  0  0  0
  185.5450  178.1860  142.9330 C   0  0  0  0  0  3  0  0  0  0  0  0
  184.9170  178.3470  139.8980 C   0  0  1  0  0  3  0  0  0  0  0  0
  186.3700  177.9100  141.9160 C   0  0  0  0  0  3  0  0  0  0  0  0
  186.3240  178.5250  140.5370 C   0  0  1  0  0  3  0  0  0  0  0  0
  183.6810  179.2080  144.1600 C   0  0  0  0  0  0  0  0  0  0  0  0
  182.2200  178.9160  144.1930 C   0  0  0  0  0  1  0  0  0  0  0  0
  184.2660  179.4820  145.1970 O   0  0  0  0  0  0  0  0  0  0  0  0
  188.8220  178.3340  140.2220 C   0  0  0  0  0  2  0  0  0  0  0  0
  189.7480  177.1510  140.4810 C   0  0  0  0  0  2  0  0  0  0  0  0
  192.1700  177.4800  140.8890 C   0  0  0  0  0  1  0  0  0  0  0  0
  190.7960  177.4960  141.5270 C   0  0  2  0  0  3  0  0  0  0  0  0
  190.7530  176.5450  142.5870 O   0  0  0  0  0  0  0  0  0  0  0  0
  190.8880  176.4850  146.2550 N   0  0  0  0  0  2  0  0  0  0  0  0
  188.7380  177.5600  146.5780 C   0  0  0  0  0  0  0  0  0  0  0  0
  190.2010  177.6060  146.8750 C   0  0  0  0  0  2  0  0  0  0  0  0
  191.3620  176.9040  144.9400 C   0  0  1  0  0  3  0  0  0  0  0  0
  188.9920  177.0620  144.0940 C   0  0  0  0  0  3  0  0  0  0  0  0
  190.3030  176.8450  143.8790 C   0  0  0  0  0  0  0  0  0  0  0  0
  188.2590  177.3560  145.3440 C   0  0  0  0  0  3  0  0  0  0  0  0
  191.9810  178.1450  144.9710 F   0  0  0  0  0  0  0  0  0  0  0  0
  187.7910  177.8310  147.6760 C   0  0  0  0  0  0  0  0  0  0  0  0
  186.5010  178.3750  147.4080 N   0  0  0  0  0  1  0  0  0  0  0  0
  188.1160  177.5830  148.8680 O   0  0  0  0  0  0  0  0  0  0  0  0
  1 19  1  1  0  0  0
  1 15  1  0  0  0  0
  2 10  1  0  0  0  0
  4  6  2  0  0  0  0
  4  8  1  0  0  0  0
  5  9  1  0  0  0  0
  5  4  1  0  0  0  0
  7  9  1  6  0  0  0
  7  8  1  0  0  0  0
  7  3  1  0  0  0  0
  8  1  1  0  0  0  0
 10 11  1  0  0  0  0
 11 12  1  0  0  0  0
 11 16  1  1  0  0  0
 13  3  1  6  0  0  0
 13  2  1  0  0  0  0
 13 15  1  0  0  0  0
 14 12  2  0  0  0  0
 15 14  1  1  0  0  0
 16 17  1  0  0  0  0
 16 18  2  0  0  0  0
 19 20  1  0  0  0  0
 20 22  1  0  0  0  0
 22 21  1  6  0  0  0
 22 23  1  0  0  0  0
 23 29  1  0  0  0  0
 24 26  1  0  0  0  0
 25 26  1  0  0  0  0
 25 32  1  0  0  0  0
 27 31  1  1  0  0  0
 27 24  1  0  0  0  0
 28 30  1  0  0  0  0
 29 28  2  0  0  0  0
 29 27  1  0  0  0  0
 30 25  2  0  0  0  0
 32 34  2  0  0  0  0
 33 32  1  0  0  0  0
M  END
>  <MODEL>
3

>  <REMARK>
 VINA RESULT:      -8.5      2.286      5.151
  Name = 
  7 active torsions:
  status: ('A' for Active; 'I' for Inactive)
    1  A    between atoms: C_1  and  C_9
    2  A    between atoms: C_3  and  C_25
    3  A    between atoms: O_6  and  C_28
    4  A    between atoms: O_6  and  C_30
    5  A    between atoms: C_7  and  C_11
    6  A    between atoms: C_8  and  C_9
    7  A    between atoms: C_8  and  C_30
                            x       y       z     vdW  Elec       q    Type
                         _______ _______ _______ _____ _____    ______ ____

>  <TORSDO>
F 7

$$$$
=
 OpenBabel11052415403D

 34 37  0  0  1  0  0  0  0  0999 V2000
  183.6680  178.5660  140.7430 C   0  0  2  0  0  3  0  0  0  0  0  0
  182.9170  179.3990  144.4100 N   0  0  0  0  0  2  0  0  0  0  0  0
  181.4080  179.0940  142.5700 C   0  0  0  0  0  2  0  0  0  0  0  0
  181.8580  179.2920  139.0350 C   0  0  0  0  0  0  0  0  0  0  0  0
  180.1290  178.9690  138.7670 S   0  0  0  0  0  0  0  0  0  0  0  0
  182.4180  180.3010  138.3810 C   0  0  0  0  0  2  0  0  0  0  0  0
  181.2130  178.4990  141.1940 C   0  0  2  0  0  3  0  0  0  0  0  0
  182.3020  178.9350  140.3450 N   0  0  0  0  0  0  0  0  0  0  0  0
  179.9160  178.9990  140.5750 C   0  0  0  0  0  2  0  0  0  0  0  0
  183.7830  178.6450  145.3020 C   0  0  0  0  0  2  0  0  0  0  0  0
  185.2330  178.9890  145.0030 C   0  0  2  0  0  3  0  0  0  0  0  0
  185.7370  178.1770  143.8480 C   0  0  0  0  0  3  0  0  0  0  0  0
  182.7500  178.6630  143.1620 C   0  0  1  0  0  3  0  0  0  0  0  0
  185.1680  178.1600  142.6370 C   0  0  0  0  0  3  0  0  0  0  0  0
  183.9490  178.9450  142.2120 C   0  0  1  0  0  3  0  0  0  0  0  0
  186.0880  178.7530  146.2080 C   0  0  0  0  0  0  0  0  0  0  0  0
  187.2900  177.8800  146.0950 C   0  0  0  0  0  1  0  0  0  0  0  0
  185.8120  179.2650  147.2820 O   0  0  0  0  0  0  0  0  0  0  0  0
  184.7460  179.1470  139.8250 C   0  0  0  0  0  2  0  0  0  0  0  0
  185.3080  178.0800  138.8930 C   0  0  0  0  0  2  0  0  0  0  0  0
  186.8870  178.5500  137.0420 C   0  0  0  0  0  1  0  0  0  0  0  0
  186.7580  178.3710  138.5410 C   0  0  2  0  0  3  0  0  0  0  0  0
  187.5860  177.2910  138.9630 O   0  0  0  0  0  0  0  0  0  0  0  0
  190.6340  176.3130  140.7600 N   0  0  0  0  0  2  0  0  0  0  0  0
  190.3920  177.9580  142.5270 C   0  0  0  0  0  0  0  0  0  0  0  0
  191.2760  177.4200  141.4500 C   0  0  0  0  0  2  0  0  0  0  0  0
  189.9140  176.8430  139.6070 C   0  0  1  0  0  3  0  0  0  0  0  0
  188.2700  178.0110  141.1200 C   0  0  0  0  0  3  0  0  0  0  0  0
  188.5690  177.4110  139.9530 C   0  0  0  0  0  0  0  0  0  0  0  0
  189.0970  178.2340  142.3260 C   0  0  0  0  0  3  0  0  0  0  0  0
  190.6730  177.7460  138.8770 F   0  0  0  0  0  0  0  0  0  0  0  0
  190.9950  178.2700  143.8370 C   0  0  0  0  0  0  0  0  0  0  0  0
  190.8900  177.3520  144.9230 N   0  0  0  0  0  1  0  0  0  0  0  0
  191.6120  179.3540  144.0080 O   0  0  0  0  0  0  0  0  0  0  0  0
  1 19  1  6  0  0  0
  1 15  1  0  0  0  0
  2 10  1  0  0  0  0
  4  8  1  0  0  0  0
  5  4  1  0  0  0  0
  5  9  1  0  0  0  0
  6  4  2  0  0  0  0
  7  9  1  6  0  0  0
  7  3  1  0  0  0  0
  8  1  1  0  0  0  0
  8  7  1  0  0  0  0
 11 10  1  0  0  0  0
 11 16  1  1  0  0  0
 12 11  1  0  0  0  0
 13  3  1  6  0  0  0
 13  2  1  0  0  0  0
 14 12  2  0  0  0  0
 15 14  1  1  0  0  0
 15 13  1  0  0  0  0
 16 18  2  0  0  0  0
 17 16  1  0  0  0  0
 20 19  1  0  0  0  0
 22 21  1  6  0  0  0
 22 20  1  0  0  0  0
 22 23  1  0  0  0  0
 23 29  1  0  0  0  0
 24 26  1  0  0  0  0
 25 32  1  0  0  0  0
 26 25  1  0  0  0  0
 27 31  1  1  0  0  0
 27 29  1  0  0  0  0
 27 24  1  0  0  0  0
 28 30  1  0  0  0  0
 29 28  2  0  0  0  0
 30 25  2  0  0  0  0
 32 34  2  0  0  0  0
 32 33  1  0  0  0  0
M  END
>  <MODEL>
4

>  <REMARK>
 VINA RESULT:      -8.4      3.225      6.421
  Name = 
  7 active torsions:
  status: ('A' for Active; 'I' for Inactive)
    1  A    between atoms: C_1  and  C_9
    2  A    between atoms: C_3  and  C_25
    3  A    between atoms: O_6  and  C_28
    4  A    between atoms: O_6  and  C_30
    5  A    between atoms: C_7  and  C_11
    6  A    between atoms: C_8  and  C_9
    7  A    between atoms: C_8  and  C_30
                            x       y       z     vdW  Elec       q    Type
                         _______ _______ _______ _____ _____    ______ ____

>  <TORSDO>
F 7

$$$$
=
 OpenBabel11052415403D

 34 37  0  0  1  0  0  0  0  0999 V2000
  189.9880  177.3770  143.4140 C   0  0  2  0  0  3  0  0  0  0  0  0
  186.2680  177.6480  144.3070 N   0  0  0  0  0  2  0  0  0  0  0  0
  188.1730  177.3970  145.7440 C   0  0  0  0  0  2  0  0  0  0  0  0
  191.4760  176.1780  145.1650 C   0  0  0  0  0  0  0  0  0  0  0  0
  191.8920  176.4030  146.8800 S   0  0  0  0  0  0  0  0  0  0  0  0
  191.7860  175.0240  144.5880 C   0  0  0  0  0  2  0  0  0  0  0  0
  189.6690  177.5640  145.8840 C   0  0  2  0  0  3  0  0  0  0  0  0
  190.3120  176.9030  144.7670 N   0  0  0  0  0  0  0  0  0  0  0  0
  190.1640  176.9010  147.1610 C   0  0  0  0  0  2  0  0  0  0  0  0
  185.6020  178.6330  143.4700 C   0  0  0  0  0  2  0  0  0  0  0  0
  185.7330  178.2210  142.0120 C   0  0  2  0  0  3  0  0  0  0  0  0
  187.0540  178.6630  141.4600 C   0  0  0  0  0  3  0  0  0  0  0  0
  187.6820  177.9870  144.4220 C   0  0  1  0  0  3  0  0  0  0  0  0
  188.2390  178.3240  141.9830 C   0  0  0  0  0  3  0  0  0  0  0  0
  188.4620  177.4440  143.1910 C   0  0  1  0  0  3  0  0  0  0  0  0
  184.6170  178.8020  141.2010 C   0  0  0  0  0  0  0  0  0  0  0  0
  183.2150  178.3820  141.4770 C   0  0  0  0  0  1  0  0  0  0  0  0
  184.8420  179.6130  140.3160 O   0  0  0  0  0  0  0  0  0  0  0  0
  190.6540  176.5580  142.3070 C   0  0  0  0  0  2  0  0  0  0  0  0
  191.5980  177.4200  141.4780 C   0  0  0  0  0  2  0  0  0  0  0  0
  192.8560  177.0930  139.3670 C   0  0  0  0  0  1  0  0  0  0  0  0
  191.4780  177.0940  139.9970 C   0  0  2  0  0  3  0  0  0  0  0  0
  190.6610  178.0670  139.3520 O   0  0  0  0  0  0  0  0  0  0  0  0
  187.3680  178.6390  137.8320 N   0  0  0  0  0  2  0  0  0  0  0  0
  187.2010  176.4400  136.8200 C   0  0  0  0  0  0  0  0  0  0  0  0
  187.1750  177.9160  136.5860 C   0  0  0  0  0  2  0  0  0  0  0  0
  188.7930  178.9070  137.9940 C   0  0  1  0  0  3  0  0  0  0  0  0
  189.2590  176.4510  138.3210 C   0  0  0  0  0  3  0  0  0  0  0  0
  189.5600  177.7430  138.5490 C   0  0  0  0  0  0  0  0  0  0  0  0
  188.1500  175.8440  137.5540 C   0  0  0  0  0  3  0  0  0  0  0  0
  189.3770  179.3920  136.8330 F   0  0  0  0  0  0  0  0  0  0  0  0
  186.1860  175.6070  136.1490 C   0  0  0  0  0  0  0  0  0  0  0  0
  185.7940  175.8800  134.8060 N   0  0  0  0  0  1  0  0  0  0  0  0
  185.6550  174.6410  136.7580 O   0  0  0  0  0  0  0  0  0  0  0  0
  1 19  1  6  0  0  0
  1  8  1  0  0  0  0
  2 13  1  0  0  0  0
  4  5  1  0  0  0  0
  5  9  1  0  0  0  0
  6  4  2  0  0  0  0
  7  3  1  6  0  0  0
  7  9  1  0  0  0  0
  8  4  1  0  0  0  0
  8  7  1  0  0  0  0
 10  2  1  0  0  0  0
 11 16  1  6  0  0  0
 11 10  1  0  0  0  0
 12 14  2  0  0  0  0
 12 11  1  0  0  0  0
 13  3  1  1  0  0  0
 15 14  1  6  0  0  0
 15  1  1  0  0  0  0
 15 13  1  0  0  0  0
 16 17  1  0  0  0  0
 18 16  2  0  0  0  0
 20 19  1  0  0  0  0
 22 21  1  6  0  0  0
 22 20  1  0  0  0  0
 23 22  1  0  0  0  0
 24 27  1  0  0  0  0
 25 30  2  0  0  0  0
 26 25  1  0  0  0  0
 26 24  1  0  0  0  0
 27 31  1  6  0  0  0
 27 29  1  0  0  0  0
 28 29  2  0  0  0  0
 29 23  1  0  0  0  0
 30 28  1  0  0  0  0
 32 34  2  0  0  0  0
 32 25  1  0  0  0  0
 33 32  1  0  0  0  0
M  END
>  <MODEL>
5

>  <REMARK>
 VINA RESULT:      -8.3      3.739      8.461
  Name = 
  7 active torsions:
  status: ('A' for Active; 'I' for Inactive)
    1  A    between atoms: C_1  and  C_9
    2  A    between atoms: C_3  and  C_25
    3  A    between atoms: O_6  and  C_28
    4  A    between atoms: O_6  and  C_30
    5  A    between atoms: C_7  and  C_11
    6  A    between atoms: C_8  and  C_9
    7  A    between atoms: C_8  and  C_30
                            x       y       z     vdW  Elec       q    Type
                         _______ _______ _______ _____ _____    ______ ____

>  <TORSDO>
F 7

$$$$
=
 OpenBabel11052415403D

 34 37  0  0  1  0  0  0  0  0999 V2000
  187.4330  177.1930  145.0110 C   0  0  2  0  0  3  0  0  0  0  0  0
  190.6980  178.2880  143.3240 N   0  0  0  0  0  2  0  0  0  0  0  0
  190.1820  178.0560  145.6560 C   0  0  0  0  0  2  0  0  0  0  0  0
  187.0940  178.0240  147.4420 C   0  0  0  0  0  0  0  0  0  0  0  0
  187.9570  177.8770  148.9920 S   0  0  0  0  0  0  0  0  0  0  0  0
  186.1310  178.9310  147.3420 C   0  0  0  0  0  2  0  0  0  0  0  0
  189.2750  177.4170  146.6810 C   0  0  2  0  0  3  0  0  0  0  0  0
  187.9010  177.6880  146.3130 N   0  0  0  0  0  0  0  0  0  0  0  0
  189.5130  178.0230  148.0570 C   0  0  0  0  0  2  0  0  0  0  0  0
  190.9630  177.4910  142.1370 C   0  0  0  0  0  2  0  0  0  0  0  0
  189.8160  177.6600  141.1540 C   0  0  2  0  0  3  0  0  0  0  0  0
  188.6870  176.7390  141.5040 C   0  0  0  0  0  3  0  0  0  0  0  0
  189.8900  177.5120  144.2580 C   0  0  1  0  0  3  0  0  0  0  0  0
  188.0730  176.7230  142.6930 C   0  0  0  0  0  3  0  0  0  0  0  0
  188.3860  177.6130  143.8720 C   0  0  1  0  0  3  0  0  0  0  0  0
  190.2810  177.3930  139.7560 C   0  0  0  0  0  0  0  0  0  0  0  0
  189.7950  178.2580  138.6440 C   0  0  0  0  0  1  0  0  0  0  0  0
  191.0520  176.4760  139.5160 O   0  0  0  0  0  0  0  0  0  0  0  0
  185.9960  177.6050  144.6850 C   0  0  0  0  0  2  0  0  0  0  0  0
  185.9670  178.8320  143.7810 C   0  0  0  0  0  2  0  0  0  0  0  0
  183.7400  179.3770  144.7220 C   0  0  0  0  0  1  0  0  0  0  0  0
  184.5390  179.2280  143.4430 C   0  0  2  0  0  3  0  0  0  0  0  0
  183.9400  178.2280  142.6230 O   0  0  0  0  0  0  0  0  0  0  0  0
  184.5540  179.7240  139.3270 N   0  0  0  0  0  2  0  0  0  0  0  0
  183.7270  177.8270  138.0600 C   0  0  0  0  0  0  0  0  0  0  0  0
  184.8800  178.7460  138.3020 C   0  0  0  0  0  2  0  0  0  0  0  0
  184.9800  179.1980  140.6190 C   0  0  1  0  0  3  0  0  0  0  0  0
  183.2110  177.4050  140.5180 C   0  0  0  0  0  3  0  0  0  0  0  0
  184.0020  178.2350  141.2230 C   0  0  0  0  0  0  0  0  0  0  0  0
  183.0540  177.2380  139.0570 C   0  0  0  0  0  3  0  0  0  0  0  0
  186.2590  178.6630  140.5780 F   0  0  0  0  0  0  0  0  0  0  0  0
  183.3750  177.4980  136.6660 C   0  0  0  0  0  0  0  0  0  0  0  0
  184.3340  176.9040  135.7950 N   0  0  0  0  0  1  0  0  0  0  0  0
  182.2180  177.7390  136.2310 O   0  0  0  0  0  0  0  0  0  0  0  0
  1 19  1  6  0  0  0
  1  8  1  0  0  0  0
  2 13  1  0  0  0  0
  4  5  1  0  0  0  0
  6  4  2  0  0  0  0
  7  3  1  6  0  0  0
  7  9  1  0  0  0  0
  8  7  1  0  0  0  0
  8  4  1  0  0  0  0
  9  5  1  0  0  0  0
 10  2  1  0  0  0  0
 11 16  1  6  0  0  0
 11 12  1  0  0  0  0
 11 10  1  0  0  0  0
 12 14  2  0  0  0  0
 13  3  1  1  0  0  0
 15 14  1  6  0  0  0
 15 13  1  0  0  0  0
 15  1  1  0  0  0  0
 17 16  1  0  0  0  0
 18 16  2  0  0  0  0
 20 19  1  0  0  0  0
 22 20  1  0  0  0  0
 22 21  1  1  0  0  0
 23 22  1  0  0  0  0
 24 27  1  0  0  0  0
 25 26  1  0  0  0  0
 25 30  2  0  0  0  0
 26 24  1  0  0  0  0
 27 31  1  6  0  0  0
 27 29  1  0  0  0  0
 28 29  2  0  0  0  0
 29 23  1  0  0  0  0
 30 28  1  0  0  0  0
 32 25  1  0  0  0  0
 33 32  1  0  0  0  0
 34 32  2  0  0  0  0
M  END
>  <MODEL>
6

>  <REMARK>
 VINA RESULT:      -8.1      3.462      7.491
  Name = 
  7 active torsions:
  status: ('A' for Active; 'I' for Inactive)
    1  A    between atoms: C_1  and  C_9
    2  A    between atoms: C_3  and  C_25
    3  A    between atoms: O_6  and  C_28
    4  A    between atoms: O_6  and  C_30
    5  A    between atoms: C_7  and  C_11
    6  A    between atoms: C_8  and  C_9
    7  A    between atoms: C_8  and  C_30
                            x       y       z     vdW  Elec       q    Type
                         _______ _______ _______ _____ _____    ______ ____

>  <TORSDO>
F 7

$$$$
=
 OpenBabel11052415403D

 34 37  0  0  1  0  0  0  0  0999 V2000
  184.9460  178.9750  141.3060 C   0  0  2  0  0  3  0  0  0  0  0  0
  187.2990  177.6440  138.5850 N   0  0  0  0  0  2  0  0  0  0  0  0
  185.1190  178.6260  138.3790 C   0  0  0  0  0  2  0  0  0  0  0  0
  182.4290  179.0150  140.6900 C   0  0  0  0  0  0  0  0  0  0  0  0
  181.4160  179.7620  139.4330 S   0  0  0  0  0  0  0  0  0  0  0  0
  181.9000  178.0500  141.4340 C   0  0  0  0  0  2  0  0  0  0  0  0
  184.0720  179.5020  139.0280 C   0  0  2  0  0  3  0  0  0  0  0  0
  183.8190  179.0050  140.3630 N   0  0  0  0  0  0  0  0  0  0  0  0
  182.7640  179.4340  138.2530 C   0  0  0  0  0  2  0  0  0  0  0  0
  188.6790  177.9990  138.8720 C   0  0  0  0  0  2  0  0  0  0  0  0
  189.0820  177.4030  140.2110 C   0  0  2  0  0  3  0  0  0  0  0  0
  188.6350  178.2880  141.3350 C   0  0  0  0  0  3  0  0  0  0  0  0
  186.4090  178.6240  139.1990 C   0  0  1  0  0  3  0  0  0  0  0  0
  187.3660  178.6640  141.5350 C   0  0  0  0  0  3  0  0  0  0  0  0
  186.1740  178.2680  140.6950 C   0  0  1  0  0  3  0  0  0  0  0  0
  190.5650  177.2060  140.2720 C   0  0  0  0  0  0  0  0  0  0  0  0
  191.2940  176.7490  139.0560 C   0  0  0  0  0  1  0  0  0  0  0  0
  191.1820  177.4130  141.3060 O   0  0  0  0  0  0  0  0  0  0  0  0
  184.5910  178.3550  142.6590 C   0  0  0  0  0  2  0  0  0  0  0  0
  185.0590  179.2390  143.8090 C   0  0  0  0  0  2  0  0  0  0  0  0
  183.6910  178.6340  145.7850 C   0  0  0  0  0  1  0  0  0  0  0  0
  185.0450  178.4770  145.1250 C   0  0  2  0  0  3  0  0  0  0  0  0
  186.0570  178.9850  145.9890 O   0  0  0  0  0  0  0  0  0  0  0  0
  189.1440  178.2120  147.8210 N   0  0  0  0  0  2  0  0  0  0  0  0
  190.1480  176.9150  146.0330 C   0  0  0  0  0  0  0  0  0  0  0  0
  189.7190  176.9250  147.4640 C   0  0  0  0  0  2  0  0  0  0  0  0
  187.7010  178.1470  147.6120 C   0  0  1  0  0  3  0  0  0  0  0  0
  188.0300  177.9900  145.1170 C   0  0  0  0  0  3  0  0  0  0  0  0
  187.2960  178.3590  146.1840 C   0  0  0  0  0  0  0  0  0  0  0  0
  189.3640  177.3560  145.0420 C   0  0  0  0  0  3  0  0  0  0  0  0
  187.1420  176.9890  148.1320 F   0  0  0  0  0  0  0  0  0  0  0  0
  191.4560  176.3210  145.7000 C   0  0  0  0  0  0  0  0  0  0  0  0
  191.7380  175.8800  144.3740 N   0  0  0  0  0  1  0  0  0  0  0  0
  192.3410  176.1970  146.5880 O   0  0  0  0  0  0  0  0  0  0  0  0
  1 19  1  1  0  0  0
  2 10  1  0  0  0  0
  2 13  1  0  0  0  0
  3  7  1  0  0  0  0
  4  6  2  0  0  0  0
  5  4  1  0  0  0  0
  7  9  1  6  0  0  0
  7  8  1  0  0  0  0
  8  4  1  0  0  0  0
  8  1  1  0  0  0  0
  9  5  1  0  0  0  0
 10 11  1  0  0  0  0
 11 16  1  6  0  0  0
 11 12  1  0  0  0  0
 12 14  2  0  0  0  0
 13  3  1  6  0  0  0
 13 15  1  0  0  0  0
 15  1  1  0  0  0  0
 15 14  1  1  0  0  0
 16 18  2  0  0  0  0
 17 16  1  0  0  0  0
 19 20  1  0  0  0  0
 20 22  1  0  0  0  0
 22 21  1  1  0  0  0
 22 23  1  0  0  0  0
 23 29  1  0  0  0  0
 25 26  1  0  0  0  0
 26 24  1  0  0  0  0
 27 24  1  0  0  0  0
 27 31  1  6  0  0  0
 28 29  2  0  0  0  0
 29 27  1  0  0  0  0
 30 28  1  0  0  0  0
 30 25  2  0  0  0  0
 32 25  1  0  0  0  0
 32 34  2  0  0  0  0
 33 32  1  0  0  0  0
M  END
>  <MODEL>
7

>  <REMARK>
 VINA RESULT:      -8.0      2.517      4.229
  Name = 
  7 active torsions:
  status: ('A' for Active; 'I' for Inactive)
    1  A    between atoms: C_1  and  C_9
    2  A    between atoms: C_3  and  C_25
    3  A    between atoms: O_6  and  C_28
    4  A    between atoms: O_6  and  C_30
    5  A    between atoms: C_7  and  C_11
    6  A    between atoms: C_8  and  C_9
    7  A    between atoms: C_8  and  C_30
                            x       y       z     vdW  Elec       q    Type
                         _______ _______ _______ _____ _____    ______ ____

>  <TORSDO>
F 7

$$$$
=
 OpenBabel11052415403D

 34 37  0  0  1  0  0  0  0  0999 V2000
  188.7880  177.6000  142.9970 C   0  0  2  0  0  3  0  0  0  0  0  0
  185.4960  177.7320  144.9600 N   0  0  0  0  0  2  0  0  0  0  0  0
  187.7520  177.5770  145.7620 C   0  0  0  0  0  2  0  0  0  0  0  0
  190.7800  176.4850  144.2230 C   0  0  0  0  0  0  0  0  0  0  0  0
  191.6800  176.7490  145.7360 S   0  0  0  0  0  0  0  0  0  0  0  0
  190.9530  175.3370  143.5800 C   0  0  0  0  0  2  0  0  0  0  0  0
  189.2130  177.8060  145.4490 C   0  0  2  0  0  3  0  0  0  0  0  0
  189.5210  177.1570  144.1910 N   0  0  0  0  0  0  0  0  0  0  0  0
  190.0940  177.1800  146.5200 C   0  0  0  0  0  2  0  0  0  0  0  0
  184.5700  178.6780  144.3590 C   0  0  0  0  0  2  0  0  0  0  0  0
  184.2770  178.2520  142.9280 C   0  0  2  0  0  3  0  0  0  0  0  0
  185.3530  178.7400  142.0070 C   0  0  0  0  0  3  0  0  0  0  0  0
  186.8650  178.1290  144.6470 C   0  0  1  0  0  3  0  0  0  0  0  0
  186.6530  178.4560  142.1530 C   0  0  0  0  0  3  0  0  0  0  0  0
  187.2640  177.6020  143.2390 C   0  0  1  0  0  3  0  0  0  0  0  0
  182.9470  178.7770  142.4870 C   0  0  0  0  0  0  0  0  0  0  0  0
  181.8870  179.0350  143.5020 C   0  0  0  0  0  1  0  0  0  0  0  0
  182.7190  178.9950  141.3070 O   0  0  0  0  0  0  0  0  0  0  0  0
  189.1280  176.7940  141.7410 C   0  0  0  0  0  2  0  0  0  0  0  0
  189.9960  177.6050  140.7850 C   0  0  0  0  0  2  0  0  0  0  0  0
  191.5360  176.7540  139.0410 C   0  0  0  0  0  1  0  0  0  0  0  0
  190.0810  176.9340  139.4230 C   0  0  2  0  0  3  0  0  0  0  0  0
  189.4290  177.7390  138.4450 O   0  0  0  0  0  0  0  0  0  0  0  0
  186.8690  176.6640  136.0450 N   0  0  0  0  0  2  0  0  0  0  0  0
  184.9840  177.4280  137.3670 C   0  0  0  0  0  0  0  0  0  0  0  0
  185.6190  176.2670  136.6740 C   0  0  0  0  0  2  0  0  0  0  0  0
  187.9570  176.4210  136.9860 C   0  0  1  0  0  3  0  0  0  0  0  0
  187.1110  178.2530  138.4970 C   0  0  0  0  0  3  0  0  0  0  0  0
  188.1200  177.5120  138.0030 C   0  0  0  0  0  0  0  0  0  0  0  0
  185.6670  178.2440  138.1800 C   0  0  0  0  0  3  0  0  0  0  0  0
  187.8680  175.1750  137.5880 F   0  0  0  0  0  0  0  0  0  0  0  0
  183.5310  177.6280  137.2090 C   0  0  0  0  0  0  0  0  0  0  0  0
  182.8640  177.2080  136.0210 N   0  0  0  0  0  1  0  0  0  0  0  0
  182.8630  178.1740  138.1260 O   0  0  0  0  0  0  0  0  0  0  0  0
  1 19  1  6  0  0  0
  1 15  1  0  0  0  0
  1  8  1  0  0  0  0
  4  5  1  0  0  0  0
  5  9  1  0  0  0  0
  6  4  2  0  0  0  0
  7  3  1  1  0  0  0
  7  9  1  0  0  0  0
  8  4  1  0  0  0  0
  8  7  1  0  0  0  0
 10  2  1  0  0  0  0
 11 16  1  6  0  0  0
 11 10  1  0  0  0  0
 12 14  2  0  0  0  0
 12 11  1  0  0  0  0
 13  2  1  0  0  0  0
 13  3  1  1  0  0  0
 15 14  1  6  0  0  0
 15 13  1  0  0  0  0
 16 17  1  0  0  0  0
 18 16  2  0  0  0  0
 20 19  1  0  0  0  0
 22 21  1  6  0  0  0
 22 20  1  0  0  0  0
 23 22  1  0  0  0  0
 24 26  1  0  0  0  0
 24 27  1  0  0  0  0
 25 30  2  0  0  0  0
 26 25  1  0  0  0  0
 27 31  1  1  0  0  0
 27 29  1  0  0  0  0
 29 23  1  0  0  0  0
 29 28  2  0  0  0  0
 30 28  1  0  0  0  0
 32 25  1  0  0  0  0
 32 34  2  0  0  0  0
 33 32  1  0  0  0  0
M  END
>  <MODEL>
8

>  <REMARK>
 VINA RESULT:      -7.9      3.648      8.315
  Name = 
  7 active torsions:
  status: ('A' for Active; 'I' for Inactive)
    1  A    between atoms: C_1  and  C_9
    2  A    between atoms: C_3  and  C_25
    3  A    between atoms: O_6  and  C_28
    4  A    between atoms: O_6  and  C_30
    5  A    between atoms: C_7  and  C_11
    6  A    between atoms: C_8  and  C_9
    7  A    between atoms: C_8  and  C_30
                            x       y       z     vdW  Elec       q    Type
                         _______ _______ _______ _____ _____    ______ ____

>  <TORSDO>
F 7

$$$$
=
 OpenBabel11052415403D

 34 37  0  0  1  0  0  0  0  0999 V2000
  189.8160  177.5380  140.1820 C   0  0  2  0  0  3  0  0  0  0  0  0
  190.7140  176.7320  143.8230 N   0  0  0  0  0  2  0  0  0  0  0  0
  192.1280  176.8530  141.8880 C   0  0  0  0  0  2  0  0  0  0  0  0
  191.4460  176.6100  138.3940 C   0  0  0  0  0  0  0  0  0  0  0  0
  193.1770  176.7680  138.0140 S   0  0  0  0  0  0  0  0  0  0  0  0
  190.7580  175.6400  137.8040 C   0  0  0  0  0  2  0  0  0  0  0  0
  192.2900  177.3940  140.4850 C   0  0  2  0  0  3  0  0  0  0  0  0
  191.1170  177.0380  139.7160 N   0  0  0  0  0  0  0  0  0  0  0  0
  193.4980  176.7630  139.8060 C   0  0  0  0  0  2  0  0  0  0  0  0
  189.9760  177.5840  144.7410 C   0  0  0  0  0  2  0  0  0  0  0  0
  188.4850  177.3650  144.5380 C   0  0  2  0  0  3  0  0  0  0  0  0
  187.9860  178.1910  143.3920 C   0  0  0  0  0  3  0  0  0  0  0  0
  190.8690  177.4190  142.5450 C   0  0  1  0  0  3  0  0  0  0  0  0
  188.4780  178.1260  142.1490 C   0  0  0  0  0  3  0  0  0  0  0  0
  189.5930  177.2230  141.6770 C   0  0  1  0  0  3  0  0  0  0  0  0
  187.7310  177.7070  145.7850 C   0  0  0  0  0  0  0  0  0  0  0  0
  186.2510  177.8700  145.7250 C   0  0  0  0  0  1  0  0  0  0  0  0
  188.3120  177.8560  146.8490 O   0  0  0  0  0  0  0  0  0  0  0  0
  188.6360  177.0360  139.3480 C   0  0  0  0  0  2  0  0  0  0  0  0
  188.0380  178.1580  138.5080 C   0  0  0  0  0  2  0  0  0  0  0  0
  186.4960  177.6570  136.6350 C   0  0  0  0  0  1  0  0  0  0  0  0
  186.5970  177.8520  138.1340 C   0  0  2  0  0  3  0  0  0  0  0  0
  185.7540  178.9300  138.5310 O   0  0  0  0  0  0  0  0  0  0  0  0
  182.4250  179.1650  140.0590 N   0  0  0  0  0  2  0  0  0  0  0  0
  183.1880  178.7610  142.3260 C   0  0  0  0  0  0  0  0  0  0  0  0
  182.2690  178.3220  141.2330 C   0  0  0  0  0  2  0  0  0  0  0  0
  183.4140  178.5530  139.1790 C   0  0  1  0  0  3  0  0  0  0  0  0
  185.2450  179.0200  140.8490 C   0  0  0  0  0  3  0  0  0  0  0  0
  184.8300  178.8460  139.5800 C   0  0  0  0  0  0  0  0  0  0  0  0
  184.4850  179.0190  142.1170 C   0  0  0  0  0  3  0  0  0  0  0  0
  183.2050  177.1920  139.0120 F   0  0  0  0  0  0  0  0  0  0  0  0
  182.6570  178.8320  143.7010 C   0  0  0  0  0  0  0  0  0  0  0  0
  181.2730  178.6070  143.9580 N   0  0  0  0  0  1  0  0  0  0  0  0
  183.4250  179.0930  144.6640 O   0  0  0  0  0  0  0  0  0  0  0  0
  1 19  1  6  0  0  0
  1 15  1  0  0  0  0
  2 10  1  0  0  0  0
  4  8  1  0  0  0  0
  5  4  1  0  0  0  0
  5  9  1  0  0  0  0
  6  4  2  0  0  0  0
  7  9  1  6  0  0  0
  7  3  1  0  0  0  0
  8  1  1  0  0  0  0
  8  7  1  0  0  0  0
 11 10  1  0  0  0  0
 11 16  1  1  0  0  0
 12 11  1  0  0  0  0
 13  3  1  6  0  0  0
 13  2  1  0  0  0  0
 14 12  2  0  0  0  0
 15 14  1  1  0  0  0
 15 13  1  0  0  0  0
 16 18  2  0  0  0  0
 17 16  1  0  0  0  0
 20 19  1  0  0  0  0
 22 21  1  6  0  0  0
 22 20  1  0  0  0  0
 22 23  1  0  0  0  0
 23 29  1  0  0  0  0
 24 26  1  0  0  0  0
 25 32  1  0  0  0  0
 26 25  1  0  0  0  0
 27 31  1  1  0  0  0
 27 29  1  0  0  0  0
 27 24  1  0  0  0  0
 28 30  1  0  0  0  0
 29 28  2  0  0  0  0
 30 25  2  0  0  0  0
 32 33  1  0  0  0  0
 32 34  2  0  0  0  0
M  END
>  <MODEL>
9

>  <REMARK>
 VINA RESULT:      -7.7      2.704      5.014
  Name = 
  7 active torsions:
  status: ('A' for Active; 'I' for Inactive)
    1  A    between atoms: C_1  and  C_9
    2  A    between atoms: C_3  and  C_25
    3  A    between atoms: O_6  and  C_28
    4  A    between atoms: O_6  and  C_30
    5  A    between atoms: C_7  and  C_11
    6  A    between atoms: C_8  and  C_9
    7  A    between atoms: C_8  and  C_30
                            x       y       z     vdW  Elec       q    Type
                         _______ _______ _______ _____ _____    ______ ____

>  <TORSDO>
F 7

$$$$
