=
 OpenBabel11052414113D

 34 38  0  0  1  0  0  0  0  0999 V2000
  186.4990  178.1480  145.7810 C   0  0  0  0  0  0  0  0  0  0  0  0
  185.2990  178.4670  143.6980 C   0  0  0  0  0  3  0  0  0  0  0  0
  187.7130  177.9140  143.6720 C   0  0  0  0  0  0  0  0  0  0  0  0
  189.0910  177.6700  141.5780 N   0  0  0  0  0  0  0  0  0  0  0  0
  184.1370  178.6740  145.8080 C   0  0  0  0  0  3  0  0  0  0  0  0
  182.8610  179.0000  143.6870 C   0  0  0  0  0  1  0  0  0  0  0  0
  186.8780  178.3960  141.4660 O   0  0  0  0  0  0  0  0  0  0  0  0
  186.5040  178.1870  144.3680 C   0  0  0  0  0  0  0  0  0  0  0  0
  185.3210  178.3940  146.4930 C   0  0  0  0  0  3  0  0  0  0  0  0
  188.8720  177.5790  144.4200 C   0  0  0  0  0  0  0  0  0  0  0  0
  187.6450  177.8800  146.4610 N   0  0  0  0  0  0  0  0  0  0  0  0
  184.1240  178.7120  144.4140 C   0  0  0  0  0  0  0  0  0  0  0  0
  190.0200  176.8180  142.3010 C   0  0  0  0  0  2  0  0  0  0  0  0
  190.2140  177.3410  143.7270 C   0  0  2  0  0  3  0  0  0  0  0  0
  187.8310  177.9990  142.1820 C   0  0  0  0  0  0  0  0  0  0  0  0
  188.8060  177.6080  145.8210 C   0  0  0  0  0  3  0  0  0  0  0  0
  192.1430  175.8140  146.5980 C   0  0  0  0  0  0  0  0  0  0  0  0
  192.5840  174.6600  146.0240 N   0  0  0  0  0  0  0  0  0  0  0  0
  191.1210  176.4210  144.5130 C   0  0  0  0  0  0  0  0  0  0  0  0
  192.3400  174.3940  144.7190 C   0  0  0  0  0  3  0  0  0  0  0  0
  191.3900  176.7150  145.8500 C   0  0  0  0  0  3  0  0  0  0  0  0
  191.5880  175.2560  143.9760 N   0  0  0  0  0  0  0  0  0  0  0  0
  192.3760  176.0590  148.0430 C   0  0  0  0  0  1  0  0  0  0  0  0
  189.4050  178.0460  140.2070 C   0  0  0  0  0  2  0  0  0  0  0  0
  190.7000  177.3750  139.7660 C   0  0  0  0  0  2  0  0  0  0  0  0
  190.5800  176.7770  138.3670 C   0  0  0  0  0  2  0  0  0  0  0  0
  189.5600  177.5220  137.5030 C   0  0  0  0  0  2  0  0  0  0  0  0
  186.7390  178.1220  137.4820 C   0  0  0  0  0  1  0  0  0  0  0  0
  188.6100  176.5880  136.8990 N   0  0  0  0  0  0  0  0  0  0  0  0
  187.2870  176.7010  137.5430 C   0  0  2  0  0  3  0  0  0  0  0  0
  186.8080  174.3250  136.9760 C   0  0  0  0  0  2  0  0  0  0  0  0
  188.2290  174.2170  136.4240 C   0  0  0  0  0  2  0  0  0  0  0  0
  189.1260  175.2360  137.1270 C   0  0  0  0  0  2  0  0  0  0  0  0
  186.2960  175.7600  136.8490 C   0  0  0  0  0  2  0  0  0  0  0  0
  1 11  1  0  0  0  0
  1  9  2  0  0  0  0
  2  8  2  0  0  0  0
  2 12  1  0  0  0  0
  3  8  1  0  0  0  0
  3 10  2  0  0  0  0
  4 15  1  0  0  0  0
  4 13  1  0  0  0  0
  5  9  1  0  0  0  0
  6 12  1  0  0  0  0
  7 15  2  0  0  0  0
  8  1  1  0  0  0  0
 10 16  1  0  0  0  0
 12  5  2  0  0  0  0
 13 14  1  0  0  0  0
 14 10  1  0  0  0  0
 14 19  1  1  0  0  0
 15  3  1  0  0  0  0
 16 11  2  0  0  0  0
 17 23  1  0  0  0  0
 18 17  1  0  0  0  0
 19 21  1  0  0  0  0
 20 18  2  0  0  0  0
 21 17  2  0  0  0  0
 22 19  2  0  0  0  0
 22 20  1  0  0  0  0
 24  4  1  0  0  0  0
 25 24  1  0  0  0  0
 26 25  1  0  0  0  0
 27 26  1  0  0  0  0
 29 33  1  0  0  0  0
 29 27  1  0  0  0  0
 29 30  1  0  0  0  0
 30 28  1  6  0  0  0
 32 31  1  0  0  0  0
 32 33  1  0  0  0  0
 34 31  1  0  0  0  0
 34 30  1  0  0  0  0
M  END
>  <MODEL>
1

>  <REMARK>
 VINA RESULT:      -9.7      0.000      0.000
  Name = 
  6 active torsions:
  status: ('A' for Active; 'I' for Inactive)
    1  A    between atoms: C_3  and  N_13
    2  A    between atoms: C_3  and  C_17
    3  A    between atoms: N_5  and  C_18
    4  A    between atoms: C_12  and  C_28
    5  A    between atoms: C_17  and  C_29
    6  A    between atoms: C_18  and  C_29
                            x       y       z     vdW  Elec       q    Type
                         _______ _______ _______ _____ _____    ______ ____

>  <TORSDO>
F 6

$$$$
=
 OpenBabel11052414113D

 34 38  0  0  1  0  0  0  0  0999 V2000
  186.0070  178.3010  145.4750 C   0  0  0  0  0  0  0  0  0  0  0  0
  184.7710  178.5690  143.4070 C   0  0  0  0  0  3  0  0  0  0  0  0
  187.2080  178.1270  143.3540 C   0  0  0  0  0  0  0  0  0  0  0  0
  188.5730  177.9510  141.2440 N   0  0  0  0  0  0  0  0  0  0  0  0
  183.6240  178.7170  145.5290 C   0  0  0  0  0  3  0  0  0  0  0  0
  182.3110  178.9900  143.4230 C   0  0  0  0  0  1  0  0  0  0  0  0
  186.3280  178.5750  141.1570 O   0  0  0  0  0  0  0  0  0  0  0  0
  185.9950  178.3420  144.0630 C   0  0  0  0  0  0  0  0  0  0  0  0
  184.8270  178.4910  146.2010 C   0  0  0  0  0  3  0  0  0  0  0  0
  188.3880  177.8430  144.0880 C   0  0  0  0  0  0  0  0  0  0  0  0
  187.1710  178.0840  146.1430 N   0  0  0  0  0  0  0  0  0  0  0  0
  183.5940  178.7580  144.1360 C   0  0  0  0  0  0  0  0  0  0  0  0
  189.5480  177.1410  141.9550 C   0  0  0  0  0  2  0  0  0  0  0  0
  189.7330  177.6680  143.3800 C   0  0  2  0  0  3  0  0  0  0  0  0
  187.3060  178.2210  141.8620 C   0  0  0  0  0  0  0  0  0  0  0  0
  188.3360  177.8660  145.4890 C   0  0  0  0  0  3  0  0  0  0  0  0
  191.7280  176.1980  146.2350 C   0  0  0  0  0  0  0  0  0  0  0  0
  192.2480  175.0880  145.6380 N   0  0  0  0  0  0  0  0  0  0  0  0
  190.6900  176.7890  144.1540 C   0  0  0  0  0  0  0  0  0  0  0  0
  192.0330  174.8390  144.3250 C   0  0  0  0  0  3  0  0  0  0  0  0
  190.9260  177.0670  145.5010 C   0  0  0  0  0  3  0  0  0  0  0  0
  191.2340  175.6700  143.5950 N   0  0  0  0  0  0  0  0  0  0  0  0
  191.9320  176.4220  147.6880 C   0  0  0  0  0  1  0  0  0  0  0  0
  188.8550  178.3440  139.8700 C   0  0  0  0  0  2  0  0  0  0  0  0
  189.0540  177.1060  139.0050 C   0  0  0  0  0  2  0  0  0  0  0  0
  190.4500  177.0640  138.3900 C   0  0  0  0  0  2  0  0  0  0  0  0
  190.4350  176.5450  136.9500 C   0  0  0  0  0  2  0  0  0  0  0  0
  190.1510  173.6950  136.6130 C   0  0  0  0  0  1  0  0  0  0  0  0
  191.6070  175.7130  136.6860 N   0  0  0  0  0  0  0  0  0  0  0  0
  191.4010  174.3440  137.1980 C   0  0  2  0  0  3  0  0  0  0  0  0
  193.8580  174.0850  137.5000 C   0  0  0  0  0  2  0  0  0  0  0  0
  194.0180  175.5450  137.0770 C   0  0  0  0  0  2  0  0  0  0  0  0
  192.7360  176.3120  137.4010 C   0  0  0  0  0  2  0  0  0  0  0  0
  192.6150  173.4760  136.8500 C   0  0  0  0  0  2  0  0  0  0  0  0
  1 11  1  0  0  0  0
  1  9  2  0  0  0  0
  2  8  2  0  0  0  0
  2 12  1  0  0  0  0
  3  8  1  0  0  0  0
  3 10  2  0  0  0  0
  4 15  1  0  0  0  0
  4 13  1  0  0  0  0
  5  9  1  0  0  0  0
  6 12  1  0  0  0  0
  7 15  2  0  0  0  0
  8  1  1  0  0  0  0
 10 16  1  0  0  0  0
 12  5  2  0  0  0  0
 13 14  1  0  0  0  0
 14 10  1  0  0  0  0
 14 19  1  1  0  0  0
 15  3  1  0  0  0  0
 16 11  2  0  0  0  0
 17 23  1  0  0  0  0
 18 17  1  0  0  0  0
 19 21  1  0  0  0  0
 20 18  2  0  0  0  0
 21 17  2  0  0  0  0
 22 19  2  0  0  0  0
 22 20  1  0  0  0  0
 24  4  1  0  0  0  0
 25 24  1  0  0  0  0
 26 25  1  0  0  0  0
 27 26  1  0  0  0  0
 29 27  1  0  0  0  0
 29 30  1  0  0  0  0
 29 33  1  0  0  0  0
 30 28  1  6  0  0  0
 32 33  1  0  0  0  0
 32 31  1  0  0  0  0
 34 30  1  0  0  0  0
 34 31  1  0  0  0  0
M  END
>  <MODEL>
2

>  <REMARK>
 VINA RESULT:      -9.5      1.617      2.573
  Name = 
  6 active torsions:
  status: ('A' for Active; 'I' for Inactive)
    1  A    between atoms: C_3  and  N_13
    2  A    between atoms: C_3  and  C_17
    3  A    between atoms: N_5  and  C_18
    4  A    between atoms: C_12  and  C_28
    5  A    between atoms: C_17  and  C_29
    6  A    between atoms: C_18  and  C_29
                            x       y       z     vdW  Elec       q    Type
                         _______ _______ _______ _____ _____    ______ ____

>  <TORSDO>
F 6

$$$$
=
 OpenBabel11052414113D

 34 38  0  0  1  0  0  0  0  0999 V2000
  186.5190  178.1550  145.8710 C   0  0  0  0  0  0  0  0  0  0  0  0
  185.2760  178.4320  143.8080 C   0  0  0  0  0  3  0  0  0  0  0  0
  187.6880  177.8750  143.7430 C   0  0  0  0  0  0  0  0  0  0  0  0
  189.0220  177.5850  141.6260 N   0  0  0  0  0  0  0  0  0  0  0  0
  184.1580  178.6840  145.9360 C   0  0  0  0  0  3  0  0  0  0  0  0
  182.8380  178.9670  143.8360 C   0  0  0  0  0  1  0  0  0  0  0  0
  186.8080  178.3110  141.5450 O   0  0  0  0  0  0  0  0  0  0  0  0
  186.4950  178.1640  144.4580 C   0  0  0  0  0  0  0  0  0  0  0  0
  185.3560  178.4170  146.6020 C   0  0  0  0  0  3  0  0  0  0  0  0
  188.8620  177.5540  144.4730 C   0  0  0  0  0  0  0  0  0  0  0  0
  187.6790  177.9000  146.5330 N   0  0  0  0  0  0  0  0  0  0  0  0
  184.1160  178.6920  144.5430 C   0  0  0  0  0  0  0  0  0  0  0  0
  189.9650  176.7470  142.3470 C   0  0  0  0  0  2  0  0  0  0  0  0
  190.1890  177.3000  143.7570 C   0  0  2  0  0  3  0  0  0  0  0  0
  187.7760  177.9290  142.2490 C   0  0  0  0  0  0  0  0  0  0  0  0
  188.8250  177.6130  145.8740 C   0  0  0  0  0  3  0  0  0  0  0  0
  192.1540  175.8140  146.6260 C   0  0  0  0  0  0  0  0  0  0  0  0
  192.6050  174.6620  146.0560 N   0  0  0  0  0  0  0  0  0  0  0  0
  191.1130  176.3960  144.5430 C   0  0  0  0  0  0  0  0  0  0  0  0
  192.3560  174.3840  144.7550 C   0  0  0  0  0  3  0  0  0  0  0  0
  191.3860  176.7020  145.8770 C   0  0  0  0  0  3  0  0  0  0  0  0
  191.5890  175.2330  144.0110 N   0  0  0  0  0  0  0  0  0  0  0  0
  192.3950  176.0720  148.0680 C   0  0  0  0  0  1  0  0  0  0  0  0
  189.3070  177.9320  140.2400 C   0  0  0  0  0  2  0  0  0  0  0  0
  190.6380  177.3230  139.8150 C   0  0  0  0  0  2  0  0  0  0  0  0
  190.4600  176.2950  138.7010 C   0  0  0  0  0  2  0  0  0  0  0  0
  190.4870  176.9340  137.3110 C   0  0  0  0  0  2  0  0  0  0  0  0
  189.7540  175.0340  135.2690 C   0  0  0  0  0  1  0  0  0  0  0  0
  189.1470  176.9600  136.7260 N   0  0  0  0  0  0  0  0  0  0  0  0
  189.1730  176.4420  135.3440 C   0  0  2  0  0  3  0  0  0  0  0  0
  187.1930  177.8420  134.7820 C   0  0  0  0  0  2  0  0  0  0  0  0
  187.2740  178.4400  136.1870 C   0  0  0  0  0  2  0  0  0  0  0  0
  188.7150  178.3580  136.6920 C   0  0  0  0  0  2  0  0  0  0  0  0
  187.7480  176.4180  134.7780 C   0  0  0  0  0  2  0  0  0  0  0  0
  1 11  1  0  0  0  0
  1  9  2  0  0  0  0
  2  8  2  0  0  0  0
  2 12  1  0  0  0  0
  3  8  1  0  0  0  0
  3 10  2  0  0  0  0
  4 15  1  0  0  0  0
  4 13  1  0  0  0  0
  5  9  1  0  0  0  0
  6 12  1  0  0  0  0
  7 15  2  0  0  0  0
  8  1  1  0  0  0  0
 10 16  1  0  0  0  0
 12  5  2  0  0  0  0
 13 14  1  0  0  0  0
 14 10  1  0  0  0  0
 14 19  1  1  0  0  0
 15  3  1  0  0  0  0
 16 11  2  0  0  0  0
 17 23  1  0  0  0  0
 18 17  1  0  0  0  0
 19 21  1  0  0  0  0
 20 18  2  0  0  0  0
 21 17  2  0  0  0  0
 22 19  2  0  0  0  0
 22 20  1  0  0  0  0
 24  4  1  0  0  0  0
 25 24  1  0  0  0  0
 26 25  1  0  0  0  0
 27 26  1  0  0  0  0
 29 27  1  0  0  0  0
 30 28  1  1  0  0  0
 30 29  1  0  0  0  0
 31 32  1  0  0  0  0
 32 33  1  0  0  0  0
 33 29  1  0  0  0  0
 34 31  1  0  0  0  0
 34 30  1  0  0  0  0
M  END
>  <MODEL>
3

>  <REMARK>
 VINA RESULT:      -9.5      1.005      1.603
  Name = 
  6 active torsions:
  status: ('A' for Active; 'I' for Inactive)
    1  A    between atoms: C_3  and  N_13
    2  A    between atoms: C_3  and  C_17
    3  A    between atoms: N_5  and  C_18
    4  A    between atoms: C_12  and  C_28
    5  A    between atoms: C_17  and  C_29
    6  A    between atoms: C_18  and  C_29
                            x       y       z     vdW  Elec       q    Type
                         _______ _______ _______ _____ _____    ______ ____

>  <TORSDO>
F 6

$$$$
=
 OpenBabel11052414113D

 34 38  0  0  1  0  0  0  0  0999 V2000
  188.6550  177.7080  143.7970 C   0  0  0  0  0  0  0  0  0  0  0  0
  187.3150  177.6830  145.8170 C   0  0  0  0  0  3  0  0  0  0  0  0
  186.2940  178.3240  143.6540 C   0  0  0  0  0  0  0  0  0  0  0  0
  183.8870  179.0060  143.3660 N   0  0  0  0  0  0  0  0  0  0  0  0
  189.6510  177.0660  145.9080 C   0  0  0  0  0  3  0  0  0  0  0  0
  188.3040  177.0160  148.0100 C   0  0  0  0  0  1  0  0  0  0  0  0
  184.7680  178.6270  145.4910 O   0  0  0  0  0  0  0  0  0  0  0  0
  187.4110  177.9160  144.4330 C   0  0  0  0  0  0  0  0  0  0  0  0
  189.7670  177.2890  144.5340 C   0  0  0  0  0  3  0  0  0  0  0  0
  186.4590  178.4790  142.2530 C   0  0  0  0  0  0  0  0  0  0  0  0
  188.7850  177.9240  142.4610 N   0  0  0  0  0  0  0  0  0  0  0  0
  188.4290  177.2630  146.5500 C   0  0  0  0  0  0  0  0  0  0  0  0
  183.9500  178.6040  141.9710 C   0  0  0  0  0  2  0  0  0  0  0  0
  185.3090  178.9790  141.3760 C   0  0  2  0  0  3  0  0  0  0  0  0
  184.9560  178.6360  144.2490 C   0  0  0  0  0  0  0  0  0  0  0  0
  187.7350  178.3030  141.6970 C   0  0  0  0  0  3  0  0  0  0  0  0
  184.3510  177.6880  137.9540 C   0  0  0  0  0  0  0  0  0  0  0  0
  185.5310  177.8280  137.2880 N   0  0  0  0  0  0  0  0  0  0  0  0
  185.4160  178.5000  139.9460 C   0  0  0  0  0  0  0  0  0  0  0  0
  186.6450  178.2570  137.9280 C   0  0  0  0  0  3  0  0  0  0  0  0
  184.2700  178.0340  139.3000 C   0  0  0  0  0  3  0  0  0  0  0  0
  186.5790  178.6190  139.2420 N   0  0  0  0  0  0  0  0  0  0  0  0
  183.1310  177.2670  137.2190 C   0  0  0  0  0  1  0  0  0  0  0  0
  182.6760  179.6490  143.8580 C   0  0  0  0  0  2  0  0  0  0  0  0
  181.5590  178.6210  143.9940 C   0  0  0  0  0  2  0  0  0  0  0  0
  180.2220  179.1690  143.5040 C   0  0  0  0  0  2  0  0  0  0  0  0
  179.6090  178.3030  142.4010 C   0  0  0  0  0  2  0  0  0  0  0  0
  180.7490  177.1470  140.0170 C   0  0  0  0  0  1  0  0  0  0  0  0
  179.5650  179.0310  141.1340 N   0  0  0  0  0  0  0  0  0  0  0  0
  180.7020  178.6490  140.2730 C   0  0  2  0  0  3  0  0  0  0  0  0
  180.6240  180.8840  139.1790 C   0  0  0  0  0  2  0  0  0  0  0  0
  179.5270  181.2790  140.1670 C   0  0  0  0  0  2  0  0  0  0  0  0
  179.6760  180.4570  141.4470 C   0  0  0  0  0  2  0  0  0  0  0  0
  180.5940  179.3760  138.9280 C   0  0  0  0  0  2  0  0  0  0  0  0
  1  8  1  0  0  0  0
  1  9  2  0  0  0  0
  2 12  1  0  0  0  0
  3 15  1  0  0  0  0
  3  8  1  0  0  0  0
  4 24  1  0  0  0  0
  4 15  1  0  0  0  0
  5 12  2  0  0  0  0
  8  2  2  0  0  0  0
  9  5  1  0  0  0  0
 10  3  2  0  0  0  0
 11  1  1  0  0  0  0
 12  6  1  0  0  0  0
 13  4  1  0  0  0  0
 14 19  1  6  0  0  0
 14 13  1  0  0  0  0
 14 10  1  0  0  0  0
 15  7  2  0  0  0  0
 16 10  1  0  0  0  0
 16 11  2  0  0  0  0
 17 21  1  0  0  0  0
 18 20  1  0  0  0  0
 18 17  2  0  0  0  0
 20 22  2  0  0  0  0
 21 19  2  0  0  0  0
 22 19  1  0  0  0  0
 23 17  1  0  0  0  0
 24 25  1  0  0  0  0
 26 25  1  0  0  0  0
 27 26  1  0  0  0  0
 29 33  1  0  0  0  0
 29 27  1  0  0  0  0
 30 28  1  6  0  0  0
 30 29  1  0  0  0  0
 31 32  1  0  0  0  0
 32 33  1  0  0  0  0
 34 31  1  0  0  0  0
 34 30  1  0  0  0  0
M  END
>  <MODEL>
4

>  <REMARK>
 VINA RESULT:      -9.3      3.368      7.985
  Name = 
  6 active torsions:
  status: ('A' for Active; 'I' for Inactive)
    1  A    between atoms: C_3  and  N_13
    2  A    between atoms: C_3  and  C_17
    3  A    between atoms: N_5  and  C_18
    4  A    between atoms: C_12  and  C_28
    5  A    between atoms: C_17  and  C_29
    6  A    between atoms: C_18  and  C_29
                            x       y       z     vdW  Elec       q    Type
                         _______ _______ _______ _____ _____    ______ ____

>  <TORSDO>
F 6

$$$$
=
 OpenBabel11052414113D

 34 38  0  0  1  0  0  0  0  0999 V2000
  189.7680  176.8940  137.2900 C   0  0  0  0  0  0  0  0  0  0  0  0
  191.7290  176.2560  138.5660 C   0  0  0  0  0  3  0  0  0  0  0  0
  189.8550  177.4400  139.6710 C   0  0  0  0  0  0  0  0  0  0  0  0
  189.8230  178.0890  142.1040 N   0  0  0  0  0  0  0  0  0  0  0  0
  191.5920  175.7230  136.2120 C   0  0  0  0  0  3  0  0  0  0  0  0
  193.6240  175.0390  137.4900 C   0  0  0  0  0  1  0  0  0  0  0  0
  191.7370  177.1620  141.1470 O   0  0  0  0  0  0  0  0  0  0  0  0
  190.4640  176.8710  138.5200 C   0  0  0  0  0  0  0  0  0  0  0  0
  190.3330  176.3250  136.1440 C   0  0  0  0  0  3  0  0  0  0  0  0
  188.5500  177.9860  139.5540 C   0  0  0  0  0  0  0  0  0  0  0  0
  188.5440  177.4790  137.2080 N   0  0  0  0  0  0  0  0  0  0  0  0
  192.2900  175.6890  137.4180 C   0  0  0  0  0  0  0  0  0  0  0  0
  188.3710  178.0960  142.0730 C   0  0  0  0  0  2  0  0  0  0  0  0
  187.8750  178.6710  140.7440 C   0  0  2  0  0  3  0  0  0  0  0  0
  190.5430  177.5250  140.9980 C   0  0  0  0  0  0  0  0  0  0  0  0
  187.9400  178.0190  138.2920 C   0  0  0  0  0  3  0  0  0  0  0  0
  184.2390  178.6240  141.7820 C   0  0  0  0  0  0  0  0  0  0  0  0
  183.6260  178.7310  140.5700 N   0  0  0  0  0  0  0  0  0  0  0  0
  186.3650  178.6140  140.6690 C   0  0  0  0  0  0  0  0  0  0  0  0
  184.3480  178.7440  139.4240 C   0  0  0  0  0  3  0  0  0  0  0  0
  185.6290  178.5750  141.8530 C   0  0  0  0  0  3  0  0  0  0  0  0
  185.7100  178.7160  139.4750 N   0  0  0  0  0  0  0  0  0  0  0  0
  183.4310  178.6650  143.0270 C   0  0  0  0  0  1  0  0  0  0  0  0
  190.5020  178.5250  143.3170 C   0  0  0  0  0  2  0  0  0  0  0  0
  190.8480  177.3190  144.1820 C   0  0  0  0  0  2  0  0  0  0  0  0
  189.5990  176.6690  144.7720 C   0  0  0  0  0  2  0  0  0  0  0  0
  189.3380  177.1140  146.2130 C   0  0  0  0  0  2  0  0  0  0  0  0
  188.5120  178.2520  148.7310 C   0  0  0  0  0  1  0  0  0  0  0  0
  188.1380  177.9460  146.2890 N   0  0  0  0  0  0  0  0  0  0  0  0
  187.5300  177.8620  147.6310 C   0  0  2  0  0  3  0  0  0  0  0  0
  185.2960  178.3540  146.6520 C   0  0  0  0  0  2  0  0  0  0  0  0
  185.9440  178.3160  145.2680 C   0  0  0  0  0  2  0  0  0  0  0  0
  187.1830  177.4200  145.3110 C   0  0  0  0  0  2  0  0  0  0  0  0
  186.3150  178.7920  147.7040 C   0  0  0  0  0  2  0  0  0  0  0  0
  1  8  1  0  0  0  0
  3 15  1  0  0  0  0
  4 24  1  0  0  0  0
  5 12  1  0  0  0  0
  8  2  1  0  0  0  0
  8  3  2  0  0  0  0
  9  5  2  0  0  0  0
  9  1  1  0  0  0  0
 10  3  1  0  0  0  0
 10 14  1  0  0  0  0
 11  1  2  0  0  0  0
 11 16  1  0  0  0  0
 12  6  1  0  0  0  0
 12  2  2  0  0  0  0
 13  4  1  0  0  0  0
 14 19  1  6  0  0  0
 14 13  1  0  0  0  0
 15  7  2  0  0  0  0
 15  4  1  0  0  0  0
 16 10  2  0  0  0  0
 17 21  1  0  0  0  0
 17 23  1  0  0  0  0
 18 17  2  0  0  0  0
 19 21  2  0  0  0  0
 20 22  2  0  0  0  0
 20 18  1  0  0  0  0
 22 19  1  0  0  0  0
 24 25  1  0  0  0  0
 25 26  1  0  0  0  0
 26 27  1  0  0  0  0
 27 29  1  0  0  0  0
 29 30  1  0  0  0  0
 30 34  1  0  0  0  0
 30 28  1  1  0  0  0
 31 34  1  0  0  0  0
 32 33  1  0  0  0  0
 32 31  1  0  0  0  0
 33 29  1  0  0  0  0
M  END
>  <MODEL>
5

>  <REMARK>
 VINA RESULT:      -9.2      2.267      8.630
  Name = 
  6 active torsions:
  status: ('A' for Active; 'I' for Inactive)
    1  A    between atoms: C_3  and  N_13
    2  A    between atoms: C_3  and  C_17
    3  A    between atoms: N_5  and  C_18
    4  A    between atoms: C_12  and  C_28
    5  A    between atoms: C_17  and  C_29
    6  A    between atoms: C_18  and  C_29
                            x       y       z     vdW  Elec       q    Type
                         _______ _______ _______ _____ _____    ______ ____

>  <TORSDO>
F 6

$$$$
=
 OpenBabel11052414113D

 34 38  0  0  1  0  0  0  0  0999 V2000
  187.4590  177.9680  138.1800 C   0  0  0  0  0  0  0  0  0  0  0  0
  188.7270  177.9930  140.2470 C   0  0  0  0  0  3  0  0  0  0  0  0
  186.3030  178.5020  140.2660 C   0  0  0  0  0  0  0  0  0  0  0  0
  184.9940  179.0940  142.3350 N   0  0  0  0  0  0  0  0  0  0  0  0
  189.8240  177.4550  138.1610 C   0  0  0  0  0  3  0  0  0  0  0  0
  191.1650  177.4600  140.2670 C   0  0  0  0  0  1  0  0  0  0  0  0
  187.3090  178.8410  142.4270 O   0  0  0  0  0  0  0  0  0  0  0  0
  187.5000  178.1660  139.5790 C   0  0  0  0  0  0  0  0  0  0  0  0
  188.6170  177.6180  137.4780 C   0  0  0  0  0  3  0  0  0  0  0  0
  185.0950  178.5970  139.5290 C   0  0  0  0  0  0  0  0  0  0  0  0
  186.2920  178.1260  137.5020 N   0  0  0  0  0  0  0  0  0  0  0  0
  189.8810  177.6430  139.5410 C   0  0  0  0  0  0  0  0  0  0  0  0
  183.7790  178.6300  141.6860 C   0  0  0  0  0  2  0  0  0  0  0  0
  183.7900  179.0200  140.2060 C   0  0  2  0  0  3  0  0  0  0  0  0
  186.2630  178.7980  141.7340 C   0  0  0  0  0  0  0  0  0  0  0  0
  185.1370  178.4370  138.1360 C   0  0  0  0  0  3  0  0  0  0  0  0
  180.9370  176.7360  139.2360 C   0  0  0  0  0  0  0  0  0  0  0  0
  180.2280  177.5520  138.4070 N   0  0  0  0  0  0  0  0  0  0  0  0
  182.5660  178.4790  139.5030 C   0  0  0  0  0  0  0  0  0  0  0  0
  180.6790  178.7900  138.0950 C   0  0  0  0  0  3  0  0  0  0  0  0
  182.1210  177.1920  139.8100 C   0  0  0  0  0  3  0  0  0  0  0  0
  181.8260  179.2610  138.6630 N   0  0  0  0  0  0  0  0  0  0  0  0
  180.3960  175.4040  139.6060 C   0  0  0  0  0  1  0  0  0  0  0  0
  184.8940  179.7210  143.6460 C   0  0  0  0  0  2  0  0  0  0  0  0
  184.5240  178.6790  144.6940 C   0  0  0  0  0  2  0  0  0  0  0  0
  185.6100  178.5340  145.7570 C   0  0  0  0  0  2  0  0  0  0  0  0
  186.6630  177.4930  145.3720 C   0  0  0  0  0  2  0  0  0  0  0  0
  189.1280  176.7740  144.0570 C   0  0  0  0  0  1  0  0  0  0  0  0
  187.9500  177.8010  145.9950 N   0  0  0  0  0  0  0  0  0  0  0  0
  188.9790  176.8300  145.5740 C   0  0  2  0  0  3  0  0  0  0  0  0
  190.2010  177.1980  147.7110 C   0  0  0  0  0  2  0  0  0  0  0  0
  189.0550  178.1050  148.1580 C   0  0  0  0  0  2  0  0  0  0  0  0
  187.7690  177.6890  147.4440 C   0  0  0  0  0  2  0  0  0  0  0  0
  190.3300  177.2150  146.1880 C   0  0  0  0  0  2  0  0  0  0  0  0
  1  8  1  0  0  0  0
  3 15  1  0  0  0  0
  4 24  1  0  0  0  0
  5 12  1  0  0  0  0
  8  2  1  0  0  0  0
  8  3  2  0  0  0  0
  9  5  2  0  0  0  0
  9  1  1  0  0  0  0
 10 14  1  0  0  0  0
 10  3  1  0  0  0  0
 11 16  1  0  0  0  0
 11  1  2  0  0  0  0
 12  2  2  0  0  0  0
 12  6  1  0  0  0  0
 13  4  1  0  0  0  0
 14 19  1  6  0  0  0
 14 13  1  0  0  0  0
 15  4  1  0  0  0  0
 15  7  2  0  0  0  0
 16 10  2  0  0  0  0
 17 23  1  0  0  0  0
 17 21  1  0  0  0  0
 18 17  2  0  0  0  0
 19 21  2  0  0  0  0
 20 18  1  0  0  0  0
 20 22  2  0  0  0  0
 22 19  1  0  0  0  0
 24 25  1  0  0  0  0
 25 26  1  0  0  0  0
 27 26  1  0  0  0  0
 27 29  1  0  0  0  0
 29 33  1  0  0  0  0
 30 28  1  6  0  0  0
 30 29  1  0  0  0  0
 30 34  1  0  0  0  0
 31 32  1  0  0  0  0
 33 32  1  0  0  0  0
 34 31  1  0  0  0  0
M  END
>  <MODEL>
6

>  <REMARK>
 VINA RESULT:      -9.2      3.266      9.245
  Name = 
  6 active torsions:
  status: ('A' for Active; 'I' for Inactive)
    1  A    between atoms: C_3  and  N_13
    2  A    between atoms: C_3  and  C_17
    3  A    between atoms: N_5  and  C_18
    4  A    between atoms: C_12  and  C_28
    5  A    between atoms: C_17  and  C_29
    6  A    between atoms: C_18  and  C_29
                            x       y       z     vdW  Elec       q    Type
                         _______ _______ _______ _____ _____    ______ ____

>  <TORSDO>
F 6

$$$$
=
 OpenBabel11052414113D

 34 38  0  0  1  0  0  0  0  0999 V2000
  189.7690  177.0250  141.1790 C   0  0  0  0  0  0  0  0  0  0  0  0
  188.3870  178.2770  139.6280 C   0  0  0  0  0  3  0  0  0  0  0  0
  187.6310  177.9170  141.9590 C   0  0  0  0  0  0  0  0  0  0  0  0
  185.4440  178.7530  142.8870 N   0  0  0  0  0  0  0  0  0  0  0  0
  190.5170  177.3890  138.9060 C   0  0  0  0  0  3  0  0  0  0  0  0
  189.1300  178.6810  137.2800 C   0  0  0  0  0  1  0  0  0  0  0  0
  185.9380  178.9840  140.6210 O   0  0  0  0  0  0  0  0  0  0  0  0
  188.5780  177.7400  140.9150 C   0  0  0  0  0  0  0  0  0  0  0  0
  190.7290  176.8510  140.1770 C   0  0  0  0  0  3  0  0  0  0  0  0
  187.9270  177.3970  143.2460 C   0  0  0  0  0  0  0  0  0  0  0  0
  189.9880  176.4930  142.4100 N   0  0  0  0  0  0  0  0  0  0  0  0
  189.3490  178.1000  138.6300 C   0  0  0  0  0  0  0  0  0  0  0  0
  186.0130  178.7260  144.2240 C   0  0  0  0  0  2  0  0  0  0  0  0
  186.9150  177.5010  144.3880 C   0  0  2  0  0  3  0  0  0  0  0  0
  186.3130  178.5970  141.7560 C   0  0  0  0  0  0  0  0  0  0  0  0
  189.1050  176.6560  143.4230 C   0  0  0  0  0  3  0  0  0  0  0  0
  189.5250  177.1600  147.1030 C   0  0  0  0  0  0  0  0  0  0  0  0
  188.8590  177.6920  148.1660 N   0  0  0  0  0  0  0  0  0  0  0  0
  187.5720  177.5010  145.7510 C   0  0  0  0  0  0  0  0  0  0  0  0
  187.5700  178.0910  148.0510 C   0  0  0  0  0  3  0  0  0  0  0  0
  188.8920  177.0640  145.8670 C   0  0  0  0  0  3  0  0  0  0  0  0
  186.9400  178.0230  146.8430 N   0  0  0  0  0  0  0  0  0  0  0  0
  190.9530  176.7790  147.2390 C   0  0  0  0  0  1  0  0  0  0  0  0
  184.0330  179.0790  142.7310 C   0  0  0  0  0  2  0  0  0  0  0  0
  183.2550  178.6280  143.9610 C   0  0  0  0  0  2  0  0  0  0  0  0
  181.8380  179.1950  143.9750 C   0  0  0  0  0  2  0  0  0  0  0  0
  180.8250  178.2390  143.3410 C   0  0  0  0  0  2  0  0  0  0  0  0
  181.2800  177.5790  140.5710 C   0  0  0  0  0  1  0  0  0  0  0  0
  180.0660  178.9120  142.2880 N   0  0  0  0  0  0  0  0  0  0  0  0
  180.8460  178.9650  141.0360 C   0  0  2  0  0  3  0  0  0  0  0  0
  179.6320  181.0320  140.3670 C   0  0  0  0  0  2  0  0  0  0  0  0
  178.9310  181.0060  141.7240 C   0  0  0  0  0  2  0  0  0  0  0  0
  179.8150  180.2820  142.7400 C   0  0  0  0  0  2  0  0  0  0  0  0
  180.0030  179.6140  139.9330 C   0  0  0  0  0  2  0  0  0  0  0  0
  1 11  1  0  0  0  0
  2  8  1  0  0  0  0
  3 10  2  0  0  0  0
  4 13  1  0  0  0  0
  5  9  2  0  0  0  0
  6 12  1  0  0  0  0
  7 15  2  0  0  0  0
  8  1  2  0  0  0  0
  8  3  1  0  0  0  0
  9  1  1  0  0  0  0
 10 16  1  0  0  0  0
 10 14  1  0  0  0  0
 11 16  2  0  0  0  0
 12  5  1  0  0  0  0
 12  2  2  0  0  0  0
 13 14  1  0  0  0  0
 14 19  1  1  0  0  0
 15  3  1  0  0  0  0
 15  4  1  0  0  0  0
 17 23  1  0  0  0  0
 17 18  1  0  0  0  0
 19 21  1  0  0  0  0
 19 22  2  0  0  0  0
 20 18  2  0  0  0  0
 21 17  2  0  0  0  0
 22 20  1  0  0  0  0
 24  4  1  0  0  0  0
 24 25  1  0  0  0  0
 25 26  1  0  0  0  0
 27 26  1  0  0  0  0
 29 33  1  0  0  0  0
 29 27  1  0  0  0  0
 30 28  1  6  0  0  0
 30 29  1  0  0  0  0
 31 32  1  0  0  0  0
 32 33  1  0  0  0  0
 34 31  1  0  0  0  0
 34 30  1  0  0  0  0
M  END
>  <MODEL>
7

>  <REMARK>
 VINA RESULT:      -9.2      2.694      6.933
  Name = 
  6 active torsions:
  status: ('A' for Active; 'I' for Inactive)
    1  A    between atoms: C_3  and  N_13
    2  A    between atoms: C_3  and  C_17
    3  A    between atoms: N_5  and  C_18
    4  A    between atoms: C_12  and  C_28
    5  A    between atoms: C_17  and  C_29
    6  A    between atoms: C_18  and  C_29
                            x       y       z     vdW  Elec       q    Type
                         _______ _______ _______ _____ _____    ______ ____

>  <TORSDO>
F 6

$$$$
=
 OpenBabel11052414113D

 34 38  0  0  1  0  0  0  0  0999 V2000
  183.1110  178.9240  144.3100 C   0  0  0  0  0  0  0  0  0  0  0  0
  183.0140  178.6190  141.9060 C   0  0  0  0  0  3  0  0  0  0  0  0
  185.1880  178.5180  143.0880 C   0  0  0  0  0  0  0  0  0  0  0  0
  187.4050  178.1340  141.9550 N   0  0  0  0  0  0  0  0  0  0  0  0
  180.9830  179.0070  143.1580 C   0  0  0  0  0  3  0  0  0  0  0  0
  180.8380  178.6880  140.6860 C   0  0  0  0  0  1  0  0  0  0  0  0
  185.4600  178.4120  140.6980 O   0  0  0  0  0  0  0  0  0  0  0  0
  183.7790  178.6940  143.0860 C   0  0  0  0  0  0  0  0  0  0  0  0
  181.7220  179.0830  144.3410 C   0  0  0  0  0  3  0  0  0  0  0  0
  185.8790  178.5470  144.3280 C   0  0  0  0  0  0  0  0  0  0  0  0
  183.8160  179.0020  145.4690 N   0  0  0  0  0  0  0  0  0  0  0  0
  181.6270  178.7770  141.9430 C   0  0  0  0  0  0  0  0  0  0  0  0
  187.9420  177.6190  143.2020 C   0  0  0  0  0  2  0  0  0  0  0  0
  187.4030  178.4290  144.3830 C   0  0  2  0  0  3  0  0  0  0  0  0
  185.9890  178.3390  141.8350 C   0  0  0  0  0  0  0  0  0  0  0  0
  185.1580  178.8290  145.4980 C   0  0  0  0  0  3  0  0  0  0  0  0
  189.6700  176.8870  146.9860 C   0  0  0  0  0  0  0  0  0  0  0  0
  188.8970  177.0080  148.1020 N   0  0  0  0  0  0  0  0  0  0  0  0
  187.8960  177.8560  145.6930 C   0  0  0  0  0  0  0  0  0  0  0  0
  187.6400  177.5050  148.0270 C   0  0  0  0  0  3  0  0  0  0  0  0
  189.1830  177.3210  145.7560 C   0  0  0  0  0  3  0  0  0  0  0  0
  187.1540  177.9530  146.8340 N   0  0  0  0  0  0  0  0  0  0  0  0
  191.0640  176.3890  147.1010 C   0  0  0  0  0  1  0  0  0  0  0  0
  188.3000  178.2940  140.8170 C   0  0  0  0  0  2  0  0  0  0  0  0
  189.5990  177.5380  141.0660 C   0  0  0  0  0  2  0  0  0  0  0  0
  190.3690  177.2920  139.7710 C   0  0  0  0  0  2  0  0  0  0  0  0
  189.6380  177.8480  138.5470 C   0  0  0  0  0  2  0  0  0  0  0  0
  187.0050  177.5520  137.4070 C   0  0  0  0  0  1  0  0  0  0  0  0
  189.3680  176.7870  137.5780 N   0  0  0  0  0  0  0  0  0  0  0  0
  187.9510  176.3780  137.6340 C   0  0  2  0  0  3  0  0  0  0  0  0
  188.5760  174.1040  136.8360 C   0  0  0  0  0  2  0  0  0  0  0  0
  190.0420  174.5320  136.9040 C   0  0  0  0  0  2  0  0  0  0  0  0
  190.2000  175.6400  137.9470 C   0  0  0  0  0  2  0  0  0  0  0  0
  187.6810  175.3140  136.5640 C   0  0  0  0  0  2  0  0  0  0  0  0
  1  9  1  0  0  0  0
  1 11  1  0  0  0  0
  2 12  2  0  0  0  0
  2  8  1  0  0  0  0
  3 10  2  0  0  0  0
  4 13  1  0  0  0  0
  5  9  2  0  0  0  0
  6 12  1  0  0  0  0
  7 15  2  0  0  0  0
  8  3  1  0  0  0  0
  8  1  2  0  0  0  0
 10 14  1  0  0  0  0
 10 16  1  0  0  0  0
 11 16  2  0  0  0  0
 12  5  1  0  0  0  0
 13 14  1  0  0  0  0
 14 19  1  1  0  0  0
 15  4  1  0  0  0  0
 15  3  1  0  0  0  0
 17 23  1  0  0  0  0
 17 18  1  0  0  0  0
 19 21  1  0  0  0  0
 19 22  2  0  0  0  0
 20 18  2  0  0  0  0
 21 17  2  0  0  0  0
 22 20  1  0  0  0  0
 24 25  1  0  0  0  0
 24  4  1  0  0  0  0
 26 25  1  0  0  0  0
 27 26  1  0  0  0  0
 29 30  1  0  0  0  0
 29 33  1  0  0  0  0
 29 27  1  0  0  0  0
 30 28  1  6  0  0  0
 31 32  1  0  0  0  0
 32 33  1  0  0  0  0
 34 31  1  0  0  0  0
 34 30  1  0  0  0  0
M  END
>  <MODEL>
8

>  <REMARK>
 VINA RESULT:      -9.0      1.802      3.057
  Name = 
  6 active torsions:
  status: ('A' for Active; 'I' for Inactive)
    1  A    between atoms: C_3  and  N_13
    2  A    between atoms: C_3  and  C_17
    3  A    between atoms: N_5  and  C_18
    4  A    between atoms: C_12  and  C_28
    5  A    between atoms: C_17  and  C_29
    6  A    between atoms: C_18  and  C_29
                            x       y       z     vdW  Elec       q    Type
                         _______ _______ _______ _____ _____    ______ ____

>  <TORSDO>
F 6

$$$$
=
 OpenBabel11052414113D

 34 38  0  0  1  0  0  0  0  0999 V2000
  189.7010  176.9760  141.3560 C   0  0  0  0  0  0  0  0  0  0  0  0
  188.3390  178.3410  139.8850 C   0  0  0  0  0  3  0  0  0  0  0  0
  187.6620  177.9910  142.2420 C   0  0  0  0  0  0  0  0  0  0  0  0
  185.5760  178.9510  143.2770 N   0  0  0  0  0  0  0  0  0  0  0  0
  190.3730  177.3300  139.0580 C   0  0  0  0  0  3  0  0  0  0  0  0
  189.0060  178.7360  137.5130 C   0  0  0  0  0  1  0  0  0  0  0  0
  185.9860  179.1880  140.9940 O   0  0  0  0  0  0  0  0  0  0  0  0
  188.5500  177.7700  141.1550 C   0  0  0  0  0  0  0  0  0  0  0  0
  190.6040  176.7570  140.3110 C   0  0  0  0  0  3  0  0  0  0  0  0
  187.9770  177.4310  143.5070 C   0  0  0  0  0  0  0  0  0  0  0  0
  189.9370  176.4100  142.5690 N   0  0  0  0  0  0  0  0  0  0  0  0
  189.2440  178.1190  138.8440 C   0  0  0  0  0  0  0  0  0  0  0  0
  186.1980  178.8650  144.5870 C   0  0  0  0  0  2  0  0  0  0  0  0
  187.0240  177.5810  144.6940 C   0  0  2  0  0  3  0  0  0  0  0  0
  186.3830  178.7590  142.1060 C   0  0  0  0  0  0  0  0  0  0  0  0
  189.1110  176.6120  143.6210 C   0  0  0  0  0  3  0  0  0  0  0  0
  189.7480  177.1230  147.2760 C   0  0  0  0  0  0  0  0  0  0  0  0
  189.1220  177.5910  148.3930 N   0  0  0  0  0  0  0  0  0  0  0  0
  187.7370  177.5150  146.0260 C   0  0  0  0  0  0  0  0  0  0  0  0
  187.8270  177.9810  148.3530 C   0  0  0  0  0  3  0  0  0  0  0  0
  189.0650  177.0870  146.0640 C   0  0  0  0  0  3  0  0  0  0  0  0
  187.1470  177.9700  147.1700 N   0  0  0  0  0  0  0  0  0  0  0  0
  191.1840  176.7510  147.3320 C   0  0  0  0  0  1  0  0  0  0  0  0
  184.1840  179.3710  143.1870 C   0  0  0  0  0  2  0  0  0  0  0  0
  183.3410  178.2520  142.5870 C   0  0  0  0  0  2  0  0  0  0  0  0
  181.8870  178.6770  142.3980 C   0  0  0  0  0  2  0  0  0  0  0  0
  181.4600  178.6450  140.9290 C   0  0  0  0  0  2  0  0  0  0  0  0
  183.2830  179.9170  139.0920 C   0  0  0  0  0  1  0  0  0  0  0  0
  182.3880  177.8410  140.1360 N   0  0  0  0  0  0  0  0  0  0  0  0
  182.7120  178.5210  138.8660 C   0  0  2  0  0  3  0  0  0  0  0  0
  183.1350  176.3150  137.7930 C   0  0  0  0  0  2  0  0  0  0  0  0
  182.6790  175.6470  139.0900 C   0  0  0  0  0  2  0  0  0  0  0  0
  181.7170  176.5770  139.8290 C   0  0  0  0  0  2  0  0  0  0  0  0
  183.7370  177.6900  138.0860 C   0  0  0  0  0  2  0  0  0  0  0  0
  1 11  1  0  0  0  0
  2  8  1  0  0  0  0
  3 10  2  0  0  0  0
  4 13  1  0  0  0  0
  5  9  2  0  0  0  0
  6 12  1  0  0  0  0
  7 15  2  0  0  0  0
  8  1  2  0  0  0  0
  8  3  1  0  0  0  0
  9  1  1  0  0  0  0
 10 16  1  0  0  0  0
 10 14  1  0  0  0  0
 11 16  2  0  0  0  0
 12  5  1  0  0  0  0
 12  2  2  0  0  0  0
 13 14  1  0  0  0  0
 14 19  1  1  0  0  0
 15  3  1  0  0  0  0
 15  4  1  0  0  0  0
 17 23  1  0  0  0  0
 17 18  1  0  0  0  0
 19 21  1  0  0  0  0
 19 22  2  0  0  0  0
 20 18  2  0  0  0  0
 21 17  2  0  0  0  0
 22 20  1  0  0  0  0
 24  4  1  0  0  0  0
 25 24  1  0  0  0  0
 26 25  1  0  0  0  0
 27 26  1  0  0  0  0
 29 27  1  0  0  0  0
 30 28  1  1  0  0  0
 30 29  1  0  0  0  0
 31 34  1  0  0  0  0
 31 32  1  0  0  0  0
 32 33  1  0  0  0  0
 33 29  1  0  0  0  0
 34 30  1  0  0  0  0
M  END
>  <MODEL>
9

>  <REMARK>
 VINA RESULT:      -9.0      2.527      5.664
  Name = 
  6 active torsions:
  status: ('A' for Active; 'I' for Inactive)
    1  A    between atoms: C_3  and  N_13
    2  A    between atoms: C_3  and  C_17
    3  A    between atoms: N_5  and  C_18
    4  A    between atoms: C_12  and  C_28
    5  A    between atoms: C_17  and  C_29
    6  A    between atoms: C_18  and  C_29
                            x       y       z     vdW  Elec       q    Type
                         _______ _______ _______ _____ _____    ______ ____

>  <TORSDO>
F 6

$$$$
