=
 OpenBabel11052413523D

 27 30  0  0  1  0  0  0  0  0999 V2000
  187.4270  178.1360  142.4600 N   0  0  0  0  0  2  0  0  0  0  0  0
  188.4870  177.5130  144.5970 C   0  0  0  0  0  0  0  0  0  0  0  0
  189.8700  176.3620  142.8880 C   0  0  0  0  0  2  0  0  0  0  0  0
  189.9350  177.0820  139.1970 C   0  0  0  0  0  3  0  0  0  0  0  0
  188.8220  177.9020  139.0240 C   0  0  0  0  0  0  0  0  0  0  0  0
  187.4060  177.9170  143.8840 C   0  0  0  0  0  0  0  0  0  0  0  0
  188.3230  177.7550  141.4030 C   0  0  0  0  0  0  0  0  0  0  0  0
  189.8500  177.3910  144.0070 C   0  0  1  0  0  3  0  0  0  0  0  0
  190.2490  176.5980  140.4680 C   0  0  0  0  0  3  0  0  0  0  0  0
  188.5120  178.3750  137.7940 F   0  0  0  0  0  0  0  0  0  0  0  0
  188.0220  178.2310  140.1200 C   0  0  0  0  0  3  0  0  0  0  0  0
  189.4570  176.9280  141.5730 C   0  0  0  0  0  0  0  0  0  0  0  0
  183.7270  178.5680  144.6350 C   0  0  0  0  0  2  0  0  0  0  0  0
  186.1850  178.2440  144.5590 N   0  0  0  0  0  0  0  0  0  0  0  0
  186.1740  178.2000  146.0260 C   0  0  0  0  0  2  0  0  0  0  0  0
  184.7530  178.2720  146.5810 C   0  0  0  0  0  2  0  0  0  0  0  0
  184.0010  179.2020  145.8530 O   0  0  0  0  0  0  0  0  0  0  0  0
  184.9840  178.5430  143.7660 C   0  0  0  0  0  2  0  0  0  0  0  0
  191.6580  178.9990  144.5770 C   0  0  0  0  0  2  0  0  0  0  0  0
  191.8940  178.5230  143.1590 C   0  0  0  0  0  2  0  0  0  0  0  0
  190.4800  178.7400  143.6590 C   0  0  0  0  0  3  0  0  0  0  0  0
  188.3960  177.1850  145.9580 O   0  0  0  0  0  0  0  0  0  0  0  0
  189.3550  177.5910  146.9310 C   0  0  1  0  0  3  0  0  0  0  0  0
  188.7000  178.0370  148.0790 O   0  0  0  0  0  1  0  0  0  0  0  0
  190.2500  176.4200  147.2870 C   0  0  0  0  0  2  0  0  0  0  0  0
  192.4150  175.7090  147.7680 C   0  0  0  0  0  1  0  0  0  0  0  0
  191.6330  176.8570  147.3480 N   0  0  0  0  0  2  0  0  0  0  0  0
  1  6  1  0  0  0  0
  2 22  1  0  0  0  0
  3  8  1  0  0  0  0
  4  9  1  0  0  0  0
  5  4  2  0  0  0  0
  5 11  1  0  0  0  0
  6 14  1  0  0  0  0
  6  2  2  0  0  0  0
  7 12  1  0  0  0  0
  7  1  1  0  0  0  0
  8 21  1  6  0  0  0
  8  2  1  0  0  0  0
  9 12  2  0  0  0  0
 10  5  1  0  0  0  0
 11  7  2  0  0  0  0
 12  3  1  0  0  0  0
 13 17  1  0  0  0  0
 14 15  1  0  0  0  0
 15 16  1  0  0  0  0
 17 16  1  0  0  0  0
 18 14  1  0  0  0  0
 18 13  1  0  0  0  0
 20 21  1  0  0  0  0
 20 19  1  0  0  0  0
 21 19  1  0  0  0  0
 22 23  1  0  0  0  0
 23 25  1  0  0  0  0
 23 24  1  1  0  0  0
 25 27  1  0  0  0  0
 27 26  1  0  0  0  0
M  END
>  <MODEL>
1

>  <REMARK>
 VINA RESULT:      -8.3      0.000      0.000
  Name = 
  6 active torsions:
  status: ('A' for Active; 'I' for Inactive)
    1  A    between atoms: C_2  and  O_6
    2  A    between atoms: C_5  and  O_6
    3  A    between atoms: C_5  and  C_17
    4  A    between atoms: N_9  and  C_15
    5  A    between atoms: C_14  and  C_19
    6  A    between atoms: N_16  and  C_17
                            x       y       z     vdW  Elec       q    Type
                         _______ _______ _______ _____ _____    ______ ____

>  <TORSDO>
F 6

$$$$
=
 OpenBabel11052413523D

 27 30  0  0  1  0  0  0  0  0999 V2000
  187.4000  178.2260  141.4950 N   0  0  0  0  0  2  0  0  0  0  0  0
  187.8180  177.5570  143.8300 C   0  0  0  0  0  0  0  0  0  0  0  0
  189.5780  176.3690  142.5450 C   0  0  0  0  0  2  0  0  0  0  0  0
  190.6670  177.1060  139.0220 C   0  0  0  0  0  3  0  0  0  0  0  0
  189.6690  177.9640  138.5650 C   0  0  0  0  0  0  0  0  0  0  0  0
  186.9850  178.0010  142.8560 C   0  0  0  0  0  0  0  0  0  0  0  0
  188.5380  177.8220  140.7160 C   0  0  0  0  0  0  0  0  0  0  0  0
  189.2860  177.3920  143.6310 C   0  0  1  0  0  3  0  0  0  0  0  0
  190.6080  176.6050  140.3230 C   0  0  0  0  0  3  0  0  0  0  0  0
  189.7210  178.4530  137.3030 F   0  0  0  0  0  0  0  0  0  0  0  0
  188.6120  178.3140  139.4060 C   0  0  0  0  0  3  0  0  0  0  0  0
  189.5560  176.9550  141.1760 C   0  0  0  0  0  0  0  0  0  0  0  0
  183.9500  179.7500  144.3560 C   0  0  0  0  0  2  0  0  0  0  0  0
  185.6380  178.3650  143.1780 N   0  0  0  0  0  0  0  0  0  0  0  0
  184.5670  177.9110  142.2840 C   0  0  0  0  0  2  0  0  0  0  0  0
  183.2460  178.6190  142.5810 C   0  0  0  0  0  2  0  0  0  0  0  0
  183.0660  178.7360  143.9650 O   0  0  0  0  0  0  0  0  0  0  0  0
  185.3850  179.2260  144.3440 C   0  0  0  0  0  2  0  0  0  0  0  0
  190.8790  178.9600  144.7190 C   0  0  0  0  0  2  0  0  0  0  0  0
  191.5210  178.4630  143.4400 C   0  0  0  0  0  2  0  0  0  0  0  0
  190.0280  178.7210  143.4870 C   0  0  0  0  0  3  0  0  0  0  0  0
  187.3500  177.2260  145.1110 O   0  0  0  0  0  0  0  0  0  0  0  0
  187.8690  177.7940  146.3100 C   0  0  1  0  0  3  0  0  0  0  0  0
  186.8180  178.2420  147.1100 O   0  0  0  0  0  1  0  0  0  0  0  0
  188.6670  176.7520  147.0680 C   0  0  0  0  0  2  0  0  0  0  0  0
  190.9750  176.6010  147.3460 C   0  0  0  0  0  1  0  0  0  0  0  0
  189.8060  177.3780  147.7150 N   0  0  0  0  0  2  0  0  0  0  0  0
  1  6  1  0  0  0  0
  2 22  1  0  0  0  0
  3  8  1  0  0  0  0
  4  9  1  0  0  0  0
  5  4  2  0  0  0  0
  5 11  1  0  0  0  0
  6 14  1  0  0  0  0
  6  2  2  0  0  0  0
  7 12  1  0  0  0  0
  7  1  1  0  0  0  0
  8 21  1  6  0  0  0
  8  2  1  0  0  0  0
  9 12  2  0  0  0  0
 10  5  1  0  0  0  0
 11  7  2  0  0  0  0
 12  3  1  0  0  0  0
 14 18  1  0  0  0  0
 15 16  1  0  0  0  0
 15 14  1  0  0  0  0
 16 17  1  0  0  0  0
 17 13  1  0  0  0  0
 18 13  1  0  0  0  0
 20 21  1  0  0  0  0
 20 19  1  0  0  0  0
 21 19  1  0  0  0  0
 22 23  1  0  0  0  0
 23 25  1  0  0  0  0
 23 24  1  1  0  0  0
 25 27  1  0  0  0  0
 26 27  1  0  0  0  0
M  END
>  <MODEL>
2

>  <REMARK>
 VINA RESULT:      -8.1      1.247      1.641
  Name = 
  6 active torsions:
  status: ('A' for Active; 'I' for Inactive)
    1  A    between atoms: C_2  and  O_6
    2  A    between atoms: C_5  and  O_6
    3  A    between atoms: C_5  and  C_17
    4  A    between atoms: N_9  and  C_15
    5  A    between atoms: C_14  and  C_19
    6  A    between atoms: N_16  and  C_17
                            x       y       z     vdW  Elec       q    Type
                         _______ _______ _______ _____ _____    ______ ____

>  <TORSDO>
F 6

$$$$
=
 OpenBabel11052413523D

 27 30  0  0  1  0  0  0  0  0999 V2000
  186.8640  177.8320  144.3620 N   0  0  0  0  0  2  0  0  0  0  0  0
  188.1420  178.1450  142.2770 C   0  0  0  0  0  0  0  0  0  0  0  0
  189.8000  178.6000  144.0660 C   0  0  0  0  0  2  0  0  0  0  0  0
  189.4860  177.6900  147.7020 C   0  0  0  0  0  3  0  0  0  0  0  0
  188.1440  177.3310  147.8130 C   0  0  0  0  0  0  0  0  0  0  0  0
  186.9670  178.1270  142.9550 C   0  0  0  0  0  0  0  0  0  0  0  0
  187.8050  177.7910  145.4470 C   0  0  0  0  0  0  0  0  0  0  0  0
  189.4360  177.7190  142.8810 C   0  0  1  0  0  3  0  0  0  0  0  0
  189.9930  178.0990  146.4670 C   0  0  0  0  0  3  0  0  0  0  0  0
  187.6450  176.9340  149.0090 F   0  0  0  0  0  0  0  0  0  0  0  0
  187.3120  177.3860  146.6940 C   0  0  0  0  0  3  0  0  0  0  0  0
  189.1680  178.1500  145.3380 C   0  0  0  0  0  0  0  0  0  0  0  0
  183.2790  178.6740  142.1650 C   0  0  0  0  0  2  0  0  0  0  0  0
  185.7330  178.3150  142.2530 N   0  0  0  0  0  0  0  0  0  0  0  0
  185.7940  178.7350  140.8480 C   0  0  0  0  0  2  0  0  0  0  0  0
  184.4270  179.1810  140.3340 C   0  0  0  0  0  2  0  0  0  0  0  0
  183.4300  178.3250  140.8160 O   0  0  0  0  0  0  0  0  0  0  0  0
  184.4630  178.1460  142.9750 C   0  0  0  0  0  2  0  0  0  0  0  0
  190.6510  175.6200  142.3360 C   0  0  0  0  0  2  0  0  0  0  0  0
  190.8320  175.8870  143.8150 C   0  0  0  0  0  2  0  0  0  0  0  0
  189.5140  176.2160  143.1430 C   0  0  0  0  0  3  0  0  0  0  0  0
  188.2180  178.5620  140.9400 O   0  0  0  0  0  0  0  0  0  0  0  0
  189.1540  178.0370  140.0030 C   0  0  1  0  0  3  0  0  0  0  0  0
  188.8120  176.7230  139.6830 O   0  0  0  0  0  1  0  0  0  0  0  0
  189.1460  178.8780  138.7420 C   0  0  0  0  0  2  0  0  0  0  0  0
  188.2870  178.5150  136.6080 C   0  0  0  0  0  1  0  0  0  0  0  0
  187.9170  178.6490  138.0040 N   0  0  0  0  0  2  0  0  0  0  0  0
  1  7  1  0  0  0  0
  2  8  1  0  0  0  0
  2  6  2  0  0  0  0
  3 12  1  0  0  0  0
  4  5  1  0  0  0  0
  5 10  1  0  0  0  0
  6  1  1  0  0  0  0
  7 11  1  0  0  0  0
  8 21  1  1  0  0  0
  8  3  1  0  0  0  0
  9  4  2  0  0  0  0
 11  5  2  0  0  0  0
 12  7  2  0  0  0  0
 12  9  1  0  0  0  0
 13 18  1  0  0  0  0
 14  6  1  0  0  0  0
 14 18  1  0  0  0  0
 15 14  1  0  0  0  0
 16 17  1  0  0  0  0
 16 15  1  0  0  0  0
 17 13  1  0  0  0  0
 19 21  1  0  0  0  0
 19 20  1  0  0  0  0
 21 20  1  0  0  0  0
 22  2  1  0  0  0  0
 23 24  1  6  0  0  0
 23 22  1  0  0  0  0
 25 23  1  0  0  0  0
 26 27  1  0  0  0  0
 27 25  1  0  0  0  0
M  END
>  <MODEL>
3

>  <REMARK>
 VINA RESULT:      -7.1      3.468      6.193
  Name = 
  6 active torsions:
  status: ('A' for Active; 'I' for Inactive)
    1  A    between atoms: C_2  and  O_6
    2  A    between atoms: C_5  and  O_6
    3  A    between atoms: C_5  and  C_17
    4  A    between atoms: N_9  and  C_15
    5  A    between atoms: C_14  and  C_19
    6  A    between atoms: N_16  and  C_17
                            x       y       z     vdW  Elec       q    Type
                         _______ _______ _______ _____ _____    ______ ____

>  <TORSDO>
F 6

$$$$
=
 OpenBabel11052413523D

 27 30  0  0  1  0  0  0  0  0999 V2000
  190.8210  175.9490  139.1660 N   0  0  0  0  0  2  0  0  0  0  0  0
  188.9370  177.5380  139.1230 C   0  0  0  0  0  0  0  0  0  0  0  0
  189.7360  177.4970  136.7740 C   0  0  0  0  0  2  0  0  0  0  0  0
  191.9830  174.9160  135.2130 C   0  0  0  0  0  3  0  0  0  0  0  0
  192.4580  174.2130  136.3180 C   0  0  0  0  0  0  0  0  0  0  0  0
  189.9280  176.8940  139.7880 C   0  0  0  0  0  0  0  0  0  0  0  0
  191.1620  175.6410  137.8050 C   0  0  0  0  0  0  0  0  0  0  0  0
  188.5700  177.2280  137.7120 C   0  0  1  0  0  3  0  0  0  0  0  0
  191.0980  175.9800  135.3960 C   0  0  0  0  0  3  0  0  0  0  0  0
  193.3170  173.1800  136.1480 F   0  0  0  0  0  0  0  0  0  0  0  0
  192.0520  174.5770  137.6030 C   0  0  0  0  0  3  0  0  0  0  0  0
  190.6800  176.3480  136.6800 C   0  0  0  0  0  0  0  0  0  0  0  0
  189.5460  176.4890  143.5580 C   0  0  0  0  0  2  0  0  0  0  0  0
  190.0700  177.0670  141.2030 N   0  0  0  0  0  0  0  0  0  0  0  0
  191.2470  177.7920  141.6960 C   0  0  0  0  0  2  0  0  0  0  0  0
  191.4150  177.6320  143.2060 C   0  0  0  0  0  2  0  0  0  0  0  0
  190.1680  177.7120  143.8380 O   0  0  0  0  0  0  0  0  0  0  0  0
  189.0780  176.4620  142.1030 C   0  0  0  0  0  2  0  0  0  0  0  0
  186.4550  176.0470  137.1550 C   0  0  0  0  0  2  0  0  0  0  0  0
  187.4810  175.6760  136.1050 C   0  0  0  0  0  2  0  0  0  0  0  0
  187.9070  175.8610  137.5470 C   0  0  0  0  0  3  0  0  0  0  0  0
  188.1720  178.5460  139.7290 O   0  0  0  0  0  0  0  0  0  0  0  0
  186.8980  178.3180  140.3250 C   0  0  1  0  0  3  0  0  0  0  0  0
  186.7850  179.0710  141.4940 O   0  0  0  0  0  1  0  0  0  0  0  0
  185.8010  178.7210  139.3600 C   0  0  0  0  0  2  0  0  0  0  0  0
  183.7310  179.7590  139.1140 C   0  0  0  0  0  1  0  0  0  0  0  0
  184.8290  179.5580  140.0400 N   0  0  0  0  0  2  0  0  0  0  0  0
  1  6  1  0  0  0  0
  2 22  1  0  0  0  0
  2  6  2  0  0  0  0
  3  8  1  0  0  0  0
  4  9  2  0  0  0  0
  4  5  1  0  0  0  0
  5 11  2  0  0  0  0
  6 14  1  0  0  0  0
  7  1  1  0  0  0  0
  8 21  1  1  0  0  0
  8  2  1  0  0  0  0
  9 12  1  0  0  0  0
 10  5  1  0  0  0  0
 11  7  1  0  0  0  0
 12  3  1  0  0  0  0
 12  7  2  0  0  0  0
 13 17  1  0  0  0  0
 14 15  1  0  0  0  0
 14 18  1  0  0  0  0
 15 16  1  0  0  0  0
 16 17  1  0  0  0  0
 18 13  1  0  0  0  0
 19 21  1  0  0  0  0
 20 19  1  0  0  0  0
 20 21  1  0  0  0  0
 22 23  1  0  0  0  0
 23 24  1  1  0  0  0
 25 27  1  0  0  0  0
 25 23  1  0  0  0  0
 26 27  1  0  0  0  0
M  END
>  <MODEL>
4

>  <REMARK>
 VINA RESULT:      -6.6      3.646      7.056
  Name = 
  6 active torsions:
  status: ('A' for Active; 'I' for Inactive)
    1  A    between atoms: C_2  and  O_6
    2  A    between atoms: C_5  and  O_6
    3  A    between atoms: C_5  and  C_17
    4  A    between atoms: N_9  and  C_15
    5  A    between atoms: C_14  and  C_19
    6  A    between atoms: N_16  and  C_17
                            x       y       z     vdW  Elec       q    Type
                         _______ _______ _______ _____ _____    ______ ____

>  <TORSDO>
F 6

$$$$
=
 OpenBabel11052413523D

 27 30  0  0  1  0  0  0  0  0999 V2000
  185.8960  178.7030  140.1650 N   0  0  0  0  0  2  0  0  0  0  0  0
  184.6150  177.8830  138.2250 C   0  0  0  0  0  0  0  0  0  0  0  0
  183.1020  177.4840  140.1510 C   0  0  0  0  0  2  0  0  0  0  0  0
  183.3910  178.9940  143.5830 C   0  0  0  0  0  3  0  0  0  0  0  0
  184.6660  179.5550  143.5650 C   0  0  0  0  0  0  0  0  0  0  0  0
  185.7940  178.1780  138.8270 C   0  0  0  0  0  0  0  0  0  0  0  0
  184.9950  178.7790  141.2810 C   0  0  0  0  0  0  0  0  0  0  0  0
  183.2920  178.2090  138.8280 C   0  0  1  0  0  3  0  0  0  0  0  0
  182.9120  178.3260  142.4550 C   0  0  0  0  0  3  0  0  0  0  0  0
  185.1370  180.2040  144.6570 F   0  0  0  0  0  0  0  0  0  0  0  0
  185.4600  179.4440  142.4240 C   0  0  0  0  0  3  0  0  0  0  0  0
  183.6990  178.2150  141.3030 C   0  0  0  0  0  0  0  0  0  0  0  0
  189.2300  177.0240  137.6470 C   0  0  0  0  0  2  0  0  0  0  0  0
  187.0200  178.0600  138.0950 N   0  0  0  0  0  0  0  0  0  0  0  0
  187.0860  178.6600  136.7580 C   0  0  0  0  0  2  0  0  0  0  0  0
  188.3260  178.1990  135.9940 C   0  0  0  0  0  2  0  0  0  0  0  0
  189.4310  178.1600  136.8530 O   0  0  0  0  0  0  0  0  0  0  0  0
  188.1340  177.2960  138.6760 C   0  0  0  0  0  2  0  0  0  0  0  0
  181.9040  180.0310  137.8610 C   0  0  0  0  0  2  0  0  0  0  0  0
  181.5740  179.9320  139.3360 C   0  0  0  0  0  2  0  0  0  0  0  0
  182.9960  179.7080  138.8620 C   0  0  0  0  0  3  0  0  0  0  0  0
  184.5600  177.2530  136.9730 O   0  0  0  0  0  0  0  0  0  0  0  0
  184.3730  175.8510  136.8050 C   0  0  1  0  0  3  0  0  0  0  0  0
  183.2780  175.6190  135.9720 O   0  0  0  0  0  1  0  0  0  0  0  0
  185.6130  175.2390  136.1840 C   0  0  0  0  0  2  0  0  0  0  0  0
  185.5140  173.3440  137.5350 C   0  0  0  0  0  1  0  0  0  0  0  0
  186.3440  174.4810  137.1850 N   0  0  0  0  0  2  0  0  0  0  0  0
  1  7  1  0  0  0  0
  2  6  2  0  0  0  0
  2  8  1  0  0  0  0
  3 12  1  0  0  0  0
  5  4  1  0  0  0  0
  5 10  1  0  0  0  0
  6  1  1  0  0  0  0
  7 12  2  0  0  0  0
  7 11  1  0  0  0  0
  8 21  1  1  0  0  0
  8  3  1  0  0  0  0
  9  4  2  0  0  0  0
 11  5  2  0  0  0  0
 12  9  1  0  0  0  0
 13 18  1  0  0  0  0
 14 18  1  0  0  0  0
 14  6  1  0  0  0  0
 15 14  1  0  0  0  0
 16 15  1  0  0  0  0
 16 17  1  0  0  0  0
 17 13  1  0  0  0  0
 19 21  1  0  0  0  0
 19 20  1  0  0  0  0
 21 20  1  0  0  0  0
 22  2  1  0  0  0  0
 23 24  1  6  0  0  0
 23 22  1  0  0  0  0
 25 23  1  0  0  0  0
 25 27  1  0  0  0  0
 27 26  1  0  0  0  0
M  END
>  <MODEL>
5

>  <REMARK>
 VINA RESULT:      -6.5      5.744      8.994
  Name = 
  6 active torsions:
  status: ('A' for Active; 'I' for Inactive)
    1  A    between atoms: C_2  and  O_6
    2  A    between atoms: C_5  and  O_6
    3  A    between atoms: C_5  and  C_17
    4  A    between atoms: N_9  and  C_15
    5  A    between atoms: C_14  and  C_19
    6  A    between atoms: N_16  and  C_17
                            x       y       z     vdW  Elec       q    Type
                         _______ _______ _______ _____ _____    ______ ____

>  <TORSDO>
F 6

$$$$
=
 OpenBabel11052413523D

 27 30  0  0  1  0  0  0  0  0999 V2000
  190.1850  176.4350  139.6990 N   0  0  0  0  0  2  0  0  0  0  0  0
  188.3090  178.0330  139.7640 C   0  0  0  0  0  0  0  0  0  0  0  0
  189.2050  178.2580  137.4600 C   0  0  0  0  0  2  0  0  0  0  0  0
  191.5060  175.8580  135.7030 C   0  0  0  0  0  3  0  0  0  0  0  0
  191.9330  175.0280  136.7370 C   0  0  0  0  0  0  0  0  0  0  0  0
  189.2700  177.3090  140.3890 C   0  0  0  0  0  0  0  0  0  0  0  0
  190.5810  176.2840  138.3260 C   0  0  0  0  0  0  0  0  0  0  0  0
  188.0000  177.8910  138.3120 C   0  0  1  0  0  3  0  0  0  0  0  0
  190.6180  176.9010  135.9720 C   0  0  0  0  0  3  0  0  0  0  0  0
  192.7950  174.0150  136.4830 F   0  0  0  0  0  0  0  0  0  0  0  0
  191.4750  175.2440  138.0380 C   0  0  0  0  0  3  0  0  0  0  0  0
  190.1490  177.1210  137.2720 C   0  0  0  0  0  0  0  0  0  0  0  0
  190.0110  178.3310  143.9850 C   0  0  0  0  0  2  0  0  0  0  0  0
  189.3540  177.3140  141.8190 N   0  0  0  0  0  0  0  0  0  0  0  0
  188.4630  176.4200  142.5670 C   0  0  0  0  0  2  0  0  0  0  0  0
  188.4520  176.7530  144.0580 C   0  0  0  0  0  2  0  0  0  0  0  0
  189.7490  177.0520  144.4920 O   0  0  0  0  0  0  0  0  0  0  0  0
  190.2720  178.2530  142.4810 C   0  0  0  0  0  2  0  0  0  0  0  0
  185.9460  176.8100  137.4240 C   0  0  0  0  0  2  0  0  0  0  0  0
  187.0800  176.4980  136.4710 C   0  0  0  0  0  2  0  0  0  0  0  0
  187.3410  176.5580  137.9630 C   0  0  0  0  0  3  0  0  0  0  0  0
  187.5230  178.9700  140.4510 O   0  0  0  0  0  0  0  0  0  0  0  0
  186.3440  178.6290  141.1750 C   0  0  1  0  0  3  0  0  0  0  0  0
  186.0530  179.6330  142.0990 O   0  0  0  0  0  1  0  0  0  0  0  0
  185.1800  178.4780  140.2160 C   0  0  0  0  0  2  0  0  0  0  0  0
  183.5290  179.6780  139.0940 C   0  0  0  0  0  1  0  0  0  0  0  0
  184.8930  179.7530  139.5830 N   0  0  0  0  0  2  0  0  0  0  0  0
  1  6  1  0  0  0  0
  2  6  2  0  0  0  0
  2 22  1  0  0  0  0
  3  8  1  0  0  0  0
  4  9  2  0  0  0  0
  4  5  1  0  0  0  0
  5 11  2  0  0  0  0
  6 14  1  0  0  0  0
  7  1  1  0  0  0  0
  8 21  1  1  0  0  0
  8  2  1  0  0  0  0
  9 12  1  0  0  0  0
 10  5  1  0  0  0  0
 11  7  1  0  0  0  0
 12  3  1  0  0  0  0
 12  7  2  0  0  0  0
 13 17  1  0  0  0  0
 14 18  1  0  0  0  0
 14 15  1  0  0  0  0
 15 16  1  0  0  0  0
 16 17  1  0  0  0  0
 18 13  1  0  0  0  0
 19 21  1  0  0  0  0
 20 19  1  0  0  0  0
 20 21  1  0  0  0  0
 22 23  1  0  0  0  0
 23 24  1  1  0  0  0
 25 23  1  0  0  0  0
 26 27  1  0  0  0  0
 27 25  1  0  0  0  0
M  END
>  <MODEL>
6

>  <REMARK>
 VINA RESULT:      -6.5      3.154      6.532
  Name = 
  6 active torsions:
  status: ('A' for Active; 'I' for Inactive)
    1  A    between atoms: C_2  and  O_6
    2  A    between atoms: C_5  and  O_6
    3  A    between atoms: C_5  and  C_17
    4  A    between atoms: N_9  and  C_15
    5  A    between atoms: C_14  and  C_19
    6  A    between atoms: N_16  and  C_17
                            x       y       z     vdW  Elec       q    Type
                         _______ _______ _______ _____ _____    ______ ____

>  <TORSDO>
F 6

$$$$
=
 OpenBabel11052413523D

 27 30  0  0  1  0  0  0  0  0999 V2000
  186.0670  178.0180  139.8880 N   0  0  0  0  0  2  0  0  0  0  0  0
  188.4350  178.0900  140.5680 C   0  0  0  0  0  0  0  0  0  0  0  0
  187.2550  179.2980  142.3870 C   0  0  0  0  0  2  0  0  0  0  0  0
  183.5630  179.2320  143.0980 C   0  0  0  0  0  3  0  0  0  0  0  0
  183.0400  178.6340  141.9530 C   0  0  0  0  0  0  0  0  0  0  0  0
  187.4800  177.9850  139.6110 C   0  0  0  0  0  0  0  0  0  0  0  0
  185.2780  178.4370  141.0140 C   0  0  0  0  0  0  0  0  0  0  0  0
  188.1260  178.1040  142.0260 C   0  0  1  0  0  3  0  0  0  0  0  0
  184.9390  179.4340  143.2080 C   0  0  0  0  0  3  0  0  0  0  0  0
  181.7050  178.4360  141.8400 F   0  0  0  0  0  0  0  0  0  0  0  0
  183.8930  178.2440  140.9200 C   0  0  0  0  0  3  0  0  0  0  0  0
  185.8030  179.0400  142.1790 C   0  0  0  0  0  0  0  0  0  0  0  0
  189.1190  178.2580  136.1810 C   0  0  0  0  0  2  0  0  0  0  0  0
  187.8550  177.7350  138.2510 N   0  0  0  0  0  0  0  0  0  0  0  0
  187.6030  176.3990  137.6990 C   0  0  0  0  0  2  0  0  0  0  0  0
  188.3200  176.1960  136.3660 C   0  0  0  0  0  2  0  0  0  0  0  0
  188.2260  177.3560  135.5890 O   0  0  0  0  0  0  0  0  0  0  0  0
  188.5310  178.7940  137.4860 C   0  0  0  0  0  2  0  0  0  0  0  0
  188.7720  176.0250  143.2250 C   0  0  0  0  0  2  0  0  0  0  0  0
  187.7300  176.7350  144.0630 C   0  0  0  0  0  2  0  0  0  0  0  0
  187.6290  176.7570  142.5510 C   0  0  0  0  0  3  0  0  0  0  0  0
  189.7980  178.1840  140.2480 O   0  0  0  0  0  0  0  0  0  0  0  0
  190.7080  177.0930  140.3520 C   0  0  1  0  0  3  0  0  0  0  0  0
  191.0060  176.6070  139.0780 O   0  0  0  0  0  1  0  0  0  0  0  0
  191.9860  177.5540  141.0240 C   0  0  0  0  0  2  0  0  0  0  0  0
  191.6490  178.2500  143.2210 C   0  0  0  0  0  1  0  0  0  0  0  0
  192.0080  177.1050  142.4040 N   0  0  0  0  0  2  0  0  0  0  0  0
  1  7  1  0  0  0  0
  2  8  1  0  0  0  0
  4  9  1  0  0  0  0
  5  4  2  0  0  0  0
  6  1  1  0  0  0  0
  6  2  2  0  0  0  0
  7 12  1  0  0  0  0
  8  3  1  0  0  0  0
  8 21  1  6  0  0  0
 10  5  1  0  0  0  0
 11  7  2  0  0  0  0
 11  5  1  0  0  0  0
 12  3  1  0  0  0  0
 12  9  2  0  0  0  0
 13 18  1  0  0  0  0
 14  6  1  0  0  0  0
 15 14  1  0  0  0  0
 16 15  1  0  0  0  0
 17 13  1  0  0  0  0
 17 16  1  0  0  0  0
 18 14  1  0  0  0  0
 19 20  1  0  0  0  0
 21 19  1  0  0  0  0
 21 20  1  0  0  0  0
 22 23  1  0  0  0  0
 22  2  1  0  0  0  0
 23 24  1  6  0  0  0
 23 25  1  0  0  0  0
 25 27  1  0  0  0  0
 27 26  1  0  0  0  0
M  END
>  <MODEL>
7

>  <REMARK>
 VINA RESULT:      -6.3      3.772      6.551
  Name = 
  6 active torsions:
  status: ('A' for Active; 'I' for Inactive)
    1  A    between atoms: C_2  and  O_6
    2  A    between atoms: C_5  and  O_6
    3  A    between atoms: C_5  and  C_17
    4  A    between atoms: N_9  and  C_15
    5  A    between atoms: C_14  and  C_19
    6  A    between atoms: N_16  and  C_17
                            x       y       z     vdW  Elec       q    Type
                         _______ _______ _______ _____ _____    ______ ____

>  <TORSDO>
F 6

$$$$
=
 OpenBabel11052413523D

 27 30  0  0  1  0  0  0  0  0999 V2000
  185.8650  178.7260  140.2980 N   0  0  0  0  0  2  0  0  0  0  0  0
  184.6160  177.9820  138.3070 C   0  0  0  0  0  0  0  0  0  0  0  0
  183.0720  177.5070  140.1910 C   0  0  0  0  0  2  0  0  0  0  0  0
  183.3030  178.8820  143.6840 C   0  0  0  0  0  3  0  0  0  0  0  0
  184.5780  179.4440  143.7090 C   0  0  0  0  0  0  0  0  0  0  0  0
  185.7850  178.2530  138.9400 C   0  0  0  0  0  0  0  0  0  0  0  0
  184.9450  178.7580  141.4020 C   0  0  0  0  0  0  0  0  0  0  0  0
  183.2830  178.2830  138.9010 C   0  0  1  0  0  3  0  0  0  0  0  0
  182.8440  178.2580  142.5230 C   0  0  0  0  0  3  0  0  0  0  0  0
  185.0300  180.0500  144.8330 F   0  0  0  0  0  0  0  0  0  0  0  0
  185.3910  179.3780  142.5770 C   0  0  0  0  0  3  0  0  0  0  0  0
  183.6490  178.1930  141.3810 C   0  0  0  0  0  0  0  0  0  0  0  0
  189.3100  177.2660  137.8760 C   0  0  0  0  0  2  0  0  0  0  0  0
  187.0230  178.1650  138.2240 N   0  0  0  0  0  0  0  0  0  0  0  0
  187.0550  178.6430  136.8370 C   0  0  0  0  0  2  0  0  0  0  0  0
  188.3330  178.2110  136.1210 C   0  0  0  0  0  2  0  0  0  0  0  0
  189.4300  178.3370  136.9820 O   0  0  0  0  0  0  0  0  0  0  0  0
  188.1870  177.5450  138.8750 C   0  0  0  0  0  2  0  0  0  0  0  0
  181.9300  180.1460  137.9630 C   0  0  0  0  0  2  0  0  0  0  0  0
  181.5470  179.9850  139.4190 C   0  0  0  0  0  2  0  0  0  0  0  0
  182.9860  179.7790  138.9880 C   0  0  0  0  0  3  0  0  0  0  0  0
  184.5830  177.4010  137.0310 O   0  0  0  0  0  0  0  0  0  0  0  0
  183.4590  176.6900  136.5190 C   0  0  1  0  0  3  0  0  0  0  0  0
  183.1370  177.1710  135.2500 O   0  0  0  0  0  1  0  0  0  0  0  0
  183.7860  175.2120  136.4270 C   0  0  0  0  0  2  0  0  0  0  0  0
  181.9050  174.8900  137.7620 C   0  0  0  0  0  1  0  0  0  0  0  0
  183.3010  174.5250  137.6100 N   0  0  0  0  0  2  0  0  0  0  0  0
  1  7  1  0  0  0  0
  2  8  1  0  0  0  0
  2  6  2  0  0  0  0
  3 12  1  0  0  0  0
  4  5  1  0  0  0  0
  5 10  1  0  0  0  0
  6  1  1  0  0  0  0
  7 11  1  0  0  0  0
  8 21  1  1  0  0  0
  8  3  1  0  0  0  0
  9  4  2  0  0  0  0
 11  5  2  0  0  0  0
 12  7  2  0  0  0  0
 12  9  1  0  0  0  0
 13 18  1  0  0  0  0
 14 18  1  0  0  0  0
 14  6  1  0  0  0  0
 15 14  1  0  0  0  0
 16 15  1  0  0  0  0
 16 17  1  0  0  0  0
 17 13  1  0  0  0  0
 19 21  1  0  0  0  0
 19 20  1  0  0  0  0
 21 20  1  0  0  0  0
 22  2  1  0  0  0  0
 23 24  1  6  0  0  0
 23 22  1  0  0  0  0
 25 23  1  0  0  0  0
 25 27  1  0  0  0  0
 27 26  1  0  0  0  0
M  END
>  <MODEL>
8

>  <REMARK>
 VINA RESULT:      -6.3      5.677      9.234
  Name = 
  6 active torsions:
  status: ('A' for Active; 'I' for Inactive)
    1  A    between atoms: C_2  and  O_6
    2  A    between atoms: C_5  and  O_6
    3  A    between atoms: C_5  and  C_17
    4  A    between atoms: N_9  and  C_15
    5  A    between atoms: C_14  and  C_19
    6  A    between atoms: N_16  and  C_17
                            x       y       z     vdW  Elec       q    Type
                         _______ _______ _______ _____ _____    ______ ____

>  <TORSDO>
F 6

$$$$
=
 OpenBabel11052413523D

 27 30  0  0  1  0  0  0  0  0999 V2000
  188.7740  177.7900  143.8870 N   0  0  0  0  0  2  0  0  0  0  0  0
  186.5690  177.7690  142.7850 C   0  0  0  0  0  0  0  0  0  0  0  0
  186.0930  176.9740  145.0870 C   0  0  0  0  0  2  0  0  0  0  0  0
  188.3410  177.3020  148.0840 C   0  0  0  0  0  3  0  0  0  0  0  0
  189.5540  177.6870  147.5180 C   0  0  0  0  0  0  0  0  0  0  0  0
  187.9240  177.7210  142.7260 C   0  0  0  0  0  0  0  0  0  0  0  0
  188.5580  177.6230  145.2980 C   0  0  0  0  0  0  0  0  0  0  0  0
  185.8200  178.0450  144.0430 C   0  0  1  0  0  3  0  0  0  0  0  0
  187.2340  177.0780  147.2650 C   0  0  0  0  0  3  0  0  0  0  0  0
  190.6330  177.9060  148.3080 F   0  0  0  0  0  0  0  0  0  0  0  0
  189.6600  177.8420  146.1350 C   0  0  0  0  0  3  0  0  0  0  0  0
  187.3280  177.2370  145.8780 C   0  0  0  0  0  0  0  0  0  0  0  0
  189.0930  178.6260  139.2130 C   0  0  0  0  0  2  0  0  0  0  0  0
  188.5840  177.6920  141.4550 N   0  0  0  0  0  0  0  0  0  0  0  0
  189.7630  176.8310  141.3080 C   0  0  0  0  0  2  0  0  0  0  0  0
  190.5240  177.1330  140.0180 C   0  0  0  0  0  2  0  0  0  0  0  0
  189.6220  177.3520  138.9700 O   0  0  0  0  0  0  0  0  0  0  0  0
  188.1020  178.5660  140.3750 C   0  0  0  0  0  2  0  0  0  0  0  0
  184.6280  180.1780  144.5020 C   0  0  0  0  0  2  0  0  0  0  0  0
  185.1860  179.6690  145.8150 C   0  0  0  0  0  2  0  0  0  0  0  0
  185.9760  179.4840  144.5340 C   0  0  0  0  0  3  0  0  0  0  0  0
  185.7710  177.5680  141.6490 O   0  0  0  0  0  0  0  0  0  0  0  0
  184.6660  178.3990  141.3060 C   0  0  1  0  0  3  0  0  0  0  0  0
  185.1070  179.7070  141.1020 O   0  0  0  0  0  1  0  0  0  0  0  0
  184.0140  177.8870  140.0370 C   0  0  0  0  0  2  0  0  0  0  0  0
  185.1240  177.8230  137.9910 C   0  0  0  0  0  1  0  0  0  0  0  0
  184.4230  178.7020  138.9080 N   0  0  0  0  0  2  0  0  0  0  0  0
  1  7  1  0  0  0  0
  2  8  1  0  0  0  0
  3 12  1  0  0  0  0
  5  4  1  0  0  0  0
  5 10  1  0  0  0  0
  6  2  2  0  0  0  0
  6  1  1  0  0  0  0
  7 12  2  0  0  0  0
  7 11  1  0  0  0  0
  8 21  1  1  0  0  0
  8  3  1  0  0  0  0
  9  4  2  0  0  0  0
 11  5  2  0  0  0  0
 12  9  1  0  0  0  0
 13 18  1  0  0  0  0
 14  6  1  0  0  0  0
 15 14  1  0  0  0  0
 16 15  1  0  0  0  0
 17 13  1  0  0  0  0
 17 16  1  0  0  0  0
 18 14  1  0  0  0  0
 19 21  1  0  0  0  0
 19 20  1  0  0  0  0
 21 20  1  0  0  0  0
 22  2  1  0  0  0  0
 23 24  1  6  0  0  0
 23 22  1  0  0  0  0
 25 23  1  0  0  0  0
 26 27  1  0  0  0  0
 27 25  1  0  0  0  0
M  END
>  <MODEL>
9

>  <REMARK>
 VINA RESULT:      -6.3      3.380      7.167
  Name = 
  6 active torsions:
  status: ('A' for Active; 'I' for Inactive)
    1  A    between atoms: C_2  and  O_6
    2  A    between atoms: C_5  and  O_6
    3  A    between atoms: C_5  and  C_17
    4  A    between atoms: N_9  and  C_15
    5  A    between atoms: C_14  and  C_19
    6  A    between atoms: N_16  and  C_17
                            x       y       z     vdW  Elec       q    Type
                         _______ _______ _______ _____ _____    ______ ____

>  <TORSDO>
F 6

$$$$
