=
 OpenBabel11052415473D

 34 39  0  0  1  0  0  0  0  0999 V2000
  185.7340  178.6790  140.7950 C   0  0  0  0  0  0  0  0  0  0  0  0
  188.7560  178.1060  138.7100 C   0  0  0  0  0  3  0  0  0  0  0  0
  186.5010  178.6110  138.1370 N   0  0  0  0  0  0  0  0  0  0  0  0
  184.2180  178.6020  142.8350 C   0  0  0  0  0  0  0  0  0  0  0  0
  185.3960  178.7740  142.2310 C   0  0  0  0  0  3  0  0  0  0  0  0
  182.6250  178.4960  140.9150 C   0  0  0  0  0  3  0  0  0  0  0  0
  182.7130  180.0360  139.0230 C   0  0  0  0  0  1  0  0  0  0  0  0
  182.9750  178.2040  142.1620 C   0  0  0  0  0  3  0  0  0  0  0  0
  185.2370  178.8760  138.4630 N   0  0  0  0  0  0  0  0  0  0  0  0
  184.8070  178.9170  139.7560 C   0  0  0  0  0  0  0  0  0  0  0  0
  183.4330  179.2490  140.0100 N   0  0  0  0  0  0  0  0  0  0  0  0
  189.7360  177.8700  139.6780 C   0  0  0  0  0  0  0  0  0  0  0  0
  189.3790  177.9080  141.0350 C   0  0  0  0  0  3  0  0  0  0  0  0
  187.4370  178.3760  139.0840 C   0  0  0  0  0  0  0  0  0  0  0  0
  188.0620  178.1760  141.4150 C   0  0  0  0  0  3  0  0  0  0  0  0
  187.0740  178.4140  140.4440 C   0  0  0  0  0  0  0  0  0  0  0  0
  184.1950  178.6630  144.3260 C   0  0  0  0  0  2  0  0  0  0  0  0
  187.1960  178.7200  146.6450 C   0  0  0  0  0  3  0  0  0  0  0  0
  186.4560  177.5940  144.1830 C   0  0  0  0  0  3  0  0  0  0  0  0
  190.2860  176.8800  145.7590 C   0  0  0  0  0  0  0  0  0  0  0  0
  189.3790  177.6860  146.4610 C   0  0  0  0  0  3  0  0  0  0  0  0
  188.1030  177.9230  145.9430 C   0  0  0  0  0  0  0  0  0  0  0  0
  188.6420  176.5670  143.9970 C   0  0  0  0  0  3  0  0  0  0  0  0
  187.7320  177.3560  144.7020 C   0  0  0  0  0  0  0  0  0  0  0  0
  189.9170  176.3340  144.5210 C   0  0  0  0  0  3  0  0  0  0  0  0
  185.5490  178.3880  144.8930 C   0  0  0  0  0  0  0  0  0  0  0  0
  185.9200  178.9530  146.1200 C   0  0  0  0  0  3  0  0  0  0  0  0
  191.6660  176.6560  146.2930 C   0  0  2  0  0  3  0  0  0  0  0  0
  191.6550  175.6440  147.3740 C   0  0  0  0  0  2  0  0  0  0  0  0
  191.7130  177.0190  147.6540 O   0  0  0  0  0  0  0  0  0  0  0  0
  191.0460  177.6030  139.2480 O   0  0  0  0  0  0  0  0  0  0  0  0
  190.8020  175.3750  138.6210 O   0  0  0  0  0  0  0  0  0  0  0  0
  192.8020  176.4390  137.9230 C   0  0  0  0  0  1  0  0  0  0  0  0
  191.4880  176.4310  138.6160 C   0  0  0  0  0  0  0  0  0  0  0  0
  1  5  1  0  0  0  0
  2 14  2  0  0  0  0
  2 12  1  0  0  0  0
  3  9  2  0  0  0  0
  3 14  1  0  0  0  0
  4 17  1  0  0  0  0
  5  4  2  0  0  0  0
  6  8  2  0  0  0  0
  7 11  1  0  0  0  0
  8  4  1  0  0  0  0
  9 10  1  0  0  0  0
 10 11  1  0  0  0  0
 10  1  2  0  0  0  0
 11  6  1  0  0  0  0
 12 13  2  0  0  0  0
 13 15  1  0  0  0  0
 14 16  1  0  0  0  0
 16  1  1  0  0  0  0
 16 15  2  0  0  0  0
 17 26  1  0  0  0  0
 19 24  2  0  0  0  0
 19 26  1  0  0  0  0
 20 21  2  0  0  0  0
 22 21  1  0  0  0  0
 22 18  2  0  0  0  0
 23 25  2  0  0  0  0
 23 24  1  0  0  0  0
 24 22  1  0  0  0  0
 25 20  1  0  0  0  0
 26 27  2  0  0  0  0
 27 18  1  0  0  0  0
 28 20  1  1  0  0  0
 28 29  1  0  0  0  0
 28 30  1  0  0  0  0
 29 30  1  0  0  0  0
 31 12  1  0  0  0  0
 33 34  1  0  0  0  0
 34 32  2  0  0  0  0
 34 31  1  0  0  0  0
M  END
>  <MODEL>
1

>  <REMARK>
 VINA RESULT:     -11.2      0.000      0.000
  Name = 
  5 active torsions:
  status: ('A' for Active; 'I' for Inactive)
    1  A    between atoms: C_7  and  C_11
    2  A    between atoms: C_8  and  C_18
    3  A    between atoms: C_18  and  C_30
    4  A    between atoms: O_23  and  C_24
    5  A    between atoms: O_23  and  C_25
                            x       y       z     vdW  Elec       q    Type
                         _______ _______ _______ _____ _____    ______ ____

>  <TORSDO>
F 5

$$$$
=
 OpenBabel11052415473D

 34 39  0  0  1  0  0  0  0  0999 V2000
  183.5370  178.9000  141.8200 C   0  0  0  0  0  0  0  0  0  0  0  0
  185.2490  178.3680  138.5650 C   0  0  0  0  0  3  0  0  0  0  0  0
  182.9580  178.7030  139.1220 N   0  0  0  0  0  0  0  0  0  0  0  0
  183.1800  178.8670  144.3380 C   0  0  0  0  0  0  0  0  0  0  0  0
  183.9120  179.0680  143.2400 C   0  0  0  0  0  3  0  0  0  0  0  0
  180.8830  178.5440  143.4130 C   0  0  0  0  0  3  0  0  0  0  0  0
  179.9370  179.9600  141.6640 C   0  0  0  0  0  1  0  0  0  0  0  0
  181.8030  178.3550  144.3510 C   0  0  0  0  0  3  0  0  0  0  0  0
  181.9820  178.9140  140.0030 N   0  0  0  0  0  0  0  0  0  0  0  0
  182.2130  179.0140  141.3430 C   0  0  0  0  0  0  0  0  0  0  0  0
  181.1010  179.2820  142.2110 N   0  0  0  0  0  0  0  0  0  0  0  0
  186.5860  178.2530  138.9550 C   0  0  0  0  0  0  0  0  0  0  0  0
  186.9120  178.3580  140.3160 C   0  0  0  0  0  3  0  0  0  0  0  0
  184.2460  178.5850  139.5150 C   0  0  0  0  0  0  0  0  0  0  0  0
  185.9140  178.5740  141.2700 C   0  0  0  0  0  3  0  0  0  0  0  0
  184.5690  178.6900  140.8800 C   0  0  0  0  0  0  0  0  0  0  0  0
  183.8600  179.0250  145.6570 C   0  0  0  0  0  2  0  0  0  0  0  0
  187.0450  177.4100  144.3790 C   0  0  0  0  0  3  0  0  0  0  0  0
  186.1010  178.6510  146.7120 C   0  0  0  0  0  3  0  0  0  0  0  0
  190.0360  177.1830  146.5510 C   0  0  0  0  0  0  0  0  0  0  0  0
  189.1920  177.0480  145.4400 C   0  0  0  0  0  3  0  0  0  0  0  0
  187.8840  177.5380  145.4880 C   0  0  0  0  0  0  0  0  0  0  0  0
  188.2460  178.2810  147.7750 C   0  0  0  0  0  3  0  0  0  0  0  0
  187.4090  178.1620  146.6640 C   0  0  0  0  0  0  0  0  0  0  0  0
  189.5540  177.7890  147.7200 C   0  0  0  0  0  3  0  0  0  0  0  0
  185.2660  178.5260  145.5960 C   0  0  0  0  0  0  0  0  0  0  0  0
  185.7360  177.9020  144.4330 C   0  0  0  0  0  3  0  0  0  0  0  0
  191.4250  176.6270  146.5160 C   0  0  2  0  0  3  0  0  0  0  0  0
  191.5700  175.5120  147.4800 C   0  0  0  0  0  2  0  0  0  0  0  0
  192.0380  176.8040  147.7730 O   0  0  0  0  0  0  0  0  0  0  0  0
  187.5530  178.0350  137.9600 O   0  0  0  0  0  0  0  0  0  0  0  0
  189.0440  179.7670  137.5220 O   0  0  0  0  0  0  0  0  0  0  0  0
  189.9940  177.7650  138.3610 C   0  0  0  0  0  1  0  0  0  0  0  0
  188.8400  178.5900  137.9200 C   0  0  0  0  0  0  0  0  0  0  0  0
  1  5  1  0  0  0  0
  2 12  2  0  0  0  0
  2 14  1  0  0  0  0
  3 14  2  0  0  0  0
  3  9  1  0  0  0  0
  4  8  1  0  0  0  0
  4 17  1  0  0  0  0
  5  4  2  0  0  0  0
  6  8  2  0  0  0  0
  7 11  1  0  0  0  0
  9 10  2  0  0  0  0
 10  1  1  0  0  0  0
 10 11  1  0  0  0  0
 11  6  1  0  0  0  0
 12 13  1  0  0  0  0
 13 15  2  0  0  0  0
 14 16  1  0  0  0  0
 16 15  1  0  0  0  0
 16  1  2  0  0  0  0
 18 27  2  0  0  0  0
 18 22  1  0  0  0  0
 20 25  1  0  0  0  0
 21 22  1  0  0  0  0
 21 20  2  0  0  0  0
 22 24  2  0  0  0  0
 24 19  1  0  0  0  0
 24 23  1  0  0  0  0
 25 23  2  0  0  0  0
 26 17  1  0  0  0  0
 26 19  2  0  0  0  0
 27 26  1  0  0  0  0
 28 20  1  1  0  0  0
 28 29  1  0  0  0  0
 28 30  1  0  0  0  0
 29 30  1  0  0  0  0
 31 12  1  0  0  0  0
 32 34  2  0  0  0  0
 34 31  1  0  0  0  0
 34 33  1  0  0  0  0
M  END
>  <MODEL>
2

>  <REMARK>
 VINA RESULT:     -11.0      1.678      2.757
  Name = 
  5 active torsions:
  status: ('A' for Active; 'I' for Inactive)
    1  A    between atoms: C_7  and  C_11
    2  A    between atoms: C_8  and  C_18
    3  A    between atoms: C_18  and  C_30
    4  A    between atoms: O_23  and  C_24
    5  A    between atoms: O_23  and  C_25
                            x       y       z     vdW  Elec       q    Type
                         _______ _______ _______ _____ _____    ______ ____

>  <TORSDO>
F 5

$$$$
=
 OpenBabel11052415473D

 34 39  0  0  1  0  0  0  0  0999 V2000
  189.3180  177.3360  144.5730 C   0  0  0  0  0  0  0  0  0  0  0  0
  190.9220  177.2860  141.2210 C   0  0  0  0  0  3  0  0  0  0  0  0
  191.7830  176.8740  143.4030 N   0  0  0  0  0  0  0  0  0  0  0  0
  187.6050  177.8940  146.3670 C   0  0  0  0  0  0  0  0  0  0  0  0
  187.9640  177.5230  145.1370 C   0  0  0  0  0  3  0  0  0  0  0  0
  189.7590  177.7890  147.6240 C   0  0  0  0  0  3  0  0  0  0  0  0
  191.3380  175.9390  147.4150 C   0  0  0  0  0  1  0  0  0  0  0  0
  188.5340  178.2670  147.4410 C   0  0  0  0  0  3  0  0  0  0  0  0
  191.6380  176.7740  144.7230 N   0  0  0  0  0  0  0  0  0  0  0  0
  190.4470  176.9960  145.3490 C   0  0  0  0  0  0  0  0  0  0  0  0
  190.3810  176.8260  146.7740 N   0  0  0  0  0  0  0  0  0  0  0  0
  189.8520  177.6090  140.3820 C   0  0  0  0  0  0  0  0  0  0  0  0
  188.5880  177.8400  140.9460 C   0  0  0  0  0  3  0  0  0  0  0  0
  190.7400  177.1940  142.6050 C   0  0  0  0  0  0  0  0  0  0  0  0
  188.3990  177.7500  142.3280 C   0  0  0  0  0  3  0  0  0  0  0  0
  189.4740  177.4260  143.1740 C   0  0  0  0  0  0  0  0  0  0  0  0
  186.1490  178.0970  146.6260 C   0  0  0  0  0  2  0  0  0  0  0  0
  185.3490  178.1720  142.9200 C   0  0  0  0  0  3  0  0  0  0  0  0
  184.0290  178.5420  145.3680 C   0  0  0  0  0  3  0  0  0  0  0  0
  181.9180  178.9410  141.7560 C   0  0  0  0  0  0  0  0  0  0  0  0
  183.2840  178.6280  141.7370 C   0  0  0  0  0  3  0  0  0  0  0  0
  183.9890  178.4910  142.9360 C   0  0  0  0  0  0  0  0  0  0  0  0
  181.9670  179.0060  144.1840 C   0  0  0  0  0  3  0  0  0  0  0  0
  183.3240  178.6780  144.1690 C   0  0  0  0  0  0  0  0  0  0  0  0
  181.2670  179.1410  142.9810 C   0  0  0  0  0  3  0  0  0  0  0  0
  185.3900  178.2170  145.3460 C   0  0  0  0  0  0  0  0  0  0  0  0
  186.0490  178.0370  144.1240 C   0  0  0  0  0  3  0  0  0  0  0  0
  181.1690  179.1250  140.4730 C   0  0  2  0  0  3  0  0  0  0  0  0
  180.6860  177.8260  139.9530 C   0  0  0  0  0  2  0  0  0  0  0  0
  181.8350  178.4450  139.4330 O   0  0  0  0  0  0  0  0  0  0  0  0
  190.0900  177.6890  139.0010 O   0  0  0  0  0  0  0  0  0  0  0  0
  189.0430  179.4350  137.8750 O   0  0  0  0  0  0  0  0  0  0  0  0
  188.4540  177.2480  137.1790 C   0  0  0  0  0  1  0  0  0  0  0  0
  189.2090  178.1970  138.0360 C   0  0  0  0  0  0  0  0  0  0  0  0
  1  5  1  0  0  0  0
  1 10  1  0  0  0  0
  2 14  1  0  0  0  0
  3  9  1  0  0  0  0
  4 17  1  0  0  0  0
  4  8  1  0  0  0  0
  5  4  2  0  0  0  0
  8  6  2  0  0  0  0
  9 10  2  0  0  0  0
 10 11  1  0  0  0  0
 11  7  1  0  0  0  0
 11  6  1  0  0  0  0
 12 13  1  0  0  0  0
 12  2  2  0  0  0  0
 13 15  2  0  0  0  0
 14 16  1  0  0  0  0
 14  3  2  0  0  0  0
 15 16  1  0  0  0  0
 16  1  2  0  0  0  0
 18 22  2  0  0  0  0
 18 27  1  0  0  0  0
 20 25  1  0  0  0  0
 21 20  2  0  0  0  0
 21 22  1  0  0  0  0
 22 24  1  0  0  0  0
 24 23  1  0  0  0  0
 24 19  2  0  0  0  0
 25 23  2  0  0  0  0
 26 19  1  0  0  0  0
 26 17  1  0  0  0  0
 27 26  2  0  0  0  0
 28 20  1  1  0  0  0
 29 28  1  0  0  0  0
 30 29  1  0  0  0  0
 30 28  1  0  0  0  0
 31 12  1  0  0  0  0
 32 34  2  0  0  0  0
 33 34  1  0  0  0  0
 34 31  1  0  0  0  0
M  END
>  <MODEL>
3

>  <REMARK>
 VINA RESULT:     -10.6      3.281      7.011
  Name = 
  5 active torsions:
  status: ('A' for Active; 'I' for Inactive)
    1  A    between atoms: C_7  and  C_11
    2  A    between atoms: C_8  and  C_18
    3  A    between atoms: C_18  and  C_30
    4  A    between atoms: O_23  and  C_24
    5  A    between atoms: O_23  and  C_25
                            x       y       z     vdW  Elec       q    Type
                         _______ _______ _______ _____ _____    ______ ____

>  <TORSDO>
F 5

$$$$
=
 OpenBabel11052415473D

 34 39  0  0  1  0  0  0  0  0999 V2000
  186.9620  178.0400  145.1920 C   0  0  0  0  0  0  0  0  0  0  0  0
  183.3840  178.7310  144.4640 C   0  0  0  0  0  3  0  0  0  0  0  0
  184.5890  178.5710  146.5120 N   0  0  0  0  0  0  0  0  0  0  0  0
  189.3370  177.2180  144.8100 C   0  0  0  0  0  0  0  0  0  0  0  0
  188.2140  177.8310  144.4330 C   0  0  0  0  0  3  0  0  0  0  0  0
  188.9830  176.8730  147.2570 C   0  0  0  0  0  3  0  0  0  0  0  0
  188.0870  178.6000  148.7320 C   0  0  0  0  0  1  0  0  0  0  0  0
  189.5390  176.5420  146.0980 C   0  0  0  0  0  3  0  0  0  0  0  0
  185.7110  178.3790  147.2030 N   0  0  0  0  0  0  0  0  0  0  0  0
  186.9050  178.1090  146.6010 C   0  0  0  0  0  0  0  0  0  0  0  0
  188.0680  177.9550  147.4290 N   0  0  0  0  0  0  0  0  0  0  0  0
  183.3580  178.6890  143.0670 C   0  0  0  0  0  0  0  0  0  0  0  0
  184.5480  178.4310  142.3700 C   0  0  0  0  0  3  0  0  0  0  0  0
  184.5770  178.5190  145.1610 C   0  0  0  0  0  0  0  0  0  0  0  0
  185.7440  178.2180  143.0610 C   0  0  0  0  0  3  0  0  0  0  0  0
  185.7730  178.2600  144.4650 C   0  0  0  0  0  0  0  0  0  0  0  0
  190.4150  177.0700  143.7880 C   0  0  0  0  0  2  0  0  0  0  0  0
  188.4630  178.7370  140.9960 C   0  0  0  0  0  3  0  0  0  0  0  0
  190.3610  176.6940  141.3120 C   0  0  0  0  0  3  0  0  0  0  0  0
  188.8810  177.6220  137.4880 C   0  0  0  0  0  0  0  0  0  0  0  0
  188.4220  178.3300  138.6080 C   0  0  0  0  0  3  0  0  0  0  0  0
  188.9140  178.0270  139.8800 C   0  0  0  0  0  0  0  0  0  0  0  0
  190.3130  176.2830  138.9240 C   0  0  0  0  0  3  0  0  0  0  0  0
  189.8700  176.9980  140.0390 C   0  0  0  0  0  0  0  0  0  0  0  0
  189.8180  176.5910  137.6540 C   0  0  0  0  0  3  0  0  0  0  0  0
  189.9090  177.4120  142.4250 C   0  0  0  0  0  0  0  0  0  0  0  0
  188.9590  178.4280  142.2670 C   0  0  0  0  0  3  0  0  0  0  0  0
  188.3290  177.9190  136.1300 C   0  0  2  0  0  3  0  0  0  0  0  0
  187.1360  177.0850  135.8520 C   0  0  0  0  0  2  0  0  0  0  0  0
  188.3990  176.7620  135.3270 O   0  0  0  0  0  0  0  0  0  0  0  0
  182.1330  178.9080  142.4180 O   0  0  0  0  0  0  0  0  0  0  0  0
  180.4960  180.4590  142.9930 O   0  0  0  0  0  0  0  0  0  0  0  0
  180.1310  178.2380  143.7360 C   0  0  0  0  0  1  0  0  0  0  0  0
  180.9250  179.2750  143.0290 C   0  0  0  0  0  0  0  0  0  0  0  0
  1 10  1  0  0  0  0
  2 14  1  0  0  0  0
  3  9  1  0  0  0  0
  4  8  1  0  0  0  0
  5  4  2  0  0  0  0
  5  1  1  0  0  0  0
  6 11  1  0  0  0  0
  8  6  2  0  0  0  0
 10  9  2  0  0  0  0
 10 11  1  0  0  0  0
 11  7  1  0  0  0  0
 12  2  2  0  0  0  0
 13 15  2  0  0  0  0
 13 12  1  0  0  0  0
 14  3  2  0  0  0  0
 15 16  1  0  0  0  0
 16 14  1  0  0  0  0
 16  1  2  0  0  0  0
 17  4  1  0  0  0  0
 18 27  1  0  0  0  0
 19 26  1  0  0  0  0
 20 25  1  0  0  0  0
 20 21  2  0  0  0  0
 21 22  1  0  0  0  0
 22 24  1  0  0  0  0
 22 18  2  0  0  0  0
 23 24  1  0  0  0  0
 24 19  2  0  0  0  0
 25 23  2  0  0  0  0
 26 17  1  0  0  0  0
 27 26  2  0  0  0  0
 28 20  1  1  0  0  0
 29 28  1  0  0  0  0
 30 29  1  0  0  0  0
 30 28  1  0  0  0  0
 31 34  1  0  0  0  0
 31 12  1  0  0  0  0
 32 34  2  0  0  0  0
 34 33  1  0  0  0  0
M  END
>  <MODEL>
4

>  <REMARK>
 VINA RESULT:     -10.4      3.800      8.164
  Name = 
  5 active torsions:
  status: ('A' for Active; 'I' for Inactive)
    1  A    between atoms: C_7  and  C_11
    2  A    between atoms: C_8  and  C_18
    3  A    between atoms: C_18  and  C_30
    4  A    between atoms: O_23  and  C_24
    5  A    between atoms: O_23  and  C_25
                            x       y       z     vdW  Elec       q    Type
                         _______ _______ _______ _____ _____    ______ ____

>  <TORSDO>
F 5

$$$$
=
 OpenBabel11052415473D

 34 39  0  0  1  0  0  0  0  0999 V2000
  187.9010  177.6740  144.0700 C   0  0  0  0  0  0  0  0  0  0  0  0
  191.0730  177.1660  142.2020 C   0  0  0  0  0  3  0  0  0  0  0  0
  190.5800  177.1600  144.5320 N   0  0  0  0  0  0  0  0  0  0  0  0
  185.5120  178.4230  144.5160 C   0  0  0  0  0  0  0  0  0  0  0  0
  186.4690  177.8770  143.7630 C   0  0  0  0  0  3  0  0  0  0  0  0
  186.6210  178.6390  146.7430 C   0  0  0  0  0  3  0  0  0  0  0  0
  187.9720  176.8660  147.7380 C   0  0  0  0  0  1  0  0  0  0  0  0
  185.7190  179.0140  145.8450 C   0  0  0  0  0  3  0  0  0  0  0  0
  189.7330  177.2680  145.5530 N   0  0  0  0  0  0  0  0  0  0  0  0
  188.4050  177.5250  145.3810 C   0  0  0  0  0  0  0  0  0  0  0  0
  187.5630  177.5860  146.5430 N   0  0  0  0  0  0  0  0  0  0  0  0
  190.6510  177.2900  140.8750 C   0  0  0  0  0  0  0  0  0  0  0  0
  189.2960  177.5420  140.6100 C   0  0  0  0  0  3  0  0  0  0  0  0
  190.1590  177.2900  143.2530 C   0  0  0  0  0  0  0  0  0  0  0  0
  188.3790  177.6670  141.6560 C   0  0  0  0  0  3  0  0  0  0  0  0
  188.8000  177.5430  142.9910 C   0  0  0  0  0  0  0  0  0  0  0  0
  184.1620  178.5880  143.9010 C   0  0  0  0  0  2  0  0  0  0  0  0
  185.2220  179.1020  140.2950 C   0  0  0  0  0  3  0  0  0  0  0  0
  183.3420  177.6070  141.7460 C   0  0  0  0  0  3  0  0  0  0  0  0
  183.5070  177.2900  137.5580 C   0  0  0  0  0  0  0  0  0  0  0  0
  184.3880  178.1470  138.2310 C   0  0  0  0  0  3  0  0  0  0  0  0
  184.3400  178.2530  139.6230 C   0  0  0  0  0  0  0  0  0  0  0  0
  182.5040  176.6590  139.6800 C   0  0  0  0  0  3  0  0  0  0  0  0
  183.3920  177.5000  140.3530 C   0  0  0  0  0  0  0  0  0  0  0  0
  182.5580  176.5570  138.2870 C   0  0  0  0  0  3  0  0  0  0  0  0
  184.2330  178.4540  142.4150 C   0  0  0  0  0  0  0  0  0  0  0  0
  185.1680  179.2040  141.6900 C   0  0  0  0  0  3  0  0  0  0  0  0
  183.5320  177.2030  136.0650 C   0  0  2  0  0  3  0  0  0  0  0  0
  184.2940  176.0140  135.6180 C   0  0  0  0  0  2  0  0  0  0  0  0
  184.8610  177.2990  135.6060 O   0  0  0  0  0  0  0  0  0  0  0  0
  191.6090  177.1580  139.8580 O   0  0  0  0  0  0  0  0  0  0  0  0
  190.6990  175.3480  138.7120 O   0  0  0  0  0  0  0  0  0  0  0  0
  192.4870  176.4690  137.6330 C   0  0  0  0  0  1  0  0  0  0  0  0
  191.5410  176.2840  138.7630 C   0  0  0  0  0  0  0  0  0  0  0  0
  1 10  1  0  0  0  0
  2 14  1  0  0  0  0
  3  9  1  0  0  0  0
  4  8  1  0  0  0  0
  5  1  1  0  0  0  0
  5  4  2  0  0  0  0
  8  6  2  0  0  0  0
 10  9  2  0  0  0  0
 10 11  1  0  0  0  0
 11  6  1  0  0  0  0
 11  7  1  0  0  0  0
 12  2  2  0  0  0  0
 13 12  1  0  0  0  0
 13 15  2  0  0  0  0
 14  3  2  0  0  0  0
 15 16  1  0  0  0  0
 16 14  1  0  0  0  0
 16  1  2  0  0  0  0
 17  4  1  0  0  0  0
 18 27  1  0  0  0  0
 19 26  1  0  0  0  0
 20 21  2  0  0  0  0
 20 25  1  0  0  0  0
 21 22  1  0  0  0  0
 22 18  2  0  0  0  0
 22 24  1  0  0  0  0
 23 24  1  0  0  0  0
 24 19  2  0  0  0  0
 25 23  2  0  0  0  0
 26 17  1  0  0  0  0
 27 26  2  0  0  0  0
 28 20  1  1  0  0  0
 29 28  1  0  0  0  0
 30 29  1  0  0  0  0
 30 28  1  0  0  0  0
 31 12  1  0  0  0  0
 32 34  2  0  0  0  0
 33 34  1  0  0  0  0
 34 31  1  0  0  0  0
M  END
>  <MODEL>
5

>  <REMARK>
 VINA RESULT:     -10.2      3.128      6.867
  Name = 
  5 active torsions:
  status: ('A' for Active; 'I' for Inactive)
    1  A    between atoms: C_7  and  C_11
    2  A    between atoms: C_8  and  C_18
    3  A    between atoms: C_18  and  C_30
    4  A    between atoms: O_23  and  C_24
    5  A    between atoms: O_23  and  C_25
                            x       y       z     vdW  Elec       q    Type
                         _______ _______ _______ _____ _____    ______ ____

>  <TORSDO>
F 5

$$$$
=
 OpenBabel11052415473D

 34 39  0  0  1  0  0  0  0  0999 V2000
  187.7460  177.6540  144.5630 C   0  0  0  0  0  0  0  0  0  0  0  0
  190.6970  176.8620  142.4480 C   0  0  0  0  0  3  0  0  0  0  0  0
  190.3980  176.9040  144.8100 N   0  0  0  0  0  0  0  0  0  0  0  0
  185.4780  178.6150  145.1960 C   0  0  0  0  0  0  0  0  0  0  0  0
  186.3180  177.9840  144.3720 C   0  0  0  0  0  3  0  0  0  0  0  0
  186.7810  178.7360  147.3220 C   0  0  0  0  0  3  0  0  0  0  0  0
  188.0470  176.8510  148.2210 C   0  0  0  0  0  1  0  0  0  0  0  0
  185.8450  179.1880  146.4970 C   0  0  0  0  0  3  0  0  0  0  0  0
  189.6510  177.0900  145.8960 N   0  0  0  0  0  0  0  0  0  0  0  0
  188.3410  177.4640  145.8300 C   0  0  0  0  0  0  0  0  0  0  0  0
  187.6060  177.6020  147.0560 N   0  0  0  0  0  0  0  0  0  0  0  0
  190.1800  177.0200  141.1580 C   0  0  0  0  0  0  0  0  0  0  0  0
  188.8360  177.3910  141.0020 C   0  0  0  0  0  3  0  0  0  0  0  0
  189.8870  177.0690  143.5690 C   0  0  0  0  0  0  0  0  0  0  0  0
  188.0230  177.6000  142.1180 C   0  0  0  0  0  3  0  0  0  0  0  0
  188.5390  177.4420  143.4160 C   0  0  0  0  0  0  0  0  0  0  0  0
  184.1030  178.8980  144.6900 C   0  0  0  0  0  2  0  0  0  0  0  0
  185.0340  179.2390  141.0290 C   0  0  0  0  0  3  0  0  0  0  0  0
  182.9390  178.2040  142.5840 C   0  0  0  0  0  3  0  0  0  0  0  0
  182.7650  177.9700  138.3910 C   0  0  0  0  0  0  0  0  0  0  0  0
  183.8680  178.5700  139.0130 C   0  0  0  0  0  3  0  0  0  0  0  0
  183.9320  178.6470  140.4070 C   0  0  0  0  0  0  0  0  0  0  0  0
  181.7700  177.5430  140.5670 C   0  0  0  0  0  3  0  0  0  0  0  0
  182.8750  178.1260  141.1900 C   0  0  0  0  0  0  0  0  0  0  0  0
  181.7130  177.4700  139.1710 C   0  0  0  0  0  3  0  0  0  0  0  0
  184.0480  178.7920  143.2020 C   0  0  0  0  0  0  0  0  0  0  0  0
  185.0910  179.3120  142.4260 C   0  0  0  0  0  3  0  0  0  0  0  0
  182.6760  177.9200  136.8980 C   0  0  2  0  0  3  0  0  0  0  0  0
  181.5840  178.7920  136.4050 C   0  0  0  0  0  2  0  0  0  0  0  0
  181.4230  177.4000  136.5140 O   0  0  0  0  0  0  0  0  0  0  0  0
  191.0370  176.8000  140.0680 O   0  0  0  0  0  0  0  0  0  0  0  0
  190.7470  175.0900  138.5160 O   0  0  0  0  0  0  0  0  0  0  0  0
  190.1560  177.2660  137.7870 C   0  0  0  0  0  1  0  0  0  0  0  0
  190.6640  176.3130  138.8060 C   0  0  0  0  0  0  0  0  0  0  0  0
  1 10  1  0  0  0  0
  2 14  1  0  0  0  0
  3  9  1  0  0  0  0
  4  8  1  0  0  0  0
  5  1  1  0  0  0  0
  5  4  2  0  0  0  0
  8  6  2  0  0  0  0
 10  9  2  0  0  0  0
 10 11  1  0  0  0  0
 11  6  1  0  0  0  0
 11  7  1  0  0  0  0
 12  2  2  0  0  0  0
 13 12  1  0  0  0  0
 13 15  2  0  0  0  0
 14  3  2  0  0  0  0
 15 16  1  0  0  0  0
 16 14  1  0  0  0  0
 16  1  2  0  0  0  0
 17  4  1  0  0  0  0
 18 27  1  0  0  0  0
 19 26  1  0  0  0  0
 20 21  2  0  0  0  0
 20 25  1  0  0  0  0
 21 22  1  0  0  0  0
 22 18  2  0  0  0  0
 22 24  1  0  0  0  0
 23 24  1  0  0  0  0
 24 19  2  0  0  0  0
 25 23  2  0  0  0  0
 26 17  1  0  0  0  0
 27 26  2  0  0  0  0
 28 20  1  1  0  0  0
 29 30  1  0  0  0  0
 29 28  1  0  0  0  0
 30 28  1  0  0  0  0
 31 12  1  0  0  0  0
 32 34  2  0  0  0  0
 33 34  1  0  0  0  0
 34 31  1  0  0  0  0
M  END
>  <MODEL>
6

>  <REMARK>
 VINA RESULT:     -10.1      3.249      7.117
  Name = 
  5 active torsions:
  status: ('A' for Active; 'I' for Inactive)
    1  A    between atoms: C_7  and  C_11
    2  A    between atoms: C_8  and  C_18
    3  A    between atoms: C_18  and  C_30
    4  A    between atoms: O_23  and  C_24
    5  A    between atoms: O_23  and  C_25
                            x       y       z     vdW  Elec       q    Type
                         _______ _______ _______ _____ _____    ______ ____

>  <TORSDO>
F 5

$$$$
=
 OpenBabel11052415473D

 34 39  0  0  1  0  0  0  0  0999 V2000
  184.5760  178.2630  139.5030 C   0  0  0  0  0  0  0  0  0  0  0  0
  187.9640  177.8170  138.0430 C   0  0  0  0  0  3  0  0  0  0  0  0
  185.7860  177.5030  137.1330 N   0  0  0  0  0  0  0  0  0  0  0  0
  182.7810  178.4910  141.2900 C   0  0  0  0  0  0  0  0  0  0  0  0
  183.9830  178.7460  140.7680 C   0  0  0  0  0  3  0  0  0  0  0  0
  181.6000  177.3400  139.4150 C   0  0  0  0  0  3  0  0  0  0  0  0
  181.6890  178.1210  137.1040 C   0  0  0  0  0  1  0  0  0  0  0  0
  181.7830  177.5850  140.7070 C   0  0  0  0  0  3  0  0  0  0  0  0
  184.4580  177.5290  137.2290 N   0  0  0  0  0  0  0  0  0  0  0  0
  183.8130  177.8900  138.3750 C   0  0  0  0  0  0  0  0  0  0  0  0
  182.3770  177.9250  138.3700 N   0  0  0  0  0  0  0  0  0  0  0  0
  188.7900  178.1810  139.1110 C   0  0  0  0  0  0  0  0  0  0  0  0
  188.2050  178.5800  140.3220 C   0  0  0  0  0  3  0  0  0  0  0  0
  186.5730  177.8490  138.1770 C   0  0  0  0  0  0  0  0  0  0  0  0
  186.8150  178.6140  140.4620 C   0  0  0  0  0  3  0  0  0  0  0  0
  185.9820  178.2480  139.3900 C   0  0  0  0  0  0  0  0  0  0  0  0
  182.4890  179.0430  142.6460 C   0  0  0  0  0  2  0  0  0  0  0  0
  184.5020  178.7710  145.8480 C   0  0  0  0  0  3  0  0  0  0  0  0
  184.8200  178.2510  143.1090 C   0  0  0  0  0  3  0  0  0  0  0  0
  187.9810  177.5000  145.7760 C   0  0  0  0  0  0  0  0  0  0  0  0
  186.7680  178.0160  146.2550 C   0  0  0  0  0  3  0  0  0  0  0  0
  185.7130  178.2630  145.3720 C   0  0  0  0  0  0  0  0  0  0  0  0
  187.0890  177.5040  143.5160 C   0  0  0  0  0  3  0  0  0  0  0  0
  185.8750  178.0020  143.9920 C   0  0  0  0  0  0  0  0  0  0  0  0
  188.1400  177.2580  144.4040 C   0  0  0  0  0  3  0  0  0  0  0  0
  183.6070  178.7530  143.5930 C   0  0  0  0  0  0  0  0  0  0  0  0
  183.4500  179.0160  144.9590 C   0  0  0  0  0  3  0  0  0  0  0  0
  189.1240  177.2690  146.7130 C   0  0  2  0  0  3  0  0  0  0  0  0
  188.6660  176.5960  147.9500 C   0  0  0  0  0  2  0  0  0  0  0  0
  188.9070  177.9800  147.9110 O   0  0  0  0  0  0  0  0  0  0  0  0
  190.1800  178.1300  138.9230 O   0  0  0  0  0  0  0  0  0  0  0  0
  191.0990  175.9920  138.9520 O   0  0  0  0  0  0  0  0  0  0  0  0
  191.9400  177.5070  140.5690 C   0  0  0  0  0  1  0  0  0  0  0  0
  191.0510  177.1550  139.4330 C   0  0  0  0  0  0  0  0  0  0  0  0
  1  5  1  0  0  0  0
  2 14  2  0  0  0  0
  2 12  1  0  0  0  0
  3  9  2  0  0  0  0
  3 14  1  0  0  0  0
  4 17  1  0  0  0  0
  5  4  2  0  0  0  0
  6  8  2  0  0  0  0
  7 11  1  0  0  0  0
  8  4  1  0  0  0  0
  9 10  1  0  0  0  0
 10  1  2  0  0  0  0
 11 10  1  0  0  0  0
 11  6  1  0  0  0  0
 12 13  2  0  0  0  0
 13 15  1  0  0  0  0
 14 16  1  0  0  0  0
 16  1  1  0  0  0  0
 16 15  2  0  0  0  0
 17 26  1  0  0  0  0
 19 26  2  0  0  0  0
 19 24  1  0  0  0  0
 20 21  1  0  0  0  0
 22 18  1  0  0  0  0
 22 21  2  0  0  0  0
 23 24  2  0  0  0  0
 23 25  1  0  0  0  0
 24 22  1  0  0  0  0
 25 20  2  0  0  0  0
 26 27  1  0  0  0  0
 27 18  2  0  0  0  0
 28 20  1  6  0  0  0
 28 30  1  0  0  0  0
 28 29  1  0  0  0  0
 30 29  1  0  0  0  0
 31 12  1  0  0  0  0
 31 34  1  0  0  0  0
 32 34  2  0  0  0  0
 34 33  1  0  0  0  0
M  END
>  <MODEL>
7

>  <REMARK>
 VINA RESULT:     -10.1      1.498      2.145
  Name = 
  5 active torsions:
  status: ('A' for Active; 'I' for Inactive)
    1  A    between atoms: C_7  and  C_11
    2  A    between atoms: C_8  and  C_18
    3  A    between atoms: C_18  and  C_30
    4  A    between atoms: O_23  and  C_24
    5  A    between atoms: O_23  and  C_25
                            x       y       z     vdW  Elec       q    Type
                         _______ _______ _______ _____ _____    ______ ____

>  <TORSDO>
F 5

$$$$
=
 OpenBabel11052415473D

 34 39  0  0  1  0  0  0  0  0999 V2000
  189.0490  177.6010  141.1910 C   0  0  0  0  0  0  0  0  0  0  0  0
  188.3480  177.1520  144.8130 C   0  0  0  0  0  3  0  0  0  0  0  0
  190.3310  176.8570  143.5280 N   0  0  0  0  0  0  0  0  0  0  0  0
  188.5830  177.8220  138.7010 C   0  0  0  0  0  0  0  0  0  0  0  0
  188.3330  178.0750  139.9870 C   0  0  0  0  0  3  0  0  0  0  0  0
  190.8080  176.6940  138.7850 C   0  0  0  0  0  3  0  0  0  0  0  0
  192.6590  177.4950  140.1600 C   0  0  0  0  0  1  0  0  0  0  0  0
  189.6360  176.9260  138.2070 C   0  0  0  0  0  3  0  0  0  0  0  0
  191.0000  176.8880  142.3770 N   0  0  0  0  0  0  0  0  0  0  0  0
  190.4150  177.2420  141.1980 C   0  0  0  0  0  0  0  0  0  0  0  0
  191.2280  177.2840  140.0150 N   0  0  0  0  0  0  0  0  0  0  0  0
  186.9970  177.5020  144.8930 C   0  0  0  0  0  0  0  0  0  0  0  0
  186.3230  177.8930  143.7260 C   0  0  0  0  0  3  0  0  0  0  0  0
  189.0220  177.1900  143.5880 C   0  0  0  0  0  0  0  0  0  0  0  0
  186.9910  177.9320  142.4990 C   0  0  0  0  0  3  0  0  0  0  0  0
  188.3490  177.5810  142.4160 C   0  0  0  0  0  0  0  0  0  0  0  0
  187.6220  178.3630  137.6950 C   0  0  0  0  0  2  0  0  0  0  0  0
  184.1550  176.8290  137.5990 C   0  0  0  0  0  3  0  0  0  0  0  0
  185.6200  178.6270  139.1780 C   0  0  0  0  0  3  0  0  0  0  0  0
  181.6380  177.7180  140.1680 C   0  0  0  0  0  0  0  0  0  0  0  0
  182.2330  177.1260  139.0450 C   0  0  0  0  0  3  0  0  0  0  0  0
  183.5580  177.4230  138.7140 C   0  0  0  0  0  0  0  0  0  0  0  0
  183.6960  178.9300  140.6180 C   0  0  0  0  0  3  0  0  0  0  0  0
  184.2960  178.3300  139.5090 C   0  0  0  0  0  0  0  0  0  0  0  0
  182.3700  178.6290  140.9440 C   0  0  0  0  0  3  0  0  0  0  0  0
  186.2150  178.0250  138.0640 C   0  0  0  0  0  0  0  0  0  0  0  0
  185.4820  177.1310  137.2740 C   0  0  0  0  0  3  0  0  0  0  0  0
  180.2080  177.4310  140.5020 C   0  0  2  0  0  3  0  0  0  0  0  0
  179.3180  178.4820  139.9580 C   0  0  0  0  0  2  0  0  0  0  0  0
  179.6940  178.4650  141.3110 O   0  0  0  0  0  0  0  0  0  0  0  0
  186.3690  177.4460  146.1470 O   0  0  0  0  0  0  0  0  0  0  0  0
  185.6810  179.3630  147.2740 O   0  0  0  0  0  0  0  0  0  0  0  0
  187.5740  178.2530  148.1700 C   0  0  0  0  0  1  0  0  0  0  0  0
  186.4820  178.3950  147.1740 C   0  0  0  0  0  0  0  0  0  0  0  0
  1 10  2  0  0  0  0
  1 16  1  0  0  0  0
  2 12  1  0  0  0  0
  3 14  1  0  0  0  0
  4  5  2  0  0  0  0
  5  1  1  0  0  0  0
  6 11  1  0  0  0  0
  8  4  1  0  0  0  0
  8  6  2  0  0  0  0
  9  3  2  0  0  0  0
 10  9  1  0  0  0  0
 11  7  1  0  0  0  0
 11 10  1  0  0  0  0
 12 31  1  0  0  0  0
 13 12  2  0  0  0  0
 14  2  2  0  0  0  0
 15 13  1  0  0  0  0
 16 15  2  0  0  0  0
 16 14  1  0  0  0  0
 17 26  1  0  0  0  0
 17  4  1  0  0  0  0
 18 22  1  0  0  0  0
 19 24  1  0  0  0  0
 20 25  1  0  0  0  0
 21 20  2  0  0  0  0
 22 21  1  0  0  0  0
 22 24  2  0  0  0  0
 23 25  2  0  0  0  0
 24 23  1  0  0  0  0
 26 19  2  0  0  0  0
 27 18  2  0  0  0  0
 27 26  1  0  0  0  0
 28 20  1  6  0  0  0
 28 30  1  0  0  0  0
 29 28  1  0  0  0  0
 29 30  1  0  0  0  0
 31 34  1  0  0  0  0
 34 32  2  0  0  0  0
 34 33  1  0  0  0  0
M  END
>  <MODEL>
8

>  <REMARK>
 VINA RESULT:     -10.0      3.446      8.348
  Name = 
  5 active torsions:
  status: ('A' for Active; 'I' for Inactive)
    1  A    between atoms: C_7  and  C_11
    2  A    between atoms: C_8  and  C_18
    3  A    between atoms: C_18  and  C_30
    4  A    between atoms: O_23  and  C_24
    5  A    between atoms: O_23  and  C_25
                            x       y       z     vdW  Elec       q    Type
                         _______ _______ _______ _____ _____    ______ ____

>  <TORSDO>
F 5

$$$$
=
 OpenBabel11052415473D

 34 39  0  0  1  0  0  0  0  0999 V2000
  189.9500  177.0190  143.9030 C   0  0  0  0  0  0  0  0  0  0  0  0
  190.1080  177.8360  140.2810 C   0  0  0  0  0  3  0  0  0  0  0  0
  191.6470  176.7450  141.7350 N   0  0  0  0  0  0  0  0  0  0  0  0
  189.1890  177.1480  146.3260 C   0  0  0  0  0  0  0  0  0  0  0  0
  188.9740  177.1280  145.0090 C   0  0  0  0  0  3  0  0  0  0  0  0
  191.6020  176.5290  146.4990 C   0  0  0  0  0  3  0  0  0  0  0  0
  192.6090  174.7130  145.2150 C   0  0  0  0  0  1  0  0  0  0  0  0
  190.5110  177.1240  146.9660 C   0  0  0  0  0  3  0  0  0  0  0  0
  192.0030  176.2740  142.9280 N   0  0  0  0  0  0  0  0  0  0  0  0
  191.2070  176.3880  144.0290 C   0  0  0  0  0  0  0  0  0  0  0  0
  191.6610  175.8150  145.2650 N   0  0  0  0  0  0  0  0  0  0  0  0
  188.8770  178.4640  140.0710 C   0  0  0  0  0  0  0  0  0  0  0  0
  187.9920  178.6090  141.1500 C   0  0  0  0  0  3  0  0  0  0  0  0
  190.4560  177.3570  141.5480 C   0  0  0  0  0  0  0  0  0  0  0  0
  188.3340  178.1330  142.4180 C   0  0  0  0  0  3  0  0  0  0  0  0
  189.5710  177.5010  142.6330 C   0  0  0  0  0  0  0  0  0  0  0  0
  188.0090  177.3690  147.2120 C   0  0  0  0  0  2  0  0  0  0  0  0
  184.7990  179.1880  146.3280 C   0  0  0  0  0  3  0  0  0  0  0  0
  186.6740  177.5020  145.0960 C   0  0  0  0  0  3  0  0  0  0  0  0
  183.3570  178.9050  142.9290 C   0  0  0  0  0  0  0  0  0  0  0  0
  183.5240  179.2750  144.2700 C   0  0  0  0  0  3  0  0  0  0  0  0
  184.6280  178.8140  144.9940 C   0  0  0  0  0  0  0  0  0  0  0  0
  185.3940  177.5830  143.0410 C   0  0  0  0  0  3  0  0  0  0  0  0
  185.5710  177.9640  144.3720 C   0  0  0  0  0  0  0  0  0  0  0  0
  184.2880  178.0490  142.3220 C   0  0  0  0  0  3  0  0  0  0  0  0
  186.8440  177.8840  146.4310 C   0  0  0  0  0  0  0  0  0  0  0  0
  185.9060  178.7220  147.0470 C   0  0  0  0  0  3  0  0  0  0  0  0
  182.1570  179.3660  142.1630 C   0  0  2  0  0  3  0  0  0  0  0  0
  180.9180  178.7760  142.7190 C   0  0  0  0  0  2  0  0  0  0  0  0
  181.5240  178.2600  141.5610 O   0  0  0  0  0  0  0  0  0  0  0  0
  188.5790  178.9270  138.7800 O   0  0  0  0  0  0  0  0  0  0  0  0
  189.0800  178.4420  136.5590 O   0  0  0  0  0  0  0  0  0  0  0  0
  187.6250  176.9230  137.6520 C   0  0  0  0  0  1  0  0  0  0  0  0
  188.4740  178.1420  137.6220 C   0  0  0  0  0  0  0  0  0  0  0  0
  1 10  1  0  0  0  0
  1  5  1  0  0  0  0
  2 14  1  0  0  0  0
  3  9  1  0  0  0  0
  4  8  1  0  0  0  0
  4 17  1  0  0  0  0
  5  4  2  0  0  0  0
  6  8  2  0  0  0  0
  7 11  1  0  0  0  0
  9 10  2  0  0  0  0
 10 11  1  0  0  0  0
 11  6  1  0  0  0  0
 12  2  2  0  0  0  0
 12 13  1  0  0  0  0
 13 15  2  0  0  0  0
 14  3  2  0  0  0  0
 14 16  1  0  0  0  0
 15 16  1  0  0  0  0
 16  1  2  0  0  0  0
 18 27  1  0  0  0  0
 19 26  1  0  0  0  0
 20 21  2  0  0  0  0
 21 22  1  0  0  0  0
 22 18  2  0  0  0  0
 23 24  1  0  0  0  0
 24 22  1  0  0  0  0
 24 19  2  0  0  0  0
 25 20  1  0  0  0  0
 25 23  2  0  0  0  0
 26 27  2  0  0  0  0
 26 17  1  0  0  0  0
 28 29  1  0  0  0  0
 28 20  1  1  0  0  0
 30 28  1  0  0  0  0
 30 29  1  0  0  0  0
 31 12  1  0  0  0  0
 32 34  2  0  0  0  0
 34 33  1  0  0  0  0
 34 31  1  0  0  0  0
M  END
>  <MODEL>
9

>  <REMARK>
 VINA RESULT:      -9.7      3.271      6.547
  Name = 
  5 active torsions:
  status: ('A' for Active; 'I' for Inactive)
    1  A    between atoms: C_7  and  C_11
    2  A    between atoms: C_8  and  C_18
    3  A    between atoms: C_18  and  C_30
    4  A    between atoms: O_23  and  C_24
    5  A    between atoms: O_23  and  C_25
                            x       y       z     vdW  Elec       q    Type
                         _______ _______ _______ _____ _____    ______ ____

>  <TORSDO>
F 5

$$$$
