=
 OpenBabel11052415213D

 37 39  0  0  1  0  0  0  0  0999 V2000
  184.4910  176.0090  137.5220 C   0  0  1  0  0  3  0  0  0  0  0  0
  186.5750  175.4680  135.0120 C   0  0  0  0  0  2  0  0  0  0  0  0
  189.0280  176.5810  138.5560 C   0  0  0  0  0  3  0  0  0  0  0  0
  182.0240  177.3390  136.9250 O   0  0  0  0  0  0  0  0  0  0  0  0
  184.3890  178.9400  141.6330 C   0  0  0  0  0  2  0  0  0  0  0  0
  188.8010  177.7270  135.7060 C   0  0  0  0  0  3  0  0  0  0  0  0
  182.6590  177.8260  140.1590 C   0  0  0  0  0  2  0  0  0  0  0  0
  182.8630  180.0000  139.2560 O   0  0  0  0  0  1  0  0  0  0  0  0
  181.4620  175.1390  136.6720 O   0  0  0  0  0  1  0  0  0  0  0  0
  189.0470  175.9130  137.4020 C   0  0  0  0  0  3  0  0  0  0  0  0
  186.6930  178.1790  141.6750 C   0  0  0  0  0  0  0  0  0  0  0  0
  189.3330  178.8350  136.5230 C   0  0  0  0  0  3  0  0  0  0  0  0
  181.8390  178.4130  137.8280 C   0  0  2  0  0  3  0  0  0  0  0  0
  184.6280  175.2400  136.3620 O   0  0  0  0  0  0  0  0  0  0  0  0
  188.7110  174.1090  135.0980 C   0  0  0  0  0  1  0  0  0  0  0  0
  188.5650  178.4240  140.1490 C   0  0  0  0  0  2  0  0  0  0  0  0
  181.8840  176.1030  137.5860 C   0  0  1  0  0  3  0  0  0  0  0  0
  189.2340  178.9370  137.8480 C   0  0  0  0  0  3  0  0  0  0  0  0
  185.9840  174.9130  136.3000 C   0  0  0  0  0  2  0  0  0  0  0  0
  182.9530  178.6560  138.8900 C   0  0  2  0  0  0  0  0  0  0  0  0
  183.8420  177.6200  141.1050 C   0  0  0  0  0  2  0  0  0  0  0  0
  188.4820  177.9670  138.6990 C   0  0  1  0  0  3  0  0  0  0  0  0
  184.6220  177.5010  137.1860 C   0  0  0  0  0  2  0  0  0  0  0  0
  188.6350  176.4480  136.0790 C   0  0  0  0  0  0  0  0  0  0  0  0
  185.6950  178.7290  142.3260 C   0  0  0  0  0  0  0  0  0  0  0  0
  188.1020  175.5050  135.0350 C   0  0  2  0  0  3  0  0  0  0  0  0
  184.4030  178.4370  138.3750 C   0  0  0  0  0  2  0  0  0  0  0  0
  180.5480  178.4220  138.3730 O   0  0  0  0  0  1  0  0  0  0  0  0
  183.1930  175.6370  138.2490 C   0  0  0  0  0  2  0  0  0  0  0  0
  187.6670  177.6120  141.0210 C   0  0  0  0  0  3  0  0  0  0  0  0
  185.8240  179.1430  143.6590 O   0  0  0  0  0  0  0  0  0  0  0  0
  185.2690  178.4340  144.7660 C   0  0  1  0  0  3  0  0  0  0  0  0
  185.3860  179.4550  146.9300 O   0  0  0  0  0  1  0  0  0  0  0  0
  187.2760  178.3520  146.2430 O   0  0  0  0  0  0  0  0  0  0  0  0
  185.9750  178.7910  146.0350 C   0  0  0  0  0  0  0  0  0  0  0  0
  182.6690  179.0180  144.9830 C   0  0  0  0  0  3  0  0  0  0  0  0
  183.8430  178.7530  144.8860 C   0  0  0  0  0  0  0  0  0  0  0  0
  1 23  1  6  0  0  0
  1 29  1  0  0  0  0
  2 26  1  0  0  0  0
  2 19  1  0  0  0  0
  3 22  1  0  0  0  0
  4 17  1  0  0  0  0
  4 13  1  0  0  0  0
  5 25  1  0  0  0  0
  6 24  2  0  0  0  0
  6 12  1  0  0  0  0
  7 21  1  0  0  0  0
 10  3  2  0  0  0  0
 11 25  2  0  0  0  0
 12 18  2  0  0  0  0
 13 28  1  1  0  0  0
 13 20  1  0  0  0  0
 14  1  1  0  0  0  0
 16 30  1  0  0  0  0
 17  9  1  6  0  0  0
 17 29  1  0  0  0  0
 19 14  1  0  0  0  0
 20  8  1  1  0  0  0
 20  7  1  0  0  0  0
 21  5  1  0  0  0  0
 22 18  1  6  0  0  0
 22 16  1  0  0  0  0
 23 27  1  0  0  0  0
 24 10  1  0  0  0  0
 25 31  1  0  0  0  0
 26 15  1  1  0  0  0
 26 24  1  0  0  0  0
 27 20  1  0  0  0  0
 30 11  2  0  0  0  0
 31 32  1  0  0  0  0
 32 37  1  1  0  0  0
 32 35  1  0  0  0  0
 35 34  2  0  0  0  0
 35 33  1  0  0  0  0
 37 36  3  0  0  0  0
M  END
>  <MODEL>
1

>  <REMARK>
 VINA RESULT:      -7.1      0.000      0.000
  Name = 
  4 active torsions:
  status: ('A' for Active; 'I' for Inactive)
    1  A    between atoms: O_6  and  C_8
    2  A    between atoms: O_6  and  C_31
    3  A    between atoms: C_8  and  C_19
    4  A    between atoms: C_8  and  C_35
                            x       y       z     vdW  Elec       q    Type
                         _______ _______ _______ _____ _____    ______ ____

>  <TORSDO>
F 4

$$$$
=
 OpenBabel11052415213D

 37 39  0  0  1  0  0  0  0  0999 V2000
  181.9720  176.1340  136.5910 C   0  0  1  0  0  3  0  0  0  0  0  0
  179.7980  177.9040  138.3460 C   0  0  0  0  0  2  0  0  0  0  0  0
  183.8060  179.7380  138.9650 C   0  0  0  0  0  3  0  0  0  0  0  0
  181.6140  173.2920  136.5280 O   0  0  0  0  0  0  0  0  0  0  0  0
  186.8580  174.9140  136.9710 C   0  0  0  0  0  2  0  0  0  0  0  0
  181.6740  178.6320  140.8930 C   0  0  0  0  0  3  0  0  0  0  0  0
  184.8200  173.9060  135.8590 C   0  0  0  0  0  2  0  0  0  0  0  0
  184.9250  172.8160  137.9520 O   0  0  0  0  0  1  0  0  0  0  0  0
  180.4040  173.9730  134.7130 O   0  0  0  0  0  1  0  0  0  0  0  0
  182.4960  179.9890  138.9670 C   0  0  0  0  0  3  0  0  0  0  0  0
  186.9240  177.2560  137.6030 C   0  0  0  0  0  0  0  0  0  0  0  0
  182.9420  178.5700  141.6470 C   0  0  0  0  0  3  0  0  0  0  0  0
  182.8400  172.6570  136.8440 C   0  0  2  0  0  3  0  0  0  0  0  0
  180.6330  176.5380  136.5840 O   0  0  0  0  0  0  0  0  0  0  0  0
  179.6350  180.4300  138.4290 C   0  0  0  0  0  1  0  0  0  0  0  0
  185.9260  178.5310  139.4120 C   0  0  0  0  0  2  0  0  0  0  0  0
  181.6840  173.9070  135.2620 C   0  0  1  0  0  3  0  0  0  0  0  0
  184.1620  178.5730  141.1120 C   0  0  0  0  0  3  0  0  0  0  0  0
  180.6440  177.8430  137.0820 C   0  0  0  0  0  2  0  0  0  0  0  0
  184.0600  173.5730  137.1620 C   0  0  2  0  0  0  0  0  0  0  0  0
  185.7620  175.1080  135.9310 C   0  0  0  0  0  2  0  0  0  0  0  0
  184.4210  178.5530  139.6420 C   0  0  1  0  0  3  0  0  0  0  0  0
  182.2980  175.4090  137.9040 C   0  0  0  0  0  2  0  0  0  0  0  0
  181.4630  179.2170  139.7030 C   0  0  0  0  0  0  0  0  0  0  0  0
  187.5880  176.1950  137.2100 C   0  0  0  0  0  0  0  0  0  0  0  0
  180.0580  179.1660  139.1670 C   0  0  2  0  0  3  0  0  0  0  0  0
  183.7200  174.8500  137.9800 C   0  0  0  0  0  2  0  0  0  0  0  0
  183.1440  171.6290  135.9420 O   0  0  0  0  0  1  0  0  0  0  0  0
  182.2830  175.3230  135.3280 C   0  0  0  0  0  2  0  0  0  0  0  0
  186.2470  178.3060  137.9720 C   0  0  0  0  0  3  0  0  0  0  0  0
  188.9770  176.2220  137.0220 O   0  0  0  0  0  0  0  0  0  0  0  0
  189.9150  175.7130  137.9690 C   0  0  1  0  0  3  0  0  0  0  0  0
  191.5620  176.0120  136.2540 O   0  0  0  0  0  0  0  0  0  0  0  0
  192.0930  174.5020  137.8960 O   0  0  0  0  0  1  0  0  0  0  0  0
  191.2250  175.4150  137.3110 C   0  0  0  0  0  0  0  0  0  0  0  0
  190.2710  177.5040  139.9210 C   0  0  0  0  0  3  0  0  0  0  0  0
  190.1110  176.6960  139.0390 C   0  0  0  0  0  0  0  0  0  0  0  0
  1 29  1  6  0  0  0
  1 23  1  0  0  0  0
  2 26  1  0  0  0  0
  3 10  2  0  0  0  0
  4 13  1  0  0  0  0
  5 25  1  0  0  0  0
  6 12  1  0  0  0  0
  7 21  1  0  0  0  0
  7 20  1  0  0  0  0
 10 24  1  0  0  0  0
 11 30  2  0  0  0  0
 13 28  1  6  0  0  0
 13 20  1  0  0  0  0
 14  1  1  0  0  0  0
 14 19  1  0  0  0  0
 16 22  1  0  0  0  0
 17  9  1  1  0  0  0
 17 29  1  0  0  0  0
 17  4  1  0  0  0  0
 18 12  2  0  0  0  0
 19  2  1  0  0  0  0
 20  8  1  1  0  0  0
 20 27  1  0  0  0  0
 21  5  1  0  0  0  0
 22  3  1  6  0  0  0
 22 18  1  0  0  0  0
 23 27  1  0  0  0  0
 24  6  2  0  0  0  0
 25 11  2  0  0  0  0
 26 15  1  6  0  0  0
 26 24  1  0  0  0  0
 30 16  1  0  0  0  0
 31 25  1  0  0  0  0
 31 32  1  0  0  0  0
 32 37  1  1  0  0  0
 33 35  2  0  0  0  0
 35 34  1  0  0  0  0
 35 32  1  0  0  0  0
 37 36  3  0  0  0  0
M  END
>  <MODEL>
2

>  <REMARK>
 VINA RESULT:      -6.4      3.564      7.079
  Name = 
  4 active torsions:
  status: ('A' for Active; 'I' for Inactive)
    1  A    between atoms: O_6  and  C_8
    2  A    between atoms: O_6  and  C_31
    3  A    between atoms: C_8  and  C_19
    4  A    between atoms: C_8  and  C_35
                            x       y       z     vdW  Elec       q    Type
                         _______ _______ _______ _____ _____    ______ ____

>  <TORSDO>
F 4

$$$$
=
 OpenBabel11052415213D

 37 39  0  0  1  0  0  0  0  0999 V2000
  184.3590  176.0200  137.9360 C   0  0  1  0  0  3  0  0  0  0  0  0
  185.2980  174.7660  135.0230 C   0  0  0  0  0  2  0  0  0  0  0  0
  188.9590  175.2140  137.5140 C   0  0  0  0  0  3  0  0  0  0  0  0
  182.3040  178.0170  137.9120 O   0  0  0  0  0  0  0  0  0  0  0  0
  186.3930  179.0040  141.4660 C   0  0  0  0  0  2  0  0  0  0  0  0
  188.1650  176.2590  134.7280 C   0  0  0  0  0  3  0  0  0  0  0  0
  184.0460  178.4160  140.7250 C   0  0  0  0  0  2  0  0  0  0  0  0
  184.5480  180.3840  139.5190 O   0  0  0  0  0  1  0  0  0  0  0  0
  181.1010  176.0870  138.1310 O   0  0  0  0  0  1  0  0  0  0  0  0
  188.4220  174.5270  136.5060 C   0  0  0  0  0  3  0  0  0  0  0  0
  188.2820  177.5750  140.9360 C   0  0  0  0  0  0  0  0  0  0  0  0
  189.2160  177.1830  135.1990 C   0  0  0  0  0  3  0  0  0  0  0  0
  182.7240  179.1320  138.6780 C   0  0  2  0  0  3  0  0  0  0  0  0
  183.8990  175.2010  136.9000 O   0  0  0  0  0  0  0  0  0  0  0  0
  186.8810  172.8220  134.6630 C   0  0  0  0  0  1  0  0  0  0  0  0
  189.5600  177.1730  138.9120 C   0  0  0  0  0  2  0  0  0  0  0  0
  182.0440  176.9110  138.7450 C   0  0  1  0  0  3  0  0  0  0  0  0
  189.5770  177.3640  136.4690 C   0  0  0  0  0  3  0  0  0  0  0  0
  185.0180  174.4710  136.4900 C   0  0  0  0  0  2  0  0  0  0  0  0
  184.1400  179.0640  139.3260 C   0  0  2  0  0  0  0  0  0  0  0  0
  185.3620  177.8950  141.3030 C   0  0  0  0  0  2  0  0  0  0  0  0
  188.8960  176.7060  137.6240 C   0  0  1  0  0  3  0  0  0  0  0  0
  184.7870  177.3850  137.3790 C   0  0  0  0  0  2  0  0  0  0  0  0
  187.7760  175.1090  135.3020 C   0  0  0  0  0  0  0  0  0  0  0  0
  187.7380  178.4300  141.7700 C   0  0  0  0  0  0  0  0  0  0  0  0
  186.6990  174.3340  134.5940 C   0  0  2  0  0  3  0  0  0  0  0  0
  185.2280  178.3910  138.4440 C   0  0  0  0  0  2  0  0  0  0  0  0
  181.7310  179.5580  139.5690 O   0  0  0  0  0  1  0  0  0  0  0  0
  183.3110  176.0940  139.0530 C   0  0  0  0  0  2  0  0  0  0  0  0
  188.7980  176.7120  140.1090 C   0  0  0  0  0  3  0  0  0  0  0  0
  188.3950  178.8380  142.9390 O   0  0  0  0  0  0  0  0  0  0  0  0
  188.9340  177.9330  143.9020 C   0  0  1  0  0  3  0  0  0  0  0  0
  190.8480  179.3710  143.8170 O   0  0  0  0  0  0  0  0  0  0  0  0
  190.8880  177.7520  145.4400 O   0  0  0  0  0  1  0  0  0  0  0  0
  190.2800  178.3900  144.3670 C   0  0  0  0  0  0  0  0  0  0  0  0
  187.2690  177.7550  145.9860 C   0  0  0  0  0  3  0  0  0  0  0  0
  188.0210  177.8350  145.0460 C   0  0  0  0  0  0  0  0  0  0  0  0
  1 23  1  6  0  0  0
  1 29  1  0  0  0  0
  2 19  1  0  0  0  0
  3 22  1  0  0  0  0
  4 13  1  0  0  0  0
  4 17  1  0  0  0  0
  5 25  1  0  0  0  0
  6 12  1  0  0  0  0
  6 24  2  0  0  0  0
  7 21  1  0  0  0  0
 10  3  2  0  0  0  0
 11 25  2  0  0  0  0
 12 18  2  0  0  0  0
 13 20  1  0  0  0  0
 13 28  1  1  0  0  0
 14  1  1  0  0  0  0
 16 30  1  0  0  0  0
 17  9  1  6  0  0  0
 17 29  1  0  0  0  0
 19 14  1  0  0  0  0
 20  8  1  1  0  0  0
 20  7  1  0  0  0  0
 21  5  1  0  0  0  0
 22 18  1  6  0  0  0
 22 16  1  0  0  0  0
 23 27  1  0  0  0  0
 24 10  1  0  0  0  0
 25 31  1  0  0  0  0
 26 15  1  1  0  0  0
 26  2  1  0  0  0  0
 26 24  1  0  0  0  0
 27 20  1  0  0  0  0
 30 11  2  0  0  0  0
 31 32  1  0  0  0  0
 32 35  1  0  0  0  0
 32 37  1  1  0  0  0
 33 35  2  0  0  0  0
 35 34  1  0  0  0  0
 37 36  3  0  0  0  0
M  END
>  <MODEL>
3

>  <REMARK>
 VINA RESULT:      -6.3      1.876      2.437
  Name = 
  4 active torsions:
  status: ('A' for Active; 'I' for Inactive)
    1  A    between atoms: O_6  and  C_8
    2  A    between atoms: O_6  and  C_31
    3  A    between atoms: C_8  and  C_19
    4  A    between atoms: C_8  and  C_35
                            x       y       z     vdW  Elec       q    Type
                         _______ _______ _______ _____ _____    ______ ____

>  <TORSDO>
F 4

$$$$
=
 OpenBabel11052415213D

 37 39  0  0  1  0  0  0  0  0999 V2000
  184.2180  177.3120  139.5840 C   0  0  1  0  0  3  0  0  0  0  0  0
  184.7900  177.6610  136.3450 C   0  0  0  0  0  2  0  0  0  0  0  0
  188.6450  176.5220  138.2550 C   0  0  0  0  0  3  0  0  0  0  0  0
  182.4240  179.1760  140.8150 O   0  0  0  0  0  0  0  0  0  0  0  0
  186.8430  177.9270  143.8540 C   0  0  0  0  0  2  0  0  0  0  0  0
  187.7880  178.8950  136.4890 C   0  0  0  0  0  3  0  0  0  0  0  0
  184.3950  177.9620  143.2110 C   0  0  0  0  0  2  0  0  0  0  0  0
  185.0460  180.2310  143.1020 O   0  0  0  0  0  1  0  0  0  0  0  0
  181.0150  177.4930  140.1840 O   0  0  0  0  0  1  0  0  0  0  0  0
  187.9590  176.4850  137.1130 C   0  0  0  0  0  3  0  0  0  0  0  0
  188.5030  176.8450  142.4520 C   0  0  0  0  0  0  0  0  0  0  0  0
  188.9740  179.3750  137.2260 C   0  0  0  0  0  3  0  0  0  0  0  0
  183.0290  179.7120  141.9780 C   0  0  2  0  0  3  0  0  0  0  0  0
  183.5910  177.1700  138.3420 O   0  0  0  0  0  0  0  0  0  0  0  0
  186.0970  176.0710  134.8690 C   0  0  0  0  0  1  0  0  0  0  0  0
  189.5770  177.4470  140.3600 C   0  0  0  0  0  2  0  0  0  0  0  0
  182.0910  177.8210  141.0070 C   0  0  1  0  0  3  0  0  0  0  0  0
  189.4430  178.8570  138.3610 C   0  0  0  0  0  3  0  0  0  0  0  0
  184.5810  176.6780  137.4880 C   0  0  0  0  0  2  0  0  0  0  0  0
  184.4680  179.2260  142.3260 C   0  0  2  0  0  0  0  0  0  0  0  0
  185.6770  177.1310  143.2850 C   0  0  0  0  0  2  0  0  0  0  0  0
  188.7710  177.7500  139.1040 C   0  0  1  0  0  3  0  0  0  0  0  0
  184.7680  178.7370  139.7380 C   0  0  0  0  0  2  0  0  0  0  0  0
  187.3050  177.6430  136.4520 C   0  0  0  0  0  0  0  0  0  0  0  0
  188.1270  177.1890  143.6620 C   0  0  0  0  0  0  0  0  0  0  0  0
  186.0940  177.4140  135.5890 C   0  0  2  0  0  3  0  0  0  0  0  0
  185.4020  179.0250  141.1000 C   0  0  0  0  0  2  0  0  0  0  0  0
  182.1600  179.6900  143.0770 O   0  0  0  0  0  1  0  0  0  0  0  0
  183.2680  176.8760  140.7060 C   0  0  0  0  0  2  0  0  0  0  0  0
  188.8510  176.4920  141.2480 C   0  0  0  0  0  3  0  0  0  0  0  0
  188.9090  176.8960  144.7880 O   0  0  0  0  0  0  0  0  0  0  0  0
  189.6760  177.8690  145.4950 C   0  0  1  0  0  3  0  0  0  0  0  0
  189.4870  176.9100  147.6820 O   0  0  0  0  0  1  0  0  0  0  0  0
  191.6200  177.1290  146.8700 O   0  0  0  0  0  0  0  0  0  0  0  0
  190.2460  177.2880  146.7500 C   0  0  0  0  0  0  0  0  0  0  0  0
  191.6560  178.7540  143.9310 C   0  0  0  0  0  3  0  0  0  0  0  0
  190.7620  178.3530  144.6360 C   0  0  0  0  0  0  0  0  0  0  0  0
  1 23  1  1  0  0  0
  1 29  1  0  0  0  0
  2 19  1  0  0  0  0
  4 17  1  0  0  0  0
  4 13  1  0  0  0  0
  6 12  1  0  0  0  0
  7 21  1  0  0  0  0
 10  3  2  0  0  0  0
 11 25  2  0  0  0  0
 12 18  2  0  0  0  0
 13 20  1  0  0  0  0
 13 28  1  1  0  0  0
 14  1  1  0  0  0  0
 16 30  1  0  0  0  0
 17  9  1  6  0  0  0
 18 22  1  0  0  0  0
 19 14  1  0  0  0  0
 20  8  1  1  0  0  0
 20  7  1  0  0  0  0
 21  5  1  0  0  0  0
 22  3  1  6  0  0  0
 22 16  1  0  0  0  0
 23 27  1  0  0  0  0
 24  6  2  0  0  0  0
 24 10  1  0  0  0  0
 25  5  1  0  0  0  0
 25 31  1  0  0  0  0
 26 15  1  1  0  0  0
 26  2  1  0  0  0  0
 26 24  1  0  0  0  0
 27 20  1  0  0  0  0
 29 17  1  0  0  0  0
 30 11  2  0  0  0  0
 31 32  1  0  0  0  0
 32 37  1  6  0  0  0
 32 35  1  0  0  0  0
 35 34  2  0  0  0  0
 35 33  1  0  0  0  0
 36 37  3  0  0  0  0
M  END
>  <MODEL>
4

>  <REMARK>
 VINA RESULT:      -5.5      2.318      3.679
  Name = 
  4 active torsions:
  status: ('A' for Active; 'I' for Inactive)
    1  A    between atoms: O_6  and  C_8
    2  A    between atoms: O_6  and  C_31
    3  A    between atoms: C_8  and  C_19
    4  A    between atoms: C_8  and  C_35
                            x       y       z     vdW  Elec       q    Type
                         _______ _______ _______ _____ _____    ______ ____

>  <TORSDO>
F 4

$$$$
=
 OpenBabel11052415213D

 37 39  0  0  1  0  0  0  0  0999 V2000
  190.8920  177.7190  141.3110 C   0  0  1  0  0  3  0  0  0  0  0  0
  192.9580  176.0960  139.3020 C   0  0  0  0  0  2  0  0  0  0  0  0
  189.3420  177.1350  136.9240 C   0  0  0  0  0  3  0  0  0  0  0  0
  190.6980  176.8070  144.0200 O   0  0  0  0  0  0  0  0  0  0  0  0
  185.8910  178.2620  141.7600 C   0  0  0  0  0  2  0  0  0  0  0  0
  190.7740  174.4760  137.5290 C   0  0  0  0  0  3  0  0  0  0  0  0
  187.8800  178.4400  143.3160 C   0  0  0  0  0  2  0  0  0  0  0  0
  187.1360  176.2150  143.5940 O   0  0  0  0  0  1  0  0  0  0  0  0
  192.3650  178.3640  144.1520 O   0  0  0  0  0  1  0  0  0  0  0  0
  190.6460  176.8710  136.8380 C   0  0  0  0  0  3  0  0  0  0  0  0
  186.1520  178.4240  139.3530 C   0  0  0  0  0  0  0  0  0  0  0  0
  189.3910  174.0960  137.1820 C   0  0  0  0  0  3  0  0  0  0  0  0
  189.3340  176.6400  144.3630 C   0  0  2  0  0  3  0  0  0  0  0  0
  192.2560  177.5030  141.0900 O   0  0  0  0  0  0  0  0  0  0  0  0
  193.5870  176.7570  136.9390 C   0  0  0  0  0  1  0  0  0  0  0  0
  186.9830  176.9030  137.6520 C   0  0  0  0  0  2  0  0  0  0  0  0
  191.0110  178.1730  143.8780 C   0  0  1  0  0  3  0  0  0  0  0  0
  188.3310  174.9030  137.2250 C   0  0  0  0  0  3  0  0  0  0  0  0
  192.3950  177.4530  139.7000 C   0  0  0  0  0  2  0  0  0  0  0  0
  188.2760  176.9480  143.2610 C   0  0  2  0  0  0  0  0  0  0  0  0
  187.1940  178.9900  142.0640 C   0  0  0  0  0  2  0  0  0  0  0  0
  188.3830  176.3090  137.7240 C   0  0  1  0  0  3  0  0  0  0  0  0
  190.1680  176.3780  141.4940 C   0  0  0  0  0  2  0  0  0  0  0  0
  191.3360  175.6910  137.4200 C   0  0  0  0  0  0  0  0  0  0  0  0
  185.3900  178.6280  140.4020 C   0  0  0  0  0  0  0  0  0  0  0  0
  192.7830  175.8020  137.8130 C   0  0  2  0  0  3  0  0  0  0  0  0
  188.6800  176.5050  141.8270 C   0  0  0  0  0  2  0  0  0  0  0  0
  189.0290  177.2260  145.5980 O   0  0  0  0  0  1  0  0  0  0  0  0
  190.6970  178.7060  142.4680 C   0  0  0  0  0  2  0  0  0  0  0  0
  186.9280  178.2350  138.3240 C   0  0  0  0  0  3  0  0  0  0  0  0
  184.1020  179.1690  140.2840 O   0  0  0  0  0  0  0  0  0  0  0  0
  182.9200  178.5070  140.7310 C   0  0  1  0  0  3  0  0  0  0  0  0
  181.5700  179.9480  139.3750 O   0  0  0  0  0  0  0  0  0  0  0  0
  180.7140  179.4290  141.4380 O   0  0  0  0  0  1  0  0  0  0  0  0
  181.7100  179.3460  140.4730 C   0  0  0  0  0  0  0  0  0  0  0  0
  182.6810  176.1630  139.4680 C   0  0  0  0  0  3  0  0  0  0  0  0
  182.7880  177.2210  140.0380 C   0  0  0  0  0  0  0  0  0  0  0  0
  1 23  1  1  0  0  0
  1 29  1  0  0  0  0
  2 19  1  0  0  0  0
  4 13  1  0  0  0  0
  5 21  1  0  0  0  0
 10  3  2  0  0  0  0
 10 24  1  0  0  0  0
 11 25  2  0  0  0  0
 12 18  2  0  0  0  0
 12  6  1  0  0  0  0
 13 28  1  1  0  0  0
 14  1  1  0  0  0  0
 16 22  1  0  0  0  0
 16 30  1  0  0  0  0
 17  4  1  0  0  0  0
 17  9  1  6  0  0  0
 18 22  1  0  0  0  0
 19 14  1  0  0  0  0
 20  7  1  0  0  0  0
 20  8  1  1  0  0  0
 20 13  1  0  0  0  0
 21  7  1  0  0  0  0
 22  3  1  6  0  0  0
 23 27  1  0  0  0  0
 24  6  2  0  0  0  0
 24 26  1  0  0  0  0
 25  5  1  0  0  0  0
 26 15  1  6  0  0  0
 26  2  1  0  0  0  0
 27 20  1  0  0  0  0
 29 17  1  0  0  0  0
 30 11  2  0  0  0  0
 31 25  1  0  0  0  0
 31 32  1  0  0  0  0
 32 37  1  6  0  0  0
 33 35  2  0  0  0  0
 35 32  1  0  0  0  0
 35 34  1  0  0  0  0
 36 37  3  0  0  0  0
M  END
>  <MODEL>
5

>  <REMARK>
 VINA RESULT:      -5.4      2.901      6.806
  Name = 
  4 active torsions:
  status: ('A' for Active; 'I' for Inactive)
    1  A    between atoms: O_6  and  C_8
    2  A    between atoms: O_6  and  C_31
    3  A    between atoms: C_8  and  C_19
    4  A    between atoms: C_8  and  C_35
                            x       y       z     vdW  Elec       q    Type
                         _______ _______ _______ _____ _____    ______ ____

>  <TORSDO>
F 4

$$$$
=
 OpenBabel11052415213D

 37 39  0  0  1  0  0  0  0  0999 V2000
  183.9430  176.6510  138.6370 C   0  0  1  0  0  3  0  0  0  0  0  0
  184.9820  176.4140  135.5060 C   0  0  0  0  0  2  0  0  0  0  0  0
  188.5980  176.4840  138.1010 C   0  0  0  0  0  3  0  0  0  0  0  0
  181.6890  178.3450  139.1540 O   0  0  0  0  0  0  0  0  0  0  0  0
  185.6830  178.6560  142.9330 C   0  0  0  0  0  2  0  0  0  0  0  0
  187.6740  178.2150  135.7270 C   0  0  0  0  0  3  0  0  0  0  0  0
  183.4040  178.0740  141.9980 C   0  0  0  0  0  2  0  0  0  0  0  0
  183.6870  180.3510  141.4350 O   0  0  0  0  0  1  0  0  0  0  0  0
  180.6980  176.3220  138.7700 O   0  0  0  0  0  1  0  0  0  0  0  0
  188.1270  176.0730  136.9230 C   0  0  0  0  0  3  0  0  0  0  0  0
  187.7070  177.6500  142.0490 C   0  0  0  0  0  0  0  0  0  0  0  0
  188.6260  179.0630  136.4720 C   0  0  0  0  0  3  0  0  0  0  0  0
  181.9960  179.2210  140.2230 C   0  0  2  0  0  3  0  0  0  0  0  0
  183.5630  176.1310  137.3960 O   0  0  0  0  0  0  0  0  0  0  0  0
  186.7580  174.8370  134.6270 C   0  0  0  0  0  1  0  0  0  0  0  0
  189.0020  177.9950  140.0250 C   0  0  0  0  0  2  0  0  0  0  0  0
  181.5540  177.0220  139.6190 C   0  0  1  0  0  3  0  0  0  0  0  0
  188.9770  178.8980  137.7470 C   0  0  0  0  0  3  0  0  0  0  0  0
  184.7480  175.6740  136.8150 C   0  0  0  0  0  2  0  0  0  0  0  0
  183.4170  179.1120  140.8540 C   0  0  2  0  0  0  0  0  0  0  0  0
  184.7730  177.5450  142.4270 C   0  0  0  0  0  2  0  0  0  0  0  0
  188.3800  177.8620  138.6420 C   0  0  1  0  0  3  0  0  0  0  0  0
  184.2200  178.1560  138.5150 C   0  0  0  0  0  2  0  0  0  0  0  0
  187.4130  176.9130  135.9290 C   0  0  0  0  0  0  0  0  0  0  0  0
  187.0840  178.1610  143.0840 C   0  0  0  0  0  0  0  0  0  0  0  0
  186.4170  176.2750  135.0010 C   0  0  2  0  0  3  0  0  0  0  0  0
  184.5620  178.8440  139.8380 C   0  0  0  0  0  2  0  0  0  0  0  0
  180.9720  179.2620  141.1770 O   0  0  0  0  0  1  0  0  0  0  0  0
  182.9020  176.2850  139.7020 C   0  0  0  0  0  2  0  0  0  0  0  0
  188.3030  177.1260  141.0160 C   0  0  0  0  0  3  0  0  0  0  0  0
  187.7040  178.2710  144.3370 O   0  0  0  0  0  0  0  0  0  0  0  0
  187.3460  177.4830  145.4710 C   0  0  1  0  0  3  0  0  0  0  0  0
  189.6870  177.3660  145.9670 O   0  0  0  0  0  0  0  0  0  0  0  0
  188.2770  177.2040  147.7670 O   0  0  0  0  0  1  0  0  0  0  0  0
  188.5060  177.3350  146.4040 C   0  0  0  0  0  0  0  0  0  0  0  0
  185.3010  178.6370  146.7460 C   0  0  0  0  0  3  0  0  0  0  0  0
  186.2240  178.1150  146.1710 C   0  0  0  0  0  0  0  0  0  0  0  0
  1 23  1  6  0  0  0
  1 29  1  0  0  0  0
  2 19  1  0  0  0  0
  3 22  1  0  0  0  0
  4 17  1  0  0  0  0
  4 13  1  0  0  0  0
  5 25  1  0  0  0  0
  6 24  2  0  0  0  0
  6 12  1  0  0  0  0
  7 21  1  0  0  0  0
 10  3  2  0  0  0  0
 11 25  2  0  0  0  0
 12 18  2  0  0  0  0
 13 20  1  0  0  0  0
 13 28  1  1  0  0  0
 14  1  1  0  0  0  0
 16 30  1  0  0  0  0
 17  9  1  6  0  0  0
 17 29  1  0  0  0  0
 19 14  1  0  0  0  0
 20  8  1  1  0  0  0
 20  7  1  0  0  0  0
 21  5  1  0  0  0  0
 22 18  1  6  0  0  0
 22 16  1  0  0  0  0
 23 27  1  0  0  0  0
 24 10  1  0  0  0  0
 25 31  1  0  0  0  0
 26 15  1  1  0  0  0
 26  2  1  0  0  0  0
 26 24  1  0  0  0  0
 27 20  1  0  0  0  0
 30 11  2  0  0  0  0
 31 32  1  0  0  0  0
 32 37  1  1  0  0  0
 32 35  1  0  0  0  0
 33 35  2  0  0  0  0
 35 34  1  0  0  0  0
 37 36  3  0  0  0  0
M  END
>  <MODEL>
6

>  <REMARK>
 VINA RESULT:      -5.4      1.644      2.047
  Name = 
  4 active torsions:
  status: ('A' for Active; 'I' for Inactive)
    1  A    between atoms: O_6  and  C_8
    2  A    between atoms: O_6  and  C_31
    3  A    between atoms: C_8  and  C_19
    4  A    between atoms: C_8  and  C_35
                            x       y       z     vdW  Elec       q    Type
                         _______ _______ _______ _____ _____    ______ ____

>  <TORSDO>
F 4

$$$$
=
 OpenBabel11052415213D

 37 39  0  0  1  0  0  0  0  0999 V2000
  187.6780  177.2490  139.2500 C   0  0  1  0  0  3  0  0  0  0  0  0
  186.2490  179.3540  141.3640 C   0  0  0  0  0  2  0  0  0  0  0  0
  183.0620  176.6550  139.8240 C   0  0  0  0  0  3  0  0  0  0  0  0
  189.7250  178.2880  137.5350 O   0  0  0  0  0  0  0  0  0  0  0  0
  186.3010  174.7320  135.0940 C   0  0  0  0  0  2  0  0  0  0  0  0
  183.3920  179.7170  139.8660 C   0  0  0  0  0  3  0  0  0  0  0  0
  188.4840  175.5670  136.0670 C   0  0  0  0  0  2  0  0  0  0  0  0
  187.8120  177.2980  134.6070 O   0  0  0  0  0  1  0  0  0  0  0  0
  190.9230  177.5880  139.3510 O   0  0  0  0  0  1  0  0  0  0  0  0
  183.4140  177.4260  140.8540 C   0  0  0  0  0  3  0  0  0  0  0  0
  184.3320  174.4320  136.4810 C   0  0  0  0  0  0  0  0  0  0  0  0
  182.4470  179.4490  138.7640 C   0  0  0  0  0  3  0  0  0  0  0  0
  189.4530  177.9100  136.1980 C   0  0  2  0  0  3  0  0  0  0  0  0
  187.9470  177.9860  140.4080 O   0  0  0  0  0  0  0  0  0  0  0  0
  184.6030  178.7600  143.1950 C   0  0  0  0  0  1  0  0  0  0  0  0
  182.7280  175.9640  137.4660 C   0  0  0  0  0  2  0  0  0  0  0  0
  190.1070  177.1680  138.3010 C   0  0  1  0  0  3  0  0  0  0  0  0
  182.3060  178.2850  138.1310 C   0  0  0  0  0  3  0  0  0  0  0  0
  186.7660  177.9380  141.1530 C   0  0  0  0  0  2  0  0  0  0  0  0
  188.1660  177.0730  135.9370 C   0  0  2  0  0  0  0  0  0  0  0  0
  187.2760  174.6490  136.2610 C   0  0  0  0  0  2  0  0  0  0  0  0
  183.1610  177.0900  138.3950 C   0  0  1  0  0  3  0  0  0  0  0  0
  187.1800  178.1790  138.1350 C   0  0  0  0  0  2  0  0  0  0  0  0
  183.8560  178.8410  140.7710 C   0  0  0  0  0  0  0  0  0  0  0  0
  185.0180  174.0460  135.4310 C   0  0  0  0  0  0  0  0  0  0  0  0
  184.7900  179.3850  141.8170 C   0  0  2  0  0  3  0  0  0  0  0  0
  186.9360  177.4840  136.7950 C   0  0  0  0  0  2  0  0  0  0  0  0
  190.5870  177.3890  135.5620 O   0  0  0  0  0  1  0  0  0  0  0  0
  188.8990  176.4030  138.8700 C   0  0  0  0  0  2  0  0  0  0  0  0
  183.6740  174.8120  137.5380 C   0  0  0  0  0  3  0  0  0  0  0  0
  184.5720  173.0100  134.5980 O   0  0  0  0  0  0  0  0  0  0  0  0
  184.7340  171.6250  134.9010 C   0  0  1  0  0  3  0  0  0  0  0  0
  187.0300  171.0110  134.5960 O   0  0  0  0  0  0  0  0  0  0  0  0
  186.4060  171.5010  136.7470 O   0  0  0  0  0  1  0  0  0  0  0  0
  186.1170  171.3470  135.3970 C   0  0  0  0  0  0  0  0  0  0  0  0
  182.9480  170.9000  136.7530 C   0  0  0  0  0  3  0  0  0  0  0  0
  183.7540  171.2280  135.9170 C   0  0  0  0  0  0  0  0  0  0  0  0
  1 23  1  6  0  0  0
  1 14  1  0  0  0  0
  2 26  1  0  0  0  0
  3 10  2  0  0  0  0
  4 17  1  0  0  0  0
  5 25  1  0  0  0  0
  5 21  1  0  0  0  0
  6 24  2  0  0  0  0
  7 21  1  0  0  0  0
 11 30  2  0  0  0  0
 12  6  1  0  0  0  0
 13 28  1  1  0  0  0
 13  4  1  0  0  0  0
 14 19  1  0  0  0  0
 16 30  1  0  0  0  0
 17 29  1  0  0  0  0
 17  9  1  1  0  0  0
 18 22  1  0  0  0  0
 18 12  2  0  0  0  0
 19  2  1  0  0  0  0
 20  8  1  6  0  0  0
 20  7  1  0  0  0  0
 20 13  1  0  0  0  0
 20 27  1  0  0  0  0
 22 16  1  6  0  0  0
 22  3  1  0  0  0  0
 24 10  1  0  0  0  0
 24 26  1  0  0  0  0
 25 11  2  0  0  0  0
 26 15  1  1  0  0  0
 27 23  1  0  0  0  0
 29  1  1  0  0  0  0
 31 32  1  0  0  0  0
 31 25  1  0  0  0  0
 32 35  1  0  0  0  0
 32 37  1  1  0  0  0
 33 35  2  0  0  0  0
 35 34  1  0  0  0  0
 37 36  3  0  0  0  0
M  END
>  <MODEL>
7

>  <REMARK>
 VINA RESULT:      -4.3      2.925      8.396
  Name = 
  4 active torsions:
  status: ('A' for Active; 'I' for Inactive)
    1  A    between atoms: O_6  and  C_8
    2  A    between atoms: O_6  and  C_31
    3  A    between atoms: C_8  and  C_19
    4  A    between atoms: C_8  and  C_35
                            x       y       z     vdW  Elec       q    Type
                         _______ _______ _______ _____ _____    ______ ____

>  <TORSDO>
F 4

$$$$
=
 OpenBabel11052415213D

 37 39  0  0  1  0  0  0  0  0999 V2000
  187.2890  177.8420  138.2700 C   0  0  1  0  0  3  0  0  0  0  0  0
  185.5460  178.2860  141.0460 C   0  0  0  0  0  2  0  0  0  0  0  0
  189.8550  178.3920  142.1560 C   0  0  0  0  0  3  0  0  0  0  0  0
  186.2750  175.9600  136.3620 O   0  0  0  0  0  0  0  0  0  0  0  0
  191.7390  175.8060  137.0260 C   0  0  0  0  0  2  0  0  0  0  0  0
  187.4730  176.6920  143.1150 C   0  0  0  0  0  3  0  0  0  0  0  0
  189.5520  176.2470  135.8310 C   0  0  0  0  0  2  0  0  0  0  0  0
  189.3430  174.0240  136.6020 O   0  0  0  0  0  1  0  0  0  0  0  0
  185.3070  177.9130  135.6780 O   0  0  0  0  0  1  0  0  0  0  0  0
  188.6410  178.8130  142.5140 C   0  0  0  0  0  3  0  0  0  0  0  0
  192.3370  177.0020  139.0510 C   0  0  0  0  0  0  0  0  0  0  0  0
  188.6700  175.8910  143.4390 C   0  0  0  0  0  3  0  0  0  0  0  0
  187.3080  175.0670  135.9890 C   0  0  2  0  0  3  0  0  0  0  0  0
  186.0830  178.3820  138.7280 O   0  0  0  0  0  0  0  0  0  0  0  0
  185.9780  180.0310  142.8300 C   0  0  0  0  0  1  0  0  0  0  0  0
  191.6190  176.8400  141.3640 C   0  0  0  0  0  2  0  0  0  0  0  0
  186.5210  177.2480  135.8480 C   0  0  1  0  0  3  0  0  0  0  0  0
  189.8710  176.0310  142.8790 C   0  0  0  0  0  3  0  0  0  0  0  0
  186.3870  178.9520  139.9670 C   0  0  0  0  0  2  0  0  0  0  0  0
  188.7010  175.2610  136.6610 C   0  0  2  0  0  0  0  0  0  0  0  0
  190.7480  176.8630  136.5580 C   0  0  0  0  0  2  0  0  0  0  0  0
  190.1560  176.9800  141.7610 C   0  0  1  0  0  3  0  0  0  0  0  0
  187.4010  176.3690  138.6880 C   0  0  0  0  0  2  0  0  0  0  0  0
  187.4360  177.9600  142.6760 C   0  0  0  0  0  0  0  0  0  0  0  0
  192.7430  176.4020  137.9570 C   0  0  0  0  0  0  0  0  0  0  0  0
  186.0740  178.5570  142.4530 C   0  0  2  0  0  3  0  0  0  0  0  0
  188.6490  175.6580  138.1630 C   0  0  0  0  0  2  0  0  0  0  0  0
  187.3860  174.9090  134.5990 O   0  0  0  0  0  1  0  0  0  0  0  0
  187.4340  178.0840  136.7630 C   0  0  0  0  0  2  0  0  0  0  0  0
  191.9170  177.6110  140.1220 C   0  0  0  0  0  3  0  0  0  0  0  0
  194.1040  176.2900  137.6400 O   0  0  0  0  0  0  0  0  0  0  0  0
  194.6700  175.1690  136.9620 C   0  0  1  0  0  3  0  0  0  0  0  0
  195.5380  176.0080  134.8930 O   0  0  0  0  0  0  0  0  0  0  0  0
  197.0900  175.5830  136.5270 O   0  0  0  0  0  1  0  0  0  0  0  0
  195.7830  175.5990  136.0590 C   0  0  0  0  0  0  0  0  0  0  0  0
  195.5900  173.4130  138.7560 C   0  0  0  0  0  3  0  0  0  0  0  0
  195.1750  174.2070  137.9470 C   0  0  0  0  0  0  0  0  0  0  0  0
  1 29  1  6  0  0  0
  1 23  1  0  0  0  0
  1 14  1  0  0  0  0
  2 26  1  0  0  0  0
  3 10  2  0  0  0  0
  5 25  1  0  0  0  0
  6 12  1  0  0  0  0
  7 21  1  0  0  0  0
  7 20  1  0  0  0  0
 10 24  1  0  0  0  0
 11 30  2  0  0  0  0
 13 28  1  6  0  0  0
 13  4  1  0  0  0  0
 13 20  1  0  0  0  0
 14 19  1  0  0  0  0
 17  9  1  1  0  0  0
 17  4  1  0  0  0  0
 17 29  1  0  0  0  0
 18 12  2  0  0  0  0
 19  2  1  0  0  0  0
 20  8  1  6  0  0  0
 20 27  1  0  0  0  0
 21  5  1  0  0  0  0
 22 16  1  1  0  0  0
 22  3  1  0  0  0  0
 22 18  1  0  0  0  0
 24  6  2  0  0  0  0
 25 11  2  0  0  0  0
 26 24  1  0  0  0  0
 26 15  1  6  0  0  0
 27 23  1  0  0  0  0
 30 16  1  0  0  0  0
 31 25  1  0  0  0  0
 32 31  1  0  0  0  0
 32 37  1  1  0  0  0
 33 35  2  0  0  0  0
 35 34  1  0  0  0  0
 35 32  1  0  0  0  0
 37 36  3  0  0  0  0
M  END
>  <MODEL>
8

>  <REMARK>
 VINA RESULT:      -4.2      4.444      8.482
  Name = 
  4 active torsions:
  status: ('A' for Active; 'I' for Inactive)
    1  A    between atoms: O_6  and  C_8
    2  A    between atoms: O_6  and  C_31
    3  A    between atoms: C_8  and  C_19
    4  A    between atoms: C_8  and  C_35
                            x       y       z     vdW  Elec       q    Type
                         _______ _______ _______ _____ _____    ______ ____

>  <TORSDO>
F 4

$$$$
=
 OpenBabel11052415213D

 37 39  0  0  1  0  0  0  0  0999 V2000
  180.7620  176.3010  140.0260 C   0  0  1  0  0  3  0  0  0  0  0  0
  178.9430  173.9550  138.5680 C   0  0  0  0  0  2  0  0  0  0  0  0
  183.0340  173.7290  136.8310 C   0  0  0  0  0  3  0  0  0  0  0  0
  179.4930  178.8140  140.5600 O   0  0  0  0  0  0  0  0  0  0  0  0
  184.6770  179.2240  138.7480 C   0  0  0  0  0  2  0  0  0  0  0  0
  180.2360  174.0850  135.5940 C   0  0  0  0  0  3  0  0  0  0  0  0
  182.7750  179.3690  140.4120 C   0  0  0  0  0  2  0  0  0  0  0  0
  181.9660  180.5270  138.5180 O   0  0  0  0  0  1  0  0  0  0  0  0
  179.0920  177.6500  142.4840 O   0  0  0  0  0  1  0  0  0  0  0  0
  181.9330  173.0220  137.0830 C   0  0  0  0  0  3  0  0  0  0  0  0
  185.3670  177.0990  137.8000 C   0  0  0  0  0  0  0  0  0  0  0  0
  181.1710  174.6400  134.5940 C   0  0  0  0  0  3  0  0  0  0  0  0
  180.3070  179.8640  140.0720 C   0  0  2  0  0  3  0  0  0  0  0  0
  179.6880  175.4400  140.2730 O   0  0  0  0  0  0  0  0  0  0  0  0
  179.6280  171.5490  138.1740 C   0  0  0  0  0  1  0  0  0  0  0  0
  184.4320  175.6430  136.0980 C   0  0  0  0  0  2  0  0  0  0  0  0
  180.0880  178.2020  141.6810 C   0  0  1  0  0  3  0  0  0  0  0  0
  182.4140  175.0520  134.8400 C   0  0  0  0  0  3  0  0  0  0  0  0
  180.0120  174.2540  139.6090 C   0  0  0  0  0  2  0  0  0  0  0  0
  181.6410  179.4700  139.3680 C   0  0  2  0  0  0  0  0  0  0  0  0
  184.0170  178.5940  139.9680 C   0  0  0  0  0  2  0  0  0  0  0  0
  183.0170  175.0900  136.2050 C   0  0  1  0  0  3  0  0  0  0  0  0
  180.4760  177.1600  138.7870 C   0  0  0  0  0  2  0  0  0  0  0  0
  180.5480  173.4040  136.7080 C   0  0  0  0  0  0  0  0  0  0  0  0
  185.7100  178.3080  138.1790 C   0  0  0  0  0  0  0  0  0  0  0  0
  179.3950  172.9160  137.5430 C   0  0  2  0  0  3  0  0  0  0  0  0
  181.5550  178.1990  138.4770 C   0  0  0  0  0  2  0  0  0  0  0  0
  180.4650  180.8860  141.0170 O   0  0  0  0  0  1  0  0  0  0  0  0
  181.0930  177.1040  141.2900 C   0  0  0  0  0  2  0  0  0  0  0  0
  185.0150  175.8960  137.4480 C   0  0  0  0  0  3  0  0  0  0  0  0
  187.0250  178.7760  138.0500 O   0  0  0  0  0  0  0  0  0  0  0  0
  188.1640  178.0930  138.5730 C   0  0  1  0  0  3  0  0  0  0  0  0
  190.2880  177.5260  137.6210 O   0  0  0  0  0  1  0  0  0  0  0  0
  189.5000  179.6220  137.1250 O   0  0  0  0  0  0  0  0  0  0  0  0
  189.3840  178.3930  137.7610 C   0  0  0  0  0  0  0  0  0  0  0  0
  188.5640  178.8390  141.1090 C   0  0  0  0  0  3  0  0  0  0  0  0
  188.3820  178.5030  139.9640 C   0  0  0  0  0  0  0  0  0  0  0  0
  1 23  1  6  0  0  0
  1 14  1  0  0  0  0
  1 29  1  0  0  0  0
  2 19  1  0  0  0  0
  3 10  2  0  0  0  0
  4 17  1  0  0  0  0
  5 21  1  0  0  0  0
  6 24  2  0  0  0  0
 11 25  2  0  0  0  0
 12 18  2  0  0  0  0
 12  6  1  0  0  0  0
 13  4  1  0  0  0  0
 13 28  1  1  0  0  0
 16 22  1  0  0  0  0
 16 30  1  0  0  0  0
 17  9  1  1  0  0  0
 19 14  1  0  0  0  0
 20  8  1  6  0  0  0
 20 13  1  0  0  0  0
 20  7  1  0  0  0  0
 21  7  1  0  0  0  0
 22 18  1  6  0  0  0
 22  3  1  0  0  0  0
 24 10  1  0  0  0  0
 24 26  1  0  0  0  0
 25  5  1  0  0  0  0
 26 15  1  1  0  0  0
 26  2  1  0  0  0  0
 27 23  1  0  0  0  0
 27 20  1  0  0  0  0
 29 17  1  0  0  0  0
 30 11  2  0  0  0  0
 31 25  1  0  0  0  0
 31 32  1  0  0  0  0
 32 37  1  1  0  0  0
 33 35  1  0  0  0  0
 34 35  2  0  0  0  0
 35 32  1  0  0  0  0
 37 36  3  0  0  0  0
M  END
>  <MODEL>
9

>  <REMARK>
 VINA RESULT:      -4.1      3.367      6.519
  Name = 
  4 active torsions:
  status: ('A' for Active; 'I' for Inactive)
    1  A    between atoms: O_6  and  C_8
    2  A    between atoms: O_6  and  C_31
    3  A    between atoms: C_8  and  C_19
    4  A    between atoms: C_8  and  C_35
                            x       y       z     vdW  Elec       q    Type
                         _______ _______ _______ _____ _____    ______ ____

>  <TORSDO>
F 4

$$$$
