=
 OpenBabel11052415403D

 34 38  0  0  1  0  0  0  0  0999 V2000
  182.7460  179.1770  140.0570 C   0  0  0  0  0  0  0  0  0  0  0  0
  179.8930  177.8930  137.9430 C   0  0  0  0  0  3  0  0  0  0  0  0
  180.2380  177.6290  140.3630 C   0  0  0  0  0  2  0  0  0  0  0  0
  183.8780  179.6900  139.9840 O   0  0  0  0  0  0  0  0  0  0  0  0
  182.7250  179.2120  142.6210 C   0  0  2  0  0  3  0  0  0  0  0  0
  181.5200  179.0130  143.5530 C   0  0  0  0  0  2  0  0  0  0  0  0
  180.7200  178.6400  141.3710 C   0  0  2  0  0  3  0  0  0  0  0  0
  182.1500  178.7920  141.3190 N   0  0  0  0  0  0  0  0  0  0  0  0
  180.4720  178.1790  142.7830 C   0  0  0  0  0  2  0  0  0  0  0  0
  180.3350  178.3230  136.6080 C   0  0  0  0  0  2  0  0  0  0  0  0
  180.9340  179.7860  136.6660 C   0  0  2  0  0  3  0  0  0  0  0  0
  180.6400  178.1540  139.0180 C   0  0  0  0  0  0  0  0  0  0  0  0
  181.8190  180.0930  137.8930 C   0  0  0  0  0  2  0  0  0  0  0  0
  181.9580  178.8950  138.8180 C   0  0  1  0  0  3  0  0  0  0  0  0
  183.8490  178.2370  142.9730 C   0  0  0  0  0  2  0  0  0  0  0  0
  185.1060  178.9840  143.3330 C   0  0  0  0  0  2  0  0  0  0  0  0
  187.4830  177.2650  143.4330 O   0  0  0  0  0  0  0  0  0  0  0  0
  185.9590  178.7350  146.9630 C   0  0  0  0  0  3  0  0  0  0  0  0
  189.7240  176.8610  147.1830 C   0  0  2  0  0  3  0  0  0  0  0  0
  189.1300  177.1340  145.7750 C   0  0  0  0  0  2  0  0  0  0  0  0
  187.6270  177.2670  145.8340 C   0  0  1  0  0  3  0  0  0  0  0  0
  185.7740  178.4070  144.5880 N   0  0  0  0  0  0  0  0  0  0  0  0
  187.8690  178.0730  148.3220 C   0  0  0  0  0  2  0  0  0  0  0  0
  187.1270  178.1310  146.9980 C   0  0  0  0  0  0  0  0  0  0  0  0
  189.3420  178.0220  148.1030 C   0  0  0  0  0  2  0  0  0  0  0  0
  185.0350  178.6160  145.8150 C   0  0  0  0  0  2  0  0  0  0  0  0
  186.9550  177.6660  144.5220 C   0  0  0  0  0  0  0  0  0  0  0  0
  191.2010  176.8030  147.0780 C   0  0  0  0  0  0  0  0  0  0  0  0
  191.9290  176.9800  148.0550 O   0  0  0  0  0  1  0  0  0  0  0  0
  191.7620  176.5410  145.8140 O   0  0  0  0  0  0  0  0  0  0  0  0
  179.9580  180.8060  136.5460 N   0  0  0  0  0  2  0  0  0  0  0  0
  180.2380  182.1170  136.1330 C   0  0  0  0  0  0  0  0  0  0  0  0
  180.2210  183.4530  137.1380 S   0  0  0  0  0  0  0  0  0  0  0  0
  180.6760  182.3140  134.7160 C   0  0  0  0  0  1  0  0  0  0  0  0
  1  8  1  0  0  0  0
  2 12  2  0  0  0  0
  4  1  2  0  0  0  0
  5 15  1  1  0  0  0
  5  6  1  0  0  0  0
  7  3  1  6  0  0  0
  7  9  1  0  0  0  0
  8  7  1  0  0  0  0
  8  5  1  0  0  0  0
  9  6  1  0  0  0  0
 10 11  1  0  0  0  0
 10  2  1  0  0  0  0
 11 31  1  1  0  0  0
 11 13  1  0  0  0  0
 12  3  1  0  0  0  0
 14 13  1  1  0  0  0
 14 12  1  0  0  0  0
 14  1  1  0  0  0  0
 15 16  1  0  0  0  0
 16 22  1  0  0  0  0
 17 27  2  0  0  0  0
 18 24  2  0  0  0  0
 19 28  1  6  0  0  0
 19 25  1  0  0  0  0
 20 19  1  0  0  0  0
 21 20  1  6  0  0  0
 21 24  1  0  0  0  0
 22 26  1  0  0  0  0
 24 23  1  0  0  0  0
 25 23  1  0  0  0  0
 26 18  1  0  0  0  0
 27 22  1  0  0  0  0
 27 21  1  0  0  0  0
 28 29  1  0  0  0  0
 30 28  2  0  0  0  0
 32 31  1  0  0  0  0
 32 33  2  0  0  0  0
 34 32  1  0  0  0  0
M  END
>  <MODEL>
1

>  <REMARK>
 VINA RESULT:      -9.3      0.000      0.000
  Name = 
  6 active torsions:
  status: ('A' for Active; 'I' for Inactive)
    1  A    between atoms: C_3  and  N_25
    2  A    between atoms: C_7  and  C_11
    3  A    between atoms: C_8  and  C_17
    4  A    between atoms: C_8  and  N_18
    5  A    between atoms: C_10  and  C_17
    6  A    between atoms: N_25  and  C_27
                            x       y       z     vdW  Elec       q    Type
                         _______ _______ _______ _____ _____    ______ ____

>  <TORSDO>
F 6

$$$$
=
 OpenBabel11052415403D

 34 38  0  0  1  0  0  0  0  0999 V2000
  191.0930  176.7200  138.8660 C   0  0  0  0  0  0  0  0  0  0  0  0
  192.2140  174.1530  136.3350 C   0  0  0  0  0  3  0  0  0  0  0  0
  190.1170  175.4360  136.3810 C   0  0  0  0  0  2  0  0  0  0  0  0
  191.3690  177.1930  139.9840 O   0  0  0  0  0  0  0  0  0  0  0  0
  189.0940  178.2910  138.5230 C   0  0  2  0  0  3  0  0  0  0  0  0
  188.3400  178.5790  137.2170 C   0  0  0  0  0  2  0  0  0  0  0  0
  189.8990  176.8910  136.7060 C   0  0  2  0  0  3  0  0  0  0  0  0
  189.9130  177.1180  138.1270 N   0  0  0  0  0  0  0  0  0  0  0  0
  188.5260  177.3530  136.2950 C   0  0  0  0  0  2  0  0  0  0  0  0
  193.4920  173.7320  136.9300 C   0  0  0  0  0  2  0  0  0  0  0  0
  194.2880  174.9830  137.4780 C   0  0  2  0  0  3  0  0  0  0  0  0
  191.4640  175.0800  136.9340 C   0  0  0  0  0  0  0  0  0  0  0  0
  193.4350  176.0520  138.1940 C   0  0  0  0  0  2  0  0  0  0  0  0
  191.9620  175.6740  138.2470 C   0  0  1  0  0  3  0  0  0  0  0  0
  188.1290  177.8400  139.6190 C   0  0  0  0  0  2  0  0  0  0  0  0
  187.9910  178.9040  140.6760 C   0  0  0  0  0  2  0  0  0  0  0  0
  189.5650  177.6790  142.8290 O   0  0  0  0  0  0  0  0  0  0  0  0
  185.5680  178.4230  143.4810 C   0  0  0  0  0  3  0  0  0  0  0  0
  187.8400  177.3040  146.8460 C   0  0  2  0  0  3  0  0  0  0  0  0
  188.5990  177.6110  145.5280 C   0  0  0  0  0  2  0  0  0  0  0  0
  187.6970  177.4420  144.3280 C   0  0  1  0  0  3  0  0  0  0  0  0
  187.4570  178.3320  141.9960 N   0  0  0  0  0  0  0  0  0  0  0  0
  185.6520  177.9980  145.8780 C   0  0  0  0  0  2  0  0  0  0  0  0
  186.3050  178.0570  144.5080 C   0  0  0  0  0  0  0  0  0  0  0  0
  186.6490  178.2580  146.9540 C   0  0  0  0  0  2  0  0  0  0  0  0
  186.0140  178.2560  142.0820 C   0  0  0  0  0  2  0  0  0  0  0  0
  188.3100  177.8460  142.9890 C   0  0  0  0  0  0  0  0  0  0  0  0
  188.7490  177.5450  147.9910 C   0  0  0  0  0  0  0  0  0  0  0  0
  188.3400  177.9930  149.0620 O   0  0  0  0  0  1  0  0  0  0  0  0
  190.1150  177.2510  147.8210 O   0  0  0  0  0  0  0  0  0  0  0  0
  195.0870  175.6240  136.4980 N   0  0  0  0  0  2  0  0  0  0  0  0
  196.3760  175.2050  136.1380 C   0  0  0  0  0  0  0  0  0  0  0  0
  197.1440  175.6190  134.7120 S   0  0  0  0  0  0  0  0  0  0  0  0
  197.1490  174.4140  137.1450 C   0  0  0  0  0  1  0  0  0  0  0  0
  1  4  2  0  0  0  0
  2 10  1  0  0  0  0
  2 12  2  0  0  0  0
  3  7  1  0  0  0  0
  3 12  1  0  0  0  0
  5 15  1  1  0  0  0
  6  5  1  0  0  0  0
  7  9  1  1  0  0  0
  7  8  1  0  0  0  0
  8  5  1  0  0  0  0
  8  1  1  0  0  0  0
  9  6  1  0  0  0  0
 10 11  1  0  0  0  0
 11 31  1  6  0  0  0
 11 13  1  0  0  0  0
 12 14  1  0  0  0  0
 14 13  1  6  0  0  0
 14  1  1  0  0  0  0
 15 16  1  0  0  0  0
 16 22  1  0  0  0  0
 17 27  2  0  0  0  0
 18 24  2  0  0  0  0
 19 25  1  0  0  0  0
 19 28  1  1  0  0  0
 20 19  1  0  0  0  0
 21 24  1  0  0  0  0
 21 20  1  1  0  0  0
 22 26  1  0  0  0  0
 22 27  1  0  0  0  0
 23 25  1  0  0  0  0
 24 23  1  0  0  0  0
 26 18  1  0  0  0  0
 27 21  1  0  0  0  0
 28 29  1  0  0  0  0
 30 28  2  0  0  0  0
 32 31  1  0  0  0  0
 32 34  1  0  0  0  0
 33 32  2  0  0  0  0
M  END
>  <MODEL>
2

>  <REMARK>
 VINA RESULT:      -9.1      7.372      9.489
  Name = 
  6 active torsions:
  status: ('A' for Active; 'I' for Inactive)
    1  A    between atoms: C_3  and  N_25
    2  A    between atoms: C_7  and  C_11
    3  A    between atoms: C_8  and  C_17
    4  A    between atoms: C_8  and  N_18
    5  A    between atoms: C_10  and  C_17
    6  A    between atoms: N_25  and  C_27
                            x       y       z     vdW  Elec       q    Type
                         _______ _______ _______ _____ _____    ______ ____

>  <TORSDO>
F 6

$$$$
=
 OpenBabel11052415403D

 34 38  0  0  1  0  0  0  0  0999 V2000
  183.5640  179.3060  140.3680 C   0  0  0  0  0  0  0  0  0  0  0  0
  180.1210  178.7200  138.9340 C   0  0  0  0  0  3  0  0  0  0  0  0
  180.9310  178.2360  141.2040 C   0  0  0  0  0  2  0  0  0  0  0  0
  184.7300  179.6030  140.0510 O   0  0  0  0  0  0  0  0  0  0  0  0
  184.1140  179.1730  142.8700 C   0  0  2  0  0  3  0  0  0  0  0  0
  183.1280  179.1410  144.0470 C   0  0  0  0  0  2  0  0  0  0  0  0
  181.8120  179.0700  142.0980 C   0  0  2  0  0  3  0  0  0  0  0  0
  183.1970  178.9550  141.7250 N   0  0  0  0  0  0  0  0  0  0  0  0
  181.7940  178.5710  143.5180 C   0  0  0  0  0  2  0  0  0  0  0  0
  180.3350  179.1480  137.5430 C   0  0  0  0  0  2  0  0  0  0  0  0
  181.2080  180.4660  137.4960 C   0  0  2  0  0  3  0  0  0  0  0  0
  181.1220  178.7650  139.8150 C   0  0  0  0  0  0  0  0  0  0  0  0
  182.3830  180.5210  138.4950 C   0  0  0  0  0  2  0  0  0  0  0  0
  182.4840  179.2580  139.3370 C   0  0  1  0  0  3  0  0  0  0  0  0
  185.0740  177.9850  142.9340 C   0  0  0  0  0  2  0  0  0  0  0  0
  185.6100  177.8100  144.3300 C   0  0  0  0  0  2  0  0  0  0  0  0
  187.3290  178.0840  146.6930 O   0  0  0  0  0  0  0  0  0  0  0  0
  189.0700  177.1440  143.0830 C   0  0  0  0  0  3  0  0  0  0  0  0
  191.5320  176.8430  146.4860 C   0  0  2  0  0  3  0  0  0  0  0  0
  190.0150  177.0810  146.7070 C   0  0  0  0  0  2  0  0  0  0  0  0
  189.3790  177.7100  145.4900 C   0  0  1  0  0  3  0  0  0  0  0  0
  187.1450  177.8140  144.3580 N   0  0  0  0  0  0  0  0  0  0  0  0
  191.2460  176.5880  144.0250 C   0  0  0  0  0  2  0  0  0  0  0  0
  189.8140  177.0740  144.1650 C   0  0  0  0  0  0  0  0  0  0  0  0
  191.7070  175.9240  145.2760 C   0  0  0  0  0  2  0  0  0  0  0  0
  187.7720  177.8500  143.0540 C   0  0  0  0  0  2  0  0  0  0  0  0
  187.8610  177.8680  145.5540 C   0  0  0  0  0  0  0  0  0  0  0  0
  192.0910  176.1690  147.6810 C   0  0  0  0  0  0  0  0  0  0  0  0
  192.7500  176.7800  148.5220 O   0  0  0  0  0  1  0  0  0  0  0  0
  191.8540  174.7890  147.8320 O   0  0  0  0  0  0  0  0  0  0  0  0
  180.4490  181.6560  137.6250 N   0  0  0  0  0  2  0  0  0  0  0  0
  180.5550  182.7530  136.7580 C   0  0  0  0  0  0  0  0  0  0  0  0
  181.2060  184.2350  137.1780 S   0  0  0  0  0  0  0  0  0  0  0  0
  180.1470  182.5480  135.3330 C   0  0  0  0  0  1  0  0  0  0  0  0
  1  8  1  0  0  0  0
  2 12  2  0  0  0  0
  4  1  2  0  0  0  0
  5 15  1  1  0  0  0
  5  6  1  0  0  0  0
  7  3  1  6  0  0  0
  7  9  1  0  0  0  0
  8  7  1  0  0  0  0
  8  5  1  0  0  0  0
  9  6  1  0  0  0  0
 10  2  1  0  0  0  0
 11 10  1  0  0  0  0
 11 31  1  1  0  0  0
 11 13  1  0  0  0  0
 12  3  1  0  0  0  0
 14 13  1  1  0  0  0
 14 12  1  0  0  0  0
 14  1  1  0  0  0  0
 15 16  1  0  0  0  0
 16 22  1  0  0  0  0
 18 24  2  0  0  0  0
 19 20  1  0  0  0  0
 19 28  1  1  0  0  0
 21 27  1  0  0  0  0
 21 20  1  1  0  0  0
 22 27  1  0  0  0  0
 23 24  1  0  0  0  0
 23 25  1  0  0  0  0
 24 21  1  0  0  0  0
 25 19  1  0  0  0  0
 26 18  1  0  0  0  0
 26 22  1  0  0  0  0
 27 17  2  0  0  0  0
 28 30  2  0  0  0  0
 28 29  1  0  0  0  0
 32 33  2  0  0  0  0
 32 31  1  0  0  0  0
 34 32  1  0  0  0  0
M  END
>  <MODEL>
3

>  <REMARK>
 VINA RESULT:      -9.0      1.441      2.260
  Name = 
  6 active torsions:
  status: ('A' for Active; 'I' for Inactive)
    1  A    between atoms: C_3  and  N_25
    2  A    between atoms: C_7  and  C_11
    3  A    between atoms: C_8  and  C_17
    4  A    between atoms: C_8  and  N_18
    5  A    between atoms: C_10  and  C_17
    6  A    between atoms: N_25  and  C_27
                            x       y       z     vdW  Elec       q    Type
                         _______ _______ _______ _____ _____    ______ ____

>  <TORSDO>
F 6

$$$$
=
 OpenBabel11052415403D

 34 38  0  0  1  0  0  0  0  0999 V2000
  181.3250  178.8100  140.8670 C   0  0  0  0  0  0  0  0  0  0  0  0
  181.0040  180.7000  137.6140 C   0  0  0  0  0  3  0  0  0  0  0  0
  183.0310  180.2760  138.9390 C   0  0  0  0  0  2  0  0  0  0  0  0
  180.6570  178.3070  141.7890 O   0  0  0  0  0  0  0  0  0  0  0  0
  183.5640  178.0680  141.8760 C   0  0  2  0  0  3  0  0  0  0  0  0
  184.9370  178.0320  141.1900 C   0  0  0  0  0  2  0  0  0  0  0  0
  183.4630  179.0130  139.6390 C   0  0  2  0  0  3  0  0  0  0  0  0
  182.7730  178.8460  140.8910 N   0  0  0  0  0  0  0  0  0  0  0  0
  184.9110  179.0720  140.0480 C   0  0  0  0  0  2  0  0  0  0  0  0
  179.5480  180.6440  137.4160 C   0  0  0  0  0  2  0  0  0  0  0  0
  178.9930  179.2080  137.7760 C   0  0  2  0  0  3  0  0  0  0  0  0
  181.5610  180.1330  138.6860 C   0  0  0  0  0  0  0  0  0  0  0  0
  179.6130  178.5500  139.0280 C   0  0  0  0  0  2  0  0  0  0  0  0
  180.6480  179.4430  139.6950 C   0  0  1  0  0  3  0  0  0  0  0  0
  183.6260  178.8780  143.1710 C   0  0  0  0  0  2  0  0  0  0  0  0
  185.0250  179.3730  143.4210 C   0  0  0  0  0  2  0  0  0  0  0  0
  187.4130  177.6680  143.3560 O   0  0  0  0  0  0  0  0  0  0  0  0
  185.8300  178.7110  147.0110 C   0  0  0  0  0  3  0  0  0  0  0  0
  189.6060  176.8460  147.0670 C   0  0  2  0  0  3  0  0  0  0  0  0
  189.0290  177.2770  145.6920 C   0  0  0  0  0  2  0  0  0  0  0  0
  187.5240  177.3930  145.7440 C   0  0  1  0  0  3  0  0  0  0  0  0
  185.6810  178.6590  144.6110 N   0  0  0  0  0  0  0  0  0  0  0  0
  187.7260  177.9070  148.3110 C   0  0  0  0  0  2  0  0  0  0  0  0
  187.0020  178.1140  146.9920 C   0  0  0  0  0  0  0  0  0  0  0  0
  189.2020  177.8900  148.1090 C   0  0  0  0  0  2  0  0  0  0  0  0
  184.9230  178.7210  145.8430 C   0  0  0  0  0  2  0  0  0  0  0  0
  186.8680  177.9370  144.4770 C   0  0  0  0  0  0  0  0  0  0  0  0
  191.0840  176.8080  146.9770 C   0  0  0  0  0  0  0  0  0  0  0  0
  191.8000  177.0290  147.9540 O   0  0  0  0  0  1  0  0  0  0  0  0
  191.6610  176.5160  145.7270 O   0  0  0  0  0  0  0  0  0  0  0  0
  179.0590  178.2850  136.7020 N   0  0  0  0  0  2  0  0  0  0  0  0
  179.9210  177.1800  136.6670 C   0  0  0  0  0  0  0  0  0  0  0  0
  179.4830  175.6220  137.0870 S   0  0  0  0  0  0  0  0  0  0  0  0
  181.2970  177.3950  136.1220 C   0  0  0  0  0  1  0  0  0  0  0  0
  1  8  1  0  0  0  0
  1  4  2  0  0  0  0
  2 12  2  0  0  0  0
  5 15  1  1  0  0  0
  6  5  1  0  0  0  0
  7  3  1  1  0  0  0
  7  9  1  0  0  0  0
  7  8  1  0  0  0  0
  8  5  1  0  0  0  0
  9  6  1  0  0  0  0
 10  2  1  0  0  0  0
 10 11  1  0  0  0  0
 11 31  1  6  0  0  0
 11 13  1  0  0  0  0
 12  3  1  0  0  0  0
 12 14  1  0  0  0  0
 14 13  1  6  0  0  0
 14  1  1  0  0  0  0
 15 16  1  0  0  0  0
 16 22  1  0  0  0  0
 17 27  2  0  0  0  0
 19 28  1  6  0  0  0
 19 25  1  0  0  0  0
 20 19  1  0  0  0  0
 21 20  1  6  0  0  0
 21 24  1  0  0  0  0
 22 26  1  0  0  0  0
 24 18  2  0  0  0  0
 24 23  1  0  0  0  0
 25 23  1  0  0  0  0
 26 18  1  0  0  0  0
 27 22  1  0  0  0  0
 27 21  1  0  0  0  0
 28 29  1  0  0  0  0
 30 28  2  0  0  0  0
 32 31  1  0  0  0  0
 32 33  2  0  0  0  0
 34 32  1  0  0  0  0
M  END
>  <MODEL>
4

>  <REMARK>
 VINA RESULT:      -8.8      1.919      2.735
  Name = 
  6 active torsions:
  status: ('A' for Active; 'I' for Inactive)
    1  A    between atoms: C_3  and  N_25
    2  A    between atoms: C_7  and  C_11
    3  A    between atoms: C_8  and  C_17
    4  A    between atoms: C_8  and  N_18
    5  A    between atoms: C_10  and  C_17
    6  A    between atoms: N_25  and  C_27
                            x       y       z     vdW  Elec       q    Type
                         _______ _______ _______ _____ _____    ______ ____

>  <TORSDO>
F 6

$$$$
=
 OpenBabel11052415403D

 34 38  0  0  1  0  0  0  0  0999 V2000
  190.8370  176.8670  138.9930 C   0  0  0  0  0  0  0  0  0  0  0  0
  191.5800  174.1060  136.5270 C   0  0  0  0  0  3  0  0  0  0  0  0
  189.4130  175.1430  137.0500 C   0  0  0  0  0  2  0  0  0  0  0  0
  191.3380  177.5210  139.9260 O   0  0  0  0  0  0  0  0  0  0  0  0
  188.6140  178.1440  139.0860 C   0  0  2  0  0  3  0  0  0  0  0  0
  187.4950  178.1580  138.0340 C   0  0  0  0  0  2  0  0  0  0  0  0
  189.0830  176.5970  137.2710 C   0  0  2  0  0  3  0  0  0  0  0  0
  189.4540  177.0240  138.5940 N   0  0  0  0  0  0  0  0  0  0  0  0
  187.5970  176.8410  137.2320 C   0  0  0  0  0  2  0  0  0  0  0  0
  193.0190  173.9170  136.7640 C   0  0  0  0  0  2  0  0  0  0  0  0
  193.7430  175.3140  136.9220 C   0  0  2  0  0  3  0  0  0  0  0  0
  190.8970  175.0200  137.2190 C   0  0  0  0  0  0  0  0  0  0  0  0
  192.9740  176.3730  137.7400 C   0  0  0  0  0  2  0  0  0  0  0  0
  191.6460  175.8460  138.2600 C   0  0  1  0  0  3  0  0  0  0  0  0
  188.0650  177.7490  140.4570 C   0  0  0  0  0  2  0  0  0  0  0  0
  188.6780  178.5980  141.5390 C   0  0  0  0  0  2  0  0  0  0  0  0
  190.8580  177.1040  142.8170 O   0  0  0  0  0  0  0  0  0  0  0  0
  187.4500  177.8760  144.9950 C   0  0  0  0  0  3  0  0  0  0  0  0
  190.7340  176.3360  147.1350 C   0  0  2  0  0  3  0  0  0  0  0  0
  190.9650  176.7660  145.6620 C   0  0  0  0  0  2  0  0  0  0  0  0
  189.6720  176.7530  144.8810 C   0  0  1  0  0  3  0  0  0  0  0  0
  188.6390  177.8990  142.9050 N   0  0  0  0  0  0  0  0  0  0  0  0
  188.3930  177.1890  147.1330 C   0  0  0  0  0  2  0  0  0  0  0  0
  188.4910  177.3810  145.6290 C   0  0  0  0  0  0  0  0  0  0  0  0
  189.7340  177.3040  147.7710 C   0  0  0  0  0  2  0  0  0  0  0  0
  187.3310  177.8520  143.5220 C   0  0  0  0  0  2  0  0  0  0  0  0
  189.7670  177.2860  143.4530 C   0  0  0  0  0  0  0  0  0  0  0  0
  192.0180  176.4270  147.8690 C   0  0  0  0  0  0  0  0  0  0  0  0
  192.9210  175.6070  147.7010 O   0  0  0  0  0  0  0  0  0  0  0  0
  192.1820  177.4860  148.7820 O   0  0  0  0  0  1  0  0  0  0  0  0
  194.1390  175.8940  135.6910 N   0  0  0  0  0  2  0  0  0  0  0  0
  195.4530  176.2790  135.3890 C   0  0  0  0  0  0  0  0  0  0  0  0
  196.7620  175.2390  135.3500 S   0  0  0  0  0  0  0  0  0  0  0  0
  195.6780  177.7000  134.9800 C   0  0  0  0  0  1  0  0  0  0  0  0
  1  4  2  0  0  0  0
  2 10  1  0  0  0  0
  2 12  2  0  0  0  0
  3 12  1  0  0  0  0
  5 15  1  1  0  0  0
  6  5  1  0  0  0  0
  7  3  1  1  0  0  0
  7  8  1  0  0  0  0
  8  1  1  0  0  0  0
  8  5  1  0  0  0  0
  9  7  1  0  0  0  0
  9  6  1  0  0  0  0
 10 11  1  0  0  0  0
 11 31  1  6  0  0  0
 11 13  1  0  0  0  0
 12 14  1  0  0  0  0
 14 13  1  6  0  0  0
 14  1  1  0  0  0  0
 15 16  1  0  0  0  0
 16 22  1  0  0  0  0
 17 27  2  0  0  0  0
 18 24  2  0  0  0  0
 19 25  1  0  0  0  0
 19 28  1  1  0  0  0
 20 19  1  0  0  0  0
 21 24  1  0  0  0  0
 21 20  1  1  0  0  0
 22 27  1  0  0  0  0
 22 26  1  0  0  0  0
 23 25  1  0  0  0  0
 24 23  1  0  0  0  0
 26 18  1  0  0  0  0
 27 21  1  0  0  0  0
 28 30  1  0  0  0  0
 29 28  2  0  0  0  0
 32 31  1  0  0  0  0
 33 32  2  0  0  0  0
 34 32  1  0  0  0  0
M  END
>  <MODEL>
5

>  <REMARK>
 VINA RESULT:      -8.7      7.176      8.862
  Name = 
  6 active torsions:
  status: ('A' for Active; 'I' for Inactive)
    1  A    between atoms: C_3  and  N_25
    2  A    between atoms: C_7  and  C_11
    3  A    between atoms: C_8  and  C_17
    4  A    between atoms: C_8  and  N_18
    5  A    between atoms: C_10  and  C_17
    6  A    between atoms: N_25  and  C_27
                            x       y       z     vdW  Elec       q    Type
                         _______ _______ _______ _____ _____    ______ ____

>  <TORSDO>
F 6

$$$$
=
 OpenBabel11052415403D

 34 38  0  0  1  0  0  0  0  0999 V2000
  183.1960  178.2490  140.5500 C   0  0  0  0  0  0  0  0  0  0  0  0
  181.0070  176.1540  138.2960 C   0  0  0  0  0  3  0  0  0  0  0  0
  180.5400  176.9360  140.5800 C   0  0  0  0  0  2  0  0  0  0  0  0
  184.3490  178.7010  140.6660 O   0  0  0  0  0  0  0  0  0  0  0  0
  182.3770  179.3570  142.7140 C   0  0  2  0  0  3  0  0  0  0  0  0
  180.9260  179.5490  143.1780 C   0  0  0  0  0  2  0  0  0  0  0  0
  180.8090  178.2840  141.1980 C   0  0  2  0  0  3  0  0  0  0  0  0
  182.1900  178.4200  141.5780 N   0  0  0  0  0  0  0  0  0  0  0  0
  180.0730  178.4540  142.5010 C   0  0  0  0  0  2  0  0  0  0  0  0
  181.8970  175.9910  137.1370 C   0  0  0  0  0  2  0  0  0  0  0  0
  182.6310  177.3510  136.8050 C   0  0  2  0  0  3  0  0  0  0  0  0
  181.4070  176.8530  139.3600 C   0  0  0  0  0  0  0  0  0  0  0  0
  183.1190  178.1590  138.0260 C   0  0  0  0  0  2  0  0  0  0  0  0
  182.8060  177.4610  139.3410 C   0  0  1  0  0  3  0  0  0  0  0  0
  183.1980  178.6370  143.7830 C   0  0  0  0  0  2  0  0  0  0  0  0
  184.5350  179.3040  143.9650 C   0  0  0  0  0  2  0  0  0  0  0  0
  186.8990  177.6330  143.4770 O   0  0  0  0  0  0  0  0  0  0  0  0
  185.9480  178.6250  147.3580 C   0  0  0  0  0  3  0  0  0  0  0  0
  189.7010  176.8120  146.7520 C   0  0  2  0  0  3  0  0  0  0  0  0
  188.8930  177.2460  145.5000 C   0  0  0  0  0  2  0  0  0  0  0  0
  187.4180  177.3410  145.8080 C   0  0  1  0  0  3  0  0  0  0  0  0
  185.3930  178.5900  145.0190 N   0  0  0  0  0  0  0  0  0  0  0  0
  188.0470  177.8370  148.3090 C   0  0  0  0  0  2  0  0  0  0  0  0
  187.1060  178.0440  147.1340 C   0  0  0  0  0  0  0  0  0  0  0  0
  189.4680  177.8420  147.8590 C   0  0  0  0  0  2  0  0  0  0  0  0
  184.8550  178.6310  146.3620 C   0  0  0  0  0  2  0  0  0  0  0  0
  186.5480  177.8860  144.6770 C   0  0  0  0  0  0  0  0  0  0  0  0
  191.1420  176.7960  146.4120 C   0  0  0  0  0  0  0  0  0  0  0  0
  192.0140  176.7710  147.2810 O   0  0  0  0  0  1  0  0  0  0  0  0
  191.4990  176.8170  145.0500 O   0  0  0  0  0  0  0  0  0  0  0  0
  181.8820  178.2120  135.9640 N   0  0  0  0  0  2  0  0  0  0  0  0
  180.7320  178.9030  136.3700 C   0  0  0  0  0  0  0  0  0  0  0  0
  180.7400  180.3150  137.2660 S   0  0  0  0  0  0  0  0  0  0  0  0
  179.4130  178.3920  135.8840 C   0  0  0  0  0  1  0  0  0  0  0  0
  1  4  2  0  0  0  0
  1  8  1  0  0  0  0
  2 12  2  0  0  0  0
  5  6  1  0  0  0  0
  5 15  1  1  0  0  0
  7  3  1  1  0  0  0
  7  8  1  0  0  0  0
  7  9  1  0  0  0  0
  8  5  1  0  0  0  0
  9  6  1  0  0  0  0
 10  2  1  0  0  0  0
 11 31  1  1  0  0  0
 11 10  1  0  0  0  0
 11 13  1  0  0  0  0
 12  3  1  0  0  0  0
 14 13  1  6  0  0  0
 14 12  1  0  0  0  0
 14  1  1  0  0  0  0
 15 16  1  0  0  0  0
 16 22  1  0  0  0  0
 17 27  2  0  0  0  0
 19 28  1  6  0  0  0
 19 25  1  0  0  0  0
 20 19  1  0  0  0  0
 21 20  1  6  0  0  0
 21 24  1  0  0  0  0
 22 26  1  0  0  0  0
 24 18  2  0  0  0  0
 24 23  1  0  0  0  0
 25 23  1  0  0  0  0
 26 18  1  0  0  0  0
 27 22  1  0  0  0  0
 27 21  1  0  0  0  0
 28 29  1  0  0  0  0
 30 28  2  0  0  0  0
 31 32  1  0  0  0  0
 32 33  2  0  0  0  0
 34 32  1  0  0  0  0
M  END
>  <MODEL>
6

>  <REMARK>
 VINA RESULT:      -8.6      1.462      1.658
  Name = 
  6 active torsions:
  status: ('A' for Active; 'I' for Inactive)
    1  A    between atoms: C_3  and  N_25
    2  A    between atoms: C_7  and  C_11
    3  A    between atoms: C_8  and  C_17
    4  A    between atoms: C_8  and  N_18
    5  A    between atoms: C_10  and  C_17
    6  A    between atoms: N_25  and  C_27
                            x       y       z     vdW  Elec       q    Type
                         _______ _______ _______ _____ _____    ______ ____

>  <TORSDO>
F 6

$$$$
=
 OpenBabel11052415403D

 34 38  0  0  1  0  0  0  0  0999 V2000
  183.4500  179.1020  140.9540 C   0  0  0  0  0  0  0  0  0  0  0  0
  180.1870  178.2640  139.2490 C   0  0  0  0  0  3  0  0  0  0  0  0
  180.7630  178.0520  141.6290 C   0  0  0  0  0  2  0  0  0  0  0  0
  184.6370  179.3980  140.7270 O   0  0  0  0  0  0  0  0  0  0  0  0
  183.7370  179.2560  143.4990 C   0  0  2  0  0  3  0  0  0  0  0  0
  182.6330  179.3230  144.5650 C   0  0  0  0  0  2  0  0  0  0  0  0
  181.5300  179.0030  142.5110 C   0  0  2  0  0  3  0  0  0  0  0  0
  182.9480  178.8890  142.2960 N   0  0  0  0  0  0  0  0  0  0  0  0
  181.3720  178.6590  143.9690 C   0  0  0  0  0  2  0  0  0  0  0  0
  180.5380  178.5460  137.8480 C   0  0  0  0  0  2  0  0  0  0  0  0
  181.3870  179.8760  137.7460 C   0  0  2  0  0  3  0  0  0  0  0  0
  181.0890  178.4340  140.2170 C   0  0  0  0  0  0  0  0  0  0  0  0
  182.4500  180.0730  138.8470 C   0  0  0  0  0  2  0  0  0  0  0  0
  182.4840  178.9120  139.8290 C   0  0  1  0  0  3  0  0  0  0  0  0
  184.7060  178.1110  143.7910 C   0  0  0  0  0  2  0  0  0  0  0  0
  185.6230  178.4690  144.9300 C   0  0  0  0  0  2  0  0  0  0  0  0
  186.7750  177.4400  142.4330 O   0  0  0  0  0  0  0  0  0  0  0  0
  189.2250  177.8530  145.7160 C   0  0  0  0  0  3  0  0  0  0  0  0
  191.1260  177.0190  142.0520 C   0  0  2  0  0  3  0  0  0  0  0  0
  189.6110  177.3570  142.0240 C   0  0  0  0  0  2  0  0  0  0  0  0
  188.9660  177.0810  143.3610 C   0  0  1  0  0  3  0  0  0  0  0  0
  187.0300  177.8870  144.7350 N   0  0  0  0  0  0  0  0  0  0  0  0
  191.2990  177.4970  144.4910 C   0  0  0  0  0  2  0  0  0  0  0  0
  189.7840  177.5780  144.5580 C   0  0  0  0  0  0  0  0  0  0  0  0
  191.7910  177.8700  143.1350 C   0  0  0  0  0  2  0  0  0  0  0  0
  187.7760  177.6890  145.9590 C   0  0  0  0  0  2  0  0  0  0  0  0
  187.5030  177.5020  143.4790 C   0  0  0  0  0  0  0  0  0  0  0  0
  191.7200  177.3670  140.7400 C   0  0  0  0  0  0  0  0  0  0  0  0
  192.9340  177.5030  140.5930 O   0  0  0  0  0  1  0  0  0  0  0  0
  190.8490  177.5480  139.6490 O   0  0  0  0  0  0  0  0  0  0  0  0
  180.5970  181.0510  137.6640 N   0  0  0  0  0  2  0  0  0  0  0  0
  180.8000  182.0700  136.7230 C   0  0  0  0  0  0  0  0  0  0  0  0
  181.1430  183.6610  137.1060 S   0  0  0  0  0  0  0  0  0  0  0  0
  180.8050  181.6830  135.2780 C   0  0  0  0  0  1  0  0  0  0  0  0
  1  8  1  0  0  0  0
  2 12  2  0  0  0  0
  4  1  2  0  0  0  0
  5 15  1  1  0  0  0
  5  6  1  0  0  0  0
  7  3  1  6  0  0  0
  7  9  1  0  0  0  0
  8  7  1  0  0  0  0
  8  5  1  0  0  0  0
  9  6  1  0  0  0  0
 10  2  1  0  0  0  0
 11 31  1  1  0  0  0
 11 10  1  0  0  0  0
 11 13  1  0  0  0  0
 12  3  1  0  0  0  0
 14 13  1  1  0  0  0
 14 12  1  0  0  0  0
 14  1  1  0  0  0  0
 15 16  1  0  0  0  0
 17 27  2  0  0  0  0
 18 26  1  0  0  0  0
 19 28  1  6  0  0  0
 19 25  1  0  0  0  0
 20 19  1  0  0  0  0
 21 20  1  6  0  0  0
 21 27  1  0  0  0  0
 21 24  1  0  0  0  0
 22 16  1  0  0  0  0
 22 26  1  0  0  0  0
 23 24  1  0  0  0  0
 24 18  2  0  0  0  0
 25 23  1  0  0  0  0
 27 22  1  0  0  0  0
 29 28  1  0  0  0  0
 30 28  2  0  0  0  0
 32 33  2  0  0  0  0
 32 31  1  0  0  0  0
 34 32  1  0  0  0  0
M  END
>  <MODEL>
7

>  <REMARK>
 VINA RESULT:      -7.7      2.258      3.058
  Name = 
  6 active torsions:
  status: ('A' for Active; 'I' for Inactive)
    1  A    between atoms: C_3  and  N_25
    2  A    between atoms: C_7  and  C_11
    3  A    between atoms: C_8  and  C_17
    4  A    between atoms: C_8  and  N_18
    5  A    between atoms: C_10  and  C_17
    6  A    between atoms: N_25  and  C_27
                            x       y       z     vdW  Elec       q    Type
                         _______ _______ _______ _____ _____    ______ ____

>  <TORSDO>
F 6

$$$$
=
 OpenBabel11052415403D

 34 38  0  0  1  0  0  0  0  0999 V2000
  182.0500  176.7980  139.4160 C   0  0  0  0  0  0  0  0  0  0  0  0
  179.8880  178.3510  136.7380 C   0  0  0  0  0  3  0  0  0  0  0  0
  181.6100  179.4280  138.1240 C   0  0  0  0  0  2  0  0  0  0  0  0
  182.1900  175.7680  140.1010 O   0  0  0  0  0  0  0  0  0  0  0  0
  184.1040  177.9450  140.4420 C   0  0  2  0  0  3  0  0  0  0  0  0
  184.8410  179.1880  139.9230 C   0  0  0  0  0  2  0  0  0  0  0  0
  182.9690  178.9140  138.5220 C   0  0  2  0  0  3  0  0  0  0  0  0
  182.8770  177.9720  139.6070 N   0  0  0  0  0  0  0  0  0  0  0  0
  183.8340  180.0100  139.0880 C   0  0  0  0  0  2  0  0  0  0  0  0
  179.0470  177.2000  136.3750 C   0  0  0  0  0  2  0  0  0  0  0  0
  179.9150  175.8810  136.2940 C   0  0  2  0  0  3  0  0  0  0  0  0
  180.8220  178.2310  137.6850 C   0  0  0  0  0  0  0  0  0  0  0  0
  180.9830  175.7200  137.3960 C   0  0  0  0  0  2  0  0  0  0  0  0
  180.9790  176.8820  138.3780 C   0  0  1  0  0  3  0  0  0  0  0  0
  183.6820  178.1330  141.8990 C   0  0  0  0  0  2  0  0  0  0  0  0
  184.6090  179.0900  142.6000 C   0  0  0  0  0  2  0  0  0  0  0  0
  187.1880  177.7240  142.2870 O   0  0  0  0  0  0  0  0  0  0  0  0
  185.7140  178.3120  146.0850 C   0  0  0  0  0  3  0  0  0  0  0  0
  189.6940  176.9650  145.8080 C   0  0  2  0  0  3  0  0  0  0  0  0
  188.9830  177.4020  144.4990 C   0  0  0  0  0  2  0  0  0  0  0  0
  187.4820  177.3140  144.6390 C   0  0  1  0  0  3  0  0  0  0  0  0
  185.4240  178.3940  143.7000 N   0  0  0  0  0  0  0  0  0  0  0  0
  187.7750  177.6860  147.2220 C   0  0  0  0  0  2  0  0  0  0  0  0
  186.9500  177.8780  145.9620 C   0  0  0  0  0  0  0  0  0  0  0  0
  189.2260  177.8780  146.9420 C   0  0  0  0  0  2  0  0  0  0  0  0
  184.7430  178.2760  144.9720 C   0  0  0  0  0  2  0  0  0  0  0  0
  186.6830  177.8460  143.4520 C   0  0  0  0  0  0  0  0  0  0  0  0
  191.1570  177.1300  145.6370 C   0  0  0  0  0  0  0  0  0  0  0  0
  191.6300  177.9370  144.8370 O   0  0  0  0  0  0  0  0  0  0  0  0
  192.0070  176.3240  146.4180 O   0  0  0  0  0  1  0  0  0  0  0  0
  180.5330  175.6820  135.0340 N   0  0  0  0  0  2  0  0  0  0  0  0
  181.9190  175.7160  134.8230 C   0  0  0  0  0  0  0  0  0  0  0  0
  182.8210  177.1160  134.6700 S   0  0  0  0  0  0  0  0  0  0  0  0
  182.6500  174.4110  134.8340 C   0  0  0  0  0  1  0  0  0  0  0  0
  1  8  1  0  0  0  0
  1  4  2  0  0  0  0
  2 12  2  0  0  0  0
  5 15  1  1  0  0  0
  6  5  1  0  0  0  0
  7  3  1  1  0  0  0
  7  9  1  0  0  0  0
  7  8  1  0  0  0  0
  8  5  1  0  0  0  0
  9  6  1  0  0  0  0
 10  2  1  0  0  0  0
 11 31  1  6  0  0  0
 11 10  1  0  0  0  0
 11 13  1  0  0  0  0
 12  3  1  0  0  0  0
 12 14  1  0  0  0  0
 14 13  1  6  0  0  0
 14  1  1  0  0  0  0
 15 16  1  0  0  0  0
 16 22  1  0  0  0  0
 17 27  2  0  0  0  0
 19 28  1  6  0  0  0
 19 25  1  0  0  0  0
 20 19  1  0  0  0  0
 21 20  1  6  0  0  0
 21 24  1  0  0  0  0
 22 26  1  0  0  0  0
 24 18  2  0  0  0  0
 24 23  1  0  0  0  0
 25 23  1  0  0  0  0
 26 18  1  0  0  0  0
 27 22  1  0  0  0  0
 27 21  1  0  0  0  0
 28 30  1  0  0  0  0
 29 28  2  0  0  0  0
 32 34  1  0  0  0  0
 32 31  1  0  0  0  0
 33 32  2  0  0  0  0
M  END
>  <MODEL>
8

>  <REMARK>
 VINA RESULT:      -7.6      2.416      3.368
  Name = 
  6 active torsions:
  status: ('A' for Active; 'I' for Inactive)
    1  A    between atoms: C_3  and  N_25
    2  A    between atoms: C_7  and  C_11
    3  A    between atoms: C_8  and  C_17
    4  A    between atoms: C_8  and  N_18
    5  A    between atoms: C_10  and  C_17
    6  A    between atoms: N_25  and  C_27
                            x       y       z     vdW  Elec       q    Type
                         _______ _______ _______ _____ _____    ______ ____

>  <TORSDO>
F 6

$$$$
=
 OpenBabel11052415403D

 34 38  0  0  1  0  0  0  0  0999 V2000
  183.2190  176.2740  138.1510 C   0  0  0  0  0  0  0  0  0  0  0  0
  181.9320  175.9130  134.6200 C   0  0  0  0  0  3  0  0  0  0  0  0
  183.7870  177.3070  135.4330 C   0  0  0  0  0  2  0  0  0  0  0  0
  182.9500  175.9990  139.3340 O   0  0  0  0  0  0  0  0  0  0  0  0
  185.4390  177.4070  138.7560 C   0  0  2  0  0  3  0  0  0  0  0  0
  186.5880  177.7850  137.8100 C   0  0  0  0  0  2  0  0  0  0  0  0
  184.8600  176.9720  136.4360 C   0  0  2  0  0  3  0  0  0  0  0  0
  184.3680  177.0760  137.7840 N   0  0  0  0  0  0  0  0  0  0  0  0
  185.9860  177.9710  136.4000 C   0  0  0  0  0  2  0  0  0  0  0  0
  180.7920  175.0110  134.8420 C   0  0  0  0  0  2  0  0  0  0  0  0
  181.1780  173.8710  135.8680 C   0  0  2  0  0  3  0  0  0  0  0  0
  182.6880  176.3100  135.6450 C   0  0  0  0  0  0  0  0  0  0  0  0
  182.0330  174.3220  137.0710 C   0  0  0  0  0  2  0  0  0  0  0  0
  182.3290  175.8140  137.0420 C   0  0  1  0  0  3  0  0  0  0  0  0
  184.9800  178.6210  139.5640 C   0  0  0  0  0  2  0  0  0  0  0  0
  186.0420  179.0380  140.5460 C   0  0  0  0  0  2  0  0  0  0  0  0
  187.8620  177.6480  142.3820 O   0  0  0  0  0  0  0  0  0  0  0  0
  184.2110  178.9130  143.8020 C   0  0  0  0  0  3  0  0  0  0  0  0
  186.9700  177.5520  146.6770 C   0  0  2  0  0  3  0  0  0  0  0  0
  187.4730  177.7410  145.2210 C   0  0  0  0  0  2  0  0  0  0  0  0
  186.3290  177.6750  144.2360 C   0  0  1  0  0  3  0  0  0  0  0  0
  185.7260  178.5580  141.9690 N   0  0  0  0  0  0  0  0  0  0  0  0
  184.7330  178.5110  146.1470 C   0  0  0  0  0  2  0  0  0  0  0  0
  185.0920  178.4680  144.6710 C   0  0  0  0  0  0  0  0  0  0  0  0
  185.9560  178.6540  146.9860 C   0  0  0  0  0  2  0  0  0  0  0  0
  184.3340  178.6710  142.3490 C   0  0  0  0  0  2  0  0  0  0  0  0
  186.6980  177.9780  142.7860 C   0  0  0  0  0  0  0  0  0  0  0  0
  188.1190  177.6880  147.6030 C   0  0  0  0  0  0  0  0  0  0  0  0
  188.0820  178.4400  148.5770 O   0  0  0  0  0  1  0  0  0  0  0  0
  189.2750  176.9300  147.3350 O   0  0  0  0  0  0  0  0  0  0  0  0
  181.8010  172.7500  135.2660 N   0  0  0  0  0  2  0  0  0  0  0  0
  181.6960  171.4380  135.7510 C   0  0  0  0  0  0  0  0  0  0  0  0
  180.3110  170.5040  135.6690 S   0  0  0  0  0  0  0  0  0  0  0  0
  182.9380  170.8010  136.2880 C   0  0  0  0  0  1  0  0  0  0  0  0
  1  4  2  0  0  0  0
  2 10  1  0  0  0  0
  2 12  2  0  0  0  0
  3 12  1  0  0  0  0
  5 15  1  1  0  0  0
  6  5  1  0  0  0  0
  7  3  1  6  0  0  0
  7  8  1  0  0  0  0
  8  1  1  0  0  0  0
  8  5  1  0  0  0  0
  9  7  1  0  0  0  0
  9  6  1  0  0  0  0
 10 11  1  0  0  0  0
 11 31  1  6  0  0  0
 11 13  1  0  0  0  0
 12 14  1  0  0  0  0
 14 13  1  6  0  0  0
 14  1  1  0  0  0  0
 15 16  1  0  0  0  0
 16 22  1  0  0  0  0
 17 27  2  0  0  0  0
 18 24  2  0  0  0  0
 19 25  1  0  0  0  0
 19 28  1  1  0  0  0
 20 19  1  0  0  0  0
 21 24  1  0  0  0  0
 21 20  1  1  0  0  0
 22 26  1  0  0  0  0
 22 27  1  0  0  0  0
 23 25  1  0  0  0  0
 24 23  1  0  0  0  0
 26 18  1  0  0  0  0
 27 21  1  0  0  0  0
 28 29  1  0  0  0  0
 30 28  2  0  0  0  0
 31 32  1  0  0  0  0
 32 34  1  0  0  0  0
 33 32  2  0  0  0  0
M  END
>  <MODEL>
9

>  <REMARK>
 VINA RESULT:      -7.2      4.297      5.599
  Name = 
  6 active torsions:
  status: ('A' for Active; 'I' for Inactive)
    1  A    between atoms: C_3  and  N_25
    2  A    between atoms: C_7  and  C_11
    3  A    between atoms: C_8  and  C_17
    4  A    between atoms: C_8  and  N_18
    5  A    between atoms: C_10  and  C_17
    6  A    between atoms: N_25  and  C_27
                            x       y       z     vdW  Elec       q    Type
                         _______ _______ _______ _____ _____    ______ ____

>  <TORSDO>
F 6

$$$$
