=
 OpenBabel11052416503D

 32 38  0  0  1  0  0  0  0  0999 V2000
  182.5560  179.1250  143.4100 C   0  0  0  0  0  3  0  0  0  0  0  0
  187.4070  177.6350  143.9020 C   0  0  0  0  0  0  0  0  0  0  0  0
  188.3340  178.1030  148.7690 C   0  0  0  0  0  3  0  0  0  0  0  0
  189.6580  177.7210  148.5470 C   0  0  0  0  0  3  0  0  0  0  0  0
  189.2480  176.8540  142.3500 C   0  0  0  0  0  0  0  0  0  0  0  0
  188.3250  177.3270  141.2520 C   0  0  0  0  0  0  0  0  0  0  0  0
  185.2020  178.2800  143.0260 C   0  0  0  0  0  0  0  0  0  0  0  0
  185.7560  178.8080  145.4160 C   0  0  0  0  0  2  0  0  0  0  0  0
  191.0960  177.4720  140.8090 C   0  0  0  0  0  0  0  0  0  0  0  0
  183.4560  179.1450  144.4790 C   0  0  0  0  0  3  0  0  0  0  0  0
  187.4260  178.1190  147.7080 C   0  0  0  0  0  3  0  0  0  0  0  0
  186.8090  177.6960  145.3030 C   0  0  2  0  0  3  0  0  0  0  0  0
  187.8330  177.7750  146.4080 C   0  0  0  0  0  0  0  0  0  0  0  0
  189.6050  176.9580  144.8520 C   0  0  0  0  0  0  0  0  0  0  0  0
  190.1550  177.4020  139.6690 C   0  0  0  0  0  3  0  0  0  0  0  0
  184.7720  178.7140  144.2940 C   0  0  0  0  0  0  0  0  0  0  0  0
  188.8340  177.3510  139.8730 C   0  0  0  0  0  2  0  0  0  0  0  0
  184.2950  178.2700  141.9580 C   0  0  0  0  0  3  0  0  0  0  0  0
  182.9730  178.6810  142.1510 C   0  0  0  0  0  0  0  0  0  0  0  0
  190.0680  177.3490  147.2660 C   0  0  0  0  0  3  0  0  0  0  0  0
  189.1630  177.3670  146.1940 C   0  0  0  0  0  0  0  0  0  0  0  0
  190.7120  176.3660  144.7220 O   0  0  0  0  0  0  0  0  0  0  0  0
  186.6040  177.8450  142.8350 C   0  0  0  0  0  0  0  0  0  0  0  0
  187.1210  177.7310  141.5040 N   0  0  0  0  0  0  0  0  0  0  0  0
  192.7710  177.8870  140.5200 Cl  0  0  0  0  0  0  0  0  0  0  0  0
  188.7800  177.2260  143.7000 N   0  0  0  0  0  0  0  0  0  0  0  0
  190.6660  177.2960  142.0650 C   0  0  0  0  0  3  0  0  0  0  0  0
  182.0220  178.6870  141.0060 C   0  0  0  0  0  2  0  0  0  0  0  0
  180.1430  180.1910  140.5090 C   0  0  1  0  0  3  0  0  0  0  0  0
  180.7220  179.1890  141.4430 N   0  0  0  0  0  0  0  0  0  0  0  0
  181.0120  180.5190  139.4600 O   0  0  0  0  0  1  0  0  0  0  0  0
  179.7550  178.7880  140.4110 C   0  0  0  0  0  2  0  0  0  0  0  0
  1 10  1  0  0  0  0
  2 12  1  0  0  0  0
  4  3  1  0  0  0  0
  5 26  1  0  0  0  0
  6 24  2  0  0  0  0
  6  5  1  0  0  0  0
  7 16  1  0  0  0  0
  9 27  1  0  0  0  0
 11  3  2  0  0  0  0
 12  8  1  6  0  0  0
 12 13  1  0  0  0  0
 13 11  1  0  0  0  0
 14 21  1  0  0  0  0
 15 17  1  0  0  0  0
 15  9  2  0  0  0  0
 16 10  2  0  0  0  0
 16  8  1  0  0  0  0
 17  6  1  0  0  0  0
 18 19  1  0  0  0  0
 18  7  2  0  0  0  0
 19  1  2  0  0  0  0
 20  4  2  0  0  0  0
 21 13  2  0  0  0  0
 21 20  1  0  0  0  0
 22 14  2  0  0  0  0
 23  7  1  0  0  0  0
 23  2  2  0  0  0  0
 24 23  1  0  0  0  0
 25  9  1  0  0  0  0
 26  2  1  0  0  0  0
 26 14  1  0  0  0  0
 27  5  2  0  0  0  0
 28 30  1  0  0  0  0
 28 19  1  0  0  0  0
 29 31  1  6  0  0  0
 29 30  1  0  0  0  0
 32 29  1  0  0  0  0
 32 30  1  0  0  0  0
M  END
>  <MODEL>
1

>  <REMARK>
 VINA RESULT:     -11.9      0.000      0.000
  Name = 
  2 active torsions:
  status: ('A' for Active; 'I' for Inactive)
    1  A    between atoms: N_10  and  C_19
    2  A    between atoms: C_19  and  C_24
                            x       y       z     vdW  Elec       q    Type
                         _______ _______ _______ _____ _____    ______ ____

>  <TORSDO>
F 2

$$$$
=
 OpenBabel11052416503D

 32 38  0  0  1  0  0  0  0  0999 V2000
  188.5510  177.3550  147.8310 C   0  0  0  0  0  3  0  0  0  0  0  0
  186.8550  178.2750  143.1120 C   0  0  0  0  0  0  0  0  0  0  0  0
  181.9410  178.8330  143.6740 C   0  0  0  0  0  3  0  0  0  0  0  0
  181.8060  178.9770  142.2930 C   0  0  0  0  0  3  0  0  0  0  0  0
  187.8720  178.4290  140.7990 C   0  0  0  0  0  0  0  0  0  0  0  0
  189.0960  177.8370  141.4550 C   0  0  0  0  0  0  0  0  0  0  0  0
  188.2400  177.7370  145.0700 C   0  0  0  0  0  0  0  0  0  0  0  0
  185.7420  177.7100  145.3110 C   0  0  0  0  0  2  0  0  0  0  0  0
  188.6210  177.2350  138.7520 C   0  0  0  0  0  0  0  0  0  0  0  0
  187.2700  177.4660  147.2830 C   0  0  0  0  0  3  0  0  0  0  0  0
  183.2100  178.6900  144.2390 C   0  0  0  0  0  3  0  0  0  0  0  0
  185.7230  178.6190  144.0730 C   0  0  2  0  0  3  0  0  0  0  0  0
  184.3590  178.6660  143.4300 C   0  0  0  0  0  0  0  0  0  0  0  0
  185.4080  178.8630  141.1740 C   0  0  0  0  0  0  0  0  0  0  0  0
  189.9900  177.1610  139.3100 C   0  0  0  0  0  3  0  0  0  0  0  0
  187.1120  177.6680  145.9090 C   0  0  0  0  0  0  0  0  0  0  0  0
  190.2190  177.4290  140.6000 C   0  0  0  0  0  2  0  0  0  0  0  0
  189.5200  177.6160  145.6270 C   0  0  0  0  0  3  0  0  0  0  0  0
  189.6770  177.4370  147.0040 C   0  0  0  0  0  0  0  0  0  0  0  0
  182.9410  178.9860  141.4810 C   0  0  0  0  0  3  0  0  0  0  0  0
  184.2190  178.8370  142.0400 C   0  0  0  0  0  0  0  0  0  0  0  0
  185.2930  179.2590  139.9810 O   0  0  0  0  0  0  0  0  0  0  0  0
  188.0610  177.9300  143.6140 C   0  0  0  0  0  0  0  0  0  0  0  0
  189.1620  177.6630  142.7370 N   0  0  0  0  0  0  0  0  0  0  0  0
  188.2930  176.5510  137.1760 Cl  0  0  0  0  0  0  0  0  0  0  0  0
  186.6900  178.4440  141.6850 N   0  0  0  0  0  0  0  0  0  0  0  0
  187.6160  177.7530  139.4700 C   0  0  0  0  0  3  0  0  0  0  0  0
  191.0390  177.2880  147.5840 C   0  0  0  0  0  2  0  0  0  0  0  0
  192.9090  175.6960  147.6670 C   0  0  1  0  0  3  0  0  0  0  0  0
  191.7650  176.2340  146.8830 N   0  0  0  0  0  0  0  0  0  0  0  0
  193.1120  176.3840  148.8700 O   0  0  0  0  0  1  0  0  0  0  0  0
  191.6190  175.0170  147.6950 C   0  0  0  0  0  2  0  0  0  0  0  0
  2 23  2  0  0  0  0
  2 12  1  0  0  0  0
  3 11  1  0  0  0  0
  4  3  2  0  0  0  0
  5  6  1  0  0  0  0
  5 26  1  0  0  0  0
  6 24  2  0  0  0  0
  7 18  2  0  0  0  0
  7 16  1  0  0  0  0
  8 16  1  0  0  0  0
  9 15  2  0  0  0  0
  9 27  1  0  0  0  0
 10  1  1  0  0  0  0
 12  8  1  1  0  0  0
 13 12  1  0  0  0  0
 13 11  2  0  0  0  0
 14 26  1  0  0  0  0
 14 21  1  0  0  0  0
 15 17  1  0  0  0  0
 16 10  2  0  0  0  0
 17  6  1  0  0  0  0
 18 19  1  0  0  0  0
 19 28  1  0  0  0  0
 19  1  2  0  0  0  0
 20 21  2  0  0  0  0
 20  4  1  0  0  0  0
 21 13  1  0  0  0  0
 22 14  2  0  0  0  0
 23  7  1  0  0  0  0
 24 23  1  0  0  0  0
 25  9  1  0  0  0  0
 26  2  1  0  0  0  0
 27  5  2  0  0  0  0
 29 32  1  0  0  0  0
 29 31  1  1  0  0  0
 30 28  1  0  0  0  0
 30 29  1  0  0  0  0
 30 32  1  0  0  0  0
M  END
>  <MODEL>
2

>  <REMARK>
 VINA RESULT:     -11.8      2.172      7.376
  Name = 
  2 active torsions:
  status: ('A' for Active; 'I' for Inactive)
    1  A    between atoms: N_10  and  C_19
    2  A    between atoms: C_19  and  C_24
                            x       y       z     vdW  Elec       q    Type
                         _______ _______ _______ _____ _____    ______ ____

>  <TORSDO>
F 2

$$$$
=
 OpenBabel11052416503D

 32 38  0  0  1  0  0  0  0  0999 V2000
  190.4940  177.0240  139.8440 C   0  0  0  0  0  3  0  0  0  0  0  0
  187.1250  178.2160  143.4800 C   0  0  0  0  0  0  0  0  0  0  0  0
  189.4220  176.9790  147.7180 C   0  0  0  0  0  3  0  0  0  0  0  0
  188.2780  177.3340  148.4340 C   0  0  0  0  0  3  0  0  0  0  0  0
  184.7710  179.1450  143.5610 C   0  0  0  0  0  0  0  0  0  0  0  0
  184.7710  178.8820  142.0740 C   0  0  0  0  0  0  0  0  0  0  0  0
  188.2500  177.8050  141.3330 C   0  0  0  0  0  0  0  0  0  0  0  0
  189.2830  176.8980  143.4340 C   0  0  0  0  0  2  0  0  0  0  0  0
  182.3310  178.6900  143.4530 C   0  0  0  0  0  0  0  0  0  0  0  0
  190.4620  176.8040  141.2250 C   0  0  0  0  0  3  0  0  0  0  0  0
  189.4620  177.1620  146.3350 C   0  0  0  0  0  3  0  0  0  0  0  0
  188.4630  177.9700  144.1680 C   0  0  2  0  0  3  0  0  0  0  0  0
  188.3540  177.6810  145.6450 C   0  0  0  0  0  0  0  0  0  0  0  0
  186.0530  178.6490  145.6850 C   0  0  0  0  0  0  0  0  0  0  0  0
  182.3530  178.9710  142.0010 C   0  0  0  0  0  3  0  0  0  0  0  0
  189.3500  177.2020  141.9710 C   0  0  0  0  0  0  0  0  0  0  0  0
  183.5110  179.0460  141.3350 C   0  0  0  0  0  2  0  0  0  0  0  0
  188.2870  178.0140  139.9480 C   0  0  0  0  0  3  0  0  0  0  0  0
  189.4090  177.6350  139.2070 C   0  0  0  0  0  0  0  0  0  0  0  0
  187.1810  177.8780  147.7660 C   0  0  0  0  0  3  0  0  0  0  0  0
  187.2110  178.0600  146.3750 C   0  0  0  0  0  0  0  0  0  0  0  0
  185.1490  179.2060  146.3650 O   0  0  0  0  0  0  0  0  0  0  0  0
  187.0680  178.2040  142.1300 C   0  0  0  0  0  0  0  0  0  0  0  0
  185.8400  178.4960  141.4530 N   0  0  0  0  0  0  0  0  0  0  0  0
  180.8220  178.2530  144.2240 Cl  0  0  0  0  0  0  0  0  0  0  0  0
  185.9570  178.5920  144.2470 N   0  0  0  0  0  0  0  0  0  0  0  0
  183.4630  178.6920  144.1700 C   0  0  0  0  0  3  0  0  0  0  0  0
  189.4310  177.8420  137.7330 C   0  0  0  0  0  2  0  0  0  0  0  0
  187.2950  178.0260  136.5320 C   0  0  1  0  0  3  0  0  0  0  0  0
  188.3220  177.1210  137.1140 N   0  0  0  0  0  0  0  0  0  0  0  0
  187.5560  179.3780  136.7910 O   0  0  0  0  0  1  0  0  0  0  0  0
  188.3450  177.4710  135.6870 C   0  0  0  0  0  2  0  0  0  0  0  0
  1 10  1  0  0  0  0
  2 12  1  0  0  0  0
  2 26  1  0  0  0  0
  3  4  1  0  0  0  0
  5 27  2  0  0  0  0
  5 26  1  0  0  0  0
  6  5  1  0  0  0  0
  7 16  1  0  0  0  0
  7 23  1  0  0  0  0
  9 27  1  0  0  0  0
  9 25  1  0  0  0  0
 10 16  2  0  0  0  0
 11  3  2  0  0  0  0
 12  8  1  6  0  0  0
 12 13  1  0  0  0  0
 13 11  1  0  0  0  0
 13 21  2  0  0  0  0
 14 22  2  0  0  0  0
 14 21  1  0  0  0  0
 15  9  2  0  0  0  0
 16  8  1  0  0  0  0
 17 15  1  0  0  0  0
 17  6  1  0  0  0  0
 18  7  2  0  0  0  0
 19  1  2  0  0  0  0
 19 18  1  0  0  0  0
 20  4  2  0  0  0  0
 21 20  1  0  0  0  0
 23  2  2  0  0  0  0
 24  6  2  0  0  0  0
 24 23  1  0  0  0  0
 26 14  1  0  0  0  0
 28 19  1  0  0  0  0
 29 31  1  1  0  0  0
 29 30  1  0  0  0  0
 30 28  1  0  0  0  0
 32 29  1  0  0  0  0
 32 30  1  0  0  0  0
M  END
>  <MODEL>
3

>  <REMARK>
 VINA RESULT:     -11.4      3.225      6.105
  Name = 
  2 active torsions:
  status: ('A' for Active; 'I' for Inactive)
    1  A    between atoms: N_10  and  C_19
    2  A    between atoms: C_19  and  C_24
                            x       y       z     vdW  Elec       q    Type
                         _______ _______ _______ _____ _____    ______ ____

>  <TORSDO>
F 2

$$$$
=
 OpenBabel11052416503D

 32 38  0  0  1  0  0  0  0  0999 V2000
  189.6990  177.7980  138.5570 C   0  0  0  0  0  3  0  0  0  0  0  0
  187.8720  177.5860  143.3120 C   0  0  0  0  0  0  0  0  0  0  0  0
  183.2230  179.3150  142.9070 C   0  0  0  0  0  3  0  0  0  0  0  0
  183.0670  179.2020  144.2890 C   0  0  0  0  0  3  0  0  0  0  0  0
  188.7610  176.9160  145.5860 C   0  0  2  0  0  3  0  0  0  0  0  0
  190.1060  176.9150  144.9000 C   0  0  0  0  0  0  0  0  0  0  0  0
  189.3080  177.5070  141.3190 C   0  0  0  0  0  0  0  0  0  0  0  0
  187.0860  178.6620  141.1640 C   0  0  0  0  0  2  0  0  0  0  0  0
  190.0110  177.5780  147.6290 C   0  0  0  0  0  0  0  0  0  0  0  0
  188.5170  178.2570  139.1470 C   0  0  0  0  0  3  0  0  0  0  0  0
  184.4080  178.8910  142.3020 C   0  0  0  0  0  3  0  0  0  0  0  0
  186.6870  177.8180  142.3840 C   0  0  2  0  0  3  0  0  0  0  0  0
  185.4620  178.3690  143.0720 C   0  0  0  0  0  0  0  0  0  0  0  0
  186.3580  177.6480  145.2870 C   0  0  0  0  0  0  0  0  0  0  0  0
  191.2550  177.0470  147.0270 C   0  0  0  0  0  3  0  0  0  0  0  0
  188.3140  178.1030  140.5210 C   0  0  0  0  0  0  0  0  0  0  0  0
  191.3110  176.7470  145.7250 C   0  0  0  0  0  3  0  0  0  0  0  0
  190.4940  177.0580  140.7220 C   0  0  0  0  0  3  0  0  0  0  0  0
  190.6850  177.1920  139.3440 C   0  0  0  0  0  0  0  0  0  0  0  0
  184.0940  178.6570  145.0610 C   0  0  0  0  0  3  0  0  0  0  0  0
  185.2900  178.2340  144.4620 C   0  0  0  0  0  0  0  0  0  0  0  0
  186.1020  177.3070  146.4740 O   0  0  0  0  0  0  0  0  0  0  0  0
  189.0940  177.3680  142.7770 C   0  0  0  0  0  0  0  0  0  0  0  0
  190.2160  177.0820  143.6210 N   0  0  0  0  0  0  0  0  0  0  0  0
  190.0610  178.2850  149.2290 Cl  0  0  0  0  0  0  0  0  0  0  0  0
  187.6800  177.4630  144.7410 N   0  0  0  0  0  0  0  0  0  0  0  0
  188.8650  177.5910  146.9360 C   0  0  0  0  0  3  0  0  0  0  0  0
  191.9550  176.7310  138.7210 C   0  0  0  0  0  2  0  0  0  0  0  0
  192.8410  175.9830  136.5540 C   0  0  1  0  0  3  0  0  0  0  0  0
  191.6700  176.0330  137.4700 N   0  0  0  0  0  0  0  0  0  0  0  0
  193.9390  176.7050  137.0380 O   0  0  0  0  0  1  0  0  0  0  0  0
  192.5550  174.8600  137.4390 C   0  0  0  0  0  2  0  0  0  0  0  0
  1 10  2  0  0  0  0
  1 19  1  0  0  0  0
  2 26  1  0  0  0  0
  3  4  1  0  0  0  0
  4 20  2  0  0  0  0
  5 27  1  1  0  0  0
  6  5  1  0  0  0  0
  6 17  1  0  0  0  0
  7 23  1  0  0  0  0
  9 25  1  0  0  0  0
 10 16  1  0  0  0  0
 11  3  2  0  0  0  0
 11 13  1  0  0  0  0
 12  8  1  6  0  0  0
 12 13  1  0  0  0  0
 12  2  1  0  0  0  0
 13 21  2  0  0  0  0
 14 22  2  0  0  0  0
 15  9  1  0  0  0  0
 16  8  1  0  0  0  0
 16  7  2  0  0  0  0
 17 15  2  0  0  0  0
 18  7  1  0  0  0  0
 19 18  2  0  0  0  0
 21 20  1  0  0  0  0
 21 14  1  0  0  0  0
 23  2  2  0  0  0  0
 23 24  1  0  0  0  0
 24  6  2  0  0  0  0
 26 14  1  0  0  0  0
 26  5  1  0  0  0  0
 27  9  2  0  0  0  0
 28 19  1  0  0  0  0
 29 31  1  1  0  0  0
 29 32  1  0  0  0  0
 29 30  1  0  0  0  0
 30 28  1  0  0  0  0
 32 30  1  0  0  0  0
M  END
>  <MODEL>
4

>  <REMARK>
 VINA RESULT:     -11.2      3.214      7.345
  Name = 
  2 active torsions:
  status: ('A' for Active; 'I' for Inactive)
    1  A    between atoms: N_10  and  C_19
    2  A    between atoms: C_19  and  C_24
                            x       y       z     vdW  Elec       q    Type
                         _______ _______ _______ _____ _____    ______ ____

>  <TORSDO>
F 2

$$$$
=
 OpenBabel11052416503D

 32 38  0  0  1  0  0  0  0  0999 V2000
  188.6020  177.6740  146.3630 C   0  0  0  0  0  3  0  0  0  0  0  0
  187.1750  178.1900  141.4960 C   0  0  0  0  0  0  0  0  0  0  0  0
  182.2440  178.8180  141.7350 C   0  0  0  0  0  3  0  0  0  0  0  0
  182.1860  178.8430  140.3410 C   0  0  0  0  0  3  0  0  0  0  0  0
  188.3200  178.1370  139.2380 C   0  0  2  0  0  3  0  0  0  0  0  0
  189.5000  177.5990  140.0100 C   0  0  0  0  0  0  0  0  0  0  0  0
  188.4460  177.8170  143.5670 C   0  0  0  0  0  0  0  0  0  0  0  0
  185.9390  177.8230  143.6710 C   0  0  0  0  0  2  0  0  0  0  0  0
  189.1680  176.7670  137.3470 C   0  0  0  0  0  0  0  0  0  0  0  0
  187.3540  177.7440  145.7380 C   0  0  0  0  0  3  0  0  0  0  0  0
  183.4790  178.7180  142.3790 C   0  0  0  0  0  3  0  0  0  0  0  0
  185.9970  178.6210  142.3600 C   0  0  2  0  0  3  0  0  0  0  0  0
  184.6700  178.6190  141.6410 C   0  0  0  0  0  0  0  0  0  0  0  0
  185.8430  178.6140  139.4370 C   0  0  0  0  0  0  0  0  0  0  0  0
  190.5040  176.7350  137.9840 C   0  0  0  0  0  3  0  0  0  0  0  0
  187.2730  177.8270  144.3450 C   0  0  0  0  0  0  0  0  0  0  0  0
  190.6650  177.1130  139.2570 C   0  0  0  0  0  3  0  0  0  0  0  0
  189.6930  177.7380  144.2020 C   0  0  0  0  0  3  0  0  0  0  0  0
  189.7720  177.6780  145.5960 C   0  0  0  0  0  0  0  0  0  0  0  0
  183.3640  178.7750  139.5950 C   0  0  0  0  0  3  0  0  0  0  0  0
  184.6080  178.6690  140.2350 C   0  0  0  0  0  0  0  0  0  0  0  0
  185.7970  178.9060  138.2110 O   0  0  0  0  0  0  0  0  0  0  0  0
  188.3490  177.8830  142.0920 C   0  0  0  0  0  0  0  0  0  0  0  0
  189.4940  177.5370  141.3040 N   0  0  0  0  0  0  0  0  0  0  0  0
  188.9200  175.9500  135.8200 Cl  0  0  0  0  0  0  0  0  0  0  0  0
  187.0910  178.2350  140.0520 N   0  0  0  0  0  0  0  0  0  0  0  0
  188.1300  177.3500  137.9610 C   0  0  0  0  0  3  0  0  0  0  0  0
  191.0990  177.5740  146.2620 C   0  0  0  0  0  2  0  0  0  0  0  0
  191.6330  175.3300  147.1100 C   0  0  1  0  0  3  0  0  0  0  0  0
  191.0170  176.6540  147.3930 N   0  0  0  0  0  0  0  0  0  0  0  0
  192.0710  175.2090  145.7850 O   0  0  0  0  0  1  0  0  0  0  0  0
  192.4010  176.3640  147.7940 C   0  0  0  0  0  2  0  0  0  0  0  0
  2 23  2  0  0  0  0
  2 12  1  0  0  0  0
  3 11  1  0  0  0  0
  4  3  2  0  0  0  0
  5 27  1  6  0  0  0
  5  6  1  0  0  0  0
  5 26  1  0  0  0  0
  6 24  2  0  0  0  0
  7 18  2  0  0  0  0
  7 16  1  0  0  0  0
  8 16  1  0  0  0  0
  9 27  2  0  0  0  0
  9 15  1  0  0  0  0
 10  1  1  0  0  0  0
 12  8  1  1  0  0  0
 13 12  1  0  0  0  0
 13 11  2  0  0  0  0
 14 26  1  0  0  0  0
 14 21  1  0  0  0  0
 15 17  2  0  0  0  0
 16 10  2  0  0  0  0
 17  6  1  0  0  0  0
 18 19  1  0  0  0  0
 19 28  1  0  0  0  0
 19  1  2  0  0  0  0
 20 21  2  0  0  0  0
 20  4  1  0  0  0  0
 21 13  1  0  0  0  0
 22 14  2  0  0  0  0
 23  7  1  0  0  0  0
 24 23  1  0  0  0  0
 25  9  1  0  0  0  0
 26  2  1  0  0  0  0
 28 30  1  0  0  0  0
 29 31  1  6  0  0  0
 29 30  1  0  0  0  0
 29 32  1  0  0  0  0
 30 32  1  0  0  0  0
M  END
>  <MODEL>
5

>  <REMARK>
 VINA RESULT:     -10.1      2.406      7.434
  Name = 
  2 active torsions:
  status: ('A' for Active; 'I' for Inactive)
    1  A    between atoms: N_10  and  C_19
    2  A    between atoms: C_19  and  C_24
                            x       y       z     vdW  Elec       q    Type
                         _______ _______ _______ _____ _____    ______ ____

>  <TORSDO>
F 2

$$$$
=
 OpenBabel11052416503D

 32 38  0  0  1  0  0  0  0  0999 V2000
  187.5890  177.7260  146.3950 C   0  0  0  0  0  3  0  0  0  0  0  0
  185.6450  178.5390  141.7520 C   0  0  0  0  0  0  0  0  0  0  0  0
  180.7710  179.1380  142.5620 C   0  0  0  0  0  3  0  0  0  0  0  0
  180.5630  179.2500  141.1870 C   0  0  0  0  0  3  0  0  0  0  0  0
  186.5380  178.6300  139.3850 C   0  0  0  0  0  0  0  0  0  0  0  0
  187.7930  178.0480  139.9890 C   0  0  0  0  0  0  0  0  0  0  0  0
  187.1310  178.0420  143.6470 C   0  0  0  0  0  0  0  0  0  0  0  0
  184.6500  178.0350  144.0210 C   0  0  0  0  0  2  0  0  0  0  0  0
  187.1710  177.3820  137.3320 C   0  0  0  0  0  0  0  0  0  0  0  0
  186.2800  177.8310  145.9140 C   0  0  0  0  0  3  0  0  0  0  0  0
  182.0680  179.0020  143.0620 C   0  0  0  0  0  3  0  0  0  0  0  0
  184.5690  178.9130  142.7640 C   0  0  2  0  0  3  0  0  0  0  0  0
  183.1720  178.9520  142.1940 C   0  0  0  0  0  0  0  0  0  0  0  0
  184.0990  179.0870  139.8800 C   0  0  0  0  0  0  0  0  0  0  0  0
  188.5670  177.3140  137.8170 C   0  0  0  0  0  3  0  0  0  0  0  0
  186.0500  178.0000  144.5460 C   0  0  0  0  0  0  0  0  0  0  0  0
  188.8670  177.6120  139.0850 C   0  0  0  0  0  2  0  0  0  0  0  0
  188.4390  177.9270  144.1370 C   0  0  0  0  0  3  0  0  0  0  0  0
  188.6690  177.7810  145.5070 C   0  0  0  0  0  0  0  0  0  0  0  0
  181.6530  179.2320  140.3160 C   0  0  0  0  0  3  0  0  0  0  0  0
  182.9580  179.0890  140.8090 C   0  0  0  0  0  0  0  0  0  0  0  0
  183.9220  179.4550  138.6860 O   0  0  0  0  0  0  0  0  0  0  0  0
  186.8760  178.1990  142.1970 C   0  0  0  0  0  0  0  0  0  0  0  0
  187.9270  177.9050  141.2700 N   0  0  0  0  0  0  0  0  0  0  0  0
  186.7560  176.6610  135.7920 Cl  0  0  0  0  0  0  0  0  0  0  0  0
  185.4050  178.6740  140.3320 N   0  0  0  0  0  0  0  0  0  0  0  0
  186.2070  177.9230  138.0890 C   0  0  0  0  0  3  0  0  0  0  0  0
  190.0590  177.6390  146.0170 C   0  0  0  0  0  2  0  0  0  0  0  0
  191.2510  175.8930  147.2710 C   0  0  1  0  0  3  0  0  0  0  0  0
  190.0680  176.7930  147.2070 N   0  0  0  0  0  0  0  0  0  0  0  0
  192.0540  175.9730  146.1250 O   0  0  0  0  0  1  0  0  0  0  0  0
  191.2630  177.1690  147.9760 C   0  0  0  0  0  2  0  0  0  0  0  0
  2 23  2  0  0  0  0
  2 12  1  0  0  0  0
  3 11  1  0  0  0  0
  4  3  2  0  0  0  0
  5  6  1  0  0  0  0
  5 26  1  0  0  0  0
  6 24  2  0  0  0  0
  7 18  2  0  0  0  0
  7 16  1  0  0  0  0
  8 16  1  0  0  0  0
  9 15  2  0  0  0  0
  9 27  1  0  0  0  0
 10  1  1  0  0  0  0
 12  8  1  1  0  0  0
 13 12  1  0  0  0  0
 13 11  2  0  0  0  0
 14 26  1  0  0  0  0
 14 21  1  0  0  0  0
 15 17  1  0  0  0  0
 16 10  2  0  0  0  0
 17  6  1  0  0  0  0
 18 19  1  0  0  0  0
 19 28  1  0  0  0  0
 19  1  2  0  0  0  0
 20 21  2  0  0  0  0
 20  4  1  0  0  0  0
 21 13  1  0  0  0  0
 22 14  2  0  0  0  0
 23  7  1  0  0  0  0
 24 23  1  0  0  0  0
 25  9  1  0  0  0  0
 26  2  1  0  0  0  0
 27  5  2  0  0  0  0
 28 30  1  0  0  0  0
 29 31  1  6  0  0  0
 29 32  1  0  0  0  0
 30 29  1  0  0  0  0
 30 32  1  0  0  0  0
M  END
>  <MODEL>
6

>  <REMARK>
 VINA RESULT:      -9.8      2.250      7.460
  Name = 
  2 active torsions:
  status: ('A' for Active; 'I' for Inactive)
    1  A    between atoms: N_10  and  C_19
    2  A    between atoms: C_19  and  C_24
                            x       y       z     vdW  Elec       q    Type
                         _______ _______ _______ _____ _____    ______ ____

>  <TORSDO>
F 2

$$$$
=
 OpenBabel11052416503D

 32 38  0  0  1  0  0  0  0  0999 V2000
  191.8760  176.9210  141.4730 C   0  0  0  0  0  3  0  0  0  0  0  0
  187.0190  178.2790  142.2160 C   0  0  0  0  0  0  0  0  0  0  0  0
  186.4020  177.9420  147.1430 C   0  0  0  0  0  3  0  0  0  0  0  0
  185.0560  178.2770  146.9910 C   0  0  0  0  0  3  0  0  0  0  0  0
  185.0640  178.9540  140.7560 C   0  0  0  0  0  0  0  0  0  0  0  0
  185.9330  178.4730  139.6190 C   0  0  0  0  0  0  0  0  0  0  0  0
  189.1860  177.6730  141.2270 C   0  0  0  0  0  0  0  0  0  0  0  0
  188.7950  177.2060  143.6610 C   0  0  0  0  0  2  0  0  0  0  0  0
  183.1460  178.2310  139.3510 C   0  0  0  0  0  0  0  0  0  0  0  0
  191.0430  176.9080  142.5960 C   0  0  0  0  0  3  0  0  0  0  0  0
  187.2450  177.9190  146.0290 C   0  0  0  0  0  3  0  0  0  0  0  0
  187.7020  178.2820  143.5780 C   0  0  2  0  0  3  0  0  0  0  0  0
  186.7500  178.2080  144.7460 C   0  0  0  0  0  0  0  0  0  0  0  0
  184.8610  178.9210  143.2780 C   0  0  0  0  0  0  0  0  0  0  0  0
  184.0140  178.2930  138.1540 C   0  0  0  0  0  3  0  0  0  0  0  0
  189.7050  177.2930  142.4790 C   0  0  0  0  0  0  0  0  0  0  0  0
  185.3420  178.3900  138.2760 C   0  0  0  0  0  2  0  0  0  0  0  0
  190.0260  177.6750  140.1050 C   0  0  0  0  0  3  0  0  0  0  0  0
  191.3700  177.3110  140.2290 C   0  0  0  0  0  0  0  0  0  0  0  0
  184.5580  178.5950  145.7270 C   0  0  0  0  0  3  0  0  0  0  0  0
  185.3960  178.5680  144.6020 C   0  0  0  0  0  0  0  0  0  0  0  0
  183.7300  179.4750  143.1980 O   0  0  0  0  0  0  0  0  0  0  0  0
  187.7620  178.0590  141.1090 C   0  0  0  0  0  0  0  0  0  0  0  0
  187.1620  178.1140  139.8090 N   0  0  0  0  0  0  0  0  0  0  0  0
  181.4710  177.7570  139.1790 Cl  0  0  0  0  0  0  0  0  0  0  0  0
  185.6240  178.6400  142.0870 N   0  0  0  0  0  0  0  0  0  0  0  0
  183.6460  178.4610  140.5730 C   0  0  0  0  0  3  0  0  0  0  0  0
  192.2490  177.2950  139.0290 C   0  0  0  0  0  2  0  0  0  0  0  0
  192.5070  176.1820  136.8530 C   0  0  1  0  0  3  0  0  0  0  0  0
  191.5730  176.6190  137.9260 N   0  0  0  0  0  0  0  0  0  0  0  0
  193.8240  176.6030  137.0780 O   0  0  0  0  0  1  0  0  0  0  0  0
  192.1000  175.2460  137.8950 C   0  0  0  0  0  2  0  0  0  0  0  0
  1 10  1  0  0  0  0
  2 12  1  0  0  0  0
  4  3  1  0  0  0  0
  5 26  1  0  0  0  0
  6 24  2  0  0  0  0
  6  5  1  0  0  0  0
  7 16  1  0  0  0  0
  9 27  1  0  0  0  0
 11  3  2  0  0  0  0
 12  8  1  6  0  0  0
 12 13  1  0  0  0  0
 13 11  1  0  0  0  0
 14 21  1  0  0  0  0
 15 17  1  0  0  0  0
 15  9  2  0  0  0  0
 16 10  2  0  0  0  0
 16  8  1  0  0  0  0
 17  6  1  0  0  0  0
 18 19  1  0  0  0  0
 18  7  2  0  0  0  0
 19  1  2  0  0  0  0
 20  4  2  0  0  0  0
 21 13  2  0  0  0  0
 21 20  1  0  0  0  0
 22 14  2  0  0  0  0
 23  7  1  0  0  0  0
 23  2  2  0  0  0  0
 24 23  1  0  0  0  0
 25  9  1  0  0  0  0
 26  2  1  0  0  0  0
 26 14  1  0  0  0  0
 27  5  2  0  0  0  0
 28 19  1  0  0  0  0
 29 31  1  1  0  0  0
 29 32  1  0  0  0  0
 29 30  1  0  0  0  0
 30 28  1  0  0  0  0
 32 30  1  0  0  0  0
M  END
>  <MODEL>
7

>  <REMARK>
 VINA RESULT:      -9.6      3.318      7.229
  Name = 
  2 active torsions:
  status: ('A' for Active; 'I' for Inactive)
    1  A    between atoms: N_10  and  C_19
    2  A    between atoms: C_19  and  C_24
                            x       y       z     vdW  Elec       q    Type
                         _______ _______ _______ _____ _____    ______ ____

>  <TORSDO>
F 2

$$$$
=
 OpenBabel11052416503D

 32 38  0  0  1  0  0  0  0  0999 V2000
  182.8180  179.0670  144.9650 C   0  0  0  0  0  3  0  0  0  0  0  0
  187.0170  177.8210  142.3560 C   0  0  0  0  0  0  0  0  0  0  0  0
  190.5130  177.2950  145.8590 C   0  0  0  0  0  3  0  0  0  0  0  0
  191.4630  177.0550  144.8660 C   0  0  0  0  0  3  0  0  0  0  0  0
  187.6340  177.5100  139.9200 C   0  0  0  0  0  0  0  0  0  0  0  0
  186.2920  178.1480  139.6490 C   0  0  0  0  0  0  0  0  0  0  0  0
  184.7450  178.4950  143.0100 C   0  0  0  0  0  0  0  0  0  0  0  0
  186.5640  178.5340  144.7390 C   0  0  0  0  0  2  0  0  0  0  0  0
  188.3570  178.5610  137.7880 C   0  0  0  0  0  0  0  0  0  0  0  0
  184.1590  178.9160  145.3310 C   0  0  0  0  0  3  0  0  0  0  0  0
  189.1730  177.4790  145.5120 C   0  0  0  0  0  3  0  0  0  0  0  0
  187.3010  177.5420  143.8270 C   0  0  2  0  0  3  0  0  0  0  0  0
  188.7680  177.4490  144.1660 C   0  0  0  0  0  0  0  0  0  0  0  0
  189.3230  177.0990  141.7580 C   0  0  0  0  0  0  0  0  0  0  0  0
  186.9400  178.6770  137.3770 C   0  0  0  0  0  3  0  0  0  0  0  0
  185.1200  178.6200  144.3610 C   0  0  0  0  0  0  0  0  0  0  0  0
  185.9530  178.4980  138.2620 C   0  0  0  0  0  2  0  0  0  0  0  0
  183.4010  178.6570  142.6500 C   0  0  0  0  0  3  0  0  0  0  0  0
  182.4370  178.9310  143.6250 C   0  0  0  0  0  0  0  0  0  0  0  0
  191.0700  176.9930  143.5280 C   0  0  0  0  0  3  0  0  0  0  0  0
  189.7270  177.1830  143.1710 C   0  0  0  0  0  0  0  0  0  0  0  0
  190.1300  176.6210  140.9150 O   0  0  0  0  0  0  0  0  0  0  0  0
  185.7740  178.2030  141.9870 C   0  0  0  0  0  0  0  0  0  0  0  0
  185.4590  178.4100  140.6050 N   0  0  0  0  0  0  0  0  0  0  0  0
  189.6150  179.1350  136.7160 Cl  0  0  0  0  0  0  0  0  0  0  0  0
  188.0180  177.5540  141.3460 N   0  0  0  0  0  0  0  0  0  0  0  0
  188.6830  178.0930  139.0000 C   0  0  0  0  0  3  0  0  0  0  0  0
  181.0150  179.1210  143.2320 C   0  0  0  0  0  2  0  0  0  0  0  0
  179.9160  178.1760  141.2470 C   0  0  1  0  0  3  0  0  0  0  0  0
  180.9020  179.1560  141.7770 N   0  0  0  0  0  0  0  0  0  0  0  0
  179.3780  177.3560  142.2470 O   0  0  0  0  0  1  0  0  0  0  0  0
  179.5220  179.5610  141.4760 C   0  0  0  0  0  2  0  0  0  0  0  0
  1 10  1  0  0  0  0
  2 12  1  0  0  0  0
  4  3  2  0  0  0  0
  5 26  1  0  0  0  0
  6  5  1  0  0  0  0
  6 24  2  0  0  0  0
  7 16  1  0  0  0  0
  9 27  1  0  0  0  0
 11  3  1  0  0  0  0
 12 13  1  0  0  0  0
 12  8  1  1  0  0  0
 13 11  2  0  0  0  0
 14 21  1  0  0  0  0
 15  9  2  0  0  0  0
 15 17  1  0  0  0  0
 16  8  1  0  0  0  0
 16 10  2  0  0  0  0
 17  6  1  0  0  0  0
 18  7  2  0  0  0  0
 18 19  1  0  0  0  0
 19  1  2  0  0  0  0
 20  4  1  0  0  0  0
 21 20  2  0  0  0  0
 21 13  1  0  0  0  0
 22 14  2  0  0  0  0
 23  2  2  0  0  0  0
 23  7  1  0  0  0  0
 24 23  1  0  0  0  0
 25  9  1  0  0  0  0
 26 14  1  0  0  0  0
 26  2  1  0  0  0  0
 27  5  2  0  0  0  0
 28 19  1  0  0  0  0
 29 32  1  0  0  0  0
 29 30  1  0  0  0  0
 29 31  1  1  0  0  0
 30 28  1  0  0  0  0
 32 30  1  0  0  0  0
M  END
>  <MODEL>
8

>  <REMARK>
 VINA RESULT:      -9.5      2.002      2.836
  Name = 
  2 active torsions:
  status: ('A' for Active; 'I' for Inactive)
    1  A    between atoms: N_10  and  C_19
    2  A    between atoms: C_19  and  C_24
                            x       y       z     vdW  Elec       q    Type
                         _______ _______ _______ _____ _____    ______ ____

>  <TORSDO>
F 2

$$$$
=
 OpenBabel11052416503D

 32 38  0  0  1  0  0  0  0  0999 V2000
  191.6380  177.2020  141.8010 C   0  0  0  0  0  3  0  0  0  0  0  0
  186.7870  178.2220  140.6120 C   0  0  0  0  0  0  0  0  0  0  0  0
  184.5310  178.7080  145.0220 C   0  0  0  0  0  3  0  0  0  0  0  0
  183.3100  178.8860  144.3710 C   0  0  0  0  0  3  0  0  0  0  0  0
  185.4320  178.4470  138.4850 C   0  0  0  0  0  0  0  0  0  0  0  0
  186.6490  177.8530  137.8180 C   0  0  0  0  0  0  0  0  0  0  0  0
  189.1760  177.6510  140.5360 C   0  0  0  0  0  0  0  0  0  0  0  0
  187.9880  177.5890  142.7450 C   0  0  0  0  0  2  0  0  0  0  0  0
  184.1290  177.3150  136.6980 C   0  0  0  0  0  0  0  0  0  0  0  0
  190.4720  177.3130  142.5640 C   0  0  0  0  0  3  0  0  0  0  0  0
  185.7040  178.5650  144.2770 C   0  0  0  0  0  3  0  0  0  0  0  0
  186.9620  178.5290  142.0950 C   0  0  2  0  0  3  0  0  0  0  0  0
  185.6700  178.5760  142.8730 C   0  0  0  0  0  0  0  0  0  0  0  0
  184.3800  178.8420  140.7520 C   0  0  0  0  0  0  0  0  0  0  0  0
  185.3520  177.2420  135.8680 C   0  0  0  0  0  3  0  0  0  0  0  0
  189.2450  177.5480  141.9370 C   0  0  0  0  0  0  0  0  0  0  0  0
  186.5560  177.4800  136.4000 C   0  0  0  0  0  2  0  0  0  0  0  0
  190.3490  177.5300  139.7780 C   0  0  0  0  0  3  0  0  0  0  0  0
  191.5780  177.3180  140.4080 C   0  0  0  0  0  0  0  0  0  0  0  0
  183.2660  178.9290  142.9760 C   0  0  0  0  0  3  0  0  0  0  0  0
  184.4390  178.7800  142.2210 C   0  0  0  0  0  0  0  0  0  0  0  0
  183.3310  179.2680  140.1950 O   0  0  0  0  0  0  0  0  0  0  0  0
  187.8690  177.8780  139.8800 C   0  0  0  0  0  0  0  0  0  0  0  0
  187.7490  177.6470  138.4710 N   0  0  0  0  0  0  0  0  0  0  0  0
  182.6270  176.6670  136.0780 Cl  0  0  0  0  0  0  0  0  0  0  0  0
  185.5110  178.4260  139.9600 N   0  0  0  0  0  0  0  0  0  0  0  0
  184.1750  177.8020  137.9450 C   0  0  0  0  0  3  0  0  0  0  0  0
  192.8150  177.1710  139.5940 C   0  0  0  0  0  2  0  0  0  0  0  0
  193.4740  175.9990  137.5370 C   0  0  1  0  0  3  0  0  0  0  0  0
  192.4660  176.8600  138.2110 N   0  0  0  0  0  0  0  0  0  0  0  0
  194.5960  175.7520  138.3380 O   0  0  0  0  0  1  0  0  0  0  0  0
  192.2900  175.4020  138.1440 C   0  0  0  0  0  2  0  0  0  0  0  0
  1 10  1  0  0  0  0
  2 12  1  0  0  0  0
  4  3  1  0  0  0  0
  5 26  1  0  0  0  0
  6 24  2  0  0  0  0
  6  5  1  0  0  0  0
  7 16  1  0  0  0  0
  9 27  1  0  0  0  0
 11  3  2  0  0  0  0
 12  8  1  1  0  0  0
 12 13  1  0  0  0  0
 13 11  1  0  0  0  0
 14 21  1  0  0  0  0
 15 17  1  0  0  0  0
 15  9  2  0  0  0  0
 16 10  2  0  0  0  0
 16  8  1  0  0  0  0
 17  6  1  0  0  0  0
 18 19  1  0  0  0  0
 18  7  2  0  0  0  0
 19  1  2  0  0  0  0
 20  4  2  0  0  0  0
 21 13  2  0  0  0  0
 21 20  1  0  0  0  0
 22 14  2  0  0  0  0
 23  7  1  0  0  0  0
 23  2  2  0  0  0  0
 24 23  1  0  0  0  0
 25  9  1  0  0  0  0
 26  2  1  0  0  0  0
 26 14  1  0  0  0  0
 27  5  2  0  0  0  0
 28 19  1  0  0  0  0
 29 32  1  0  0  0  0
 29 30  1  0  0  0  0
 29 31  1  1  0  0  0
 30 28  1  0  0  0  0
 32 30  1  0  0  0  0
M  END
>  <MODEL>
9

>  <REMARK>
 VINA RESULT:      -9.3      3.660      7.842
  Name = 
  2 active torsions:
  status: ('A' for Active; 'I' for Inactive)
    1  A    between atoms: N_10  and  C_19
    2  A    between atoms: C_19  and  C_24
                            x       y       z     vdW  Elec       q    Type
                         _______ _______ _______ _____ _____    ______ ____

>  <TORSDO>
F 2

$$$$
