=
 OpenBabel11052414163D

 34 41  0  0  1  0  0  0  0  0999 V2000
  189.5520  176.9820  145.8900 C   0  0  0  0  0  0  0  0  0  0  0  0
  187.2860  177.8090  146.1050 C   0  0  0  0  0  0  0  0  0  0  0  0
  182.5390  179.2120  143.6910 C   0  0  0  0  0  3  0  0  0  0  0  0
  188.3480  177.6570  143.9160 C   0  0  0  0  0  0  0  0  0  0  0  0
  187.0260  178.3050  142.0440 C   0  0  0  0  0  0  0  0  0  0  0  0
  188.5120  177.1420  147.9860 N   0  0  0  0  0  0  0  0  0  0  0  0
  187.3860  177.6210  147.4440 N   0  0  0  0  0  0  0  0  0  0  0  0
  186.0920  178.4640  144.1080 C   0  0  0  0  0  0  0  0  0  0  0  0
  188.4000  177.4880  145.3000 C   0  0  0  0  0  0  0  0  0  0  0  0
  183.8130  179.0630  143.4240 C   0  0  0  0  0  0  0  0  0  0  0  0
  185.6410  178.7980  141.7420 C   0  0  0  0  0  2  0  0  0  0  0  0
  189.5760  176.8240  147.2370 N   0  0  0  0  0  0  0  0  0  0  0  0
  189.4210  177.3290  143.0700 C   0  0  0  0  0  0  0  0  0  0  0  0
  190.6500  176.6420  145.0810 C   0  0  0  0  0  3  0  0  0  0  0  0
  186.0970  178.3050  145.5060 C   0  0  0  0  0  3  0  0  0  0  0  0
  188.0340  177.9910  141.1850 N   0  0  0  0  0  0  0  0  0  0  0  0
  189.2450  177.5170  141.6530 C   0  0  0  0  0  0  0  0  0  0  0  0
  185.0790  178.9110  143.1500 C   0  0  0  0  0  0  0  0  0  0  0  0
  187.1900  178.1440  143.3750 C   0  0  0  0  0  0  0  0  0  0  0  0
  190.5820  176.8100  143.6810 C   0  0  0  0  0  3  0  0  0  0  0  0
  192.6280  177.2040  139.9240 C   0  0  0  0  0  0  0  0  0  0  0  0
  192.2500  176.6590  138.6960 C   0  0  0  0  0  3  0  0  0  0  0  0
  190.3020  177.2110  140.6520 C   0  0  0  0  0  0  0  0  0  0  0  0
  190.9030  176.3930  138.4370 C   0  0  0  0  0  3  0  0  0  0  0  0
  191.6600  177.4820  140.8930 C   0  0  0  0  0  3  0  0  0  0  0  0
  189.9370  176.6710  139.4080 C   0  0  0  0  0  3  0  0  0  0  0  0
  193.9320  177.4660  140.1770 F   0  0  0  0  0  0  0  0  0  0  0  0
  180.2110  180.6080  142.9240 O   0  0  0  0  0  1  0  0  0  0  0  0
  181.4430  178.3930  143.0560 C   0  0  1  0  0  3  0  0  0  0  0  0
  180.2200  179.2280  142.7090 C   0  0  2  0  0  0  0  0  0  0  0  0
  178.9390  177.8670  141.3260 C   0  0  0  0  0  2  0  0  0  0  0  0
  180.3830  177.6980  140.8980 C   0  0  0  0  0  2  0  0  0  0  0  0
  181.1420  178.7940  141.6010 C   0  0  2  0  0  3  0  0  0  0  0  0
  178.9330  178.5570  142.6090 N   0  0  0  0  0  2  0  0  0  0  0  0
  1 12  1  0  0  0  0
  2  7  2  0  0  0  0
  4  9  1  0  0  0  0
  5 19  1  0  0  0  0
  7  6  1  0  0  0  0
  8 15  2  0  0  0  0
  9  1  2  0  0  0  0
  9  2  1  0  0  0  0
 10  3  2  0  0  0  0
 11  5  1  0  0  0  0
 11 18  1  0  0  0  0
 12  6  2  0  0  0  0
 13 20  1  0  0  0  0
 13  4  1  0  0  0  0
 14  1  1  0  0  0  0
 15  2  1  0  0  0  0
 16 17  1  0  0  0  0
 16  5  2  0  0  0  0
 17 13  2  0  0  0  0
 18 10  2  0  0  0  0
 18  8  1  0  0  0  0
 19  4  2  0  0  0  0
 19  8  1  0  0  0  0
 20 14  2  0  0  0  0
 21 27  1  0  0  0  0
 21 25  1  0  0  0  0
 22 21  2  0  0  0  0
 23 25  2  0  0  0  0
 23 17  1  0  0  0  0
 24 22  1  0  0  0  0
 24 26  2  0  0  0  0
 26 23  1  0  0  0  0
 29  3  1  1  0  0  0
 30 28  1  1  0  0  0
 30 29  1  0  0  0  0
 31 34  1  0  0  0  0
 32 31  1  0  0  0  0
 33 32  1  6  0  0  0
 33 30  1  0  0  0  0
 33 29  1  0  0  0  0
 34 30  1  0  0  0  0
M  END
>  <MODEL>
1

>  <REMARK>
 VINA RESULT:     -12.1      0.000      0.000
  Name = 
  2 active torsions:
  status: ('A' for Active; 'I' for Inactive)
    1  A    between atoms: C_3  and  C_13
    2  A    between atoms: C_12  and  C_28
                            x       y       z     vdW  Elec       q    Type
                         _______ _______ _______ _____ _____    ______ ____

>  <TORSDO>
F 2

$$$$
=
 OpenBabel11052414163D

 34 41  0  0  1  0  0  0  0  0999 V2000
  186.0360  178.6100  140.6070 C   0  0  0  0  0  0  0  0  0  0  0  0
  187.8010  178.2530  138.9870 C   0  0  0  0  0  0  0  0  0  0  0  0
  192.8530  176.3680  137.8700 C   0  0  0  0  0  3  0  0  0  0  0  0
  188.2320  177.9810  141.3710 C   0  0  0  0  0  0  0  0  0  0  0  0
  190.4310  177.3020  141.9840 C   0  0  0  0  0  0  0  0  0  0  0  0
  185.6460  178.8710  138.3090 N   0  0  0  0  0  0  0  0  0  0  0  0
  186.9110  178.5540  138.0090 N   0  0  0  0  0  0  0  0  0  0  0  0
  189.9920  177.6060  139.7760 C   0  0  0  0  0  0  0  0  0  0  0  0
  187.3580  178.2870  140.3270 C   0  0  0  0  0  0  0  0  0  0  0  0
  192.1190  176.7830  138.8720 C   0  0  0  0  0  0  0  0  0  0  0  0
  191.7360  176.9430  141.3360 C   0  0  0  0  0  2  0  0  0  0  0  0
  185.2060  178.9000  139.5740 N   0  0  0  0  0  0  0  0  0  0  0  0
  187.8330  177.9760  142.7180 C   0  0  0  0  0  0  0  0  0  0  0  0
  185.5950  178.6180  141.9410 C   0  0  0  0  0  3  0  0  0  0  0  0
  189.1450  177.9020  138.6920 C   0  0  0  0  0  3  0  0  0  0  0  0
  190.0880  177.2740  143.3010 N   0  0  0  0  0  0  0  0  0  0  0  0
  188.8120  177.6140  143.7100 C   0  0  0  0  0  0  0  0  0  0  0  0
  191.3920  177.1900  139.8750 C   0  0  0  0  0  0  0  0  0  0  0  0
  189.5200  177.6540  141.0500 C   0  0  0  0  0  0  0  0  0  0  0  0
  186.4870  178.2990  142.9880 C   0  0  0  0  0  3  0  0  0  0  0  0
  187.0460  177.9570  147.0710 C   0  0  0  0  0  0  0  0  0  0  0  0
  188.0460  177.5230  147.9430 C   0  0  0  0  0  3  0  0  0  0  0  0
  188.5190  177.5740  145.1690 C   0  0  0  0  0  0  0  0  0  0  0  0
  189.2840  177.1190  147.4370 C   0  0  0  0  0  3  0  0  0  0  0  0
  187.2840  177.9860  145.6940 C   0  0  0  0  0  3  0  0  0  0  0  0
  189.5180  177.1480  146.0600 C   0  0  0  0  0  3  0  0  0  0  0  0
  185.8460  178.3530  147.5580 F   0  0  0  0  0  0  0  0  0  0  0  0
  195.1240  176.0550  136.2250 O   0  0  0  0  0  1  0  0  0  0  0  0
  193.4130  174.9720  137.7560 C   0  0  1  0  0  3  0  0  0  0  0  0
  194.6130  174.9010  136.8240 C   0  0  2  0  0  0  0  0  0  0  0  0
  195.5570  172.8140  137.2220 C   0  0  0  0  0  2  0  0  0  0  0  0
  195.1730  173.3900  138.5700 C   0  0  0  0  0  2  0  0  0  0  0  0
  194.8430  174.8370  138.3100 C   0  0  2  0  0  3  0  0  0  0  0  0
  194.9210  173.6260  136.1930 N   0  0  0  0  0  2  0  0  0  0  0  0
  1 14  1  0  0  0  0
  2  9  1  0  0  0  0
  3 10  2  0  0  0  0
  4 13  2  0  0  0  0
  5 16  1  0  0  0  0
  6 12  2  0  0  0  0
  7  6  1  0  0  0  0
  7  2  2  0  0  0  0
  8 18  1  0  0  0  0
  8 19  1  0  0  0  0
  9  1  2  0  0  0  0
  9  4  1  0  0  0  0
 10 18  2  0  0  0  0
 11  5  1  0  0  0  0
 12  1  1  0  0  0  0
 13 20  1  0  0  0  0
 13 17  1  0  0  0  0
 14 20  2  0  0  0  0
 15  2  1  0  0  0  0
 15  8  2  0  0  0  0
 16 17  2  0  0  0  0
 17 23  1  0  0  0  0
 18 11  1  0  0  0  0
 19  4  1  0  0  0  0
 19  5  2  0  0  0  0
 21 27  1  0  0  0  0
 21 22  1  0  0  0  0
 23 25  1  0  0  0  0
 23 26  2  0  0  0  0
 24 22  2  0  0  0  0
 25 21  2  0  0  0  0
 26 24  1  0  0  0  0
 29  3  1  1  0  0  0
 29 33  1  0  0  0  0
 30 28  1  6  0  0  0
 30 29  1  0  0  0  0
 30 33  1  0  0  0  0
 31 32  1  0  0  0  0
 33 32  1  6  0  0  0
 34 30  1  0  0  0  0
 34 31  1  0  0  0  0
M  END
>  <MODEL>
2

>  <REMARK>
 VINA RESULT:     -11.7      4.578      9.795
  Name = 
  2 active torsions:
  status: ('A' for Active; 'I' for Inactive)
    1  A    between atoms: C_3  and  C_13
    2  A    between atoms: C_12  and  C_28
                            x       y       z     vdW  Elec       q    Type
                         _______ _______ _______ _____ _____    ______ ____

>  <TORSDO>
F 2

$$$$
=
 OpenBabel11052414163D

 34 41  0  0  1  0  0  0  0  0999 V2000
  184.8110  178.5870  145.2620 C   0  0  0  0  0  0  0  0  0  0  0  0
  184.5680  178.8780  142.8700 C   0  0  0  0  0  0  0  0  0  0  0  0
  186.6290  178.1820  137.8110 C   0  0  0  0  0  3  0  0  0  0  0  0
  186.7110  178.2200  143.8280 C   0  0  0  0  0  0  0  0  0  0  0  0
  188.4910  177.8370  142.2920 C   0  0  0  0  0  0  0  0  0  0  0  0
  182.7610  179.2240  144.3190 N   0  0  0  0  0  0  0  0  0  0  0  0
  183.2690  179.2030  143.0820 N   0  0  0  0  0  0  0  0  0  0  0  0
  186.4850  178.4880  141.4500 C   0  0  0  0  0  0  0  0  0  0  0  0
  185.3690  178.5660  143.9900 C   0  0  0  0  0  0  0  0  0  0  0  0
  187.0050  178.2530  139.0640 C   0  0  0  0  0  0  0  0  0  0  0  0
  188.7430  177.8510  140.8130 C   0  0  0  0  0  2  0  0  0  0  0  0
  183.5030  178.9230  145.3930 N   0  0  0  0  0  0  0  0  0  0  0  0
  187.5430  177.8780  144.9080 C   0  0  0  0  0  0  0  0  0  0  0  0
  185.6080  178.2520  146.3710 C   0  0  0  0  0  3  0  0  0  0  0  0
  185.1260  178.8370  141.5640 C   0  0  0  0  0  3  0  0  0  0  0  0
  189.3310  177.4880  143.3060 N   0  0  0  0  0  0  0  0  0  0  0  0
  188.9040  177.5080  144.6200 C   0  0  0  0  0  0  0  0  0  0  0  0
  187.3860  178.3170  140.3090 C   0  0  0  0  0  0  0  0  0  0  0  0
  187.2160  178.1980  142.5570 C   0  0  0  0  0  0  0  0  0  0  0  0
  186.9620  177.8960  146.1930 C   0  0  0  0  0  3  0  0  0  0  0  0
  191.8130  175.8530  146.4460 C   0  0  0  0  0  0  0  0  0  0  0  0
  191.6810  176.4110  147.7190 C   0  0  0  0  0  3  0  0  0  0  0  0
  189.8860  177.1280  145.6720 C   0  0  0  0  0  0  0  0  0  0  0  0
  190.6540  177.3220  147.9760 C   0  0  0  0  0  3  0  0  0  0  0  0
  190.9180  176.2060  145.4310 C   0  0  0  0  0  3  0  0  0  0  0  0
  189.7610  177.6740  146.9600 C   0  0  0  0  0  3  0  0  0  0  0  0
  192.8050  174.9670  146.1940 F   0  0  0  0  0  0  0  0  0  0  0  0
  184.3910  176.4800  137.5750 O   0  0  0  0  0  1  0  0  0  0  0  0
  186.8030  176.9590  136.9460 C   0  0  1  0  0  3  0  0  0  0  0  0
  185.5550  176.0910  136.9080 C   0  0  2  0  0  0  0  0  0  0  0  0
  185.9120  174.6040  135.1560 C   0  0  0  0  0  2  0  0  0  0  0  0
  186.3890  175.9630  134.6870 C   0  0  0  0  0  2  0  0  0  0  0  0
  185.8820  176.9440  135.7120 C   0  0  2  0  0  3  0  0  0  0  0  0
  185.7070  174.6770  136.5980 N   0  0  0  0  0  2  0  0  0  0  0  0
  1 12  1  0  0  0  0
  1 14  1  0  0  0  0
  2  7  2  0  0  0  0
  2  9  1  0  0  0  0
  3 10  2  0  0  0  0
  4  9  1  0  0  0  0
  4 13  2  0  0  0  0
  5 19  2  0  0  0  0
  5 16  1  0  0  0  0
  6 12  2  0  0  0  0
  7  6  1  0  0  0  0
  8 15  2  0  0  0  0
  8 19  1  0  0  0  0
  9  1  2  0  0  0  0
 10 18  2  0  0  0  0
 11  5  1  0  0  0  0
 13 20  1  0  0  0  0
 15  2  1  0  0  0  0
 16 17  2  0  0  0  0
 17 13  1  0  0  0  0
 17 23  1  0  0  0  0
 18 11  1  0  0  0  0
 18  8  1  0  0  0  0
 19  4  1  0  0  0  0
 20 14  2  0  0  0  0
 21 22  1  0  0  0  0
 22 24  2  0  0  0  0
 23 26  2  0  0  0  0
 25 23  1  0  0  0  0
 25 21  2  0  0  0  0
 26 24  1  0  0  0  0
 27 21  1  0  0  0  0
 29  3  1  1  0  0  0
 30 29  1  0  0  0  0
 30 28  1  1  0  0  0
 31 34  1  0  0  0  0
 32 31  1  0  0  0  0
 33 32  1  6  0  0  0
 33 30  1  0  0  0  0
 33 29  1  0  0  0  0
 34 30  1  0  0  0  0
M  END
>  <MODEL>
3

>  <REMARK>
 VINA RESULT:     -11.2      3.478      6.196
  Name = 
  2 active torsions:
  status: ('A' for Active; 'I' for Inactive)
    1  A    between atoms: C_3  and  C_13
    2  A    between atoms: C_12  and  C_28
                            x       y       z     vdW  Elec       q    Type
                         _______ _______ _______ _____ _____    ______ ____

>  <TORSDO>
F 2

$$$$
=
 OpenBabel11052414163D

 34 41  0  0  1  0  0  0  0  0999 V2000
  183.3420  178.7680  143.3120 C   0  0  0  0  0  0  0  0  0  0  0  0
  184.0390  178.7830  140.9930 C   0  0  0  0  0  0  0  0  0  0  0  0
  187.9440  177.7620  137.2460 C   0  0  0  0  0  3  0  0  0  0  0  0
  185.6660  178.4360  142.7740 C   0  0  0  0  0  0  0  0  0  0  0  0
  187.9210  178.0650  142.1010 C   0  0  0  0  0  0  0  0  0  0  0  0
  181.7950  179.1050  141.5820 N   0  0  0  0  0  0  0  0  0  0  0  0
  182.7470  179.0030  140.6470 N   0  0  0  0  0  0  0  0  0  0  0  0
  186.3740  178.4310  140.4770 C   0  0  0  0  0  0  0  0  0  0  0  0
  184.3530  178.6670  142.3650 C   0  0  0  0  0  0  0  0  0  0  0  0
  187.7970  177.9990  138.5250 C   0  0  0  0  0  0  0  0  0  0  0  0
  188.7300  177.9490  140.8420 C   0  0  0  0  0  2  0  0  0  0  0  0
  182.0730  178.9900  142.8870 N   0  0  0  0  0  0  0  0  0  0  0  0
  186.0250  178.2890  144.1250 C   0  0  0  0  0  0  0  0  0  0  0  0
  183.6570  178.6280  144.6750 C   0  0  0  0  0  3  0  0  0  0  0  0
  185.0640  178.6590  140.0170 C   0  0  0  0  0  3  0  0  0  0  0  0
  188.3130  177.9050  143.3950 N   0  0  0  0  0  0  0  0  0  0  0  0
  187.4070  178.0210  144.4310 C   0  0  0  0  0  0  0  0  0  0  0  0
  187.6570  178.2280  139.8010 C   0  0  0  0  0  0  0  0  0  0  0  0
  186.6280  178.3290  141.8080 C   0  0  0  0  0  0  0  0  0  0  0  0
  184.9880  178.3860  145.0770 C   0  0  0  0  0  3  0  0  0  0  0  0
  189.6030  177.0880  147.4030 C   0  0  0  0  0  0  0  0  0  0  0  0
  188.8010  177.5030  148.4680 C   0  0  0  0  0  3  0  0  0  0  0  0
  187.9160  177.8490  145.8190 C   0  0  0  0  0  0  0  0  0  0  0  0
  187.5570  178.0850  148.2160 C   0  0  0  0  0  3  0  0  0  0  0  0
  189.1610  177.2560  146.0880 C   0  0  0  0  0  3  0  0  0  0  0  0
  187.1170  178.2530  146.9010 C   0  0  0  0  0  3  0  0  0  0  0  0
  190.8090  176.5200  147.6440 F   0  0  0  0  0  0  0  0  0  0  0  0
  186.1180  175.6330  136.9320 O   0  0  0  0  0  1  0  0  0  0  0  0
  188.4990  176.4770  136.6840 C   0  0  1  0  0  3  0  0  0  0  0  0
  187.4470  175.3830  136.5830 C   0  0  2  0  0  0  0  0  0  0  0  0
  188.4170  173.7400  135.2530 C   0  0  0  0  0  2  0  0  0  0  0  0
  188.7590  175.0760  134.6250 C   0  0  0  0  0  2  0  0  0  0  0  0
  187.8860  176.0860  135.3260 C   0  0  2  0  0  3  0  0  0  0  0  0
  187.8920  173.9970  136.5880 N   0  0  0  0  0  2  0  0  0  0  0  0
  1 14  1  0  0  0  0
  2  9  1  0  0  0  0
  3 10  2  0  0  0  0
  4 13  2  0  0  0  0
  5 16  1  0  0  0  0
  6 12  2  0  0  0  0
  7  2  2  0  0  0  0
  7  6  1  0  0  0  0
  8 19  1  0  0  0  0
  9  4  1  0  0  0  0
  9  1  2  0  0  0  0
 10 18  2  0  0  0  0
 11  5  1  0  0  0  0
 12  1  1  0  0  0  0
 13 17  1  0  0  0  0
 13 20  1  0  0  0  0
 14 20  2  0  0  0  0
 15  8  2  0  0  0  0
 15  2  1  0  0  0  0
 16 17  2  0  0  0  0
 17 23  1  0  0  0  0
 18  8  1  0  0  0  0
 18 11  1  0  0  0  0
 19  5  2  0  0  0  0
 19  4  1  0  0  0  0
 21 27  1  0  0  0  0
 21 22  1  0  0  0  0
 23 25  1  0  0  0  0
 23 26  2  0  0  0  0
 24 22  2  0  0  0  0
 25 21  2  0  0  0  0
 26 24  1  0  0  0  0
 29  3  1  1  0  0  0
 30 34  1  0  0  0  0
 30 29  1  0  0  0  0
 30 28  1  1  0  0  0
 31 34  1  0  0  0  0
 32 31  1  0  0  0  0
 33 32  1  6  0  0  0
 33 30  1  0  0  0  0
 33 29  1  0  0  0  0
M  END
>  <MODEL>
4

>  <REMARK>
 VINA RESULT:     -11.1      3.370      7.548
  Name = 
  2 active torsions:
  status: ('A' for Active; 'I' for Inactive)
    1  A    between atoms: C_3  and  C_13
    2  A    between atoms: C_12  and  C_28
                            x       y       z     vdW  Elec       q    Type
                         _______ _______ _______ _____ _____    ______ ____

>  <TORSDO>
F 2

$$$$
=
 OpenBabel11052414163D

 34 41  0  0  1  0  0  0  0  0999 V2000
  184.4170  178.5210  144.6420 C   0  0  0  0  0  0  0  0  0  0  0  0
  184.3060  178.7720  142.2350 C   0  0  0  0  0  0  0  0  0  0  0  0
  186.7110  178.1460  137.3210 C   0  0  0  0  0  3  0  0  0  0  0  0
  186.4200  178.2530  143.3310 C   0  0  0  0  0  0  0  0  0  0  0  0
  188.3100  177.9590  141.9110 C   0  0  0  0  0  0  0  0  0  0  0  0
  182.3950  179.0260  143.5670 N   0  0  0  0  0  0  0  0  0  0  0  0
  182.9790  179.0220  142.3630 N   0  0  0  0  0  0  0  0  0  0  0  0
  186.3250  178.4810  140.9400 C   0  0  0  0  0  0  0  0  0  0  0  0
  185.0530  178.5200  143.4060 C   0  0  0  0  0  0  0  0  0  0  0  0
  187.0040  178.2520  138.5930 C   0  0  0  0  0  0  0  0  0  0  0  0
  188.6520  177.9720  140.4500 C   0  0  0  0  0  2  0  0  0  0  0  0
  183.0870  178.7810  144.6880 N   0  0  0  0  0  0  0  0  0  0  0  0
  187.2020  177.9710  144.4640 C   0  0  0  0  0  0  0  0  0  0  0  0
  185.1630  178.2460  145.8020 C   0  0  0  0  0  3  0  0  0  0  0  0
  184.9440  178.7500  140.9670 C   0  0  0  0  0  3  0  0  0  0  0  0
  189.1050  177.6700  142.9790 N   0  0  0  0  0  0  0  0  0  0  0  0
  188.5980  177.6790  144.2650 C   0  0  0  0  0  0  0  0  0  0  0  0
  187.3040  178.3520  139.8580 C   0  0  0  0  0  0  0  0  0  0  0  0
  187.0030  178.2470  142.0940 C   0  0  0  0  0  0  0  0  0  0  0  0
  186.5440  177.9690  145.7110 C   0  0  0  0  0  3  0  0  0  0  0  0
  190.2010  177.5020  147.7190 C   0  0  0  0  0  0  0  0  0  0  0  0
  191.3710  176.7950  147.4340 C   0  0  0  0  0  3  0  0  0  0  0  0
  189.5340  177.3690  145.3790 C   0  0  0  0  0  0  0  0  0  0  0  0
  191.6310  176.3780  146.1270 C   0  0  0  0  0  3  0  0  0  0  0  0
  189.2920  177.7910  146.6970 C   0  0  0  0  0  3  0  0  0  0  0  0
  190.7200  176.6660  145.1070 C   0  0  0  0  0  3  0  0  0  0  0  0
  189.9470  177.9120  148.9840 F   0  0  0  0  0  0  0  0  0  0  0  0
  189.2390  178.0630  136.0730 O   0  0  0  0  0  1  0  0  0  0  0  0
  187.0080  176.9260  136.4860 C   0  0  1  0  0  3  0  0  0  0  0  0
  188.3790  176.9900  135.8300 C   0  0  2  0  0  0  0  0  0  0  0  0
  188.7730  174.8340  135.0530 C   0  0  0  0  0  2  0  0  0  0  0  0
  188.1550  174.7020  136.4300 C   0  0  0  0  0  2  0  0  0  0  0  0
  188.1850  176.0890  137.0200 C   0  0  2  0  0  3  0  0  0  0  0  0
  188.6010  176.2150  134.6180 N   0  0  0  0  0  2  0  0  0  0  0  0
  1 12  1  0  0  0  0
  1 14  1  0  0  0  0
  2  7  2  0  0  0  0
  2  9  1  0  0  0  0
  3 10  2  0  0  0  0
  4  9  1  0  0  0  0
  4 13  2  0  0  0  0
  5 19  2  0  0  0  0
  5 16  1  0  0  0  0
  6 12  2  0  0  0  0
  7  6  1  0  0  0  0
  8 15  2  0  0  0  0
  8 19  1  0  0  0  0
  9  1  2  0  0  0  0
 10 18  2  0  0  0  0
 11  5  1  0  0  0  0
 13 20  1  0  0  0  0
 15  2  1  0  0  0  0
 16 17  2  0  0  0  0
 17 13  1  0  0  0  0
 17 23  1  0  0  0  0
 18 11  1  0  0  0  0
 18  8  1  0  0  0  0
 19  4  1  0  0  0  0
 20 14  2  0  0  0  0
 21 27  1  0  0  0  0
 22 21  1  0  0  0  0
 23 25  1  0  0  0  0
 24 22  2  0  0  0  0
 25 21  2  0  0  0  0
 26 23  2  0  0  0  0
 26 24  1  0  0  0  0
 29 33  1  0  0  0  0
 29  3  1  1  0  0  0
 30 28  1  1  0  0  0
 30 29  1  0  0  0  0
 30 33  1  0  0  0  0
 31 32  1  0  0  0  0
 33 32  1  6  0  0  0
 34 31  1  0  0  0  0
 34 30  1  0  0  0  0
M  END
>  <MODEL>
5

>  <REMARK>
 VINA RESULT:     -11.0      3.749      6.996
  Name = 
  2 active torsions:
  status: ('A' for Active; 'I' for Inactive)
    1  A    between atoms: C_3  and  C_13
    2  A    between atoms: C_12  and  C_28
                            x       y       z     vdW  Elec       q    Type
                         _______ _______ _______ _____ _____    ______ ____

>  <TORSDO>
F 2

$$$$
=
 OpenBabel11052414163D

 34 41  0  0  1  0  0  0  0  0999 V2000
  184.7030  178.7810  141.7760 C   0  0  0  0  0  0  0  0  0  0  0  0
  185.9090  178.6260  139.6820 C   0  0  0  0  0  0  0  0  0  0  0  0
  190.4620  177.1210  136.9730 C   0  0  0  0  0  3  0  0  0  0  0  0
  187.0520  178.2460  141.8010 C   0  0  0  0  0  0  0  0  0  0  0  0
  189.3600  177.6710  141.6790 C   0  0  0  0  0  0  0  0  0  0  0  0
  183.6260  179.1480  139.7260 N   0  0  0  0  0  0  0  0  0  0  0  0
  184.7530  178.9260  139.0400 N   0  0  0  0  0  0  0  0  0  0  0  0
  188.2610  178.0710  139.7320 C   0  0  0  0  0  0  0  0  0  0  0  0
  185.8910  178.5560  141.0920 C   0  0  0  0  0  0  0  0  0  0  0  0
  190.0480  177.4330  138.1760 C   0  0  0  0  0  0  0  0  0  0  0  0
  190.4210  177.4290  140.6460 C   0  0  0  0  0  2  0  0  0  0  0  0
  183.5880  179.0780  141.0630 N   0  0  0  0  0  0  0  0  0  0  0  0
  187.0790  178.1410  143.2020 C   0  0  0  0  0  0  0  0  0  0  0  0
  184.6860  178.6870  143.1790 C   0  0  0  0  0  3  0  0  0  0  0  0
  187.1150  178.3750  138.9740 C   0  0  0  0  0  3  0  0  0  0  0  0
  189.4320  177.5470  143.0330 N   0  0  0  0  0  0  0  0  0  0  0  0
  188.3270  177.7840  143.8280 C   0  0  0  0  0  0  0  0  0  0  0  0
  189.6420  177.7370  139.3770 C   0  0  0  0  0  0  0  0  0  0  0  0
  188.1950  178.0180  141.0870 C   0  0  0  0  0  0  0  0  0  0  0  0
  185.8650  178.3650  143.8850 C   0  0  0  0  0  3  0  0  0  0  0  0
  189.7850  177.0000  147.2610 C   0  0  0  0  0  0  0  0  0  0  0  0
  188.7180  177.3530  148.0910 C   0  0  0  0  0  3  0  0  0  0  0  0
  188.4900  177.6440  145.3000 C   0  0  0  0  0  0  0  0  0  0  0  0
  187.5360  177.8450  147.5330 C   0  0  0  0  0  3  0  0  0  0  0  0
  189.6690  177.1410  145.8760 C   0  0  0  0  0  3  0  0  0  0  0  0
  187.4230  177.9860  146.1470 C   0  0  0  0  0  3  0  0  0  0  0  0
  190.9310  176.5200  147.7990 F   0  0  0  0  0  0  0  0  0  0  0  0
  188.6020  175.2060  136.0590 O   0  0  0  0  0  1  0  0  0  0  0  0
  191.0180  175.7710  136.5950 C   0  0  1  0  0  3  0  0  0  0  0  0
  189.9360  174.8010  136.1470 C   0  0  2  0  0  0  0  0  0  0  0  0
  191.0860  173.0320  135.1680 C   0  0  0  0  0  2  0  0  0  0  0  0
  191.7580  174.3080  134.7040 C   0  0  0  0  0  2  0  0  0  0  0  0
  190.8290  175.4240  135.1070 C   0  0  2  0  0  3  0  0  0  0  0  0
  190.1960  173.3740  136.2700 N   0  0  0  0  0  2  0  0  0  0  0  0
  1 14  1  0  0  0  0
  2  9  1  0  0  0  0
  3 10  2  0  0  0  0
  4 13  2  0  0  0  0
  5 16  1  0  0  0  0
  6 12  2  0  0  0  0
  7  2  2  0  0  0  0
  7  6  1  0  0  0  0
  8 19  1  0  0  0  0
  9  1  2  0  0  0  0
  9  4  1  0  0  0  0
 10 18  2  0  0  0  0
 11  5  1  0  0  0  0
 12  1  1  0  0  0  0
 13 17  1  0  0  0  0
 13 20  1  0  0  0  0
 14 20  2  0  0  0  0
 15  2  1  0  0  0  0
 15  8  2  0  0  0  0
 16 17  2  0  0  0  0
 17 23  1  0  0  0  0
 18  8  1  0  0  0  0
 18 11  1  0  0  0  0
 19  5  2  0  0  0  0
 19  4  1  0  0  0  0
 21 27  1  0  0  0  0
 21 22  1  0  0  0  0
 23 25  1  0  0  0  0
 23 26  2  0  0  0  0
 24 22  2  0  0  0  0
 25 21  2  0  0  0  0
 26 24  1  0  0  0  0
 29  3  1  6  0  0  0
 30 28  1  1  0  0  0
 30 34  1  0  0  0  0
 30 29  1  0  0  0  0
 31 34  1  0  0  0  0
 32 31  1  0  0  0  0
 33 32  1  1  0  0  0
 33 30  1  0  0  0  0
 33 29  1  0  0  0  0
M  END
>  <MODEL>
6

>  <REMARK>
 VINA RESULT:     -10.5      3.621      8.386
  Name = 
  2 active torsions:
  status: ('A' for Active; 'I' for Inactive)
    1  A    between atoms: C_3  and  C_13
    2  A    between atoms: C_12  and  C_28
                            x       y       z     vdW  Elec       q    Type
                         _______ _______ _______ _____ _____    ______ ____

>  <TORSDO>
F 2

$$$$
=
 OpenBabel11052414163D

 34 41  0  0  1  0  0  0  0  0999 V2000
  189.2950  177.7960  140.2260 C   0  0  0  0  0  0  0  0  0  0  0  0
  187.3480  178.2530  138.8590 C   0  0  0  0  0  0  0  0  0  0  0  0
  182.0970  179.8810  138.5420 C   0  0  0  0  0  3  0  0  0  0  0  0
  187.1570  178.1260  141.2860 C   0  0  0  0  0  0  0  0  0  0  0  0
  184.9970  178.5280  142.2060 C   0  0  0  0  0  0  0  0  0  0  0  0
  189.4540  177.9170  137.8900 N   0  0  0  0  0  0  0  0  0  0  0  0
  188.1470  178.1760  137.7660 N   0  0  0  0  0  0  0  0  0  0  0  0
  185.2170  178.5980  139.9460 C   0  0  0  0  0  0  0  0  0  0  0  0
  187.9330  178.0520  140.1290 C   0  0  0  0  0  0  0  0  0  0  0  0
  182.9580  179.3780  139.3910 C   0  0  0  0  0  0  0  0  0  0  0  0
  183.6100  178.8770  141.7500 C   0  0  0  0  0  2  0  0  0  0  0  0
  190.0270  177.7320  139.0860 N   0  0  0  0  0  0  0  0  0  0  0  0
  187.6960  177.9580  142.5730 C   0  0  0  0  0  0  0  0  0  0  0  0
  189.8750  177.6200  141.4950 C   0  0  0  0  0  3  0  0  0  0  0  0
  185.9610  178.5380  138.7530 C   0  0  0  0  0  3  0  0  0  0  0  0
  185.4760  178.3830  143.4720 N   0  0  0  0  0  0  0  0  0  0  0  0
  186.8070  178.0860  143.6990 C   0  0  0  0  0  0  0  0  0  0  0  0
  183.8120  178.8820  140.2430 C   0  0  0  0  0  0  0  0  0  0  0  0
  185.8230  178.3950  141.1450 C   0  0  0  0  0  0  0  0  0  0  0  0
  189.0810  177.7050  142.6580 C   0  0  0  0  0  3  0  0  0  0  0  0
  188.8280  177.1280  146.7850 C   0  0  0  0  0  0  0  0  0  0  0  0
  188.0060  177.6150  147.8040 C   0  0  0  0  0  3  0  0  0  0  0  0
  187.2500  177.9280  145.1100 C   0  0  0  0  0  0  0  0  0  0  0  0
  186.8050  178.2530  147.4840 C   0  0  0  0  0  3  0  0  0  0  0  0
  188.4490  177.2800  145.4490 C   0  0  0  0  0  3  0  0  0  0  0  0
  186.4290  178.4040  146.1470 C   0  0  0  0  0  3  0  0  0  0  0  0
  189.9910  176.5060  147.0920 F   0  0  0  0  0  0  0  0  0  0  0  0
  180.8130  180.9370  136.2630 O   0  0  0  0  0  1  0  0  0  0  0  0
  181.4410  181.2290  138.7040 C   0  0  1  0  0  3  0  0  0  0  0  0
  180.8060  181.7260  137.4150 C   0  0  2  0  0  0  0  0  0  0  0  0
  179.4700  183.5180  138.0580 C   0  0  0  0  0  2  0  0  0  0  0  0
  179.2810  182.4310  139.0950 C   0  0  0  0  0  2  0  0  0  0  0  0
  179.9150  181.1970  138.5070 C   0  0  2  0  0  3  0  0  0  0  0  0
  180.6250  183.1600  137.2440 N   0  0  0  0  0  2  0  0  0  0  0  0
  1 14  1  0  0  0  0
  2  9  1  0  0  0  0
  3 10  2  0  0  0  0
  4 13  2  0  0  0  0
  5 16  1  0  0  0  0
  6 12  2  0  0  0  0
  7  6  1  0  0  0  0
  7  2  2  0  0  0  0
  8 18  1  0  0  0  0
  8 19  1  0  0  0  0
  9  1  2  0  0  0  0
  9  4  1  0  0  0  0
 10 18  2  0  0  0  0
 11  5  1  0  0  0  0
 12  1  1  0  0  0  0
 13 20  1  0  0  0  0
 13 17  1  0  0  0  0
 14 20  2  0  0  0  0
 15  2  1  0  0  0  0
 15  8  2  0  0  0  0
 16 17  2  0  0  0  0
 17 23  1  0  0  0  0
 18 11  1  0  0  0  0
 19  4  1  0  0  0  0
 19  5  2  0  0  0  0
 21 27  1  0  0  0  0
 21 22  1  0  0  0  0
 23 25  1  0  0  0  0
 23 26  2  0  0  0  0
 24 22  2  0  0  0  0
 25 21  2  0  0  0  0
 26 24  1  0  0  0  0
 29  3  1  6  0  0  0
 30 28  1  6  0  0  0
 30 33  1  0  0  0  0
 30 29  1  0  0  0  0
 31 32  1  0  0  0  0
 33 29  1  0  0  0  0
 33 32  1  1  0  0  0
 34 30  1  0  0  0  0
 34 31  1  0  0  0  0
M  END
>  <MODEL>
7

>  <REMARK>
 VINA RESULT:     -10.4      3.404      6.092
  Name = 
  2 active torsions:
  status: ('A' for Active; 'I' for Inactive)
    1  A    between atoms: C_3  and  C_13
    2  A    between atoms: C_12  and  C_28
                            x       y       z     vdW  Elec       q    Type
                         _______ _______ _______ _____ _____    ______ ____

>  <TORSDO>
F 2

$$$$
=
 OpenBabel11052414163D

 34 41  0  0  1  0  0  0  0  0999 V2000
  189.3380  177.7140  138.6570 C   0  0  0  0  0  0  0  0  0  0  0  0
  187.1900  178.2100  137.6530 C   0  0  0  0  0  0  0  0  0  0  0  0
  181.9980  179.9390  138.2620 C   0  0  0  0  0  3  0  0  0  0  0  0
  187.4270  178.0850  140.0760 C   0  0  0  0  0  0  0  0  0  0  0  0
  185.4720  178.5280  141.3620 C   0  0  0  0  0  0  0  0  0  0  0  0
  189.0850  177.8330  136.3290 N   0  0  0  0  0  0  0  0  0  0  0  0
  187.7820  178.1170  136.4370 N   0  0  0  0  0  0  0  0  0  0  0  0
  185.2920  178.5960  139.0980 C   0  0  0  0  0  0  0  0  0  0  0  0
  187.9860  177.9960  138.8010 C   0  0  0  0  0  0  0  0  0  0  0  0
  182.9850  179.4190  138.9480 C   0  0  0  0  0  0  0  0  0  0  0  0
  184.0340  178.9050  141.1560 C   0  0  0  0  0  2  0  0  0  0  0  0
  189.8570  177.6360  137.4060 N   0  0  0  0  0  0  0  0  0  0  0  0
  188.1820  177.9060  141.2480 C   0  0  0  0  0  0  0  0  0  0  0  0
  190.1290  177.5260  139.8040 C   0  0  0  0  0  3  0  0  0  0  0  0
  185.8120  178.5210  137.7930 C   0  0  0  0  0  3  0  0  0  0  0  0
  186.1640  178.3740  142.5240 N   0  0  0  0  0  0  0  0  0  0  0  0
  187.5080  178.0510  142.5130 C   0  0  0  0  0  0  0  0  0  0  0  0
  183.9670  178.9070  139.6370 C   0  0  0  0  0  0  0  0  0  0  0  0
  186.0960  178.3800  140.1720 C   0  0  0  0  0  0  0  0  0  0  0  0
  189.5550  177.6260  141.0890 C   0  0  0  0  0  3  0  0  0  0  0  0
  190.2010  177.7440  145.1930 C   0  0  0  0  0  0  0  0  0  0  0  0
  189.4220  177.5080  146.3280 C   0  0  0  0  0  3  0  0  0  0  0  0
  188.1900  177.8840  143.8250 C   0  0  0  0  0  0  0  0  0  0  0  0
  188.0300  177.4530  146.2170 C   0  0  0  0  0  3  0  0  0  0  0  0
  189.5880  177.9260  143.9510 C   0  0  0  0  0  3  0  0  0  0  0  0
  187.4200  177.6360  144.9740 C   0  0  0  0  0  3  0  0  0  0  0  0
  191.5500  177.7950  145.2960 F   0  0  0  0  0  0  0  0  0  0  0  0
  180.8660  181.2810  136.0540 O   0  0  0  0  0  1  0  0  0  0  0  0
  181.4070  181.3000  138.5340 C   0  0  1  0  0  3  0  0  0  0  0  0
  180.8520  181.9540  137.2780 C   0  0  2  0  0  0  0  0  0  0  0  0
  179.5860  183.7470  138.0460 C   0  0  0  0  0  2  0  0  0  0  0  0
  179.2970  182.5770  138.9630 C   0  0  0  0  0  2  0  0  0  0  0  0
  179.8900  181.3720  138.2790 C   0  0  2  0  0  3  0  0  0  0  0  0
  180.7540  183.4060  137.2430 N   0  0  0  0  0  2  0  0  0  0  0  0
  1  9  2  0  0  0  0
  1 14  1  0  0  0  0
  2 15  1  0  0  0  0
  2  9  1  0  0  0  0
  3 10  2  0  0  0  0
  4 19  1  0  0  0  0
  4 13  2  0  0  0  0
  5 16  1  0  0  0  0
  6  7  1  0  0  0  0
  6 12  2  0  0  0  0
  7  2  2  0  0  0  0
  8 18  1  0  0  0  0
  8 19  1  0  0  0  0
  9  4  1  0  0  0  0
 10 18  2  0  0  0  0
 11  5  1  0  0  0  0
 12  1  1  0  0  0  0
 13 17  1  0  0  0  0
 14 20  2  0  0  0  0
 15  8  2  0  0  0  0
 17 16  2  0  0  0  0
 17 23  1  0  0  0  0
 18 11  1  0  0  0  0
 19  5  2  0  0  0  0
 20 13  1  0  0  0  0
 21 27  1  0  0  0  0
 21 22  1  0  0  0  0
 23 25  1  0  0  0  0
 23 26  2  0  0  0  0
 24 22  2  0  0  0  0
 25 21  2  0  0  0  0
 26 24  1  0  0  0  0
 29  3  1  6  0  0  0
 30 28  1  6  0  0  0
 30 33  1  0  0  0  0
 30 29  1  0  0  0  0
 31 32  1  0  0  0  0
 33 29  1  0  0  0  0
 33 32  1  1  0  0  0
 34 30  1  0  0  0  0
 34 31  1  0  0  0  0
M  END
>  <MODEL>
8

>  <REMARK>
 VINA RESULT:     -10.0      3.546      6.163
  Name = 
  2 active torsions:
  status: ('A' for Active; 'I' for Inactive)
    1  A    between atoms: C_3  and  C_13
    2  A    between atoms: C_12  and  C_28
                            x       y       z     vdW  Elec       q    Type
                         _______ _______ _______ _____ _____    ______ ____

>  <TORSDO>
F 2

$$$$
=
 OpenBabel11052414163D

 34 41  0  0  1  0  0  0  0  0999 V2000
  187.7980  177.8400  145.9230 C   0  0  0  0  0  0  0  0  0  0  0  0
  185.4700  178.4480  145.6420 C   0  0  0  0  0  0  0  0  0  0  0  0
  181.1410  179.0810  142.2980 C   0  0  0  0  0  3  0  0  0  0  0  0
  186.9200  178.1660  143.7030 C   0  0  0  0  0  0  0  0  0  0  0  0
  185.9110  178.4640  141.5670 C   0  0  0  0  0  0  0  0  0  0  0  0
  186.3860  178.1220  147.7740 N   0  0  0  0  0  0  0  0  0  0  0  0
  185.3410  178.4200  146.9920 N   0  0  0  0  0  0  0  0  0  0  0  0
  184.6080  178.7530  143.4050 C   0  0  0  0  0  0  0  0  0  0  0  0
  186.7350  178.1560  145.0860 C   0  0  0  0  0  0  0  0  0  0  0  0
  182.4500  179.0350  142.2730 C   0  0  0  0  0  0  0  0  0  0  0  0
  184.5680  178.7750  140.9740 C   0  0  0  0  0  2  0  0  0  0  0  0
  187.5900  177.8350  147.2630 N   0  0  0  0  0  0  0  0  0  0  0  0
  188.1520  177.8590  143.1010 C   0  0  0  0  0  0  0  0  0  0  0  0
  189.0480  177.5280  145.3620 C   0  0  0  0  0  3  0  0  0  0  0  0
  184.3730  178.7500  144.7920 C   0  0  0  0  0  3  0  0  0  0  0  0
  187.0810  178.1630  140.9390 N   0  0  0  0  0  0  0  0  0  0  0  0
  188.2210  177.8700  141.6620 C   0  0  0  0  0  0  0  0  0  0  0  0
  183.7520  178.9850  142.2400 C   0  0  0  0  0  0  0  0  0  0  0  0
  185.8440  178.4690  142.9160 C   0  0  0  0  0  0  0  0  0  0  0  0
  189.2210  177.5330  143.9610 C   0  0  0  0  0  3  0  0  0  0  0  0
  191.8740  177.2370  140.7800 C   0  0  0  0  0  0  0  0  0  0  0  0
  191.7850  177.0400  139.4000 C   0  0  0  0  0  3  0  0  0  0  0  0
  189.4640  177.5670  140.9030 C   0  0  0  0  0  0  0  0  0  0  0  0
  190.5430  177.1110  138.7660 C   0  0  0  0  0  3  0  0  0  0  0  0
  190.7220  177.5020  141.5240 C   0  0  0  0  0  3  0  0  0  0  0  0
  189.3920  177.3760  139.5130 C   0  0  0  0  0  3  0  0  0  0  0  0
  193.0780  177.1720  141.3970 F   0  0  0  0  0  0  0  0  0  0  0  0
  180.8240  179.4250  139.5160 O   0  0  0  0  0  1  0  0  0  0  0  0
  180.2490  178.0890  141.5950 C   0  0  1  0  0  3  0  0  0  0  0  0
  180.1160  178.3770  140.1080 C   0  0  2  0  0  0  0  0  0  0  0  0
  179.1400  176.4650  139.2120 C   0  0  0  0  0  2  0  0  0  0  0  0
  180.1810  176.0040  140.2110 C   0  0  0  0  0  2  0  0  0  0  0  0
  180.9870  177.2320  140.5510 C   0  0  2  0  0  3  0  0  0  0  0  0
  178.9310  177.8930  139.4150 N   0  0  0  0  0  2  0  0  0  0  0  0
  1 12  1  0  0  0  0
  2  7  2  0  0  0  0
  4  9  1  0  0  0  0
  5 19  1  0  0  0  0
  7  6  1  0  0  0  0
  8 15  2  0  0  0  0
  9  2  1  0  0  0  0
  9  1  2  0  0  0  0
 10  3  2  0  0  0  0
 11  5  1  0  0  0  0
 11 18  1  0  0  0  0
 12  6  2  0  0  0  0
 13  4  1  0  0  0  0
 13 20  1  0  0  0  0
 14  1  1  0  0  0  0
 15  2  1  0  0  0  0
 16  5  2  0  0  0  0
 16 17  1  0  0  0  0
 17 13  2  0  0  0  0
 18 10  2  0  0  0  0
 18  8  1  0  0  0  0
 19  8  1  0  0  0  0
 19  4  2  0  0  0  0
 20 14  2  0  0  0  0
 21 27  1  0  0  0  0
 21 25  1  0  0  0  0
 22 21  2  0  0  0  0
 23 25  2  0  0  0  0
 23 17  1  0  0  0  0
 24 22  1  0  0  0  0
 24 26  2  0  0  0  0
 26 23  1  0  0  0  0
 29  3  1  1  0  0  0
 30 28  1  6  0  0  0
 30 33  1  0  0  0  0
 30 29  1  0  0  0  0
 31 34  1  0  0  0  0
 31 32  1  0  0  0  0
 33 32  1  6  0  0  0
 33 29  1  0  0  0  0
 34 30  1  0  0  0  0
M  END
>  <MODEL>
9

>  <REMARK>
 VINA RESULT:      -9.7      1.371      1.856
  Name = 
  2 active torsions:
  status: ('A' for Active; 'I' for Inactive)
    1  A    between atoms: C_3  and  C_13
    2  A    between atoms: C_12  and  C_28
                            x       y       z     vdW  Elec       q    Type
                         _______ _______ _______ _____ _____    ______ ____

>  <TORSDO>
F 2

$$$$
