=
 OpenBabel11052412383D

 30 32  0  0  1  0  0  0  0  0999 V2000
  188.1240  178.0850  138.4980 C   0  0  2  0  0  3  0  0  0  0  0  0
  185.7020  178.6440  138.4340 C   0  0  0  0  0  3  0  0  0  0  0  0
  185.3050  178.4470  142.6480 N   0  0  0  0  0  2  0  0  0  0  0  0
  188.4150  179.3420  141.8980 O   0  0  0  0  0  1  0  0  0  0  0  0
  188.7240  176.7390  138.9070 C   0  0  0  0  0  2  0  0  0  0  0  0
  191.7390  176.8340  139.7810 C   0  0  2  0  0  3  0  0  0  0  0  0
  191.1890  177.1330  138.3900 C   0  0  0  0  0  2  0  0  0  0  0  0
  190.1600  174.9870  138.1790 F   0  0  0  0  0  0  0  0  0  0  0  0
  188.6830  176.7250  143.5690 C   0  0  2  0  0  3  0  0  0  0  0  0
  186.3360  177.8380  143.4320 C   0  0  0  0  0  0  0  0  0  0  0  0
  189.9230  176.3430  138.0510 C   0  0  1  0  0  3  0  0  0  0  0  0
  191.0530  177.7390  140.8020 C   0  0  0  0  0  2  0  0  0  0  0  0
  184.4710  178.9130  139.0370 C   0  0  0  0  0  3  0  0  0  0  0  0
  189.6220  175.8010  142.7660 C   0  0  0  0  0  2  0  0  0  0  0  0
  193.2320  177.1010  139.7710 C   0  0  0  0  0  1  0  0  0  0  0  0
  189.0160  179.1300  138.7510 O   0  0  0  0  0  1  0  0  0  0  0  0
  185.4520  178.5680  141.2240 C   0  0  0  0  0  0  0  0  0  0  0  0
  184.3430  178.8750  140.4260 C   0  0  0  0  0  0  0  0  0  0  0  0
  191.5020  177.4850  142.2380 C   0  0  0  0  0  2  0  0  0  0  0  0
  186.8250  178.3420  139.2110 C   0  0  0  0  0  0  0  0  0  0  0  0
  187.9090  178.1030  141.5000 C   0  0  1  0  0  3  0  0  0  0  0  0
  186.2080  177.7410  144.6810 O   0  0  0  0  0  0  0  0  0  0  0  0
  187.5220  177.2530  142.7130 C   0  0  1  0  0  3  0  0  0  0  0  0
  191.7720  175.8220  144.0920 C   0  0  0  0  0  1  0  0  0  0  0  0
  183.1070  179.1300  141.0070 O   0  0  0  0  0  1  0  0  0  0  0  0
  186.7070  178.3210  140.6200 C   0  0  0  0  0  0  0  0  0  0  0  0
  191.1290  176.0970  142.7460 C   0  0  1  0  0  3  0  0  0  0  0  0
  189.2820  177.6700  144.5730 C   0  0  0  0  0  0  0  0  0  0  0  0
  189.2780  177.3160  145.9510 N   0  0  0  0  0  1  0  0  0  0  0  0
  189.7950  178.7620  144.2150 O   0  0  0  0  0  0  0  0  0  0  0  0
  1 16  1  1  0  0  0
  1  5  1  0  0  0  0
  1 20  1  0  0  0  0
  2 13  2  0  0  0  0
  2 20  1  0  0  0  0
  3 10  1  0  0  0  0
  6 15  1  6  0  0  0
  6 12  1  0  0  0  0
  7  6  1  0  0  0  0
  9 28  1  6  0  0  0
 10 22  2  0  0  0  0
 11  8  1  1  0  0  0
 11  7  1  0  0  0  0
 11  5  1  0  0  0  0
 12 19  1  0  0  0  0
 13 18  1  0  0  0  0
 14  9  1  0  0  0  0
 17  3  1  0  0  0  0
 18 25  1  0  0  0  0
 18 17  2  0  0  0  0
 19 27  1  0  0  0  0
 20 26  2  0  0  0  0
 21  4  1  1  0  0  0
 21 23  1  0  0  0  0
 23 10  1  1  0  0  0
 23  9  1  0  0  0  0
 26 17  1  0  0  0  0
 26 21  1  0  0  0  0
 27 14  1  0  0  0  0
 27 24  1  1  0  0  0
 28 29  1  0  0  0  0
 30 28  2  0  0  0  0
M  END
>  <MODEL>
1

>  <REMARK>
 VINA RESULT:      -8.4      0.000      0.000
  Name = 
  1 active torsions:
  status: ('A' for Active; 'I' for Inactive)
    1  A    between atoms: C_7  and  C_10
                            x       y       z     vdW  Elec       q    Type
                         _______ _______ _______ _____ _____    ______ ____

>  <TORSDO>
F 1

$$$$
=
 OpenBabel11052412383D

 30 32  0  0  1  0  0  0  0  0999 V2000
  186.3390  177.8150  146.5920 C   0  0  2  0  0  3  0  0  0  0  0  0
  184.1050  178.5030  145.7450 C   0  0  0  0  0  3  0  0  0  0  0  0
  185.4020  178.6030  141.7130 N   0  0  0  0  0  2  0  0  0  0  0  0
  187.2110  176.3650  143.3730 O   0  0  0  0  0  1  0  0  0  0  0  0
  187.6050  178.6750  146.5860 C   0  0  0  0  0  2  0  0  0  0  0  0
  190.3010  177.0790  146.8010 C   0  0  2  0  0  3  0  0  0  0  0  0
  189.2140  177.1720  147.8680 C   0  0  0  0  0  2  0  0  0  0  0  0
  189.3230  179.5560  147.9770 F   0  0  0  0  0  0  0  0  0  0  0  0
  189.2640  178.4150  142.2370 C   0  0  2  0  0  3  0  0  0  0  0  0
  186.8020  178.5870  141.4160 C   0  0  0  0  0  0  0  0  0  0  0  0
  188.4460  178.4950  147.8450 C   0  0  1  0  0  3  0  0  0  0  0  0
  189.6920  176.5570  145.5030 C   0  0  0  0  0  2  0  0  0  0  0  0
  183.2060  178.8250  144.7260 C   0  0  0  0  0  3  0  0  0  0  0  0
  190.1650  178.8170  143.4220 C   0  0  0  0  0  2  0  0  0  0  0  0
  191.3730  176.1250  147.2930 C   0  0  0  0  0  1  0  0  0  0  0  0
  186.6560  176.4560  146.5340 O   0  0  0  0  0  1  0  0  0  0  0  0
  184.9490  178.5150  143.0730 C   0  0  0  0  0  0  0  0  0  0  0  0
  183.6220  178.8330  143.3940 C   0  0  0  0  0  0  0  0  0  0  0  0
  190.6920  176.4710  144.3530 C   0  0  0  0  0  2  0  0  0  0  0  0
  185.4320  178.1750  145.4480 C   0  0  0  0  0  0  0  0  0  0  0  0
  187.2440  177.7160  143.7220 C   0  0  1  0  0  3  0  0  0  0  0  0
  187.1970  178.6550  140.2210 O   0  0  0  0  0  0  0  0  0  0  0  0
  187.7720  178.5690  142.5660 C   0  0  1  0  0  3  0  0  0  0  0  0
  192.3640  177.6770  142.9290 C   0  0  0  0  0  1  0  0  0  0  0  0
  182.7190  179.1720  142.3950 O   0  0  0  0  0  1  0  0  0  0  0  0
  185.8550  178.1620  144.0990 C   0  0  0  0  0  0  0  0  0  0  0  0
  191.2300  177.8320  143.9240 C   0  0  1  0  0  3  0  0  0  0  0  0
  189.6640  177.2380  141.3920 C   0  0  0  0  0  0  0  0  0  0  0  0
  190.3150  177.4620  140.1470 N   0  0  0  0  0  1  0  0  0  0  0  0
  189.4410  176.0580  141.7710 O   0  0  0  0  0  0  0  0  0  0  0  0
  1 16  1  6  0  0  0
  3 17  1  0  0  0  0
  5  1  1  0  0  0  0
  5 11  1  0  0  0  0
  6 15  1  1  0  0  0
  6  7  1  0  0  0  0
  9 28  1  1  0  0  0
  9 23  1  0  0  0  0
  9 14  1  0  0  0  0
 10  3  1  0  0  0  0
 11  7  1  0  0  0  0
 11  8  1  6  0  0  0
 12  6  1  0  0  0  0
 13  2  2  0  0  0  0
 14 27  1  0  0  0  0
 17 18  2  0  0  0  0
 17 26  1  0  0  0  0
 18 13  1  0  0  0  0
 19 12  1  0  0  0  0
 20  2  1  0  0  0  0
 20  1  1  0  0  0  0
 21  4  1  6  0  0  0
 21 26  1  0  0  0  0
 22 10  2  0  0  0  0
 23 10  1  6  0  0  0
 23 21  1  0  0  0  0
 25 18  1  0  0  0  0
 26 20  2  0  0  0  0
 27 24  1  6  0  0  0
 27 19  1  0  0  0  0
 28 30  2  0  0  0  0
 29 28  1  0  0  0  0
M  END
>  <MODEL>
2

>  <REMARK>
 VINA RESULT:      -8.3      3.161      5.636
  Name = 
  1 active torsions:
  status: ('A' for Active; 'I' for Inactive)
    1  A    between atoms: C_7  and  C_10
                            x       y       z     vdW  Elec       q    Type
                         _______ _______ _______ _____ _____    ______ ____

>  <TORSDO>
F 1

$$$$
=
 OpenBabel11052412383D

 30 32  0  0  1  0  0  0  0  0999 V2000
  184.8470  178.5340  144.3710 C   0  0  2  0  0  3  0  0  0  0  0  0
  183.7220  179.0720  142.2200 C   0  0  0  0  0  3  0  0  0  0  0  0
  187.2400  178.4300  139.9470 N   0  0  0  0  0  2  0  0  0  0  0  0
  187.3450  176.5170  142.6620 O   0  0  0  0  0  1  0  0  0  0  0  0
  185.9350  179.3700  145.0480 C   0  0  0  0  0  2  0  0  0  0  0  0
  187.7010  177.8200  147.1320 C   0  0  2  0  0  3  0  0  0  0  0  0
  186.2080  178.1130  147.2480 C   0  0  0  0  0  2  0  0  0  0  0  0
  186.5100  180.4760  147.0740 F   0  0  0  0  0  0  0  0  0  0  0  0
  189.8870  178.3130  142.8110 C   0  0  2  0  0  3  0  0  0  0  0  0
  188.5080  178.3500  140.6070 C   0  0  0  0  0  0  0  0  0  0  0  0
  185.7850  179.4150  146.5650 C   0  0  1  0  0  3  0  0  0  0  0  0
  187.9710  177.0760  145.8280 C   0  0  0  0  0  2  0  0  0  0  0  0
  183.6950  179.2100  140.8300 C   0  0  0  0  0  3  0  0  0  0  0  0
  189.8980  178.9180  144.2300 C   0  0  0  0  0  2  0  0  0  0  0  0
  188.1130  176.9640  148.3150 C   0  0  0  0  0  1  0  0  0  0  0  0
  184.9650  177.1850  144.7120 O   0  0  0  0  0  1  0  0  0  0  0  0
  186.0340  178.5930  140.7110 C   0  0  0  0  0  0  0  0  0  0  0  0
  184.8450  178.9740  140.0750 C   0  0  0  0  0  0  0  0  0  0  0  0
  189.4490  176.7760  145.5930 C   0  0  0  0  0  2  0  0  0  0  0  0
  184.8950  178.6860  142.8760 C   0  0  0  0  0  0  0  0  0  0  0  0
  187.3150  177.9090  142.7650 C   0  0  1  0  0  3  0  0  0  0  0  0
  189.5630  178.1980  139.9340 O   0  0  0  0  0  0  0  0  0  0  0  0
  188.5440  178.5350  142.0990 C   0  0  1  0  0  3  0  0  0  0  0  0
  191.7720  177.6910  145.3980 C   0  0  0  0  0  1  0  0  0  0  0  0
  184.8040  179.1320  138.6960 O   0  0  0  0  0  1  0  0  0  0  0  0
  186.0590  178.4260  142.1150 C   0  0  0  0  0  0  0  0  0  0  0  0
  190.2950  178.0330  145.4200 C   0  0  1  0  0  3  0  0  0  0  0  0
  190.5800  176.9990  142.5790 C   0  0  0  0  0  0  0  0  0  0  0  0
  191.9440  176.9920  142.1770 N   0  0  0  0  0  1  0  0  0  0  0  0
  189.9760  175.9070  142.7440 O   0  0  0  0  0  0  0  0  0  0  0  0
  1 16  1  6  0  0  0
  1  5  1  0  0  0  0
  2 20  1  0  0  0  0
  3 10  1  0  0  0  0
  3 17  1  0  0  0  0
  5 11  1  0  0  0  0
  6  7  1  0  0  0  0
  6 15  1  1  0  0  0
  9 28  1  1  0  0  0
  9 14  1  0  0  0  0
 11  8  1  1  0  0  0
 11  7  1  0  0  0  0
 12  6  1  0  0  0  0
 13  2  2  0  0  0  0
 14 27  1  0  0  0  0
 17 26  1  0  0  0  0
 18 17  2  0  0  0  0
 18 13  1  0  0  0  0
 19 12  1  0  0  0  0
 20  1  1  0  0  0  0
 21  4  1  6  0  0  0
 22 10  2  0  0  0  0
 23 10  1  6  0  0  0
 23 21  1  0  0  0  0
 23  9  1  0  0  0  0
 25 18  1  0  0  0  0
 26 21  1  0  0  0  0
 26 20  2  0  0  0  0
 27 24  1  6  0  0  0
 27 19  1  0  0  0  0
 28 30  2  0  0  0  0
 29 28  1  0  0  0  0
M  END
>  <MODEL>
3

>  <REMARK>
 VINA RESULT:      -7.5      3.041      5.467
  Name = 
  1 active torsions:
  status: ('A' for Active; 'I' for Inactive)
    1  A    between atoms: C_7  and  C_10
                            x       y       z     vdW  Elec       q    Type
                         _______ _______ _______ _____ _____    ______ ____

>  <TORSDO>
F 1

$$$$
=
 OpenBabel11052412383D

 30 32  0  0  1  0  0  0  0  0999 V2000
  185.2120  178.7140  141.6580 C   0  0  2  0  0  3  0  0  0  0  0  0
  185.6280  178.8220  139.2100 C   0  0  0  0  0  3  0  0  0  0  0  0
  189.6470  177.5380  139.5960 N   0  0  0  0  0  2  0  0  0  0  0  0
  187.8620  176.2600  142.0890 O   0  0  0  0  0  1  0  0  0  0  0  0
  185.8370  179.6260  142.7160 C   0  0  0  0  0  2  0  0  0  0  0  0
  185.8070  178.4870  145.6430 C   0  0  2  0  0  3  0  0  0  0  0  0
  184.5900  178.8670  144.8050 C   0  0  0  0  0  2  0  0  0  0  0  0
  185.3240  181.1190  144.4960 F   0  0  0  0  0  0  0  0  0  0  0  0
  190.1160  177.9250  143.4500 C   0  0  2  0  0  3  0  0  0  0  0  0
  190.2750  177.5460  140.8820 C   0  0  0  0  0  0  0  0  0  0  0  0
  184.8570  180.0070  143.8200 C   0  0  1  0  0  3  0  0  0  0  0  0
  186.6460  177.4650  144.8820 C   0  0  0  0  0  2  0  0  0  0  0  0
  186.4240  178.6560  138.0740 C   0  0  0  0  0  3  0  0  0  0  0  0
  189.4140  178.8230  144.4890 C   0  0  0  0  0  2  0  0  0  0  0  0
  185.3190  177.8900  146.9500 C   0  0  0  0  0  1  0  0  0  0  0  0
  184.8880  177.4680  142.1990 O   0  0  0  0  0  1  0  0  0  0  0  0
  188.2690  177.9200  139.4600 C   0  0  0  0  0  0  0  0  0  0  0  0
  187.7400  178.2080  138.1950 C   0  0  0  0  0  0  0  0  0  0  0  0
  187.9180  177.0520  145.6180 C   0  0  0  0  0  2  0  0  0  0  0  0
  186.1310  178.5350  140.4820 C   0  0  0  0  0  0  0  0  0  0  0  0
  188.0100  177.6410  141.9470 C   0  0  1  0  0  3  0  0  0  0  0  0
  191.4820  177.2020  140.9990 O   0  0  0  0  0  0  0  0  0  0  0  0
  189.4820  178.0490  142.0570 C   0  0  1  0  0  3  0  0  0  0  0  0
  190.0480  177.7950  146.7080 C   0  0  0  0  0  1  0  0  0  0  0  0
  188.5230  178.0630  137.0560 O   0  0  0  0  0  1  0  0  0  0  0  0
  187.4580  178.0610  140.6100 C   0  0  0  0  0  0  0  0  0  0  0  0
  188.9050  178.2010  145.7980 C   0  0  1  0  0  3  0  0  0  0  0  0
  190.5870  176.5620  143.8730 C   0  0  0  0  0  0  0  0  0  0  0  0
  191.7460  176.4470  144.6890 N   0  0  0  0  0  1  0  0  0  0  0  0
  189.9690  175.5220  143.5250 O   0  0  0  0  0  0  0  0  0  0  0  0
  1 16  1  1  0  0  0
  1  5  1  0  0  0  0
  2 20  1  0  0  0  0
  3 10  1  0  0  0  0
  5 11  1  0  0  0  0
  6 15  1  1  0  0  0
  7  6  1  0  0  0  0
  9 28  1  1  0  0  0
  9 14  1  0  0  0  0
 10 22  2  0  0  0  0
 11  8  1  1  0  0  0
 11  7  1  0  0  0  0
 12 19  1  0  0  0  0
 12  6  1  0  0  0  0
 13 18  1  0  0  0  0
 13  2  2  0  0  0  0
 14 27  1  0  0  0  0
 17  3  1  0  0  0  0
 17 26  1  0  0  0  0
 18 17  2  0  0  0  0
 19 27  1  0  0  0  0
 20 26  2  0  0  0  0
 20  1  1  0  0  0  0
 21 23  1  0  0  0  0
 21  4  1  6  0  0  0
 23 10  1  6  0  0  0
 23  9  1  0  0  0  0
 25 18  1  0  0  0  0
 26 21  1  0  0  0  0
 27 24  1  6  0  0  0
 28 29  1  0  0  0  0
 30 28  2  0  0  0  0
M  END
>  <MODEL>
4

>  <REMARK>
 VINA RESULT:      -6.4      2.868      5.329
  Name = 
  1 active torsions:
  status: ('A' for Active; 'I' for Inactive)
    1  A    between atoms: C_7  and  C_10
                            x       y       z     vdW  Elec       q    Type
                         _______ _______ _______ _____ _____    ______ ____

>  <TORSDO>
F 1

$$$$
=
 OpenBabel11052412383D

 30 32  0  0  1  0  0  0  0  0999 V2000
  190.7530  177.2110  141.1280 C   0  0  2  0  0  3  0  0  0  0  0  0
  190.3610  177.4380  138.6830 C   0  0  0  0  0  3  0  0  0  0  0  0
  186.3520  178.7070  139.2050 N   0  0  0  0  0  2  0  0  0  0  0  0
  188.1260  179.6160  141.8630 O   0  0  0  0  0  1  0  0  0  0  0  0
  190.1070  176.1720  142.0470 C   0  0  0  0  0  2  0  0  0  0  0  0
  190.1200  176.9050  145.1010 C   0  0  2  0  0  3  0  0  0  0  0  0
  191.3420  176.6280  144.2300 C   0  0  0  0  0  2  0  0  0  0  0  0
  190.5860  174.4470  143.6140 F   0  0  0  0  0  0  0  0  0  0  0  0
  185.8400  177.8100  142.9670 C   0  0  2  0  0  3  0  0  0  0  0  0
  185.7110  178.5340  140.4720 C   0  0  0  0  0  0  0  0  0  0  0  0
  191.0720  175.6340  143.0980 C   0  0  1  0  0  3  0  0  0  0  0  0
  189.3000  178.0310  144.4780 C   0  0  0  0  0  2  0  0  0  0  0  0
  189.5790  177.7660  137.5740 C   0  0  0  0  0  3  0  0  0  0  0  0
  186.5210  176.7710  143.8810 C   0  0  0  0  0  2  0  0  0  0  0  0
  190.6010  177.3140  146.4800 C   0  0  0  0  0  1  0  0  0  0  0  0
  191.0850  178.3690  141.8340 O   0  0  0  0  0  1  0  0  0  0  0  0
  187.7280  178.3310  139.0300 C   0  0  0  0  0  0  0  0  0  0  0  0
  188.2660  178.2100  137.7420 C   0  0  0  0  0  0  0  0  0  0  0  0
  188.0250  178.3550  145.2520 C   0  0  0  0  0  2  0  0  0  0  0  0
  189.8480  177.5580  139.9790 C   0  0  0  0  0  0  0  0  0  0  0  0
  187.9650  178.2690  141.5340 C   0  0  1  0  0  3  0  0  0  0  0  0
  184.5070  178.8730  140.6240 O   0  0  0  0  0  0  0  0  0  0  0  0
  186.4870  177.8680  141.5750 C   0  0  1  0  0  3  0  0  0  0  0  0
  185.8760  177.4990  146.2130 C   0  0  0  0  0  1  0  0  0  0  0  0
  187.4970  178.5160  136.6270 O   0  0  0  0  0  1  0  0  0  0  0  0
  188.5250  178.0260  140.1570 C   0  0  0  0  0  0  0  0  0  0  0  0
  187.0240  177.2050  145.2660 C   0  0  1  0  0  3  0  0  0  0  0  0
  185.3790  179.1090  143.5660 C   0  0  0  0  0  0  0  0  0  0  0  0
  184.1650  179.1430  144.3060 N   0  0  0  0  0  1  0  0  0  0  0  0
  186.0530  180.1640  143.4310 O   0  0  0  0  0  0  0  0  0  0  0  0
  1 16  1  1  0  0  0
  1  5  1  0  0  0  0
  2 20  1  0  0  0  0
  3 10  1  0  0  0  0
  5 11  1  0  0  0  0
  6 15  1  1  0  0  0
  7  6  1  0  0  0  0
  9 28  1  1  0  0  0
  9 14  1  0  0  0  0
 10 22  2  0  0  0  0
 11  8  1  1  0  0  0
 11  7  1  0  0  0  0
 12  6  1  0  0  0  0
 12 19  1  0  0  0  0
 13 18  1  0  0  0  0
 13  2  2  0  0  0  0
 14 27  1  0  0  0  0
 17  3  1  0  0  0  0
 17 26  1  0  0  0  0
 18 17  2  0  0  0  0
 19 27  1  0  0  0  0
 20 26  2  0  0  0  0
 20  1  1  0  0  0  0
 21 23  1  0  0  0  0
 21  4  1  6  0  0  0
 23 10  1  6  0  0  0
 23  9  1  0  0  0  0
 25 18  1  0  0  0  0
 26 21  1  0  0  0  0
 27 24  1  1  0  0  0
 28 29  1  0  0  0  0
 30 28  2  0  0  0  0
M  END
>  <MODEL>
5

>  <REMARK>
 VINA RESULT:      -6.3      2.093      4.450
  Name = 
  1 active torsions:
  status: ('A' for Active; 'I' for Inactive)
    1  A    between atoms: C_7  and  C_10
                            x       y       z     vdW  Elec       q    Type
                         _______ _______ _______ _____ _____    ______ ____

>  <TORSDO>
F 1

$$$$
=
 OpenBabel11052412383D

 30 32  0  0  1  0  0  0  0  0999 V2000
  188.6790  178.0510  140.5400 C   0  0  2  0  0  3  0  0  0  0  0  0
  186.9730  178.2530  138.7430 C   0  0  0  0  0  3  0  0  0  0  0  0
  183.7860  178.7270  141.4950 N   0  0  0  0  0  2  0  0  0  0  0  0
  186.5780  179.8980  142.8640 O   0  0  0  0  0  1  0  0  0  0  0  0
  188.8090  176.8900  141.5280 C   0  0  0  0  0  2  0  0  0  0  0  0
  190.4000  177.5460  144.1540 C   0  0  2  0  0  3  0  0  0  0  0  0
  190.9620  177.5240  142.7360 C   0  0  0  0  0  2  0  0  0  0  0  0
  190.3200  175.2530  142.3630 F   0  0  0  0  0  0  0  0  0  0  0  0
  185.5770  177.6680  144.7960 C   0  0  2  0  0  3  0  0  0  0  0  0
  183.9860  178.4080  142.8760 C   0  0  0  0  0  0  0  0  0  0  0  0
  190.2600  176.5210  141.8160 C   0  0  1  0  0  3  0  0  0  0  0  0
  189.2180  178.5090  144.2150 C   0  0  0  0  0  2  0  0  0  0  0  0
  185.6700  178.4500  138.2810 C   0  0  0  0  0  3  0  0  0  0  0  0
  186.7930  176.7580  145.0630 C   0  0  0  0  0  2  0  0  0  0  0  0
  191.4980  178.0090  145.0940 C   0  0  0  0  0  1  0  0  0  0  0  0
  189.1720  179.2360  141.0920 O   0  0  0  0  0  1  0  0  0  0  0  0
  184.8740  178.6220  140.5620 C   0  0  0  0  0  0  0  0  0  0  0  0
  184.6210  178.6330  139.1840 C   0  0  0  0  0  0  0  0  0  0  0  0
  188.5530  178.5690  145.5880 C   0  0  0  0  0  2  0  0  0  0  0  0
  187.2500  178.2450  140.1140 C   0  0  0  0  0  0  0  0  0  0  0  0
  186.4610  178.5530  142.5130 C   0  0  1  0  0  3  0  0  0  0  0  0
  183.0330  178.5100  143.6940 O   0  0  0  0  0  0  0  0  0  0  0  0
  185.3300  177.8780  143.2950 C   0  0  1  0  0  3  0  0  0  0  0  0
  187.4460  177.3000  147.4430 C   0  0  0  0  0  1  0  0  0  0  0  0
  183.3290  178.8120  138.7070 O   0  0  0  0  0  1  0  0  0  0  0  0
  186.1960  178.4500  141.0340 C   0  0  0  0  0  0  0  0  0  0  0  0
  187.9070  177.2500  145.9990 C   0  0  1  0  0  3  0  0  0  0  0  0
  185.3400  178.8440  145.7030 C   0  0  0  0  0  0  0  0  0  0  0  0
  184.7250  178.6340  146.9680 N   0  0  0  0  0  1  0  0  0  0  0  0
  185.6840  180.0060  145.3650 O   0  0  0  0  0  0  0  0  0  0  0  0
  1 16  1  1  0  0  0
  1  5  1  0  0  0  0
  2 20  1  0  0  0  0
  3 10  1  0  0  0  0
  5 11  1  0  0  0  0
  6 12  1  0  0  0  0
  6 15  1  1  0  0  0
  7  6  1  0  0  0  0
  9 14  1  0  0  0  0
  9 28  1  1  0  0  0
 10 22  2  0  0  0  0
 11  8  1  1  0  0  0
 11  7  1  0  0  0  0
 12 19  1  0  0  0  0
 13  2  2  0  0  0  0
 13 18  1  0  0  0  0
 14 27  1  0  0  0  0
 17 26  1  0  0  0  0
 17  3  1  0  0  0  0
 18 17  2  0  0  0  0
 19 27  1  0  0  0  0
 20  1  1  0  0  0  0
 20 26  2  0  0  0  0
 21  4  1  1  0  0  0
 21 23  1  0  0  0  0
 23 10  1  1  0  0  0
 23  9  1  0  0  0  0
 25 18  1  0  0  0  0
 26 21  1  0  0  0  0
 27 24  1  1  0  0  0
 28 29  1  0  0  0  0
 30 28  2  0  0  0  0
M  END
>  <MODEL>
6

>  <REMARK>
 VINA RESULT:      -6.3      2.202      3.410
  Name = 
  1 active torsions:
  status: ('A' for Active; 'I' for Inactive)
    1  A    between atoms: C_7  and  C_10
                            x       y       z     vdW  Elec       q    Type
                         _______ _______ _______ _____ _____    ______ ____

>  <TORSDO>
F 1

$$$$
=
 OpenBabel11052412383D

 30 32  0  0  1  0  0  0  0  0999 V2000
  185.2500  178.4620  142.8300 C   0  0  2  0  0  3  0  0  0  0  0  0
  186.7370  177.8740  144.7340 C   0  0  0  0  0  3  0  0  0  0  0  0
  190.0840  177.2100  142.2220 N   0  0  0  0  0  2  0  0  0  0  0  0
  188.0970  179.4600  140.7990 O   0  0  0  0  0  1  0  0  0  0  0  0
  184.7660  177.5030  141.7410 C   0  0  0  0  0  2  0  0  0  0  0  0
  183.7890  178.8790  139.0930 C   0  0  2  0  0  3  0  0  0  0  0  0
  183.1420  179.0000  140.4690 C   0  0  0  0  0  2  0  0  0  0  0  0
  182.8160  176.6430  140.6820 F   0  0  0  0  0  0  0  0  0  0  0  0
  188.3180  177.1290  138.7450 C   0  0  2  0  0  3  0  0  0  0  0  0
  189.8970  177.0740  140.8100 C   0  0  0  0  0  0  0  0  0  0  0  0
  183.3160  177.7520  141.3380 C   0  0  1  0  0  3  0  0  0  0  0  0
  185.2530  179.3000  139.1830 C   0  0  0  0  0  2  0  0  0  0  0  0
  187.9690  177.5160  145.2860 C   0  0  0  0  0  3  0  0  0  0  0  0
  186.8710  176.7880  138.3300 C   0  0  0  0  0  2  0  0  0  0  0  0
  183.0440  179.7890  138.1340 C   0  0  0  0  0  1  0  0  0  0  0  0
  185.3050  179.7740  142.3550 O   0  0  0  0  0  1  0  0  0  0  0  0
  188.9650  177.4890  143.0780 C   0  0  0  0  0  0  0  0  0  0  0  0
  189.0810  177.3220  144.4640 C   0  0  0  0  0  0  0  0  0  0  0  0
  186.0060  179.1710  137.8610 C   0  0  0  0  0  2  0  0  0  0  0  0
  186.5990  178.0530  143.3540 C   0  0  0  0  0  0  0  0  0  0  0  0
  187.6510  178.1600  141.0400 C   0  0  1  0  0  3  0  0  0  0  0  0
  190.8820  176.8380  140.0600 O   0  0  0  0  0  0  0  0  0  0  0  0
  188.4950  177.1390  140.2700 C   0  0  1  0  0  3  0  0  0  0  0  0
  186.6900  177.6750  135.9720 C   0  0  0  0  0  1  0  0  0  0  0  0
  190.2950  176.9510  145.0290 O   0  0  0  0  0  1  0  0  0  0  0  0
  187.7260  177.8780  142.5180 C   0  0  0  0  0  0  0  0  0  0  0  0
  186.1210  177.7300  137.3770 C   0  0  1  0  0  3  0  0  0  0  0  0
  189.0700  178.1650  137.9570 C   0  0  0  0  0  0  0  0  0  0  0  0
  189.8060  177.7670  136.8060 N   0  0  0  0  0  1  0  0  0  0  0  0
  189.0530  179.3780  138.2930 O   0  0  0  0  0  0  0  0  0  0  0  0
  1 16  1  6  0  0  0
  1 20  1  0  0  0  0
  2 13  1  0  0  0  0
  3 17  1  0  0  0  0
  5  1  1  0  0  0  0
  6 15  1  6  0  0  0
  6 12  1  0  0  0  0
  6  7  1  0  0  0  0
  7 11  1  0  0  0  0
  9 28  1  1  0  0  0
  9 23  1  0  0  0  0
 10  3  1  0  0  0  0
 11  8  1  6  0  0  0
 11  5  1  0  0  0  0
 14  9  1  0  0  0  0
 17 18  1  0  0  0  0
 18 25  1  0  0  0  0
 18 13  2  0  0  0  0
 19 12  1  0  0  0  0
 20  2  2  0  0  0  0
 21  4  1  1  0  0  0
 21 26  1  0  0  0  0
 22 10  2  0  0  0  0
 23 10  1  6  0  0  0
 23 21  1  0  0  0  0
 26 17  2  0  0  0  0
 26 20  1  0  0  0  0
 27 24  1  6  0  0  0
 27 19  1  0  0  0  0
 27 14  1  0  0  0  0
 28 30  2  0  0  0  0
 29 28  1  0  0  0  0
M  END
>  <MODEL>
7

>  <REMARK>
 VINA RESULT:      -5.9      2.545      6.469
  Name = 
  1 active torsions:
  status: ('A' for Active; 'I' for Inactive)
    1  A    between atoms: C_7  and  C_10
                            x       y       z     vdW  Elec       q    Type
                         _______ _______ _______ _____ _____    ______ ____

>  <TORSDO>
F 1

$$$$
=
 OpenBabel11052412383D

 30 32  0  0  1  0  0  0  0  0999 V2000
  182.1700  177.6730  139.7890 C   0  0  2  0  0  3  0  0  0  0  0  0
  182.4670  178.4600  142.1290 C   0  0  0  0  0  3  0  0  0  0  0  0
  186.6070  179.1930  141.6060 N   0  0  0  0  0  2  0  0  0  0  0  0
  185.0670  179.5750  138.6870 O   0  0  0  0  0  1  0  0  0  0  0  0
  182.7450  176.3860  139.1950 C   0  0  0  0  0  2  0  0  0  0  0  0
  182.9550  176.3420  136.0620 C   0  0  2  0  0  3  0  0  0  0  0  0
  181.6710  176.3990  136.8840 C   0  0  0  0  0  2  0  0  0  0  0  0
  182.1620  174.3780  138.0600 F   0  0  0  0  0  0  0  0  0  0  0  0
  187.2000  177.3530  138.2180 C   0  0  2  0  0  3  0  0  0  0  0  0
  187.2860  178.6560  140.4670 C   0  0  0  0  0  0  0  0  0  0  0  0
  181.7800  175.6950  138.2390 C   0  0  1  0  0  3  0  0  0  0  0  0
  183.8590  177.5070  136.4540 C   0  0  0  0  0  2  0  0  0  0  0  0
  183.2260  178.9800  143.1800 C   0  0  0  0  0  3  0  0  0  0  0  0
  186.4570  176.1880  137.5330 C   0  0  0  0  0  2  0  0  0  0  0  0
  182.5850  176.4400  134.5940 C   0  0  0  0  0  1  0  0  0  0  0  0
  181.9950  178.6460  138.8030 O   0  0  0  0  0  1  0  0  0  0  0  0
  185.1930  178.9970  141.7670 C   0  0  0  0  0  0  0  0  0  0  0  0
  184.5840  179.2470  143.0040 C   0  0  0  0  0  0  0  0  0  0  0  0
  185.1960  177.5140  135.7170 C   0  0  0  0  0  2  0  0  0  0  0  0
  183.0510  178.2100  140.8830 C   0  0  0  0  0  0  0  0  0  0  0  0
  185.0700  178.3420  139.3410 C   0  0  1  0  0  3  0  0  0  0  0  0
  188.5250  178.8370  140.3240 O   0  0  0  0  0  0  0  0  0  0  0  0
  186.4970  177.8110  139.5040 C   0  0  1  0  0  3  0  0  0  0  0  0
  187.2860  176.2560  135.1480 C   0  0  0  0  0  1  0  0  0  0  0  0
  185.3280  179.7480  144.0650 O   0  0  0  0  0  1  0  0  0  0  0  0
  184.4220  178.4980  140.6920 C   0  0  0  0  0  0  0  0  0  0  0  0
  186.0700  176.3100  136.0520 C   0  0  1  0  0  3  0  0  0  0  0  0
  187.8230  178.4180  137.3580 C   0  0  0  0  0  0  0  0  0  0  0  0
  189.2030  178.3260  137.0260 N   0  0  0  0  0  1  0  0  0  0  0  0
  187.1430  179.3820  136.9200 O   0  0  0  0  0  0  0  0  0  0  0  0
  1 16  1  6  0  0  0
  1 20  1  0  0  0  0
  2 13  1  0  0  0  0
  3 17  1  0  0  0  0
  5  1  1  0  0  0  0
  6 15  1  6  0  0  0
  6 12  1  0  0  0  0
  6  7  1  0  0  0  0
  7 11  1  0  0  0  0
  9 28  1  6  0  0  0
  9 23  1  0  0  0  0
 10  3  1  0  0  0  0
 11  8  1  6  0  0  0
 11  5  1  0  0  0  0
 14  9  1  0  0  0  0
 17 18  1  0  0  0  0
 18 13  2  0  0  0  0
 18 25  1  0  0  0  0
 19 27  1  0  0  0  0
 19 12  1  0  0  0  0
 20  2  2  0  0  0  0
 21  4  1  1  0  0  0
 21 23  1  0  0  0  0
 21 26  1  0  0  0  0
 22 10  2  0  0  0  0
 23 10  1  6  0  0  0
 26 20  1  0  0  0  0
 26 17  2  0  0  0  0
 27 24  1  6  0  0  0
 27 14  1  0  0  0  0
 29 28  1  0  0  0  0
 30 28  2  0  0  0  0
M  END
>  <MODEL>
8

>  <REMARK>
 VINA RESULT:      -5.7      3.640      6.684
  Name = 
  1 active torsions:
  status: ('A' for Active; 'I' for Inactive)
    1  A    between atoms: C_7  and  C_10
                            x       y       z     vdW  Elec       q    Type
                         _______ _______ _______ _____ _____    ______ ____

>  <TORSDO>
F 1

$$$$
