=
 OpenBabel11052415483D

 34 36  0  0  1  0  0  0  0  0999 V2000
  182.9310  178.3900  141.3290 C   0  0  0  0  0  0  0  0  0  0  0  0
  183.7200  179.3950  143.4680 C   0  0  1  0  0  3  0  0  0  0  0  0
  183.9070  178.5970  142.2200 C   0  0  0  0  0  3  0  0  0  0  0  0
  181.4440  178.5880  144.0390 C   0  0  0  0  0  3  0  0  0  0  0  0
  179.5570  179.2350  142.7600 F   0  0  0  0  0  0  0  0  0  0  0  0
  182.7240  178.7470  144.3720 C   0  0  0  0  0  3  0  0  0  0  0  0
  180.9850  179.4410  140.5020 O   0  0  0  0  0  0  0  0  0  0  0  0
  181.5760  178.9770  141.5130 C   0  0  0  0  0  0  0  0  0  0  0  0
  180.8850  178.9820  142.7760 N   0  0  0  0  0  0  0  0  0  0  0  0
  184.4160  177.4060  137.9670 C   0  0  0  0  0  3  0  0  0  0  0  0
  184.6840  179.3780  139.2530 F   0  0  0  0  0  0  0  0  0  0  0  0
  183.8400  176.1500  137.7600 C   0  0  0  0  0  0  0  0  0  0  0  0
  182.9550  175.6410  138.7210 C   0  0  0  0  0  3  0  0  0  0  0  0
  184.1300  178.1470  139.1170 C   0  0  0  0  0  0  0  0  0  0  0  0
  182.6620  176.3740  139.8720 C   0  0  0  0  0  3  0  0  0  0  0  0
  183.2500  177.6310  140.0920 C   0  0  0  0  0  0  0  0  0  0  0  0
  184.1700  175.4510  136.5890 O   0  0  0  0  0  0  0  0  0  0  0  0
  186.1470  174.9210  135.4850 O   0  0  0  0  0  0  0  0  0  0  0  0
  185.5370  173.4840  137.2660 C   0  0  0  0  0  1  0  0  0  0  0  0
  185.3110  174.6610  136.3890 C   0  0  0  0  0  0  0  0  0  0  0  0
  184.9660  179.6080  144.1370 O   0  0  0  0  0  0  0  0  0  0  0  0
  187.4460  176.9040  143.5250 C   0  0  0  0  0  2  0  0  0  0  0  0
  186.3690  178.3230  145.7170 C   0  0  0  0  0  3  0  0  0  0  0  0
  188.3060  177.1150  144.7790 C   0  0  2  0  0  3  0  0  0  0  0  0
  187.4550  177.5760  145.9400 C   0  0  0  0  0  0  0  0  0  0  0  0
  185.9440  178.6250  144.3410 C   0  0  0  0  0  0  0  0  0  0  0  0
  186.4890  177.9980  143.3380 N   0  0  0  0  0  0  0  0  0  0  0  0
  190.7090  177.8770  144.6230 C   0  0  0  0  0  3  0  0  0  0  0  0
  189.3950  178.1080  144.5140 C   0  0  0  0  0  3  0  0  0  0  0  0
  191.7330  176.3810  146.4190 C   0  0  0  0  0  1  0  0  0  0  0  0
  191.6990  175.6940  144.0290 C   0  0  0  0  0  1  0  0  0  0  0  0
  191.3180  176.6490  145.0510 N   0  0  0  0  0  0  0  0  0  0  0  0
  187.8350  177.2930  147.3290 C   0  0  0  0  0  3  0  0  0  0  0  0
  188.1970  178.2480  148.1760 C   0  0  0  0  0  2  0  0  0  0  0  0
  1  8  1  0  0  0  0
  1  3  2  0  0  0  0
  2 21  1  1  0  0  0
  2  6  1  0  0  0  0
  3  2  1  0  0  0  0
  4  6  2  0  0  0  0
  5  9  1  0  0  0  0
  7  8  2  0  0  0  0
  8  9  1  0  0  0  0
  9  4  1  0  0  0  0
 10 14  1  0  0  0  0
 12 10  2  0  0  0  0
 12 13  1  0  0  0  0
 13 15  2  0  0  0  0
 14 11  1  0  0  0  0
 14 16  2  0  0  0  0
 15 16  1  0  0  0  0
 16  1  1  0  0  0  0
 17 12  1  0  0  0  0
 18 20  2  0  0  0  0
 20 17  1  0  0  0  0
 20 19  1  0  0  0  0
 21 26  1  0  0  0  0
 22 24  1  0  0  0  0
 23 25  2  0  0  0  0
 24 29  1  6  0  0  0
 24 25  1  0  0  0  0
 25 33  1  0  0  0  0
 26 23  1  0  0  0  0
 27 22  1  0  0  0  0
 27 26  2  0  0  0  0
 28 32  1  0  0  0  0
 29 28  2  0  0  0  0
 31 32  1  0  0  0  0
 32 30  1  0  0  0  0
 33 34  2  0  0  0  0
M  END
>  <MODEL>
1

>  <REMARK>
 VINA RESULT:      -8.6      0.000      0.000
  Name = 
  8 active torsions:
  status: ('A' for Active; 'I' for Inactive)
    1  A    between atoms: C_1  and  C_34
    2  A    between atoms: C_7  and  N_21
    3  A    between atoms: C_8  and  O_18
    4  A    between atoms: C_14  and  C_16
    5  A    between atoms: O_18  and  C_30
    6  A    between atoms: O_23  and  C_24
    7  A    between atoms: O_23  and  C_25
    8  A    between atoms: C_26  and  C_28
                            x       y       z     vdW  Elec       q    Type
                         _______ _______ _______ _____ _____    ______ ____

>  <TORSDO>
F 8

$$$$
=
 OpenBabel11052415483D

 34 36  0  0  1  0  0  0  0  0999 V2000
  185.5420  178.7960  140.3850 C   0  0  0  0  0  0  0  0  0  0  0  0
  184.4520  179.1360  142.6000 C   0  0  1  0  0  3  0  0  0  0  0  0
  185.5650  178.6750  141.7170 C   0  0  0  0  0  3  0  0  0  0  0  0
  182.5660  178.4200  141.1560 C   0  0  0  0  0  3  0  0  0  0  0  0
  182.0780  179.5470  139.1280 F   0  0  0  0  0  0  0  0  0  0  0  0
  183.2010  178.3700  142.3260 C   0  0  0  0  0  3  0  0  0  0  0  0
  184.6440  180.2000  138.7120 O   0  0  0  0  0  0  0  0  0  0  0  0
  184.3970  179.4380  139.6840 C   0  0  0  0  0  0  0  0  0  0  0  0
  183.0210  179.1780  140.0240 N   0  0  0  0  0  0  0  0  0  0  0  0
  189.1330  178.0000  139.4120 C   0  0  0  0  0  3  0  0  0  0  0  0
  188.2460  178.9380  141.3990 F   0  0  0  0  0  0  0  0  0  0  0  0
  188.9710  177.5030  138.1160 C   0  0  0  0  0  0  0  0  0  0  0  0
  187.6830  177.4460  137.5650 C   0  0  0  0  0  3  0  0  0  0  0  0
  188.0330  178.4260  140.1600 C   0  0  0  0  0  0  0  0  0  0  0  0
  186.5780  177.8720  138.3050 C   0  0  0  0  0  3  0  0  0  0  0  0
  186.7340  178.3590  139.6130 C   0  0  0  0  0  0  0  0  0  0  0  0
  190.1130  177.0840  137.4160 O   0  0  0  0  0  0  0  0  0  0  0  0
  190.7400  175.0130  138.2690 O   0  0  0  0  0  0  0  0  0  0  0  0
  192.5020  176.5440  137.8610 C   0  0  0  0  0  1  0  0  0  0  0  0
  191.0670  176.1590  137.8630 C   0  0  0  0  0  0  0  0  0  0  0  0
  184.8190  179.0530  143.9790 O   0  0  0  0  0  0  0  0  0  0  0  0
  187.6200  176.6200  144.2300 C   0  0  0  0  0  2  0  0  0  0  0  0
  186.2660  178.4560  145.8940 C   0  0  0  0  0  3  0  0  0  0  0  0
  188.3780  177.2830  145.3890 C   0  0  2  0  0  3  0  0  0  0  0  0
  187.4150  177.9460  146.3470 C   0  0  0  0  0  0  0  0  0  0  0  0
  185.8880  178.2990  144.4800 C   0  0  0  0  0  0  0  0  0  0  0  0
  186.5580  177.4860  143.7140 N   0  0  0  0  0  0  0  0  0  0  0  0
  190.6610  178.0670  144.6450 C   0  0  0  0  0  3  0  0  0  0  0  0
  189.3600  178.2880  144.8720 C   0  0  0  0  0  3  0  0  0  0  0  0
  191.5890  175.8170  143.8800 C   0  0  0  0  0  1  0  0  0  0  0  0
  191.7140  176.5240  146.2610 C   0  0  0  0  0  1  0  0  0  0  0  0
  191.3640  176.8390  144.8900 N   0  0  0  0  0  0  0  0  0  0  0  0
  187.7440  178.1180  147.7670 C   0  0  0  0  0  3  0  0  0  0  0  0
  188.5040  177.2550  148.4300 C   0  0  0  0  0  2  0  0  0  0  0  0
  1  3  2  0  0  0  0
  2 21  1  1  0  0  0
  3  2  1  0  0  0  0
  4  6  2  0  0  0  0
  5  9  1  0  0  0  0
  6  2  1  0  0  0  0
  7  8  2  0  0  0  0
  8  9  1  0  0  0  0
  8  1  1  0  0  0  0
  9  4  1  0  0  0  0
 10 14  1  0  0  0  0
 12 10  2  0  0  0  0
 13 12  1  0  0  0  0
 13 15  2  0  0  0  0
 14 11  1  0  0  0  0
 15 16  1  0  0  0  0
 16 14  2  0  0  0  0
 16  1  1  0  0  0  0
 17 20  1  0  0  0  0
 17 12  1  0  0  0  0
 19 20  1  0  0  0  0
 20 18  2  0  0  0  0
 21 26  1  0  0  0  0
 22 24  1  0  0  0  0
 23 25  2  0  0  0  0
 24 29  1  6  0  0  0
 24 25  1  0  0  0  0
 25 33  1  0  0  0  0
 26 23  1  0  0  0  0
 27 22  1  0  0  0  0
 27 26  2  0  0  0  0
 28 29  2  0  0  0  0
 28 32  1  0  0  0  0
 30 32  1  0  0  0  0
 32 31  1  0  0  0  0
 33 34  2  0  0  0  0
M  END
>  <MODEL>
2

>  <REMARK>
 VINA RESULT:      -8.4      2.854      3.489
  Name = 
  8 active torsions:
  status: ('A' for Active; 'I' for Inactive)
    1  A    between atoms: C_1  and  C_34
    2  A    between atoms: C_7  and  N_21
    3  A    between atoms: C_8  and  O_18
    4  A    between atoms: C_14  and  C_16
    5  A    between atoms: O_18  and  C_30
    6  A    between atoms: O_23  and  C_24
    7  A    between atoms: O_23  and  C_25
    8  A    between atoms: C_26  and  C_28
                            x       y       z     vdW  Elec       q    Type
                         _______ _______ _______ _____ _____    ______ ____

>  <TORSDO>
F 8

$$$$
=
 OpenBabel11052415483D

 34 36  0  0  1  0  0  0  0  0999 V2000
  188.4410  177.5870  145.5140 C   0  0  0  0  0  0  0  0  0  0  0  0
  186.1680  177.8520  146.4980 C   0  0  1  0  0  3  0  0  0  0  0  0
  187.1320  177.8130  145.3590 C   0  0  0  0  0  3  0  0  0  0  0  0
  187.6170  179.0480  148.1180 C   0  0  0  0  0  3  0  0  0  0  0  0
  189.4920  177.9840  149.1030 F   0  0  0  0  0  0  0  0  0  0  0  0
  186.4820  178.9780  147.4250 C   0  0  0  0  0  3  0  0  0  0  0  0
  189.9200  176.4410  146.9540 O   0  0  0  0  0  0  0  0  0  0  0  0
  189.0300  177.3260  146.8560 C   0  0  0  0  0  0  0  0  0  0  0  0
  188.6750  178.0800  148.0310 N   0  0  0  0  0  0  0  0  0  0  0  0
  189.8570  176.5280  142.1450 C   0  0  0  0  0  3  0  0  0  0  0  0
  188.0280  175.6740  143.3860 F   0  0  0  0  0  0  0  0  0  0  0  0
  190.9380  177.4030  142.0050 C   0  0  0  0  0  0  0  0  0  0  0  0
  191.2020  178.3270  143.0260 C   0  0  0  0  0  3  0  0  0  0  0  0
  189.0400  176.5720  143.2780 C   0  0  0  0  0  0  0  0  0  0  0  0
  190.3920  178.3770  144.1620 C   0  0  0  0  0  3  0  0  0  0  0  0
  189.2960  177.5090  144.3010 C   0  0  0  0  0  0  0  0  0  0  0  0
  191.7190  177.3150  140.8420 O   0  0  0  0  0  0  0  0  0  0  0  0
  190.2710  177.8730  139.1090 O   0  0  0  0  0  0  0  0  0  0  0  0
  191.8970  176.2230  138.6130 C   0  0  0  0  0  1  0  0  0  0  0  0
  191.2410  177.1910  139.5300 C   0  0  0  0  0  0  0  0  0  0  0  0
  184.8190  177.9260  146.0310 O   0  0  0  0  0  0  0  0  0  0  0  0
  184.9190  179.5090  142.6670 C   0  0  0  0  0  2  0  0  0  0  0  0
  182.9870  178.7090  144.5640 C   0  0  0  0  0  3  0  0  0  0  0  0
  183.5270  179.0780  142.1850 C   0  0  2  0  0  3  0  0  0  0  0  0
  182.5540  179.0250  143.3410 C   0  0  0  0  0  0  0  0  0  0  0  0
  184.4220  178.4990  144.8150 C   0  0  0  0  0  0  0  0  0  0  0  0
  185.2960  178.8260  143.9070 N   0  0  0  0  0  0  0  0  0  0  0  0
  183.0690  177.4490  140.3100 C   0  0  0  0  0  3  0  0  0  0  0  0
  183.5920  177.7450  141.5060 C   0  0  0  0  0  3  0  0  0  0  0  0
  182.9170  179.3830  138.6540 C   0  0  0  0  0  1  0  0  0  0  0  0
  180.8730  178.3150  139.5840 C   0  0  0  0  0  1  0  0  0  0  0  0
  182.3180  178.3410  139.4720 N   0  0  0  0  0  0  0  0  0  0  0  0
  181.1160  179.2340  143.1410 C   0  0  0  0  0  3  0  0  0  0  0  0
  180.1990  178.6180  143.8760 C   0  0  0  0  0  2  0  0  0  0  0  0
  1  8  1  0  0  0  0
  2 21  1  6  0  0  0
  2  6  1  0  0  0  0
  3  1  2  0  0  0  0
  3  2  1  0  0  0  0
  6  4  2  0  0  0  0
  8  7  2  0  0  0  0
  8  9  1  0  0  0  0
  9  4  1  0  0  0  0
  9  5  1  0  0  0  0
 10 14  1  0  0  0  0
 12 10  2  0  0  0  0
 12 13  1  0  0  0  0
 13 15  2  0  0  0  0
 14 11  1  0  0  0  0
 14 16  2  0  0  0  0
 15 16  1  0  0  0  0
 16  1  1  0  0  0  0
 17 12  1  0  0  0  0
 18 20  2  0  0  0  0
 19 20  1  0  0  0  0
 20 17  1  0  0  0  0
 22 27  1  0  0  0  0
 23 26  1  0  0  0  0
 24 29  1  1  0  0  0
 24 22  1  0  0  0  0
 24 25  1  0  0  0  0
 25 23  2  0  0  0  0
 26 21  1  0  0  0  0
 27 26  2  0  0  0  0
 28 29  2  0  0  0  0
 30 32  1  0  0  0  0
 32 31  1  0  0  0  0
 32 28  1  0  0  0  0
 33 25  1  0  0  0  0
 33 34  2  0  0  0  0
M  END
>  <MODEL>
3

>  <REMARK>
 VINA RESULT:      -8.4      3.627      7.754
  Name = 
  8 active torsions:
  status: ('A' for Active; 'I' for Inactive)
    1  A    between atoms: C_1  and  C_34
    2  A    between atoms: C_7  and  N_21
    3  A    between atoms: C_8  and  O_18
    4  A    between atoms: C_14  and  C_16
    5  A    between atoms: O_18  and  C_30
    6  A    between atoms: O_23  and  C_24
    7  A    between atoms: O_23  and  C_25
    8  A    between atoms: C_26  and  C_28
                            x       y       z     vdW  Elec       q    Type
                         _______ _______ _______ _____ _____    ______ ____

>  <TORSDO>
F 8

$$$$
=
 OpenBabel11052415483D

 34 36  0  0  1  0  0  0  0  0999 V2000
  185.2100  178.1480  138.7570 C   0  0  0  0  0  0  0  0  0  0  0  0
  187.6790  178.0080  139.0600 C   0  0  1  0  0  3  0  0  0  0  0  0
  186.3140  178.4790  139.4380 C   0  0  0  0  0  3  0  0  0  0  0  0
  187.4320  178.2080  136.6000 C   0  0  0  0  0  3  0  0  0  0  0  0
  186.0480  176.7180  135.3810 F   0  0  0  0  0  0  0  0  0  0  0  0
  188.0750  178.5320  137.7200 C   0  0  0  0  0  3  0  0  0  0  0  0
  184.3610  176.3850  137.4370 O   0  0  0  0  0  0  0  0  0  0  0  0
  185.2690  177.2470  137.5760 C   0  0  0  0  0  0  0  0  0  0  0  0
  186.2770  177.3550  136.5520 N   0  0  0  0  0  0  0  0  0  0  0  0
  182.1960  178.7560  140.9990 C   0  0  0  0  0  3  0  0  0  0  0  0
  184.1510  177.4670  141.3600 F   0  0  0  0  0  0  0  0  0  0  0  0
  181.4000  179.5690  140.1870 C   0  0  0  0  0  0  0  0  0  0  0  0
  181.8530  179.8990  138.9020 C   0  0  0  0  0  3  0  0  0  0  0  0
  183.4330  178.2850  140.5500 C   0  0  0  0  0  0  0  0  0  0  0  0
  183.0860  179.4310  138.4440 C   0  0  0  0  0  3  0  0  0  0  0  0
  183.8970  178.6260  139.2620 C   0  0  0  0  0  0  0  0  0  0  0  0
  180.1710  180.0160  140.6950 O   0  0  0  0  0  0  0  0  0  0  0  0
  180.0540  180.8380  142.8680 O   0  0  0  0  0  0  0  0  0  0  0  0
  178.9310  178.7900  142.4720 C   0  0  0  0  0  1  0  0  0  0  0  0
  179.7520  179.9480  142.0310 C   0  0  0  0  0  0  0  0  0  0  0  0
  188.6410  178.3580  140.0590 O   0  0  0  0  0  0  0  0  0  0  0  0
  190.1530  175.9770  142.4830 C   0  0  0  0  0  2  0  0  0  0  0  0
  187.9790  177.7750  142.3700 C   0  0  0  0  0  3  0  0  0  0  0  0
  189.6640  176.6470  143.7750 C   0  0  2  0  0  3  0  0  0  0  0  0
  188.3090  177.2840  143.5670 C   0  0  0  0  0  0  0  0  0  0  0  0
  188.8900  177.6210  141.2240 C   0  0  0  0  0  0  0  0  0  0  0  0
  189.9180  176.8260  141.3130 N   0  0  0  0  0  0  0  0  0  0  0  0
  191.2460  177.6970  145.4410 C   0  0  0  0  0  3  0  0  0  0  0  0
  190.6480  177.6740  144.2430 C   0  0  0  0  0  3  0  0  0  0  0  0
  189.8710  176.7940  147.3910 C   0  0  0  0  0  1  0  0  0  0  0  0
  192.1070  175.8530  146.8420 C   0  0  0  0  0  1  0  0  0  0  0  0
  191.0290  176.7650  146.5110 N   0  0  0  0  0  0  0  0  0  0  0  0
  187.3640  177.4530  144.6770 C   0  0  0  0  0  3  0  0  0  0  0  0
  186.1070  177.8350  144.4880 C   0  0  0  0  0  2  0  0  0  0  0  0
  1 16  1  0  0  0  0
  1  3  2  0  0  0  0
  2  3  1  0  0  0  0
  2 21  1  1  0  0  0
  4  6  2  0  0  0  0
  5  9  1  0  0  0  0
  6  2  1  0  0  0  0
  7  8  2  0  0  0  0
  8  1  1  0  0  0  0
  9  4  1  0  0  0  0
  9  8  1  0  0  0  0
 12 17  1  0  0  0  0
 12 10  2  0  0  0  0
 13 12  1  0  0  0  0
 14 10  1  0  0  0  0
 14 11  1  0  0  0  0
 15 13  2  0  0  0  0
 15 16  1  0  0  0  0
 16 14  2  0  0  0  0
 17 20  1  0  0  0  0
 20 19  1  0  0  0  0
 20 18  2  0  0  0  0
 21 26  1  0  0  0  0
 22 24  1  0  0  0  0
 23 25  2  0  0  0  0
 24 29  1  6  0  0  0
 25 24  1  0  0  0  0
 25 33  1  0  0  0  0
 26 27  2  0  0  0  0
 26 23  1  0  0  0  0
 27 22  1  0  0  0  0
 28 32  1  0  0  0  0
 29 28  2  0  0  0  0
 32 31  1  0  0  0  0
 32 30  1  0  0  0  0
 34 33  2  0  0  0  0
M  END
>  <MODEL>
4

>  <REMARK>
 VINA RESULT:      -8.1      2.778      5.584
  Name = 
  8 active torsions:
  status: ('A' for Active; 'I' for Inactive)
    1  A    between atoms: C_1  and  C_34
    2  A    between atoms: C_7  and  N_21
    3  A    between atoms: C_8  and  O_18
    4  A    between atoms: C_14  and  C_16
    5  A    between atoms: O_18  and  C_30
    6  A    between atoms: O_23  and  C_24
    7  A    between atoms: O_23  and  C_25
    8  A    between atoms: C_26  and  C_28
                            x       y       z     vdW  Elec       q    Type
                         _______ _______ _______ _____ _____    ______ ____

>  <TORSDO>
F 8

$$$$
=
 OpenBabel11052415483D

 34 36  0  0  1  0  0  0  0  0999 V2000
  186.9510  178.3440  145.4970 C   0  0  0  0  0  0  0  0  0  0  0  0
  189.4370  178.2050  145.4310 C   0  0  1  0  0  3  0  0  0  0  0  0
  188.0870  178.2530  144.7960 C   0  0  0  0  0  3  0  0  0  0  0  0
  188.8500  176.7490  147.3520 C   0  0  0  0  0  3  0  0  0  0  0  0
  187.5040  177.5500  149.1310 F   0  0  0  0  0  0  0  0  0  0  0  0
  189.5910  176.9800  146.2690 C   0  0  0  0  0  3  0  0  0  0  0  0
  186.1500  179.2250  147.5360 O   0  0  0  0  0  0  0  0  0  0  0  0
  186.9600  178.4360  146.9810 C   0  0  0  0  0  0  0  0  0  0  0  0
  187.8070  177.6210  147.8150 N   0  0  0  0  0  0  0  0  0  0  0  0
  184.3970  178.4670  142.6780 C   0  0  0  0  0  3  0  0  0  0  0  0
  186.7560  178.2540  142.6130 F   0  0  0  0  0  0  0  0  0  0  0  0
  183.2040  178.6330  143.3860 C   0  0  0  0  0  0  0  0  0  0  0  0
  183.2480  178.7180  144.7850 C   0  0  0  0  0  3  0  0  0  0  0  0
  185.6210  178.3750  143.3470 C   0  0  0  0  0  0  0  0  0  0  0  0
  184.4660  178.6290  145.4610 C   0  0  0  0  0  3  0  0  0  0  0  0
  185.6670  178.4470  144.7550 C   0  0  0  0  0  0  0  0  0  0  0  0
  182.0050  178.7130  142.6600 O   0  0  0  0  0  0  0  0  0  0  0  0
  180.4410  180.4250  142.8420 O   0  0  0  0  0  0  0  0  0  0  0  0
  179.9020  178.4030  143.9540 C   0  0  0  0  0  1  0  0  0  0  0  0
  180.7930  179.2480  143.1170 C   0  0  0  0  0  0  0  0  0  0  0  0
  190.4730  178.2940  144.4490 O   0  0  0  0  0  0  0  0  0  0  0  0
  189.3140  176.3790  141.4780 C   0  0  0  0  0  2  0  0  0  0  0  0
  191.6230  177.7680  142.3230 C   0  0  0  0  0  3  0  0  0  0  0  0
  190.2160  177.0440  140.4290 C   0  0  2  0  0  3  0  0  0  0  0  0
  191.5490  177.4240  141.0340 C   0  0  0  0  0  0  0  0  0  0  0  0
  190.4310  177.6930  143.1840 C   0  0  0  0  0  0  0  0  0  0  0  0
  189.3570  177.0940  142.7570 N   0  0  0  0  0  0  0  0  0  0  0  0
  188.9760  178.3280  138.6430 C   0  0  0  0  0  3  0  0  0  0  0  0
  189.5520  178.2530  139.8490 C   0  0  0  0  0  3  0  0  0  0  0  0
  187.8650  176.2780  137.6060 C   0  0  0  0  0  1  0  0  0  0  0  0
  190.0730  177.0950  136.8060 C   0  0  0  0  0  1  0  0  0  0  0  0
  188.9210  177.2760  137.6670 N   0  0  0  0  0  0  0  0  0  0  0  0
  192.7650  177.5050  140.2180 C   0  0  0  0  0  3  0  0  0  0  0  0
  192.9260  176.7930  139.1100 C   0  0  0  0  0  2  0  0  0  0  0  0
  1  8  1  0  0  0  0
  2 21  1  6  0  0  0
  2  6  1  0  0  0  0
  3  2  1  0  0  0  0
  3  1  2  0  0  0  0
  4  9  1  0  0  0  0
  6  4  2  0  0  0  0
  8  7  2  0  0  0  0
  8  9  1  0  0  0  0
  9  5  1  0  0  0  0
 10 14  2  0  0  0  0
 10 12  1  0  0  0  0
 11 14  1  0  0  0  0
 12 13  2  0  0  0  0
 13 15  1  0  0  0  0
 14 16  1  0  0  0  0
 16 15  2  0  0  0  0
 16  1  1  0  0  0  0
 17 20  1  0  0  0  0
 17 12  1  0  0  0  0
 18 20  2  0  0  0  0
 20 19  1  0  0  0  0
 22 27  1  0  0  0  0
 23 26  1  0  0  0  0
 24 29  1  1  0  0  0
 24 25  1  0  0  0  0
 24 22  1  0  0  0  0
 25 23  2  0  0  0  0
 26 21  1  0  0  0  0
 27 26  2  0  0  0  0
 28 29  2  0  0  0  0
 30 32  1  0  0  0  0
 31 32  1  0  0  0  0
 32 28  1  0  0  0  0
 33 25  1  0  0  0  0
 34 33  2  0  0  0  0
M  END
>  <MODEL>
5

>  <REMARK>
 VINA RESULT:      -7.8      3.714      7.138
  Name = 
  8 active torsions:
  status: ('A' for Active; 'I' for Inactive)
    1  A    between atoms: C_1  and  C_34
    2  A    between atoms: C_7  and  N_21
    3  A    between atoms: C_8  and  O_18
    4  A    between atoms: C_14  and  C_16
    5  A    between atoms: O_18  and  C_30
    6  A    between atoms: O_23  and  C_24
    7  A    between atoms: O_23  and  C_25
    8  A    between atoms: C_26  and  C_28
                            x       y       z     vdW  Elec       q    Type
                         _______ _______ _______ _____ _____    ______ ____

>  <TORSDO>
F 8

$$$$
=
 OpenBabel11052415483D

 34 36  0  0  1  0  0  0  0  0999 V2000
  189.5360  177.5520  140.1500 C   0  0  0  0  0  0  0  0  0  0  0  0
  189.5370  178.0660  137.7120 C   0  0  1  0  0  3  0  0  0  0  0  0
  188.8700  177.8620  139.0320 C   0  0  0  0  0  3  0  0  0  0  0  0
  191.2020  176.2350  137.8960 C   0  0  0  0  0  3  0  0  0  0  0  0
  193.0300  176.3860  139.3960 F   0  0  0  0  0  0  0  0  0  0  0  0
  190.1920  176.8090  137.2440 C   0  0  0  0  0  3  0  0  0  0  0  0
  191.6530  177.8790  141.1430 O   0  0  0  0  0  0  0  0  0  0  0  0
  191.0170  177.4180  140.1580 C   0  0  0  0  0  0  0  0  0  0  0  0
  191.7510  176.7300  139.1270 N   0  0  0  0  0  0  0  0  0  0  0  0
  188.3960  176.4110  143.5960 C   0  0  0  0  0  3  0  0  0  0  0  0
  190.1550  175.6280  142.2170 F   0  0  0  0  0  0  0  0  0  0  0  0
  187.3030  177.2520  143.8250 C   0  0  0  0  0  0  0  0  0  0  0  0
  186.9400  178.1790  142.8380 C   0  0  0  0  0  3  0  0  0  0  0  0
  189.1280  176.4930  142.4090 C   0  0  0  0  0  0  0  0  0  0  0  0
  187.6650  178.2670  141.6490 C   0  0  0  0  0  3  0  0  0  0  0  0
  188.7730  177.4340  141.4200 C   0  0  0  0  0  0  0  0  0  0  0  0
  186.6100  177.1270  145.0390 O   0  0  0  0  0  0  0  0  0  0  0  0
  187.9950  177.7980  146.7830 O   0  0  0  0  0  0  0  0  0  0  0  0
  185.7870  178.6560  146.8230 C   0  0  0  0  0  1  0  0  0  0  0  0
  186.8700  177.8370  146.2190 C   0  0  0  0  0  0  0  0  0  0  0  0
  188.6170  178.5650  136.7390 O   0  0  0  0  0  0  0  0  0  0  0  0
  185.5190  177.0530  135.3420 C   0  0  0  0  0  2  0  0  0  0  0  0
  186.3200  178.4650  137.6520 C   0  0  0  0  0  3  0  0  0  0  0  0
  184.7860  176.8020  136.6670 C   0  0  2  0  0  3  0  0  0  0  0  0
  185.1200  177.8780  137.6750 C   0  0  0  0  0  0  0  0  0  0  0  0
  187.2910  178.1350  136.5960 C   0  0  0  0  0  0  0  0  0  0  0  0
  186.9150  177.4380  135.5620 N   0  0  0  0  0  0  0  0  0  0  0  0
  184.2680  174.4850  137.5290 C   0  0  0  0  0  3  0  0  0  0  0  0
  185.1370  175.4550  137.2180 C   0  0  0  0  0  3  0  0  0  0  0  0
  182.0840  174.1720  136.2470 C   0  0  0  0  0  1  0  0  0  0  0  0
  182.1240  175.2450  138.4910 C   0  0  0  0  0  1  0  0  0  0  0  0
  182.8390  174.5670  137.4260 N   0  0  0  0  0  0  0  0  0  0  0  0
  184.1820  178.2460  138.7410 C   0  0  0  0  0  3  0  0  0  0  0  0
  184.5370  179.0080  139.7690 C   0  0  0  0  0  2  0  0  0  0  0  0
  1  8  1  0  0  0  0
  1 16  1  0  0  0  0
  2 21  1  6  0  0  0
  2  3  1  0  0  0  0
  3  1  2  0  0  0  0
  4  9  1  0  0  0  0
  6  2  1  0  0  0  0
  6  4  2  0  0  0  0
  8  7  2  0  0  0  0
  9  5  1  0  0  0  0
  9  8  1  0  0  0  0
 10 12  1  0  0  0  0
 11 14  1  0  0  0  0
 12 17  1  0  0  0  0
 13 12  2  0  0  0  0
 14 10  2  0  0  0  0
 15 13  1  0  0  0  0
 16 15  2  0  0  0  0
 16 14  1  0  0  0  0
 17 20  1  0  0  0  0
 20 18  2  0  0  0  0
 20 19  1  0  0  0  0
 22 27  1  0  0  0  0
 22 24  1  0  0  0  0
 23 25  2  0  0  0  0
 24 29  1  1  0  0  0
 24 25  1  0  0  0  0
 25 33  1  0  0  0  0
 26 21  1  0  0  0  0
 26 23  1  0  0  0  0
 27 26  2  0  0  0  0
 29 28  2  0  0  0  0
 30 32  1  0  0  0  0
 32 28  1  0  0  0  0
 32 31  1  0  0  0  0
 33 34  2  0  0  0  0
M  END
>  <MODEL>
6

>  <REMARK>
 VINA RESULT:      -7.5      4.196      9.360
  Name = 
  8 active torsions:
  status: ('A' for Active; 'I' for Inactive)
    1  A    between atoms: C_1  and  C_34
    2  A    between atoms: C_7  and  N_21
    3  A    between atoms: C_8  and  O_18
    4  A    between atoms: C_14  and  C_16
    5  A    between atoms: O_18  and  C_30
    6  A    between atoms: O_23  and  C_24
    7  A    between atoms: O_23  and  C_25
    8  A    between atoms: C_26  and  C_28
                            x       y       z     vdW  Elec       q    Type
                         _______ _______ _______ _____ _____    ______ ____

>  <TORSDO>
F 8

$$$$
=
 OpenBabel11052415483D

 34 36  0  0  1  0  0  0  0  0999 V2000
  183.6800  178.7460  141.3170 C   0  0  0  0  0  0  0  0  0  0  0  0
  184.4810  178.9700  138.9680 C   0  0  1  0  0  3  0  0  0  0  0  0
  184.6780  178.9440  140.4480 C   0  0  0  0  0  3  0  0  0  0  0  0
  182.3280  180.2030  138.9410 C   0  0  0  0  0  3  0  0  0  0  0  0
  180.3210  179.1830  139.6830 F   0  0  0  0  0  0  0  0  0  0  0  0
  183.6030  180.1070  138.5650 C   0  0  0  0  0  3  0  0  0  0  0  0
  181.6010  177.6380  141.4600 O   0  0  0  0  0  0  0  0  0  0  0  0
  182.2870  178.5040  140.8560 C   0  0  0  0  0  0  0  0  0  0  0  0
  181.6670  179.2560  139.7950 N   0  0  0  0  0  0  0  0  0  0  0  0
  185.5460  178.1990  144.5870 C   0  0  0  0  0  3  0  0  0  0  0  0
  186.2200  177.8250  142.3470 F   0  0  0  0  0  0  0  0  0  0  0  0
  184.5860  178.5820  145.5280 C   0  0  0  0  0  0  0  0  0  0  0  0
  183.3250  179.0030  145.0810 C   0  0  0  0  0  3  0  0  0  0  0  0
  185.2680  178.2440  143.2190 C   0  0  0  0  0  0  0  0  0  0  0  0
  183.0380  179.0490  143.7150 C   0  0  0  0  0  3  0  0  0  0  0  0
  184.0050  178.6800  142.7650 C   0  0  0  0  0  0  0  0  0  0  0  0
  184.9250  178.5210  146.8880 O   0  0  0  0  0  0  0  0  0  0  0  0
  186.0800  180.3070  147.8290 O   0  0  0  0  0  0  0  0  0  0  0  0
  187.2560  178.2530  147.7200 C   0  0  0  0  0  1  0  0  0  0  0  0
  186.0550  179.0960  147.4870 C   0  0  0  0  0  0  0  0  0  0  0  0
  185.7340  179.0130  138.2800 O   0  0  0  0  0  0  0  0  0  0  0  0
  187.4700  175.8440  137.3990 C   0  0  0  0  0  2  0  0  0  0  0  0
  187.7970  178.0000  139.1940 C   0  0  0  0  0  3  0  0  0  0  0  0
  188.8840  176.2440  137.8430 C   0  0  2  0  0  3  0  0  0  0  0  0
  188.8280  177.1640  139.0420 C   0  0  0  0  0  0  0  0  0  0  0  0
  186.6680  177.9690  138.2500 C   0  0  0  0  0  0  0  0  0  0  0  0
  186.5620  176.9940  137.3940 N   0  0  0  0  0  0  0  0  0  0  0  0
  190.8880  176.6500  136.3600 C   0  0  0  0  0  3  0  0  0  0  0  0
  189.6240  176.9050  136.7220 C   0  0  0  0  0  3  0  0  0  0  0  0
  192.7930  176.1110  137.9690 C   0  0  0  0  0  1  0  0  0  0  0  0
  191.7860  174.3550  136.5240 C   0  0  0  0  0  1  0  0  0  0  0  0
  191.7790  175.7250  137.0000 N   0  0  0  0  0  0  0  0  0  0  0  0
  189.9260  177.2240  140.0130 C   0  0  0  0  0  3  0  0  0  0  0  0
  189.7260  177.5030  141.2950 C   0  0  0  0  0  2  0  0  0  0  0  0
  1 16  1  0  0  0  0
  2 21  1  6  0  0  0
  2  3  1  0  0  0  0
  3  1  2  0  0  0  0
  4  9  1  0  0  0  0
  5  9  1  0  0  0  0
  6  4  2  0  0  0  0
  6  2  1  0  0  0  0
  8  1  1  0  0  0  0
  8  7  2  0  0  0  0
  9  8  1  0  0  0  0
 10 12  1  0  0  0  0
 11 14  1  0  0  0  0
 12 17  1  0  0  0  0
 13 12  2  0  0  0  0
 14 10  2  0  0  0  0
 15 13  1  0  0  0  0
 16 14  1  0  0  0  0
 16 15  2  0  0  0  0
 17 20  1  0  0  0  0
 20 19  1  0  0  0  0
 20 18  2  0  0  0  0
 22 24  1  0  0  0  0
 24 29  1  6  0  0  0
 24 25  1  0  0  0  0
 25 23  2  0  0  0  0
 25 33  1  0  0  0  0
 26 21  1  0  0  0  0
 26 23  1  0  0  0  0
 27 22  1  0  0  0  0
 27 26  2  0  0  0  0
 28 29  2  0  0  0  0
 28 32  1  0  0  0  0
 31 32  1  0  0  0  0
 32 30  1  0  0  0  0
 33 34  2  0  0  0  0
M  END
>  <MODEL>
7

>  <REMARK>
 VINA RESULT:      -7.5      3.607      6.964
  Name = 
  8 active torsions:
  status: ('A' for Active; 'I' for Inactive)
    1  A    between atoms: C_1  and  C_34
    2  A    between atoms: C_7  and  N_21
    3  A    between atoms: C_8  and  O_18
    4  A    between atoms: C_14  and  C_16
    5  A    between atoms: O_18  and  C_30
    6  A    between atoms: O_23  and  C_24
    7  A    between atoms: O_23  and  C_25
    8  A    between atoms: C_26  and  C_28
                            x       y       z     vdW  Elec       q    Type
                         _______ _______ _______ _____ _____    ______ ____

>  <TORSDO>
F 8

$$$$
=
 OpenBabel11052415483D

 34 36  0  0  1  0  0  0  0  0999 V2000
  189.5570  177.5040  140.9100 C   0  0  0  0  0  0  0  0  0  0  0  0
  188.5670  178.1200  138.7080 C   0  0  1  0  0  3  0  0  0  0  0  0
  188.5260  177.9630  140.1930 C   0  0  0  0  0  3  0  0  0  0  0  0
  189.8280  176.0470  138.1900 C   0  0  0  0  0  3  0  0  0  0  0  0
  192.1280  175.8460  138.7230 F   0  0  0  0  0  0  0  0  0  0  0  0
  188.7390  176.7990  138.0360 C   0  0  0  0  0  3  0  0  0  0  0  0
  191.9170  177.4550  140.8560 O   0  0  0  0  0  0  0  0  0  0  0  0
  190.8490  177.1420  140.2670 C   0  0  0  0  0  0  0  0  0  0  0  0
  190.9340  176.3950  139.0370 N   0  0  0  0  0  0  0  0  0  0  0  0
  190.0970  178.1500  144.6210 C   0  0  0  0  0  3  0  0  0  0  0  0
  191.2350  179.0030  142.7260 F   0  0  0  0  0  0  0  0  0  0  0  0
  189.1260  177.3250  145.1950 C   0  0  0  0  0  0  0  0  0  0  0  0
  188.3090  176.5500  144.3580 C   0  0  0  0  0  3  0  0  0  0  0  0
  190.2520  178.2170  143.2340 C   0  0  0  0  0  0  0  0  0  0  0  0
  188.4590  176.6100  142.9720 C   0  0  0  0  0  3  0  0  0  0  0  0
  189.4240  177.4490  142.3890 C   0  0  0  0  0  0  0  0  0  0  0  0
  189.0130  177.3030  146.5940 O   0  0  0  0  0  0  0  0  0  0  0  0
  186.9010  178.2540  146.8060 O   0  0  0  0  0  0  0  0  0  0  0  0
  188.0780  177.8780  148.8280 C   0  0  0  0  0  1  0  0  0  0  0  0
  187.9530  177.8250  147.3480 C   0  0  0  0  0  0  0  0  0  0  0  0
  187.4030  178.7990  138.2280 O   0  0  0  0  0  0  0  0  0  0  0  0
  184.3400  178.6850  140.3350 C   0  0  0  0  0  2  0  0  0  0  0  0
  185.1870  177.7910  137.7930 C   0  0  0  0  0  3  0  0  0  0  0  0
  183.3090  178.5440  139.2060 C   0  0  2  0  0  3  0  0  0  0  0  0
  183.8780  177.7410  138.0590 C   0  0  0  0  0  0  0  0  0  0  0  0
  186.0950  178.5530  138.6650 C   0  0  0  0  0  0  0  0  0  0  0  0
  185.6710  179.0030  139.8120 N   0  0  0  0  0  0  0  0  0  0  0  0
  181.6500  180.4210  138.8860 C   0  0  0  0  0  3  0  0  0  0  0  0
  182.8680  179.8910  138.7220 C   0  0  0  0  0  3  0  0  0  0  0  0
  180.2990  179.7950  140.9570 C   0  0  0  0  0  1  0  0  0  0  0  0
  179.6800  178.9420  138.7050 C   0  0  0  0  0  1  0  0  0  0  0  0
  180.5300  179.7860  139.5220 N   0  0  0  0  0  0  0  0  0  0  0  0
  183.0130  176.9610  137.1670 C   0  0  0  0  0  3  0  0  0  0  0  0
  183.4260  175.8510  136.5680 C   0  0  0  0  0  2  0  0  0  0  0  0
  1 16  1  0  0  0  0
  2 21  1  6  0  0  0
  2  3  1  0  0  0  0
  3  1  2  0  0  0  0
  4  9  1  0  0  0  0
  5  9  1  0  0  0  0
  6  4  2  0  0  0  0
  6  2  1  0  0  0  0
  8  7  2  0  0  0  0
  8  1  1  0  0  0  0
  9  8  1  0  0  0  0
 10 12  1  0  0  0  0
 11 14  1  0  0  0  0
 12 17  1  0  0  0  0
 13 12  2  0  0  0  0
 14 10  2  0  0  0  0
 15 13  1  0  0  0  0
 16 15  2  0  0  0  0
 16 14  1  0  0  0  0
 17 20  1  0  0  0  0
 18 20  2  0  0  0  0
 20 19  1  0  0  0  0
 21 26  1  0  0  0  0
 23 25  2  0  0  0  0
 23 26  1  0  0  0  0
 24 29  1  6  0  0  0
 24 22  1  0  0  0  0
 25 24  1  0  0  0  0
 26 27  2  0  0  0  0
 27 22  1  0  0  0  0
 28 32  1  0  0  0  0
 29 28  2  0  0  0  0
 31 32  1  0  0  0  0
 32 30  1  0  0  0  0
 33 25  1  0  0  0  0
 34 33  2  0  0  0  0
M  END
>  <MODEL>
8

>  <REMARK>
 VINA RESULT:      -7.4      3.764      9.588
  Name = 
  8 active torsions:
  status: ('A' for Active; 'I' for Inactive)
    1  A    between atoms: C_1  and  C_34
    2  A    between atoms: C_7  and  N_21
    3  A    between atoms: C_8  and  O_18
    4  A    between atoms: C_14  and  C_16
    5  A    between atoms: O_18  and  C_30
    6  A    between atoms: O_23  and  C_24
    7  A    between atoms: O_23  and  C_25
    8  A    between atoms: C_26  and  C_28
                            x       y       z     vdW  Elec       q    Type
                         _______ _______ _______ _____ _____    ______ ____

>  <TORSDO>
F 8

$$$$
=
 OpenBabel11052415483D

 34 36  0  0  1  0  0  0  0  0999 V2000
  190.0670  177.1320  140.6950 C   0  0  0  0  0  0  0  0  0  0  0  0
  188.8120  177.2000  138.5440 C   0  0  1  0  0  3  0  0  0  0  0  0
  188.9040  177.1550  140.0340 C   0  0  0  0  0  3  0  0  0  0  0  0
  190.6810  175.6460  138.0480 C   0  0  0  0  0  3  0  0  0  0  0  0
  192.9340  176.2810  138.4150 F   0  0  0  0  0  0  0  0  0  0  0  0
  189.3930  175.9680  137.9340 C   0  0  0  0  0  3  0  0  0  0  0  0
  192.2930  177.8840  140.4650 O   0  0  0  0  0  0  0  0  0  0  0  0
  191.3690  177.1810  139.9770 C   0  0  0  0  0  0  0  0  0  0  0  0
  191.6420  176.4150  138.7880 N   0  0  0  0  0  0  0  0  0  0  0  0
  189.5170  178.2450  144.2920 C   0  0  0  0  0  3  0  0  0  0  0  0
  189.1080  179.3740  142.2490 F   0  0  0  0  0  0  0  0  0  0  0  0
  189.9860  177.1380  145.0040 C   0  0  0  0  0  0  0  0  0  0  0  0
  190.4950  176.0390  144.2980 C   0  0  0  0  0  3  0  0  0  0  0  0
  189.5380  178.2600  142.8950 C   0  0  0  0  0  0  0  0  0  0  0  0
  190.5220  176.0470  142.9020 C   0  0  0  0  0  3  0  0  0  0  0  0
  190.0370  177.1510  142.1800 C   0  0  0  0  0  0  0  0  0  0  0  0
  189.9340  177.1780  146.4060 O   0  0  0  0  0  0  0  0  0  0  0  0
  187.6470  177.1570  146.8350 O   0  0  0  0  0  0  0  0  0  0  0  0
  188.9980  178.2350  148.4560 C   0  0  0  0  0  1  0  0  0  0  0  0
  188.8100  177.4890  147.1850 C   0  0  0  0  0  0  0  0  0  0  0  0
  187.4620  177.4030  138.1160 O   0  0  0  0  0  0  0  0  0  0  0  0
  184.4490  179.4130  138.9590 C   0  0  0  0  0  2  0  0  0  0  0  0
  186.6710  178.2850  140.2870 C   0  0  0  0  0  3  0  0  0  0  0  0
  184.3080  178.9840  140.4260 C   0  0  2  0  0  3  0  0  0  0  0  0
  185.6660  178.7370  141.0430 C   0  0  0  0  0  0  0  0  0  0  0  0
  186.4910  178.1100  138.8370 C   0  0  0  0  0  0  0  0  0  0  0  0
  185.4330  178.5930  138.2490 N   0  0  0  0  0  0  0  0  0  0  0  0
  182.1530  177.7290  140.8260 C   0  0  0  0  0  3  0  0  0  0  0  0
  183.4610  177.7550  140.5390 C   0  0  0  0  0  3  0  0  0  0  0  0
  180.7800  179.7520  140.0990 C   0  0  0  0  0  1  0  0  0  0  0  0
  181.1830  179.2600  142.5030 C   0  0  0  0  0  1  0  0  0  0  0  0
  181.3290  178.8690  141.1150 N   0  0  0  0  0  0  0  0  0  0  0  0
  185.8950  178.9040  142.4820 C   0  0  0  0  0  3  0  0  0  0  0  0
  185.9210  177.8770  143.3220 C   0  0  0  0  0  2  0  0  0  0  0  0
  1 16  1  0  0  0  0
  2 21  1  1  0  0  0
  2  3  1  0  0  0  0
  3  1  2  0  0  0  0
  4  9  1  0  0  0  0
  5  9  1  0  0  0  0
  6  4  2  0  0  0  0
  6  2  1  0  0  0  0
  8  7  2  0  0  0  0
  8  1  1  0  0  0  0
  9  8  1  0  0  0  0
 10 12  1  0  0  0  0
 11 14  1  0  0  0  0
 12 17  1  0  0  0  0
 13 12  2  0  0  0  0
 14 10  2  0  0  0  0
 15 13  1  0  0  0  0
 16 14  1  0  0  0  0
 16 15  2  0  0  0  0
 17 20  1  0  0  0  0
 18 20  2  0  0  0  0
 20 19  1  0  0  0  0
 21 26  1  0  0  0  0
 22 24  1  0  0  0  0
 23 25  2  0  0  0  0
 24 29  1  6  0  0  0
 24 25  1  0  0  0  0
 25 33  1  0  0  0  0
 26 23  1  0  0  0  0
 27 26  2  0  0  0  0
 27 22  1  0  0  0  0
 28 32  1  0  0  0  0
 29 28  2  0  0  0  0
 30 32  1  0  0  0  0
 32 31  1  0  0  0  0
 33 34  2  0  0  0  0
M  END
>  <MODEL>
9

>  <REMARK>
 VINA RESULT:      -7.4      3.789      9.071
  Name = 
  8 active torsions:
  status: ('A' for Active; 'I' for Inactive)
    1  A    between atoms: C_1  and  C_34
    2  A    between atoms: C_7  and  N_21
    3  A    between atoms: C_8  and  O_18
    4  A    between atoms: C_14  and  C_16
    5  A    between atoms: O_18  and  C_30
    6  A    between atoms: O_23  and  C_24
    7  A    between atoms: O_23  and  C_25
    8  A    between atoms: C_26  and  C_28
                            x       y       z     vdW  Elec       q    Type
                         _______ _______ _______ _____ _____    ______ ____

>  <TORSDO>
F 8

$$$$
