=
 OpenBabel11052415323D

 37 41  0  0  1  0  0  0  0  0999 V2000
  191.5960  179.3900  144.4060 O   0  0  0  0  0  1  0  0  0  0  0  0
  190.0130  176.2810  141.0270 C   0  0  2  0  0  3  0  0  0  0  0  0
  187.3640  178.0070  138.9490 C   0  0  0  0  0  2  0  0  0  0  0  0
  191.1730  177.8250  142.6350 C   0  0  2  0  0  3  0  0  0  0  0  0
  189.0260  177.2950  140.6770 N   0  0  1  0  0  0  0  0  0  0  0  0
  190.3500  176.5180  142.4830 C   0  0  1  0  0  3  0  0  0  0  0  0
  188.3680  176.9260  139.4120 C   0  0  2  0  0  3  0  0  0  0  0  0
  192.3570  177.8780  141.6600 C   0  0  0  0  0  2  0  0  0  0  0  0
  188.9270  176.6910  143.0090 C   0  0  1  0  0  3  0  0  0  0  0  0
  189.6430  177.4020  145.3320 C   0  0  0  0  0  3  0  0  0  0  0  0
  193.0210  177.7110  139.3890 F   0  0  0  0  0  0  0  0  0  0  0  0
  191.9110  177.6840  140.2120 C   0  0  1  0  0  3  0  0  0  0  0  0
  188.6780  177.2420  144.4100 C   0  0  0  0  0  0  0  0  0  0  0  0
  186.4960  178.6040  140.0500 C   0  0  0  0  0  2  0  0  0  0  0  0
  191.2030  176.3370  140.0890 C   0  0  2  0  0  3  0  0  0  0  0  0
  188.1140  177.2550  141.8220 C   0  0  1  0  0  3  0  0  0  0  0  0
  191.7160  178.0470  144.0500 C   0  0  2  0  0  3  0  0  0  0  0  0
  189.4310  176.8230  138.2870 C   0  0  1  0  0  3  0  0  0  0  0  0
  191.1050  177.1470  145.1220 C   0  0  0  0  0  2  0  0  0  0  0  0
  187.5220  178.6530  142.0700 C   0  0  0  0  0  2  0  0  0  0  0  0
  187.3060  179.3830  140.8870 O   0  0  0  0  0  0  0  0  0  0  0  0
  190.7030  176.0390  138.6760 C   0  0  0  0  0  2  0  0  0  0  0  0
  188.8240  176.2950  136.9820 C   0  0  2  0  0  3  0  0  0  0  0  0
  189.3240  174.8970  136.6350 C   0  0  0  0  0  2  0  0  0  0  0  0
  188.2470  174.0170  136.5240 O   0  0  0  0  0  1  0  0  0  0  0  0
  189.1320  177.4530  135.6110 S   0  0  0  0  0  0  0  0  0  0  0  0
  186.8210  178.8700  135.2470 F   0  0  0  0  0  0  0  0  0  0  0  0
  186.6990  176.6500  135.0510 O   0  0  0  0  0  0  0  0  0  0  0  0
  187.3840  177.6350  135.2690 C   0  0  0  0  0  0  0  0  0  0  0  0
  187.2570  177.3360  144.8920 C   0  0  0  0  0  2  0  0  0  0  0  0
  187.0980  178.2620  146.0970 C   0  0  2  0  0  3  0  0  0  0  0  0
  187.3520  177.4980  147.3830 C   0  0  0  0  0  1  0  0  0  0  0  0
  185.6850  178.8270  146.1450 C   0  0  0  0  0  2  0  0  0  0  0  0
  184.9750  178.6750  144.8090 C   0  0  0  0  0  2  0  0  0  0  0  0
  183.4870  178.9420  144.9670 C   0  0  0  0  0  2  0  0  0  0  0  0
  182.8080  179.0050  143.6100 C   0  0  0  0  0  2  0  0  0  0  0  0
  183.7820  178.6260  142.5110 C   0  0  0  0  0  1  0  0  0  0  0  0
  2  6  1  0  0  0  0
  3  7  1  0  0  0  0
  3 14  1  0  0  0  0
  4 17  1  0  0  0  0
  5  2  1  0  0  0  0
  5 16  1  0  0  0  0
  6  4  1  0  0  0  0
  6  9  1  0  0  0  0
  7  5  1  0  0  0  0
  8  4  1  0  0  0  0
  9 13  1  0  0  0  0
 11 12  1  0  0  0  0
 12  8  1  0  0  0  0
 13 30  1  0  0  0  0
 13 10  2  0  0  0  0
 14 21  1  0  0  0  0
 15 12  1  0  0  0  0
 15  2  1  0  0  0  0
 16 20  1  0  0  0  0
 16  9  1  0  0  0  0
 17  1  1  0  0  0  0
 17 19  1  0  0  0  0
 18 22  1  0  0  0  0
 18  7  1  0  0  0  0
 19 10  1  0  0  0  0
 21 20  1  0  0  0  0
 22 15  1  0  0  0  0
 23 18  1  0  0  0  0
 24 23  1  0  0  0  0
 25 24  1  0  0  0  0
 26 23  1  0  0  0  0
 27 29  1  0  0  0  0
 28 29  2  0  0  0  0
 29 26  1  0  0  0  0
 30 31  1  0  0  0  0
 31 33  1  0  0  0  0
 31 32  1  0  0  0  0
 34 35  1  0  0  0  0
 34 33  1  0  0  0  0
 36 35  1  0  0  0  0
 37 36  1  0  0  0  0
M  END
>  <MODEL>
1

>  <REMARK>
 VINA RESULT:      -7.4      0.000      0.000
  Name = 
  10 active torsions:
  status: ('A' for Active; 'I' for Inactive)
    1  A    between atoms: C_1  and  C_5
    2  A    between atoms: C_1  and  C_23
    3  A    between atoms: C_2  and  C_6
    4  A    between atoms: C_5  and  C_17
    5  A    between atoms: C_6  and  S_8
    6  A    between atoms: C_6  and  C_31
    7  A    between atoms: S_8  and  C_19
    8  A    between atoms: C_11  and  C_26
    9  A    between atoms: C_17  and  C_26
   10  A    between atoms: C_23  and  C_25
                            x       y       z     vdW  Elec       q    Type
                         _______ _______ _______ _____ _____    ______ ____

>  <TORSDO>
F 10

$$$$
=
 OpenBabel11052415323D

 37 41  0  0  1  0  0  0  0  0999 V2000
  185.8800  173.7760  137.5870 O   0  0  0  0  0  1  0  0  0  0  0  0
  189.9550  175.8010  135.8880 C   0  0  2  0  0  3  0  0  0  0  0  0
  192.2450  176.5330  138.8090 C   0  0  0  0  0  2  0  0  0  0  0  0
  187.9210  174.4720  136.5310 C   0  0  2  0  0  3  0  0  0  0  0  0
  190.3410  175.9910  137.2800 N   0  0  1  0  0  0  0  0  0  0  0  0
  188.4420  175.7800  135.8780 C   0  0  1  0  0  3  0  0  0  0  0  0
  191.7570  176.3920  137.3490 C   0  0  2  0  0  3  0  0  0  0  0  0
  188.6080  173.2270  135.9550 C   0  0  0  0  0  2  0  0  0  0  0  0
  188.2040  176.9880  136.7810 C   0  0  1  0  0  3  0  0  0  0  0  0
  185.7000  176.6370  136.9490 C   0  0  0  0  0  3  0  0  0  0  0  0
  190.6900  172.1840  135.5000 F   0  0  0  0  0  0  0  0  0  0  0  0
  190.1300  173.3170  136.0600 C   0  0  1  0  0  3  0  0  0  0  0  0
  186.8160  177.2680  137.3530 C   0  0  0  0  0  0  0  0  0  0  0  0
  191.2700  177.2170  139.7590 C   0  0  0  0  0  2  0  0  0  0  0  0
  190.6050  174.5590  135.3110 C   0  0  2  0  0  3  0  0  0  0  0  0
  189.4310  177.0520  137.7170 C   0  0  1  0  0  3  0  0  0  0  0  0
  186.4080  174.2800  136.3980 C   0  0  2  0  0  3  0  0  0  0  0  0
  192.6380  175.2870  136.7100 C   0  0  1  0  0  3  0  0  0  0  0  0
  185.6390  175.5210  135.9500 C   0  0  0  0  0  2  0  0  0  0  0  0
  189.0980  176.8760  139.2090 C   0  0  0  0  0  2  0  0  0  0  0  0
  190.1720  176.3700  139.9620 O   0  0  0  0  0  0  0  0  0  0  0  0
  192.1200  174.7550  135.3560 C   0  0  0  0  0  2  0  0  0  0  0  0
  194.1070  175.7180  136.6170 C   0  0  2  0  0  3  0  0  0  0  0  0
  194.3730  176.6100  135.4100 C   0  0  0  0  0  2  0  0  0  0  0  0
  195.2070  177.6680  135.7720 O   0  0  0  0  0  1  0  0  0  0  0  0
  195.2070  174.2660  136.6070 S   0  0  0  0  0  0  0  0  0  0  0  0
  195.2610  173.0230  139.0430 F   0  0  0  0  0  0  0  0  0  0  0  0
  195.3630  175.2530  139.0320 O   0  0  0  0  0  0  0  0  0  0  0  0
  195.2840  174.2160  138.3950 C   0  0  0  0  0  0  0  0  0  0  0  0
  186.6320  178.5040  138.1890 C   0  0  0  0  0  2  0  0  0  0  0  0
  185.5030  178.3670  139.2090 C   0  0  2  0  0  3  0  0  0  0  0  0
  184.4030  179.3690  138.9130 C   0  0  0  0  0  1  0  0  0  0  0  0
  186.0270  178.6320  140.6140 C   0  0  0  0  0  2  0  0  0  0  0  0
  184.8990  178.9530  141.5820 C   0  0  0  0  0  2  0  0  0  0  0  0
  185.1110  178.2300  142.9020 C   0  0  0  0  0  2  0  0  0  0  0  0
  186.5760  177.8780  143.0890 C   0  0  0  0  0  2  0  0  0  0  0  0
  186.8160  177.3260  144.4820 C   0  0  0  0  0  1  0  0  0  0  0  0
  2  5  1  0  0  0  0
  3 14  1  0  0  0  0
  5  7  1  0  0  0  0
  5 16  1  0  0  0  0
  6  2  1  0  0  0  0
  6  4  1  0  0  0  0
  6  9  1  0  0  0  0
  7  3  1  0  0  0  0
  8 12  1  0  0  0  0
  8  4  1  0  0  0  0
  9 13  1  0  0  0  0
  9 16  1  0  0  0  0
 10 13  2  0  0  0  0
 11 12  1  0  0  0  0
 13 30  1  0  0  0  0
 14 21  1  0  0  0  0
 15 22  1  0  0  0  0
 15  2  1  0  0  0  0
 15 12  1  0  0  0  0
 16 20  1  0  0  0  0
 17  4  1  0  0  0  0
 17  1  1  0  0  0  0
 18  7  1  0  0  0  0
 19 17  1  0  0  0  0
 19 10  1  0  0  0  0
 20 21  1  0  0  0  0
 22 18  1  0  0  0  0
 23 18  1  0  0  0  0
 24 25  1  0  0  0  0
 24 23  1  0  0  0  0
 26 23  1  0  0  0  0
 26 29  1  0  0  0  0
 29 28  2  0  0  0  0
 29 27  1  0  0  0  0
 30 31  1  0  0  0  0
 31 33  1  0  0  0  0
 32 31  1  0  0  0  0
 33 34  1  0  0  0  0
 34 35  1  0  0  0  0
 35 36  1  0  0  0  0
 36 37  1  0  0  0  0
M  END
>  <MODEL>
2

>  <REMARK>
 VINA RESULT:      -6.4      3.440      6.805
  Name = 
  10 active torsions:
  status: ('A' for Active; 'I' for Inactive)
    1  A    between atoms: C_1  and  C_5
    2  A    between atoms: C_1  and  C_23
    3  A    between atoms: C_2  and  C_6
    4  A    between atoms: C_5  and  C_17
    5  A    between atoms: C_6  and  S_8
    6  A    between atoms: C_6  and  C_31
    7  A    between atoms: S_8  and  C_19
    8  A    between atoms: C_11  and  C_26
    9  A    between atoms: C_17  and  C_26
   10  A    between atoms: C_23  and  C_25
                            x       y       z     vdW  Elec       q    Type
                         _______ _______ _______ _____ _____    ______ ____

>  <TORSDO>
F 10

$$$$
=
 OpenBabel11052415323D

 37 41  0  0  1  0  0  0  0  0999 V2000
  183.7710  176.7910  139.3710 O   0  0  0  0  0  1  0  0  0  0  0  0
  188.4110  178.1900  139.0540 C   0  0  2  0  0  3  0  0  0  0  0  0
  190.4440  176.1940  141.5420 C   0  0  0  0  0  2  0  0  0  0  0  0
  186.0350  177.3970  138.8500 C   0  0  2  0  0  3  0  0  0  0  0  0
  188.6630  177.3220  140.1970 N   0  0  1  0  0  0  0  0  0  0  0  0
  186.9600  178.6040  139.1610 C   0  0  1  0  0  3  0  0  0  0  0  0
  190.1160  177.1690  140.3890 C   0  0  2  0  0  3  0  0  0  0  0  0
  186.4310  176.6880  137.5490 C   0  0  0  0  0  2  0  0  0  0  0  0
  186.9440  178.9510  140.6480 C   0  0  1  0  0  3  0  0  0  0  0  0
  184.4360  179.2920  140.7600 C   0  0  0  0  0  3  0  0  0  0  0  0
  188.2000  175.6560  136.3500 F   0  0  0  0  0  0  0  0  0  0  0  0
  187.8970  176.2590  137.5570 C   0  0  1  0  0  3  0  0  0  0  0  0
  185.6230  179.1700  141.3800 C   0  0  0  0  0  0  0  0  0  0  0  0
  189.5790  176.3430  142.7870 C   0  0  0  0  0  2  0  0  0  0  0  0
  188.7720  177.4940  137.7560 C   0  0  2  0  0  3  0  0  0  0  0  0
  188.0220  178.0520  141.2930 C   0  0  1  0  0  3  0  0  0  0  0  0
  184.5530  177.7680  138.7550 C   0  0  2  0  0  3  0  0  0  0  0  0
  190.7420  176.5460  139.1130 C   0  0  1  0  0  3  0  0  0  0  0  0
  184.2010  179.1560  139.2860 C   0  0  0  0  0  2  0  0  0  0  0  0
  187.4770  177.0610  142.3350 C   0  0  0  0  0  2  0  0  0  0  0  0
  188.2790  175.9150  142.4850 O   0  0  0  0  0  0  0  0  0  0  0  0
  190.2680  177.1830  137.7890 C   0  0  0  0  0  2  0  0  0  0  0  0
  192.2730  176.5030  139.1980 C   0  0  2  0  0  3  0  0  0  0  0  0
  192.8400  177.6620  140.0100 C   0  0  0  0  0  2  0  0  0  0  0  0
  194.2230  177.5290  140.1310 O   0  0  0  0  0  1  0  0  0  0  0  0
  193.0100  176.4540  137.5330 S   0  0  0  0  0  0  0  0  0  0  0  0
  194.9110  174.8140  138.6210 F   0  0  0  0  0  0  0  0  0  0  0  0
  193.3330  173.8570  137.3630 O   0  0  0  0  0  0  0  0  0  0  0  0
  193.7980  174.8770  137.8440 C   0  0  0  0  0  0  0  0  0  0  0  0
  185.6740  179.5650  142.8300 C   0  0  0  0  0  2  0  0  0  0  0  0
  184.7310  178.7390  143.7040 C   0  0  2  0  0  3  0  0  0  0  0  0
  183.6560  179.6270  144.3020 C   0  0  0  0  0  1  0  0  0  0  0  0
  185.5040  178.0880  144.8430 C   0  0  0  0  0  2  0  0  0  0  0  0
  185.5060  178.9600  146.0890 C   0  0  0  0  0  2  0  0  0  0  0  0
  186.5650  178.4800  147.0690 C   0  0  0  0  0  2  0  0  0  0  0  0
  187.4060  177.3780  146.4500 C   0  0  0  0  0  2  0  0  0  0  0  0
  188.8340  177.8490  146.2480 C   0  0  0  0  0  1  0  0  0  0  0  0
  2  6  1  0  0  0  0
  2  5  1  0  0  0  0
  3 14  1  0  0  0  0
  4  6  1  0  0  0  0
  5  7  1  0  0  0  0
  5 16  1  0  0  0  0
  6  9  1  0  0  0  0
  7  3  1  0  0  0  0
  8 12  1  0  0  0  0
  8  4  1  0  0  0  0
  9 16  1  0  0  0  0
  9 13  1  0  0  0  0
 10 13  2  0  0  0  0
 11 12  1  0  0  0  0
 12 15  1  0  0  0  0
 13 30  1  0  0  0  0
 15 22  1  0  0  0  0
 15  2  1  0  0  0  0
 16 20  1  0  0  0  0
 17  4  1  0  0  0  0
 17 19  1  0  0  0  0
 17  1  1  0  0  0  0
 18 23  1  0  0  0  0
 18  7  1  0  0  0  0
 19 10  1  0  0  0  0
 20 21  1  0  0  0  0
 21 14  1  0  0  0  0
 22 18  1  0  0  0  0
 23 24  1  0  0  0  0
 24 25  1  0  0  0  0
 26 29  1  0  0  0  0
 26 23  1  0  0  0  0
 28 29  2  0  0  0  0
 29 27  1  0  0  0  0
 30 31  1  0  0  0  0
 31 32  1  0  0  0  0
 31 33  1  0  0  0  0
 33 34  1  0  0  0  0
 34 35  1  0  0  0  0
 36 35  1  0  0  0  0
 37 36  1  0  0  0  0
M  END
>  <MODEL>
3

>  <REMARK>
 VINA RESULT:      -5.8      2.349      5.450
  Name = 
  10 active torsions:
  status: ('A' for Active; 'I' for Inactive)
    1  A    between atoms: C_1  and  C_5
    2  A    between atoms: C_1  and  C_23
    3  A    between atoms: C_2  and  C_6
    4  A    between atoms: C_5  and  C_17
    5  A    between atoms: C_6  and  S_8
    6  A    between atoms: C_6  and  C_31
    7  A    between atoms: S_8  and  C_19
    8  A    between atoms: C_11  and  C_26
    9  A    between atoms: C_17  and  C_26
   10  A    between atoms: C_23  and  C_25
                            x       y       z     vdW  Elec       q    Type
                         _______ _______ _______ _____ _____    ______ ____

>  <TORSDO>
F 10

$$$$
=
 OpenBabel11052415323D

 37 41  0  0  1  0  0  0  0  0999 V2000
  179.9210  174.5920  139.9000 O   0  0  0  0  0  1  0  0  0  0  0  0
  182.9280  177.2140  137.1290 C   0  0  2  0  0  3  0  0  0  0  0  0
  185.8660  178.3100  139.2450 C   0  0  0  0  0  2  0  0  0  0  0  0
  181.4120  175.5900  138.3040 C   0  0  2  0  0  3  0  0  0  0  0  0
  183.6890  177.4700  138.3450 N   0  0  1  0  0  0  0  0  0  0  0  0
  181.5050  176.9590  137.5790 C   0  0  1  0  0  3  0  0  0  0  0  0
  184.9810  178.0870  137.9970 C   0  0  2  0  0  3  0  0  0  0  0  0
  182.0670  174.4630  137.4950 C   0  0  0  0  0  2  0  0  0  0  0  0
  181.3770  178.1200  138.5610 C   0  0  1  0  0  3  0  0  0  0  0  0
  179.1280  177.3860  139.4670 C   0  0  0  0  0  3  0  0  0  0  0  0
  184.0400  173.7530  136.3850 F   0  0  0  0  0  0  0  0  0  0  0  0
  183.5160  174.7880  137.1360 C   0  0  1  0  0  3  0  0  0  0  0  0
  180.2070  178.1850  139.5390 C   0  0  0  0  0  0  0  0  0  0  0  0
  185.1380  178.8410  140.4740 C   0  0  0  0  0  2  0  0  0  0  0  0
  183.5470  176.0850  136.3310 C   0  0  2  0  0  3  0  0  0  0  0  0
  182.8080  178.3800  139.0820 C   0  0  1  0  0  3  0  0  0  0  0  0
  179.9770  175.1650  138.6290 C   0  0  2  0  0  3  0  0  0  0  0  0
  185.7780  177.1280  137.0750 C   0  0  1  0  0  3  0  0  0  0  0  0
  178.9310  176.2690  138.4880 C   0  0  0  0  0  2  0  0  0  0  0  0
  182.9790  178.1640  140.5960 C   0  0  0  0  0  2  0  0  0  0  0  0
  184.2950  177.8350  140.9650 O   0  0  0  0  0  0  0  0  0  0  0  0
  184.9550  176.5140  135.9220 C   0  0  0  0  0  2  0  0  0  0  0  0
  187.0660  177.7810  136.5590 C   0  0  2  0  0  3  0  0  0  0  0  0
  187.1190  177.8320  135.0360 C   0  0  0  0  0  2  0  0  0  0  0  0
  188.4220  177.6030  134.5950 O   0  0  0  0  0  1  0  0  0  0  0  0
  188.5330  176.9360  137.2320 S   0  0  0  0  0  0  0  0  0  0  0  0
  189.9280  178.3690  139.0980 F   0  0  0  0  0  0  0  0  0  0  0  0
  188.8620  179.5230  137.5120 O   0  0  0  0  0  0  0  0  0  0  0  0
  189.1450  178.4370  137.9920 C   0  0  0  0  0  0  0  0  0  0  0  0
  180.1050  179.3830  140.4430 C   0  0  0  0  0  2  0  0  0  0  0  0
  179.3410  179.0890  141.7330 C   0  0  2  0  0  3  0  0  0  0  0  0
  179.1050  180.3730  142.5070 C   0  0  0  0  0  1  0  0  0  0  0  0
  180.1400  178.1380  142.6140 C   0  0  0  0  0  2  0  0  0  0  0  0
  180.7830  178.8650  143.7850 C   0  0  0  0  0  2  0  0  0  0  0  0
  182.2530  179.1240  143.5040 C   0  0  0  0  0  2  0  0  0  0  0  0
  183.0940  178.8170  144.7300 C   0  0  0  0  0  2  0  0  0  0  0  0
  184.5230  179.2820  144.5240 C   0  0  0  0  0  1  0  0  0  0  0  0
  2  6  1  0  0  0  0
  2  5  1  0  0  0  0
  3 14  1  0  0  0  0
  4 17  1  0  0  0  0
  5 16  1  0  0  0  0
  6  4  1  0  0  0  0
  6  9  1  0  0  0  0
  7  5  1  0  0  0  0
  7  3  1  0  0  0  0
  8  4  1  0  0  0  0
  9 16  1  0  0  0  0
  9 13  1  0  0  0  0
 10 13  2  0  0  0  0
 11 12  1  0  0  0  0
 12  8  1  0  0  0  0
 13 30  1  0  0  0  0
 14 21  1  0  0  0  0
 15  2  1  0  0  0  0
 15 12  1  0  0  0  0
 16 20  1  0  0  0  0
 17  1  1  0  0  0  0
 18  7  1  0  0  0  0
 19 17  1  0  0  0  0
 19 10  1  0  0  0  0
 20 21  1  0  0  0  0
 22 15  1  0  0  0  0
 22 18  1  0  0  0  0
 23 18  1  0  0  0  0
 23 26  1  0  0  0  0
 24 23  1  0  0  0  0
 25 24  1  0  0  0  0
 26 29  1  0  0  0  0
 28 29  2  0  0  0  0
 29 27  1  0  0  0  0
 30 31  1  0  0  0  0
 31 32  1  0  0  0  0
 31 33  1  0  0  0  0
 33 34  1  0  0  0  0
 35 34  1  0  0  0  0
 35 36  1  0  0  0  0
 37 36  1  0  0  0  0
M  END
>  <MODEL>
4

>  <REMARK>
 VINA RESULT:      -5.7      4.138      7.644
  Name = 
  10 active torsions:
  status: ('A' for Active; 'I' for Inactive)
    1  A    between atoms: C_1  and  C_5
    2  A    between atoms: C_1  and  C_23
    3  A    between atoms: C_2  and  C_6
    4  A    between atoms: C_5  and  C_17
    5  A    between atoms: C_6  and  S_8
    6  A    between atoms: C_6  and  C_31
    7  A    between atoms: S_8  and  C_19
    8  A    between atoms: C_11  and  C_26
    9  A    between atoms: C_17  and  C_26
   10  A    between atoms: C_23  and  C_25
                            x       y       z     vdW  Elec       q    Type
                         _______ _______ _______ _____ _____    ______ ____

>  <TORSDO>
F 10

$$$$
=
 OpenBabel11052415323D

 37 41  0  0  1  0  0  0  0  0999 V2000
  180.3030  174.5050  138.5300 O   0  0  0  0  0  1  0  0  0  0  0  0
  184.1870  176.8150  136.7510 C   0  0  2  0  0  3  0  0  0  0  0  0
  186.0880  178.3680  139.6300 C   0  0  0  0  0  2  0  0  0  0  0  0
  182.3110  175.3170  137.4950 C   0  0  2  0  0  3  0  0  0  0  0  0
  184.4190  177.2930  138.1080 N   0  0  1  0  0  0  0  0  0  0  0  0
  182.6980  176.5620  136.6520 C   0  0  1  0  0  3  0  0  0  0  0  0
  185.7540  177.9120  138.1910 C   0  0  2  0  0  3  0  0  0  0  0  0
  183.2130  174.1130  137.1940 C   0  0  0  0  0  2  0  0  0  0  0  0
  182.2150  177.8530  137.3080 C   0  0  1  0  0  3  0  0  0  0  0  0
  179.7810  177.1560  137.3810 C   0  0  0  0  0  3  0  0  0  0  0  0
  185.4520  173.3400  137.0620 F   0  0  0  0  0  0  0  0  0  0  0  0
  184.6910  174.4510  137.3750 C   0  0  1  0  0  3  0  0  0  0  0  0
  180.7580  178.0090  137.7340 C   0  0  0  0  0  0  0  0  0  0  0  0
  184.9470  179.0440  140.3800 C   0  0  0  0  0  2  0  0  0  0  0  0
  185.0510  175.6080  136.4470 C   0  0  2  0  0  3  0  0  0  0  0  0
  183.3350  178.2600  138.2910 C   0  0  1  0  0  3  0  0  0  0  0  0
  180.8560  174.8770  137.3050 C   0  0  2  0  0  3  0  0  0  0  0  0
  186.8330  176.8620  137.8150 C   0  0  1  0  0  3  0  0  0  0  0  0
  179.9630  175.8930  136.5950 C   0  0  0  0  0  2  0  0  0  0  0  0
  182.9000  178.2880  139.7670 C   0  0  0  0  0  2  0  0  0  0  0  0
  183.9650  178.0860  140.6630 O   0  0  0  0  0  0  0  0  0  0  0  0
  186.5150  176.0380  136.5490 C   0  0  0  0  0  2  0  0  0  0  0  0
  188.2300  177.4910  137.7380 C   0  0  2  0  0  3  0  0  0  0  0  0
  188.2540  178.7420  136.8670 C   0  0  0  0  0  2  0  0  0  0  0  0
  189.0140  179.7370  137.4790 O   0  0  0  0  0  1  0  0  0  0  0  0
  189.4550  176.2740  137.1610 S   0  0  0  0  0  0  0  0  0  0  0  0
  190.0400  177.1230  139.6950 F   0  0  0  0  0  0  0  0  0  0  0  0
  191.7280  176.3260  138.4690 O   0  0  0  0  0  0  0  0  0  0  0  0
  190.5400  176.5920  138.5490 C   0  0  0  0  0  0  0  0  0  0  0  0
  180.3300  179.3250  138.3230 C   0  0  0  0  0  2  0  0  0  0  0  0
  181.0230  180.5210  137.6720 C   0  0  2  0  0  3  0  0  0  0  0  0
  181.1740  181.6500  138.6740 C   0  0  0  0  0  1  0  0  0  0  0  0
  180.2010  181.0300  136.4950 C   0  0  0  0  0  2  0  0  0  0  0  0
  179.8220  182.4930  136.6680 C   0  0  0  0  0  2  0  0  0  0  0  0
  179.8280  183.2040  135.3250 C   0  0  0  0  0  2  0  0  0  0  0  0
  180.8120  184.3590  135.3360 C   0  0  0  0  0  2  0  0  0  0  0  0
  181.1670  184.7420  136.7610 C   0  0  0  0  0  1  0  0  0  0  0  0
  2  5  1  0  0  0  0
  3 14  1  0  0  0  0
  5  7  1  0  0  0  0
  5 16  1  0  0  0  0
  6  2  1  0  0  0  0
  6  9  1  0  0  0  0
  6  4  1  0  0  0  0
  7  3  1  0  0  0  0
  8 12  1  0  0  0  0
  8  4  1  0  0  0  0
  9 13  1  0  0  0  0
  9 16  1  0  0  0  0
 10 13  2  0  0  0  0
 11 12  1  0  0  0  0
 13 30  1  0  0  0  0
 14 21  1  0  0  0  0
 15 22  1  0  0  0  0
 15  2  1  0  0  0  0
 15 12  1  0  0  0  0
 16 20  1  0  0  0  0
 17  4  1  0  0  0  0
 17  1  1  0  0  0  0
 18  7  1  0  0  0  0
 19 17  1  0  0  0  0
 19 10  1  0  0  0  0
 20 21  1  0  0  0  0
 22 18  1  0  0  0  0
 23 18  1  0  0  0  0
 24 25  1  0  0  0  0
 24 23  1  0  0  0  0
 26 23  1  0  0  0  0
 26 29  1  0  0  0  0
 28 29  2  0  0  0  0
 29 27  1  0  0  0  0
 31 30  1  0  0  0  0
 31 32  1  0  0  0  0
 33 34  1  0  0  0  0
 33 31  1  0  0  0  0
 35 36  1  0  0  0  0
 35 34  1  0  0  0  0
 36 37  1  0  0  0  0
M  END
>  <MODEL>
5

>  <REMARK>
 VINA RESULT:      -5.4      5.305      8.474
  Name = 
  10 active torsions:
  status: ('A' for Active; 'I' for Inactive)
    1  A    between atoms: C_1  and  C_5
    2  A    between atoms: C_1  and  C_23
    3  A    between atoms: C_2  and  C_6
    4  A    between atoms: C_5  and  C_17
    5  A    between atoms: C_6  and  S_8
    6  A    between atoms: C_6  and  C_31
    7  A    between atoms: S_8  and  C_19
    8  A    between atoms: C_11  and  C_26
    9  A    between atoms: C_17  and  C_26
   10  A    between atoms: C_23  and  C_25
                            x       y       z     vdW  Elec       q    Type
                         _______ _______ _______ _____ _____    ______ ____

>  <TORSDO>
F 10

$$$$
=
 OpenBabel11052415323D

 37 41  0  0  1  0  0  0  0  0999 V2000
  183.8130  180.8570  144.3440 O   0  0  0  0  0  1  0  0  0  0  0  0
  186.9700  177.2130  144.9350 C   0  0  2  0  0  3  0  0  0  0  0  0
  190.1810  178.0990  143.1410 C   0  0  0  0  0  2  0  0  0  0  0  0
  185.3180  179.1060  145.0030 C   0  0  2  0  0  3  0  0  0  0  0  0
  187.8450  177.9350  144.0200 N   0  0  1  0  0  0  0  0  0  0  0  0
  185.5610  177.6340  144.5760 C   0  0  1  0  0  3  0  0  0  0  0  0
  189.1860  177.3250  144.0360 C   0  0  2  0  0  3  0  0  0  0  0  0
  185.7410  179.3630  146.4550 C   0  0  0  0  0  2  0  0  0  0  0  0
  185.6760  177.5040  143.0600 C   0  0  1  0  0  3  0  0  0  0  0  0
  183.4130  178.5390  142.5860 C   0  0  0  0  0  3  0  0  0  0  0  0
  187.5040  179.1860  148.0330 F   0  0  0  0  0  0  0  0  0  0  0  0
  187.1920  178.9590  146.7050 C   0  0  1  0  0  3  0  0  0  0  0  0
  184.6000  178.0860  142.1470 C   0  0  0  0  0  0  0  0  0  0  0  0
  189.6280  178.5550  141.7960 C   0  0  0  0  0  2  0  0  0  0  0  0
  187.3570  177.4780  146.3760 C   0  0  2  0  0  3  0  0  0  0  0  0
  187.1630  177.7670  142.7340 C   0  0  1  0  0  3  0  0  0  0  0  0
  183.8630  179.5570  144.8480 C   0  0  2  0  0  3  0  0  0  0  0  0
  189.7650  177.3910  145.4740 C   0  0  1  0  0  3  0  0  0  0  0  0
  182.9840  178.6230  144.0190 C   0  0  0  0  0  2  0  0  0  0  0  0
  187.4060  179.0000  141.8470 C   0  0  0  0  0  2  0  0  0  0  0  0
  188.6830  179.5650  142.0190 O   0  0  0  0  0  0  0  0  0  0  0  0
  188.7810  176.9630  146.5830 C   0  0  0  0  0  2  0  0  0  0  0  0
  191.0960  176.6360  145.5820 C   0  0  2  0  0  3  0  0  0  0  0  0
  191.5110  176.0030  144.2580 C   0  0  0  0  0  2  0  0  0  0  0  0
  192.0680  174.7450  144.4840 O   0  0  0  0  0  1  0  0  0  0  0  0
  191.0230  175.3870  146.9050 S   0  0  0  0  0  0  0  0  0  0  0  0
  193.4750  175.6280  148.0940 F   0  0  0  0  0  0  0  0  0  0  0  0
  192.0550  177.3350  148.3250 O   0  0  0  0  0  0  0  0  0  0  0  0
  192.2760  176.2240  147.8710 C   0  0  0  0  0  0  0  0  0  0  0  0
  184.7400  177.8770  140.6640 C   0  0  0  0  0  2  0  0  0  0  0  0
  183.4010  177.9080  139.9310 C   0  0  2  0  0  3  0  0  0  0  0  0
  183.0420  176.5200  139.4330 C   0  0  0  0  0  1  0  0  0  0  0  0
  183.4780  178.8430  138.7310 C   0  0  0  0  0  2  0  0  0  0  0  0
  182.8420  180.1920  139.0300 C   0  0  0  0  0  2  0  0  0  0  0  0
  181.5280  180.3360  138.2790 C   0  0  0  0  0  2  0  0  0  0  0  0
  180.4330  180.8290  139.2080 C   0  0  0  0  0  2  0  0  0  0  0  0
  180.4540  180.0540  140.5120 C   0  0  0  0  0  1  0  0  0  0  0  0
  1 17  1  0  0  0  0
  2 15  1  0  0  0  0
  3  7  1  0  0  0  0
  4  8  1  0  0  0  0
  5  7  1  0  0  0  0
  5  2  1  0  0  0  0
  6  2  1  0  0  0  0
  6  4  1  0  0  0  0
  7 18  1  0  0  0  0
  8 12  1  0  0  0  0
  9  6  1  0  0  0  0
 10 19  1  0  0  0  0
 12 11  1  0  0  0  0
 13 10  2  0  0  0  0
 13  9  1  0  0  0  0
 14 21  1  0  0  0  0
 14  3  1  0  0  0  0
 15 22  1  0  0  0  0
 15 12  1  0  0  0  0
 16  9  1  0  0  0  0
 16  5  1  0  0  0  0
 17  4  1  0  0  0  0
 18 23  1  0  0  0  0
 18 22  1  0  0  0  0
 19 17  1  0  0  0  0
 20 21  1  0  0  0  0
 20 16  1  0  0  0  0
 23 26  1  0  0  0  0
 24 25  1  0  0  0  0
 24 23  1  0  0  0  0
 26 29  1  0  0  0  0
 29 27  1  0  0  0  0
 29 28  2  0  0  0  0
 30 13  1  0  0  0  0
 31 30  1  0  0  0  0
 32 31  1  0  0  0  0
 33 34  1  0  0  0  0
 33 31  1  0  0  0  0
 35 34  1  0  0  0  0
 35 36  1  0  0  0  0
 36 37  1  0  0  0  0
M  END
>  <MODEL>
6

>  <REMARK>
 VINA RESULT:      -5.3      4.452      7.697
  Name = 
  10 active torsions:
  status: ('A' for Active; 'I' for Inactive)
    1  A    between atoms: C_1  and  C_5
    2  A    between atoms: C_1  and  C_23
    3  A    between atoms: C_2  and  C_6
    4  A    between atoms: C_5  and  C_17
    5  A    between atoms: C_6  and  S_8
    6  A    between atoms: C_6  and  C_31
    7  A    between atoms: S_8  and  C_19
    8  A    between atoms: C_11  and  C_26
    9  A    between atoms: C_17  and  C_26
   10  A    between atoms: C_23  and  C_25
                            x       y       z     vdW  Elec       q    Type
                         _______ _______ _______ _____ _____    ______ ____

>  <TORSDO>
F 10

$$$$
=
 OpenBabel11052415323D

 37 41  0  0  1  0  0  0  0  0999 V2000
  184.1700  180.8310  144.5920 O   0  0  0  0  0  1  0  0  0  0  0  0
  187.2240  177.0830  145.0660 C   0  0  2  0  0  3  0  0  0  0  0  0
  190.4230  177.8970  143.2180 C   0  0  0  0  0  2  0  0  0  0  0  0
  185.6330  179.0250  145.1950 C   0  0  2  0  0  3  0  0  0  0  0  0
  188.1020  177.7910  144.1430 N   0  0  1  0  0  0  0  0  0  0  0  0
  185.8210  177.5520  144.7430 C   0  0  1  0  0  3  0  0  0  0  0  0
  189.4230  177.1400  144.1220 C   0  0  2  0  0  3  0  0  0  0  0  0
  186.0930  179.2470  146.6420 C   0  0  0  0  0  2  0  0  0  0  0  0
  185.9010  177.4410  143.2230 C   0  0  1  0  0  3  0  0  0  0  0  0
  183.6620  178.5520  142.8100 C   0  0  0  0  0  3  0  0  0  0  0  0
  187.8820  178.9920  148.1800 F   0  0  0  0  0  0  0  0  0  0  0  0
  187.5360  178.7950  146.8560 C   0  0  1  0  0  3  0  0  0  0  0  0
  184.8250  178.0690  142.3410 C   0  0  0  0  0  0  0  0  0  0  0  0
  189.8570  178.3890  141.8920 C   0  0  0  0  0  2  0  0  0  0  0  0
  187.6480  177.3150  146.5020 C   0  0  2  0  0  3  0  0  0  0  0  0
  187.3890  177.6630  142.8700 C   0  0  1  0  0  3  0  0  0  0  0  0
  184.1890  179.5220  145.0770 C   0  0  2  0  0  3  0  0  0  0  0  0
  190.0340  177.1680  145.5490 C   0  0  1  0  0  3  0  0  0  0  0  0
  183.2650  178.6280  144.2540 C   0  0  0  0  0  2  0  0  0  0  0  0
  187.6520  178.9020  141.9950 C   0  0  0  0  0  2  0  0  0  0  0  0
  188.9480  179.4240  142.1480 O   0  0  0  0  0  0  0  0  0  0  0  0
  189.0600  176.7530  146.6720 C   0  0  0  0  0  2  0  0  0  0  0  0
  191.3420  176.3700  145.6180 C   0  0  2  0  0  3  0  0  0  0  0  0
  191.6810  175.6970  144.2920 C   0  0  0  0  0  2  0  0  0  0  0  0
  192.4220  174.5380  144.5210 O   0  0  0  0  0  1  0  0  0  0  0  0
  191.2840  175.1510  146.9700 S   0  0  0  0  0  0  0  0  0  0  0  0
  193.6910  175.6280  148.1790 F   0  0  0  0  0  0  0  0  0  0  0  0
  192.0850  177.1520  148.4630 O   0  0  0  0  0  0  0  0  0  0  0  0
  192.4320  176.0910  147.9710 C   0  0  0  0  0  0  0  0  0  0  0  0
  184.9290  177.8780  140.8530 C   0  0  0  0  0  2  0  0  0  0  0  0
  183.6190  178.1710  140.1240 C   0  0  2  0  0  3  0  0  0  0  0  0
  182.8490  176.8850  139.8880 C   0  0  0  0  0  1  0  0  0  0  0  0
  183.9000  178.8160  138.7730 C   0  0  0  0  0  2  0  0  0  0  0  0
  185.3290  178.5630  138.3180 C   0  0  0  0  0  2  0  0  0  0  0  0
  185.3540  177.5380  137.1970 C   0  0  0  0  0  2  0  0  0  0  0  0
  186.7680  177.3480  136.6770 C   0  0  0  0  0  2  0  0  0  0  0  0
  187.5670  178.6280  136.8310 C   0  0  0  0  0  1  0  0  0  0  0  0
  1 17  1  0  0  0  0
  2 15  1  0  0  0  0
  3  7  1  0  0  0  0
  4  8  1  0  0  0  0
  5  2  1  0  0  0  0
  6  2  1  0  0  0  0
  6  4  1  0  0  0  0
  7  5  1  0  0  0  0
  7 18  1  0  0  0  0
  8 12  1  0  0  0  0
  9  6  1  0  0  0  0
 10 19  1  0  0  0  0
 12 11  1  0  0  0  0
 13 10  2  0  0  0  0
 13  9  1  0  0  0  0
 14 21  1  0  0  0  0
 14  3  1  0  0  0  0
 15 22  1  0  0  0  0
 15 12  1  0  0  0  0
 16  9  1  0  0  0  0
 16  5  1  0  0  0  0
 17  4  1  0  0  0  0
 18 23  1  0  0  0  0
 18 22  1  0  0  0  0
 19 17  1  0  0  0  0
 20 21  1  0  0  0  0
 20 16  1  0  0  0  0
 23 26  1  0  0  0  0
 24 25  1  0  0  0  0
 24 23  1  0  0  0  0
 26 29  1  0  0  0  0
 29 27  1  0  0  0  0
 29 28  2  0  0  0  0
 30 13  1  0  0  0  0
 31 30  1  0  0  0  0
 32 31  1  0  0  0  0
 33 31  1  0  0  0  0
 34 33  1  0  0  0  0
 35 34  1  0  0  0  0
 36 37  1  0  0  0  0
 36 35  1  0  0  0  0
M  END
>  <MODEL>
7

>  <REMARK>
 VINA RESULT:      -5.3      4.198      7.808
  Name = 
  10 active torsions:
  status: ('A' for Active; 'I' for Inactive)
    1  A    between atoms: C_1  and  C_5
    2  A    between atoms: C_1  and  C_23
    3  A    between atoms: C_2  and  C_6
    4  A    between atoms: C_5  and  C_17
    5  A    between atoms: C_6  and  S_8
    6  A    between atoms: C_6  and  C_31
    7  A    between atoms: S_8  and  C_19
    8  A    between atoms: C_11  and  C_26
    9  A    between atoms: C_17  and  C_26
   10  A    between atoms: C_23  and  C_25
                            x       y       z     vdW  Elec       q    Type
                         _______ _______ _______ _____ _____    ______ ____

>  <TORSDO>
F 10

$$$$
=
 OpenBabel11052415323D

 37 41  0  0  1  0  0  0  0  0999 V2000
  190.1560  175.4830  142.4050 O   0  0  0  0  0  1  0  0  0  0  0  0
  187.2870  178.8360  140.3750 C   0  0  2  0  0  3  0  0  0  0  0  0
  185.2210  177.1780  137.6740 C   0  0  0  0  0  2  0  0  0  0  0  0
  188.6150  177.2040  141.7500 C   0  0  2  0  0  3  0  0  0  0  0  0
  186.8940  177.8030  139.4250 N   0  0  1  0  0  0  0  0  0  0  0  0
  188.6770  178.4610  140.8410 C   0  0  1  0  0  3  0  0  0  0  0  0
  185.7320  178.2660  138.6460 C   0  0  2  0  0  3  0  0  0  0  0  0
  187.5580  177.3410  142.8530 C   0  0  0  0  0  2  0  0  0  0  0  0
  189.2820  178.1350  139.4780 C   0  0  1  0  0  3  0  0  0  0  0  0
  191.4480  177.2190  140.4190 C   0  0  0  0  0  3  0  0  0  0  0  0
  185.2780  177.8060  143.3210 F   0  0  0  0  0  0  0  0  0  0  0  0
  186.1780  177.6650  142.2810 C   0  0  1  0  0  3  0  0  0  0  0  0
  190.6230  177.4150  139.3750 C   0  0  0  0  0  0  0  0  0  0  0  0
  186.3060  176.4040  136.9340 C   0  0  0  0  0  2  0  0  0  0  0  0
  186.2650  178.9660  141.4870 C   0  0  2  0  0  3  0  0  0  0  0  0
  188.1000  177.6530  138.6070 C   0  0  1  0  0  3  0  0  0  0  0  0
  189.9510  176.8630  142.4160 C   0  0  2  0  0  3  0  0  0  0  0  0
  184.5530  178.5660  139.6090 C   0  0  1  0  0  3  0  0  0  0  0  0
  191.1630  177.5940  141.8420 C   0  0  0  0  0  2  0  0  0  0  0  0
  188.2260  176.1990  138.1210 C   0  0  0  0  0  2  0  0  0  0  0  0
  186.9850  175.5930  137.8530 O   0  0  0  0  0  0  0  0  0  0  0  0
  184.9370  179.3860  140.8590 C   0  0  0  0  0  2  0  0  0  0  0  0
  183.3660  179.1940  138.8680 C   0  0  2  0  0  3  0  0  0  0  0  0
  183.5060  180.7060  138.7280 C   0  0  0  0  0  2  0  0  0  0  0  0
  182.2530  181.2870  138.5340 O   0  0  0  0  0  1  0  0  0  0  0  0
  181.7950  178.7610  139.6820 S   0  0  0  0  0  0  0  0  0  0  0  0
  182.0850  176.8280  137.7680 F   0  0  0  0  0  0  0  0  0  0  0  0
  181.7100  176.1460  139.8610 O   0  0  0  0  0  0  0  0  0  0  0  0
  181.8610  177.0750  139.0840 C   0  0  0  0  0  0  0  0  0  0  0  0
  191.1940  177.1720  138.0050 C   0  0  0  0  0  2  0  0  0  0  0  0
  192.1240  175.9610  137.9560 C   0  0  2  0  0  3  0  0  0  0  0  0
  193.5130  176.3830  137.5130 C   0  0  0  0  0  1  0  0  0  0  0  0
  191.5970  174.9310  136.9650 C   0  0  0  0  0  2  0  0  0  0  0  0
  190.9140  175.5930  135.7790 C   0  0  0  0  0  2  0  0  0  0  0  0
  189.8780  174.6590  135.1750 C   0  0  0  0  0  2  0  0  0  0  0  0
  189.9240  173.3010  135.8520 C   0  0  0  0  0  2  0  0  0  0  0  0
  188.5490  172.9170  136.3660 C   0  0  0  0  0  1  0  0  0  0  0  0
  1 17  1  0  0  0  0
  2  6  1  0  0  0  0
  2 15  1  0  0  0  0
  3  7  1  0  0  0  0
  4 17  1  0  0  0  0
  4  8  1  0  0  0  0
  5  2  1  0  0  0  0
  6  4  1  0  0  0  0
  7  5  1  0  0  0  0
  7 18  1  0  0  0  0
  9  6  1  0  0  0  0
 10 19  1  0  0  0  0
 12  8  1  0  0  0  0
 12 11  1  0  0  0  0
 13  9  1  0  0  0  0
 13 10  2  0  0  0  0
 14  3  1  0  0  0  0
 14 21  1  0  0  0  0
 15 12  1  0  0  0  0
 16  5  1  0  0  0  0
 16  9  1  0  0  0  0
 18 22  1  0  0  0  0
 19 17  1  0  0  0  0
 20 16  1  0  0  0  0
 21 20  1  0  0  0  0
 22 15  1  0  0  0  0
 23 18  1  0  0  0  0
 23 26  1  0  0  0  0
 24 23  1  0  0  0  0
 25 24  1  0  0  0  0
 27 29  1  0  0  0  0
 29 26  1  0  0  0  0
 29 28  2  0  0  0  0
 30 13  1  0  0  0  0
 31 30  1  0  0  0  0
 32 31  1  0  0  0  0
 33 31  1  0  0  0  0
 34 33  1  0  0  0  0
 35 34  1  0  0  0  0
 35 36  1  0  0  0  0
 36 37  1  0  0  0  0
M  END
>  <MODEL>
8

>  <REMARK>
 VINA RESULT:      -5.3      3.302      7.048
  Name = 
  10 active torsions:
  status: ('A' for Active; 'I' for Inactive)
    1  A    between atoms: C_1  and  C_5
    2  A    between atoms: C_1  and  C_23
    3  A    between atoms: C_2  and  C_6
    4  A    between atoms: C_5  and  C_17
    5  A    between atoms: C_6  and  S_8
    6  A    between atoms: C_6  and  C_31
    7  A    between atoms: S_8  and  C_19
    8  A    between atoms: C_11  and  C_26
    9  A    between atoms: C_17  and  C_26
   10  A    between atoms: C_23  and  C_25
                            x       y       z     vdW  Elec       q    Type
                         _______ _______ _______ _____ _____    ______ ____

>  <TORSDO>
F 10

$$$$
=
 OpenBabel11052415323D

 37 41  0  0  1  0  0  0  0  0999 V2000
  188.5200  177.8630  138.9560 O   0  0  0  0  0  1  0  0  0  0  0  0
  184.6150  176.6590  136.3300 C   0  0  2  0  0  3  0  0  0  0  0  0
  183.6090  173.1230  137.2210 C   0  0  0  0  0  2  0  0  0  0  0  0
  186.4330  177.5740  137.8050 C   0  0  2  0  0  3  0  0  0  0  0  0
  184.7540  175.3220  136.8920 N   0  0  1  0  0  0  0  0  0  0  0  0
  186.0040  177.2600  136.3470 C   0  0  1  0  0  3  0  0  0  0  0  0
  183.5520  174.5290  136.5810 C   0  0  2  0  0  3  0  0  0  0  0  0
  185.3570  178.3610  138.5660 C   0  0  0  0  0  2  0  0  0  0  0  0
  186.7660  176.0610  135.7870 C   0  0  1  0  0  3  0  0  0  0  0  0
  189.0590  177.0630  136.1820 C   0  0  0  0  0  3  0  0  0  0  0  0
  183.0750  178.4170  139.2120 F   0  0  0  0  0  0  0  0  0  0  0  0
  184.0060  177.6480  138.5390 C   0  0  1  0  0  3  0  0  0  0  0  0
  188.2900  176.0110  135.8510 C   0  0  0  0  0  0  0  0  0  0  0  0
  184.9590  172.4230  137.1340 C   0  0  0  0  0  2  0  0  0  0  0  0
  183.5750  177.4600  137.0870 C   0  0  2  0  0  3  0  0  0  0  0  0
  185.9530  174.8200  136.2160 C   0  0  1  0  0  3  0  0  0  0  0  0
  187.7460  178.3540  137.9040 C   0  0  2  0  0  3  0  0  0  0  0  0
  182.3050  175.2240  137.1890 C   0  0  1  0  0  3  0  0  0  0  0  0
  188.5620  178.4090  136.6140 C   0  0  0  0  0  2  0  0  0  0  0  0
  186.7130  173.8570  137.1450 C   0  0  0  0  0  2  0  0  0  0  0  0
  185.8660  173.0920  137.9660 O   0  0  0  0  0  0  0  0  0  0  0  0
  182.2320  176.7460  136.9390 C   0  0  0  0  0  2  0  0  0  0  0  0
  181.0070  174.5240  136.7680 C   0  0  2  0  0  3  0  0  0  0  0  0
  180.7840  174.5750  135.2610 C   0  0  0  0  0  2  0  0  0  0  0  0
  180.2480  173.3670  134.8150 O   0  0  0  0  0  1  0  0  0  0  0  0
  179.5790  175.2190  137.6600 S   0  0  0  0  0  0  0  0  0  0  0  0
  180.0510  172.9920  139.1770 F   0  0  0  0  0  0  0  0  0  0  0  0
  180.2430  174.9750  140.1860 O   0  0  0  0  0  0  0  0  0  0  0  0
  179.9990  174.3490  139.1670 C   0  0  0  0  0  0  0  0  0  0  0  0
  188.9860  174.8300  135.2320 C   0  0  0  0  0  2  0  0  0  0  0  0
  190.4660  174.7520  135.6020 C   0  0  2  0  0  3  0  0  0  0  0  0
  191.2130  173.8920  134.6000 C   0  0  0  0  0  1  0  0  0  0  0  0
  190.6330  174.1340  136.9840 C   0  0  0  0  0  2  0  0  0  0  0  0
  191.9700  174.5060  137.6060 C   0  0  0  0  0  2  0  0  0  0  0  0
  192.1410  176.0150  137.6320 C   0  0  0  0  0  2  0  0  0  0  0  0
  193.5580  176.4000  137.2470 C   0  0  0  0  0  2  0  0  0  0  0  0
  194.1370  175.3890  136.2750 C   0  0  0  0  0  1  0  0  0  0  0  0
  2  6  1  0  0  0  0
  2  5  1  0  0  0  0
  2 15  1  0  0  0  0
  4 17  1  0  0  0  0
  4  8  1  0  0  0  0
  6  4  1  0  0  0  0
  7  5  1  0  0  0  0
  7 18  1  0  0  0  0
  7  3  1  0  0  0  0
  9 13  1  0  0  0  0
  9 16  1  0  0  0  0
  9  6  1  0  0  0  0
 10 19  1  0  0  0  0
 12  8  1  0  0  0  0
 12 11  1  0  0  0  0
 13 10  2  0  0  0  0
 14  3  1  0  0  0  0
 14 21  1  0  0  0  0
 15 12  1  0  0  0  0
 16  5  1  0  0  0  0
 16 20  1  0  0  0  0
 17  1  1  0  0  0  0
 19 17  1  0  0  0  0
 20 21  1  0  0  0  0
 22 15  1  0  0  0  0
 22 18  1  0  0  0  0
 23 18  1  0  0  0  0
 23 26  1  0  0  0  0
 24 23  1  0  0  0  0
 25 24  1  0  0  0  0
 26 29  1  0  0  0  0
 29 27  1  0  0  0  0
 29 28  2  0  0  0  0
 30 31  1  0  0  0  0
 30 13  1  0  0  0  0
 31 33  1  0  0  0  0
 32 31  1  0  0  0  0
 33 34  1  0  0  0  0
 34 35  1  0  0  0  0
 36 35  1  0  0  0  0
 37 36  1  0  0  0  0
M  END
>  <MODEL>
9

>  <REMARK>
 VINA RESULT:      -5.1      5.505      8.942
  Name = 
  10 active torsions:
  status: ('A' for Active; 'I' for Inactive)
    1  A    between atoms: C_1  and  C_5
    2  A    between atoms: C_1  and  C_23
    3  A    between atoms: C_2  and  C_6
    4  A    between atoms: C_5  and  C_17
    5  A    between atoms: C_6  and  S_8
    6  A    between atoms: C_6  and  C_31
    7  A    between atoms: S_8  and  C_19
    8  A    between atoms: C_11  and  C_26
    9  A    between atoms: C_17  and  C_26
   10  A    between atoms: C_23  and  C_25
                            x       y       z     vdW  Elec       q    Type
                         _______ _______ _______ _____ _____    ______ ____

>  <TORSDO>
F 10

$$$$
