=
 OpenBabel11052413553D

 34 39  0  0  1  0  0  0  0  0999 V2000
  189.2750  177.3560  146.1260 C   0  0  0  0  0  0  0  0  0  0  0  0
  190.9100  176.3420  144.6750 C   0  0  0  0  0  0  0  0  0  0  0  0
  188.6280  176.9980  143.6760 C   0  0  1  0  0  3  0  0  0  0  0  0
  188.0650  177.5170  141.3860 N   0  0  2  0  0  0  0  0  0  0  0  0
  191.4370  176.8360  146.9270 C   0  0  0  0  0  3  0  0  0  0  0  0
  191.7780  176.3270  145.7190 N   0  0  0  0  0  0  0  0  0  0  0  0
  190.3310  177.7410  141.9300 N   0  0  0  0  0  2  0  0  0  0  0  0
  189.6460  176.9610  144.8160 C   0  0  0  0  0  0  0  0  0  0  0  0
  188.6770  178.1670  140.2490 C   0  0  0  0  0  2  0  0  0  0  0  0
  190.1890  177.3230  147.1290 N   0  0  0  0  0  0  0  0  0  0  0  0
  187.2840  177.6120  144.1090 C   0  0  1  0  0  3  0  0  0  0  0  0
  187.8700  177.7740  146.4600 C   0  0  0  0  0  2  0  0  0  0  0  0
  191.2900  175.5860  143.4470 C   0  0  0  0  0  1  0  0  0  0  0  0
  186.7680  178.1130  141.6980 C   0  0  0  0  0  2  0  0  0  0  0  0
  186.2160  177.4980  143.0020 C   0  0  2  0  0  3  0  0  0  0  0  0
  190.1730  178.1260  140.5310 C   0  0  2  0  0  3  0  0  0  0  0  0
  188.9850  177.8550  142.4570 C   0  0  2  0  0  3  0  0  0  0  0  0
  186.8670  177.1580  145.4920 C   0  0  0  0  0  2  0  0  0  0  0  0
  182.7300  178.9630  142.7530 C   0  0  0  0  0  0  0  0  0  0  0  0
  182.5140  179.4150  144.0590 C   0  0  0  0  0  3  0  0  0  0  0  0
  184.9330  178.1700  143.3850 C   0  0  0  0  0  0  0  0  0  0  0  0
  183.5050  179.2460  145.0290 C   0  0  0  0  0  3  0  0  0  0  0  0
  183.9370  178.3430  142.4170 C   0  0  0  0  0  3  0  0  0  0  0  0
  184.7120  178.6250  144.6960 C   0  0  0  0  0  3  0  0  0  0  0  0
  181.7700  179.1280  141.8120 F   0  0  0  0  0  0  0  0  0  0  0  0
  191.3330  176.2950  138.9740 C   0  0  0  0  0  0  0  0  0  0  0  0
  190.8110  177.1230  139.6770 C   0  0  0  0  0  0  0  0  0  0  0  0
  190.0670  174.1390  136.9630 C   0  0  0  0  0  1  0  0  0  0  0  0
  191.9670  175.2880  138.1160 C   0  0  1  0  0  3  0  0  0  0  0  0
  191.1810  175.1540  136.8000 C   0  0  1  0  0  3  0  0  0  0  0  0
  193.1940  175.7710  135.3960 C   0  0  0  0  0  2  0  0  0  0  0  0
  193.6510  176.5000  136.6670 C   0  0  0  0  0  2  0  0  0  0  0  0
  193.4500  175.6370  137.9110 C   0  0  0  0  0  2  0  0  0  0  0  0
  192.0850  174.7380  135.6430 C   0  0  0  0  0  2  0  0  0  0  0  0
  1 12  1  0  0  0  0
  1 10  1  0  0  0  0
  2  8  1  0  0  0  0
  2  6  2  0  0  0  0
  3 11  1  0  0  0  0
  3  8  1  1  0  0  0
  4  9  1  6  0  0  0
  4 14  1  0  0  0  0
  4 17  1  0  0  0  0
  5 10  2  0  0  0  0
  6  5  1  0  0  0  0
  8  1  2  0  0  0  0
  9 16  1  0  0  0  0
 11 18  1  1  0  0  0
 13  2  1  0  0  0  0
 14 15  1  0  0  0  0
 15 21  1  1  0  0  0
 15 11  1  0  0  0  0
 16 27  1  6  0  0  0
 16  7  1  0  0  0  0
 17  7  1  6  0  0  0
 17  3  1  0  0  0  0
 18 12  1  0  0  0  0
 19 20  1  0  0  0  0
 20 22  2  0  0  0  0
 21 24  2  0  0  0  0
 23 19  2  0  0  0  0
 23 21  1  0  0  0  0
 24 22  1  0  0  0  0
 25 19  1  0  0  0  0
 26 27  3  0  0  0  0
 29 26  1  1  0  0  0
 30 28  1  1  0  0  0
 30 29  1  0  0  0  0
 31 34  1  0  0  0  0
 31 32  1  0  0  0  0
 32 33  1  0  0  0  0
 33 29  1  0  0  0  0
 34 30  1  0  0  0  0
M  END
>  <MODEL>
1

>  <REMARK>
 VINA RESULT:     -10.5      0.000      0.000
  Name = 
  3 active torsions:
  status: ('A' for Active; 'I' for Inactive)
    1  A    between atoms: C_3  and  C_13
    2  A    between atoms: C_12  and  C_28
    3  A    between atoms: C_17  and  C_29
                            x       y       z     vdW  Elec       q    Type
                         _______ _______ _______ _____ _____    ______ ____

>  <TORSDO>
F 3

$$$$
=
 OpenBabel11052413553D

 34 39  0  0  1  0  0  0  0  0999 V2000
  191.1120  177.3980  141.5490 C   0  0  0  0  0  0  0  0  0  0  0  0
  189.7180  177.0550  139.6150 C   0  0  0  0  0  0  0  0  0  0  0  0
  188.5860  177.2230  141.9210 C   0  0  1  0  0  3  0  0  0  0  0  0
  186.3280  177.8860  142.4610 N   0  0  2  0  0  0  0  0  0  0  0  0
  192.0530  177.3550  139.3820 C   0  0  0  0  0  3  0  0  0  0  0  0
  190.8330  177.1240  138.8410 N   0  0  0  0  0  0  0  0  0  0  0  0
  187.1100  178.6170  140.3790 N   0  0  0  0  0  2  0  0  0  0  0  0
  189.8070  177.2960  141.0040 C   0  0  0  0  0  0  0  0  0  0  0  0
  185.3380  178.8230  141.9780 C   0  0  0  0  0  2  0  0  0  0  0  0
  192.1890  177.4670  140.7260 N   0  0  0  0  0  0  0  0  0  0  0  0
  188.9550  177.4000  143.4060 C   0  0  1  0  0  3  0  0  0  0  0  0
  191.3550  177.3850  143.0330 C   0  0  0  0  0  2  0  0  0  0  0  0
  188.4540  176.6000  138.9670 C   0  0  0  0  0  1  0  0  0  0  0  0
  186.5800  178.0750  143.8870 C   0  0  0  0  0  2  0  0  0  0  0  0
  187.7440  177.1640  144.3320 C   0  0  2  0  0  3  0  0  0  0  0  0
  185.7570  179.1360  140.5480 C   0  0  2  0  0  3  0  0  0  0  0  0
  187.5150  178.3020  141.7360 C   0  0  2  0  0  3  0  0  0  0  0  0
  190.2300  176.6670  143.7690 C   0  0  0  0  0  2  0  0  0  0  0  0
  189.6990  177.3680  147.5720 C   0  0  0  0  0  0  0  0  0  0  0  0
  188.7440  177.8870  148.4520 C   0  0  0  0  0  3  0  0  0  0  0  0
  188.0770  177.4190  145.7710 C   0  0  0  0  0  0  0  0  0  0  0  0
  187.4550  178.1720  147.9940 C   0  0  0  0  0  3  0  0  0  0  0  0
  189.3650  177.1340  146.2350 C   0  0  0  0  0  3  0  0  0  0  0  0
  187.1200  177.9410  146.6580 C   0  0  0  0  0  3  0  0  0  0  0  0
  190.9480  177.0910  148.0160 F   0  0  0  0  0  0  0  0  0  0  0  0
  184.1190  177.9020  138.8390 C   0  0  0  0  0  0  0  0  0  0  0  0
  184.8580  178.4610  139.6100 C   0  0  0  0  0  0  0  0  0  0  0  0
  184.5070  175.2310  137.1030 C   0  0  0  0  0  1  0  0  0  0  0  0
  183.2180  177.2210  137.9030 C   0  0  1  0  0  3  0  0  0  0  0  0
  183.3960  175.6970  138.0230 C   0  0  1  0  0  3  0  0  0  0  0  0
  180.9660  175.3420  138.6350 C   0  0  0  0  0  2  0  0  0  0  0  0
  181.0520  176.7890  139.1380 C   0  0  0  0  0  2  0  0  0  0  0  0
  181.7730  177.6890  138.1370 C   0  0  0  0  0  2  0  0  0  0  0  0
  182.1070  174.9510  137.6850 C   0  0  0  0  0  2  0  0  0  0  0  0
  1 12  1  0  0  0  0
  2  8  2  0  0  0  0
  3  8  1  6  0  0  0
  3 11  1  0  0  0  0
  4  9  1  6  0  0  0
  4 14  1  0  0  0  0
  5 10  1  0  0  0  0
  6  5  2  0  0  0  0
  6  2  1  0  0  0  0
  7 16  1  0  0  0  0
  8  1  1  0  0  0  0
 10  1  2  0  0  0  0
 11 18  1  1  0  0  0
 11 15  1  0  0  0  0
 12 18  1  0  0  0  0
 13  2  1  0  0  0  0
 14 15  1  0  0  0  0
 15 21  1  1  0  0  0
 16 27  1  6  0  0  0
 16  9  1  0  0  0  0
 17  7  1  6  0  0  0
 17  3  1  0  0  0  0
 17  4  1  0  0  0  0
 19 25  1  0  0  0  0
 19 20  1  0  0  0  0
 21 23  1  0  0  0  0
 21 24  2  0  0  0  0
 22 20  2  0  0  0  0
 23 19  2  0  0  0  0
 24 22  1  0  0  0  0
 26 27  3  0  0  0  0
 29 30  1  0  0  0  0
 29 33  1  0  0  0  0
 29 26  1  1  0  0  0
 30 28  1  6  0  0  0
 31 32  1  0  0  0  0
 33 32  1  0  0  0  0
 34 30  1  0  0  0  0
 34 31  1  0  0  0  0
M  END
>  <MODEL>
2

>  <REMARK>
 VINA RESULT:     -10.1      3.430      6.757
  Name = 
  3 active torsions:
  status: ('A' for Active; 'I' for Inactive)
    1  A    between atoms: C_3  and  C_13
    2  A    between atoms: C_12  and  C_28
    3  A    between atoms: C_17  and  C_29
                            x       y       z     vdW  Elec       q    Type
                         _______ _______ _______ _____ _____    ______ ____

>  <TORSDO>
F 3

$$$$
=
 OpenBabel11052413553D

 34 39  0  0  1  0  0  0  0  0999 V2000
  191.0380  177.4230  141.5010 C   0  0  0  0  0  0  0  0  0  0  0  0
  189.6170  177.0850  139.5860 C   0  0  0  0  0  0  0  0  0  0  0  0
  188.5180  177.2420  141.9090 C   0  0  1  0  0  3  0  0  0  0  0  0
  186.2670  177.8980  142.4840 N   0  0  2  0  0  0  0  0  0  0  0  0
  191.9480  177.3910  139.3200 C   0  0  0  0  0  3  0  0  0  0  0  0
  190.7200  177.1580  138.7970 N   0  0  0  0  0  0  0  0  0  0  0  0
  187.0170  178.6390  140.3940 N   0  0  0  0  0  2  0  0  0  0  0  0
  189.7260  177.3210  140.9750 C   0  0  0  0  0  0  0  0  0  0  0  0
  185.2690  178.8350  142.0190 C   0  0  0  0  0  2  0  0  0  0  0  0
  192.1030  177.4980  140.6620 N   0  0  0  0  0  0  0  0  0  0  0  0
  188.9090  177.4130  143.3890 C   0  0  1  0  0  3  0  0  0  0  0  0
  191.3020  177.4050  142.9810 C   0  0  0  0  0  2  0  0  0  0  0  0
  188.3450  176.6290  138.9550 C   0  0  0  0  0  1  0  0  0  0  0  0
  186.5390  178.0820  143.9070 C   0  0  0  0  0  2  0  0  0  0  0  0
  187.7120  177.1720  144.3310 C   0  0  2  0  0  3  0  0  0  0  0  0
  185.6660  179.1540  140.5850 C   0  0  2  0  0  3  0  0  0  0  0  0
  187.4430  178.3200  141.7430 C   0  0  2  0  0  3  0  0  0  0  0  0
  190.1900  176.6820  143.7310 C   0  0  0  0  0  2  0  0  0  0  0  0
  189.7170  177.3780  147.5410 C   0  0  0  0  0  0  0  0  0  0  0  0
  188.7700  177.8820  148.4390 C   0  0  0  0  0  3  0  0  0  0  0  0
  188.0650  177.4220  145.7660 C   0  0  0  0  0  0  0  0  0  0  0  0
  187.4710  178.1560  148.0040 C   0  0  0  0  0  3  0  0  0  0  0  0
  189.3630  177.1480  146.2080 C   0  0  0  0  0  3  0  0  0  0  0  0
  187.1170  177.9280  146.6720 C   0  0  0  0  0  3  0  0  0  0  0  0
  190.9750  177.1120  147.9630 F   0  0  0  0  0  0  0  0  0  0  0  0
  184.0060  177.9230  138.8940 C   0  0  0  0  0  0  0  0  0  0  0  0
  184.7550  178.4810  139.6570 C   0  0  0  0  0  0  0  0  0  0  0  0
  181.1290  178.7780  137.7590 C   0  0  0  0  0  1  0  0  0  0  0  0
  183.0930  177.2440  137.9690 C   0  0  1  0  0  3  0  0  0  0  0  0
  182.3870  178.2790  137.0770 C   0  0  1  0  0  3  0  0  0  0  0  0
  183.2820  177.2370  134.9520 C   0  0  0  0  0  2  0  0  0  0  0  0
  184.4080  176.7370  135.8670 C   0  0  0  0  0  2  0  0  0  0  0  0
  183.8590  176.1730  137.1760 C   0  0  0  0  0  2  0  0  0  0  0  0
  182.0300  177.6970  135.7120 C   0  0  0  0  0  2  0  0  0  0  0  0
  1 12  1  0  0  0  0
  2  8  2  0  0  0  0
  3  8  1  6  0  0  0
  3 11  1  0  0  0  0
  4  9  1  6  0  0  0
  4 14  1  0  0  0  0
  5 10  1  0  0  0  0
  6  5  2  0  0  0  0
  6  2  1  0  0  0  0
  7 16  1  0  0  0  0
  8  1  1  0  0  0  0
 10  1  2  0  0  0  0
 11 18  1  1  0  0  0
 11 15  1  0  0  0  0
 12 18  1  0  0  0  0
 13  2  1  0  0  0  0
 14 15  1  0  0  0  0
 15 21  1  1  0  0  0
 16 27  1  6  0  0  0
 16  9  1  0  0  0  0
 17  7  1  6  0  0  0
 17  3  1  0  0  0  0
 17  4  1  0  0  0  0
 19 25  1  0  0  0  0
 19 20  1  0  0  0  0
 21 23  1  0  0  0  0
 21 24  2  0  0  0  0
 22 20  2  0  0  0  0
 23 19  2  0  0  0  0
 24 22  1  0  0  0  0
 26 27  3  0  0  0  0
 29 26  1  1  0  0  0
 30 28  1  1  0  0  0
 30 29  1  0  0  0  0
 31 34  1  0  0  0  0
 31 32  1  0  0  0  0
 32 33  1  0  0  0  0
 33 29  1  0  0  0  0
 34 30  1  0  0  0  0
M  END
>  <MODEL>
3

>  <REMARK>
 VINA RESULT:     -10.1      3.693      6.594
  Name = 
  3 active torsions:
  status: ('A' for Active; 'I' for Inactive)
    1  A    between atoms: C_3  and  C_13
    2  A    between atoms: C_12  and  C_28
    3  A    between atoms: C_17  and  C_29
                            x       y       z     vdW  Elec       q    Type
                         _______ _______ _______ _____ _____    ______ ____

>  <TORSDO>
F 3

$$$$
=
 OpenBabel11052413553D

 34 39  0  0  1  0  0  0  0  0999 V2000
  189.1910  177.3600  145.3770 C   0  0  0  0  0  0  0  0  0  0  0  0
  190.6740  176.5320  143.6680 C   0  0  0  0  0  0  0  0  0  0  0  0
  188.2790  177.1950  142.9910 C   0  0  1  0  0  3  0  0  0  0  0  0
  187.4480  177.8920  140.8340 N   0  0  2  0  0  0  0  0  0  0  0  0
  191.4410  176.8450  145.8840 C   0  0  0  0  0  3  0  0  0  0  0  0
  191.6550  176.4550  144.6040 N   0  0  0  0  0  0  0  0  0  0  0  0
  189.7550  178.1440  141.1410 N   0  0  0  0  0  2  0  0  0  0  0  0
  189.4200  177.0930  144.0040 C   0  0  0  0  0  0  0  0  0  0  0  0
  187.9120  178.6580  139.7000 C   0  0  0  0  0  2  0  0  0  0  0  0
  190.2130  177.2710  146.2660 N   0  0  0  0  0  0  0  0  0  0  0  0
  186.9780  177.7240  143.6240 C   0  0  1  0  0  3  0  0  0  0  0  0
  187.8230  177.7000  145.9010 C   0  0  0  0  0  2  0  0  0  0  0  0
  190.9300  175.8980  142.3430 C   0  0  0  0  0  1  0  0  0  0  0  0
  186.1820  178.4150  141.3400 C   0  0  0  0  0  2  0  0  0  0  0  0
  185.7950  177.6710  142.6360 C   0  0  2  0  0  3  0  0  0  0  0  0
  189.4310  178.6440  139.8100 C   0  0  2  0  0  3  0  0  0  0  0  0
  188.4750  178.1660  141.8230 C   0  0  2  0  0  3  0  0  0  0  0  0
  186.7320  177.1370  144.9980 C   0  0  0  0  0  2  0  0  0  0  0  0
  182.2580  179.0030  142.9160 C   0  0  0  0  0  0  0  0  0  0  0  0
  182.1920  179.3620  144.2660 C   0  0  0  0  0  3  0  0  0  0  0  0
  184.5480  178.2640  143.2180 C   0  0  0  0  0  0  0  0  0  0  0  0
  183.3020  179.1740  145.0930 C   0  0  0  0  0  3  0  0  0  0  0  0
  183.4340  178.4560  142.3940 C   0  0  0  0  0  3  0  0  0  0  0  0
  184.4770  178.6260  144.5740 C   0  0  0  0  0  3  0  0  0  0  0  0
  181.1830  179.1860  142.1130 F   0  0  0  0  0  0  0  0  0  0  0  0
  190.4520  176.9990  137.9710 C   0  0  0  0  0  0  0  0  0  0  0  0
  189.9910  177.7410  138.8030 C   0  0  0  0  0  0  0  0  0  0  0  0
  193.1370  175.2430  137.9690 C   0  0  0  0  0  1  0  0  0  0  0  0
  191.0150  176.1000  136.9590 C   0  0  1  0  0  3  0  0  0  0  0  0
  191.6960  174.9030  137.6440 C   0  0  1  0  0  3  0  0  0  0  0  0
  190.2070  173.2290  136.4690 C   0  0  0  0  0  2  0  0  0  0  0  0
  189.2240  174.4050  136.3930 C   0  0  0  0  0  2  0  0  0  0  0  0
  189.9210  175.6920  135.9590 C   0  0  0  0  0  2  0  0  0  0  0  0
  191.6510  173.6520  136.7700 C   0  0  0  0  0  2  0  0  0  0  0  0
  1 12  1  0  0  0  0
  1 10  1  0  0  0  0
  2  8  1  0  0  0  0
  2  6  2  0  0  0  0
  3 11  1  0  0  0  0
  3  8  1  1  0  0  0
  4  9  1  6  0  0  0
  4 14  1  0  0  0  0
  4 17  1  0  0  0  0
  5 10  2  0  0  0  0
  6  5  1  0  0  0  0
  8  1  2  0  0  0  0
  9 16  1  0  0  0  0
 11 18  1  1  0  0  0
 13  2  1  0  0  0  0
 14 15  1  0  0  0  0
 15 21  1  1  0  0  0
 15 11  1  0  0  0  0
 16 27  1  6  0  0  0
 16  7  1  0  0  0  0
 17  7  1  6  0  0  0
 17  3  1  0  0  0  0
 18 12  1  0  0  0  0
 19 20  1  0  0  0  0
 20 22  2  0  0  0  0
 21 24  2  0  0  0  0
 23 19  2  0  0  0  0
 23 21  1  0  0  0  0
 24 22  1  0  0  0  0
 25 19  1  0  0  0  0
 26 27  3  0  0  0  0
 29 30  1  0  0  0  0
 29 26  1  1  0  0  0
 30 28  1  6  0  0  0
 31 34  1  0  0  0  0
 32 31  1  0  0  0  0
 33 32  1  0  0  0  0
 33 29  1  0  0  0  0
 34 30  1  0  0  0  0
M  END
>  <MODEL>
4

>  <REMARK>
 VINA RESULT:      -9.3      1.023      1.673
  Name = 
  3 active torsions:
  status: ('A' for Active; 'I' for Inactive)
    1  A    between atoms: C_3  and  C_13
    2  A    between atoms: C_12  and  C_28
    3  A    between atoms: C_17  and  C_29
                            x       y       z     vdW  Elec       q    Type
                         _______ _______ _______ _____ _____    ______ ____

>  <TORSDO>
F 3

$$$$
=
 OpenBabel11052413553D

 34 39  0  0  1  0  0  0  0  0999 V2000
  190.4610  177.3640  140.2910 C   0  0  0  0  0  0  0  0  0  0  0  0
  188.4550  177.2900  138.9590 C   0  0  0  0  0  0  0  0  0  0  0  0
  188.2210  177.2330  141.5230 C   0  0  1  0  0  3  0  0  0  0  0  0
  186.3510  177.9060  142.8930 N   0  0  2  0  0  0  0  0  0  0  0  0
  190.5750  177.5360  137.9370 C   0  0  0  0  0  3  0  0  0  0  0  0
  189.2280  177.4080  137.8490 N   0  0  0  0  0  0  0  0  0  0  0  0
  186.4020  178.8420  140.7480 N   0  0  0  0  0  2  0  0  0  0  0  0
  189.0440  177.3690  140.2410 C   0  0  0  0  0  0  0  0  0  0  0  0
  185.3250  178.9240  142.8870 C   0  0  0  0  0  2  0  0  0  0  0  0
  191.1810  177.4900  139.1480 N   0  0  0  0  0  0  0  0  0  0  0  0
  189.1010  177.2270  142.7870 C   0  0  1  0  0  3  0  0  0  0  0  0
  191.2080  177.1750  141.5820 C   0  0  0  0  0  2  0  0  0  0  0  0
  187.0150  176.9540  138.7660 C   0  0  0  0  0  1  0  0  0  0  0  0
  187.1010  177.9230  144.1470 C   0  0  0  0  0  2  0  0  0  0  0  0
  188.2790  176.9290  144.0580 C   0  0  2  0  0  3  0  0  0  0  0  0
  185.2350  179.3830  141.4380 C   0  0  2  0  0  3  0  0  0  0  0  0
  187.2340  178.3620  141.8340 C   0  0  2  0  0  3  0  0  0  0  0  0
  190.3660  176.4160  142.6000 C   0  0  0  0  0  2  0  0  0  0  0  0
  189.2730  177.4810  147.6740 C   0  0  0  0  0  0  0  0  0  0  0  0
  190.6340  177.1610  147.6500 C   0  0  0  0  0  3  0  0  0  0  0  0
  189.1140  177.0080  145.3000 C   0  0  0  0  0  0  0  0  0  0  0  0
  191.2380  176.7660  146.4530 C   0  0  0  0  0  3  0  0  0  0  0  0
  188.5150  177.4050  146.5010 C   0  0  0  0  0  3  0  0  0  0  0  0
  190.4820  176.6880  145.2800 C   0  0  0  0  0  3  0  0  0  0  0  0
  188.6880  177.8650  148.8330 F   0  0  0  0  0  0  0  0  0  0  0  0
  183.0150  178.4100  140.3210 C   0  0  0  0  0  0  0  0  0  0  0  0
  184.0180  178.8500  140.8240 C   0  0  0  0  0  0  0  0  0  0  0  0
  179.9990  178.2790  141.4090 C   0  0  0  0  0  1  0  0  0  0  0  0
  181.7920  177.8780  139.7110 C   0  0  1  0  0  3  0  0  0  0  0  0
  180.5900  178.7570  140.0970 C   0  0  1  0  0  3  0  0  0  0  0  0
  180.0460  179.2830  137.6830 C   0  0  0  0  0  2  0  0  0  0  0  0
  181.5370  178.9980  137.4570 C   0  0  0  0  0  2  0  0  0  0  0  0
  181.9850  177.7380  138.1930 C   0  0  0  0  0  2  0  0  0  0  0  0
  179.5110  178.7440  139.0170 C   0  0  0  0  0  2  0  0  0  0  0  0
  1 12  1  0  0  0  0
  2  8  2  0  0  0  0
  3  8  1  6  0  0  0
  3 17  1  0  0  0  0
  3 11  1  0  0  0  0
  4  9  1  1  0  0  0
  4 14  1  0  0  0  0
  5 10  1  0  0  0  0
  6  5  2  0  0  0  0
  6  2  1  0  0  0  0
  7 16  1  0  0  0  0
  8  1  1  0  0  0  0
 10  1  2  0  0  0  0
 11 18  1  6  0  0  0
 11 15  1  0  0  0  0
 12 18  1  0  0  0  0
 13  2  1  0  0  0  0
 15 14  1  0  0  0  0
 15 21  1  1  0  0  0
 16 27  1  6  0  0  0
 16  9  1  0  0  0  0
 17  7  1  6  0  0  0
 17  4  1  0  0  0  0
 19 25  1  0  0  0  0
 20 19  1  0  0  0  0
 21 23  1  0  0  0  0
 22 20  2  0  0  0  0
 23 19  2  0  0  0  0
 24 21  2  0  0  0  0
 24 22  1  0  0  0  0
 26 27  3  0  0  0  0
 29 30  1  0  0  0  0
 29 26  1  1  0  0  0
 30 28  1  1  0  0  0
 31 34  1  0  0  0  0
 32 31  1  0  0  0  0
 32 33  1  0  0  0  0
 33 29  1  0  0  0  0
 34 30  1  0  0  0  0
M  END
>  <MODEL>
5

>  <REMARK>
 VINA RESULT:      -9.0      3.041      7.864
  Name = 
  3 active torsions:
  status: ('A' for Active; 'I' for Inactive)
    1  A    between atoms: C_3  and  C_13
    2  A    between atoms: C_12  and  C_28
    3  A    between atoms: C_17  and  C_29
                            x       y       z     vdW  Elec       q    Type
                         _______ _______ _______ _____ _____    ______ ____

>  <TORSDO>
F 3

$$$$
=
 OpenBabel11052413553D

 34 39  0  0  1  0  0  0  0  0999 V2000
  185.7080  178.5150  144.3030 C   0  0  0  0  0  0  0  0  0  0  0  0
  187.7290  177.3210  143.7590 C   0  0  0  0  0  0  0  0  0  0  0  0
  186.0870  177.8770  141.8530 C   0  0  1  0  0  3  0  0  0  0  0  0
  186.5280  178.1280  139.4930 N   0  0  2  0  0  0  0  0  0  0  0  0
  187.3280  178.0720  145.9660 C   0  0  0  0  0  3  0  0  0  0  0  0
  188.0980  177.4210  145.0610 N   0  0  0  0  0  0  0  0  0  0  0  0
  188.3890  178.3920  140.8870 N   0  0  0  0  0  2  0  0  0  0  0  0
  186.5530  177.9640  143.3070 C   0  0  0  0  0  0  0  0  0  0  0  0
  187.5830  178.6320  138.6440 C   0  0  0  0  0  2  0  0  0  0  0  0
  186.1340  178.5920  145.5890 N   0  0  0  0  0  0  0  0  0  0  0  0
  184.7200  178.5510  141.6340 C   0  0  1  0  0  3  0  0  0  0  0  0
  184.3140  178.9830  143.9890 C   0  0  0  0  0  2  0  0  0  0  0  0
  188.5290  176.4210  142.8790 C   0  0  0  0  0  1  0  0  0  0  0  0
  185.2520  178.7690  139.1850 C   0  0  0  0  0  2  0  0  0  0  0  0
  184.1860  178.3170  140.2060 C   0  0  2  0  0  3  0  0  0  0  0  0
  188.8320  178.6110  139.5150 C   0  0  2  0  0  3  0  0  0  0  0  0
  186.9540  178.5810  140.8050 C   0  0  2  0  0  3  0  0  0  0  0  0
  183.7540  178.2670  142.7660 C   0  0  0  0  0  2  0  0  0  0  0  0
  181.6930  180.8200  138.8320 C   0  0  0  0  0  0  0  0  0  0  0  0
  180.5100  180.4230  139.4640 C   0  0  0  0  0  3  0  0  0  0  0  0
  182.8980  179.0430  139.9600 C   0  0  0  0  0  0  0  0  0  0  0  0
  180.5180  179.3380  140.3440 C   0  0  0  0  0  3  0  0  0  0  0  0
  182.8840  180.1310  139.0810 C   0  0  0  0  0  3  0  0  0  0  0  0
  181.7070  178.6470  140.5930 C   0  0  0  0  0  3  0  0  0  0  0  0
  181.6850  181.8720  137.9800 F   0  0  0  0  0  0  0  0  0  0  0  0
  190.4190  176.6000  138.7630 C   0  0  0  0  0  0  0  0  0  0  0  0
  189.7030  177.5080  139.1040 C   0  0  0  0  0  0  0  0  0  0  0  0
  189.7710  173.8720  137.2010 C   0  0  0  0  0  1  0  0  0  0  0  0
  191.2910  175.4970  138.3460 C   0  0  1  0  0  3  0  0  0  0  0  0
  190.8210  174.9450  136.9880 C   0  0  1  0  0  3  0  0  0  0  0  0
  193.0440  175.4360  135.8840 C   0  0  0  0  0  2  0  0  0  0  0  0
  193.1630  176.5080  136.9760 C   0  0  0  0  0  2  0  0  0  0  0  0
  192.7550  175.9630  138.3430 C   0  0  0  0  0  2  0  0  0  0  0  0
  191.9820  174.3680  136.1820 C   0  0  0  0  0  2  0  0  0  0  0  0
  1 10  1  0  0  0  0
  2  6  2  0  0  0  0
  3  8  1  1  0  0  0
  4  9  1  6  0  0  0
  4 17  1  0  0  0  0
  6  5  1  0  0  0  0
  8  2  1  0  0  0  0
  8  1  2  0  0  0  0
  9 16  1  0  0  0  0
 10  5  2  0  0  0  0
 11  3  1  0  0  0  0
 11 18  1  1  0  0  0
 12  1  1  0  0  0  0
 13  2  1  0  0  0  0
 14  4  1  0  0  0  0
 14 15  1  0  0  0  0
 15 21  1  6  0  0  0
 15 11  1  0  0  0  0
 16 27  1  6  0  0  0
 16  7  1  0  0  0  0
 17  7  1  1  0  0  0
 17  3  1  0  0  0  0
 18 12  1  0  0  0  0
 19 23  2  0  0  0  0
 19 20  1  0  0  0  0
 20 22  2  0  0  0  0
 21 24  2  0  0  0  0
 22 24  1  0  0  0  0
 23 21  1  0  0  0  0
 25 19  1  0  0  0  0
 26 27  3  0  0  0  0
 29 26  1  6  0  0  0
 30 28  1  1  0  0  0
 30 29  1  0  0  0  0
 31 34  1  0  0  0  0
 31 32  1  0  0  0  0
 32 33  1  0  0  0  0
 33 29  1  0  0  0  0
 34 30  1  0  0  0  0
M  END
>  <MODEL>
6

>  <REMARK>
 VINA RESULT:      -8.6      2.219      3.338
  Name = 
  3 active torsions:
  status: ('A' for Active; 'I' for Inactive)
    1  A    between atoms: C_3  and  C_13
    2  A    between atoms: C_12  and  C_28
    3  A    between atoms: C_17  and  C_29
                            x       y       z     vdW  Elec       q    Type
                         _______ _______ _______ _____ _____    ______ ____

>  <TORSDO>
F 3

$$$$
=
 OpenBabel11052413553D

 34 39  0  0  1  0  0  0  0  0999 V2000
  186.3780  178.5900  138.1640 C   0  0  0  0  0  0  0  0  0  0  0  0
  185.8880  178.5870  140.5230 C   0  0  0  0  0  0  0  0  0  0  0  0
  188.0090  177.3710  139.7150 C   0  0  1  0  0  3  0  0  0  0  0  0
  190.0370  176.8820  140.9310 N   0  0  2  0  0  0  0  0  0  0  0  0
  184.5210  179.7840  139.0080 C   0  0  0  0  0  3  0  0  0  0  0  0
  184.8060  179.3670  140.2650 N   0  0  0  0  0  0  0  0  0  0  0  0
  188.7480  178.6300  141.8040 N   0  0  0  0  0  2  0  0  0  0  0  0
  186.7820  178.2530  139.4800 C   0  0  0  0  0  0  0  0  0  0  0  0
  190.8570  177.5020  141.9470 C   0  0  0  0  0  2  0  0  0  0  0  0
  185.2900  179.3780  137.9680 N   0  0  0  0  0  0  0  0  0  0  0  0
  188.7560  177.0460  138.4080 C   0  0  1  0  0  3  0  0  0  0  0  0
  187.0970  178.0610  136.9540 C   0  0  0  0  0  2  0  0  0  0  0  0
  186.0140  178.0100  141.8920 C   0  0  0  0  0  1  0  0  0  0  0  0
  190.8260  176.5480  139.7480 C   0  0  0  0  0  2  0  0  0  0  0  0
  189.8930  176.0290  138.6330 C   0  0  2  0  0  3  0  0  0  0  0  0
  189.9390  178.5020  142.6370 C   0  0  2  0  0  3  0  0  0  0  0  0
  189.1300  177.9600  140.5770 C   0  0  2  0  0  3  0  0  0  0  0  0
  187.8080  176.7490  137.2650 C   0  0  0  0  0  2  0  0  0  0  0  0
  192.6930  176.1340  136.0810 C   0  0  0  0  0  0  0  0  0  0  0  0
  192.1850  175.3200  135.0630 C   0  0  0  0  0  3  0  0  0  0  0  0
  190.6790  175.7750  137.3820 C   0  0  0  0  0  0  0  0  0  0  0  0
  190.9250  174.7330  135.2020 C   0  0  0  0  0  3  0  0  0  0  0  0
  191.9400  176.3610  137.2370 C   0  0  0  0  0  3  0  0  0  0  0  0
  190.1720  174.9570  136.3580 C   0  0  0  0  0  3  0  0  0  0  0  0
  193.9140  176.7040  135.9460 F   0  0  0  0  0  0  0  0  0  0  0  0
  189.2380  177.5750  145.0400 C   0  0  0  0  0  0  0  0  0  0  0  0
  189.5560  177.9940  143.9560 C   0  0  0  0  0  0  0  0  0  0  0  0
  190.9480  177.1280  147.7190 C   0  0  0  0  0  1  0  0  0  0  0  0
  188.8490  177.0610  146.3580 C   0  0  1  0  0  3  0  0  0  0  0  0
  189.6200  177.8110  147.4590 C   0  0  1  0  0  3  0  0  0  0  0  0
  187.4930  178.6280  148.5590 C   0  0  0  0  0  2  0  0  0  0  0  0
  186.8970  178.4610  147.1550 C   0  0  0  0  0  2  0  0  0  0  0  0
  187.3230  177.1400  146.5180 C   0  0  0  0  0  2  0  0  0  0  0  0
  188.8210  177.8840  148.7570 C   0  0  0  0  0  2  0  0  0  0  0  0
  1  8  1  0  0  0  0
  2 13  1  0  0  0  0
  3  8  1  6  0  0  0
  3 17  1  0  0  0  0
  4 14  1  6  0  0  0
  4  9  1  0  0  0  0
  5  6  2  0  0  0  0
  6  2  1  0  0  0  0
  7 16  1  0  0  0  0
  8  2  2  0  0  0  0
  9 16  1  0  0  0  0
 10  1  2  0  0  0  0
 10  5  1  0  0  0  0
 11 18  1  6  0  0  0
 11 15  1  0  0  0  0
 11  3  1  0  0  0  0
 12 18  1  0  0  0  0
 12  1  1  0  0  0  0
 15 21  1  6  0  0  0
 15 14  1  0  0  0  0
 16 27  1  1  0  0  0
 17  4  1  0  0  0  0
 17  7  1  1  0  0  0
 19 23  1  0  0  0  0
 20 22  1  0  0  0  0
 20 19  2  0  0  0  0
 22 24  2  0  0  0  0
 23 21  2  0  0  0  0
 24 21  1  0  0  0  0
 25 19  1  0  0  0  0
 27 26  3  0  0  0  0
 29 26  1  6  0  0  0
 29 33  1  0  0  0  0
 29 30  1  0  0  0  0
 30 28  1  1  0  0  0
 30 34  1  0  0  0  0
 31 34  1  0  0  0  0
 32 31  1  0  0  0  0
 33 32  1  0  0  0  0
M  END
>  <MODEL>
7

>  <REMARK>
 VINA RESULT:      -8.5      3.224      9.179
  Name = 
  3 active torsions:
  status: ('A' for Active; 'I' for Inactive)
    1  A    between atoms: C_3  and  C_13
    2  A    between atoms: C_12  and  C_28
    3  A    between atoms: C_17  and  C_29
                            x       y       z     vdW  Elec       q    Type
                         _______ _______ _______ _____ _____    ______ ____

>  <TORSDO>
F 3

$$$$
=
 OpenBabel11052413553D

 34 39  0  0  1  0  0  0  0  0999 V2000
  189.6900  177.5340  138.2860 C   0  0  0  0  0  0  0  0  0  0  0  0
  187.4940  177.2440  137.3380 C   0  0  0  0  0  0  0  0  0  0  0  0
  187.7080  177.3970  139.9000 C   0  0  1  0  0  3  0  0  0  0  0  0
  186.0610  178.0900  141.5230 N   0  0  2  0  0  0  0  0  0  0  0  0
  189.3860  177.5080  135.9420 C   0  0  0  0  0  3  0  0  0  0  0  0
  188.0560  177.3050  136.1030 N   0  0  0  0  0  0  0  0  0  0  0  0
  185.6820  178.8390  139.3380 N   0  0  0  0  0  2  0  0  0  0  0  0
  188.2880  177.4630  138.4860 C   0  0  0  0  0  0  0  0  0  0  0  0
  184.9850  179.0500  141.6200 C   0  0  0  0  0  2  0  0  0  0  0  0
  190.1930  177.5970  137.0270 N   0  0  0  0  0  0  0  0  0  0  0  0
  188.7900  177.5450  140.9860 C   0  0  1  0  0  3  0  0  0  0  0  0
  190.6580  177.4950  139.4350 C   0  0  0  0  0  2  0  0  0  0  0  0
  186.0670  176.8200  137.4290 C   0  0  0  0  0  1  0  0  0  0  0  0
  187.0120  178.2530  142.6190 C   0  0  0  0  0  2  0  0  0  0  0  0
  188.2200  177.3160  142.4000 C   0  0  2  0  0  3  0  0  0  0  0  0
  184.6190  179.3780  140.1790 C   0  0  2  0  0  3  0  0  0  0  0  0
  186.7180  178.4970  140.2940 C   0  0  2  0  0  3  0  0  0  0  0  0
  190.0540  176.7850  140.6410 C   0  0  0  0  0  2  0  0  0  0  0  0
  190.0450  177.1090  145.7150 C   0  0  0  0  0  0  0  0  0  0  0  0
  191.1510  177.9340  145.4860 C   0  0  0  0  0  3  0  0  0  0  0  0
  189.2480  177.5440  143.4660 C   0  0  0  0  0  0  0  0  0  0  0  0
  191.3070  178.5660  144.2490 C   0  0  0  0  0  3  0  0  0  0  0  0
  189.0960  176.9160  144.7070 C   0  0  0  0  0  3  0  0  0  0  0  0
  190.3610  178.3720  143.2400 C   0  0  0  0  0  3  0  0  0  0  0  0
  189.8930  176.4990  146.9140 F   0  0  0  0  0  0  0  0  0  0  0  0
  182.3090  178.2000  139.5420 C   0  0  0  0  0  0  0  0  0  0  0  0
  183.3510  178.7330  139.8320 C   0  0  0  0  0  0  0  0  0  0  0  0
  181.7070  175.4230  138.0520 C   0  0  0  0  0  1  0  0  0  0  0  0
  181.0430  177.5490  139.1910 C   0  0  1  0  0  3  0  0  0  0  0  0
  181.1800  176.0240  139.3400 C   0  0  1  0  0  3  0  0  0  0  0  0
  179.3060  175.9010  141.0350 C   0  0  0  0  0  2  0  0  0  0  0  0
  179.6880  177.3590  141.3200 C   0  0  0  0  0  2  0  0  0  0  0  0
  179.9000  178.1460  140.0280 C   0  0  0  0  0  2  0  0  0  0  0  0
  179.8490  175.3710  139.7010 C   0  0  0  0  0  2  0  0  0  0  0  0
  1  8  1  0  0  0  0
  1 12  1  0  0  0  0
  2 13  1  0  0  0  0
  2  8  2  0  0  0  0
  3  8  1  6  0  0  0
  3 17  1  0  0  0  0
  3 11  1  0  0  0  0
  4  9  1  1  0  0  0
  4 14  1  0  0  0  0
  5  6  2  0  0  0  0
  5 10  1  0  0  0  0
  6  2  1  0  0  0  0
  7 16  1  0  0  0  0
 10  1  2  0  0  0  0
 11 18  1  6  0  0  0
 11 15  1  0  0  0  0
 12 18  1  0  0  0  0
 15 14  1  0  0  0  0
 15 21  1  1  0  0  0
 16 27  1  6  0  0  0
 16  9  1  0  0  0  0
 17  7  1  6  0  0  0
 17  4  1  0  0  0  0
 19 25  1  0  0  0  0
 20 19  1  0  0  0  0
 21 23  1  0  0  0  0
 22 20  2  0  0  0  0
 23 19  2  0  0  0  0
 24 21  2  0  0  0  0
 24 22  1  0  0  0  0
 26 27  3  0  0  0  0
 29 30  1  0  0  0  0
 29 26  1  1  0  0  0
 29 33  1  0  0  0  0
 30 28  1  6  0  0  0
 30 34  1  0  0  0  0
 31 32  1  0  0  0  0
 33 32  1  0  0  0  0
 34 31  1  0  0  0  0
M  END
>  <MODEL>
8

>  <REMARK>
 VINA RESULT:      -8.5      3.497      8.456
  Name = 
  3 active torsions:
  status: ('A' for Active; 'I' for Inactive)
    1  A    between atoms: C_3  and  C_13
    2  A    between atoms: C_12  and  C_28
    3  A    between atoms: C_17  and  C_29
                            x       y       z     vdW  Elec       q    Type
                         _______ _______ _______ _____ _____    ______ ____

>  <TORSDO>
F 3

$$$$
=
 OpenBabel11052413553D

 34 39  0  0  1  0  0  0  0  0999 V2000
  188.7590  178.4060  140.7280 C   0  0  0  0  0  0  0  0  0  0  0  0
  186.8210  178.0960  139.3320 C   0  0  0  0  0  0  0  0  0  0  0  0
  186.5400  177.8600  141.8810 C   0  0  1  0  0  3  0  0  0  0  0  0
  184.5570  178.1550  143.2250 N   0  0  2  0  0  0  0  0  0  0  0  0
  188.8980  178.7260  138.3910 C   0  0  0  0  0  3  0  0  0  0  0  0
  187.5910  178.3960  138.2540 N   0  0  0  0  0  0  0  0  0  0  0  0
  184.5090  179.2070  141.1340 N   0  0  0  0  0  2  0  0  0  0  0  0
  187.3610  178.1940  140.6340 C   0  0  0  0  0  0  0  0  0  0  0  0
  183.3840  179.0000  143.2390 C   0  0  0  0  0  2  0  0  0  0  0  0
  189.4760  178.7070  139.6160 N   0  0  0  0  0  0  0  0  0  0  0  0
  187.3810  177.9200  143.1700 C   0  0  1  0  0  3  0  0  0  0  0  0
  189.4970  178.2630  142.0300 C   0  0  0  0  0  2  0  0  0  0  0  0
  185.4560  177.5510  139.0770 C   0  0  0  0  0  1  0  0  0  0  0  0
  185.2660  178.2180  144.5000 C   0  0  0  0  0  2  0  0  0  0  0  0
  186.5870  177.4260  144.3970 C   0  0  2  0  0  3  0  0  0  0  0  0
  183.2560  179.5200  141.8140 C   0  0  2  0  0  3  0  0  0  0  0  0
  185.3810  178.8020  142.2190 C   0  0  2  0  0  3  0  0  0  0  0  0
  188.7610  177.3270  142.9810 C   0  0  0  0  0  2  0  0  0  0  0  0
  189.4500  177.2480  146.8740 C   0  0  0  0  0  0  0  0  0  0  0  0
  188.8750  177.8090  148.0190 C   0  0  0  0  0  3  0  0  0  0  0  0
  187.3710  177.5640  145.6670 C   0  0  0  0  0  0  0  0  0  0  0  0
  187.5480  178.2460  147.9910 C   0  0  0  0  0  3  0  0  0  0  0  0
  188.6990  177.1260  145.7020 C   0  0  0  0  0  3  0  0  0  0  0  0
  186.7960  178.1260  146.8200 C   0  0  0  0  0  3  0  0  0  0  0  0
  190.7350  176.8230  146.9020 F   0  0  0  0  0  0  0  0  0  0  0  0
  181.2450  178.2780  140.5730 C   0  0  0  0  0  0  0  0  0  0  0  0
  182.1530  178.8390  141.1350 C   0  0  0  0  0  0  0  0  0  0  0  0
  180.9120  177.3470  137.5200 C   0  0  0  0  0  1  0  0  0  0  0  0
  180.1440  177.5930  139.8890 C   0  0  1  0  0  3  0  0  0  0  0  0
  180.7060  176.6220  138.8360 C   0  0  1  0  0  3  0  0  0  0  0  0
  179.5950  174.6210  139.9140 C   0  0  0  0  0  2  0  0  0  0  0  0
  179.6660  175.4740  141.1880 C   0  0  0  0  0  2  0  0  0  0  0  0
  179.2310  176.9140  140.9220 C   0  0  0  0  0  2  0  0  0  0  0  0
  179.7820  175.4260  138.6210 C   0  0  0  0  0  2  0  0  0  0  0  0
  1 12  1  0  0  0  0
  2  8  2  0  0  0  0
  3  8  1  6  0  0  0
  3 17  1  0  0  0  0
  3 11  1  0  0  0  0
  4  9  1  1  0  0  0
  4 14  1  0  0  0  0
  5 10  1  0  0  0  0
  6  5  2  0  0  0  0
  6  2  1  0  0  0  0
  7 16  1  0  0  0  0
  8  1  1  0  0  0  0
 10  1  2  0  0  0  0
 11 18  1  6  0  0  0
 11 15  1  0  0  0  0
 12 18  1  0  0  0  0
 13  2  1  0  0  0  0
 15 14  1  0  0  0  0
 15 21  1  1  0  0  0
 16 27  1  6  0  0  0
 16  9  1  0  0  0  0
 17  7  1  6  0  0  0
 17  4  1  0  0  0  0
 19 25  1  0  0  0  0
 19 20  1  0  0  0  0
 21 23  1  0  0  0  0
 21 24  2  0  0  0  0
 22 20  2  0  0  0  0
 23 19  2  0  0  0  0
 24 22  1  0  0  0  0
 26 27  3  0  0  0  0
 29 26  1  1  0  0  0
 29 33  1  0  0  0  0
 30 28  1  6  0  0  0
 30 29  1  0  0  0  0
 31 32  1  0  0  0  0
 33 32  1  0  0  0  0
 34 30  1  0  0  0  0
 34 31  1  0  0  0  0
M  END
>  <MODEL>
9

>  <REMARK>
 VINA RESULT:      -8.3      3.741      8.136
  Name = 
  3 active torsions:
  status: ('A' for Active; 'I' for Inactive)
    1  A    between atoms: C_3  and  C_13
    2  A    between atoms: C_12  and  C_28
    3  A    between atoms: C_17  and  C_29
                            x       y       z     vdW  Elec       q    Type
                         _______ _______ _______ _____ _____    ______ ____

>  <TORSDO>
F 3

$$$$
