=
 OpenBabel11052415273D

 37 41  0  0  1  0  0  0  0  0999 V2000
  181.4260  179.3780  141.4540 C   0  0  0  0  0  2  0  0  0  0  0  0
  180.1860  175.4630  139.5060 C   0  0  0  0  0  3  0  0  0  0  0  0
  182.5220  178.4460  141.7100 N   0  0  0  0  0  0  0  0  0  0  0  0
  180.8760  176.4650  140.1970 C   0  0  0  0  0  0  0  0  0  0  0  0
  180.1420  177.0900  141.3430 C   0  0  0  0  0  2  0  0  0  0  0  0
  182.2240  176.7640  139.8420 C   0  0  0  0  0  0  0  0  0  0  0  0
  182.1170  175.0280  138.1310 C   0  0  0  0  0  3  0  0  0  0  0  0
  178.9480  179.2460  141.9330 C   0  0  0  0  0  2  0  0  0  0  0  0
  180.1380  178.6060  141.2620 C   0  0  0  0  0  0  0  0  0  0  0  0
  182.8220  176.0210  138.8120 C   0  0  0  0  0  3  0  0  0  0  0  0
  179.0680  179.2540  140.4150 C   0  0  0  0  0  2  0  0  0  0  0  0
  183.0900  177.8390  140.4820 C   0  0  1  0  0  3  0  0  0  0  0  0
  180.7900  174.7490  138.4720 C   0  0  0  0  0  0  0  0  0  0  0  0
  180.0530  173.7640  137.8070 O   0  0  0  0  0  0  0  0  0  0  0  0
  180.6210  172.9150  136.8200 C   0  0  0  0  0  1  0  0  0  0  0  0
  183.4890  178.9970  142.6740 C   0  0  1  0  0  3  0  0  0  0  0  0
  181.8410  178.5620  144.3520 O   0  0  0  0  0  1  0  0  0  0  0  0
  182.8080  179.4830  143.9500 C   0  0  0  0  0  2  0  0  0  0  0  0
  184.6510  178.0570  142.9760 C   0  0  0  0  0  2  0  0  0  0  0  0
  185.2550  178.3570  144.3400 C   0  0  0  0  0  2  0  0  0  0  0  0
  187.2590  177.3730  143.3950 C   0  0  0  0  0  3  0  0  0  0  0  0
  186.6480  177.8250  144.4950 C   0  0  0  0  0  0  0  0  0  0  0  0
  187.3340  177.8020  145.8480 C   0  0  0  0  0  2  0  0  0  0  0  0
  189.5960  177.1610  147.1940 S   0  0  0  0  0  0  0  0  0  0  0  0
  189.3210  176.7670  144.5570 C   0  0  0  0  0  3  0  0  0  0  0  0
  188.7290  177.2440  145.8130 C   0  0  0  0  0  0  0  0  0  0  0  0
  188.6270  176.8290  143.4220 C   0  0  0  0  0  3  0  0  0  0  0  0
  183.7280  178.7810  139.4270 C   0  0  1  0  0  3  0  0  0  0  0  0
  185.2130  178.7160  139.2290 C   0  0  0  0  0  0  0  0  0  0  0  0
  185.9780  179.0030  140.1370 O   0  0  0  0  0  0  0  0  0  0  0  0
  185.7520  178.2280  137.9270 C   0  0  0  0  0  2  0  0  0  0  0  0
  187.0800  178.6280  137.7830 O   0  0  0  0  0  1  0  0  0  0  0  0
  182.9370  178.9620  138.1370 C   0  0  0  0  0  2  0  0  0  0  0  0
  182.0730  180.2110  138.1940 C   0  0  0  0  0  2  0  0  0  0  0  0
  181.0930  179.8110  136.0090 C   0  0  0  0  0  2  0  0  0  0  0  0
  180.7850  180.0060  137.4210 C   0  0  2  0  0  3  0  0  0  0  0  0
  180.6110  181.1180  136.4750 N   0  0  0  0  0  2  0  0  0  0  0  0
  1  3  1  0  0  0  0
  2  4  1  0  0  0  0
  3 16  1  0  0  0  0
  4  5  1  0  0  0  0
  6  4  2  0  0  0  0
  6 12  1  0  0  0  0
  7 13  1  0  0  0  0
  7 10  2  0  0  0  0
  9  5  1  0  0  0  0
  9  1  1  0  0  0  0
  9  8  1  0  0  0  0
 10  6  1  0  0  0  0
 11  9  1  0  0  0  0
 11  8  1  0  0  0  0
 12 28  1  6  0  0  0
 12  3  1  0  0  0  0
 13  2  2  0  0  0  0
 14 13  1  0  0  0  0
 15 14  1  0  0  0  0
 16 19  1  1  0  0  0
 16 18  1  0  0  0  0
 18 17  1  0  0  0  0
 19 20  1  0  0  0  0
 20 22  1  0  0  0  0
 21 27  1  0  0  0  0
 21 22  2  0  0  0  0
 22 23  1  0  0  0  0
 25 26  1  0  0  0  0
 26 23  1  0  0  0  0
 26 24  2  0  0  0  0
 27 25  2  0  0  0  0
 28 33  1  6  0  0  0
 29 28  1  0  0  0  0
 29 30  2  0  0  0  0
 31 29  1  0  0  0  0
 32 31  1  0  0  0  0
 33 34  1  0  0  0  0
 35 37  1  0  0  0  0
 35 36  1  0  0  0  0
 36 34  1  1  0  0  0
 37 36  1  0  0  0  0
M  END
>  <MODEL>
1

>  <REMARK>
 VINA RESULT:      -6.7      0.000      0.000
  Name = 
  12 active torsions:
  status: ('A' for Active; 'I' for Inactive)
    1  A    between atoms: C_1  and  C_12
    2  A    between atoms: C_1  and  C_36
    3  A    between atoms: O_3  and  C_32
    4  A    between atoms: C_6  and  C_31
    5  A    between atoms: N_10  and  C_14
    6  A    between atoms: C_14  and  C_27
    7  A    between atoms: C_14  and  C_37
    8  A    between atoms: C_17  and  C_26
    9  A    between atoms: C_17  and  C_33
   10  A    between atoms: C_29  and  C_36
   11  A    between atoms: C_31  and  C_37
   12  A    between atoms: C_33  and  C_36
                            x       y       z     vdW  Elec       q    Type
                         _______ _______ _______ _____ _____    ______ ____

>  <TORSDO>
F 12

$$$$
=
 OpenBabel11052415273D

 37 41  0  0  1  0  0  0  0  0999 V2000
  180.2230  177.5920  140.2720 C   0  0  0  0  0  2  0  0  0  0  0  0
  183.3790  175.1460  138.1010 C   0  0  0  0  0  3  0  0  0  0  0  0
  181.4960  178.2480  140.5590 N   0  0  0  0  0  0  0  0  0  0  0  0
  182.7110  176.1030  138.8720 C   0  0  0  0  0  0  0  0  0  0  0  0
  181.8730  175.5700  139.9940 C   0  0  0  0  0  2  0  0  0  0  0  0
  182.9260  177.4890  138.6130 C   0  0  0  0  0  0  0  0  0  0  0  0
  184.4780  176.8760  136.8340 C   0  0  0  0  0  3  0  0  0  0  0  0
  179.4370  175.2110  140.5910 C   0  0  0  0  0  2  0  0  0  0  0  0
  180.4620  176.1280  139.9710 C   0  0  0  0  0  0  0  0  0  0  0  0
  183.8230  177.8450  137.5950 C   0  0  0  0  0  3  0  0  0  0  0  0
  179.4540  175.4350  139.0840 C   0  0  0  0  0  2  0  0  0  0  0  0
  182.2540  178.6410  139.3470 C   0  0  1  0  0  3  0  0  0  0  0  0
  184.2520  175.5180  137.0800 C   0  0  0  0  0  0  0  0  0  0  0  0
  184.8870  174.5210  136.3340 O   0  0  0  0  0  0  0  0  0  0  0  0
  185.9590  173.7420  136.8460 C   0  0  0  0  0  1  0  0  0  0  0  0
  181.3530  179.2780  141.6030 C   0  0  1  0  0  3  0  0  0  0  0  0
  179.7390  180.9540  142.1610 O   0  0  0  0  0  1  0  0  0  0  0  0
  179.8890  179.5920  141.8970 C   0  0  0  0  0  2  0  0  0  0  0  0
  182.1320  178.9660  142.8760 C   0  0  0  0  0  2  0  0  0  0  0  0
  183.5750  178.6040  142.5570 C   0  0  0  0  0  2  0  0  0  0  0  0
  183.8730  178.7770  144.9570 C   0  0  0  0  0  3  0  0  0  0  0  0
  184.4320  178.4740  143.7810 C   0  0  0  0  0  0  0  0  0  0  0  0
  185.8750  178.0170  143.6840 C   0  0  0  0  0  2  0  0  0  0  0  0
  188.1350  177.4530  145.0670 S   0  0  0  0  0  0  0  0  0  0  0  0
  185.8840  178.2920  146.2550 C   0  0  0  0  0  3  0  0  0  0  0  0
  186.5780  177.9370  145.0110 C   0  0  0  0  0  0  0  0  0  0  0  0
  184.6130  178.6870  146.2270 C   0  0  0  0  0  3  0  0  0  0  0  0
  181.6010  179.6540  138.3710 C   0  0  1  0  0  3  0  0  0  0  0  0
  182.0010  181.0950  138.4770 C   0  0  0  0  0  0  0  0  0  0  0  0
  183.1480  181.4060  138.7600 O   0  0  0  0  0  0  0  0  0  0  0  0
  180.9980  182.1530  138.1670 C   0  0  0  0  0  2  0  0  0  0  0  0
  179.8480  181.9570  138.9310 O   0  0  0  0  0  1  0  0  0  0  0  0
  181.4120  179.1660  136.9390 C   0  0  0  0  0  2  0  0  0  0  0  0
  180.0630  178.4890  136.7640 C   0  0  0  0  0  2  0  0  0  0  0  0
  181.1170  177.2930  134.9330 C   0  0  0  0  0  2  0  0  0  0  0  0
  180.2230  177.1480  136.0750 C   0  0  2  0  0  3  0  0  0  0  0  0
  179.6650  177.2350  134.7180 N   0  0  0  0  0  2  0  0  0  0  0  0
  1  3  1  0  0  0  0
  2  4  1  0  0  0  0
  3 16  1  0  0  0  0
  4  5  1  0  0  0  0
  6  4  2  0  0  0  0
  6 12  1  0  0  0  0
  7 13  1  0  0  0  0
  7 10  2  0  0  0  0
  9  5  1  0  0  0  0
  9  1  1  0  0  0  0
  9  8  1  0  0  0  0
 10  6  1  0  0  0  0
 11  9  1  0  0  0  0
 11  8  1  0  0  0  0
 12 28  1  6  0  0  0
 12  3  1  0  0  0  0
 13  2  2  0  0  0  0
 14 15  1  0  0  0  0
 14 13  1  0  0  0  0
 16 18  1  1  0  0  0
 16 19  1  0  0  0  0
 18 17  1  0  0  0  0
 20 19  1  0  0  0  0
 20 22  1  0  0  0  0
 21 27  1  0  0  0  0
 22 21  2  0  0  0  0
 23 22  1  0  0  0  0
 23 26  1  0  0  0  0
 26 24  2  0  0  0  0
 26 25  1  0  0  0  0
 27 25  2  0  0  0  0
 28 33  1  6  0  0  0
 28 29  1  0  0  0  0
 29 30  2  0  0  0  0
 31 29  1  0  0  0  0
 31 32  1  0  0  0  0
 34 33  1  0  0  0  0
 35 36  1  0  0  0  0
 36 34  1  1  0  0  0
 37 35  1  0  0  0  0
 37 36  1  0  0  0  0
M  END
>  <MODEL>
2

>  <REMARK>
 VINA RESULT:      -6.4      2.383      3.641
  Name = 
  12 active torsions:
  status: ('A' for Active; 'I' for Inactive)
    1  A    between atoms: C_1  and  C_12
    2  A    between atoms: C_1  and  C_36
    3  A    between atoms: O_3  and  C_32
    4  A    between atoms: C_6  and  C_31
    5  A    between atoms: N_10  and  C_14
    6  A    between atoms: C_14  and  C_27
    7  A    between atoms: C_14  and  C_37
    8  A    between atoms: C_17  and  C_26
    9  A    between atoms: C_17  and  C_33
   10  A    between atoms: C_29  and  C_36
   11  A    between atoms: C_31  and  C_37
   12  A    between atoms: C_33  and  C_36
                            x       y       z     vdW  Elec       q    Type
                         _______ _______ _______ _____ _____    ______ ____

>  <TORSDO>
F 12

$$$$
=
 OpenBabel11052415273D

 37 41  0  0  1  0  0  0  0  0999 V2000
  181.5790  179.3560  141.2700 C   0  0  0  0  0  2  0  0  0  0  0  0
  179.7660  175.5230  139.6330 C   0  0  0  0  0  3  0  0  0  0  0  0
  182.5860  178.3200  141.4850 N   0  0  0  0  0  0  0  0  0  0  0  0
  180.6150  176.4710  140.2140 C   0  0  0  0  0  0  0  0  0  0  0  0
  180.0530  177.2220  141.3820 C   0  0  0  0  0  2  0  0  0  0  0  0
  181.9520  176.6030  139.7370 C   0  0  0  0  0  0  0  0  0  0  0  0
  181.5150  174.8180  138.1320 C   0  0  0  0  0  3  0  0  0  0  0  0
  179.1500  179.5200  141.9540 C   0  0  0  0  0  2  0  0  0  0  0  0
  180.2040  178.7240  141.2230 C   0  0  0  0  0  0  0  0  0  0  0  0
  182.3770  175.7560  138.7020 C   0  0  0  0  0  3  0  0  0  0  0  0
  179.1410  179.4500  140.4320 C   0  0  0  0  0  2  0  0  0  0  0  0
  182.9800  177.6020  140.2490 C   0  0  1  0  0  3  0  0  0  0  0  0
  180.1990  174.7030  138.5930 C   0  0  0  0  0  0  0  0  0  0  0  0
  179.3070  173.7780  138.0410 O   0  0  0  0  0  0  0  0  0  0  0  0
  179.6210  172.9960  136.8970 C   0  0  0  0  0  1  0  0  0  0  0  0
  183.6860  178.8010  142.3390 C   0  0  1  0  0  3  0  0  0  0  0  0
  182.7450  178.5640  144.5260 O   0  0  0  0  0  1  0  0  0  0  0  0
  183.1690  179.5070  143.5890 C   0  0  0  0  0  2  0  0  0  0  0  0
  184.7090  177.7240  142.6800 C   0  0  0  0  0  2  0  0  0  0  0  0
  186.1210  178.2900  142.6720 C   0  0  0  0  0  2  0  0  0  0  0  0
  186.1940  177.9400  145.0690 C   0  0  0  0  0  3  0  0  0  0  0  0
  186.8850  177.9820  143.9250 C   0  0  0  0  0  0  0  0  0  0  0  0
  188.3800  177.7280  143.8920 C   0  0  0  0  0  2  0  0  0  0  0  0
  190.5750  177.1250  145.3600 S   0  0  0  0  0  0  0  0  0  0  0  0
  188.1410  177.4040  146.4460 C   0  0  0  0  0  3  0  0  0  0  0  0
  188.9760  177.4270  145.2380 C   0  0  0  0  0  0  0  0  0  0  0  0
  186.8340  177.6460  146.3630 C   0  0  0  0  0  3  0  0  0  0  0  0
  183.6220  178.4220  139.0990 C   0  0  1  0  0  3  0  0  0  0  0  0
  182.9180  179.6640  138.6400 C   0  0  0  0  0  0  0  0  0  0  0  0
  183.3610  180.7690  138.9120 O   0  0  0  0  0  0  0  0  0  0  0  0
  181.7030  179.5370  137.7860 C   0  0  0  0  0  2  0  0  0  0  0  0
  181.9550  178.6660  136.7270 O   0  0  0  0  0  1  0  0  0  0  0  0
  185.1400  178.5490  139.1440 C   0  0  0  0  0  2  0  0  0  0  0  0
  185.7620  178.1730  137.8090 C   0  0  0  0  0  2  0  0  0  0  0  0
  187.7370  178.1860  139.2200 C   0  0  0  0  0  2  0  0  0  0  0  0
  187.1590  177.6200  138.0070 C   0  0  2  0  0  3  0  0  0  0  0  0
  188.1290  178.7200  137.9090 N   0  0  0  0  0  2  0  0  0  0  0  0
  1  3  1  0  0  0  0
  2  4  1  0  0  0  0
  3 16  1  0  0  0  0
  4  5  1  0  0  0  0
  6  4  2  0  0  0  0
  6 12  1  0  0  0  0
  7 13  1  0  0  0  0
  7 10  2  0  0  0  0
  9  1  1  0  0  0  0
  9  5  1  0  0  0  0
  9  8  1  0  0  0  0
 10  6  1  0  0  0  0
 11  9  1  0  0  0  0
 11  8  1  0  0  0  0
 12 28  1  6  0  0  0
 12  3  1  0  0  0  0
 13  2  2  0  0  0  0
 14 13  1  0  0  0  0
 15 14  1  0  0  0  0
 16 19  1  1  0  0  0
 16 18  1  0  0  0  0
 18 17  1  0  0  0  0
 20 19  1  0  0  0  0
 20 22  1  0  0  0  0
 21 27  1  0  0  0  0
 22 21  2  0  0  0  0
 23 22  1  0  0  0  0
 23 26  1  0  0  0  0
 26 24  2  0  0  0  0
 26 25  1  0  0  0  0
 27 25  2  0  0  0  0
 28 33  1  1  0  0  0
 29 30  2  0  0  0  0
 29 28  1  0  0  0  0
 31 29  1  0  0  0  0
 32 31  1  0  0  0  0
 34 33  1  0  0  0  0
 36 34  1  1  0  0  0
 36 35  1  0  0  0  0
 37 36  1  0  0  0  0
 37 35  1  0  0  0  0
M  END
>  <MODEL>
3

>  <REMARK>
 VINA RESULT:      -6.4      1.724      2.831
  Name = 
  12 active torsions:
  status: ('A' for Active; 'I' for Inactive)
    1  A    between atoms: C_1  and  C_12
    2  A    between atoms: C_1  and  C_36
    3  A    between atoms: O_3  and  C_32
    4  A    between atoms: C_6  and  C_31
    5  A    between atoms: N_10  and  C_14
    6  A    between atoms: C_14  and  C_27
    7  A    between atoms: C_14  and  C_37
    8  A    between atoms: C_17  and  C_26
    9  A    between atoms: C_17  and  C_33
   10  A    between atoms: C_29  and  C_36
   11  A    between atoms: C_31  and  C_37
   12  A    between atoms: C_33  and  C_36
                            x       y       z     vdW  Elec       q    Type
                         _______ _______ _______ _____ _____    ______ ____

>  <TORSDO>
F 12

$$$$
=
 OpenBabel11052415273D

 37 41  0  0  1  0  0  0  0  0999 V2000
  181.9750  177.3010  137.0420 C   0  0  0  0  0  2  0  0  0  0  0  0
  182.1940  172.7620  136.9700 C   0  0  0  0  0  3  0  0  0  0  0  0
  182.7090  176.9240  138.2470 N   0  0  0  0  0  0  0  0  0  0  0  0
  182.3200  174.1120  137.3160 C   0  0  0  0  0  0  0  0  0  0  0  0
  181.0390  174.8790  137.4300 C   0  0  0  0  0  2  0  0  0  0  0  0
  183.6090  174.6430  137.6170 C   0  0  0  0  0  0  0  0  0  0  0  0
  184.5680  172.4350  137.2220 C   0  0  0  0  0  3  0  0  0  0  0  0
  179.7050  176.6210  136.1610 C   0  0  0  0  0  2  0  0  0  0  0  0
  181.0670  176.1650  136.6230 C   0  0  0  0  0  0  0  0  0  0  0  0
  184.7130  173.7780  137.5720 C   0  0  0  0  0  3  0  0  0  0  0  0
  180.7110  176.0740  135.1570 C   0  0  0  0  0  2  0  0  0  0  0  0
  183.9060  176.0900  137.9820 C   0  0  1  0  0  3  0  0  0  0  0  0
  183.3050  171.9220  136.9110 C   0  0  0  0  0  0  0  0  0  0  0  0
  183.1240  170.5840  136.5520 O   0  0  0  0  0  0  0  0  0  0  0  0
  183.4040  170.0940  135.2470 C   0  0  0  0  0  1  0  0  0  0  0  0
  182.8980  178.0720  139.1500 C   0  0  1  0  0  3  0  0  0  0  0  0
  180.7930  178.6610  140.1220 O   0  0  0  0  0  1  0  0  0  0  0  0
  181.7020  179.0190  139.1260 C   0  0  0  0  0  2  0  0  0  0  0  0
  183.2760  177.6720  140.5720 C   0  0  0  0  0  2  0  0  0  0  0  0
  184.4570  178.4910  141.0730 C   0  0  0  0  0  2  0  0  0  0  0  0
  183.4540  178.9120  143.2390 C   0  0  0  0  0  3  0  0  0  0  0  0
  184.5480  178.5360  142.5690 C   0  0  0  0  0  0  0  0  0  0  0  0
  185.8310  178.1680  143.2900 C   0  0  0  0  0  2  0  0  0  0  0  0
  187.0370  177.8890  145.6990 S   0  0  0  0  0  0  0  0  0  0  0  0
  184.4910  178.6880  145.4400 C   0  0  0  0  0  3  0  0  0  0  0  0
  185.7360  178.2620  144.7870 C   0  0  0  0  0  0  0  0  0  0  0  0
  183.4210  178.9930  144.7100 C   0  0  0  0  0  3  0  0  0  0  0  0
  185.0380  176.6930  137.1090 C   0  0  1  0  0  3  0  0  0  0  0  0
  184.9240  176.5640  135.6190 C   0  0  0  0  0  0  0  0  0  0  0  0
  184.2020  177.3140  134.9800 O   0  0  0  0  0  0  0  0  0  0  0  0
  185.7570  175.5510  134.9110 C   0  0  0  0  0  2  0  0  0  0  0  0
  187.0650  175.5890  135.3930 O   0  0  0  0  0  1  0  0  0  0  0  0
  185.5920  178.0340  137.5750 C   0  0  0  0  0  2  0  0  0  0  0  0
  187.0710  177.9300  137.9090 C   0  0  0  0  0  2  0  0  0  0  0  0
  189.2890  178.1860  136.9570 C   0  0  0  0  0  2  0  0  0  0  0  0
  187.9070  178.6390  136.8620 C   0  0  2  0  0  3  0  0  0  0  0  0
  188.9070  179.4810  137.5350 N   0  0  0  0  0  2  0  0  0  0  0  0
  1  3  1  0  0  0  0
  2  4  1  0  0  0  0
  3 16  1  0  0  0  0
  4  5  1  0  0  0  0
  4  6  2  0  0  0  0
  6 12  1  0  0  0  0
  7 10  2  0  0  0  0
  8  9  1  0  0  0  0
  9  1  1  0  0  0  0
  9  5  1  0  0  0  0
 10  6  1  0  0  0  0
 11  8  1  0  0  0  0
 11  9  1  0  0  0  0
 12 28  1  6  0  0  0
 12  3  1  0  0  0  0
 13  2  2  0  0  0  0
 13  7  1  0  0  0  0
 14 13  1  0  0  0  0
 15 14  1  0  0  0  0
 16 18  1  1  0  0  0
 16 19  1  0  0  0  0
 18 17  1  0  0  0  0
 19 20  1  0  0  0  0
 20 22  1  0  0  0  0
 21 27  1  0  0  0  0
 22 21  2  0  0  0  0
 22 23  1  0  0  0  0
 23 26  1  0  0  0  0
 26 25  1  0  0  0  0
 26 24  2  0  0  0  0
 27 25  2  0  0  0  0
 28 33  1  6  0  0  0
 29 28  1  0  0  0  0
 30 29  2  0  0  0  0
 31 32  1  0  0  0  0
 31 29  1  0  0  0  0
 33 34  1  0  0  0  0
 35 37  1  0  0  0  0
 36 35  1  0  0  0  0
 36 37  1  0  0  0  0
 36 34  1  1  0  0  0
M  END
>  <MODEL>
4

>  <REMARK>
 VINA RESULT:      -6.0      2.884      4.719
  Name = 
  12 active torsions:
  status: ('A' for Active; 'I' for Inactive)
    1  A    between atoms: C_1  and  C_12
    2  A    between atoms: C_1  and  C_36
    3  A    between atoms: O_3  and  C_32
    4  A    between atoms: C_6  and  C_31
    5  A    between atoms: N_10  and  C_14
    6  A    between atoms: C_14  and  C_27
    7  A    between atoms: C_14  and  C_37
    8  A    between atoms: C_17  and  C_26
    9  A    between atoms: C_17  and  C_33
   10  A    between atoms: C_29  and  C_36
   11  A    between atoms: C_31  and  C_37
   12  A    between atoms: C_33  and  C_36
                            x       y       z     vdW  Elec       q    Type
                         _______ _______ _______ _____ _____    ______ ____

>  <TORSDO>
F 12

$$$$
=
 OpenBabel11052415273D

 37 41  0  0  1  0  0  0  0  0999 V2000
  182.7390  177.7470  137.4110 C   0  0  0  0  0  2  0  0  0  0  0  0
  183.3900  173.3360  136.5280 C   0  0  0  0  0  3  0  0  0  0  0  0
  183.7000  177.2830  138.4090 N   0  0  0  0  0  0  0  0  0  0  0  0
  183.4400  174.6220  137.0770 C   0  0  0  0  0  0  0  0  0  0  0  0
  182.1260  175.1960  137.5140 C   0  0  0  0  0  2  0  0  0  0  0  0
  184.7010  175.2580  137.2680 C   0  0  0  0  0  0  0  0  0  0  0  0
  185.7930  173.2740  136.3580 C   0  0  0  0  0  3  0  0  0  0  0  0
  180.4320  176.9310  136.7790 C   0  0  0  0  0  2  0  0  0  0  0  0
  181.8900  176.5830  136.9450 C   0  0  0  0  0  0  0  0  0  0  0  0
  185.8620  174.5550  136.9080 C   0  0  0  0  0  3  0  0  0  0  0  0
  181.3020  176.6750  135.5560 C   0  0  0  0  0  2  0  0  0  0  0  0
  184.9120  176.6570  137.8270 C   0  0  1  0  0  3  0  0  0  0  0  0
  184.5520  172.6610  136.1590 C   0  0  0  0  0  0  0  0  0  0  0  0
  184.4470  171.3820  135.6060 O   0  0  0  0  0  0  0  0  0  0  0  0
  183.3860  170.4910  135.9250 C   0  0  0  0  0  1  0  0  0  0  0  0
  183.9260  178.2940  139.4560 C   0  0  1  0  0  3  0  0  0  0  0  0
  184.2380  180.5920  138.8680 O   0  0  0  0  0  1  0  0  0  0  0  0
  183.2630  179.6250  139.1160 C   0  0  0  0  0  2  0  0  0  0  0  0
  183.5500  177.8160  140.8540 C   0  0  0  0  0  2  0  0  0  0  0  0
  183.5610  178.9690  141.8470 C   0  0  0  0  0  2  0  0  0  0  0  0
  183.8780  179.0080  144.2500 C   0  0  0  0  0  3  0  0  0  0  0  0
  184.3990  178.6930  143.0590 C   0  0  0  0  0  0  0  0  0  0  0  0
  185.7810  178.0810  142.9360 C   0  0  0  0  0  2  0  0  0  0  0  0
  187.9640  177.2090  144.2820 S   0  0  0  0  0  0  0  0  0  0  0  0
  185.8230  178.2450  145.5160 C   0  0  0  0  0  3  0  0  0  0  0  0
  186.4710  177.8670  144.2540 C   0  0  0  0  0  0  0  0  0  0  0  0
  184.6050  178.7820  145.5110 C   0  0  0  0  0  3  0  0  0  0  0  0
  185.8150  177.5230  136.9100 C   0  0  1  0  0  3  0  0  0  0  0  0
  186.9410  178.2840  137.5430 C   0  0  0  0  0  0  0  0  0  0  0  0
  187.2400  179.4010  137.1490 O   0  0  0  0  0  0  0  0  0  0  0  0
  187.6530  177.6910  138.7110 C   0  0  0  0  0  2  0  0  0  0  0  0
  188.5860  178.5990  139.2100 O   0  0  0  0  0  1  0  0  0  0  0  0
  186.1620  176.9140  135.5560 C   0  0  0  0  0  2  0  0  0  0  0  0
  187.4130  177.5520  134.9730 C   0  0  0  0  0  2  0  0  0  0  0  0
  189.1030  176.0160  135.7940 C   0  0  0  0  0  2  0  0  0  0  0  0
  188.4270  176.4900  134.5940 C   0  0  2  0  0  3  0  0  0  0  0  0
  189.7750  176.9800  134.9130 N   0  0  0  0  0  2  0  0  0  0  0  0
  1  3  1  0  0  0  0
  2  4  1  0  0  0  0
  3 16  1  0  0  0  0
  4  6  2  0  0  0  0
  4  5  1  0  0  0  0
  6 12  1  0  0  0  0
  7 10  2  0  0  0  0
  8  9  1  0  0  0  0
  9  1  1  0  0  0  0
  9  5  1  0  0  0  0
 10  6  1  0  0  0  0
 11  8  1  0  0  0  0
 11  9  1  0  0  0  0
 12 28  1  6  0  0  0
 12  3  1  0  0  0  0
 13  7  1  0  0  0  0
 13  2  2  0  0  0  0
 14 15  1  0  0  0  0
 14 13  1  0  0  0  0
 16 18  1  6  0  0  0
 16 19  1  0  0  0  0
 17 18  1  0  0  0  0
 19 20  1  0  0  0  0
 20 22  1  0  0  0  0
 21 27  1  0  0  0  0
 22 21  2  0  0  0  0
 23 22  1  0  0  0  0
 23 26  1  0  0  0  0
 26 24  2  0  0  0  0
 26 25  1  0  0  0  0
 27 25  2  0  0  0  0
 28 33  1  6  0  0  0
 28 29  1  0  0  0  0
 29 31  1  0  0  0  0
 30 29  2  0  0  0  0
 31 32  1  0  0  0  0
 34 33  1  0  0  0  0
 36 37  1  0  0  0  0
 36 34  1  1  0  0  0
 36 35  1  0  0  0  0
 37 35  1  0  0  0  0
M  END
>  <MODEL>
5

>  <REMARK>
 VINA RESULT:      -5.8      3.094      4.857
  Name = 
  12 active torsions:
  status: ('A' for Active; 'I' for Inactive)
    1  A    between atoms: C_1  and  C_12
    2  A    between atoms: C_1  and  C_36
    3  A    between atoms: O_3  and  C_32
    4  A    between atoms: C_6  and  C_31
    5  A    between atoms: N_10  and  C_14
    6  A    between atoms: C_14  and  C_27
    7  A    between atoms: C_14  and  C_37
    8  A    between atoms: C_17  and  C_26
    9  A    between atoms: C_17  and  C_33
   10  A    between atoms: C_29  and  C_36
   11  A    between atoms: C_31  and  C_37
   12  A    between atoms: C_33  and  C_36
                            x       y       z     vdW  Elec       q    Type
                         _______ _______ _______ _____ _____    ______ ____

>  <TORSDO>
F 12

$$$$
=
 OpenBabel11052415273D

 37 41  0  0  1  0  0  0  0  0999 V2000
  188.7510  175.3910  135.4500 C   0  0  0  0  0  2  0  0  0  0  0  0
  191.1670  176.3140  139.1870 C   0  0  0  0  0  3  0  0  0  0  0  0
  187.9010  175.0050  136.5740 N   0  0  0  0  0  0  0  0  0  0  0  0
  190.1670  175.9160  138.2940 C   0  0  0  0  0  0  0  0  0  0  0  0
  190.5720  174.8940  137.2750 C   0  0  0  0  0  2  0  0  0  0  0  0
  188.8430  176.4190  138.4500 C   0  0  0  0  0  0  0  0  0  0  0  0
  189.5950  177.6820  140.3970 C   0  0  0  0  0  3  0  0  0  0  0  0
  191.1030  174.7280  134.8040 C   0  0  0  0  0  2  0  0  0  0  0  0
  190.2060  175.3150  135.8640 C   0  0  0  0  0  0  0  0  0  0  0  0
  188.5840  177.2930  139.5180 C   0  0  0  0  0  3  0  0  0  0  0  0
  191.1760  176.2130  135.1330 C   0  0  0  0  0  2  0  0  0  0  0  0
  187.6610  176.0990  137.5460 C   0  0  1  0  0  3  0  0  0  0  0  0
  190.8960  177.1980  140.2310 C   0  0  0  0  0  0  0  0  0  0  0  0
  191.9340  177.5710  141.0900 O   0  0  0  0  0  0  0  0  0  0  0  0
  191.8700  177.3860  142.4970 C   0  0  0  0  0  1  0  0  0  0  0  0
  186.7140  174.2570  136.1250 C   0  0  1  0  0  3  0  0  0  0  0  0
  187.2080  172.2330  134.9500 O   0  0  0  0  0  1  0  0  0  0  0  0
  186.9390  173.5900  134.7720 C   0  0  0  0  0  2  0  0  0  0  0  0
  186.1880  173.2710  137.1620 C   0  0  0  0  0  2  0  0  0  0  0  0
  184.7710  173.6300  137.5860 C   0  0  0  0  0  2  0  0  0  0  0  0
  184.1610  171.5220  136.5570 C   0  0  0  0  0  3  0  0  0  0  0  0
  183.7370  172.7000  137.0260 C   0  0  0  0  0  0  0  0  0  0  0  0
  182.2700  173.0840  136.9950 C   0  0  0  0  0  2  0  0  0  0  0  0
  179.7700  172.2940  136.3140 S   0  0  0  0  0  0  0  0  0  0  0  0
  181.9300  170.7600  135.9140 C   0  0  0  0  0  3  0  0  0  0  0  0
  181.3770  172.0270  136.4080 C   0  0  0  0  0  0  0  0  0  0  0  0
  183.2390  170.5260  135.9850 C   0  0  0  0  0  3  0  0  0  0  0  0
  186.9450  177.3800  137.0440 C   0  0  1  0  0  3  0  0  0  0  0  0
  187.6230  178.1990  135.9860 C   0  0  0  0  0  0  0  0  0  0  0  0
  187.0880  178.3900  134.9050 O   0  0  0  0  0  0  0  0  0  0  0  0
  188.9340  178.8400  136.2920 C   0  0  0  0  0  2  0  0  0  0  0  0
  188.7740  179.7930  137.2970 O   0  0  0  0  0  1  0  0  0  0  0  0
  185.4350  177.2690  136.8700 C   0  0  0  0  0  2  0  0  0  0  0  0
  184.7110  177.5480  138.1770 C   0  0  0  0  0  2  0  0  0  0  0  0
  184.7230  178.8570  140.2210 C   0  0  0  0  0  2  0  0  0  0  0  0
  185.4240  178.6310  138.9640 C   0  0  2  0  0  3  0  0  0  0  0  0
  184.5310  179.7900  139.1030 N   0  0  0  0  0  2  0  0  0  0  0  0
  1  9  1  0  0  0  0
  1  3  1  0  0  0  0
  2 13  1  0  0  0  0
  3 12  1  0  0  0  0
  4  6  1  0  0  0  0
  4  2  2  0  0  0  0
  5  4  1  0  0  0  0
  6 10  2  0  0  0  0
  8 11  1  0  0  0  0
  8  9  1  0  0  0  0
  9  5  1  0  0  0  0
 10  7  1  0  0  0  0
 11  9  1  0  0  0  0
 12 28  1  6  0  0  0
 12  6  1  0  0  0  0
 13  7  2  0  0  0  0
 13 14  1  0  0  0  0
 14 15  1  0  0  0  0
 16 18  1  6  0  0  0
 16  3  1  0  0  0  0
 16 19  1  0  0  0  0
 18 17  1  0  0  0  0
 19 20  1  0  0  0  0
 21 22  2  0  0  0  0
 22 20  1  0  0  0  0
 23 22  1  0  0  0  0
 24 26  2  0  0  0  0
 25 27  2  0  0  0  0
 25 26  1  0  0  0  0
 26 23  1  0  0  0  0
 27 21  1  0  0  0  0
 28 33  1  6  0  0  0
 29 31  1  0  0  0  0
 29 28  1  0  0  0  0
 30 29  2  0  0  0  0
 31 32  1  0  0  0  0
 33 34  1  0  0  0  0
 36 34  1  6  0  0  0
 36 37  1  0  0  0  0
 36 35  1  0  0  0  0
 37 35  1  0  0  0  0
M  END
>  <MODEL>
6

>  <REMARK>
 VINA RESULT:      -5.6      4.892      9.566
  Name = 
  12 active torsions:
  status: ('A' for Active; 'I' for Inactive)
    1  A    between atoms: C_1  and  C_12
    2  A    between atoms: C_1  and  C_36
    3  A    between atoms: O_3  and  C_32
    4  A    between atoms: C_6  and  C_31
    5  A    between atoms: N_10  and  C_14
    6  A    between atoms: C_14  and  C_27
    7  A    between atoms: C_14  and  C_37
    8  A    between atoms: C_17  and  C_26
    9  A    between atoms: C_17  and  C_33
   10  A    between atoms: C_29  and  C_36
   11  A    between atoms: C_31  and  C_37
   12  A    between atoms: C_33  and  C_36
                            x       y       z     vdW  Elec       q    Type
                         _______ _______ _______ _____ _____    ______ ____

>  <TORSDO>
F 12

$$$$
=
 OpenBabel11052415273D

 37 41  0  0  1  0  0  0  0  0999 V2000
  182.9640  176.3890  137.5050 C   0  0  0  0  0  2  0  0  0  0  0  0
  180.4440  180.0560  136.5730 C   0  0  0  0  0  3  0  0  0  0  0  0
  183.8850  177.5220  137.5490 N   0  0  0  0  0  0  0  0  0  0  0  0
  181.4960  179.1870  136.8830 C   0  0  0  0  0  0  0  0  0  0  0  0
  181.7280  178.0700  135.9110 C   0  0  0  0  0  2  0  0  0  0  0  0
  182.3180  179.4530  138.0170 C   0  0  0  0  0  0  0  0  0  0  0  0
  180.9910  181.4530  138.4580 C   0  0  0  0  0  3  0  0  0  0  0  0
  181.3770  175.5680  135.7170 C   0  0  0  0  0  2  0  0  0  0  0  0
  181.7970  176.7190  136.5980 C   0  0  0  0  0  0  0  0  0  0  0  0
  182.0470  180.6000  138.7800 C   0  0  0  0  0  3  0  0  0  0  0  0
  180.4910  176.0110  136.8740 C   0  0  0  0  0  2  0  0  0  0  0  0
  183.4770  178.5900  138.4930 C   0  0  1  0  0  3  0  0  0  0  0  0
  180.1790  181.1790  137.3540 C   0  0  0  0  0  0  0  0  0  0  0  0
  179.1090  182.0100  137.0050 O   0  0  0  0  0  0  0  0  0  0  0  0
  179.1100  182.8120  135.8330 C   0  0  0  0  0  1  0  0  0  0  0  0
  185.2870  177.0780  137.6310 C   0  0  1  0  0  3  0  0  0  0  0  0
  186.2820  174.9620  137.1250 O   0  0  0  0  0  1  0  0  0  0  0  0
  185.6240  176.0520  136.5540 C   0  0  0  0  0  2  0  0  0  0  0  0
  186.2890  178.2270  137.6510 C   0  0  0  0  0  2  0  0  0  0  0  0
  187.6410  177.7820  137.1110 C   0  0  0  0  0  2  0  0  0  0  0  0
  189.8160  176.9860  137.8230 C   0  0  0  0  0  3  0  0  0  0  0  0
  188.6490  177.5260  138.1900 C   0  0  0  0  0  0  0  0  0  0  0  0
  188.3540  177.8670  139.6380 C   0  0  0  0  0  2  0  0  0  0  0  0
  189.3140  177.8680  142.1710 S   0  0  0  0  0  0  0  0  0  0  0  0
  190.7320  176.9540  140.0880 C   0  0  0  0  0  3  0  0  0  0  0  0
  189.4830  177.5500  140.5790 C   0  0  0  0  0  0  0  0  0  0  0  0
  190.8850  176.6900  138.7920 C   0  0  0  0  0  3  0  0  0  0  0  0
  183.3590  178.2310  139.9980 C   0  0  1  0  0  3  0  0  0  0  0  0
  184.4390  178.7070  140.9230 C   0  0  0  0  0  0  0  0  0  0  0  0
  185.2940  179.4890  140.5360 O   0  0  0  0  0  0  0  0  0  0  0  0
  184.4220  178.2670  142.3470 C   0  0  0  0  0  2  0  0  0  0  0  0
  185.3820  178.9720  143.0730 O   0  0  0  0  0  1  0  0  0  0  0  0
  181.9570  178.3090  140.5900 C   0  0  0  0  0  2  0  0  0  0  0  0
  181.1790  177.0300  140.3260 C   0  0  0  0  0  2  0  0  0  0  0  0
  179.2390  178.2510  141.1260 C   0  0  0  0  0  2  0  0  0  0  0  0
  179.7110  177.3350  140.0960 C   0  0  2  0  0  3  0  0  0  0  0  0
  178.9310  176.8180  141.2290 N   0  0  0  0  0  2  0  0  0  0  0  0
  1  3  1  0  0  0  0
  2  4  2  0  0  0  0
  2 13  1  0  0  0  0
  3 16  1  0  0  0  0
  3 12  1  0  0  0  0
  4  6  1  0  0  0  0
  5  9  1  0  0  0  0
  5  4  1  0  0  0  0
  6 12  1  0  0  0  0
  6 10  2  0  0  0  0
  7 10  1  0  0  0  0
  8  9  1  0  0  0  0
  8 11  1  0  0  0  0
  9 11  1  0  0  0  0
  9  1  1  0  0  0  0
 12 28  1  1  0  0  0
 13  7  2  0  0  0  0
 14 13  1  0  0  0  0
 15 14  1  0  0  0  0
 16 18  1  6  0  0  0
 16 19  1  0  0  0  0
 18 17  1  0  0  0  0
 20 19  1  0  0  0  0
 20 22  1  0  0  0  0
 21 22  2  0  0  0  0
 21 27  1  0  0  0  0
 22 23  1  0  0  0  0
 23 26  1  0  0  0  0
 25 26  1  0  0  0  0
 26 24  2  0  0  0  0
 27 25  2  0  0  0  0
 28 33  1  1  0  0  0
 28 29  1  0  0  0  0
 29 31  1  0  0  0  0
 30 29  2  0  0  0  0
 31 32  1  0  0  0  0
 34 33  1  0  0  0  0
 35 37  1  0  0  0  0
 36 34  1  1  0  0  0
 36 35  1  0  0  0  0
 36 37  1  0  0  0  0
M  END
>  <MODEL>
7

>  <REMARK>
 VINA RESULT:      -5.6      2.869      5.717
  Name = 
  12 active torsions:
  status: ('A' for Active; 'I' for Inactive)
    1  A    between atoms: C_1  and  C_12
    2  A    between atoms: C_1  and  C_36
    3  A    between atoms: O_3  and  C_32
    4  A    between atoms: C_6  and  C_31
    5  A    between atoms: N_10  and  C_14
    6  A    between atoms: C_14  and  C_27
    7  A    between atoms: C_14  and  C_37
    8  A    between atoms: C_17  and  C_26
    9  A    between atoms: C_17  and  C_33
   10  A    between atoms: C_29  and  C_36
   11  A    between atoms: C_31  and  C_37
   12  A    between atoms: C_33  and  C_36
                            x       y       z     vdW  Elec       q    Type
                         _______ _______ _______ _____ _____    ______ ____

>  <TORSDO>
F 12

$$$$
=
 OpenBabel11052415273D

 37 41  0  0  1  0  0  0  0  0999 V2000
  181.7020  176.9600  137.8130 C   0  0  0  0  0  2  0  0  0  0  0  0
  180.4580  181.1230  136.4810 C   0  0  0  0  0  3  0  0  0  0  0  0
  182.9300  177.7520  137.7970 N   0  0  0  0  0  0  0  0  0  0  0  0
  181.1840  180.0050  136.9030 C   0  0  0  0  0  0  0  0  0  0  0  0
  181.0670  178.7870  136.0380 C   0  0  0  0  0  2  0  0  0  0  0  0
  182.0360  180.1070  138.0410 C   0  0  0  0  0  0  0  0  0  0  0  0
  181.3930  182.4500  138.2620 C   0  0  0  0  0  3  0  0  0  0  0  0
  179.9580  176.5090  136.0410 C   0  0  0  0  0  2  0  0  0  0  0  0
  180.7050  177.5490  136.8380 C   0  0  0  0  0  0  0  0  0  0  0  0
  182.1280  181.3460  138.6950 C   0  0  0  0  0  3  0  0  0  0  0  0
  179.2410  177.3080  137.1220 C   0  0  0  0  0  2  0  0  0  0  0  0
  182.8640  178.9750  138.6320 C   0  0  1  0  0  3  0  0  0  0  0  0
  180.5470  182.3410  137.1540 C   0  0  0  0  0  0  0  0  0  0  0  0
  179.7920  183.4250  136.6970 O   0  0  0  0  0  0  0  0  0  0  0  0
  180.1680  184.7750  136.9300 C   0  0  0  0  0  1  0  0  0  0  0  0
  184.1240  176.9060  137.9700 C   0  0  1  0  0  3  0  0  0  0  0  0
  184.6510  175.0540  136.5490 O   0  0  0  0  0  1  0  0  0  0  0  0
  183.8450  175.4480  137.6180 C   0  0  0  0  0  2  0  0  0  0  0  0
  185.3560  177.4370  137.2460 C   0  0  0  0  0  2  0  0  0  0  0  0
  186.2370  178.2450  138.1890 C   0  0  0  0  0  2  0  0  0  0  0  0
  188.1600  177.0860  137.2750 C   0  0  0  0  0  3  0  0  0  0  0  0
  187.6110  177.6680  138.3470 C   0  0  0  0  0  0  0  0  0  0  0  0
  188.3470  177.7430  139.6710 C   0  0  0  0  0  2  0  0  0  0  0  0
  190.6310  177.1320  140.9940 S   0  0  0  0  0  0  0  0  0  0  0  0
  190.2380  176.5010  138.4190 C   0  0  0  0  0  3  0  0  0  0  0  0
  189.7150  177.1220  139.6430 C   0  0  0  0  0  0  0  0  0  0  0  0
  189.5040  176.4860  137.3080 C   0  0  0  0  0  3  0  0  0  0  0  0
  182.6260  178.8100  140.1560 C   0  0  1  0  0  3  0  0  0  0  0  0
  181.2280  178.5340  140.6250 C   0  0  0  0  0  0  0  0  0  0  0  0
  180.7610  177.4070  140.5710 O   0  0  0  0  0  0  0  0  0  0  0  0
  180.4310  179.6420  141.2260 C   0  0  0  0  0  2  0  0  0  0  0  0
  179.4050  180.0130  140.3590 O   0  0  0  0  0  1  0  0  0  0  0  0
  183.6980  178.0370  140.9140 C   0  0  0  0  0  2  0  0  0  0  0  0
  184.4870  178.9540  141.8340 C   0  0  0  0  0  2  0  0  0  0  0  0
  183.3450  178.6570  143.9550 C   0  0  0  0  0  2  0  0  0  0  0  0
  184.5740  178.3660  143.2290 C   0  0  2  0  0  3  0  0  0  0  0  0
  184.5490  179.4580  144.2130 N   0  0  0  0  0  2  0  0  0  0  0  0
  2  4  2  0  0  0  0
  2 13  1  0  0  0  0
  3  1  1  0  0  0  0
  3 16  1  0  0  0  0
  3 12  1  0  0  0  0
  4  6  1  0  0  0  0
  5  9  1  0  0  0  0
  5  4  1  0  0  0  0
  6 12  1  0  0  0  0
  6 10  2  0  0  0  0
  7 10  1  0  0  0  0
  8  9  1  0  0  0  0
  8 11  1  0  0  0  0
  9 11  1  0  0  0  0
  9  1  1  0  0  0  0
 12 28  1  1  0  0  0
 13  7  2  0  0  0  0
 14 15  1  0  0  0  0
 14 13  1  0  0  0  0
 16 19  1  6  0  0  0
 17 18  1  0  0  0  0
 18 16  1  0  0  0  0
 19 20  1  0  0  0  0
 20 22  1  0  0  0  0
 21 27  1  0  0  0  0
 21 22  2  0  0  0  0
 22 23  1  0  0  0  0
 25 26  1  0  0  0  0
 26 23  1  0  0  0  0
 26 24  2  0  0  0  0
 27 25  2  0  0  0  0
 28 29  1  0  0  0  0
 28 33  1  6  0  0  0
 29 31  1  0  0  0  0
 30 29  2  0  0  0  0
 32 31  1  0  0  0  0
 33 34  1  0  0  0  0
 35 37  1  0  0  0  0
 36 34  1  6  0  0  0
 36 35  1  0  0  0  0
 36 37  1  0  0  0  0
M  END
>  <MODEL>
8

>  <REMARK>
 VINA RESULT:      -5.3      3.113      6.379
  Name = 
  12 active torsions:
  status: ('A' for Active; 'I' for Inactive)
    1  A    between atoms: C_1  and  C_12
    2  A    between atoms: C_1  and  C_36
    3  A    between atoms: O_3  and  C_32
    4  A    between atoms: C_6  and  C_31
    5  A    between atoms: N_10  and  C_14
    6  A    between atoms: C_14  and  C_27
    7  A    between atoms: C_14  and  C_37
    8  A    between atoms: C_17  and  C_26
    9  A    between atoms: C_17  and  C_33
   10  A    between atoms: C_29  and  C_36
   11  A    between atoms: C_31  and  C_37
   12  A    between atoms: C_33  and  C_36
                            x       y       z     vdW  Elec       q    Type
                         _______ _______ _______ _____ _____    ______ ____

>  <TORSDO>
F 12

$$$$
=
 OpenBabel11052415273D

 37 41  0  0  1  0  0  0  0  0999 V2000
  182.4610  178.4740  141.6200 C   0  0  0  0  0  2  0  0  0  0  0  0
  185.5820  178.2700  138.3220 C   0  0  0  0  0  3  0  0  0  0  0  0
  181.7760  178.8980  140.4020 N   0  0  0  0  0  0  0  0  0  0  0  0
  184.4010  178.4490  139.0500 C   0  0  0  0  0  0  0  0  0  0  0  0
  184.4910  179.3790  140.2210 C   0  0  0  0  0  2  0  0  0  0  0  0
  183.1980  177.8290  138.6020 C   0  0  0  0  0  0  0  0  0  0  0  0
  184.4290  176.8970  136.7130 C   0  0  0  0  0  3  0  0  0  0  0  0
  184.5630  179.3040  142.7530 C   0  0  0  0  0  2  0  0  0  0  0  0
  183.9440  178.7540  141.4920 C   0  0  0  0  0  0  0  0  0  0  0  0
  183.2410  177.0670  137.4240 C   0  0  0  0  0  3  0  0  0  0  0  0
  184.8800  177.8850  142.2980 C   0  0  0  0  0  2  0  0  0  0  0  0
  181.8480  177.9090  139.2990 C   0  0  1  0  0  3  0  0  0  0  0  0
  185.6100  177.4940  137.1650 C   0  0  0  0  0  0  0  0  0  0  0  0
  186.8190  177.3400  136.4800 O   0  0  0  0  0  0  0  0  0  0  0  0
  187.6320  178.4420  136.1000 C   0  0  0  0  0  1  0  0  0  0  0  0
  180.4430  179.4540  140.6950 C   0  0  1  0  0  3  0  0  0  0  0  0
  179.6220  180.9900  142.3350 O   0  0  0  0  0  1  0  0  0  0  0  0
  180.2690  179.7640  142.1780 C   0  0  0  0  0  2  0  0  0  0  0  0
  180.0770  180.6480  139.8200 C   0  0  0  0  0  2  0  0  0  0  0  0
  181.3010  181.1910  139.0980 C   0  0  0  0  0  2  0  0  0  0  0  0
  180.9200  180.5160  136.8010 C   0  0  0  0  0  3  0  0  0  0  0  0
  181.0330  181.5320  137.6630 C   0  0  0  0  0  0  0  0  0  0  0  0
  180.8950  182.9730  137.2100 C   0  0  0  0  0  2  0  0  0  0  0  0
  180.4400  184.6190  135.1070 S   0  0  0  0  0  0  0  0  0  0  0  0
  180.5130  181.9510  134.8660 C   0  0  0  0  0  3  0  0  0  0  0  0
  180.6190  183.1250  135.7400 C   0  0  0  0  0  0  0  0  0  0  0  0
  180.6550  180.7260  135.3670 C   0  0  0  0  0  3  0  0  0  0  0  0
  181.2250  176.5080  139.5310 C   0  0  1  0  0  3  0  0  0  0  0  0
  179.7340  176.3740  139.4370 C   0  0  0  0  0  0  0  0  0  0  0  0
  179.1320  176.7660  138.4490 O   0  0  0  0  0  0  0  0  0  0  0  0
  178.9950  175.6920  140.5380 C   0  0  0  0  0  2  0  0  0  0  0  0
  179.2990  176.2920  141.7580 O   0  0  0  0  0  1  0  0  0  0  0  0
  181.9920  175.3350  138.9310 C   0  0  0  0  0  2  0  0  0  0  0  0
  181.0460  174.3260  138.3010 C   0  0  0  0  0  2  0  0  0  0  0  0
  180.7340  174.4830  135.8990 C   0  0  0  0  0  2  0  0  0  0  0  0
  181.5580  173.8880  136.9430 C   0  0  2  0  0  3  0  0  0  0  0  0
  180.5260  173.0790  136.2790 N   0  0  0  0  0  2  0  0  0  0  0  0
  2  4  1  0  0  0  0
  3 16  1  0  0  0  0
  3  1  1  0  0  0  0
  4  5  1  0  0  0  0
  5  9  1  0  0  0  0
  6  4  2  0  0  0  0
  6 12  1  0  0  0  0
  7 13  1  0  0  0  0
  7 10  2  0  0  0  0
  9  1  1  0  0  0  0
  9 11  1  0  0  0  0
  9  8  1  0  0  0  0
 10  6  1  0  0  0  0
 11  8  1  0  0  0  0
 12 28  1  1  0  0  0
 12  3  1  0  0  0  0
 13  2  2  0  0  0  0
 14 13  1  0  0  0  0
 15 14  1  0  0  0  0
 16 19  1  6  0  0  0
 16 18  1  0  0  0  0
 18 17  1  0  0  0  0
 20 19  1  0  0  0  0
 21 22  2  0  0  0  0
 22 20  1  0  0  0  0
 23 22  1  0  0  0  0
 24 26  2  0  0  0  0
 25 27  2  0  0  0  0
 25 26  1  0  0  0  0
 26 23  1  0  0  0  0
 27 21  1  0  0  0  0
 28 33  1  6  0  0  0
 29 28  1  0  0  0  0
 29 31  1  0  0  0  0
 30 29  2  0  0  0  0
 31 32  1  0  0  0  0
 34 33  1  0  0  0  0
 35 37  1  0  0  0  0
 35 36  1  0  0  0  0
 36 34  1  1  0  0  0
 37 36  1  0  0  0  0
M  END
>  <MODEL>
9

>  <REMARK>
 VINA RESULT:      -5.2      3.662      7.487
  Name = 
  12 active torsions:
  status: ('A' for Active; 'I' for Inactive)
    1  A    between atoms: C_1  and  C_12
    2  A    between atoms: C_1  and  C_36
    3  A    between atoms: O_3  and  C_32
    4  A    between atoms: C_6  and  C_31
    5  A    between atoms: N_10  and  C_14
    6  A    between atoms: C_14  and  C_27
    7  A    between atoms: C_14  and  C_37
    8  A    between atoms: C_17  and  C_26
    9  A    between atoms: C_17  and  C_33
   10  A    between atoms: C_29  and  C_36
   11  A    between atoms: C_31  and  C_37
   12  A    between atoms: C_33  and  C_36
                            x       y       z     vdW  Elec       q    Type
                         _______ _______ _______ _____ _____    ______ ____

>  <TORSDO>
F 12

$$$$
