=
 OpenBabel11052412173D

 30 35  0  0  1  0  0  0  0  0999 V2000
  185.9150  178.3740  142.8080 C   0  0  0  0  0  0  0  0  0  0  0  0
  185.4800  178.3550  145.3080 C   0  0  1  0  0  3  0  0  0  0  0  0
  189.6580  177.0600  143.2560 C   0  0  0  0  0  2  0  0  0  0  0  0
  186.6160  178.7750  141.6320 C   0  0  0  0  0  0  0  0  0  0  0  0
  184.5350  178.0820  142.6900 C   0  0  0  0  0  3  0  0  0  0  0  0
  183.5690  178.7300  138.8860 S   0  0  0  0  0  0  0  0  0  0  0  0
  184.5750  178.6290  140.3500 C   0  0  0  0  0  0  0  0  0  0  0  0
  182.5170  177.9680  141.2560 N   0  0  0  0  0  2  0  0  0  0  0  0
  189.8770  177.0630  141.7470 C   0  0  1  0  0  3  0  0  0  0  0  0
  183.8990  178.1940  141.4570 C   0  0  0  0  0  0  0  0  0  0  0  0
  185.9310  178.9110  140.4090 C   0  0  0  0  0  3  0  0  0  0  0  0
  186.0690  177.6370  146.4330 N   0  0  0  0  0  2  0  0  0  0  0  0
  181.0780  179.3630  139.8750 C   0  0  0  0  0  1  0  0  0  0  0  0
  184.9850  179.6500  145.7490 N   0  0  0  0  0  1  0  0  0  0  0  0
  188.2830  176.5290  143.6500 C   0  0  0  0  0  2  0  0  0  0  0  0
  187.2200  176.9020  145.9250 C   0  0  2  0  0  3  0  0  0  0  0  0
  182.0980  178.2410  139.8830 C   0  0  1  0  0  3  0  0  0  0  0  0
  186.5280  178.5050  144.2060 C   0  0  1  0  0  3  0  0  0  0  0  0
  188.1040  178.9000  141.5900 C   0  0  0  0  0  2  0  0  0  0  0  0
  190.1800  175.7710  141.3150 O   0  0  0  0  0  1  0  0  0  0  0  0
  188.6760  177.6200  140.9730 C   0  0  1  0  0  3  0  0  0  0  0  0
  188.4180  177.8360  145.8560 C   0  0  0  0  0  2  0  0  0  0  0  0
  187.6180  177.5130  144.6010 C   0  0  2  0  0  0  0  0  0  0  0  0
  188.1990  177.1560  137.3710 C   0  0  2  0  0  3  0  0  0  0  0  0
  188.9230  177.7770  139.4710 C   0  0  1  0  0  3  0  0  0  0  0  0
  190.4200  177.7650  139.1180 C   0  0  0  0  0  2  0  0  0  0  0  0
  189.6120  177.3030  136.7850 C   0  0  0  0  0  2  0  0  0  0  0  0
  190.6820  176.9910  137.8270 C   0  0  0  0  0  2  0  0  0  0  0  0
  187.3470  178.3870  137.0730 C   0  0  0  0  0  1  0  0  0  0  0  0
  188.1830  176.8110  138.7470 O   0  0  0  0  0  0  0  0  0  0  0  0
  2 14  1  1  0  0  0
  2 12  1  0  0  0  0
  3 15  1  0  0  0  0
  4  1  2  0  0  0  0
  5  1  1  0  0  0  0
  6 17  1  0  0  0  0
  6  7  1  0  0  0  0
  7 11  2  0  0  0  0
  7 10  1  0  0  0  0
  8 10  1  0  0  0  0
  9 20  1  6  0  0  0
  9  3  1  0  0  0  0
 10  5  2  0  0  0  0
 11  4  1  0  0  0  0
 16 22  1  1  0  0  0
 16 12  1  0  0  0  0
 17 13  1  1  0  0  0
 17  8  1  0  0  0  0
 18  1  1  6  0  0  0
 18 23  1  0  0  0  0
 18  2  1  0  0  0  0
 19  4  1  0  0  0  0
 21 19  1  1  0  0  0
 21  9  1  0  0  0  0
 23 15  1  6  0  0  0
 23 22  1  0  0  0  0
 23 16  1  0  0  0  0
 24 29  1  1  0  0  0
 24 30  1  0  0  0  0
 25 26  1  1  0  0  0
 25 21  1  0  0  0  0
 27 24  1  0  0  0  0
 27 28  1  0  0  0  0
 28 26  1  0  0  0  0
 30 25  1  0  0  0  0
M  END
>  <MODEL>
1

>  <REMARK>
 VINA RESULT:      -9.2      0.000      0.000
  Name = 
  1 active torsions:
  status: ('A' for Active; 'I' for Inactive)
    1  A    between atoms: C_10  and  C_25
                            x       y       z     vdW  Elec       q    Type
                         _______ _______ _______ _____ _____    ______ ____

>  <TORSDO>
F 1

$$$$
=
 OpenBabel11052412173D

 30 35  0  0  1  0  0  0  0  0999 V2000
  189.2780  177.2460  144.7050 C   0  0  0  0  0  0  0  0  0  0  0  0
  190.4740  176.9780  146.9270 C   0  0  1  0  0  3  0  0  0  0  0  0
  185.8700  178.3660  146.4570 C   0  0  0  0  0  2  0  0  0  0  0  0
  188.2420  176.9660  143.7650 C   0  0  0  0  0  0  0  0  0  0  0  0
  190.5530  177.5970  144.2010 C   0  0  0  0  0  3  0  0  0  0  0  0
  190.2760  177.4480  140.2350 S   0  0  0  0  0  0  0  0  0  0  0  0
  189.7800  177.3370  141.9400 C   0  0  0  0  0  0  0  0  0  0  0  0
  192.0210  177.9540  142.2370 N   0  0  0  0  0  2  0  0  0  0  0  0
  185.1900  178.5370  145.1030 C   0  0  1  0  0  3  0  0  0  0  0  0
  190.7700  177.6580  142.8270 C   0  0  0  0  0  0  0  0  0  0  0  0
  188.5090  177.0020  142.3820 C   0  0  0  0  0  3  0  0  0  0  0  0
  190.2700  177.5330  148.2600 N   0  0  0  0  0  2  0  0  0  0  0  0
  192.9480  176.7870  140.3120 C   0  0  0  0  0  1  0  0  0  0  0  0
  191.0760  175.6570  147.0260 N   0  0  0  0  0  1  0  0  0  0  0  0
  187.3020  178.8920  146.4670 C   0  0  0  0  0  2  0  0  0  0  0  0
  189.0220  178.2840  148.2320 C   0  0  2  0  0  3  0  0  0  0  0  0
  191.9870  177.8640  140.7790 C   0  0  1  0  0  3  0  0  0  0  0  0
  189.1330  176.9250  146.1960 C   0  0  1  0  0  3  0  0  0  0  0  0
  186.8150  176.7960  144.1720 C   0  0  0  0  0  2  0  0  0  0  0  0
  184.7720  179.8600  144.9530 O   0  0  0  0  0  1  0  0  0  0  0  0
  186.0850  178.1200  143.9310 C   0  0  1  0  0  3  0  0  0  0  0  0
  187.8580  177.3240  148.4230 C   0  0  0  0  0  2  0  0  0  0  0  0
  188.2260  177.8240  147.0320 C   0  0  2  0  0  0  0  0  0  0  0  0
  185.2580  179.2010  140.5300 C   0  0  2  0  0  3  0  0  0  0  0  0
  185.3790  178.1380  142.5720 C   0  0  1  0  0  3  0  0  0  0  0  0
  183.8670  177.8820  142.6940 C   0  0  0  0  0  2  0  0  0  0  0  0
  183.7710  178.8440  140.3750 C   0  0  0  0  0  2  0  0  0  0  0  0
  183.0740  178.7640  141.7310 C   0  0  0  0  0  2  0  0  0  0  0  0
  186.1410  178.2390  139.7420 C   0  0  0  0  0  1  0  0  0  0  0  0
  185.6780  179.3350  141.8790 O   0  0  0  0  0  0  0  0  0  0  0  0
  2 14  1  1  0  0  0
  2 12  1  0  0  0  0
  3 15  1  0  0  0  0
  4 19  1  0  0  0  0
  4  1  2  0  0  0  0
  5  1  1  0  0  0  0
  6 17  1  0  0  0  0
  6  7  1  0  0  0  0
  7 11  2  0  0  0  0
  7 10  1  0  0  0  0
  8 10  1  0  0  0  0
  9 20  1  6  0  0  0
  9  3  1  0  0  0  0
 10  5  2  0  0  0  0
 11  4  1  0  0  0  0
 16 12  1  0  0  0  0
 16 22  1  1  0  0  0
 17 13  1  1  0  0  0
 17  8  1  0  0  0  0
 18  1  1  6  0  0  0
 18  2  1  0  0  0  0
 18 23  1  0  0  0  0
 21 19  1  1  0  0  0
 21  9  1  0  0  0  0
 23 15  1  6  0  0  0
 23 16  1  0  0  0  0
 23 22  1  0  0  0  0
 24 29  1  1  0  0  0
 24 30  1  0  0  0  0
 25 26  1  1  0  0  0
 25 21  1  0  0  0  0
 27 24  1  0  0  0  0
 27 28  1  0  0  0  0
 28 26  1  0  0  0  0
 30 25  1  0  0  0  0
M  END
>  <MODEL>
2

>  <REMARK>
 VINA RESULT:      -9.0      3.427      6.083
  Name = 
  1 active torsions:
  status: ('A' for Active; 'I' for Inactive)
    1  A    between atoms: C_10  and  C_25
                            x       y       z     vdW  Elec       q    Type
                         _______ _______ _______ _____ _____    ______ ____

>  <TORSDO>
F 1

$$$$
=
 OpenBabel11052412173D

 30 35  0  0  1  0  0  0  0  0999 V2000
  189.3830  177.0080  143.8220 C   0  0  0  0  0  0  0  0  0  0  0  0
  191.5120  176.4010  145.0630 C   0  0  1  0  0  3  0  0  0  0  0  0
  187.4320  177.8680  147.1980 C   0  0  0  0  0  2  0  0  0  0  0  0
  187.9950  176.8780  143.5180 C   0  0  0  0  0  0  0  0  0  0  0  0
  190.2520  177.4250  142.7860 C   0  0  0  0  0  3  0  0  0  0  0  0
  187.9970  177.8780  139.5400 S   0  0  0  0  0  0  0  0  0  0  0  0
  188.4240  177.5130  141.2270 C   0  0  0  0  0  0  0  0  0  0  0  0
  190.5490  178.0670  140.4110 N   0  0  0  0  0  2  0  0  0  0  0  0
  186.1780  178.2450  146.4170 C   0  0  1  0  0  3  0  0  0  0  0  0
  189.7490  177.6910  141.5150 C   0  0  0  0  0  0  0  0  0  0  0  0
  187.5290  177.1220  142.2110 C   0  0  0  0  0  3  0  0  0  0  0  0
  192.0560  176.7500  146.3700 N   0  0  0  0  0  2  0  0  0  0  0  0
  190.2770  177.1990  138.1520 C   0  0  0  0  0  1  0  0  0  0  0  0
  191.9710  175.0770  144.6700 N   0  0  0  0  0  1  0  0  0  0  0  0
  188.7110  178.3790  146.5400 C   0  0  0  0  0  2  0  0  0  0  0  0
  191.0300  177.5030  147.0810 C   0  0  2  0  0  3  0  0  0  0  0  0
  189.7760  178.1980  139.1780 C   0  0  1  0  0  3  0  0  0  0  0  0
  189.9860  176.4670  145.1220 C   0  0  1  0  0  3  0  0  0  0  0  0
  186.9610  176.6560  144.5730 C   0  0  0  0  0  2  0  0  0  0  0  0
  185.8510  179.5780  146.6720 O   0  0  0  0  0  1  0  0  0  0  0  0
  186.3200  178.0050  144.9100 C   0  0  1  0  0  3  0  0  0  0  0  0
  190.0490  176.5310  147.7170 C   0  0  0  0  0  2  0  0  0  0  0  0
  189.7030  177.2330  146.4110 C   0  0  2  0  0  0  0  0  0  0  0  0
  184.0770  179.3780  142.3600 C   0  0  2  0  0  3  0  0  0  0  0  0
  185.0290  178.2310  144.1200 C   0  0  1  0  0  3  0  0  0  0  0  0
  183.7900  178.3060  145.0290 C   0  0  0  0  0  2  0  0  0  0  0  0
  182.6940  179.3600  143.0300 C   0  0  0  0  0  2  0  0  0  0  0  0
  182.8120  179.3780  144.5520 C   0  0  0  0  0  2  0  0  0  0  0  0
  184.1960  178.2790  141.3080 C   0  0  0  0  0  1  0  0  0  0  0  0
  185.1580  179.3620  143.2790 O   0  0  0  0  0  0  0  0  0  0  0  0
  2 14  1  1  0  0  0
  2 18  1  0  0  0  0
  2 12  1  0  0  0  0
  4  1  1  0  0  0  0
  4 19  1  0  0  0  0
  5  1  2  0  0  0  0
  6  7  1  0  0  0  0
  7 10  2  0  0  0  0
  7 11  1  0  0  0  0
  8 10  1  0  0  0  0
  9 20  1  6  0  0  0
  9  3  1  0  0  0  0
 10  5  1  0  0  0  0
 11  4  2  0  0  0  0
 12 16  1  0  0  0  0
 15  3  1  0  0  0  0
 16 22  1  1  0  0  0
 17 13  1  6  0  0  0
 17  6  1  0  0  0  0
 17  8  1  0  0  0  0
 18  1  1  6  0  0  0
 18 23  1  0  0  0  0
 21 19  1  1  0  0  0
 21  9  1  0  0  0  0
 23 15  1  1  0  0  0
 23 16  1  0  0  0  0
 23 22  1  0  0  0  0
 24 29  1  6  0  0  0
 24 27  1  0  0  0  0
 24 30  1  0  0  0  0
 25 21  1  0  0  0  0
 25 26  1  1  0  0  0
 27 28  1  0  0  0  0
 28 26  1  0  0  0  0
 30 25  1  0  0  0  0
M  END
>  <MODEL>
3

>  <REMARK>
 VINA RESULT:      -9.0      3.272      6.194
  Name = 
  1 active torsions:
  status: ('A' for Active; 'I' for Inactive)
    1  A    between atoms: C_10  and  C_25
                            x       y       z     vdW  Elec       q    Type
                         _______ _______ _______ _____ _____    ______ ____

>  <TORSDO>
F 1

$$$$
=
 OpenBabel11052412173D

 30 35  0  0  1  0  0  0  0  0999 V2000
  187.3240  177.8630  141.4010 C   0  0  0  0  0  0  0  0  0  0  0  0
  187.0590  178.2300  138.9030 C   0  0  1  0  0  3  0  0  0  0  0  0
  191.2660  177.3080  141.0950 C   0  0  0  0  0  2  0  0  0  0  0  0
  187.7060  177.1130  142.5520 C   0  0  0  0  0  0  0  0  0  0  0  0
  186.2330  178.7550  141.5230 C   0  0  0  0  0  3  0  0  0  0  0  0
  184.9080  178.4080  145.2580 S   0  0  0  0  0  0  0  0  0  0  0  0
  185.9100  178.1160  143.8180 C   0  0  0  0  0  0  0  0  0  0  0  0
  184.4360  179.7100  142.9370 N   0  0  0  0  0  2  0  0  0  0  0  0
  191.3910  177.1140  142.6020 C   0  0  1  0  0  3  0  0  0  0  0  0
  185.5630  178.8800  142.7370 C   0  0  0  0  0  0  0  0  0  0  0  0
  186.9820  177.2390  143.7540 C   0  0  0  0  0  3  0  0  0  0  0  0
  187.9630  178.6550  137.8410 N   0  0  0  0  0  2  0  0  0  0  0  0
  182.4540  179.0670  144.1960 C   0  0  0  0  0  1  0  0  0  0  0  0
  186.0400  177.3420  138.3630 N   0  0  0  0  0  1  0  0  0  0  0  0
  190.3120  178.4400  140.7240 C   0  0  0  0  0  2  0  0  0  0  0  0
  189.2990  178.7390  138.4150 C   0  0  2  0  0  3  0  0  0  0  0  0
  183.8780  179.5830  144.2820 C   0  0  1  0  0  3  0  0  0  0  0  0
  187.8680  177.5440  140.0040 C   0  0  1  0  0  3  0  0  0  0  0  0
  188.9630  176.3080  142.6030 C   0  0  0  0  0  2  0  0  0  0  0  0
  192.2390  178.0890  143.1310 O   0  0  0  0  0  1  0  0  0  0  0  0
  190.0360  177.1360  143.3180 C   0  0  1  0  0  3  0  0  0  0  0  0
  189.9240  177.3530  138.4300 C   0  0  0  0  0  2  0  0  0  0  0  0
  189.3100  177.9360  139.6950 C   0  0  2  0  0  0  0  0  0  0  0  0
  189.8200  177.6120  146.9440 C   0  0  2  0  0  3  0  0  0  0  0  0
  190.1150  176.7940  144.8080 C   0  0  1  0  0  3  0  0  0  0  0  0
  191.3470  175.9380  145.1490 C   0  0  0  0  0  2  0  0  0  0  0  0
  190.8870  176.6630  147.5100 C   0  0  0  0  0  2  0  0  0  0  0  0
  191.9710  176.3640  146.4770 C   0  0  0  0  0  2  0  0  0  0  0  0
  188.4140  177.0690  147.1820 C   0  0  0  0  0  1  0  0  0  0  0  0
  190.0340  177.9720  145.5880 O   0  0  0  0  0  0  0  0  0  0  0  0
  1  5  2  0  0  0  0
  1  4  1  0  0  0  0
  2 14  1  6  0  0  0
  2 18  1  0  0  0  0
  3  9  1  0  0  0  0
  4 19  1  0  0  0  0
  4 11  2  0  0  0  0
  5 10  1  0  0  0  0
  7  6  1  0  0  0  0
  8 17  1  0  0  0  0
  9 20  1  1  0  0  0
  9 21  1  0  0  0  0
 10  8  1  0  0  0  0
 10  7  2  0  0  0  0
 11  7  1  0  0  0  0
 12 16  1  0  0  0  0
 12  2  1  0  0  0  0
 15  3  1  0  0  0  0
 16 22  1  6  0  0  0
 16 23  1  0  0  0  0
 17 13  1  6  0  0  0
 17  6  1  0  0  0  0
 18  1  1  1  0  0  0
 21 19  1  6  0  0  0
 21 25  1  0  0  0  0
 23 22  1  6  0  0  0
 23 18  1  0  0  0  0
 23 15  1  0  0  0  0
 24 29  1  6  0  0  0
 24 27  1  0  0  0  0
 25 26  1  6  0  0  0
 25 30  1  0  0  0  0
 26 28  1  0  0  0  0
 28 27  1  0  0  0  0
 30 24  1  0  0  0  0
M  END
>  <MODEL>
4

>  <REMARK>
 VINA RESULT:      -8.6      2.755      5.970
  Name = 
  1 active torsions:
  status: ('A' for Active; 'I' for Inactive)
    1  A    between atoms: C_10  and  C_25
                            x       y       z     vdW  Elec       q    Type
                         _______ _______ _______ _____ _____    ______ ____

>  <TORSDO>
F 1

$$$$
=
 OpenBabel11052412173D

 30 35  0  0  1  0  0  0  0  0999 V2000
  188.1260  177.4230  141.1830 C   0  0  0  0  0  0  0  0  0  0  0  0
  188.7070  177.3280  138.7140 C   0  0  1  0  0  3  0  0  0  0  0  0
  191.9430  177.0500  142.2920 C   0  0  0  0  0  2  0  0  0  0  0  0
  188.1010  176.9100  142.5140 C   0  0  0  0  0  0  0  0  0  0  0  0
  187.0590  178.2580  140.7740 C   0  0  0  0  0  3  0  0  0  0  0  0
  184.5680  178.4990  143.8670 S   0  0  0  0  0  0  0  0  0  0  0  0
  185.9900  178.0160  142.9140 C   0  0  0  0  0  0  0  0  0  0  0  0
  184.8990  179.3430  141.3200 N   0  0  0  0  0  2  0  0  0  0  0  0
  191.5590  177.1320  143.7650 C   0  0  1  0  0  3  0  0  0  0  0  0
  186.0250  178.5560  141.6580 C   0  0  0  0  0  0  0  0  0  0  0  0
  187.0190  177.2050  143.3680 C   0  0  0  0  0  3  0  0  0  0  0  0
  189.9140  177.6110  137.9470 N   0  0  0  0  0  2  0  0  0  0  0  0
  182.6090  178.8180  141.9580 C   0  0  0  0  0  1  0  0  0  0  0  0
  187.9210  176.3020  138.0450 N   0  0  0  0  0  1  0  0  0  0  0  0
  191.1710  178.0420  141.4260 C   0  0  0  0  0  2  0  0  0  0  0  0
  190.9840  177.8720  138.9010 C   0  0  2  0  0  3  0  0  0  0  0  0
  183.9260  179.4230  142.4070 C   0  0  1  0  0  3  0  0  0  0  0  0
  189.1010  176.8950  140.1260 C   0  0  1  0  0  3  0  0  0  0  0  0
  189.2660  176.2010  143.1220 C   0  0  0  0  0  2  0  0  0  0  0  0
  192.1880  178.2320  144.3520 O   0  0  0  0  0  1  0  0  0  0  0  0
  190.0430  177.2020  143.9820 C   0  0  1  0  0  3  0  0  0  0  0  0
  191.5630  176.5470  139.3750 C   0  0  0  0  0  2  0  0  0  0  0  0
  190.5650  177.3080  140.2390 C   0  0  2  0  0  0  0  0  0  0  0  0
  188.5720  178.2680  147.1630 C   0  0  2  0  0  3  0  0  0  0  0  0
  189.6220  177.1330  145.4520 C   0  0  1  0  0  3  0  0  0  0  0  0
  190.7010  176.4930  146.3420 C   0  0  0  0  0  2  0  0  0  0  0  0
  189.4240  177.5570  148.2260 C   0  0  0  0  0  2  0  0  0  0  0  0
  190.8090  177.2090  147.6880 C   0  0  0  0  0  2  0  0  0  0  0  0
  187.1970  177.6190  147.0300 C   0  0  0  0  0  1  0  0  0  0  0  0
  189.2220  178.4110  145.9090 O   0  0  0  0  0  0  0  0  0  0  0  0
  1  4  1  0  0  0  0
  2 14  1  6  0  0  0
  2 18  1  0  0  0  0
  3  9  1  0  0  0  0
  4 19  1  0  0  0  0
  4 11  2  0  0  0  0
  5  1  2  0  0  0  0
  5 10  1  0  0  0  0
  7 11  1  0  0  0  0
  7  6  1  0  0  0  0
  8 10  1  0  0  0  0
  8 17  1  0  0  0  0
  9 21  1  0  0  0  0
  9 20  1  6  0  0  0
 10  7  2  0  0  0  0
 12  2  1  0  0  0  0
 12 16  1  0  0  0  0
 15  3  1  0  0  0  0
 16 22  1  6  0  0  0
 16 23  1  0  0  0  0
 17 13  1  6  0  0  0
 17  6  1  0  0  0  0
 18 23  1  0  0  0  0
 18  1  1  1  0  0  0
 21 19  1  6  0  0  0
 21 25  1  0  0  0  0
 23 22  1  1  0  0  0
 23 15  1  0  0  0  0
 24 29  1  6  0  0  0
 24 27  1  0  0  0  0
 25 30  1  0  0  0  0
 25 26  1  1  0  0  0
 26 28  1  0  0  0  0
 28 27  1  0  0  0  0
 30 24  1  0  0  0  0
M  END
>  <MODEL>
5

>  <REMARK>
 VINA RESULT:      -8.3      2.879      6.154
  Name = 
  1 active torsions:
  status: ('A' for Active; 'I' for Inactive)
    1  A    between atoms: C_10  and  C_25
                            x       y       z     vdW  Elec       q    Type
                         _______ _______ _______ _____ _____    ______ ____

>  <TORSDO>
F 1

$$$$
=
 OpenBabel11052412173D

 30 35  0  0  1  0  0  0  0  0999 V2000
  185.0050  178.5410  142.0170 C   0  0  0  0  0  0  0  0  0  0  0  0
  183.7170  178.9240  144.1700 C   0  0  1  0  0  3  0  0  0  0  0  0
  188.4120  177.7970  143.9620 C   0  0  0  0  0  2  0  0  0  0  0  0
  186.0550  178.8040  141.0870 C   0  0  0  0  0  0  0  0  0  0  0  0
  183.7730  178.0670  141.5090 C   0  0  0  0  0  3  0  0  0  0  0  0
  184.1800  177.8880  137.5550 S   0  0  0  0  0  0  0  0  0  0  0  0
  184.6070  178.1790  139.2570 C   0  0  0  0  0  0  0  0  0  0  0  0
  182.3990  177.4480  139.5410 N   0  0  0  0  0  2  0  0  0  0  0  0
  189.1480  177.5530  142.6500 C   0  0  1  0  0  3  0  0  0  0  0  0
  183.6080  177.8730  140.1400 C   0  0  0  0  0  0  0  0  0  0  0  0
  185.8390  178.6310  139.7060 C   0  0  0  0  0  3  0  0  0  0  0  0
  183.9080  178.5010  145.5530 N   0  0  0  0  0  2  0  0  0  0  0  0
  181.4710  178.3820  137.4940 C   0  0  0  0  0  1  0  0  0  0  0  0
  183.0330  180.2080  144.1330 N   0  0  0  0  0  1  0  0  0  0  0  0
  187.0140  177.1830  143.9770 C   0  0  0  0  0  2  0  0  0  0  0  0
  185.1990  177.8310  145.6280 C   0  0  2  0  0  3  0  0  0  0  0  0
  182.4790  177.4130  138.0830 C   0  0  1  0  0  3  0  0  0  0  0  0
  185.0770  178.9980  143.4780 C   0  0  1  0  0  3  0  0  0  0  0  0
  187.4530  179.1000  141.5200 C   0  0  0  0  0  2  0  0  0  0  0  0
  189.6500  176.2510  142.6300 O   0  0  0  0  0  1  0  0  0  0  0  0
  188.2710  177.8090  141.4190 C   0  0  1  0  0  3  0  0  0  0  0  0
  186.2950  178.8770  145.7680 C   0  0  0  0  0  2  0  0  0  0  0  0
  186.0070  178.2360  144.4170 C   0  0  2  0  0  0  0  0  0  0  0  0
  188.9580  176.8740  137.9440 C   0  0  2  0  0  3  0  0  0  0  0  0
  189.0240  177.7180  140.0890 C   0  0  1  0  0  3  0  0  0  0  0  0
  190.5350  177.5030  140.2840 C   0  0  0  0  0  2  0  0  0  0  0  0
  190.4910  176.7900  137.8760 C   0  0  0  0  0  2  0  0  0  0  0  0
  191.0950  176.5260  139.2530 C   0  0  0  0  0  2  0  0  0  0  0  0
  188.4420  178.1280  137.2440 C   0  0  0  0  0  1  0  0  0  0  0  0
  188.4340  176.7370  139.2560 O   0  0  0  0  0  0  0  0  0  0  0  0
  2 14  1  1  0  0  0
  2 12  1  0  0  0  0
  3 15  1  0  0  0  0
  4 19  1  0  0  0  0
  4  1  2  0  0  0  0
  5  1  1  0  0  0  0
  6 17  1  0  0  0  0
  6  7  1  0  0  0  0
  7 11  2  0  0  0  0
  7 10  1  0  0  0  0
  8 10  1  0  0  0  0
  9 20  1  1  0  0  0
  9  3  1  0  0  0  0
 10  5  2  0  0  0  0
 11  4  1  0  0  0  0
 12 16  1  0  0  0  0
 16 22  1  1  0  0  0
 17 13  1  6  0  0  0
 17  8  1  0  0  0  0
 18  1  1  6  0  0  0
 18  2  1  0  0  0  0
 18 23  1  0  0  0  0
 21 19  1  1  0  0  0
 21  9  1  0  0  0  0
 23 15  1  6  0  0  0
 23 16  1  0  0  0  0
 23 22  1  0  0  0  0
 24 29  1  1  0  0  0
 24 30  1  0  0  0  0
 25 26  1  1  0  0  0
 25 21  1  0  0  0  0
 27 24  1  0  0  0  0
 27 28  1  0  0  0  0
 28 26  1  0  0  0  0
 30 25  1  0  0  0  0
M  END
>  <MODEL>
6

>  <REMARK>
 VINA RESULT:      -8.0      1.316      1.610
  Name = 
  1 active torsions:
  status: ('A' for Active; 'I' for Inactive)
    1  A    between atoms: C_10  and  C_25
                            x       y       z     vdW  Elec       q    Type
                         _______ _______ _______ _____ _____    ______ ____

>  <TORSDO>
F 1

$$$$
=
 OpenBabel11052412173D

 30 35  0  0  1  0  0  0  0  0999 V2000
  188.5470  178.1980  142.0060 C   0  0  0  0  0  0  0  0  0  0  0  0
  190.4440  178.1000  143.6890 C   0  0  1  0  0  3  0  0  0  0  0  0
  190.8380  176.7930  139.0530 C   0  0  0  0  0  2  0  0  0  0  0  0
  187.9310  178.6270  140.7930 C   0  0  0  0  0  0  0  0  0  0  0  0
  187.7110  177.9400  143.1180 C   0  0  0  0  0  3  0  0  0  0  0  0
  183.9950  178.7400  141.9440 S   0  0  0  0  0  0  0  0  0  0  0  0
  185.7640  178.5670  141.8570 C   0  0  0  0  0  0  0  0  0  0  0  0
  185.4290  177.9170  144.0830 N   0  0  0  0  0  2  0  0  0  0  0  0
  189.6690  176.8460  138.0750 C   0  0  1  0  0  3  0  0  0  0  0  0
  186.3330  178.1070  143.0120 C   0  0  0  0  0  0  0  0  0  0  0  0
  186.5370  178.8200  140.7340 C   0  0  0  0  0  3  0  0  0  0  0  0
  191.6800  177.3320  143.7770 N   0  0  0  0  0  2  0  0  0  0  0  0
  183.5550  179.3890  144.5840 C   0  0  0  0  0  1  0  0  0  0  0  0
  190.6120  179.3890  144.3440 N   0  0  0  0  0  1  0  0  0  0  0  0
  190.4300  176.2770  140.4310 C   0  0  0  0  0  2  0  0  0  0  0  0
  191.8220  176.5910  142.5300 C   0  0  2  0  0  3  0  0  0  0  0  0
  184.0520  178.2460  143.7190 C   0  0  1  0  0  3  0  0  0  0  0  0
  190.0630  178.2680  142.2190 C   0  0  1  0  0  3  0  0  0  0  0  0
  188.6800  178.7220  139.5040 C   0  0  0  0  0  2  0  0  0  0  0  0
  189.4090  175.5640  137.5890 O   0  0  0  0  0  1  0  0  0  0  0  0
  188.4050  177.4540  138.6920 C   0  0  1  0  0  3  0  0  0  0  0  0
  192.4300  177.5030  141.4750 C   0  0  0  0  0  2  0  0  0  0  0  0
  190.9300  177.2410  141.4970 C   0  0  2  0  0  0  0  0  0  0  0  0
  185.3310  176.7400  136.8310 C   0  0  2  0  0  3  0  0  0  0  0  0
  187.2630  177.6580  137.6930 C   0  0  1  0  0  3  0  0  0  0  0  0
  187.7490  178.2530  136.3600 C   0  0  0  0  0  2  0  0  0  0  0  0
  185.5420  177.4380  135.4790 C   0  0  0  0  0  2  0  0  0  0  0  0
  187.0260  177.6200  135.1720 C   0  0  0  0  0  2  0  0  0  0  0  0
  184.3340  177.5030  137.6980 C   0  0  0  0  0  1  0  0  0  0  0  0
  186.5370  176.4550  137.5230 O   0  0  0  0  0  0  0  0  0  0  0  0
  1  5  1  0  0  0  0
  2 12  1  0  0  0  0
  2 14  1  6  0  0  0
  3 15  1  0  0  0  0
  4  1  2  0  0  0  0
  6 17  1  0  0  0  0
  7  6  1  0  0  0  0
  7 10  1  0  0  0  0
  9 20  1  1  0  0  0
  9 21  1  0  0  0  0
  9  3  1  0  0  0  0
 10  5  2  0  0  0  0
 10  8  1  0  0  0  0
 11  4  1  0  0  0  0
 11  7  2  0  0  0  0
 16 22  1  6  0  0  0
 16 12  1  0  0  0  0
 17  8  1  0  0  0  0
 17 13  1  1  0  0  0
 18  1  1  1  0  0  0
 18  2  1  0  0  0  0
 19  4  1  0  0  0  0
 21 19  1  6  0  0  0
 22 23  1  0  0  0  0
 23 15  1  6  0  0  0
 23 18  1  0  0  0  0
 23 16  1  0  0  0  0
 24 30  1  0  0  0  0
 24 29  1  1  0  0  0
 25 26  1  6  0  0  0
 25 21  1  0  0  0  0
 27 24  1  0  0  0  0
 28 27  1  0  0  0  0
 28 26  1  0  0  0  0
 30 25  1  0  0  0  0
M  END
>  <MODEL>
7

>  <REMARK>
 VINA RESULT:      -7.9      2.266      3.943
  Name = 
  1 active torsions:
  status: ('A' for Active; 'I' for Inactive)
    1  A    between atoms: C_10  and  C_25
                            x       y       z     vdW  Elec       q    Type
                         _______ _______ _______ _____ _____    ______ ____

>  <TORSDO>
F 1

$$$$
=
 OpenBabel11052412173D

 30 35  0  0  1  0  0  0  0  0999 V2000
  187.3710  178.2490  144.4550 C   0  0  0  0  0  0  0  0  0  0  0  0
  186.6320  178.2860  146.8830 C   0  0  1  0  0  3  0  0  0  0  0  0
  191.0040  176.8750  145.3820 C   0  0  0  0  0  2  0  0  0  0  0  0
  188.2190  178.6140  143.3680 C   0  0  0  0  0  0  0  0  0  0  0  0
  186.0110  177.9810  144.1730 C   0  0  0  0  0  3  0  0  0  0  0  0
  185.5320  178.5720  140.2680 S   0  0  0  0  0  0  0  0  0  0  0  0
  186.3480  178.4810  141.8460 C   0  0  0  0  0  0  0  0  0  0  0  0
  184.1820  177.8760  142.5040 N   0  0  0  0  0  2  0  0  0  0  0  0
  191.4050  176.8460  143.9120 C   0  0  1  0  0  3  0  0  0  0  0  0
  185.5330  178.0800  142.8690 C   0  0  0  0  0  0  0  0  0  0  0  0
  187.6920  178.7390  142.0670 C   0  0  0  0  0  3  0  0  0  0  0  0
  187.0650  177.5810  148.0830 N   0  0  0  0  0  2  0  0  0  0  0  0
  182.9520  179.2690  140.9330 C   0  0  0  0  0  1  0  0  0  0  0  0
  186.1130  179.5990  147.2370 N   0  0  0  0  0  1  0  0  0  0  0  0
  189.5790  176.3780  145.6130 C   0  0  0  0  0  2  0  0  0  0  0  0
  188.2530  176.8140  147.7330 C   0  0  2  0  0  3  0  0  0  0  0  0
  183.9400  178.1290  141.0860 C   0  0  1  0  0  3  0  0  0  0  0  0
  187.8100  178.3960  145.9160 C   0  0  1  0  0  3  0  0  0  0  0  0
  189.7030  178.7110  143.5060 C   0  0  0  0  0  2  0  0  0  0  0  0
  191.7330  175.5400  143.5420 O   0  0  0  0  0  1  0  0  0  0  0  0
  190.3200  177.4090  142.9870 C   0  0  1  0  0  3  0  0  0  0  0  0
  189.4700  177.7250  147.7970 C   0  0  0  0  0  2  0  0  0  0  0  0
  188.8230  177.3920  146.4590 C   0  0  2  0  0  0  0  0  0  0  0  0
  190.5360  176.6230  139.4160 C   0  0  2  0  0  3  0  0  0  0  0  0
  190.7530  177.5320  141.5240 C   0  0  1  0  0  3  0  0  0  0  0  0
  192.2450  177.8780  141.3800 C   0  0  0  0  0  2  0  0  0  0  0  0
  191.9450  177.0870  139.0150 C   0  0  0  0  0  2  0  0  0  0  0  0
  192.8830  177.1190  140.2180 C   0  0  0  0  0  2  0  0  0  0  0  0
  189.4690  177.5770  138.8870 C   0  0  0  0  0  1  0  0  0  0  0  0
  190.3890  176.3690  140.8040 O   0  0  0  0  0  0  0  0  0  0  0  0
  2 14  1  1  0  0  0
  2 12  1  0  0  0  0
  3 15  1  0  0  0  0
  4 19  1  0  0  0  0
  4  1  2  0  0  0  0
  5  1  1  0  0  0  0
  6 17  1  0  0  0  0
  6  7  1  0  0  0  0
  7 11  2  0  0  0  0
  7 10  1  0  0  0  0
  8 10  1  0  0  0  0
  9 20  1  6  0  0  0
  9  3  1  0  0  0  0
 10  5  2  0  0  0  0
 11  4  1  0  0  0  0
 16 22  1  1  0  0  0
 16 12  1  0  0  0  0
 17 13  1  1  0  0  0
 17  8  1  0  0  0  0
 18  1  1  6  0  0  0
 18 23  1  0  0  0  0
 18  2  1  0  0  0  0
 21 19  1  1  0  0  0
 21  9  1  0  0  0  0
 23 15  1  6  0  0  0
 23 16  1  0  0  0  0
 23 22  1  0  0  0  0
 24 29  1  1  0  0  0
 24 30  1  0  0  0  0
 25 26  1  1  0  0  0
 25 21  1  0  0  0  0
 27 24  1  0  0  0  0
 27 28  1  0  0  0  0
 28 26  1  0  0  0  0
 30 25  1  0  0  0  0
M  END
>  <MODEL>
8

>  <REMARK>
 VINA RESULT:      -7.7      1.670      2.480
  Name = 
  1 active torsions:
  status: ('A' for Active; 'I' for Inactive)
    1  A    between atoms: C_10  and  C_25
                            x       y       z     vdW  Elec       q    Type
                         _______ _______ _______ _____ _____    ______ ____

>  <TORSDO>
F 1

$$$$
=
 OpenBabel11052412173D

 30 35  0  0  1  0  0  0  0  0999 V2000
  186.3040  178.4950  140.2710 C   0  0  0  0  0  0  0  0  0  0  0  0
  183.9210  179.1170  139.6600 C   0  0  1  0  0  3  0  0  0  0  0  0
  185.4470  178.2530  144.1620 C   0  0  0  0  0  2  0  0  0  0  0  0
  187.5410  178.6790  140.9580 C   0  0  0  0  0  0  0  0  0  0  0  0
  186.3390  177.8780  138.9980 C   0  0  0  0  0  3  0  0  0  0  0  0
  190.1680  177.1380  138.2100 S   0  0  0  0  0  0  0  0  0  0  0  0
  188.7340  177.7040  139.0990 C   0  0  0  0  0  0  0  0  0  0  0  0
  187.6860  176.8930  137.1660 N   0  0  0  0  0  2  0  0  0  0  0  0
  186.8830  177.8610  144.4900 C   0  0  1  0  0  3  0  0  0  0  0  0
  187.5530  177.4740  138.4490 C   0  0  0  0  0  0  0  0  0  0  0  0
  188.7530  178.2900  140.3550 C   0  0  0  0  0  3  0  0  0  0  0  0
  182.6260  178.9160  140.3000 N   0  0  0  0  0  2  0  0  0  0  0  0
  189.4390  177.4550  135.5730 C   0  0  0  0  0  1  0  0  0  0  0  0
  183.8990  180.3370  138.8680 N   0  0  0  0  0  1  0  0  0  0  0  0
  184.9210  177.5660  142.9050 C   0  0  0  0  0  2  0  0  0  0  0  0
  182.8770  178.3430  141.6160 C   0  0  2  0  0  3  0  0  0  0  0  0
  189.0810  176.6460  136.8050 C   0  0  1  0  0  3  0  0  0  0  0  0
  185.0070  179.1680  140.7320 C   0  0  1  0  0  3  0  0  0  0  0  0
  187.6070  179.1180  142.3840 C   0  0  0  0  0  2  0  0  0  0  0  0
  186.8990  176.6020  145.0930 O   0  0  0  0  0  1  0  0  0  0  0  0
  187.7990  177.8780  143.2610 C   0  0  1  0  0  3  0  0  0  0  0  0
  183.2170  179.4610  142.5900 C   0  0  0  0  0  2  0  0  0  0  0  0
  184.3200  178.6100  141.9760 C   0  0  2  0  0  0  0  0  0  0  0  0
  191.0730  176.2350  143.2290 C   0  0  2  0  0  3  0  0  0  0  0  0
  189.2760  177.6360  143.5830 C   0  0  1  0  0  3  0  0  0  0  0  0
  189.6120  177.9350  145.0540 C   0  0  0  0  0  2  0  0  0  0  0  0
  191.6810  176.5850  144.5970 C   0  0  0  0  0  2  0  0  0  0  0  0
  190.5960  176.9120  145.6200 C   0  0  0  0  0  2  0  0  0  0  0  0
  191.7390  177.0290  142.1090 C   0  0  0  0  0  1  0  0  0  0  0  0
  189.6580  176.3310  143.1890 O   0  0  0  0  0  0  0  0  0  0  0  0
  1  4  1  0  0  0  0
  2 14  1  1  0  0  0
  2 12  1  0  0  0  0
  2 18  1  0  0  0  0
  3  9  1  0  0  0  0
  4 19  1  0  0  0  0
  5  1  2  0  0  0  0
  6  7  1  0  0  0  0
  7 11  1  0  0  0  0
  8 10  1  0  0  0  0
  9 20  1  6  0  0  0
 10  5  1  0  0  0  0
 10  7  2  0  0  0  0
 11  4  2  0  0  0  0
 12 16  1  0  0  0  0
 15  3  1  0  0  0  0
 16 23  1  0  0  0  0
 16 22  1  1  0  0  0
 17 13  1  6  0  0  0
 17  8  1  0  0  0  0
 17  6  1  0  0  0  0
 18  1  1  6  0  0  0
 18 23  1  0  0  0  0
 21 19  1  1  0  0  0
 21 25  1  0  0  0  0
 21  9  1  0  0  0  0
 23 22  1  1  0  0  0
 23 15  1  0  0  0  0
 24 29  1  6  0  0  0
 24 27  1  0  0  0  0
 25 26  1  1  0  0  0
 26 28  1  0  0  0  0
 27 28  1  0  0  0  0
 30 24  1  0  0  0  0
 30 25  1  0  0  0  0
M  END
>  <MODEL>
9

>  <REMARK>
 VINA RESULT:      -7.7      2.613      5.606
  Name = 
  1 active torsions:
  status: ('A' for Active; 'I' for Inactive)
    1  A    between atoms: C_10  and  C_25
                            x       y       z     vdW  Elec       q    Type
                         _______ _______ _______ _____ _____    ______ ____

>  <TORSDO>
F 1

$$$$
