=
 OpenBabel11052414023D

 34 39  0  0  1  0  0  0  0  0999 V2000
  187.0010  178.3320  138.7930 C   0  0  2  0  0  3  0  0  0  0  0  0
  189.6580  178.6000  138.8930 C   0  0  1  0  0  3  0  0  0  0  0  0
  188.2320  177.6840  140.9100 C   0  0  2  0  0  3  0  0  0  0  0  0
  189.6880  177.2700  143.1020 C   0  0  2  0  0  3  0  0  0  0  0  0
  189.5340  178.7140  137.5070 O   0  0  0  0  0  1  0  0  0  0  0  0
  190.8810  177.5300  140.7960 C   0  0  0  0  0  2  0  0  0  0  0  0
  188.2960  178.4960  139.6160 C   0  0  2  0  0  3  0  0  0  0  0  0
  189.5350  176.0200  142.2590 C   0  0  0  0  0  2  0  0  0  0  0  0
  187.2400  178.3880  141.8290 C   0  0  2  0  0  3  0  0  0  0  0  0
  185.7790  178.0830  139.7080 C   0  0  0  0  0  2  0  0  0  0  0  0
  190.6570  177.5120  139.2810 C   0  0  1  0  0  3  0  0  0  0  0  0
  188.3990  177.5730  143.8950 C   0  0  0  0  0  2  0  0  0  0  0  0
  187.0790  177.5680  143.1090 C   0  0  1  0  0  3  0  0  0  0  0  0
  189.5770  177.3780  141.5800 C   0  0  2  0  0  0  0  0  0  0  0  0
  185.9070  178.7110  141.1080 C   0  0  0  0  0  2  0  0  0  0  0  0
  183.6700  178.7730  144.3140 C   0  0  0  0  0  0  0  0  0  0  0  0
  183.9280  178.9870  145.6710 C   0  0  0  0  0  3  0  0  0  0  0  0
  185.9690  178.0650  143.9880 C   0  0  0  0  0  0  0  0  0  0  0  0
  185.2040  178.7400  146.1870 C   0  0  0  0  0  3  0  0  0  0  0  0
  184.6870  178.3140  143.4730 C   0  0  0  0  0  3  0  0  0  0  0  0
  186.2220  178.2810  145.3480 C   0  0  0  0  0  3  0  0  0  0  0  0
  182.4330  179.0110  143.8140 F   0  0  0  0  0  0  0  0  0  0  0  0
  186.3250  177.4620  136.5520 C   0  0  0  0  0  1  0  0  0  0  0  0
  187.1100  177.1690  137.8160 C   0  0  0  0  0  2  0  0  0  0  0  0
  190.2330  176.1350  138.7630 C   0  0  0  0  0  2  0  0  0  0  0  0
  191.0760  174.2510  137.3180 C   0  0  0  0  0  0  0  0  0  0  0  0
  191.3080  175.4870  137.9480 C   0  0  0  0  0  0  0  0  0  0  0  0
  193.5450  175.5500  137.0080 C   0  0  0  0  0  3  0  0  0  0  0  0
  193.3250  174.3150  136.3950 C   0  0  0  0  0  3  0  0  0  0  0  0
  192.0960  173.6690  136.5480 C   0  0  0  0  0  3  0  0  0  0  0  0
  192.5390  176.1350  137.7790 C   0  0  0  0  0  3  0  0  0  0  0  0
  189.8330  173.6240  137.4640 O   0  0  0  0  0  0  0  0  0  0  0  0
  189.0500  173.1960  136.3580 C   0  0  0  0  0  2  0  0  0  0  0  0
  188.5110  174.4060  135.6260 C   0  0  0  0  0  1  0  0  0  0  0  0
  1 24  1  6  0  0  0
  1  7  1  0  0  0  0
  1 10  1  0  0  0  0
  2  5  1  6  0  0  0
  2 11  1  0  0  0  0
  2  7  1  0  0  0  0
  3 14  1  0  0  0  0
  3  9  1  0  0  0  0
  4 12  1  0  0  0  0
  6 14  1  0  0  0  0
  7  3  1  0  0  0  0
  8  4  1  0  0  0  0
  9 13  1  0  0  0  0
 10 15  1  0  0  0  0
 11  6  1  0  0  0  0
 13 12  1  0  0  0  0
 13 18  1  0  0  0  0
 14  8  1  0  0  0  0
 14  4  1  0  0  0  0
 15  9  1  0  0  0  0
 16 17  1  0  0  0  0
 17 19  2  0  0  0  0
 18 21  2  0  0  0  0
 20 18  1  0  0  0  0
 20 16  2  0  0  0  0
 21 19  1  0  0  0  0
 22 16  1  0  0  0  0
 23 24  1  0  0  0  0
 25 11  1  0  0  0  0
 26 32  1  0  0  0  0
 26 27  1  0  0  0  0
 27 25  1  0  0  0  0
 28 31  1  0  0  0  0
 29 30  1  0  0  0  0
 29 28  2  0  0  0  0
 30 26  2  0  0  0  0
 31 27  2  0  0  0  0
 33 32  1  0  0  0  0
 34 33  1  0  0  0  0
M  END
>  <MODEL>
1

>  <REMARK>
 VINA RESULT:      -8.5      0.000      0.000
  Name = 
  6 active torsions:
  status: ('A' for Active; 'I' for Inactive)
    1  A    between atoms: C_1  and  C_19
    2  A    between atoms: O_3  and  C_13
    3  A    between atoms: O_3  and  C_17
    4  A    between atoms: C_11  and  C_14
    5  A    between atoms: C_11  and  C_25
    6  A    between atoms: C_12  and  C_28
                            x       y       z     vdW  Elec       q    Type
                         _______ _______ _______ _____ _____    ______ ____

>  <TORSDO>
F 6

$$$$
=
 OpenBabel11052414023D

 34 39  0  0  1  0  0  0  0  0999 V2000
  186.7850  178.5190  139.5900 C   0  0  2  0  0  3  0  0  0  0  0  0
  189.4160  178.6910  139.1440 C   0  0  1  0  0  3  0  0  0  0  0  0
  188.3980  177.6550  141.3410 C   0  0  2  0  0  3  0  0  0  0  0  0
  190.2570  177.0090  143.1370 C   0  0  2  0  0  3  0  0  0  0  0  0
  189.0100  178.9260  137.8280 O   0  0  0  0  0  1  0  0  0  0  0  0
  190.9530  177.4240  140.6570 C   0  0  0  0  0  2  0  0  0  0  0  0
  188.2310  178.5700  140.1290 C   0  0  2  0  0  3  0  0  0  0  0  0
  189.8690  175.8400  142.2530 C   0  0  0  0  0  2  0  0  0  0  0  0
  187.6560  178.3110  142.5010 C   0  0  2  0  0  3  0  0  0  0  0  0
  185.7710  178.2350  140.7220 C   0  0  0  0  0  2  0  0  0  0  0  0
  190.4170  177.5410  139.2270 C   0  0  1  0  0  3  0  0  0  0  0  0
  189.1780  177.2860  144.2060 C   0  0  0  0  0  2  0  0  0  0  0  0
  187.7250  177.3910  143.7200 C   0  0  1  0  0  3  0  0  0  0  0  0
  189.8360  177.2490  141.6860 C   0  0  2  0  0  0  0  0  0  0  0  0
  186.2190  178.7370  142.1060 C   0  0  0  0  0  2  0  0  0  0  0  0
  184.7130  178.6220  145.7050 C   0  0  0  0  0  0  0  0  0  0  0  0
  185.2530  178.6890  146.9930 C   0  0  0  0  0  3  0  0  0  0  0  0
  186.8490  177.8480  144.8490 C   0  0  0  0  0  0  0  0  0  0  0  0
  186.5880  178.3370  147.2100 C   0  0  0  0  0  3  0  0  0  0  0  0
  185.5080  178.2030  144.6350 C   0  0  0  0  0  3  0  0  0  0  0  0
  187.3850  177.9180  146.1410 C   0  0  0  0  0  3  0  0  0  0  0  0
  183.4190  178.9620  145.4940 F   0  0  0  0  0  0  0  0  0  0  0  0
  185.6120  177.8650  137.4850 C   0  0  0  0  0  1  0  0  0  0  0  0
  186.6300  177.4400  138.5260 C   0  0  0  0  0  2  0  0  0  0  0  0
  189.8260  176.2280  138.7080 C   0  0  0  0  0  2  0  0  0  0  0  0
  190.1280  175.6730  136.2690 C   0  0  0  0  0  0  0  0  0  0  0  0
  190.6310  175.6570  137.5820 C   0  0  0  0  0  0  0  0  0  0  0  0
  192.6770  174.6180  136.7890 C   0  0  0  0  0  3  0  0  0  0  0  0
  192.1740  174.6160  135.4870 C   0  0  0  0  0  3  0  0  0  0  0  0
  190.9060  175.1430  135.2270 C   0  0  0  0  0  3  0  0  0  0  0  0
  191.9090  175.1400  137.8330 C   0  0  0  0  0  3  0  0  0  0  0  0
  188.8640  176.2200  136.0200 O   0  0  0  0  0  0  0  0  0  0  0  0
  187.8040  175.4790  135.4310 C   0  0  0  0  0  2  0  0  0  0  0  0
  187.3350  174.4150  136.4000 C   0  0  0  0  0  1  0  0  0  0  0  0
  1 24  1  6  0  0  0
  1  7  1  0  0  0  0
  1 10  1  0  0  0  0
  2  5  1  6  0  0  0
  2 11  1  0  0  0  0
  2  7  1  0  0  0  0
  3 14  1  0  0  0  0
  3  9  1  0  0  0  0
  4 12  1  0  0  0  0
  6 14  1  0  0  0  0
  7  3  1  0  0  0  0
  8  4  1  0  0  0  0
  9 13  1  0  0  0  0
 10 15  1  0  0  0  0
 11  6  1  0  0  0  0
 13 12  1  0  0  0  0
 13 18  1  0  0  0  0
 14  8  1  0  0  0  0
 14  4  1  0  0  0  0
 15  9  1  0  0  0  0
 16 17  1  0  0  0  0
 17 19  2  0  0  0  0
 18 21  2  0  0  0  0
 20 18  1  0  0  0  0
 20 16  2  0  0  0  0
 21 19  1  0  0  0  0
 22 16  1  0  0  0  0
 23 24  1  0  0  0  0
 25 11  1  0  0  0  0
 26 27  1  0  0  0  0
 27 31  2  0  0  0  0
 27 25  1  0  0  0  0
 28 31  1  0  0  0  0
 29 28  2  0  0  0  0
 30 29  1  0  0  0  0
 30 26  2  0  0  0  0
 32 26  1  0  0  0  0
 33 32  1  0  0  0  0
 33 34  1  0  0  0  0
M  END
>  <MODEL>
2

>  <REMARK>
 VINA RESULT:      -8.1      1.159      1.365
  Name = 
  6 active torsions:
  status: ('A' for Active; 'I' for Inactive)
    1  A    between atoms: C_1  and  C_19
    2  A    between atoms: O_3  and  C_13
    3  A    between atoms: O_3  and  C_17
    4  A    between atoms: C_11  and  C_14
    5  A    between atoms: C_11  and  C_25
    6  A    between atoms: C_12  and  C_28
                            x       y       z     vdW  Elec       q    Type
                         _______ _______ _______ _____ _____    ______ ____

>  <TORSDO>
F 6

$$$$
=
 OpenBabel11052414023D

 34 39  0  0  1  0  0  0  0  0999 V2000
  186.5240  178.6860  140.0410 C   0  0  2  0  0  3  0  0  0  0  0  0
  189.0940  178.7240  139.3040 C   0  0  1  0  0  3  0  0  0  0  0  0
  188.2640  177.6500  141.5620 C   0  0  2  0  0  3  0  0  0  0  0  0
  190.2670  176.8150  143.1070 C   0  0  2  0  0  3  0  0  0  0  0  0
  188.5600  179.0420  138.0530 O   0  0  0  0  0  1  0  0  0  0  0  0
  190.7070  177.3010  140.5820 C   0  0  0  0  0  2  0  0  0  0  0  0
  188.0210  178.6280  140.4130 C   0  0  2  0  0  3  0  0  0  0  0  0
  189.7100  175.7120  142.2290 C   0  0  0  0  0  2  0  0  0  0  0  0
  187.6990  178.2950  142.8240 C   0  0  2  0  0  3  0  0  0  0  0  0
  185.6270  178.4110  141.2690 C   0  0  0  0  0  2  0  0  0  0  0  0
  190.0240  177.5150  139.2280 C   0  0  1  0  0  3  0  0  0  0  0  0
  189.3350  177.1060  144.3020 C   0  0  0  0  0  2  0  0  0  0  0  0
  187.8460  177.3190  143.9900 C   0  0  1  0  0  3  0  0  0  0  0  0
  189.7030  177.1450  141.7240 C   0  0  2  0  0  0  0  0  0  0  0  0
  186.2580  178.8220  142.6120 C   0  0  0  0  0  2  0  0  0  0  0  0
  187.1160  178.3130  147.5960 C   0  0  0  0  0  0  0  0  0  0  0  0
  185.7580  178.6350  147.5140 C   0  0  0  0  0  3  0  0  0  0  0  0
  187.1330  177.7740  145.2290 C   0  0  0  0  0  0  0  0  0  0  0  0
  185.0880  178.5270  146.2920 C   0  0  0  0  0  3  0  0  0  0  0  0
  187.8030  177.8830  146.4580 C   0  0  0  0  0  3  0  0  0  0  0  0
  185.7730  178.0980  145.1520 C   0  0  0  0  0  3  0  0  0  0  0  0
  187.7670  178.4170  148.7800 F   0  0  0  0  0  0  0  0  0  0  0  0
  184.9620  178.1130  138.1790 C   0  0  0  0  0  1  0  0  0  0  0  0
  186.1830  177.6680  138.9610 C   0  0  0  0  0  2  0  0  0  0  0  0
  189.2960  176.2630  138.7300 C   0  0  0  0  0  2  0  0  0  0  0  0
  190.7020  175.1810  136.9400 C   0  0  0  0  0  0  0  0  0  0  0  0
  189.5960  175.9750  137.2920 C   0  0  0  0  0  0  0  0  0  0  0  0
  189.0040  176.1940  134.9480 C   0  0  0  0  0  3  0  0  0  0  0  0
  190.1100  175.4210  134.5940 C   0  0  0  0  0  3  0  0  0  0  0  0
  190.9550  174.9150  135.5850 C   0  0  0  0  0  3  0  0  0  0  0  0
  188.7450  176.4680  136.2930 C   0  0  0  0  0  3  0  0  0  0  0  0
  191.5290  174.6650  137.9450 O   0  0  0  0  0  0  0  0  0  0  0  0
  192.9450  174.7620  137.9030 C   0  0  0  0  0  2  0  0  0  0  0  0
  193.3560  176.2110  138.0560 C   0  0  0  0  0  1  0  0  0  0  0  0
  1 24  1  6  0  0  0
  1  7  1  0  0  0  0
  1 10  1  0  0  0  0
  2  5  1  6  0  0  0
  2  7  1  0  0  0  0
  3 14  1  0  0  0  0
  3  9  1  0  0  0  0
  4 12  1  0  0  0  0
  6 14  1  0  0  0  0
  7  3  1  0  0  0  0
  8  4  1  0  0  0  0
  9 13  1  0  0  0  0
 10 15  1  0  0  0  0
 11  2  1  0  0  0  0
 11  6  1  0  0  0  0
 13 12  1  0  0  0  0
 13 18  1  0  0  0  0
 14  8  1  0  0  0  0
 14  4  1  0  0  0  0
 15  9  1  0  0  0  0
 16 22  1  0  0  0  0
 17 16  1  0  0  0  0
 18 20  1  0  0  0  0
 19 17  2  0  0  0  0
 20 16  2  0  0  0  0
 21 18  2  0  0  0  0
 21 19  1  0  0  0  0
 23 24  1  0  0  0  0
 25 11  1  0  0  0  0
 26 27  1  0  0  0  0
 26 32  1  0  0  0  0
 27 25  1  0  0  0  0
 28 31  1  0  0  0  0
 29 28  2  0  0  0  0
 29 30  1  0  0  0  0
 30 26  2  0  0  0  0
 31 27  2  0  0  0  0
 33 32  1  0  0  0  0
 33 34  1  0  0  0  0
M  END
>  <MODEL>
3

>  <REMARK>
 VINA RESULT:      -7.8      1.798      2.716
  Name = 
  6 active torsions:
  status: ('A' for Active; 'I' for Inactive)
    1  A    between atoms: C_1  and  C_19
    2  A    between atoms: O_3  and  C_13
    3  A    between atoms: O_3  and  C_17
    4  A    between atoms: C_11  and  C_14
    5  A    between atoms: C_11  and  C_25
    6  A    between atoms: C_12  and  C_28
                            x       y       z     vdW  Elec       q    Type
                         _______ _______ _______ _____ _____    ______ ____

>  <TORSDO>
F 6

$$$$
=
 OpenBabel11052414023D

 34 39  0  0  1  0  0  0  0  0999 V2000
  179.8880  179.0640  142.0920 C   0  0  2  0  0  3  0  0  0  0  0  0
  180.4390  180.4010  139.8430 C   0  0  1  0  0  3  0  0  0  0  0  0
  182.2220  178.9370  141.1160 C   0  0  2  0  0  3  0  0  0  0  0  0
  184.6560  179.1140  140.0480 C   0  0  2  0  0  3  0  0  0  0  0  0
  179.0480  180.4820  139.7460 O   0  0  0  0  0  1  0  0  0  0  0  0
  182.5850  179.8900  138.6630 C   0  0  0  0  0  2  0  0  0  0  0  0
  180.9150  179.7300  141.1510 C   0  0  2  0  0  3  0  0  0  0  0  0
  183.8720  177.9290  139.5190 C   0  0  0  0  0  2  0  0  0  0  0  0
  182.9110  179.1500  142.4590 C   0  0  2  0  0  3  0  0  0  0  0  0
  180.5870  178.3150  143.2510 C   0  0  0  0  0  2  0  0  0  0  0  0
  181.0580  179.8120  138.5770 C   0  0  1  0  0  3  0  0  0  0  0  0
  185.1910  178.8420  141.4700 C   0  0  0  0  0  2  0  0  0  0  0  0
  184.1870  178.3110  142.5030 C   0  0  1  0  0  3  0  0  0  0  0  0
  183.1350  179.1980  139.9110 C   0  0  2  0  0  0  0  0  0  0  0  0
  181.9490  178.9110  143.6500 C   0  0  0  0  0  2  0  0  0  0  0  0
  186.7380  177.8880  145.3030 C   0  0  0  0  0  0  0  0  0  0  0  0
  185.9790  178.2680  146.4140 C   0  0  0  0  0  3  0  0  0  0  0  0
  184.8270  178.2880  143.8600 C   0  0  0  0  0  0  0  0  0  0  0  0
  184.6470  178.6570  146.2500 C   0  0  0  0  0  3  0  0  0  0  0  0
  186.1650  177.8970  144.0290 C   0  0  0  0  0  3  0  0  0  0  0  0
  184.0720  178.6670  144.9760 C   0  0  0  0  0  3  0  0  0  0  0  0
  188.0290  177.5110  145.4620 F   0  0  0  0  0  0  0  0  0  0  0  0
  179.6580  176.6960  141.3300 C   0  0  0  0  0  1  0  0  0  0  0  0
  179.0130  178.0690  141.3390 C   0  0  0  0  0  2  0  0  0  0  0  0
  180.5530  178.3940  138.2990 C   0  0  0  0  0  2  0  0  0  0  0  0
  181.5630  176.5210  136.9490 C   0  0  0  0  0  0  0  0  0  0  0  0
  181.0980  177.8470  137.0170 C   0  0  0  0  0  0  0  0  0  0  0  0
  181.5990  178.1450  134.6600 C   0  0  0  0  0  3  0  0  0  0  0  0
  182.0780  176.8360  134.5940 C   0  0  0  0  0  3  0  0  0  0  0  0
  182.0580  176.0260  135.7320 C   0  0  0  0  0  3  0  0  0  0  0  0
  181.1080  178.6480  135.8670 C   0  0  0  0  0  3  0  0  0  0  0  0
  181.5200  175.7150  138.0930 O   0  0  0  0  0  0  0  0  0  0  0  0
  180.7760  174.5070  138.1580 C   0  0  0  0  0  2  0  0  0  0  0  0
  179.2980  174.8200  138.0710 C   0  0  0  0  0  1  0  0  0  0  0  0
  1 24  1  6  0  0  0
  1 10  1  0  0  0  0
  2  5  1  6  0  0  0
  2  7  1  0  0  0  0
  3  7  1  0  0  0  0
  3  9  1  0  0  0  0
  4 12  1  0  0  0  0
  6 14  1  0  0  0  0
  7  1  1  0  0  0  0
  8 14  1  0  0  0  0
  8  4  1  0  0  0  0
  9 13  1  0  0  0  0
  9 15  1  0  0  0  0
 10 15  1  0  0  0  0
 11  6  1  0  0  0  0
 11  2  1  0  0  0  0
 12 13  1  0  0  0  0
 13 18  1  0  0  0  0
 14  4  1  0  0  0  0
 14  3  1  0  0  0  0
 16 22  1  0  0  0  0
 16 17  1  0  0  0  0
 18 20  1  0  0  0  0
 18 21  2  0  0  0  0
 19 17  2  0  0  0  0
 20 16  2  0  0  0  0
 21 19  1  0  0  0  0
 23 24  1  0  0  0  0
 25 11  1  0  0  0  0
 26 27  1  0  0  0  0
 26 32  1  0  0  0  0
 27 25  1  0  0  0  0
 28 31  1  0  0  0  0
 29 28  2  0  0  0  0
 29 30  1  0  0  0  0
 30 26  2  0  0  0  0
 31 27  2  0  0  0  0
 32 33  1  0  0  0  0
 34 33  1  0  0  0  0
M  END
>  <MODEL>
4

>  <REMARK>
 VINA RESULT:      -7.3      5.586      7.804
  Name = 
  6 active torsions:
  status: ('A' for Active; 'I' for Inactive)
    1  A    between atoms: C_1  and  C_19
    2  A    between atoms: O_3  and  C_13
    3  A    between atoms: O_3  and  C_17
    4  A    between atoms: C_11  and  C_14
    5  A    between atoms: C_11  and  C_25
    6  A    between atoms: C_12  and  C_28
                            x       y       z     vdW  Elec       q    Type
                         _______ _______ _______ _____ _____    ______ ____

>  <TORSDO>
F 6

$$$$
=
 OpenBabel11052414023D

 34 39  0  0  1  0  0  0  0  0999 V2000
  179.8560  179.0090  142.0490 C   0  0  2  0  0  3  0  0  0  0  0  0
  180.4460  180.4410  139.8710 C   0  0  1  0  0  3  0  0  0  0  0  0
  182.2210  178.9700  141.1450 C   0  0  2  0  0  3  0  0  0  0  0  0
  184.6830  179.2400  140.1630 C   0  0  2  0  0  3  0  0  0  0  0  0
  179.0570  180.4960  139.7320 O   0  0  0  0  0  1  0  0  0  0  0  0
  182.6390  180.0220  138.7420 C   0  0  0  0  0  2  0  0  0  0  0  0
  180.8960  179.7320  141.1680 C   0  0  2  0  0  3  0  0  0  0  0  0
  183.9440  178.0590  139.5660 C   0  0  0  0  0  2  0  0  0  0  0  0
  182.8630  179.1480  142.5170 C   0  0  2  0  0  3  0  0  0  0  0  0
  180.5350  178.2330  143.2020 C   0  0  0  0  0  2  0  0  0  0  0  0
  181.1170  179.9140  138.6040 C   0  0  1  0  0  3  0  0  0  0  0  0
  185.1790  178.9270  141.5900 C   0  0  0  0  0  2  0  0  0  0  0  0
  184.1550  178.3350  142.5710 C   0  0  1  0  0  3  0  0  0  0  0  0
  183.1650  179.2960  139.9800 C   0  0  2  0  0  0  0  0  0  0  0  0
  181.8700  178.8430  143.6670 C   0  0  0  0  0  2  0  0  0  0  0  0
  186.5620  177.6860  145.4540 C   0  0  0  0  0  0  0  0  0  0  0  0
  185.8290  178.1930  146.5320 C   0  0  0  0  0  3  0  0  0  0  0  0
  184.7530  178.2760  143.9460 C   0  0  0  0  0  0  0  0  0  0  0  0
  184.5610  178.7400  146.3180 C   0  0  0  0  0  3  0  0  0  0  0  0
  186.0270  177.7260  144.1650 C   0  0  0  0  0  3  0  0  0  0  0  0
  184.0240  178.7810  145.0290 C   0  0  0  0  0  3  0  0  0  0  0  0
  187.7920  177.1560  145.6610 F   0  0  0  0  0  0  0  0  0  0  0  0
  179.6720  176.6520  141.2460 C   0  0  0  0  0  1  0  0  0  0  0  0
  179.0280  178.0240  141.2330 C   0  0  0  0  0  2  0  0  0  0  0  0
  180.6540  178.4970  138.2580 C   0  0  0  0  0  2  0  0  0  0  0  0
  181.0280  178.6630  135.7720 C   0  0  0  0  0  0  0  0  0  0  0  0
  181.2710  178.0000  136.9880 C   0  0  0  0  0  0  0  0  0  0  0  0
  182.7220  176.4260  135.8430 C   0  0  0  0  0  3  0  0  0  0  0  0
  182.4700  177.0710  134.6310 C   0  0  0  0  0  3  0  0  0  0  0  0
  181.6280  178.1860  134.5950 C   0  0  0  0  0  3  0  0  0  0  0  0
  182.1270  176.8910  137.0180 C   0  0  0  0  0  3  0  0  0  0  0  0
  180.1980  179.7900  135.7540 O   0  0  0  0  0  0  0  0  0  0  0  0
  180.4590  180.9270  134.9430 C   0  0  0  0  0  2  0  0  0  0  0  0
  180.5080  182.1650  135.8140 C   0  0  0  0  0  1  0  0  0  0  0  0
  1 24  1  6  0  0  0
  1 10  1  0  0  0  0
  2  5  1  6  0  0  0
  2  7  1  0  0  0  0
  3  7  1  0  0  0  0
  3  9  1  0  0  0  0
  4 12  1  0  0  0  0
  6 14  1  0  0  0  0
  7  1  1  0  0  0  0
  8 14  1  0  0  0  0
  8  4  1  0  0  0  0
  9 13  1  0  0  0  0
  9 15  1  0  0  0  0
 10 15  1  0  0  0  0
 11  6  1  0  0  0  0
 11  2  1  0  0  0  0
 12 13  1  0  0  0  0
 13 18  1  0  0  0  0
 14  4  1  0  0  0  0
 14  3  1  0  0  0  0
 16 22  1  0  0  0  0
 16 17  1  0  0  0  0
 18 20  1  0  0  0  0
 18 21  2  0  0  0  0
 19 17  2  0  0  0  0
 20 16  2  0  0  0  0
 21 19  1  0  0  0  0
 24 23  1  0  0  0  0
 25 11  1  0  0  0  0
 26 27  1  0  0  0  0
 27 31  2  0  0  0  0
 27 25  1  0  0  0  0
 28 31  1  0  0  0  0
 29 28  2  0  0  0  0
 30 29  1  0  0  0  0
 30 26  2  0  0  0  0
 32 26  1  0  0  0  0
 33 32  1  0  0  0  0
 33 34  1  0  0  0  0
M  END
>  <MODEL>
5

>  <REMARK>
 VINA RESULT:      -7.1      5.794      8.040
  Name = 
  6 active torsions:
  status: ('A' for Active; 'I' for Inactive)
    1  A    between atoms: C_1  and  C_19
    2  A    between atoms: O_3  and  C_13
    3  A    between atoms: O_3  and  C_17
    4  A    between atoms: C_11  and  C_14
    5  A    between atoms: C_11  and  C_25
    6  A    between atoms: C_12  and  C_28
                            x       y       z     vdW  Elec       q    Type
                         _______ _______ _______ _____ _____    ______ ____

>  <TORSDO>
F 6

$$$$
=
 OpenBabel11052414023D

 34 39  0  0  1  0  0  0  0  0999 V2000
  186.8470  178.2450  138.4230 C   0  0  2  0  0  3  0  0  0  0  0  0
  189.4920  178.6310  138.3580 C   0  0  1  0  0  3  0  0  0  0  0  0
  188.2250  177.7270  140.4840 C   0  0  2  0  0  3  0  0  0  0  0  0
  189.8220  177.4550  142.5990 C   0  0  2  0  0  3  0  0  0  0  0  0
  189.2830  178.6890  136.9780 O   0  0  0  0  0  1  0  0  0  0  0  0
  190.8680  177.6830  140.2200 C   0  0  0  0  0  2  0  0  0  0  0  0
  188.1790  178.4940  139.1620 C   0  0  2  0  0  3  0  0  0  0  0  0
  189.6770  176.1690  141.8090 C   0  0  0  0  0  2  0  0  0  0  0  0
  187.2570  178.4200  141.4370 C   0  0  2  0  0  3  0  0  0  0  0  0
  185.6920  177.9770  139.4160 C   0  0  0  0  0  2  0  0  0  0  0  0
  190.5590  177.6010  138.7220 C   0  0  1  0  0  3  0  0  0  0  0  0
  188.5680  177.7300  143.4560 C   0  0  0  0  0  2  0  0  0  0  0  0
  187.2070  177.6410  142.7500 C   0  0  1  0  0  3  0  0  0  0  0  0
  189.6200  177.5030  141.0840 C   0  0  2  0  0  0  0  0  0  0  0  0
  185.8720  178.6600  140.7850 C   0  0  0  0  0  2  0  0  0  0  0  0
  183.8170  178.7190  144.1180 C   0  0  0  0  0  0  0  0  0  0  0  0
  184.1470  179.0150  145.4440 C   0  0  0  0  0  3  0  0  0  0  0  0
  186.1280  178.1210  143.6750 C   0  0  0  0  0  0  0  0  0  0  0  0
  185.4650  178.8640  145.8860 C   0  0  0  0  0  3  0  0  0  0  0  0
  184.8030  178.2740  143.2350 C   0  0  0  0  0  3  0  0  0  0  0  0
  186.4530  178.4180  145.0040 C   0  0  0  0  0  3  0  0  0  0  0  0
  182.5400  178.8650  143.6900 F   0  0  0  0  0  0  0  0  0  0  0  0
  185.7330  176.9780  136.5820 C   0  0  0  0  0  1  0  0  0  0  0  0
  186.9520  177.0530  137.4800 C   0  0  0  0  0  2  0  0  0  0  0  0
  190.1680  176.1890  138.2770 C   0  0  0  0  0  2  0  0  0  0  0  0
  192.1930  175.3770  137.0160 C   0  0  0  0  0  0  0  0  0  0  0  0
  190.8500  175.7940  137.0040 C   0  0  0  0  0  0  0  0  0  0  0  0
  190.7520  175.4210  134.6070 C   0  0  0  0  0  3  0  0  0  0  0  0
  192.0900  175.0230  134.6120 C   0  0  0  0  0  3  0  0  0  0  0  0
  192.8070  174.9990  135.8110 C   0  0  0  0  0  3  0  0  0  0  0  0
  190.1330  175.8020  135.8000 C   0  0  0  0  0  3  0  0  0  0  0  0
  192.8940  175.3400  138.2270 O   0  0  0  0  0  0  0  0  0  0  0  0
  194.3100  175.2510  138.2960 C   0  0  0  0  0  2  0  0  0  0  0  0
  194.7230  173.7950  138.3000 C   0  0  0  0  0  1  0  0  0  0  0  0
  1 24  1  6  0  0  0
  1  7  1  0  0  0  0
  1 10  1  0  0  0  0
  2  5  1  6  0  0  0
  2 11  1  0  0  0  0
  2  7  1  0  0  0  0
  3 14  1  0  0  0  0
  3  9  1  0  0  0  0
  4 12  1  0  0  0  0
  6 14  1  0  0  0  0
  7  3  1  0  0  0  0
  8  4  1  0  0  0  0
  9 13  1  0  0  0  0
 10 15  1  0  0  0  0
 11  6  1  0  0  0  0
 13 12  1  0  0  0  0
 13 18  1  0  0  0  0
 14  8  1  0  0  0  0
 14  4  1  0  0  0  0
 15  9  1  0  0  0  0
 16 17  1  0  0  0  0
 17 19  2  0  0  0  0
 18 21  2  0  0  0  0
 20 18  1  0  0  0  0
 20 16  2  0  0  0  0
 21 19  1  0  0  0  0
 22 16  1  0  0  0  0
 23 24  1  0  0  0  0
 25 11  1  0  0  0  0
 26 32  1  0  0  0  0
 27 26  1  0  0  0  0
 27 25  1  0  0  0  0
 28 29  2  0  0  0  0
 28 31  1  0  0  0  0
 29 30  1  0  0  0  0
 30 26  2  0  0  0  0
 31 27  2  0  0  0  0
 32 33  1  0  0  0  0
 33 34  1  0  0  0  0
M  END
>  <MODEL>
6

>  <REMARK>
 VINA RESULT:      -7.0      1.173      1.993
  Name = 
  6 active torsions:
  status: ('A' for Active; 'I' for Inactive)
    1  A    between atoms: C_1  and  C_19
    2  A    between atoms: O_3  and  C_13
    3  A    between atoms: O_3  and  C_17
    4  A    between atoms: C_11  and  C_14
    5  A    between atoms: C_11  and  C_25
    6  A    between atoms: C_12  and  C_28
                            x       y       z     vdW  Elec       q    Type
                         _______ _______ _______ _____ _____    ______ ____

>  <TORSDO>
F 6

$$$$
=
 OpenBabel11052414023D

 34 39  0  0  1  0  0  0  0  0999 V2000
  190.1950  177.8790  139.0970 C   0  0  2  0  0  3  0  0  0  0  0  0
  188.8340  178.5270  136.8900 C   0  0  1  0  0  3  0  0  0  0  0  0
  190.3650  176.3900  137.0560 C   0  0  2  0  0  3  0  0  0  0  0  0
  190.5760  175.0870  134.7410 C   0  0  2  0  0  3  0  0  0  0  0  0
  188.1500  179.3780  137.7610 O   0  0  0  0  0  1  0  0  0  0  0  0
  188.6510  176.8170  135.0730 C   0  0  0  0  0  2  0  0  0  0  0  0
  190.0070  177.7850  137.5680 C   0  0  2  0  0  3  0  0  0  0  0  0
  189.4800  174.5280  135.6270 C   0  0  0  0  0  2  0  0  0  0  0  0
  191.8820  176.2550  137.1480 C   0  0  2  0  0  3  0  0  0  0  0  0
  191.3210  176.9380  139.5870 C   0  0  0  0  0  2  0  0  0  0  0  0
  187.8760  177.6160  136.1260 C   0  0  1  0  0  3  0  0  0  0  0  0
  191.9720  174.6470  135.2310 C   0  0  0  0  0  2  0  0  0  0  0  0
  192.2830  174.8440  136.7220 C   0  0  1  0  0  3  0  0  0  0  0  0
  189.8000  176.0120  135.6810 C   0  0  2  0  0  0  0  0  0  0  0  0
  192.4190  176.6770  138.5390 C   0  0  0  0  0  2  0  0  0  0  0  0
  196.0880  174.8820  136.5030 C   0  0  0  0  0  0  0  0  0  0  0  0
  196.4200  173.9540  137.4940 C   0  0  0  0  0  3  0  0  0  0  0  0
  193.7310  174.5440  136.9770 C   0  0  0  0  0  0  0  0  0  0  0  0
  195.4110  173.3210  138.2260 C   0  0  0  0  0  3  0  0  0  0  0  0
  194.7470  175.1770  136.2440 C   0  0  0  0  0  3  0  0  0  0  0  0
  194.0700  173.6150  137.9680 C   0  0  0  0  0  3  0  0  0  0  0  0
  197.0660  175.4960  135.7940 F   0  0  0  0  0  0  0  0  0  0  0  0
  189.1600  177.4590  141.3300 C   0  0  0  0  0  1  0  0  0  0  0  0
  188.9130  177.5140  139.8350 C   0  0  0  0  0  2  0  0  0  0  0  0
  187.0640  176.7220  137.0660 C   0  0  0  0  0  2  0  0  0  0  0  0
  184.8620  177.7010  137.8010 C   0  0  0  0  0  0  0  0  0  0  0  0
  185.5900  176.9160  136.8900 C   0  0  0  0  0  0  0  0  0  0  0  0
  183.5680  176.5300  135.6030 C   0  0  0  0  0  3  0  0  0  0  0  0
  182.8390  177.2940  136.5150 C   0  0  0  0  0  3  0  0  0  0  0  0
  183.4820  177.8790  137.6080 C   0  0  0  0  0  3  0  0  0  0  0  0
  184.9400  176.3440  135.7880 C   0  0  0  0  0  3  0  0  0  0  0  0
  185.5230  178.2960  138.8820 O   0  0  0  0  0  0  0  0  0  0  0  0
  184.8410  179.0010  139.9100 C   0  0  0  0  0  2  0  0  0  0  0  0
  185.6860  179.0020  141.1660 C   0  0  0  0  0  1  0  0  0  0  0  0
  1 10  1  0  0  0  0
  1 24  1  1  0  0  0
  2  7  1  0  0  0  0
  2  5  1  1  0  0  0
  3  9  1  0  0  0  0
  3  7  1  0  0  0  0
  4 12  1  0  0  0  0
  4  8  1  0  0  0  0
  4 14  1  0  0  0  0
  6 14  1  0  0  0  0
  6 11  1  0  0  0  0
  7  1  1  0  0  0  0
  8 14  1  0  0  0  0
  9 15  1  0  0  0  0
 11  2  1  0  0  0  0
 11 25  1  0  0  0  0
 12 13  1  0  0  0  0
 13 18  1  0  0  0  0
 13  9  1  0  0  0  0
 14  3  1  0  0  0  0
 15 10  1  0  0  0  0
 16 17  1  0  0  0  0
 17 19  2  0  0  0  0
 18 21  2  0  0  0  0
 20 16  2  0  0  0  0
 20 18  1  0  0  0  0
 21 19  1  0  0  0  0
 22 16  1  0  0  0  0
 24 23  1  0  0  0  0
 26 32  1  0  0  0  0
 27 25  1  0  0  0  0
 27 26  2  0  0  0  0
 28 31  2  0  0  0  0
 28 29  1  0  0  0  0
 29 30  2  0  0  0  0
 30 26  1  0  0  0  0
 31 27  1  0  0  0  0
 32 33  1  0  0  0  0
 33 34  1  0  0  0  0
M  END
>  <MODEL>
7

>  <REMARK>
 VINA RESULT:      -6.7      3.754      8.804
  Name = 
  6 active torsions:
  status: ('A' for Active; 'I' for Inactive)
    1  A    between atoms: C_1  and  C_19
    2  A    between atoms: O_3  and  C_13
    3  A    between atoms: O_3  and  C_17
    4  A    between atoms: C_11  and  C_14
    5  A    between atoms: C_11  and  C_25
    6  A    between atoms: C_12  and  C_28
                            x       y       z     vdW  Elec       q    Type
                         _______ _______ _______ _____ _____    ______ ____

>  <TORSDO>
F 6

$$$$
=
 OpenBabel11052414023D

 34 39  0  0  1  0  0  0  0  0999 V2000
  187.9030  177.0160  137.6630 C   0  0  2  0  0  3  0  0  0  0  0  0
  188.7720  178.7210  139.5290 C   0  0  1  0  0  3  0  0  0  0  0  0
  186.2610  177.9450  139.3520 C   0  0  2  0  0  3  0  0  0  0  0  0
  184.6660  179.2020  141.0770 C   0  0  2  0  0  3  0  0  0  0  0  0
  190.0280  178.2540  139.1360 O   0  0  0  0  0  1  0  0  0  0  0  0
  187.2490  179.2500  141.4430 C   0  0  0  0  0  2  0  0  0  0  0  0
  187.6190  178.1430  138.6780 C   0  0  2  0  0  3  0  0  0  0  0  0
  185.1720  177.8760  141.6100 C   0  0  0  0  0  2  0  0  0  0  0  0
  185.1940  178.2530  138.3050 C   0  0  2  0  0  3  0  0  0  0  0  0
  186.5950  176.4740  137.0400 C   0  0  0  0  0  2  0  0  0  0  0  0
  188.5670  178.5830  141.0360 C   0  0  1  0  0  3  0  0  0  0  0  0
  183.5450  178.9970  140.0370 C   0  0  0  0  0  2  0  0  0  0  0  0
  183.8150  177.9910  138.9080 C   0  0  1  0  0  3  0  0  0  0  0  0
  186.0510  178.6900  140.6760 C   0  0  2  0  0  0  0  0  0  0  0  0
  185.4580  177.5100  136.9710 C   0  0  0  0  0  2  0  0  0  0  0  0
  181.0830  179.3240  136.6090 C   0  0  0  0  0  0  0  0  0  0  0  0
  180.6530  178.1440  135.9950 C   0  0  0  0  0  3  0  0  0  0  0  0
  182.7100  178.0620  137.8960 C   0  0  0  0  0  0  0  0  0  0  0  0
  181.2490  176.9250  136.3310 C   0  0  0  0  0  3  0  0  0  0  0  0
  182.1080  179.2850  137.5570 C   0  0  0  0  0  3  0  0  0  0  0  0
  182.2740  176.8830  137.2790 C   0  0  0  0  0  3  0  0  0  0  0  0
  180.5060  180.5060  136.2840 F   0  0  0  0  0  0  0  0  0  0  0  0
  189.6900  175.2950  137.3790 C   0  0  0  0  0  1  0  0  0  0  0  0
  188.6380  175.8540  138.3170 C   0  0  0  0  0  2  0  0  0  0  0  0
  188.6570  177.1260  141.4960 C   0  0  0  0  0  2  0  0  0  0  0  0
  188.9530  177.1010  143.9980 C   0  0  0  0  0  0  0  0  0  0  0  0
  189.5130  176.9740  142.7140 C   0  0  0  0  0  0  0  0  0  0  0  0
  191.6800  176.5040  143.7030 C   0  0  0  0  0  3  0  0  0  0  0  0
  191.1310  176.6460  144.9780 C   0  0  0  0  0  3  0  0  0  0  0  0
  189.7740  176.9420  145.1260 C   0  0  0  0  0  3  0  0  0  0  0  0
  190.8720  176.6640  142.5750 C   0  0  0  0  0  3  0  0  0  0  0  0
  187.5870  177.3780  144.1310 O   0  0  0  0  0  0  0  0  0  0  0  0
  187.0010  177.7960  145.3560 C   0  0  0  0  0  2  0  0  0  0  0  0
  185.6880  178.4950  145.0730 C   0  0  0  0  0  1  0  0  0  0  0  0
  1 24  1  1  0  0  0
  1  7  1  0  0  0  0
  2  5  1  6  0  0  0
  2 11  1  0  0  0  0
  3 14  1  0  0  0  0
  4  8  1  0  0  0  0
  7  3  1  0  0  0  0
  7  2  1  0  0  0  0
  9 13  1  0  0  0  0
  9  3  1  0  0  0  0
 10  1  1  0  0  0  0
 11  6  1  0  0  0  0
 11 25  1  0  0  0  0
 12  4  1  0  0  0  0
 13 12  1  0  0  0  0
 14  4  1  0  0  0  0
 14  6  1  0  0  0  0
 14  8  1  0  0  0  0
 15 10  1  0  0  0  0
 15  9  1  0  0  0  0
 16 20  1  0  0  0  0
 17 19  1  0  0  0  0
 17 16  2  0  0  0  0
 18 13  1  0  0  0  0
 19 21  2  0  0  0  0
 20 18  2  0  0  0  0
 21 18  1  0  0  0  0
 22 16  1  0  0  0  0
 23 24  1  0  0  0  0
 25 27  1  0  0  0  0
 26 32  1  0  0  0  0
 26 30  1  0  0  0  0
 27 26  2  0  0  0  0
 28 29  1  0  0  0  0
 29 30  2  0  0  0  0
 31 27  1  0  0  0  0
 31 28  2  0  0  0  0
 32 33  1  0  0  0  0
 34 33  1  0  0  0  0
M  END
>  <MODEL>
8

>  <REMARK>
 VINA RESULT:      -6.6      2.981      6.417
  Name = 
  6 active torsions:
  status: ('A' for Active; 'I' for Inactive)
    1  A    between atoms: C_1  and  C_19
    2  A    between atoms: O_3  and  C_13
    3  A    between atoms: O_3  and  C_17
    4  A    between atoms: C_11  and  C_14
    5  A    between atoms: C_11  and  C_25
    6  A    between atoms: C_12  and  C_28
                            x       y       z     vdW  Elec       q    Type
                         _______ _______ _______ _____ _____    ______ ____

>  <TORSDO>
F 6

$$$$
=
 OpenBabel11052414023D

 34 39  0  0  1  0  0  0  0  0999 V2000
  185.1460  178.0490  137.8720 C   0  0  2  0  0  3  0  0  0  0  0  0
  187.6250  178.8750  137.3090 C   0  0  1  0  0  3  0  0  0  0  0  0
  186.9110  177.9960  139.6870 C   0  0  2  0  0  3  0  0  0  0  0  0
  188.8500  178.2260  141.4990 C   0  0  2  0  0  3  0  0  0  0  0  0
  187.1900  178.7510  135.9870 O   0  0  0  0  0  1  0  0  0  0  0  0
  189.4370  178.3790  138.9620 C   0  0  0  0  0  2  0  0  0  0  0  0
  186.5090  178.5990  138.3420 C   0  0  2  0  0  3  0  0  0  0  0  0
  188.8240  176.8590  140.8450 C   0  0  0  0  0  2  0  0  0  0  0  0
  185.9960  178.6080  140.7430 C   0  0  2  0  0  3  0  0  0  0  0  0
  184.2380  177.6930  139.0710 C   0  0  0  0  0  2  0  0  0  0  0  0
  188.9110  178.0880  137.5530 C   0  0  1  0  0  3  0  0  0  0  0  0
  187.7220  178.3700  142.5420 C   0  0  0  0  0  2  0  0  0  0  0  0
  186.3060  177.9740  142.0980 C   0  0  1  0  0  3  0  0  0  0  0  0
  188.4010  178.0790  140.0450 C   0  0  2  0  0  0  0  0  0  0  0  0
  184.5040  178.5360  140.3320 C   0  0  0  0  0  2  0  0  0  0  0  0
  184.7500  178.7530  145.4890 C   0  0  0  0  0  0  0  0  0  0  0  0
  183.4440  179.0820  145.1130 C   0  0  0  0  0  3  0  0  0  0  0  0
  185.3200  178.3560  143.1620 C   0  0  0  0  0  0  0  0  0  0  0  0
  183.0760  179.0480  143.7650 C   0  0  0  0  0  3  0  0  0  0  0  0
  185.6860  178.3900  144.5180 C   0  0  0  0  0  3  0  0  0  0  0  0
  184.0110  178.6860  142.7920 C   0  0  0  0  0  3  0  0  0  0  0  0
  185.1080  178.7850  146.7950 F   0  0  0  0  0  0  0  0  0  0  0  0
  184.2860  176.7720  135.9060 C   0  0  0  0  0  1  0  0  0  0  0  0
  185.3190  176.8010  137.0160 C   0  0  0  0  0  2  0  0  0  0  0  0
  188.7250  176.5910  137.2900 C   0  0  0  0  0  2  0  0  0  0  0  0
  190.1040  174.5240  136.8690 C   0  0  0  0  0  0  0  0  0  0  0  0
  190.0240  175.8480  137.3370 C   0  0  0  0  0  0  0  0  0  0  0  0
  192.3960  175.8130  137.8500 C   0  0  0  0  0  3  0  0  0  0  0  0
  192.4760  174.4940  137.4020 C   0  0  0  0  0  3  0  0  0  0  0  0
  191.3360  173.8520  136.9120 C   0  0  0  0  0  3  0  0  0  0  0  0
  191.1750  176.4890  137.8150 C   0  0  0  0  0  3  0  0  0  0  0  0
  188.9570  173.9000  136.3630 O   0  0  0  0  0  0  0  0  0  0  0  0
  188.3710  172.7560  136.9670 C   0  0  0  0  0  2  0  0  0  0  0  0
  186.8750  172.9580  137.0820 C   0  0  0  0  0  1  0  0  0  0  0  0
  1 24  1  1  0  0  0
  1  7  1  0  0  0  0
  1 10  1  0  0  0  0
  2  5  1  6  0  0  0
  2 11  1  0  0  0  0
  2  7  1  0  0  0  0
  3 14  1  0  0  0  0
  3  9  1  0  0  0  0
  4 12  1  0  0  0  0
  6 14  1  0  0  0  0
  7  3  1  0  0  0  0
  8  4  1  0  0  0  0
  9 13  1  0  0  0  0
 10 15  1  0  0  0  0
 11  6  1  0  0  0  0
 13 12  1  0  0  0  0
 13 18  1  0  0  0  0
 14  8  1  0  0  0  0
 14  4  1  0  0  0  0
 15  9  1  0  0  0  0
 16 22  1  0  0  0  0
 17 16  1  0  0  0  0
 18 20  1  0  0  0  0
 19 17  2  0  0  0  0
 20 16  2  0  0  0  0
 21 18  2  0  0  0  0
 21 19  1  0  0  0  0
 23 24  1  0  0  0  0
 25 27  1  0  0  0  0
 25 11  1  0  0  0  0
 26 30  2  0  0  0  0
 26 27  1  0  0  0  0
 27 31  2  0  0  0  0
 29 28  2  0  0  0  0
 30 29  1  0  0  0  0
 31 28  1  0  0  0  0
 32 26  1  0  0  0  0
 32 33  1  0  0  0  0
 33 34  1  0  0  0  0
M  END
>  <MODEL>
9

>  <REMARK>
 VINA RESULT:      -6.6      1.464      2.047
  Name = 
  6 active torsions:
  status: ('A' for Active; 'I' for Inactive)
    1  A    between atoms: C_1  and  C_19
    2  A    between atoms: O_3  and  C_13
    3  A    between atoms: O_3  and  C_17
    4  A    between atoms: C_11  and  C_14
    5  A    between atoms: C_11  and  C_25
    6  A    between atoms: C_12  and  C_28
                            x       y       z     vdW  Elec       q    Type
                         _______ _______ _______ _____ _____    ______ ____

>  <TORSDO>
F 6

$$$$
