=
 OpenBabel11052412253D

 30 35  0  0  1  0  0  0  0  0999 V2000
  182.6150  178.5550  142.4060 C   0  0  2  0  0  3  0  0  0  0  0  0
  184.4720  178.4810  144.0970 C   0  0  0  0  0  0  0  0  0  0  0  0
  185.5570  179.0020  139.1930 C   0  0  0  0  0  2  0  0  0  0  0  0
  182.4650  177.9330  140.9910 C   0  0  1  0  0  3  0  0  0  0  0  0
  181.5720  179.6340  142.6530 C   0  0  0  0  0  2  0  0  0  0  0  0
  178.9430  177.3250  141.6100 O   0  0  0  0  0  0  0  0  0  0  0  0
  181.4550  176.6900  138.3360 N   0  0  0  0  0  0  0  0  0  0  0  0
  179.9690  177.9900  141.6170 C   0  0  0  0  0  0  0  0  0  0  0  0
  182.4170  177.7010  137.9040 C   0  0  2  0  0  3  0  0  0  0  0  0
  184.7580  178.2520  138.1490 C   0  0  1  0  0  3  0  0  0  0  0  0
  180.1860  179.0000  142.7220 C   0  0  2  0  0  3  0  0  0  0  0  0
  180.9980  177.8230  140.5160 C   0  0  2  0  0  3  0  0  0  0  0  0
  185.7670  177.8830  144.2270 N   0  0  0  0  0  0  0  0  0  0  0  0
  182.7680  177.2650  136.5930 O   0  0  0  0  0  0  0  0  0  0  0  0
  181.2740  175.7740  137.2640 C   0  0  0  0  0  3  0  0  0  0  0  0
  183.7280  178.5690  145.1090 O   0  0  0  0  0  0  0  0  0  0  0  0
  184.5770  179.3060  140.3060 C   0  0  1  0  0  3  0  0  0  0  0  0
  186.5800  177.7760  143.2200 C   0  0  0  0  0  3  0  0  0  0  0  0
  184.0190  179.0540  142.7780 C   0  0  1  0  0  3  0  0  0  0  0  0
  183.2710  178.6360  139.8810 C   0  0  1  0  0  3  0  0  0  0  0  0
  185.6150  177.1300  137.5890 C   0  0  0  0  0  1  0  0  0  0  0  0
  183.5750  177.6970  138.8060 N   0  0  1  0  0  0  0  0  0  0  0  0
  182.0510  176.1230  136.2560 C   0  0  0  0  0  3  0  0  0  0  0  0
  181.1140  175.2990  140.3300 C   0  0  0  0  0  1  0  0  0  0  0  0
  186.2010  178.2580  141.8840 C   0  0  0  0  0  3  0  0  0  0  0  0
  185.0140  178.8400  141.6660 C   0  0  0  0  0  0  0  0  0  0  0  0
  180.7530  176.5970  139.6180 C   0  0  2  0  0  3  0  0  0  0  0  0
  179.1380  180.1010  142.6730 C   0  0  0  0  0  2  0  0  0  0  0  0
  178.9310  181.4320  140.9260 C   0  0  0  0  0  1  0  0  0  0  0  0
  179.6740  181.2510  142.0920 O   0  0  0  0  0  0  0  0  0  0  0  0
  1  5  1  6  0  0  0
  1 19  1  0  0  0  0
  2 13  1  0  0  0  0
  2 16  2  0  0  0  0
  3 17  1  0  0  0  0
  4  1  1  0  0  0  0
  5 11  1  0  0  0  0
  6  8  2  0  0  0  0
  7 27  1  0  0  0  0
  8 11  1  0  0  0  0
  9  7  1  0  0  0  0
  9 22  1  0  0  0  0
 10 22  1  0  0  0  0
 10  3  1  0  0  0  0
 12  4  1  0  0  0  0
 12  8  1  0  0  0  0
 14  9  1  0  0  0  0
 15  7  1  0  0  0  0
 17 26  1  0  0  0  0
 18 13  2  0  0  0  0
 19  2  1  0  0  0  0
 20 17  1  0  0  0  0
 20  4  1  0  0  0  0
 21 10  1  0  0  0  0
 22 20  1  0  0  0  0
 23 14  1  0  0  0  0
 23 15  2  0  0  0  0
 25 18  1  0  0  0  0
 26 25  2  0  0  0  0
 26 19  1  0  0  0  0
 27 24  1  0  0  0  0
 27 12  1  0  0  0  0
 28 11  1  0  0  0  0
 29 30  1  0  0  0  0
 30 28  1  0  0  0  0
M  END
>  <MODEL>
1

>  <REMARK>
 VINA RESULT:      -6.2      0.000      0.000
  Name = 
  2 active torsions:
  status: ('A' for Active; 'I' for Inactive)
    1  A    between atoms: C_9  and  C_12
    2  A    between atoms: C_9  and  O_21
                            x       y       z     vdW  Elec       q    Type
                         _______ _______ _______ _____ _____    ______ ____

>  <TORSDO>
F 2

$$$$
=
 OpenBabel11052412253D

 30 35  0  0  1  0  0  0  0  0999 V2000
  188.8200  177.6120  146.5140 C   0  0  2  0  0  3  0  0  0  0  0  0
  187.1710  178.8120  147.9810 C   0  0  0  0  0  0  0  0  0  0  0  0
  185.8090  177.3460  143.3440 C   0  0  0  0  0  2  0  0  0  0  0  0
  189.1370  177.7140  144.9970 C   0  0  1  0  0  3  0  0  0  0  0  0
  189.4130  176.3510  147.1230 C   0  0  0  0  0  2  0  0  0  0  0  0
  192.6600  177.1860  145.6770 O   0  0  0  0  0  0  0  0  0  0  0  0
  190.4380  177.7150  142.1830 N   0  0  0  0  0  0  0  0  0  0  0  0
  191.4650  176.9570  145.7940 C   0  0  0  0  0  0  0  0  0  0  0  0
  189.1630  177.0320  141.9770 C   0  0  2  0  0  3  0  0  0  0  0  0
  186.7900  177.4380  142.1950 C   0  0  1  0  0  3  0  0  0  0  0  0
  190.9360  176.4450  147.1150 C   0  0  2  0  0  3  0  0  0  0  0  0
  190.5290  177.1600  144.6180 C   0  0  2  0  0  3  0  0  0  0  0  0
  186.1820  179.8400  147.8480 N   0  0  0  0  0  0  0  0  0  0  0  0
  188.9500  177.1750  140.5750 O   0  0  0  0  0  0  0  0  0  0  0  0
  190.9000  178.1650  140.9160 C   0  0  0  0  0  3  0  0  0  0  0  0
  187.8660  178.7570  149.0290 O   0  0  0  0  0  0  0  0  0  0  0  0
  186.6520  177.0430  144.5660 C   0  0  1  0  0  3  0  0  0  0  0  0
  185.4290  179.9390  146.7940 C   0  0  0  0  0  3  0  0  0  0  0  0
  187.3430  177.7690  146.9070 C   0  0  1  0  0  3  0  0  0  0  0  0
  188.0960  177.0590  144.0690 C   0  0  1  0  0  3  0  0  0  0  0  0
  186.3750  178.5830  141.2880 C   0  0  0  0  0  1  0  0  0  0  0  0
  188.1140  177.7000  142.7570 N   0  0  1  0  0  0  0  0  0  0  0  0
  190.0170  177.8440  139.9890 C   0  0  0  0  0  3  0  0  0  0  0  0
  191.3210  179.3980  143.7360 C   0  0  0  0  0  1  0  0  0  0  0  0
  185.5650  178.9980  145.6730 C   0  0  0  0  0  3  0  0  0  0  0  0
  186.4560  177.9970  145.7100 C   0  0  0  0  0  0  0  0  0  0  0  0
  191.1680  177.9120  143.4370 C   0  0  2  0  0  3  0  0  0  0  0  0
  191.5160  175.0790  147.4460 C   0  0  0  0  0  2  0  0  0  0  0  0
  192.9820  175.9080  148.8690 C   0  0  0  0  0  1  0  0  0  0  0  0
  192.8860  175.1830  147.6830 O   0  0  0  0  0  0  0  0  0  0  0  0
  1 19  1  0  0  0  0
  1  5  1  6  0  0  0
  2 16  2  0  0  0  0
  3 17  1  0  0  0  0
  4  1  1  0  0  0  0
  6  8  2  0  0  0  0
  7 27  1  0  0  0  0
  8 11  1  0  0  0  0
  9  7  1  0  0  0  0
  9 22  1  0  0  0  0
 10 22  1  0  0  0  0
 10  3  1  0  0  0  0
 11  5  1  0  0  0  0
 11 28  1  0  0  0  0
 12  4  1  0  0  0  0
 12  8  1  0  0  0  0
 13  2  1  0  0  0  0
 14  9  1  0  0  0  0
 15  7  1  0  0  0  0
 17 26  1  0  0  0  0
 18 13  2  0  0  0  0
 19  2  1  0  0  0  0
 20 17  1  0  0  0  0
 20  4  1  0  0  0  0
 21 10  1  0  0  0  0
 22 20  1  0  0  0  0
 23 14  1  0  0  0  0
 23 15  2  0  0  0  0
 25 26  2  0  0  0  0
 25 18  1  0  0  0  0
 26 19  1  0  0  0  0
 27 24  1  0  0  0  0
 27 12  1  0  0  0  0
 28 30  1  0  0  0  0
 30 29  1  0  0  0  0
M  END
>  <MODEL>
2

>  <REMARK>
 VINA RESULT:      -5.7      5.588      9.186
  Name = 
  2 active torsions:
  status: ('A' for Active; 'I' for Inactive)
    1  A    between atoms: C_9  and  C_12
    2  A    between atoms: C_9  and  O_21
                            x       y       z     vdW  Elec       q    Type
                         _______ _______ _______ _____ _____    ______ ____

>  <TORSDO>
F 2

$$$$
=
 OpenBabel11052412253D

 30 35  0  0  1  0  0  0  0  0999 V2000
  184.6280  178.5220  139.8540 C   0  0  2  0  0  3  0  0  0  0  0  0
  185.3560  178.7270  142.2500 C   0  0  0  0  0  0  0  0  0  0  0  0
  188.8020  178.0080  138.6280 C   0  0  0  0  0  2  0  0  0  0  0  0
  185.0910  177.5960  138.6970 C   0  0  1  0  0  3  0  0  0  0  0  0
  183.8110  179.6950  139.3350 C   0  0  0  0  0  2  0  0  0  0  0  0
  181.6820  177.3820  137.4770 O   0  0  0  0  0  0  0  0  0  0  0  0
  185.3270  175.8320  136.1580 N   0  0  0  0  0  0  0  0  0  0  0  0
  182.6690  177.9630  137.9070 C   0  0  0  0  0  0  0  0  0  0  0  0
  186.5390  176.6480  136.1290 C   0  0  2  0  0  3  0  0  0  0  0  0
  188.5060  177.0860  137.4640 C   0  0  1  0  0  3  0  0  0  0  0  0
  182.4860  179.1880  138.7750 C   0  0  2  0  0  3  0  0  0  0  0  0
  184.0590  177.4740  137.5520 C   0  0  2  0  0  3  0  0  0  0  0  0
  186.2870  178.0940  143.1350 N   0  0  0  0  0  0  0  0  0  0  0  0
  187.4080  175.8940  135.2890 O   0  0  0  0  0  0  0  0  0  0  0  0
  185.5420  174.7040  135.3200 C   0  0  0  0  0  3  0  0  0  0  0  0
  184.2380  179.0990  142.6930 O   0  0  0  0  0  0  0  0  0  0  0  0
  187.4700  178.6280  138.9960 C   0  0  1  0  0  3  0  0  0  0  0  0
  187.4580  177.6990  142.7360 C   0  0  0  0  0  3  0  0  0  0  0  0
  185.7270  179.0020  140.8150 C   0  0  1  0  0  3  0  0  0  0  0  0
  186.4510  177.9640  138.0720 C   0  0  1  0  0  3  0  0  0  0  0  0
  189.3130  175.8110  137.6320 C   0  0  0  0  0  1  0  0  0  0  0  0
  187.0760  176.7800  137.4890 N   0  0  1  0  0  0  0  0  0  0  0  0
  186.7640  174.7540  134.8240 C   0  0  0  0  0  3  0  0  0  0  0  0
  183.8030  174.9750  137.8800 C   0  0  0  0  0  1  0  0  0  0  0  0
  187.8830  177.8770  141.3400 C   0  0  0  0  0  3  0  0  0  0  0  0
  187.0850  178.4680  140.4400 C   0  0  0  0  0  0  0  0  0  0  0  0
  184.0780  176.0900  136.8790 C   0  0  2  0  0  3  0  0  0  0  0  0
  181.8140  180.3120  138.0020 C   0  0  0  0  0  2  0  0  0  0  0  0
  181.1800  182.4240  137.9680 C   0  0  0  0  0  1  0  0  0  0  0  0
  181.9660  181.5210  138.6820 O   0  0  0  0  0  0  0  0  0  0  0  0
  1  5  1  6  0  0  0
  1 19  1  0  0  0  0
  2 16  2  0  0  0  0
  2 13  1  0  0  0  0
  3 17  1  0  0  0  0
  4  1  1  0  0  0  0
  6  8  2  0  0  0  0
  7 27  1  0  0  0  0
  8 11  1  0  0  0  0
  9  7  1  0  0  0  0
  9 22  1  0  0  0  0
 10 22  1  0  0  0  0
 10 21  1  0  0  0  0
 10  3  1  0  0  0  0
 11  5  1  0  0  0  0
 12  8  1  0  0  0  0
 12  4  1  0  0  0  0
 14  9  1  0  0  0  0
 15  7  1  0  0  0  0
 17 26  1  0  0  0  0
 18 13  2  0  0  0  0
 19  2  1  0  0  0  0
 20  4  1  0  0  0  0
 20 17  1  0  0  0  0
 22 20  1  0  0  0  0
 23 14  1  0  0  0  0
 23 15  2  0  0  0  0
 25 18  1  0  0  0  0
 26 19  1  0  0  0  0
 26 25  2  0  0  0  0
 27 12  1  0  0  0  0
 27 24  1  0  0  0  0
 28 30  1  0  0  0  0
 28 11  1  0  0  0  0
 29 30  1  0  0  0  0
M  END
>  <MODEL>
3

>  <REMARK>
 VINA RESULT:      -5.7      2.884      3.848
  Name = 
  2 active torsions:
  status: ('A' for Active; 'I' for Inactive)
    1  A    between atoms: C_9  and  C_12
    2  A    between atoms: C_9  and  O_21
                            x       y       z     vdW  Elec       q    Type
                         _______ _______ _______ _____ _____    ______ ____

>  <TORSDO>
F 2

$$$$
=
 OpenBabel11052412253D

 30 35  0  0  1  0  0  0  0  0999 V2000
  190.2050  177.1120  138.3790 C   0  0  2  0  0  3  0  0  0  0  0  0
  188.2650  178.3160  137.3300 C   0  0  0  0  0  0  0  0  0  0  0  0
  189.0970  173.4560  136.2360 C   0  0  0  0  0  2  0  0  0  0  0  0
  191.2260  176.0850  137.8170 C   0  0  1  0  0  3  0  0  0  0  0  0
  190.2230  177.1390  139.9000 C   0  0  0  0  0  2  0  0  0  0  0  0
  193.8500  177.5560  139.8430 O   0  0  0  0  0  0  0  0  0  0  0  0
  193.7040  174.3290  137.1980 N   0  0  0  0  0  0  0  0  0  0  0  0
  192.7280  177.1170  139.6350 C   0  0  0  0  0  0  0  0  0  0  0  0
  192.5970  173.3750  137.2170 C   0  0  2  0  0  3  0  0  0  0  0  0
  190.5110  172.9400  136.0740 C   0  0  1  0  0  3  0  0  0  0  0  0
  191.5540  177.7050  140.3860 C   0  0  2  0  0  3  0  0  0  0  0  0
  192.5210  175.9790  138.6540 C   0  0  2  0  0  3  0  0  0  0  0  0
  187.6390  178.4030  136.0450 N   0  0  0  0  0  0  0  0  0  0  0  0
  193.1120  172.2780  136.4670 O   0  0  0  0  0  0  0  0  0  0  0  0
  194.7840  173.7280  136.4960 C   0  0  0  0  0  3  0  0  0  0  0  0
  188.3500  179.3470  138.0470 O   0  0  0  0  0  0  0  0  0  0  0  0
  189.1860  174.5450  137.2840 C   0  0  1  0  0  3  0  0  0  0  0  0
  187.5140  177.3710  135.2680 C   0  0  0  0  0  3  0  0  0  0  0  0
  188.7670  176.9930  137.8510 C   0  0  1  0  0  3  0  0  0  0  0  0
  190.6730  174.6610  137.6160 C   0  0  1  0  0  3  0  0  0  0  0  0
  190.7710  172.6800  134.6010 C   0  0  0  0  0  1  0  0  0  0  0  0
  191.4220  173.9720  136.5690 N   0  0  1  0  0  0  0  0  0  0  0  0
  194.4200  172.5320  136.0720 C   0  0  0  0  0  3  0  0  0  0  0  0
  193.9810  176.7200  136.7220 C   0  0  0  0  0  1  0  0  0  0  0  0
  188.0240  176.0520  135.6700 C   0  0  0  0  0  3  0  0  0  0  0  0
  188.6160  175.8690  136.8580 C   0  0  0  0  0  0  0  0  0  0  0  0
  193.7590  175.6640  137.7970 C   0  0  2  0  0  3  0  0  0  0  0  0
  191.6790  177.4560  141.8800 C   0  0  0  0  0  2  0  0  0  0  0  0
  191.2920  176.0580  143.5410 C   0  0  0  0  0  1  0  0  0  0  0  0
  190.8530  176.3990  142.2630 O   0  0  0  0  0  0  0  0  0  0  0  0
  1  5  1  1  0  0  0
  2 19  1  0  0  0  0
  2 16  2  0  0  0  0
  3 17  1  0  0  0  0
  4  1  1  0  0  0  0
  4 12  1  0  0  0  0
  5 11  1  0  0  0  0
  7  9  1  0  0  0  0
  7 27  1  0  0  0  0
  8  6  2  0  0  0  0
  8 11  1  0  0  0  0
 10  3  1  0  0  0  0
 10 22  1  0  0  0  0
 11 28  1  0  0  0  0
 12  8  1  0  0  0  0
 13  2  1  0  0  0  0
 14  9  1  0  0  0  0
 15  7  1  0  0  0  0
 17 20  1  0  0  0  0
 18 25  1  0  0  0  0
 18 13  2  0  0  0  0
 19  1  1  0  0  0  0
 20  4  1  0  0  0  0
 21 10  1  0  0  0  0
 22  9  1  0  0  0  0
 22 20  1  0  0  0  0
 23 14  1  0  0  0  0
 23 15  2  0  0  0  0
 24 27  1  0  0  0  0
 25 26  2  0  0  0  0
 26 17  1  0  0  0  0
 26 19  1  0  0  0  0
 27 12  1  0  0  0  0
 28 30  1  0  0  0  0
 30 29  1  0  0  0  0
M  END
>  <MODEL>
4

>  <REMARK>
 VINA RESULT:      -5.6      7.305     10.546
  Name = 
  2 active torsions:
  status: ('A' for Active; 'I' for Inactive)
    1  A    between atoms: C_9  and  C_12
    2  A    between atoms: C_9  and  O_21
                            x       y       z     vdW  Elec       q    Type
                         _______ _______ _______ _____ _____    ______ ____

>  <TORSDO>
F 2

$$$$
=
 OpenBabel11052412253D

 30 35  0  0  1  0  0  0  0  0999 V2000
  185.5150  178.3420  140.3340 C   0  0  2  0  0  3  0  0  0  0  0  0
  186.0450  177.9880  142.7650 C   0  0  0  0  0  0  0  0  0  0  0  0
  189.7810  178.1020  139.3690 C   0  0  0  0  0  2  0  0  0  0  0  0
  186.0830  177.7030  139.0370 C   0  0  1  0  0  3  0  0  0  0  0  0
  184.7260  179.6060  140.0330 C   0  0  0  0  0  2  0  0  0  0  0  0
  182.7870  177.7920  137.5270 O   0  0  0  0  0  0  0  0  0  0  0  0
  186.5480  176.5690  136.1900 N   0  0  0  0  0  0  0  0  0  0  0  0
  183.7270  178.2530  138.1580 C   0  0  0  0  0  0  0  0  0  0  0  0
  187.7470  177.3640  136.4480 C   0  0  2  0  0  3  0  0  0  0  0  0
  189.5930  177.4740  138.0040 C   0  0  1  0  0  3  0  0  0  0  0  0
  183.4570  179.2470  139.2650 C   0  0  2  0  0  3  0  0  0  0  0  0
  185.1490  177.8520  137.8150 C   0  0  2  0  0  3  0  0  0  0  0  0
  186.9100  177.1630  143.5540 N   0  0  0  0  0  0  0  0  0  0  0  0
  188.6920  176.8180  135.5320 O   0  0  0  0  0  0  0  0  0  0  0  0
  186.8460  175.6620  135.1360 C   0  0  0  0  0  3  0  0  0  0  0  0
  184.8890  178.2530  143.1890 O   0  0  0  0  0  0  0  0  0  0  0  0
  188.4150  178.6280  139.7590 C   0  0  1  0  0  3  0  0  0  0  0  0
  188.1150  176.8660  143.1720 C   0  0  0  0  0  3  0  0  0  0  0  0
  186.5260  178.5830  141.4660 C   0  0  1  0  0  3  0  0  0  0  0  0
  187.4840  178.1990  138.6270 C   0  0  1  0  0  3  0  0  0  0  0  0
  190.4020  176.1910  137.9400 C   0  0  0  0  0  1  0  0  0  0  0  0
  188.1700  177.1780  137.8410 N   0  0  1  0  0  0  0  0  0  0  0  0
  188.1030  175.8190  134.7670 C   0  0  0  0  0  3  0  0  0  0  0  0
  184.9020  175.3460  137.5390 C   0  0  0  0  0  1  0  0  0  0  0  0
  188.6490  177.3570  141.8940 C   0  0  0  0  0  3  0  0  0  0  0  0
  187.9170  178.1430  141.0910 C   0  0  0  0  0  0  0  0  0  0  0  0
  185.2420  176.6600  136.8460 C   0  0  2  0  0  3  0  0  0  0  0  0
  182.8350  180.5220  138.7190 C   0  0  0  0  0  2  0  0  0  0  0  0
  180.9800  181.6490  138.3260 C   0  0  0  0  0  1  0  0  0  0  0  0
  181.4910  180.5980  139.0860 O   0  0  0  0  0  0  0  0  0  0  0  0
  1  5  1  6  0  0  0
  1 19  1  0  0  0  0
  2 16  2  0  0  0  0
  2 13  1  0  0  0  0
  3 17  1  0  0  0  0
  4  1  1  0  0  0  0
  6  8  2  0  0  0  0
  7  9  1  0  0  0  0
  7 27  1  0  0  0  0
  8 11  1  0  0  0  0
  9 22  1  0  0  0  0
 10  3  1  0  0  0  0
 11  5  1  0  0  0  0
 12  8  1  0  0  0  0
 12  4  1  0  0  0  0
 14  9  1  0  0  0  0
 15  7  1  0  0  0  0
 17 26  1  0  0  0  0
 18 13  2  0  0  0  0
 19  2  1  0  0  0  0
 20  4  1  0  0  0  0
 20 17  1  0  0  0  0
 21 10  1  0  0  0  0
 22 10  1  0  0  0  0
 22 20  1  0  0  0  0
 23 15  2  0  0  0  0
 23 14  1  0  0  0  0
 25 18  1  0  0  0  0
 26 19  1  0  0  0  0
 26 25  2  0  0  0  0
 27 24  1  0  0  0  0
 27 12  1  0  0  0  0
 28 30  1  0  0  0  0
 28 11  1  0  0  0  0
 29 30  1  0  0  0  0
M  END
>  <MODEL>
5

>  <REMARK>
 VINA RESULT:      -5.6      3.098      4.436
  Name = 
  2 active torsions:
  status: ('A' for Active; 'I' for Inactive)
    1  A    between atoms: C_9  and  C_12
    2  A    between atoms: C_9  and  O_21
                            x       y       z     vdW  Elec       q    Type
                         _______ _______ _______ _____ _____    ______ ____

>  <TORSDO>
F 2

$$$$
=
 OpenBabel11052412253D

 30 35  0  0  1  0  0  0  0  0999 V2000
  183.7520  178.3730  138.2500 C   0  0  2  0  0  3  0  0  0  0  0  0
  182.4060  180.3720  138.9610 C   0  0  0  0  0  0  0  0  0  0  0  0
  180.5740  175.7210  139.6820 C   0  0  0  0  0  2  0  0  0  0  0  0
  183.3560  177.0360  137.5670 C   0  0  1  0  0  3  0  0  0  0  0  0
  185.1470  178.3000  138.8500 C   0  0  0  0  0  2  0  0  0  0  0  0
  186.4470  177.0670  135.6690 O   0  0  0  0  0  0  0  0  0  0  0  0
  183.2440  174.4020  135.9340 N   0  0  0  0  0  0  0  0  0  0  0  0
  185.7680  177.1850  136.6790 C   0  0  0  0  0  0  0  0  0  0  0  0
  182.6570  174.0390  137.2220 C   0  0  2  0  0  3  0  0  0  0  0  0
  180.7960  174.6420  138.6430 C   0  0  1  0  0  3  0  0  0  0  0  0
  186.1800  178.1870  137.7340 C   0  0  2  0  0  3  0  0  0  0  0  0
  184.5410  176.3170  136.8810 C   0  0  2  0  0  3  0  0  0  0  0  0
  181.0410  180.8030  138.9150 N   0  0  0  0  0  0  0  0  0  0  0  0
  181.9000  172.8740  136.9070 O   0  0  0  0  0  0  0  0  0  0  0  0
  182.8400  173.4280  134.9810 C   0  0  0  0  0  3  0  0  0  0  0  0
  183.3260  181.2140  138.7910 O   0  0  0  0  0  0  0  0  0  0  0  0
  181.8100  176.5940  139.6230 C   0  0  1  0  0  3  0  0  0  0  0  0
  180.0520  179.9810  139.0930 C   0  0  0  0  0  3  0  0  0  0  0  0
  182.7460  178.9350  139.2660 C   0  0  1  0  0  3  0  0  0  0  0  0
  182.6520  176.0180  138.4860 C   0  0  1  0  0  3  0  0  0  0  0  0
  179.4870  174.3810  137.9200 C   0  0  0  0  0  1  0  0  0  0  0  0
  181.8000  175.1320  137.6980 N   0  0  1  0  0  0  0  0  0  0  0  0
  182.0520  172.5450  135.5660 C   0  0  0  0  0  3  0  0  0  0  0  0
  183.4610  176.4470  134.5940 C   0  0  0  0  0  1  0  0  0  0  0  0
  180.2890  178.5520  139.3420 C   0  0  0  0  0  3  0  0  0  0  0  0
  181.5320  178.0560  139.4120 C   0  0  0  0  0  0  0  0  0  0  0  0
  184.1170  175.5360  135.6250 C   0  0  2  0  0  3  0  0  0  0  0  0
  187.5250  177.8210  138.3420 C   0  0  0  0  0  2  0  0  0  0  0  0
  189.0210  178.9890  137.2180 C   0  0  0  0  0  1  0  0  0  0  0  0
  188.3370  178.9520  138.4320 O   0  0  0  0  0  0  0  0  0  0  0  0
  1  5  1  1  0  0  0
  1 19  1  0  0  0  0
  2 19  1  0  0  0  0
  4  1  1  0  0  0  0
  4 20  1  0  0  0  0
  6  8  2  0  0  0  0
  7  9  1  0  0  0  0
  8 12  1  0  0  0  0
  8 11  1  0  0  0  0
  9 22  1  0  0  0  0
 10  3  1  0  0  0  0
 11 28  1  0  0  0  0
 11  5  1  0  0  0  0
 12  4  1  0  0  0  0
 13  2  1  0  0  0  0
 13 18  2  0  0  0  0
 14  9  1  0  0  0  0
 15 23  2  0  0  0  0
 15  7  1  0  0  0  0
 16  2  2  0  0  0  0
 17  3  1  0  0  0  0
 18 25  1  0  0  0  0
 19 26  1  0  0  0  0
 20 17  1  0  0  0  0
 21 10  1  0  0  0  0
 22 20  1  0  0  0  0
 22 10  1  0  0  0  0
 23 14  1  0  0  0  0
 24 27  1  0  0  0  0
 25 26  2  0  0  0  0
 26 17  1  0  0  0  0
 27  7  1  0  0  0  0
 27 12  1  0  0  0  0
 28 30  1  0  0  0  0
 29 30  1  0  0  0  0
M  END
>  <MODEL>
6

>  <REMARK>
 VINA RESULT:      -5.5      3.485      6.264
  Name = 
  2 active torsions:
  status: ('A' for Active; 'I' for Inactive)
    1  A    between atoms: C_9  and  C_12
    2  A    between atoms: C_9  and  O_21
                            x       y       z     vdW  Elec       q    Type
                         _______ _______ _______ _____ _____    ______ ____

>  <TORSDO>
F 2

$$$$
=
 OpenBabel11052412253D

 30 35  0  0  1  0  0  0  0  0999 V2000
  188.8540  176.9880  139.7840 C   0  0  2  0  0  3  0  0  0  0  0  0
  188.9580  176.9140  142.2940 C   0  0  0  0  0  0  0  0  0  0  0  0
  193.2240  177.2220  139.6080 C   0  0  0  0  0  2  0  0  0  0  0  0
  189.7210  176.3200  138.6820 C   0  0  1  0  0  3  0  0  0  0  0  0
  187.9980  178.1090  139.2160 C   0  0  0  0  0  2  0  0  0  0  0  0
  186.7740  175.8510  136.6200 O   0  0  0  0  0  0  0  0  0  0  0  0
  190.8310  175.0170  136.0980 N   0  0  0  0  0  0  0  0  0  0  0  0
  187.5230  176.4830  137.3520 C   0  0  0  0  0  0  0  0  0  0  0  0
  191.8640  175.9800  136.4740 C   0  0  2  0  0  3  0  0  0  0  0  0
  193.3650  176.4610  138.3070 C   0  0  1  0  0  3  0  0  0  0  0  0
  186.9420  177.5240  138.2820 C   0  0  2  0  0  3  0  0  0  0  0  0
  189.0190  176.2420  137.3070 C   0  0  2  0  0  3  0  0  0  0  0  0
  189.7480  176.2790  143.3050 N   0  0  0  0  0  0  0  0  0  0  0  0
  193.0180  175.4850  135.8010 O   0  0  0  0  0  0  0  0  0  0  0  0
  191.4200  174.0690  135.2160 C   0  0  0  0  0  3  0  0  0  0  0  0
  187.7210  177.0630  142.4790 O   0  0  0  0  0  0  0  0  0  0  0  0
  191.7590  177.5970  139.6960 C   0  0  1  0  0  3  0  0  0  0  0  0
  191.0290  176.1090  143.1740 C   0  0  0  0  0  3  0  0  0  0  0  0
  189.6020  177.4540  141.0420 C   0  0  1  0  0  3  0  0  0  0  0  0
  191.1090  176.9560  138.4710 C   0  0  1  0  0  3  0  0  0  0  0  0
  194.3100  175.2930  138.5230 C   0  0  0  0  0  1  0  0  0  0  0  0
  192.0390  175.9690  137.9320 N   0  0  1  0  0  0  0  0  0  0  0  0
  192.6980  174.3560  135.0570 C   0  0  0  0  0  3  0  0  0  0  0  0
  189.1110  173.7110  137.2630 C   0  0  0  0  0  1  0  0  0  0  0  0
  191.7320  176.5550  141.9620 C   0  0  0  0  0  3  0  0  0  0  0  0
  191.0800  177.1670  140.9650 C   0  0  0  0  0  0  0  0  0  0  0  0
  189.4240  174.9940  136.5030 C   0  0  2  0  0  3  0  0  0  0  0  0
  186.2940  178.6570  137.5020 C   0  0  0  0  0  2  0  0  0  0  0  0
  184.3570  178.2420  138.4730 C   0  0  0  0  0  1  0  0  0  0  0  0
  185.2910  179.2550  138.2650 O   0  0  0  0  0  0  0  0  0  0  0  0
  1  5  1  6  0  0  0
  1 19  1  0  0  0  0
  2 16  2  0  0  0  0
  2 13  1  0  0  0  0
  3 17  1  0  0  0  0
  4  1  1  0  0  0  0
  6  8  2  0  0  0  0
  7  9  1  0  0  0  0
  7 27  1  0  0  0  0
  8 11  1  0  0  0  0
  9 22  1  0  0  0  0
 10 21  1  0  0  0  0
 10  3  1  0  0  0  0
 11  5  1  0  0  0  0
 12  8  1  0  0  0  0
 12  4  1  0  0  0  0
 14  9  1  0  0  0  0
 15  7  1  0  0  0  0
 17 26  1  0  0  0  0
 18 13  2  0  0  0  0
 19  2  1  0  0  0  0
 20  4  1  0  0  0  0
 20 17  1  0  0  0  0
 22 10  1  0  0  0  0
 22 20  1  0  0  0  0
 23 15  2  0  0  0  0
 23 14  1  0  0  0  0
 25 18  1  0  0  0  0
 26 19  1  0  0  0  0
 26 25  2  0  0  0  0
 27 24  1  0  0  0  0
 27 12  1  0  0  0  0
 28 30  1  0  0  0  0
 28 11  1  0  0  0  0
 30 29  1  0  0  0  0
M  END
>  <MODEL>
7

>  <REMARK>
 VINA RESULT:      -5.4      5.622      8.082
  Name = 
  2 active torsions:
  status: ('A' for Active; 'I' for Inactive)
    1  A    between atoms: C_9  and  C_12
    2  A    between atoms: C_9  and  O_21
                            x       y       z     vdW  Elec       q    Type
                         _______ _______ _______ _____ _____    ______ ____

>  <TORSDO>
F 2

$$$$
=
 OpenBabel11052412253D

 30 35  0  0  1  0  0  0  0  0999 V2000
  187.1140  176.9720  137.5700 C   0  0  2  0  0  3  0  0  0  0  0  0
  187.4800  178.2340  139.7120 C   0  0  0  0  0  0  0  0  0  0  0  0
  191.4420  176.4700  137.1240 C   0  0  0  0  0  2  0  0  0  0  0  0
  187.7900  175.7080  136.9740 C   0  0  1  0  0  3  0  0  0  0  0  0
  186.3120  177.7240  136.5190 C   0  0  0  0  0  2  0  0  0  0  0  0
  184.6070  174.6250  135.6130 O   0  0  0  0  0  0  0  0  0  0  0  0
  188.4860  173.0880  135.4680 N   0  0  0  0  0  0  0  0  0  0  0  0
  185.4870  175.4380  135.8550 C   0  0  0  0  0  0  0  0  0  0  0  0
  189.6400  173.9500  135.2210 C   0  0  2  0  0  3  0  0  0  0  0  0
  191.3690  175.1210  136.4400 C   0  0  1  0  0  3  0  0  0  0  0  0
  185.1110  176.8840  136.0940 C   0  0  2  0  0  3  0  0  0  0  0  0
  186.9400  175.0060  135.8890 C   0  0  2  0  0  3  0  0  0  0  0  0
  188.3110  178.1340  140.8740 N   0  0  0  0  0  0  0  0  0  0  0  0
  190.6630  173.0180  134.8790 O   0  0  0  0  0  0  0  0  0  0  0  0
  188.8830  171.7460  135.2190 C   0  0  0  0  0  3  0  0  0  0  0  0
  186.2900  178.6280  139.8350 O   0  0  0  0  0  0  0  0  0  0  0  0
  190.0380  177.0320  137.0510 C   0  0  1  0  0  3  0  0  0  0  0  0
  189.5470  177.7450  140.8060 C   0  0  0  0  0  3  0  0  0  0  0  0
  188.0340  177.9280  138.3440 C   0  0  1  0  0  3  0  0  0  0  0  0
  189.2010  175.9340  136.3970 C   0  0  1  0  0  3  0  0  0  0  0  0
  192.2160  174.1310  137.2180 C   0  0  0  0  0  1  0  0  0  0  0  0
  189.9700  174.6940  136.4430 N   0  0  1  0  0  0  0  0  0  0  0  0
  190.1580  171.7230  134.8800 C   0  0  0  0  0  3  0  0  0  0  0  0
  186.7840  172.8580  137.2220 C   0  0  0  0  0  1  0  0  0  0  0  0
  190.1560  177.3740  139.5200 C   0  0  0  0  0  3  0  0  0  0  0  0
  189.4610  177.4440  138.3770 C   0  0  0  0  0  0  0  0  0  0  0  0
  187.1350  173.4800  135.8760 C   0  0  2  0  0  3  0  0  0  0  0  0
  184.4930  177.5020  134.8500 C   0  0  0  0  0  2  0  0  0  0  0  0
  182.6270  177.6970  136.0100 C   0  0  0  0  0  1  0  0  0  0  0  0
  183.1280  177.2200  134.7990 O   0  0  0  0  0  0  0  0  0  0  0  0
  1  5  1  6  0  0  0
  1 19  1  0  0  0  0
  2 16  2  0  0  0  0
  2 13  1  0  0  0  0
  4  1  1  0  0  0  0
  6  8  2  0  0  0  0
  7 27  1  0  0  0  0
  8 12  1  0  0  0  0
  8 11  1  0  0  0  0
  9  7  1  0  0  0  0
  9 22  1  0  0  0  0
 10 22  1  0  0  0  0
 10  3  1  0  0  0  0
 10 21  1  0  0  0  0
 11  5  1  0  0  0  0
 12  4  1  0  0  0  0
 14 23  1  0  0  0  0
 14  9  1  0  0  0  0
 15  7  1  0  0  0  0
 17  3  1  0  0  0  0
 17 26  1  0  0  0  0
 18 13  2  0  0  0  0
 19 26  1  0  0  0  0
 19  2  1  0  0  0  0
 20 22  1  0  0  0  0
 20  4  1  0  0  0  0
 20 17  1  0  0  0  0
 23 15  2  0  0  0  0
 25 18  1  0  0  0  0
 26 25  2  0  0  0  0
 27 12  1  0  0  0  0
 27 24  1  0  0  0  0
 28 11  1  0  0  0  0
 30 28  1  0  0  0  0
 30 29  1  0  0  0  0
M  END
>  <MODEL>
8

>  <REMARK>
 VINA RESULT:      -5.4      5.030      7.469
  Name = 
  2 active torsions:
  status: ('A' for Active; 'I' for Inactive)
    1  A    between atoms: C_9  and  C_12
    2  A    between atoms: C_9  and  O_21
                            x       y       z     vdW  Elec       q    Type
                         _______ _______ _______ _____ _____    ______ ____

>  <TORSDO>
F 2

$$$$
=
 OpenBabel11052412253D

 30 35  0  0  1  0  0  0  0  0999 V2000
  188.2370  176.6820  138.0820 C   0  0  2  0  0  3  0  0  0  0  0  0
  188.6970  177.6700  140.3460 C   0  0  0  0  0  0  0  0  0  0  0  0
  192.5420  176.3330  137.3580 C   0  0  0  0  0  2  0  0  0  0  0  0
  188.8990  175.5180  137.2960 C   0  0  1  0  0  3  0  0  0  0  0  0
  187.3690  177.5430  137.1770 C   0  0  0  0  0  2  0  0  0  0  0  0
  185.6650  174.5480  135.9700 O   0  0  0  0  0  0  0  0  0  0  0  0
  189.5540  173.1260  135.4350 N   0  0  0  0  0  0  0  0  0  0  0  0
  186.5450  175.3430  136.2690 C   0  0  0  0  0  0  0  0  0  0  0  0
  190.6810  174.0360  135.2420 C   0  0  2  0  0  3  0  0  0  0  0  0
  192.4530  175.0810  136.5120 C   0  0  1  0  0  3  0  0  0  0  0  0
  186.1610  176.7380  136.7090 C   0  0  2  0  0  3  0  0  0  0  0  0
  188.0040  174.9410  136.1750 C   0  0  2  0  0  3  0  0  0  0  0  0
  189.5890  177.4420  141.4430 N   0  0  0  0  0  0  0  0  0  0  0  0
  191.6980  173.1780  134.7330 O   0  0  0  0  0  0  0  0  0  0  0  0
  189.9580  171.8350  134.9970 C   0  0  0  0  0  3  0  0  0  0  0  0
  187.5090  178.0200  140.5780 O   0  0  0  0  0  0  0  0  0  0  0  0
  191.1280  176.8700  137.4280 C   0  0  1  0  0  3  0  0  0  0  0  0
  190.8260  177.0910  141.2630 C   0  0  0  0  0  3  0  0  0  0  0  0
  189.1830  177.5520  138.9240 C   0  0  1  0  0  3  0  0  0  0  0  0
  190.2740  175.8460  136.6820 C   0  0  1  0  0  3  0  0  0  0  0  0
  193.3550  174.0190  137.1130 C   0  0  0  0  0  1  0  0  0  0  0  0
  191.0630  174.6270  136.5310 N   0  0  1  0  0  0  0  0  0  0  0  0
  191.2140  171.8830  134.5940 C   0  0  0  0  0  3  0  0  0  0  0  0
  187.9510  172.6380  137.2290 C   0  0  0  0  0  1  0  0  0  0  0  0
  191.3710  176.8990  139.9110 C   0  0  0  0  0  3  0  0  0  0  0  0
  190.6160  177.0980  138.8230 C   0  0  0  0  0  0  0  0  0  0  0  0
  188.2210  173.4340  135.9570 C   0  0  2  0  0  3  0  0  0  0  0  0
  185.4690  177.4960  135.5870 C   0  0  0  0  0  2  0  0  0  0  0  0
  183.5590  176.9940  134.6030 C   0  0  0  0  0  1  0  0  0  0  0  0
  184.0880  177.5010  135.7890 O   0  0  0  0  0  0  0  0  0  0  0  0
  1  5  1  6  0  0  0
  1 19  1  0  0  0  0
  2 16  2  0  0  0  0
  2 13  1  0  0  0  0
  3 17  1  0  0  0  0
  4  1  1  0  0  0  0
  6  8  2  0  0  0  0
  7 27  1  0  0  0  0
  8 11  1  0  0  0  0
  9  7  1  0  0  0  0
  9 22  1  0  0  0  0
 10 22  1  0  0  0  0
 10 21  1  0  0  0  0
 10  3  1  0  0  0  0
 11  5  1  0  0  0  0
 12  8  1  0  0  0  0
 12  4  1  0  0  0  0
 14  9  1  0  0  0  0
 15  7  1  0  0  0  0
 17 26  1  0  0  0  0
 18 13  2  0  0  0  0
 19  2  1  0  0  0  0
 20  4  1  0  0  0  0
 20 17  1  0  0  0  0
 22 20  1  0  0  0  0
 23 14  1  0  0  0  0
 23 15  2  0  0  0  0
 25 18  1  0  0  0  0
 26 19  1  0  0  0  0
 26 25  2  0  0  0  0
 27 12  1  0  0  0  0
 27 24  1  0  0  0  0
 28 30  1  0  0  0  0
 28 11  1  0  0  0  0
 29 30  1  0  0  0  0
M  END
>  <MODEL>
9

>  <REMARK>
 VINA RESULT:      -5.3      5.977      8.159
  Name = 
  2 active torsions:
  status: ('A' for Active; 'I' for Inactive)
    1  A    between atoms: C_9  and  C_12
    2  A    between atoms: C_9  and  O_21
                            x       y       z     vdW  Elec       q    Type
                         _______ _______ _______ _____ _____    ______ ____

>  <TORSDO>
F 2

$$$$
