=
 OpenBabel11052415243D

 37 41  0  0  1  0  0  0  0  0999 V2000
  193.0970  175.2210  135.1280 C   0  0  2  0  0  3  0  0  0  0  0  0
  192.5560  172.7980  135.6480 C   0  0  0  0  0  3  0  0  0  0  0  0
  190.9110  175.3150  136.4830 C   0  0  1  0  0  3  0  0  0  0  0  0
  190.3540  173.9220  136.1010 C   0  0  1  0  0  3  0  0  0  0  0  0
  191.3960  172.8600  136.3110 C   0  0  0  0  0  3  0  0  0  0  0  0
  191.7620  175.9200  135.3650 C   0  0  0  0  0  2  0  0  0  0  0  0
  192.9680  173.7860  134.6000 C   0  0  0  0  0  2  0  0  0  0  0  0
  188.4800  178.1640  140.7820 O   0  0  0  0  0  0  0  0  0  0  0  0
  189.8970  176.3710  137.0020 C   0  0  1  0  0  3  0  0  0  0  0  0
  189.4190  178.4500  138.5990 C   0  0  1  0  0  3  0  0  0  0  0  0
  190.2670  177.2070  138.2690 C   0  0  2  0  0  0  0  0  0  0  0  0
  189.0220  179.2040  137.3350 C   0  0  0  0  0  2  0  0  0  0  0  0
  191.7220  177.3190  138.6810 C   0  0  0  0  0  2  0  0  0  0  0  0
  190.5420  176.9500  140.8360 C   0  0  0  0  0  2  0  0  0  0  0  0
  188.5260  176.2040  134.6380 Cl  0  0  0  0  0  0  0  0  0  0  0  0
  188.3490  178.2730  136.3380 C   0  0  0  0  0  2  0  0  0  0  0  0
  190.8030  176.3780  139.4460 C   0  0  1  0  0  3  0  0  0  0  0  0
  189.3400  177.2270  135.8490 C   0  0  1  0  0  3  0  0  0  0  0  0
  188.1840  178.0760  139.4160 C   0  0  0  0  0  2  0  0  0  0  0  0
  189.0500  176.9360  141.1440 C   0  0  0  0  0  2  0  0  0  0  0  0
  194.1600  175.4990  136.2060 C   0  0  1  0  0  3  0  0  0  0  0  0
  194.5490  176.9690  136.3560 C   0  0  0  0  0  2  0  0  0  0  0  0
  195.7300  178.7780  135.3290 O   0  0  0  0  0  1  0  0  0  0  0  0
  195.3980  177.4310  135.1840 C   0  0  0  0  0  2  0  0  0  0  0  0
  193.8660  174.7960  137.5380 C   0  0  0  0  0  2  0  0  0  0  0  0
  195.9040  173.5810  136.8310 C   0  0  0  0  0  1  0  0  0  0  0  0
  194.9810  173.8640  137.9970 C   0  0  0  0  0  3  0  0  0  0  0  0
  195.7790  174.5020  139.1160 C   0  0  0  0  0  1  0  0  0  0  0  0
  189.1280  173.5250  136.9130 C   0  0  0  0  0  2  0  0  0  0  0  0
  188.1460  172.7540  136.0520 C   0  0  0  0  0  2  0  0  0  0  0  0
  185.7570  172.0990  136.4010 C   0  0  0  0  0  3  0  0  0  0  0  0
  186.7540  173.0800  136.4640 C   0  0  0  0  0  0  0  0  0  0  0  0
  186.4300  174.3780  136.8740 C   0  0  0  0  0  3  0  0  0  0  0  0
  184.8040  175.9460  137.6360 F   0  0  0  0  0  0  0  0  0  0  0  0
  184.1220  173.7080  137.1780 C   0  0  0  0  0  3  0  0  0  0  0  0
  185.1160  174.6910  137.2350 C   0  0  0  0  0  0  0  0  0  0  0  0
  184.4430  172.4120  136.7600 C   0  0  0  0  0  3  0  0  0  0  0  0
  1  6  1  0  0  0  0
  1 21  1  1  0  0  0
  2  5  2  0  0  0  0
  3  6  1  6  0  0  0
  4  5  1  0  0  0  0
  4  3  1  0  0  0  0
  4 29  1  1  0  0  0
  7  1  1  0  0  0  0
  7  2  1  0  0  0  0
  8 20  1  0  0  0  0
  9  3  1  6  0  0  0
  9 11  1  0  0  0  0
 10 12  1  6  0  0  0
 10 19  1  0  0  0  0
 11 10  1  0  0  0  0
 11 13  1  6  0  0  0
 11 17  1  0  0  0  0
 14 20  1  0  0  0  0
 16 12  1  0  0  0  0
 17 13  1  6  0  0  0
 17 14  1  0  0  0  0
 18 15  1  6  0  0  0
 18 16  1  0  0  0  0
 18  9  1  0  0  0  0
 19  8  1  0  0  0  0
 21 22  1  1  0  0  0
 21 25  1  0  0  0  0
 24 23  1  0  0  0  0
 24 22  1  0  0  0  0
 25 27  1  0  0  0  0
 26 27  1  0  0  0  0
 27 28  1  0  0  0  0
 30 32  1  0  0  0  0
 30 29  1  0  0  0  0
 31 32  2  0  0  0  0
 31 37  1  0  0  0  0
 32 33  1  0  0  0  0
 33 36  2  0  0  0  0
 35 36  1  0  0  0  0
 36 34  1  0  0  0  0
 37 35  2  0  0  0  0
M  END
>  <MODEL>
1

>  <REMARK>
 VINA RESULT:      -5.6      0.000      0.000
  Name = 
  9 active torsions:
  status: ('A' for Active; 'I' for Inactive)
    1  A    between atoms: C_1  and  C_33
    2  A    between atoms: C_4  and  C_10
    3  A    between atoms: C_5  and  C_23
    4  A    between atoms: C_5  and  C_33
    5  A    between atoms: C_6  and  C_31
    6  A    between atoms: C_14  and  C_37
    7  A    between atoms: C_17  and  C_26
    8  A    between atoms: C_17  and  C_33
    9  A    between atoms: C_31  and  C_37
                            x       y       z     vdW  Elec       q    Type
                         _______ _______ _______ _____ _____    ______ ____

>  <TORSDO>
F 9

$$$$
=
 OpenBabel11052415243D

 37 41  0  0  1  0  0  0  0  0999 V2000
  185.9950  179.0930  141.5450 C   0  0  2  0  0  3  0  0  0  0  0  0
  187.8080  178.0570  140.1050 C   0  0  0  0  0  3  0  0  0  0  0  0
  184.7900  178.3880  139.3820 C   0  0  1  0  0  3  0  0  0  0  0  0
  185.9960  178.4840  138.4160 C   0  0  1  0  0  3  0  0  0  0  0  0
  187.1780  177.7380  138.9690 C   0  0  0  0  0  3  0  0  0  0  0  0
  184.8930  179.3920  140.5310 C   0  0  0  0  0  2  0  0  0  0  0  0
  187.4150  179.2100  140.9770 C   0  0  0  0  0  2  0  0  0  0  0  0
  180.4560  175.8700  136.6640 O   0  0  0  0  0  0  0  0  0  0  0  0
  183.3690  178.4480  138.7580 C   0  0  1  0  0  3  0  0  0  0  0  0
  180.9680  177.3240  138.4960 C   0  0  1  0  0  3  0  0  0  0  0  0
  182.4640  177.1770  138.8290 C   0  0  2  0  0  0  0  0  0  0  0  0
  180.4040  178.6340  139.0330 C   0  0  0  0  0  2  0  0  0  0  0  0
  182.7690  176.1100  139.8630 C   0  0  0  0  0  2  0  0  0  0  0  0
  182.2580  174.7970  137.8160 C   0  0  0  0  0  2  0  0  0  0  0  0
  183.5490  181.1770  138.6310 Cl  0  0  0  0  0  0  0  0  0  0  0  0
  181.2370  179.8160  138.5620 C   0  0  0  0  0  2  0  0  0  0  0  0
  183.1610  175.8730  138.4110 C   0  0  1  0  0  3  0  0  0  0  0  0
  182.6350  179.7410  139.1580 C   0  0  1  0  0  3  0  0  0  0  0  0
  180.7210  177.2060  136.9930 C   0  0  0  0  0  2  0  0  0  0  0  0
  181.7000  175.2550  136.4740 C   0  0  0  0  0  2  0  0  0  0  0  0
  185.6890  177.9150  142.4860 C   0  0  1  0  0  3  0  0  0  0  0  0
  186.6450  177.7770  143.6690 C   0  0  0  0  0  2  0  0  0  0  0  0
  188.6820  176.7060  144.3240 O   0  0  0  0  0  1  0  0  0  0  0  0
  187.5740  176.5880  143.4860 C   0  0  0  0  0  2  0  0  0  0  0  0
  184.2080  177.8190  142.8710 C   0  0  0  0  0  2  0  0  0  0  0  0
  182.2210  179.2560  143.2150 C   0  0  0  0  0  1  0  0  0  0  0  0
  183.6780  179.0610  143.5780 C   0  0  0  0  0  3  0  0  0  0  0  0
  183.7950  178.9060  145.0810 C   0  0  0  0  0  1  0  0  0  0  0  0
  185.7020  177.9130  137.0350 C   0  0  0  0  0  2  0  0  0  0  0  0
  186.7660  176.9070  136.6370 C   0  0  0  0  0  2  0  0  0  0  0  0
  185.4490  175.5170  135.0280 C   0  0  0  0  0  3  0  0  0  0  0  0
  186.1220  175.6220  136.2510 C   0  0  0  0  0  0  0  0  0  0  0  0
  186.1530  174.5310  137.1270 C   0  0  0  0  0  3  0  0  0  0  0  0
  185.5580  172.2760  137.6210 F   0  0  0  0  0  0  0  0  0  0  0  0
  184.8580  173.2270  135.5500 C   0  0  0  0  0  3  0  0  0  0  0  0
  185.5240  173.3330  136.7750 C   0  0  0  0  0  0  0  0  0  0  0  0
  184.8200  174.3190  134.6770 C   0  0  0  0  0  3  0  0  0  0  0  0
  1 21  1  6  0  0  0
  2  7  1  0  0  0  0
  3  6  1  1  0  0  0
  4 29  1  6  0  0  0
  4  5  1  0  0  0  0
  4  3  1  0  0  0  0
  5  2  2  0  0  0  0
  6  1  1  0  0  0  0
  7  1  1  0  0  0  0
  8 19  1  0  0  0  0
  9 11  1  0  0  0  0
  9 18  1  0  0  0  0
  9  3  1  1  0  0  0
 10 19  1  6  0  0  0
 10 11  1  0  0  0  0
 10 12  1  0  0  0  0
 11 13  1  1  0  0  0
 16 12  1  0  0  0  0
 16 18  1  0  0  0  0
 17 14  1  6  0  0  0
 17 11  1  0  0  0  0
 17 13  1  0  0  0  0
 18 15  1  6  0  0  0
 20  8  1  0  0  0  0
 20 14  1  0  0  0  0
 21 25  1  1  0  0  0
 21 22  1  0  0  0  0
 24 22  1  0  0  0  0
 24 23  1  0  0  0  0
 25 27  1  0  0  0  0
 26 27  1  0  0  0  0
 27 28  1  0  0  0  0
 30 29  1  0  0  0  0
 31 32  1  0  0  0  0
 32 30  1  0  0  0  0
 32 33  2  0  0  0  0
 35 36  2  0  0  0  0
 36 33  1  0  0  0  0
 36 34  1  0  0  0  0
 37 31  2  0  0  0  0
 37 35  1  0  0  0  0
M  END
>  <MODEL>
2

>  <REMARK>
 VINA RESULT:      -5.4      5.401      8.678
  Name = 
  9 active torsions:
  status: ('A' for Active; 'I' for Inactive)
    1  A    between atoms: C_1  and  C_33
    2  A    between atoms: C_4  and  C_10
    3  A    between atoms: C_5  and  C_23
    4  A    between atoms: C_5  and  C_33
    5  A    between atoms: C_6  and  C_31
    6  A    between atoms: C_14  and  C_37
    7  A    between atoms: C_17  and  C_26
    8  A    between atoms: C_17  and  C_33
    9  A    between atoms: C_31  and  C_37
                            x       y       z     vdW  Elec       q    Type
                         _______ _______ _______ _____ _____    ______ ____

>  <TORSDO>
F 9

$$$$
=
 OpenBabel11052415243D

 37 41  0  0  1  0  0  0  0  0999 V2000
  184.4450  178.6670  138.7180 C   0  0  2  0  0  3  0  0  0  0  0  0
  185.3040  178.6460  141.1040 C   0  0  0  0  0  3  0  0  0  0  0  0
  186.8310  177.7180  138.5450 C   0  0  1  0  0  3  0  0  0  0  0  0
  187.4350  178.4100  139.7920 C   0  0  1  0  0  3  0  0  0  0  0  0
  186.5580  178.1940  140.9930 C   0  0  0  0  0  3  0  0  0  0  0  0
  185.7280  178.5580  137.8990 C   0  0  0  0  0  2  0  0  0  0  0  0
  184.6070  179.4330  140.0370 C   0  0  0  0  0  2  0  0  0  0  0  0
  189.3310  173.4690  135.6800 O   0  0  0  0  0  0  0  0  0  0  0  0
  187.8200  177.2210  137.4550 C   0  0  1  0  0  3  0  0  0  0  0  0
  188.2790  175.6000  135.3920 C   0  0  1  0  0  3  0  0  0  0  0  0
  187.4730  175.9200  136.6650 C   0  0  2  0  0  0  0  0  0  0  0  0
  188.5840  176.8630  134.5940 C   0  0  0  0  0  2  0  0  0  0  0  0
  186.0350  175.4400  136.6270 C   0  0  0  0  0  2  0  0  0  0  0  0
  187.3300  173.3500  136.9870 C   0  0  0  0  0  2  0  0  0  0  0  0
  189.0850  179.6480  137.5110 Cl  0  0  0  0  0  0  0  0  0  0  0  0
  189.2500  177.9110  135.4720 C   0  0  0  0  0  2  0  0  0  0  0  0
  187.0300  174.7390  137.5410 C   0  0  1  0  0  3  0  0  0  0  0  0
  188.2850  178.3780  136.5510 C   0  0  1  0  0  3  0  0  0  0  0  0
  189.5670  174.8490  135.7260 C   0  0  0  0  0  2  0  0  0  0  0  0
  188.8340  173.1100  136.9400 C   0  0  0  0  0  2  0  0  0  0  0  0
  183.5870  177.3900  138.7260 C   0  0  1  0  0  3  0  0  0  0  0  0
  182.9240  177.0740  140.0660 C   0  0  0  0  0  2  0  0  0  0  0  0
  181.3830  178.4610  141.2610 O   0  0  0  0  0  1  0  0  0  0  0  0
  181.5210  177.6550  140.1320 C   0  0  0  0  0  2  0  0  0  0  0  0
  182.6370  177.2920  137.5260 C   0  0  0  0  0  2  0  0  0  0  0  0
  181.3240  175.2030  137.3260 C   0  0  0  0  0  1  0  0  0  0  0  0
  182.5920  175.9070  136.8920 C   0  0  0  0  0  3  0  0  0  0  0  0
  182.6040  176.0160  135.3810 C   0  0  0  0  0  1  0  0  0  0  0  0
  188.8250  177.8990  140.1440 C   0  0  0  0  0  2  0  0  0  0  0  0
  188.7360  176.7450  141.1260 C   0  0  0  0  0  2  0  0  0  0  0  0
  188.5200  176.6790  143.6170 C   0  0  0  0  0  3  0  0  0  0  0  0
  189.1450  177.2060  142.4800 C   0  0  0  0  0  0  0  0  0  0  0  0
  190.1240  178.1970  142.6180 C   0  0  0  0  0  3  0  0  0  0  0  0
  191.4370  179.6050  144.0240 F   0  0  0  0  0  0  0  0  0  0  0  0
  189.8670  178.1170  145.0250 C   0  0  0  0  0  3  0  0  0  0  0  0
  190.4870  178.6490  143.8900 C   0  0  0  0  0  0  0  0  0  0  0  0
  188.8830  177.1320  144.8880 C   0  0  0  0  0  3  0  0  0  0  0  0
  1 21  1  1  0  0  0
  1  7  1  0  0  0  0
  3  6  1  6  0  0  0
  3  4  1  0  0  0  0
  4 29  1  1  0  0  0
  4  5  1  0  0  0  0
  5  2  2  0  0  0  0
  6  1  1  0  0  0  0
  7  2  1  0  0  0  0
  8 19  1  0  0  0  0
  8 20  1  0  0  0  0
  9  3  1  6  0  0  0
 10 12  1  1  0  0  0
 10 19  1  0  0  0  0
 10 11  1  0  0  0  0
 11 13  1  6  0  0  0
 11  9  1  0  0  0  0
 11 17  1  0  0  0  0
 12 16  1  0  0  0  0
 14 17  1  0  0  0  0
 16 18  1  0  0  0  0
 17 13  1  6  0  0  0
 18  9  1  0  0  0  0
 18 15  1  1  0  0  0
 20 14  1  0  0  0  0
 21 25  1  6  0  0  0
 21 22  1  0  0  0  0
 22 24  1  0  0  0  0
 24 23  1  0  0  0  0
 27 26  1  0  0  0  0
 27 25  1  0  0  0  0
 28 27  1  0  0  0  0
 29 30  1  0  0  0  0
 30 32  1  0  0  0  0
 31 37  1  0  0  0  0
 32 33  1  0  0  0  0
 32 31  2  0  0  0  0
 33 36  2  0  0  0  0
 36 34  1  0  0  0  0
 36 35  1  0  0  0  0
 37 35  2  0  0  0  0
M  END
>  <MODEL>
3

>  <REMARK>
 VINA RESULT:      -5.3      4.018      8.896
  Name = 
  9 active torsions:
  status: ('A' for Active; 'I' for Inactive)
    1  A    between atoms: C_1  and  C_33
    2  A    between atoms: C_4  and  C_10
    3  A    between atoms: C_5  and  C_23
    4  A    between atoms: C_5  and  C_33
    5  A    between atoms: C_6  and  C_31
    6  A    between atoms: C_14  and  C_37
    7  A    between atoms: C_17  and  C_26
    8  A    between atoms: C_17  and  C_33
    9  A    between atoms: C_31  and  C_37
                            x       y       z     vdW  Elec       q    Type
                         _______ _______ _______ _____ _____    ______ ____

>  <TORSDO>
F 9

$$$$
=
 OpenBabel11052415243D

 37 41  0  0  1  0  0  0  0  0999 V2000
  180.9210  179.6710  138.5270 C   0  0  2  0  0  3  0  0  0  0  0  0
  180.5920  179.3940  141.0270 C   0  0  0  0  0  3  0  0  0  0  0  0
  182.8900  178.1970  139.2880 C   0  0  1  0  0  3  0  0  0  0  0  0
  182.9910  178.7010  140.7480 C   0  0  1  0  0  3  0  0  0  0  0  0
  181.6440  178.6660  141.4140 C   0  0  0  0  0  3  0  0  0  0  0  0
  182.3860  179.2860  138.3390 C   0  0  0  0  0  2  0  0  0  0  0  0
  180.6200  180.3470  139.8710 C   0  0  0  0  0  2  0  0  0  0  0  0
  185.4090  173.6530  136.9380 O   0  0  0  0  0  0  0  0  0  0  0  0
  184.1440  177.5100  138.6810 C   0  0  1  0  0  3  0  0  0  0  0  0
  185.1850  176.0270  136.7280 C   0  0  1  0  0  3  0  0  0  0  0  0
  183.9480  176.4720  137.5320 C   0  0  2  0  0  0  0  0  0  0  0  0
  186.1390  177.1920  136.4850 C   0  0  0  0  0  2  0  0  0  0  0  0
  182.6600  176.4900  136.7320 C   0  0  0  0  0  2  0  0  0  0  0  0
  183.0590  174.0690  137.1240 C   0  0  0  0  0  2  0  0  0  0  0  0
  185.7400  179.3800  139.8880 Cl  0  0  0  0  0  0  0  0  0  0  0  0
  186.4960  177.8810  137.7940 C   0  0  0  0  0  2  0  0  0  0  0  0
  182.8590  175.4230  137.7980 C   0  0  1  0  0  3  0  0  0  0  0  0
  185.2600  178.5330  138.3950 C   0  0  1  0  0  3  0  0  0  0  0  0
  185.9070  174.8710  137.4170 C   0  0  0  0  0  2  0  0  0  0  0  0
  184.2750  173.3600  137.7070 C   0  0  0  0  0  2  0  0  0  0  0  0
  179.9190  178.6270  138.0040 C   0  0  1  0  0  3  0  0  0  0  0  0
  178.9640  178.0720  139.0600 C   0  0  0  0  0  2  0  0  0  0  0  0
  179.9650  176.0550  139.8670 O   0  0  0  0  0  1  0  0  0  0  0  0
  178.9550  176.5530  139.0440 C   0  0  0  0  0  2  0  0  0  0  0  0
  179.2250  179.0550  136.7050 C   0  0  0  0  0  2  0  0  0  0  0  0
  180.7440  179.5850  134.8230 C   0  0  0  0  0  1  0  0  0  0  0  0
  179.9470  180.1760  135.9660 C   0  0  0  0  0  3  0  0  0  0  0  0
  178.9490  181.1720  135.4090 C   0  0  0  0  0  1  0  0  0  0  0  0
  183.9430  177.8730  141.6010 C   0  0  0  0  0  2  0  0  0  0  0  0
  184.0150  178.4280  143.0120 C   0  0  0  0  0  2  0  0  0  0  0  0
  186.3930  177.6900  142.7800 C   0  0  0  0  0  3  0  0  0  0  0  0
  185.3490  178.1330  143.6000 C   0  0  0  0  0  0  0  0  0  0  0  0
  185.5500  178.2580  144.9800 C   0  0  0  0  0  3  0  0  0  0  0  0
  186.9920  178.0790  146.8700 F   0  0  0  0  0  0  0  0  0  0  0  0
  187.8410  177.5170  144.7130 C   0  0  0  0  0  3  0  0  0  0  0  0
  186.7960  177.9540  145.5350 C   0  0  0  0  0  0  0  0  0  0  0  0
  187.6390  177.3850  143.3360 C   0  0  0  0  0  3  0  0  0  0  0  0
  1 21  1  1  0  0  0
  1  7  1  0  0  0  0
  2  5  2  0  0  0  0
  3  6  1  6  0  0  0
  3  4  1  0  0  0  0
  4  5  1  0  0  0  0
  4 29  1  1  0  0  0
  6  1  1  0  0  0  0
  7  2  1  0  0  0  0
  8 19  1  0  0  0  0
  8 20  1  0  0  0  0
  9  3  1  6  0  0  0
 10 12  1  1  0  0  0
 10 19  1  0  0  0  0
 10 11  1  0  0  0  0
 11 13  1  6  0  0  0
 11 17  1  0  0  0  0
 11  9  1  0  0  0  0
 12 16  1  0  0  0  0
 14 20  1  0  0  0  0
 14 17  1  0  0  0  0
 16 18  1  0  0  0  0
 17 13  1  6  0  0  0
 18  9  1  0  0  0  0
 18 15  1  1  0  0  0
 21 25  1  6  0  0  0
 21 22  1  0  0  0  0
 24 22  1  0  0  0  0
 24 23  1  0  0  0  0
 26 27  1  0  0  0  0
 27 25  1  0  0  0  0
 28 27  1  0  0  0  0
 29 30  1  0  0  0  0
 30 32  1  0  0  0  0
 31 37  2  0  0  0  0
 31 32  1  0  0  0  0
 32 33  2  0  0  0  0
 33 36  1  0  0  0  0
 35 36  2  0  0  0  0
 36 34  1  0  0  0  0
 37 35  1  0  0  0  0
M  END
>  <MODEL>
4

>  <REMARK>
 VINA RESULT:      -5.1      6.032     11.004
  Name = 
  9 active torsions:
  status: ('A' for Active; 'I' for Inactive)
    1  A    between atoms: C_1  and  C_33
    2  A    between atoms: C_4  and  C_10
    3  A    between atoms: C_5  and  C_23
    4  A    between atoms: C_5  and  C_33
    5  A    between atoms: C_6  and  C_31
    6  A    between atoms: C_14  and  C_37
    7  A    between atoms: C_17  and  C_26
    8  A    between atoms: C_17  and  C_33
    9  A    between atoms: C_31  and  C_37
                            x       y       z     vdW  Elec       q    Type
                         _______ _______ _______ _____ _____    ______ ____

>  <TORSDO>
F 9

$$$$
=
 OpenBabel11052415243D

 37 41  0  0  1  0  0  0  0  0999 V2000
  182.8660  178.7740  139.0930 C   0  0  2  0  0  3  0  0  0  0  0  0
  185.3910  179.0150  139.1460 C   0  0  0  0  0  3  0  0  0  0  0  0
  183.7220  177.0940  137.3400 C   0  0  1  0  0  3  0  0  0  0  0  0
  185.0380  177.8180  136.9650 C   0  0  1  0  0  3  0  0  0  0  0  0
  185.8170  178.1720  138.2000 C   0  0  0  0  0  3  0  0  0  0  0  0
  182.6260  178.0760  137.7560 C   0  0  0  0  0  2  0  0  0  0  0  0
  184.0710  179.7230  139.0950 C   0  0  0  0  0  2  0  0  0  0  0  0
  183.6320  171.8610  135.0780 O   0  0  0  0  0  0  0  0  0  0  0  0
  183.1520  176.0740  136.3160 C   0  0  1  0  0  3  0  0  0  0  0  0
  182.2110  173.6250  135.8540 C   0  0  1  0  0  3  0  0  0  0  0  0
  183.0490  174.5720  136.7330 C   0  0  2  0  0  0  0  0  0  0  0  0
  180.9520  174.3120  135.3380 C   0  0  0  0  0  2  0  0  0  0  0  0
  183.0550  174.2120  138.2050 C   0  0  0  0  0  2  0  0  0  0  0  0
  184.5500  172.5070  137.1920 C   0  0  0  0  0  2  0  0  0  0  0  0
  182.1980  178.1430  134.7980 Cl  0  0  0  0  0  0  0  0  0  0  0  0
  181.2950  175.6200  134.6420 C   0  0  0  0  0  2  0  0  0  0  0  0
  184.3180  174.0020  137.3830 C   0  0  1  0  0  3  0  0  0  0  0  0
  181.8740  176.6090  135.6440 C   0  0  1  0  0  3  0  0  0  0  0  0
  183.0370  173.0690  134.6950 C   0  0  0  0  0  2  0  0  0  0  0  0
  184.8280  172.1960  135.7260 C   0  0  0  0  0  2  0  0  0  0  0  0
  182.6540  177.8760  140.3240 C   0  0  1  0  0  3  0  0  0  0  0  0
  182.7000  178.6090  141.6650 C   0  0  0  0  0  2  0  0  0  0  0  0
  183.7920  178.5380  143.7920 O   0  0  0  0  0  1  0  0  0  0  0  0
  183.9600  178.2570  142.4360 C   0  0  0  0  0  2  0  0  0  0  0  0
  181.4600  176.9250  140.1790 C   0  0  0  0  0  2  0  0  0  0  0  0
  179.3490  177.0810  138.8940 C   0  0  0  0  0  1  0  0  0  0  0  0
  180.1170  177.6390  140.0730 C   0  0  0  0  0  3  0  0  0  0  0  0
  179.3050  177.4300  141.3350 C   0  0  0  0  0  1  0  0  0  0  0  0
  185.9480  176.9800  136.0760 C   0  0  0  0  0  2  0  0  0  0  0  0
  187.4060  177.2980  136.3550 C   0  0  0  0  0  2  0  0  0  0  0  0
  187.6110  174.8170  136.1240 C   0  0  0  0  0  3  0  0  0  0  0  0
  188.1710  176.0340  136.5260 C   0  0  0  0  0  0  0  0  0  0  0  0
  189.4350  176.0560  137.1270 C   0  0  0  0  0  3  0  0  0  0  0  0
  191.3670  174.8860  137.8900 F   0  0  0  0  0  0  0  0  0  0  0  0
  189.5840  173.6490  136.9040 C   0  0  0  0  0  3  0  0  0  0  0  0
  190.1430  174.8640  137.3120 C   0  0  0  0  0  0  0  0  0  0  0  0
  188.3180  173.6250  136.3100 C   0  0  0  0  0  3  0  0  0  0  0  0
  1  7  1  0  0  0  0
  1 21  1  1  0  0  0
  3  6  1  6  0  0  0
  4 29  1  6  0  0  0
  4  3  1  0  0  0  0
  4  5  1  0  0  0  0
  5  2  2  0  0  0  0
  6  1  1  0  0  0  0
  7  2  1  0  0  0  0
  8 20  1  0  0  0  0
  9 11  1  0  0  0  0
  9  3  1  1  0  0  0
 10 19  1  6  0  0  0
 10 11  1  0  0  0  0
 11 17  1  0  0  0  0
 11 13  1  1  0  0  0
 12 10  1  0  0  0  0
 16 12  1  0  0  0  0
 16 18  1  0  0  0  0
 17 14  1  6  0  0  0
 17 13  1  0  0  0  0
 18 15  1  6  0  0  0
 18  9  1  0  0  0  0
 19  8  1  0  0  0  0
 20 14  1  0  0  0  0
 21 25  1  6  0  0  0
 21 22  1  0  0  0  0
 22 24  1  0  0  0  0
 24 23  1  0  0  0  0
 26 27  1  0  0  0  0
 27 25  1  0  0  0  0
 27 28  1  0  0  0  0
 29 30  1  0  0  0  0
 30 32  1  0  0  0  0
 31 37  2  0  0  0  0
 31 32  1  0  0  0  0
 32 33  2  0  0  0  0
 33 36  1  0  0  0  0
 35 36  2  0  0  0  0
 36 34  1  0  0  0  0
 37 35  1  0  0  0  0
M  END
>  <MODEL>
5

>  <REMARK>
 VINA RESULT:      -4.9      4.187      9.605
  Name = 
  9 active torsions:
  status: ('A' for Active; 'I' for Inactive)
    1  A    between atoms: C_1  and  C_33
    2  A    between atoms: C_4  and  C_10
    3  A    between atoms: C_5  and  C_23
    4  A    between atoms: C_5  and  C_33
    5  A    between atoms: C_6  and  C_31
    6  A    between atoms: C_14  and  C_37
    7  A    between atoms: C_17  and  C_26
    8  A    between atoms: C_17  and  C_33
    9  A    between atoms: C_31  and  C_37
                            x       y       z     vdW  Elec       q    Type
                         _______ _______ _______ _____ _____    ______ ____

>  <TORSDO>
F 9

$$$$
=
 OpenBabel11052415243D

 37 41  0  0  1  0  0  0  0  0999 V2000
  186.0470  179.0800  141.6880 C   0  0  2  0  0  3  0  0  0  0  0  0
  187.9340  178.0270  140.3610 C   0  0  0  0  0  3  0  0  0  0  0  0
  184.9650  178.3680  139.4640 C   0  0  1  0  0  3  0  0  0  0  0  0
  186.2250  178.4530  138.5680 C   0  0  1  0  0  3  0  0  0  0  0  0
  187.3690  177.7050  139.1930 C   0  0  0  0  0  3  0  0  0  0  0  0
  185.0070  179.3780  140.6120 C   0  0  0  0  0  2  0  0  0  0  0  0
  187.4980  179.1870  141.2030 C   0  0  0  0  0  2  0  0  0  0  0  0
  180.8180  175.8780  136.4430 O   0  0  0  0  0  0  0  0  0  0  0  0
  183.5820  178.4310  138.7580 C   0  0  1  0  0  3  0  0  0  0  0  0
  181.2100  177.2960  138.3320 C   0  0  1  0  0  3  0  0  0  0  0  0
  182.6860  177.1530  138.7500 C   0  0  2  0  0  0  0  0  0  0  0  0
  180.6050  178.5910  138.8630 C   0  0  0  0  0  2  0  0  0  0  0  0
  182.9380  176.0670  139.7770 C   0  0  0  0  0  2  0  0  0  0  0  0
  182.5590  174.7940  137.6780 C   0  0  0  0  0  2  0  0  0  0  0  0
  183.7480  181.1630  138.6980 Cl  0  0  0  0  0  0  0  0  0  0  0  0
  181.4550  179.7890  138.4650 C   0  0  0  0  0  2  0  0  0  0  0  0
  183.4170  175.8630  138.3470 C   0  0  1  0  0  3  0  0  0  0  0  0
  182.8160  179.7110  139.1410 C   0  0  1  0  0  3  0  0  0  0  0  0
  181.0530  177.2080  136.8150 C   0  0  0  0  0  2  0  0  0  0  0  0
  182.0770  175.2760  136.3150 C   0  0  0  0  0  2  0  0  0  0  0  0
  185.6810  177.9080  142.6160 C   0  0  1  0  0  3  0  0  0  0  0  0
  186.6090  177.7300  143.8170 C   0  0  0  0  0  2  0  0  0  0  0  0
  188.7510  176.7720  144.2850 O   0  0  0  0  0  1  0  0  0  0  0  0
  187.5500  176.5540  143.6110 C   0  0  0  0  0  2  0  0  0  0  0  0
  184.1900  177.8630  142.9730 C   0  0  0  0  0  2  0  0  0  0  0  0
  182.2440  179.3700  143.2360 C   0  0  0  0  0  1  0  0  0  0  0  0
  183.6820  179.1340  143.6430 C   0  0  0  0  0  3  0  0  0  0  0  0
  183.7540  179.0040  145.1510 C   0  0  0  0  0  1  0  0  0  0  0  0
  186.0090  177.8760  137.1760 C   0  0  0  0  0  2  0  0  0  0  0  0
  187.0630  178.3930  136.2150 C   0  0  0  0  0  2  0  0  0  0  0  0
  187.3400  176.1180  135.2130 C   0  0  0  0  0  3  0  0  0  0  0  0
  187.9230  177.2670  135.7600 C   0  0  0  0  0  0  0  0  0  0  0  0
  189.3120  177.3380  135.9170 C   0  0  0  0  0  3  0  0  0  0  0  0
  191.4610  176.3380  135.6630 F   0  0  0  0  0  0  0  0  0  0  0  0
  189.5330  175.1230  134.9620 C   0  0  0  0  0  3  0  0  0  0  0  0
  190.1170  176.2680  135.5150 C   0  0  0  0  0  0  0  0  0  0  0  0
  188.1450  175.0480  134.8110 C   0  0  0  0  0  3  0  0  0  0  0  0
  1 21  1  6  0  0  0
  2  7  1  0  0  0  0
  3  6  1  1  0  0  0
  4 29  1  6  0  0  0
  4  5  1  0  0  0  0
  4  3  1  0  0  0  0
  5  2  2  0  0  0  0
  6  1  1  0  0  0  0
  7  1  1  0  0  0  0
  8 19  1  0  0  0  0
  9 18  1  0  0  0  0
  9  3  1  1  0  0  0
 10 19  1  6  0  0  0
 10 11  1  0  0  0  0
 10 12  1  0  0  0  0
 11  9  1  0  0  0  0
 11 13  1  1  0  0  0
 16 12  1  0  0  0  0
 16 18  1  0  0  0  0
 17 14  1  6  0  0  0
 17 11  1  0  0  0  0
 17 13  1  0  0  0  0
 18 15  1  6  0  0  0
 20  8  1  0  0  0  0
 20 14  1  0  0  0  0
 21 25  1  1  0  0  0
 21 22  1  0  0  0  0
 24 22  1  0  0  0  0
 24 23  1  0  0  0  0
 25 27  1  0  0  0  0
 26 27  1  0  0  0  0
 27 28  1  0  0  0  0
 30 29  1  0  0  0  0
 31 32  1  0  0  0  0
 32 33  2  0  0  0  0
 32 30  1  0  0  0  0
 35 36  2  0  0  0  0
 36 34  1  0  0  0  0
 36 33  1  0  0  0  0
 37 35  1  0  0  0  0
 37 31  2  0  0  0  0
M  END
>  <MODEL>
6

>  <REMARK>
 VINA RESULT:      -4.8      4.361      8.872
  Name = 
  9 active torsions:
  status: ('A' for Active; 'I' for Inactive)
    1  A    between atoms: C_1  and  C_33
    2  A    between atoms: C_4  and  C_10
    3  A    between atoms: C_5  and  C_23
    4  A    between atoms: C_5  and  C_33
    5  A    between atoms: C_6  and  C_31
    6  A    between atoms: C_14  and  C_37
    7  A    between atoms: C_17  and  C_26
    8  A    between atoms: C_17  and  C_33
    9  A    between atoms: C_31  and  C_37
                            x       y       z     vdW  Elec       q    Type
                         _______ _______ _______ _____ _____    ______ ____

>  <TORSDO>
F 9

$$$$
=
 OpenBabel11052415243D

 37 41  0  0  1  0  0  0  0  0999 V2000
  184.8970  176.2570  136.3780 C   0  0  2  0  0  3  0  0  0  0  0  0
  183.2970  177.0950  134.5970 C   0  0  0  0  0  3  0  0  0  0  0  0
  182.8970  177.2080  137.6890 C   0  0  1  0  0  3  0  0  0  0  0  0
  182.4290  178.2550  136.6490 C   0  0  1  0  0  3  0  0  0  0  0  0
  182.2870  177.6260  135.2920 C   0  0  0  0  0  3  0  0  0  0  0  0
  184.4080  176.9770  137.6320 C   0  0  0  0  0  2  0  0  0  0  0  0
  184.7140  177.0600  135.0840 C   0  0  0  0  0  2  0  0  0  0  0  0
  184.0600  178.7920  143.0420 O   0  0  0  0  0  0  0  0  0  0  0  0
  182.4530  177.4180  139.1630 C   0  0  1  0  0  3  0  0  0  0  0  0
  182.4210  178.9970  141.3090 C   0  0  1  0  0  3  0  0  0  0  0  0
  183.0760  178.6000  139.9720 C   0  0  2  0  0  0  0  0  0  0  0  0
  180.9010  178.9040  141.2340 C   0  0  0  0  0  2  0  0  0  0  0  0
  183.7090  179.7560  139.2220 C   0  0  0  0  0  2  0  0  0  0  0  0
  185.3110  179.3250  141.0720 C   0  0  0  0  0  2  0  0  0  0  0  0
  180.3350  175.7310  138.7570 Cl  0  0  0  0  0  0  0  0  0  0  0  0
  180.4670  177.5310  140.7430 C   0  0  0  0  0  2  0  0  0  0  0  0
  184.6040  178.7090  139.8690 C   0  0  1  0  0  3  0  0  0  0  0  0
  180.9230  177.3210  139.3070 C   0  0  1  0  0  3  0  0  0  0  0  0
  182.9580  178.1510  142.4610 C   0  0  0  0  0  2  0  0  0  0  0  0
  185.1800  178.4160  142.2880 C   0  0  0  0  0  2  0  0  0  0  0  0
  184.5770  174.7520  136.3440 C   0  0  1  0  0  3  0  0  0  0  0  0
  185.7610  173.8550  135.9870 C   0  0  0  0  0  2  0  0  0  0  0  0
  187.9700  173.6890  136.8920 O   0  0  0  0  0  1  0  0  0  0  0  0
  186.6170  173.5670  137.2090 C   0  0  0  0  0  2  0  0  0  0  0  0
  183.7860  174.2760  137.5690 C   0  0  0  0  0  2  0  0  0  0  0  0
  181.9040  173.9680  135.9890 C   0  0  0  0  0  1  0  0  0  0  0  0
  182.5830  173.4080  137.2210 C   0  0  0  0  0  3  0  0  0  0  0  0
  183.0210  171.9850  136.9390 C   0  0  0  0  0  1  0  0  0  0  0  0
  181.0890  178.8890  137.0010 C   0  0  0  0  0  2  0  0  0  0  0  0
  180.6070  179.7790  135.8700 C   0  0  0  0  0  2  0  0  0  0  0  0
  180.9800  181.5550  137.5900 C   0  0  0  0  0  3  0  0  0  0  0  0
  180.7720  181.2080  136.2510 C   0  0  0  0  0  0  0  0  0  0  0  0
  180.6770  182.2080  135.2760 C   0  0  0  0  0  3  0  0  0  0  0  0
  180.7170  184.5200  134.6960 F   0  0  0  0  0  0  0  0  0  0  0  0
  181.0180  183.8980  136.9780 C   0  0  0  0  0  3  0  0  0  0  0  0
  180.8040  183.5520  135.6390 C   0  0  0  0  0  0  0  0  0  0  0  0
  181.1060  182.8990  137.9530 C   0  0  0  0  0  3  0  0  0  0  0  0
  1 21  1  6  0  0  0
  1  6  1  0  0  0  0
  2  7  1  0  0  0  0
  2  5  2  0  0  0  0
  3  6  1  1  0  0  0
  4 29  1  1  0  0  0
  4  3  1  0  0  0  0
  5  4  1  0  0  0  0
  7  1  1  0  0  0  0
  9  3  1  6  0  0  0
  9 18  1  0  0  0  0
  9 11  1  0  0  0  0
 10 12  1  6  0  0  0
 10 19  1  0  0  0  0
 11 13  1  6  0  0  0
 11 10  1  0  0  0  0
 14 20  1  0  0  0  0
 16 12  1  0  0  0  0
 17 13  1  6  0  0  0
 17 11  1  0  0  0  0
 17 14  1  0  0  0  0
 18 15  1  1  0  0  0
 18 16  1  0  0  0  0
 19  8  1  0  0  0  0
 20  8  1  0  0  0  0
 21 22  1  1  0  0  0
 21 25  1  0  0  0  0
 22 24  1  0  0  0  0
 23 24  1  0  0  0  0
 26 27  1  0  0  0  0
 27 25  1  0  0  0  0
 28 27  1  0  0  0  0
 30 32  1  0  0  0  0
 30 29  1  0  0  0  0
 31 37  1  0  0  0  0
 32 31  2  0  0  0  0
 33 36  2  0  0  0  0
 33 32  1  0  0  0  0
 34 36  1  0  0  0  0
 35 37  2  0  0  0  0
 36 35  1  0  0  0  0
M  END
>  <MODEL>
7

>  <REMARK>
 VINA RESULT:      -4.7      6.041      9.362
  Name = 
  9 active torsions:
  status: ('A' for Active; 'I' for Inactive)
    1  A    between atoms: C_1  and  C_33
    2  A    between atoms: C_4  and  C_10
    3  A    between atoms: C_5  and  C_23
    4  A    between atoms: C_5  and  C_33
    5  A    between atoms: C_6  and  C_31
    6  A    between atoms: C_14  and  C_37
    7  A    between atoms: C_17  and  C_26
    8  A    between atoms: C_17  and  C_33
    9  A    between atoms: C_31  and  C_37
                            x       y       z     vdW  Elec       q    Type
                         _______ _______ _______ _____ _____    ______ ____

>  <TORSDO>
F 9

$$$$
=
 OpenBabel11052415243D

 37 41  0  0  1  0  0  0  0  0999 V2000
  182.3570  179.2820  139.2090 C   0  0  2  0  0  3  0  0  0  0  0  0
  184.8160  178.6640  139.1610 C   0  0  0  0  0  3  0  0  0  0  0  0
  182.5340  177.4380  137.4210 C   0  0  1  0  0  3  0  0  0  0  0  0
  184.0020  177.6840  136.9950 C   0  0  1  0  0  3  0  0  0  0  0  0
  184.9000  177.7400  138.1980 C   0  0  0  0  0  3  0  0  0  0  0  0
  181.8460  178.7240  137.8830 C   0  0  0  0  0  2  0  0  0  0  0  0
  183.8090  179.7730  139.1630 C   0  0  0  0  0  2  0  0  0  0  0  0
  180.7320  172.5780  135.0440 O   0  0  0  0  0  0  0  0  0  0  0  0
  181.6180  176.6810  136.4210 C   0  0  1  0  0  3  0  0  0  0  0  0
  179.9590  174.6450  135.9730 C   0  0  1  0  0  3  0  0  0  0  0  0
  181.1000  175.2590  136.8070 C   0  0  2  0  0  0  0  0  0  0  0  0
  178.9310  175.6980  135.5750 C   0  0  0  0  0  2  0  0  0  0  0  0
  181.0970  174.8440  138.2650 C   0  0  0  0  0  2  0  0  0  0  0  0
  181.9430  172.8230  137.0940 C   0  0  0  0  0  2  0  0  0  0  0  0
  181.2250  179.0090  135.0340 Cl  0  0  0  0  0  0  0  0  0  0  0  0
  179.6010  176.8770  134.8880 C   0  0  0  0  0  2  0  0  0  0  0  0
  182.1820  174.3090  137.3410 C   0  0  1  0  0  3  0  0  0  0  0  0
  180.5150  177.6010  135.8650 C   0  0  1  0  0  3  0  0  0  0  0  0
  180.5010  173.9260  134.7390 C   0  0  0  0  0  2  0  0  0  0  0  0
  182.0160  172.5140  135.6040 C   0  0  0  0  0  2  0  0  0  0  0  0
  181.9020  178.4900  140.4470 C   0  0  1  0  0  3  0  0  0  0  0  0
  180.8290  177.4370  140.1750 C   0  0  0  0  0  2  0  0  0  0  0  0
  179.4200  177.5260  142.1060 O   0  0  0  0  0  1  0  0  0  0  0  0
  179.4890  177.8600  140.7540 C   0  0  0  0  0  2  0  0  0  0  0  0
  183.0700  177.9770  141.2980 C   0  0  0  0  0  2  0  0  0  0  0  0
  182.2550  178.8720  143.4580 C   0  0  0  0  0  1  0  0  0  0  0  0
  183.4100  178.8790  142.4790 C   0  0  0  0  0  3  0  0  0  0  0  0
  184.6570  178.3840  143.1830 C   0  0  0  0  0  1  0  0  0  0  0  0
  184.5450  176.6030  136.0700 C   0  0  0  0  0  2  0  0  0  0  0  0
  185.5640  177.1870  135.1090 C   0  0  0  0  0  2  0  0  0  0  0  0
  187.5550  176.0120  136.0640 C   0  0  0  0  0  3  0  0  0  0  0  0
  186.9050  177.2120  135.7540 C   0  0  0  0  0  0  0  0  0  0  0  0
  187.4990  178.4350  136.0880 C   0  0  0  0  0  3  0  0  0  0  0  0
  189.3230  179.6400  137.0390 F   0  0  0  0  0  0  0  0  0  0  0  0
  189.3970  177.2570  137.0230 C   0  0  0  0  0  3  0  0  0  0  0  0
  188.7460  178.4570  136.7190 C   0  0  0  0  0  0  0  0  0  0  0  0
  188.8020  176.0350  136.6960 C   0  0  0  0  0  3  0  0  0  0  0  0
  1 21  1  1  0  0  0
  2  7  1  0  0  0  0
  3  6  1  6  0  0  0
  4 29  1  6  0  0  0
  4  3  1  0  0  0  0
  4  5  1  0  0  0  0
  5  2  2  0  0  0  0
  6  1  1  0  0  0  0
  7  1  1  0  0  0  0
  8 20  1  0  0  0  0
  9 11  1  0  0  0  0
  9  3  1  1  0  0  0
 10 19  1  6  0  0  0
 10 11  1  0  0  0  0
 11 17  1  0  0  0  0
 11 13  1  1  0  0  0
 12 10  1  0  0  0  0
 16 12  1  0  0  0  0
 16 18  1  0  0  0  0
 17 14  1  6  0  0  0
 17 13  1  0  0  0  0
 18 15  1  6  0  0  0
 18  9  1  0  0  0  0
 19  8  1  0  0  0  0
 20 14  1  0  0  0  0
 21 22  1  6  0  0  0
 21 25  1  0  0  0  0
 22 24  1  0  0  0  0
 24 23  1  0  0  0  0
 25 27  1  0  0  0  0
 27 28  1  0  0  0  0
 27 26  1  0  0  0  0
 30 32  1  0  0  0  0
 30 29  1  0  0  0  0
 31 37  1  0  0  0  0
 32 31  2  0  0  0  0
 32 33  1  0  0  0  0
 33 36  2  0  0  0  0
 36 35  1  0  0  0  0
 36 34  1  0  0  0  0
 37 35  2  0  0  0  0
M  END
>  <MODEL>
8

>  <REMARK>
 VINA RESULT:      -4.7      5.088     10.272
  Name = 
  9 active torsions:
  status: ('A' for Active; 'I' for Inactive)
    1  A    between atoms: C_1  and  C_33
    2  A    between atoms: C_4  and  C_10
    3  A    between atoms: C_5  and  C_23
    4  A    between atoms: C_5  and  C_33
    5  A    between atoms: C_6  and  C_31
    6  A    between atoms: C_14  and  C_37
    7  A    between atoms: C_17  and  C_26
    8  A    between atoms: C_17  and  C_33
    9  A    between atoms: C_31  and  C_37
                            x       y       z     vdW  Elec       q    Type
                         _______ _______ _______ _____ _____    ______ ____

>  <TORSDO>
F 9

$$$$
=
 OpenBabel11052415243D

 37 41  0  0  1  0  0  0  0  0999 V2000
  183.6330  176.4210  137.2950 C   0  0  2  0  0  3  0  0  0  0  0  0
  182.5360  175.4340  139.3580 C   0  0  0  0  0  3  0  0  0  0  0  0
  181.4390  177.7390  137.5640 C   0  0  1  0  0  3  0  0  0  0  0  0
  180.6130  176.6480  138.2890 C   0  0  1  0  0  3  0  0  0  0  0  0
  181.3790  176.0950  139.4580 C   0  0  0  0  0  3  0  0  0  0  0  0
  182.4730  177.1380  136.6100 C   0  0  0  0  0  2  0  0  0  0  0  0
  183.2240  175.1540  138.0570 C   0  0  0  0  0  2  0  0  0  0  0  0
  178.9560  182.8720  137.6190 O   0  0  0  0  0  0  0  0  0  0  0  0
  180.6520  178.8680  136.8420 C   0  0  1  0  0  3  0  0  0  0  0  0
  180.3990  181.4690  136.3230 C   0  0  1  0  0  3  0  0  0  0  0  0
  180.9380  180.3510  137.2370 C   0  0  2  0  0  0  0  0  0  0  0  0
  180.5070  181.0850  134.8520 C   0  0  0  0  0  2  0  0  0  0  0  0
  182.2410  180.6930  137.9330 C   0  0  0  0  0  2  0  0  0  0  0  0
  180.5570  182.0240  139.1830 C   0  0  0  0  0  2  0  0  0  0  0  0
  179.8470  177.0750  134.9360 Cl  0  0  0  0  0  0  0  0  0  0  0  0
  179.8510  179.7370  134.5940 C   0  0  0  0  0  2  0  0  0  0  0  0
  180.9590  180.6170  138.7490 C   0  0  1  0  0  3  0  0  0  0  0  0
  180.6120  178.6380  135.3200 C   0  0  1  0  0  3  0  0  0  0  0  0
  178.9590  181.8310  136.6830 C   0  0  0  0  0  2  0  0  0  0  0  0
  179.0850  182.2720  138.8790 C   0  0  0  0  0  2  0  0  0  0  0  0
  184.6580  177.3600  137.9560 C   0  0  1  0  0  3  0  0  0  0  0  0
  185.7170  177.9210  137.0070 C   0  0  0  0  0  2  0  0  0  0  0  0
  187.9400  177.8910  137.8890 O   0  0  0  0  0  1  0  0  0  0  0  0
  187.0240  177.1580  137.1360 C   0  0  0  0  0  2  0  0  0  0  0  0
  184.0130  178.4190  138.8590 C   0  0  0  0  0  2  0  0  0  0  0  0
  185.4860  179.1070  140.7260 C   0  0  0  0  0  1  0  0  0  0  0  0
  184.3160  178.2280  140.3400 C   0  0  0  0  0  3  0  0  0  0  0  0
  183.1140  178.6080  141.1810 C   0  0  0  0  0  1  0  0  0  0  0  0
  179.2800  177.1600  138.8170 C   0  0  0  0  0  2  0  0  0  0  0  0
  179.0170  176.6220  140.2120 C   0  0  0  0  0  2  0  0  0  0  0  0
  178.9350  179.0230  140.9070 C   0  0  0  0  0  3  0  0  0  0  0  0
  179.2500  177.6950  141.2160 C   0  0  0  0  0  0  0  0  0  0  0  0
  179.8240  177.3830  142.4540 C   0  0  0  0  0  3  0  0  0  0  0  0
  180.6190  178.0940  144.5860 F   0  0  0  0  0  0  0  0  0  0  0  0
  179.7460  179.7220  143.0790 C   0  0  0  0  0  3  0  0  0  0  0  0
  180.0680  178.3960  143.3860 C   0  0  0  0  0  0  0  0  0  0  0  0
  179.1800  180.0350  141.8390 C   0  0  0  0  0  3  0  0  0  0  0  0
  1 21  1  1  0  0  0
  1  7  1  0  0  0  0
  2  5  2  0  0  0  0
  3  6  1  6  0  0  0
  3  4  1  0  0  0  0
  4 29  1  1  0  0  0
  4  5  1  0  0  0  0
  6  1  1  0  0  0  0
  7  2  1  0  0  0  0
  8 20  1  0  0  0  0
  9 11  1  0  0  0  0
  9  3  1  1  0  0  0
 10 12  1  6  0  0  0
 10 19  1  0  0  0  0
 10 11  1  0  0  0  0
 11 13  1  6  0  0  0
 11 17  1  0  0  0  0
 16 12  1  0  0  0  0
 16 18  1  0  0  0  0
 17 13  1  6  0  0  0
 17 14  1  0  0  0  0
 18 15  1  1  0  0  0
 18  9  1  0  0  0  0
 19  8  1  0  0  0  0
 20 14  1  0  0  0  0
 21 22  1  6  0  0  0
 21 25  1  0  0  0  0
 22 24  1  0  0  0  0
 24 23  1  0  0  0  0
 25 27  1  0  0  0  0
 27 26  1  0  0  0  0
 27 28  1  0  0  0  0
 29 30  1  0  0  0  0
 30 32  1  0  0  0  0
 31 32  2  0  0  0  0
 31 37  1  0  0  0  0
 32 33  1  0  0  0  0
 33 36  2  0  0  0  0
 35 36  1  0  0  0  0
 36 34  1  0  0  0  0
 37 35  2  0  0  0  0
M  END
>  <MODEL>
9

>  <REMARK>
 VINA RESULT:      -4.6      6.706     10.172
  Name = 
  9 active torsions:
  status: ('A' for Active; 'I' for Inactive)
    1  A    between atoms: C_1  and  C_33
    2  A    between atoms: C_4  and  C_10
    3  A    between atoms: C_5  and  C_23
    4  A    between atoms: C_5  and  C_33
    5  A    between atoms: C_6  and  C_31
    6  A    between atoms: C_14  and  C_37
    7  A    between atoms: C_17  and  C_26
    8  A    between atoms: C_17  and  C_33
    9  A    between atoms: C_31  and  C_37
                            x       y       z     vdW  Elec       q    Type
                         _______ _______ _______ _____ _____    ______ ____

>  <TORSDO>
F 9

$$$$
