=
 OpenBabel11052414523D

 55 61  0  0  1  0  0  0  0  0999 V2000
  179.7980  177.8630  142.6680 O   0  0  0  0  0  0  0  0  0  0  0  0
  184.8430  178.6690  138.7110 C   0  0  0  0  0  2  0  0  0  0  0  0
  183.9570  175.4850  136.6780 C   0  0  0  0  0  2  0  0  0  0  0  0
  181.5190  174.7770  135.2990 C   0  0  0  0  0  3  0  0  0  0  0  0
  180.3300  174.5900  134.5940 C   0  0  0  0  0  3  0  0  0  0  0  0
  180.2910  174.7840  137.3920 C   0  0  0  0  0  0  0  0  0  0  0  0
  179.1050  174.5740  136.6760 C   0  0  0  0  0  3  0  0  0  0  0  0
  183.0170  174.2090  138.6080 C   0  0  0  0  0  1  0  0  0  0  0  0
  179.1240  174.4790  135.2830 C   0  0  0  0  0  3  0  0  0  0  0  0
  181.2740  178.7780  144.3520 C   0  0  0  0  0  3  0  0  0  0  0  0
  181.5270  174.8580  136.7030 C   0  0  0  0  0  0  0  0  0  0  0  0
  183.1370  179.4660  142.3810 C   0  0  0  0  0  0  0  0  0  0  0  0
  179.4050  177.6250  141.3190 C   0  0  0  0  0  2  0  0  0  0  0  0
  181.9390  178.8470  142.0320 C   0  0  0  0  0  3  0  0  0  0  0  0
  179.8350  176.2350  140.8450 C   0  0  2  0  0  3  0  0  0  0  0  0
  184.7080  177.3150  140.9020 C   0  0  0  0  0  2  0  0  0  0  0  0
  180.2050  174.9450  138.7790 O   0  0  0  0  0  0  0  0  0  0  0  0
  183.9970  177.6310  137.9710 C   0  0  0  0  0  2  0  0  0  0  0  0
  184.8070  176.4270  137.5290 C   0  0  0  0  0  2  0  0  0  0  0  0
  182.4740  179.4080  144.7100 C   0  0  0  0  0  3  0  0  0  0  0  0
  185.5720  178.1000  139.9380 C   0  0  2  0  0  0  0  0  0  0  0  0
  181.0010  178.4920  143.0100 C   0  0  0  0  0  0  0  0  0  0  0  0
  182.7850  174.9840  137.3970 N   0  0  0  0  0  0  0  0  0  0  0  0
  181.3330  176.1770  140.5800 C   0  0  0  0  0  2  0  0  0  0  0  0
  185.2540  178.6830  141.3200 C   0  0  1  0  0  3  0  0  0  0  0  0
  180.3760  176.2120  139.4120 C   0  0  2  0  0  0  0  0  0  0  0  0
  184.1470  179.7390  141.3120 C   0  0  0  0  0  2  0  0  0  0  0  0
  183.4080  179.7480  143.7240 C   0  0  0  0  0  3  0  0  0  0  0  0
  180.7660  181.1270  138.6660 C   0  0  0  0  0  0  0  0  0  0  0  0
  180.3220  177.4750  138.5190 C   0  0  1  0  0  3  0  0  0  0  0  0
  182.1640  181.4870  139.0310 C   0  0  0  0  0  1  0  0  0  0  0  0
  180.3340  179.7610  138.6750 N   0  0  0  0  0  0  0  0  0  0  0  0
  178.9950  177.9090  138.3060 O   0  0  0  0  0  0  0  0  0  0  0  0
  179.0400  179.3180  138.2100 C   0  0  0  0  0  2  0  0  0  0  0  0
  179.9670  182.0390  138.3290 O   0  0  0  0  0  0  0  0  0  0  0  0
  181.1710  178.6370  138.9720 C   0  0  0  0  0  2  0  0  0  0  0  0
  187.0190  177.6300  139.7270 C   0  0  0  0  0  2  0  0  0  0  0  0
  188.6860  176.8180  144.2490 O   0  0  0  0  0  0  0  0  0  0  0  0
  189.2910  179.4040  142.2610 C   0  0  0  0  0  2  0  0  0  0  0  0
  188.0620  178.4760  140.3960 C   0  0  0  0  0  3  0  0  0  0  0  0
  187.5600  177.6020  143.9330 C   0  0  1  0  0  3  0  0  0  0  0  0
  188.2170  178.5030  141.7120 C   0  0  0  0  0  0  0  0  0  0  0  0
  191.1980  179.6270  143.8840 C   0  0  0  0  0  1  0  0  0  0  0  0
  187.4050  177.7070  142.5220 O   0  0  0  0  0  0  0  0  0  0  0  0
  189.9110  177.4390  143.8680 C   0  0  2  0  0  3  0  0  0  0  0  0
  189.8610  178.9680  143.6250 C   0  0  2  0  0  3  0  0  0  0  0  0
  191.3970  177.3630  141.9460 O   0  0  0  0  0  1  0  0  0  0  0  0
  190.7100  176.5690  142.8630 C   0  0  0  0  0  0  0  0  0  0  0  0
  189.8410  175.7310  142.1570 O   0  0  0  0  0  1  0  0  0  0  0  0
  191.7430  175.7220  143.6070 C   0  0  0  0  0  2  0  0  0  0  0  0
  192.4420  174.8380  145.7730 N   0  0  0  0  0  1  0  0  0  0  0  0
  191.7070  175.9020  145.1200 C   0  0  0  0  0  2  0  0  0  0  0  0
  186.3170  176.9560  144.5270 C   0  0  0  0  0  2  0  0  0  0  0  0
  186.2670  178.4500  146.4820 C   0  0  0  0  0  2  0  0  0  0  0  0
  185.6230  177.8860  145.4670 C   0  0  0  0  0  3  0  0  0  0  0  0
  1 22  1  0  0  0  0
  2 21  1  0  0  0  0
  3 23  1  0  0  0  0
  3 19  1  0  0  0  0
  4 11  1  0  0  0  0
  5  9  1  0  0  0  0
  5  4  2  0  0  0  0
  6 17  1  0  0  0  0
  7  6  1  0  0  0  0
  9  7  2  0  0  0  0
 10 20  1  0  0  0  0
 11  6  2  0  0  0  0
 11 23  1  0  0  0  0
 12 28  1  0  0  0  0
 13  1  1  0  0  0  0
 14 12  2  0  0  0  0
 14 22  1  0  0  0  0
 15 24  1  1  0  0  0
 15 13  1  0  0  0  0
 17 26  1  0  0  0  0
 18  2  1  0  0  0  0
 19 18  1  0  0  0  0
 21 37  1  6  0  0  0
 21 16  1  0  0  0  0
 21 25  1  0  0  0  0
 22 10  2  0  0  0  0
 23  8  1  0  0  0  0
 25 16  1  1  0  0  0
 26 24  1  1  0  0  0
 26 15  1  0  0  0  0
 27 25  1  0  0  0  0
 27 12  1  0  0  0  0
 28 20  2  0  0  0  0
 29 32  1  0  0  0  0
 29 31  1  0  0  0  0
 30 36  1  1  0  0  0
 30 26  1  0  0  0  0
 32 36  1  0  0  0  0
 33 30  1  0  0  0  0
 34 33  1  0  0  0  0
 34 32  1  0  0  0  0
 35 29  2  0  0  0  0
 37 40  1  0  0  0  0
 39 46  1  0  0  0  0
 40 42  2  0  0  0  0
 41 38  1  0  0  0  0
 41 53  1  1  0  0  0
 42 39  1  0  0  0  0
 42 44  1  0  0  0  0
 44 41  1  0  0  0  0
 45 48  1  6  0  0  0
 45 38  1  0  0  0  0
 46 45  1  0  0  0  0
 46 43  1  6  0  0  0
 47 48  1  0  0  0  0
 48 50  1  0  0  0  0
 49 48  1  0  0  0  0
 50 52  1  0  0  0  0
 52 51  1  0  0  0  0
 53 55  1  0  0  0  0
 55 54  2  0  0  0  0
M  END
>  <MODEL>
1

>  <REMARK>
 VINA RESULT:      -3.1      0.000      0.000
  Name = 
  8 active torsions:
  status: ('A' for Active; 'I' for Inactive)
    1  A    between atoms: C_6  and  C_25
    2  A    between atoms: C_6  and  C_46
    3  A    between atoms: C_8  and  C_22
    4  A    between atoms: C_12  and  C_30
    5  A    between atoms: C_13  and  C_52
    6  A    between atoms: C_22  and  C_43
    7  A    between atoms: C_25  and  C_38
    8  A    between atoms: C_30  and  C_50
                            x       y       z     vdW  Elec       q    Type
                         _______ _______ _______ _____ _____    ______ ____

>  <TORSDO>
F 8

$$$$
=
 OpenBabel11052414523D

 55 61  0  0  1  0  0  0  0  0999 V2000
  180.3690  178.5010  143.3610 O   0  0  0  0  0  0  0  0  0  0  0  0
  185.7000  179.6250  139.8860 C   0  0  0  0  0  2  0  0  0  0  0  0
  184.3570  177.5810  136.8740 C   0  0  0  0  0  2  0  0  0  0  0  0
  181.9150  177.8840  135.3600 C   0  0  0  0  0  3  0  0  0  0  0  0
  180.7560  178.1900  134.6460 C   0  0  0  0  0  3  0  0  0  0  0  0
  180.5890  177.4060  137.3350 C   0  0  0  0  0  0  0  0  0  0  0  0
  179.4290  177.6930  136.6030 C   0  0  0  0  0  3  0  0  0  0  0  0
  183.0830  175.9250  138.2430 C   0  0  0  0  0  1  0  0  0  0  0  0
  179.5120  178.0840  135.2650 C   0  0  0  0  0  3  0  0  0  0  0  0
  181.8870  178.4700  145.2430 C   0  0  0  0  0  3  0  0  0  0  0  0
  181.8550  177.4710  136.7030 C   0  0  0  0  0  0  0  0  0  0  0  0
  183.9590  179.4200  143.6200 C   0  0  0  0  0  0  0  0  0  0  0  0
  180.0180  178.8270  142.0190 C   0  0  0  0  0  2  0  0  0  0  0  0
  182.6890  179.2070  143.0890 C   0  0  0  0  0  3  0  0  0  0  0  0
  180.2080  177.6320  141.0820 C   0  0  2  0  0  3  0  0  0  0  0  0
  185.1850  177.6510  141.4630 C   0  0  0  0  0  2  0  0  0  0  0  0
  180.4520  177.0910  138.6910 O   0  0  0  0  0  0  0  0  0  0  0  0
  184.7200  179.0950  138.8370 C   0  0  0  0  0  2  0  0  0  0  0  0
  185.3160  177.9840  137.9930 C   0  0  0  0  0  2  0  0  0  0  0  0
  183.1600  178.6900  145.7870 C   0  0  0  0  0  3  0  0  0  0  0  0
  186.2360  178.5360  140.8270 C   0  0  2  0  0  0  0  0  0  0  0  0
  181.6450  178.7260  143.8900 C   0  0  0  0  0  0  0  0  0  0  0  0
  183.0710  177.1010  137.3840 N   0  0  0  0  0  0  0  0  0  0  0  0
  181.6820  177.3770  140.7980 C   0  0  0  0  0  2  0  0  0  0  0  0
  185.9520  178.6540  142.3290 C   0  0  1  0  0  3  0  0  0  0  0  0
  180.8190  178.0010  139.7260 C   0  0  2  0  0  0  0  0  0  0  0  0
  185.0630  179.8430  142.7040 C   0  0  0  0  0  2  0  0  0  0  0  0
  184.1980  179.1600  144.9730 C   0  0  0  0  0  3  0  0  0  0  0  0
  180.3920  181.8840  136.6260 C   0  0  0  0  0  0  0  0  0  0  0  0
  181.0550  179.4800  139.3340 C   0  0  1  0  0  3  0  0  0  0  0  0
  178.9310  182.1060  136.4470 C   0  0  0  0  0  1  0  0  0  0  0  0
  180.8770  180.8910  137.5380 N   0  0  0  0  0  0  0  0  0  0  0  0
  182.3630  179.6880  138.8440 O   0  0  0  0  0  0  0  0  0  0  0  0
  182.2710  180.7040  137.8660 C   0  0  0  0  0  2  0  0  0  0  0  0
  181.2040  182.5940  135.9770 O   0  0  0  0  0  0  0  0  0  0  0  0
  180.0510  180.0750  138.3790 C   0  0  0  0  0  2  0  0  0  0  0  0
  187.5800  177.8950  140.4490 C   0  0  0  0  0  2  0  0  0  0  0  0
  192.2930  177.9280  141.7440 O   0  0  0  0  0  0  0  0  0  0  0  0
  189.9210  175.7930  142.6480 C   0  0  0  0  0  2  0  0  0  0  0  0
  188.1650  176.9910  141.4950 C   0  0  0  0  0  3  0  0  0  0  0  0
  191.7500  177.1620  140.6950 C   0  0  1  0  0  3  0  0  0  0  0  0
  189.4610  176.7260  141.5590 C   0  0  0  0  0  0  0  0  0  0  0  0
  191.6230  175.3640  144.4470 C   0  0  0  0  0  1  0  0  0  0  0  0
  190.3350  177.3150  140.6450 O   0  0  0  0  0  0  0  0  0  0  0  0
  191.9040  177.4500  143.0290 C   0  0  2  0  0  3  0  0  0  0  0  0
  191.3820  175.9940  143.0930 C   0  0  2  0  0  3  0  0  0  0  0  0
  189.9880  178.9390  143.1710 O   0  0  0  0  0  1  0  0  0  0  0  0
  191.1420  178.5310  143.8390 C   0  0  0  0  0  0  0  0  0  0  0  0
  191.9590  179.6500  144.0330 O   0  0  0  0  0  1  0  0  0  0  0  0
  190.7170  177.9680  145.1960 C   0  0  0  0  0  2  0  0  0  0  0  0
  188.8110  177.1890  146.5080 N   0  0  0  0  0  1  0  0  0  0  0  0
  189.2280  178.1230  145.4820 C   0  0  0  0  0  2  0  0  0  0  0  0
  192.3500  177.6240  139.3750 C   0  0  0  0  0  2  0  0  0  0  0  0
  193.4510  176.3820  137.5560 C   0  0  0  0  0  2  0  0  0  0  0  0
  193.3390  176.6320  138.8560 C   0  0  0  0  0  3  0  0  0  0  0  0
  1 22  1  0  0  0  0
  2 21  1  0  0  0  0
  3 23  1  0  0  0  0
  3 19  1  0  0  0  0
  4 11  1  0  0  0  0
  5  9  1  0  0  0  0
  5  4  2  0  0  0  0
  6 17  1  0  0  0  0
  7  6  1  0  0  0  0
  9  7  2  0  0  0  0
 10 20  1  0  0  0  0
 11  6  2  0  0  0  0
 11 23  1  0  0  0  0
 12 28  1  0  0  0  0
 13  1  1  0  0  0  0
 14 12  2  0  0  0  0
 14 22  1  0  0  0  0
 15 24  1  1  0  0  0
 15 13  1  0  0  0  0
 17 26  1  0  0  0  0
 18  2  1  0  0  0  0
 19 18  1  0  0  0  0
 21 37  1  6  0  0  0
 21 16  1  0  0  0  0
 21 25  1  0  0  0  0
 22 10  2  0  0  0  0
 23  8  1  0  0  0  0
 25 16  1  6  0  0  0
 25 27  1  0  0  0  0
 26 24  1  1  0  0  0
 26 15  1  0  0  0  0
 27 12  1  0  0  0  0
 28 20  2  0  0  0  0
 29 32  1  0  0  0  0
 30 36  1  6  0  0  0
 30 26  1  0  0  0  0
 31 29  1  0  0  0  0
 32 34  1  0  0  0  0
 32 36  1  0  0  0  0
 33 30  1  0  0  0  0
 34 33  1  0  0  0  0
 35 29  2  0  0  0  0
 37 40  1  0  0  0  0
 38 45  1  0  0  0  0
 39 46  1  0  0  0  0
 40 42  2  0  0  0  0
 41 53  1  6  0  0  0
 41 38  1  0  0  0  0
 42 39  1  0  0  0  0
 44 41  1  0  0  0  0
 44 42  1  0  0  0  0
 45 46  1  0  0  0  0
 45 48  1  6  0  0  0
 46 43  1  1  0  0  0
 47 48  1  0  0  0  0
 48 49  1  0  0  0  0
 48 50  1  0  0  0  0
 50 52  1  0  0  0  0
 52 51  1  0  0  0  0
 54 55  2  0  0  0  0
 55 53  1  0  0  0  0
M  END
>  <MODEL>
2

>  <REMARK>
 VINA RESULT:      -3.0      2.171      3.513
  Name = 
  8 active torsions:
  status: ('A' for Active; 'I' for Inactive)
    1  A    between atoms: C_6  and  C_25
    2  A    between atoms: C_6  and  C_46
    3  A    between atoms: C_8  and  C_22
    4  A    between atoms: C_12  and  C_30
    5  A    between atoms: C_13  and  C_52
    6  A    between atoms: C_22  and  C_43
    7  A    between atoms: C_25  and  C_38
    8  A    between atoms: C_30  and  C_50
                            x       y       z     vdW  Elec       q    Type
                         _______ _______ _______ _____ _____    ______ ____

>  <TORSDO>
F 8

$$$$
=
 OpenBabel11052414523D

 55 61  0  0  1  0  0  0  0  0999 V2000
  189.9200  176.8760  143.2850 O   0  0  0  0  0  0  0  0  0  0  0  0
  184.9820  177.6290  139.1840 C   0  0  0  0  0  2  0  0  0  0  0  0
  187.3450  178.6440  136.2790 C   0  0  0  0  0  2  0  0  0  0  0  0
  189.5890  177.2350  135.1270 C   0  0  0  0  0  3  0  0  0  0  0  0
  190.5880  176.4190  134.5940 C   0  0  0  0  0  3  0  0  0  0  0  0
  190.7850  177.3420  137.2360 C   0  0  0  0  0  0  0  0  0  0  0  0
  191.7940  176.5420  136.6840 C   0  0  0  0  0  3  0  0  0  0  0  0
  189.0380  179.7820  137.7200 C   0  0  0  0  0  1  0  0  0  0  0  0
  191.6950  176.0810  135.3690 C   0  0  0  0  0  3  0  0  0  0  0  0
  188.3630  177.7060  144.9410 C   0  0  0  0  0  3  0  0  0  0  0  0
  189.6750  177.7240  136.4420 C   0  0  0  0  0  0  0  0  0  0  0  0
  186.2620  177.5030  143.1040 C   0  0  0  0  0  0  0  0  0  0  0  0
  190.2410  176.3010  142.0210 C   0  0  0  0  0  2  0  0  0  0  0  0
  187.5550  177.1340  142.7380 C   0  0  0  0  0  3  0  0  0  0  0  0
  190.6540  177.3690  141.0060 C   0  0  2  0  0  3  0  0  0  0  0  0
  186.0960  179.3830  140.7110 C   0  0  0  0  0  2  0  0  0  0  0  0
  190.8990  177.7140  138.5790 O   0  0  0  0  0  0  0  0  0  0  0  0
  186.1950  177.6120  138.2520 C   0  0  0  0  0  2  0  0  0  0  0  0
  186.1960  178.7750  137.2770 C   0  0  0  0  0  2  0  0  0  0  0  0
  187.0640  178.0710  145.3170 C   0  0  0  0  0  3  0  0  0  0  0  0
  184.8470  178.9320  139.9860 C   0  0  2  0  0  0  0  0  0  0  0  0
  188.6160  177.2370  143.6470 C   0  0  0  0  0  0  0  0  0  0  0  0
  188.6550  178.6190  136.9320 N   0  0  0  0  0  0  0  0  0  0  0  0
  189.4520  178.1620  140.5130 C   0  0  0  0  0  2  0  0  0  0  0  0
  184.9020  178.8650  141.5170 C   0  0  1  0  0  3  0  0  0  0  0  0
  190.0880  177.1380  139.6010 C   0  0  2  0  0  0  0  0  0  0  0  0
  185.1820  177.4650  142.0700 C   0  0  0  0  0  2  0  0  0  0  0  0
  186.0130  177.9740  144.3960 C   0  0  0  0  0  3  0  0  0  0  0  0
  188.8970  173.3530  136.5820 C   0  0  0  0  0  0  0  0  0  0  0  0
  189.3080  175.8460  139.2590 C   0  0  1  0  0  3  0  0  0  0  0  0
  190.1640  172.6110  136.3350 C   0  0  0  0  0  1  0  0  0  0  0  0
  188.8590  174.4590  137.4920 N   0  0  0  0  0  0  0  0  0  0  0  0
  187.9890  176.1270  138.8400 O   0  0  0  0  0  0  0  0  0  0  0  0
  187.6500  175.1430  137.8850 C   0  0  0  0  0  2  0  0  0  0  0  0
  187.8470  172.9850  135.9920 O   0  0  0  0  0  0  0  0  0  0  0  0
  189.9710  174.9210  138.2690 C   0  0  0  0  0  2  0  0  0  0  0  0
  183.9290  180.0150  139.3970 C   0  0  0  0  0  2  0  0  0  0  0  0
  179.1490  181.0000  139.1430 O   0  0  0  0  0  0  0  0  0  0  0  0
  180.9430  178.9800  137.2190 C   0  0  0  0  0  2  0  0  0  0  0  0
  183.0400  179.5510  138.2820 C   0  0  0  0  0  3  0  0  0  0  0  0
  179.7100  179.8910  139.8040 C   0  0  1  0  0  3  0  0  0  0  0  0
  181.7230  179.4730  138.4090 C   0  0  0  0  0  0  0  0  0  0  0  0
  178.9310  179.3280  135.7540 C   0  0  0  0  0  1  0  0  0  0  0  0
  181.1200  179.8530  139.6080 O   0  0  0  0  0  0  0  0  0  0  0  0
  179.2410  180.8960  137.7250 C   0  0  2  0  0  3  0  0  0  0  0  0
  179.4870  179.4790  137.1520 C   0  0  2  0  0  3  0  0  0  0  0  0
  180.5780  181.7300  135.8730 O   0  0  0  0  0  1  0  0  0  0  0  0
  180.0410  182.0760  137.1130 C   0  0  0  0  0  0  0  0  0  0  0  0
  181.0910  182.4360  137.9630 O   0  0  0  0  0  1  0  0  0  0  0  0
  179.1220  183.2800  136.8990 C   0  0  0  0  0  2  0  0  0  0  0  0
  179.3010  185.7140  136.9450 N   0  0  0  0  0  1  0  0  0  0  0  0
  179.5210  184.5060  137.7130 C   0  0  0  0  0  2  0  0  0  0  0  0
  179.4140  179.9930  141.2940 C   0  0  0  0  0  2  0  0  0  0  0  0
  180.6920  179.2760  143.2720 C   0  0  0  0  0  2  0  0  0  0  0  0
  180.2030  178.9900  142.0700 C   0  0  0  0  0  3  0  0  0  0  0  0
  1 22  1  0  0  0  0
  2 21  1  0  0  0  0
  3 23  1  0  0  0  0
  3 19  1  0  0  0  0
  4 11  1  0  0  0  0
  5  4  2  0  0  0  0
  5  9  1  0  0  0  0
  6 17  1  0  0  0  0
  7  6  1  0  0  0  0
  9  7  2  0  0  0  0
 10 20  1  0  0  0  0
 11 23  1  0  0  0  0
 11  6  2  0  0  0  0
 12 28  1  0  0  0  0
 13  1  1  0  0  0  0
 14 12  2  0  0  0  0
 14 22  1  0  0  0  0
 15 24  1  1  0  0  0
 15 13  1  0  0  0  0
 17 26  1  0  0  0  0
 18  2  1  0  0  0  0
 19 18  1  0  0  0  0
 21 37  1  6  0  0  0
 21 16  1  0  0  0  0
 21 25  1  0  0  0  0
 22 10  2  0  0  0  0
 23  8  1  0  0  0  0
 25 16  1  6  0  0  0
 25 27  1  0  0  0  0
 26 24  1  1  0  0  0
 26 15  1  0  0  0  0
 27 12  1  0  0  0  0
 28 20  2  0  0  0  0
 29 32  1  0  0  0  0
 30 36  1  6  0  0  0
 30 26  1  0  0  0  0
 31 29  1  0  0  0  0
 32 34  1  0  0  0  0
 32 36  1  0  0  0  0
 33 30  1  0  0  0  0
 34 33  1  0  0  0  0
 35 29  2  0  0  0  0
 38 41  1  0  0  0  0
 39 42  1  0  0  0  0
 40 42  2  0  0  0  0
 40 37  1  0  0  0  0
 41 53  1  1  0  0  0
 42 44  1  0  0  0  0
 44 41  1  0  0  0  0
 45 48  1  1  0  0  0
 45 38  1  0  0  0  0
 46 43  1  6  0  0  0
 46 39  1  0  0  0  0
 46 45  1  0  0  0  0
 47 48  1  0  0  0  0
 48 49  1  0  0  0  0
 50 48  1  0  0  0  0
 50 52  1  0  0  0  0
 51 52  1  0  0  0  0
 53 55  1  0  0  0  0
 55 54  2  0  0  0  0
M  END
>  <MODEL>
3

>  <REMARK>
 VINA RESULT:      -3.0      3.383      9.644
  Name = 
  8 active torsions:
  status: ('A' for Active; 'I' for Inactive)
    1  A    between atoms: C_6  and  C_25
    2  A    between atoms: C_6  and  C_46
    3  A    between atoms: C_8  and  C_22
    4  A    between atoms: C_12  and  C_30
    5  A    between atoms: C_13  and  C_52
    6  A    between atoms: C_22  and  C_43
    7  A    between atoms: C_25  and  C_38
    8  A    between atoms: C_30  and  C_50
                            x       y       z     vdW  Elec       q    Type
                         _______ _______ _______ _____ _____    ______ ____

>  <TORSDO>
F 8

$$$$
=
 OpenBabel11052414523D

 55 61  0  0  1  0  0  0  0  0999 V2000
  184.4060  178.1930  143.6310 O   0  0  0  0  0  0  0  0  0  0  0  0
  187.2590  178.8310  137.8680 C   0  0  0  0  0  2  0  0  0  0  0  0
  184.2950  177.1240  136.0370 C   0  0  0  0  0  2  0  0  0  0  0  0
  181.4860  177.8030  136.0080 C   0  0  0  0  0  3  0  0  0  0  0  0
  180.1770  178.2850  135.9960 C   0  0  0  0  0  3  0  0  0  0  0  0
  181.3260  177.3900  138.3940 C   0  0  0  0  0  0  0  0  0  0  0  0
  180.0040  177.8550  138.3670 C   0  0  0  0  0  3  0  0  0  0  0  0
  183.7090  175.5700  137.9020 C   0  0  0  0  0  1  0  0  0  0  0  0
  179.4330  178.3010  137.1740 C   0  0  0  0  0  3  0  0  0  0  0  0
  186.6610  177.8790  144.4490 C   0  0  0  0  0  3  0  0  0  0  0  0
  182.0770  177.3320  137.1940 C   0  0  0  0  0  0  0  0  0  0  0  0
  187.6950  178.6490  141.9660 C   0  0  0  0  0  0  0  0  0  0  0  0
  183.4570  178.6280  142.6610 C   0  0  0  0  0  2  0  0  0  0  0  0
  186.3190  178.6210  142.1770 C   0  0  0  0  0  3  0  0  0  0  0  0
  182.9750  177.4680  141.7870 C   0  0  2  0  0  3  0  0  0  0  0  0
  187.3820  176.8560  139.5220 C   0  0  0  0  0  2  0  0  0  0  0  0
  181.8710  177.0250  139.6290 O   0  0  0  0  0  0  0  0  0  0  0  0
  185.8180  178.4800  137.4930 C   0  0  0  0  0  2  0  0  0  0  0  0
  185.7380  177.3490  136.4840 C   0  0  0  0  0  2  0  0  0  0  0  0
  188.0470  177.9120  144.2460 C   0  0  0  0  0  3  0  0  0  0  0  0
  188.0560  177.6370  138.4150 C   0  0  2  0  0  0  0  0  0  0  0  0
  185.7890  178.2320  143.4140 C   0  0  0  0  0  0  0  0  0  0  0  0
  183.4090  176.7810  137.1500 N   0  0  0  0  0  0  0  0  0  0  0  0
  184.0400  177.0490  140.7820 C   0  0  0  0  0  2  0  0  0  0  0  0
  188.6100  177.7120  139.8420 C   0  0  1  0  0  3  0  0  0  0  0  0
  182.8370  177.8290  140.3040 C   0  0  2  0  0  0  0  0  0  0  0  0
  188.2100  178.9800  140.6010 C   0  0  0  0  0  2  0  0  0  0  0  0
  188.5640  178.2930  143.0020 C   0  0  0  0  0  3  0  0  0  0  0  0
  181.2300  182.0170  138.1260 C   0  0  0  0  0  0  0  0  0  0  0  0
  183.0280  179.2850  139.8170 C   0  0  1  0  0  3  0  0  0  0  0  0
  180.0660  182.4760  138.9310 C   0  0  0  0  0  1  0  0  0  0  0  0
  181.9980  180.8770  138.5300 N   0  0  0  0  0  0  0  0  0  0  0  0
  183.7270  179.3390  138.5910 O   0  0  0  0  0  0  0  0  0  0  0  0
  183.2150  180.4480  137.8810 C   0  0  0  0  0  2  0  0  0  0  0  0
  181.5480  182.6550  137.0880 O   0  0  0  0  0  0  0  0  0  0  0  0
  181.7740  180.1180  139.7250 C   0  0  0  0  0  2  0  0  0  0  0  0
  188.9120  176.8570  137.4060 C   0  0  0  0  0  2  0  0  0  0  0  0
  192.0000  174.0680  134.8410 O   0  0  0  0  0  0  0  0  0  0  0  0
  192.0770  174.7910  138.0770 C   0  0  0  0  0  2  0  0  0  0  0  0
  190.1920  176.3020  137.9590 C   0  0  0  0  0  3  0  0  0  0  0  0
  190.9060  173.5870  135.5840 C   0  0  1  0  0  3  0  0  0  0  0  0
  190.8060  175.2590  137.4200 C   0  0  0  0  0  0  0  0  0  0  0  0
  194.4470  174.0280  137.7290 C   0  0  0  0  0  1  0  0  0  0  0  0
  190.2700  174.6510  136.2840 O   0  0  0  0  0  0  0  0  0  0  0  0
  193.0580  174.5440  135.6690 C   0  0  2  0  0  3  0  0  0  0  0  0
  193.0540  174.0580  137.1390 C   0  0  2  0  0  3  0  0  0  0  0  0
  193.5460  176.7400  136.5920 O   0  0  0  0  0  1  0  0  0  0  0  0
  193.3720  176.0390  135.3990 C   0  0  0  0  0  0  0  0  0  0  0  0
  192.3210  176.6300  134.6900 O   0  0  0  0  0  1  0  0  0  0  0  0
  194.6660  176.1680  134.5940 C   0  0  0  0  0  2  0  0  0  0  0  0
  196.9230  176.4580  135.4770 N   0  0  0  0  0  1  0  0  0  0  0  0
  195.6730  177.1360  135.2050 C   0  0  0  0  0  2  0  0  0  0  0  0
  189.9040  172.9390  134.6390 C   0  0  0  0  0  2  0  0  0  0  0  0
  187.6840  174.0030  134.6470 C   0  0  0  0  0  2  0  0  0  0  0  0
  188.5080  173.0890  135.1480 C   0  0  0  0  0  3  0  0  0  0  0  0
  2 21  1  0  0  0  0
  3 19  1  0  0  0  0
  3 23  1  0  0  0  0
  4 11  1  0  0  0  0
  5  4  2  0  0  0  0
  5  9  1  0  0  0  0
  6 17  1  0  0  0  0
  7  6  1  0  0  0  0
  9  7  2  0  0  0  0
 11  6  2  0  0  0  0
 12 14  2  0  0  0  0
 12 28  1  0  0  0  0
 13  1  1  0  0  0  0
 14 22  1  0  0  0  0
 15 24  1  6  0  0  0
 15 13  1  0  0  0  0
 17 26  1  0  0  0  0
 18  2  1  0  0  0  0
 19 18  1  0  0  0  0
 20 10  1  0  0  0  0
 21 37  1  6  0  0  0
 21 16  1  0  0  0  0
 21 25  1  0  0  0  0
 22  1  1  0  0  0  0
 22 10  2  0  0  0  0
 23 11  1  0  0  0  0
 23  8  1  0  0  0  0
 25 16  1  1  0  0  0
 25 27  1  0  0  0  0
 26 24  1  6  0  0  0
 26 15  1  0  0  0  0
 27 12  1  0  0  0  0
 28 20  2  0  0  0  0
 29 32  1  0  0  0  0
 29 31  1  0  0  0  0
 30 36  1  6  0  0  0
 30 26  1  0  0  0  0
 32 36  1  0  0  0  0
 33 30  1  0  0  0  0
 34 32  1  0  0  0  0
 34 33  1  0  0  0  0
 35 29  2  0  0  0  0
 37 40  1  0  0  0  0
 38 41  1  0  0  0  0
 38 45  1  0  0  0  0
 41 53  1  6  0  0  0
 41 44  1  0  0  0  0
 42 40  2  0  0  0  0
 42 39  1  0  0  0  0
 44 42  1  0  0  0  0
 45 48  1  1  0  0  0
 45 46  1  0  0  0  0
 46 43  1  1  0  0  0
 46 39  1  0  0  0  0
 48 47  1  0  0  0  0
 49 48  1  0  0  0  0
 50 52  1  0  0  0  0
 50 48  1  0  0  0  0
 52 51  1  0  0  0  0
 53 55  1  0  0  0  0
 54 55  2  0  0  0  0
M  END
>  <MODEL>
4

>  <REMARK>
 VINA RESULT:      -2.3      4.339      6.009
  Name = 
  8 active torsions:
  status: ('A' for Active; 'I' for Inactive)
    1  A    between atoms: C_6  and  C_25
    2  A    between atoms: C_6  and  C_46
    3  A    between atoms: C_8  and  C_22
    4  A    between atoms: C_12  and  C_30
    5  A    between atoms: C_13  and  C_52
    6  A    between atoms: C_22  and  C_43
    7  A    between atoms: C_25  and  C_38
    8  A    between atoms: C_30  and  C_50
                            x       y       z     vdW  Elec       q    Type
                         _______ _______ _______ _____ _____    ______ ____

>  <TORSDO>
F 8

$$$$
=
 OpenBabel11052414523D

 55 61  0  0  1  0  0  0  0  0999 V2000
  179.2730  177.1130  142.4080 O   0  0  0  0  0  0  0  0  0  0  0  0
  184.5780  178.9430  139.2030 C   0  0  0  0  0  2  0  0  0  0  0  0
  184.6670  175.6480  137.1560 C   0  0  0  0  0  2  0  0  0  0  0  0
  182.6550  174.4570  135.4590 C   0  0  0  0  0  3  0  0  0  0  0  0
  181.6460  174.0320  134.5940 C   0  0  0  0  0  3  0  0  0  0  0  0
  181.1550  174.2090  137.3500 C   0  0  0  0  0  0  0  0  0  0  0  0
  180.1560  173.7620  136.4760 C   0  0  0  0  0  3  0  0  0  0  0  0
  183.7310  174.2030  138.9650 C   0  0  0  0  0  1  0  0  0  0  0  0
  180.4000  173.6750  135.1040 C   0  0  0  0  0  3  0  0  0  0  0  0
  180.2660  178.3090  144.2610 C   0  0  0  0  0  3  0  0  0  0  0  0
  182.4390  174.5360  136.8450 C   0  0  0  0  0  0  0  0  0  0  0  0
  182.2210  179.3680  142.5620 C   0  0  0  0  0  0  0  0  0  0  0  0
  179.1390  176.8020  141.0230 C   0  0  0  0  0  2  0  0  0  0  0  0
  181.2390  178.5170  142.0610 C   0  0  0  0  0  3  0  0  0  0  0  0
  179.9080  175.5310  140.6570 C   0  0  2  0  0  3  0  0  0  0  0  0
  184.3980  177.5860  141.3890 C   0  0  0  0  0  2  0  0  0  0  0  0
  180.8340  174.3470  138.7040 O   0  0  0  0  0  0  0  0  0  0  0  0
  184.0790  177.7550  138.3780 C   0  0  0  0  0  2  0  0  0  0  0  0
  185.1730  176.7430  138.0940 C   0  0  0  0  0  2  0  0  0  0  0  0
  181.2470  179.1710  144.7700 C   0  0  0  0  0  3  0  0  0  0  0  0
  185.2170  178.5330  140.5380 C   0  0  2  0  0  0  0  0  0  0  0  0
  180.2580  177.9760  142.9020 C   0  0  0  0  0  0  0  0  0  0  0  0
  183.5280  174.9160  137.7110 N   0  0  0  0  0  0  0  0  0  0  0  0
  181.4090  175.7810  140.6140 C   0  0  0  0  0  2  0  0  0  0  0  0
  184.5870  179.0360  141.8420 C   0  0  1  0  0  3  0  0  0  0  0  0
  180.6480  175.6210  139.3180 C   0  0  2  0  0  0  0  0  0  0  0  0
  183.3020  179.8440  141.6440 C   0  0  0  0  0  2  0  0  0  0  0  0
  182.2280  179.6970  143.9210 C   0  0  0  0  0  3  0  0  0  0  0  0
  180.2560  180.5220  138.4860 C   0  0  0  0  0  0  0  0  0  0  0  0
  180.4720  176.8480  138.3910 C   0  0  1  0  0  3  0  0  0  0  0  0
  181.5230  181.1250  138.9850 C   0  0  0  0  0  1  0  0  0  0  0  0
  180.0700  179.1010  138.4860 N   0  0  0  0  0  0  0  0  0  0  0  0
  179.1210  177.0400  138.0290 O   0  0  0  0  0  0  0  0  0  0  0  0
  178.9310  178.4340  137.9010 C   0  0  0  0  0  2  0  0  0  0  0  0
  179.3510  181.2770  138.0430 O   0  0  0  0  0  0  0  0  0  0  0  0
  181.0530  178.1440  138.8990 C   0  0  0  0  0  2  0  0  0  0  0  0
  186.7440  178.3700  140.5530 C   0  0  0  0  0  2  0  0  0  0  0  0
  191.4870  177.8060  141.5940 O   0  0  0  0  0  0  0  0  0  0  0  0
  188.9170  175.9810  142.6280 C   0  0  0  0  0  2  0  0  0  0  0  0
  187.2660  177.3950  141.5670 C   0  0  0  0  0  3  0  0  0  0  0  0
  190.7960  177.1190  140.5770 C   0  0  1  0  0  3  0  0  0  0  0  0
  188.5210  176.9690  141.5630 C   0  0  0  0  0  0  0  0  0  0  0  0
  190.6450  175.3330  144.3340 C   0  0  0  0  0  1  0  0  0  0  0  0
  189.4120  177.4490  140.6020 O   0  0  0  0  0  0  0  0  0  0  0  0
  191.1100  177.3740  142.8990 C   0  0  2  0  0  3  0  0  0  0  0  0
  190.4130  175.9940  142.9940 C   0  0  2  0  0  3  0  0  0  0  0  0
  189.3800  179.0610  143.1640 O   0  0  0  0  0  1  0  0  0  0  0  0
  190.5340  178.5380  143.7460 C   0  0  0  0  0  0  0  0  0  0  0  0
  191.4770  179.5650  143.8550 O   0  0  0  0  0  1  0  0  0  0  0  0
  190.1620  178.0380  145.1430 C   0  0  0  0  0  2  0  0  0  0  0  0
  188.3710  177.3510  146.6530 N   0  0  0  0  0  1  0  0  0  0  0  0
  188.6620  178.0420  145.4140 C   0  0  0  0  0  2  0  0  0  0  0  0
  191.3790  177.5080  139.2260 C   0  0  0  0  0  2  0  0  0  0  0  0
  189.5310  177.7900  137.6230 C   0  0  0  0  0  2  0  0  0  0  0  0
  190.5100  177.0330  138.1070 C   0  0  0  0  0  3  0  0  0  0  0  0
  1 22  1  0  0  0  0
  2 21  1  0  0  0  0
  3 23  1  0  0  0  0
  3 19  1  0  0  0  0
  4 11  1  0  0  0  0
  5  9  1  0  0  0  0
  5  4  2  0  0  0  0
  6 17  1  0  0  0  0
  7  6  1  0  0  0  0
  9  7  2  0  0  0  0
 10 20  1  0  0  0  0
 11  6  2  0  0  0  0
 11 23  1  0  0  0  0
 12 28  1  0  0  0  0
 13  1  1  0  0  0  0
 14 12  2  0  0  0  0
 14 22  1  0  0  0  0
 15 24  1  1  0  0  0
 15 13  1  0  0  0  0
 17 26  1  0  0  0  0
 18  2  1  0  0  0  0
 19 18  1  0  0  0  0
 21 37  1  1  0  0  0
 21 16  1  0  0  0  0
 21 25  1  0  0  0  0
 22 10  2  0  0  0  0
 23  8  1  0  0  0  0
 25 16  1  1  0  0  0
 26 24  1  1  0  0  0
 26 15  1  0  0  0  0
 27 25  1  0  0  0  0
 27 12  1  0  0  0  0
 28 20  2  0  0  0  0
 29 31  1  0  0  0  0
 30 36  1  1  0  0  0
 30 26  1  0  0  0  0
 32 29  1  0  0  0  0
 32 36  1  0  0  0  0
 33 30  1  0  0  0  0
 34 33  1  0  0  0  0
 34 32  1  0  0  0  0
 35 29  2  0  0  0  0
 37 40  1  0  0  0  0
 38 45  1  0  0  0  0
 39 46  1  0  0  0  0
 41 53  1  6  0  0  0
 41 44  1  0  0  0  0
 41 38  1  0  0  0  0
 42 40  2  0  0  0  0
 42 39  1  0  0  0  0
 44 42  1  0  0  0  0
 45 46  1  0  0  0  0
 45 48  1  6  0  0  0
 46 43  1  1  0  0  0
 47 48  1  0  0  0  0
 48 49  1  0  0  0  0
 48 50  1  0  0  0  0
 50 52  1  0  0  0  0
 52 51  1  0  0  0  0
 54 55  2  0  0  0  0
 55 53  1  0  0  0  0
M  END
>  <MODEL>
5

>  <REMARK>
 VINA RESULT:      -1.7      1.549      2.796
  Name = 
  8 active torsions:
  status: ('A' for Active; 'I' for Inactive)
    1  A    between atoms: C_6  and  C_25
    2  A    between atoms: C_6  and  C_46
    3  A    between atoms: C_8  and  C_22
    4  A    between atoms: C_12  and  C_30
    5  A    between atoms: C_13  and  C_52
    6  A    between atoms: C_22  and  C_43
    7  A    between atoms: C_25  and  C_38
    8  A    between atoms: C_30  and  C_50
                            x       y       z     vdW  Elec       q    Type
                         _______ _______ _______ _____ _____    ______ ____

>  <TORSDO>
F 8

$$$$
=
 OpenBabel11052414523D

 55 61  0  0  1  0  0  0  0  0999 V2000
  186.4210  176.5830  134.5970 O   0  0  0  0  0  0  0  0  0  0  0  0
  186.2690  177.4720  140.9960 C   0  0  0  0  0  2  0  0  0  0  0  0
  182.7610  179.1230  140.8410 C   0  0  0  0  0  2  0  0  0  0  0  0
  180.2770  178.1160  139.7630 C   0  0  0  0  0  3  0  0  0  0  0  0
  179.1220  177.4860  139.2980 C   0  0  0  0  0  3  0  0  0  0  0  0
  181.2400  178.0210  137.5380 C   0  0  0  0  0  0  0  0  0  0  0  0
  180.0670  177.4090  137.0760 C   0  0  0  0  0  3  0  0  0  0  0  0
  183.0840  180.1880  138.6050 C   0  0  0  0  0  1  0  0  0  0  0  0
  179.0130  177.1410  137.9530 C   0  0  0  0  0  3  0  0  0  0  0  0
  188.7900  177.0090  134.8310 C   0  0  0  0  0  3  0  0  0  0  0  0
  181.3430  178.4110  138.8960 C   0  0  0  0  0  0  0  0  0  0  0  0
  188.5620  176.8860  137.6170 C   0  0  0  0  0  0  0  0  0  0  0  0
  185.1370  176.2350  135.1080 C   0  0  0  0  0  2  0  0  0  0  0  0
  187.4420  176.6980  136.8100 C   0  0  0  0  0  3  0  0  0  0  0  0
  184.2820  177.4760  135.3730 C   0  0  2  0  0  3  0  0  0  0  0  0
  187.1120  179.0770  139.1610 C   0  0  0  0  0  2  0  0  0  0  0  0
  182.2910  178.1980  136.6320 O   0  0  0  0  0  0  0  0  0  0  0  0
  184.8130  177.7070  140.5880 C   0  0  0  0  0  2  0  0  0  0  0  0
  184.2500  178.9970  141.1560 C   0  0  0  0  0  2  0  0  0  0  0  0
  189.9220  177.1920  135.6370 C   0  0  0  0  0  3  0  0  0  0  0  0
  187.2060  178.6240  140.6020 C   0  0  2  0  0  0  0  0  0  0  0  0
  187.5430  176.7630  135.4150 C   0  0  0  0  0  0  0  0  0  0  0  0
  182.4910  179.1240  139.4020 N   0  0  0  0  0  0  0  0  0  0  0  0
  184.7470  178.2170  136.6190 C   0  0  0  0  0  2  0  0  0  0  0  0
  188.3630  178.3350  139.6380 C   0  0  1  0  0  3  0  0  0  0  0  0
  183.4750  177.4040  136.6740 C   0  0  2  0  0  0  0  0  0  0  0  0
  188.3870  176.9010  139.1030 C   0  0  0  0  0  2  0  0  0  0  0  0
  189.8070  177.1350  137.0310 C   0  0  0  0  0  3  0  0  0  0  0  0
  184.6850  172.6430  137.5340 C   0  0  0  0  0  0  0  0  0  0  0  0
  183.4440  176.1100  137.5220 C   0  0  1  0  0  3  0  0  0  0  0  0
  186.1720  172.6030  137.5900 C   0  0  0  0  0  1  0  0  0  0  0  0
  183.9900  173.8880  137.3920 N   0  0  0  0  0  0  0  0  0  0  0  0
  182.2360  175.3990  137.3470 O   0  0  0  0  0  0  0  0  0  0  0  0
  182.5540  174.0270  137.4620 C   0  0  0  0  0  2  0  0  0  0  0  0
  184.0380  171.5680  137.6330 O   0  0  0  0  0  0  0  0  0  0  0  0
  184.6150  175.1770  137.3400 C   0  0  0  0  0  2  0  0  0  0  0  0
  187.4780  179.6910  141.6730 C   0  0  0  0  0  2  0  0  0  0  0  0
  188.4280  176.2580  145.0200 O   0  0  0  0  0  0  0  0  0  0  0  0
  190.2940  178.8560  144.1440 C   0  0  0  0  0  2  0  0  0  0  0  0
  188.7950  179.5560  142.3800 C   0  0  0  0  0  3  0  0  0  0  0  0
  187.8620  177.5170  145.2940 C   0  0  1  0  0  3  0  0  0  0  0  0
  188.9210  178.9100  143.5300 C   0  0  0  0  0  0  0  0  0  0  0  0
  192.0230  177.4170  145.2660 C   0  0  0  0  0  1  0  0  0  0  0  0
  187.8050  178.3080  144.1110 O   0  0  0  0  0  0  0  0  0  0  0  0
  189.8050  176.3430  144.6620 C   0  0  2  0  0  3  0  0  0  0  0  0
  190.5420  177.6440  145.0620 C   0  0  2  0  0  3  0  0  0  0  0  0
  188.9030  175.7660  142.4790 O   0  0  0  0  0  1  0  0  0  0  0  0
  190.0680  175.7660  143.2460 C   0  0  0  0  0  0  0  0  0  0  0  0
  190.5330  174.4510  143.3420 O   0  0  0  0  0  1  0  0  0  0  0  0
  191.1030  176.6210  142.5140 C   0  0  0  0  0  2  0  0  0  0  0  0
  191.7530  177.4900  140.3270 N   0  0  0  0  0  1  0  0  0  0  0  0
  191.1590  176.3610  141.0130 C   0  0  0  0  0  2  0  0  0  0  0  0
  186.4530  177.3250  145.8360 C   0  0  0  0  0  2  0  0  0  0  0  0
  184.4990  178.7580  145.3950 C   0  0  0  0  0  2  0  0  0  0  0  0
  185.7190  178.6250  145.9040 C   0  0  0  0  0  3  0  0  0  0  0  0
  1 13  1  0  0  0  0
  1 22  1  0  0  0  0
  3 19  1  0  0  0  0
  5  4  1  0  0  0  0
  6 11  1  0  0  0  0
  7  6  2  0  0  0  0
  7  9  1  0  0  0  0
  8 23  1  0  0  0  0
  9  5  2  0  0  0  0
 10 22  2  0  0  0  0
 10 20  1  0  0  0  0
 11 23  1  0  0  0  0
 11  4  2  0  0  0  0
 12 27  1  0  0  0  0
 14 12  2  0  0  0  0
 15 13  1  1  0  0  0
 15 24  1  0  0  0  0
 15 26  1  0  0  0  0
 16 25  1  0  0  0  0
 16 21  1  0  0  0  0
 17 26  1  0  0  0  0
 17  6  1  0  0  0  0
 18  2  1  0  0  0  0
 18 19  1  0  0  0  0
 20 28  2  0  0  0  0
 21  2  1  0  0  0  0
 21 37  1  1  0  0  0
 22 14  1  0  0  0  0
 23  3  1  0  0  0  0
 25 27  1  6  0  0  0
 25 21  1  0  0  0  0
 26 24  1  1  0  0  0
 26 30  1  0  0  0  0
 28 12  1  0  0  0  0
 29 31  1  0  0  0  0
 29 35  2  0  0  0  0
 30 36  1  6  0  0  0
 32 34  1  0  0  0  0
 32 29  1  0  0  0  0
 33 34  1  0  0  0  0
 33 30  1  0  0  0  0
 36 32  1  0  0  0  0
 37 40  1  0  0  0  0
 38 41  1  0  0  0  0
 39 46  1  0  0  0  0
 40 42  2  0  0  0  0
 41 53  1  6  0  0  0
 42 44  1  0  0  0  0
 42 39  1  0  0  0  0
 44 41  1  0  0  0  0
 45 48  1  6  0  0  0
 45 38  1  0  0  0  0
 45 46  1  0  0  0  0
 46 43  1  6  0  0  0
 47 48  1  0  0  0  0
 48 49  1  0  0  0  0
 50 48  1  0  0  0  0
 51 52  1  0  0  0  0
 52 50  1  0  0  0  0
 53 55  1  0  0  0  0
 54 55  2  0  0  0  0
M  END
>  <MODEL>
6

>  <REMARK>
 VINA RESULT:      -0.8      2.470      5.713
  Name = 
  8 active torsions:
  status: ('A' for Active; 'I' for Inactive)
    1  A    between atoms: C_6  and  C_25
    2  A    between atoms: C_6  and  C_46
    3  A    between atoms: C_8  and  C_22
    4  A    between atoms: C_12  and  C_30
    5  A    between atoms: C_13  and  C_52
    6  A    between atoms: C_22  and  C_43
    7  A    between atoms: C_25  and  C_38
    8  A    between atoms: C_30  and  C_50
                            x       y       z     vdW  Elec       q    Type
                         _______ _______ _______ _____ _____    ______ ____

>  <TORSDO>
F 8

$$$$
=
 OpenBabel11052414523D

 55 61  0  0  1  0  0  0  0  0999 V2000
  179.2350  177.1460  142.3130 O   0  0  0  0  0  0  0  0  0  0  0  0
  184.2000  178.6610  138.4650 C   0  0  0  0  0  2  0  0  0  0  0  0
  184.0930  175.2050  136.7050 C   0  0  0  0  0  2  0  0  0  0  0  0
  181.9270  173.8900  135.3180 C   0  0  0  0  0  3  0  0  0  0  0  0
  180.8390  173.4010  134.5940 C   0  0  0  0  0  3  0  0  0  0  0  0
  180.6190  173.8130  137.3600 C   0  0  0  0  0  0  0  0  0  0  0  0
  179.5400  173.3000  136.6280 C   0  0  0  0  0  3  0  0  0  0  0  0
  183.3390  173.9250  138.7120 C   0  0  0  0  0  1  0  0  0  0  0  0
  179.6490  173.0960  135.2510 C   0  0  0  0  0  3  0  0  0  0  0  0
  180.4030  178.4860  143.9540 C   0  0  0  0  0  3  0  0  0  0  0  0
  181.8460  174.0870  136.7070 C   0  0  0  0  0  0  0  0  0  0  0  0
  182.1820  179.3840  141.9890 C   0  0  0  0  0  0  0  0  0  0  0  0
  178.9680  176.7200  140.9800 C   0  0  0  0  0  2  0  0  0  0  0  0
  181.1560  178.5010  141.6600 C   0  0  0  0  0  3  0  0  0  0  0  0
  179.6980  175.4170  140.6490 C   0  0  2  0  0  3  0  0  0  0  0  0
  184.2350  177.4950  140.7650 C   0  0  0  0  0  2  0  0  0  0  0  0
  180.4310  174.0660  138.7230 O   0  0  0  0  0  0  0  0  0  0  0  0
  183.6240  177.4110  137.7960 C   0  0  0  0  0  2  0  0  0  0  0  0
  184.6870  176.3710  137.4930 C   0  0  0  0  0  2  0  0  0  0  0  0
  181.4270  179.3810  144.2910 C   0  0  0  0  0  3  0  0  0  0  0  0
  184.9670  178.3600  139.7620 C   0  0  2  0  0  0  0  0  0  0  0  0
  180.2630  178.0400  142.6350 C   0  0  0  0  0  0  0  0  0  0  0  0
  183.0140  174.5310  137.4280 N   0  0  0  0  0  0  0  0  0  0  0  0
  181.1880  175.6520  140.4390 C   0  0  0  0  0  2  0  0  0  0  0  0
  184.4670  178.9760  141.0740 C   0  0  1  0  0  3  0  0  0  0  0  0
  180.3050  175.3890  139.2420 C   0  0  2  0  0  0  0  0  0  0  0  0
  183.1670  179.7730  140.9330 C   0  0  0  0  0  2  0  0  0  0  0  0
  182.3210  179.8260  143.3090 C   0  0  0  0  0  3  0  0  0  0  0  0
  181.7420  178.6190  135.7250 C   0  0  0  0  0  0  0  0  0  0  0  0
  180.0380  176.5350  138.2360 C   0  0  1  0  0  3  0  0  0  0  0  0
  182.2530  177.7940  134.5960 C   0  0  0  0  0  1  0  0  0  0  0  0
  181.1570  178.0020  136.8780 N   0  0  0  0  0  0  0  0  0  0  0  0
  180.0050  177.7940  138.8750 O   0  0  0  0  0  0  0  0  0  0  0  0
  180.5220  178.7300  137.9520 C   0  0  0  0  0  2  0  0  0  0  0  0
  181.8120  179.8730  135.6490 O   0  0  0  0  0  0  0  0  0  0  0  0
  180.9610  176.5920  137.0450 C   0  0  0  0  0  2  0  0  0  0  0  0
  186.4890  178.1890  139.6420 C   0  0  0  0  0  2  0  0  0  0  0  0
  190.5390  175.9050  138.1360 O   0  0  0  0  0  0  0  0  0  0  0  0
  188.7080  178.1420  136.5100 C   0  0  0  0  0  2  0  0  0  0  0  0
  187.0270  178.2780  138.2440 C   0  0  0  0  0  3  0  0  0  0  0  0
  190.5050  177.1850  138.7210 C   0  0  1  0  0  3  0  0  0  0  0  0
  188.2890  178.0020  137.9490 C   0  0  0  0  0  0  0  0  0  0  0  0
  189.9660  177.1110  134.5940 C   0  0  0  0  0  1  0  0  0  0  0  0
  189.1610  177.5900  138.9580 O   0  0  0  0  0  0  0  0  0  0  0  0
  189.9960  175.8900  136.8180 C   0  0  2  0  0  3  0  0  0  0  0  0
  189.8990  177.2570  136.0980 C   0  0  2  0  0  3  0  0  0  0  0  0
  187.8940  175.3480  135.7230 O   0  0  0  0  0  1  0  0  0  0  0  0
  188.7890  174.9230  136.7050 C   0  0  0  0  0  0  0  0  0  0  0  0
  188.1080  174.8590  137.9240 O   0  0  0  0  0  1  0  0  0  0  0  0
  189.2710  173.5240  136.3160 C   0  0  0  0  0  2  0  0  0  0  0  0
  187.6030  171.7570  136.0800 N   0  0  0  0  0  1  0  0  0  0  0  0
  188.3260  172.7920  135.3700 C   0  0  0  0  0  2  0  0  0  0  0  0
  191.2580  177.1510  140.0430 C   0  0  0  0  0  2  0  0  0  0  0  0
  190.6760  176.7160  142.3950 C   0  0  0  0  0  2  0  0  0  0  0  0
  190.3160  177.1740  141.2020 C   0  0  0  0  0  3  0  0  0  0  0  0
  1 22  1  0  0  0  0
  2 21  1  0  0  0  0
  3 23  1  0  0  0  0
  3 19  1  0  0  0  0
  4 11  1  0  0  0  0
  5  9  1  0  0  0  0
  5  4  2  0  0  0  0
  6 17  1  0  0  0  0
  7  6  1  0  0  0  0
  9  7  2  0  0  0  0
 10 20  1  0  0  0  0
 11  6  2  0  0  0  0
 11 23  1  0  0  0  0
 12 28  1  0  0  0  0
 13  1  1  0  0  0  0
 14 12  2  0  0  0  0
 14 22  1  0  0  0  0
 15 24  1  1  0  0  0
 15 13  1  0  0  0  0
 17 26  1  0  0  0  0
 18  2  1  0  0  0  0
 19 18  1  0  0  0  0
 21 37  1  6  0  0  0
 21 16  1  0  0  0  0
 21 25  1  0  0  0  0
 22 10  2  0  0  0  0
 23  8  1  0  0  0  0
 25 16  1  1  0  0  0
 26 24  1  1  0  0  0
 26 15  1  0  0  0  0
 27 25  1  0  0  0  0
 27 12  1  0  0  0  0
 28 20  2  0  0  0  0
 29 32  1  0  0  0  0
 30 36  1  6  0  0  0
 30 33  1  0  0  0  0
 30 26  1  0  0  0  0
 31 29  1  0  0  0  0
 32 36  1  0  0  0  0
 32 34  1  0  0  0  0
 34 33  1  0  0  0  0
 35 29  2  0  0  0  0
 38 41  1  0  0  0  0
 39 42  1  0  0  0  0
 40 37  1  0  0  0  0
 41 44  1  0  0  0  0
 41 53  1  1  0  0  0
 42 40  2  0  0  0  0
 42 44  1  0  0  0  0
 45 48  1  1  0  0  0
 45 38  1  0  0  0  0
 46 43  1  6  0  0  0
 46 39  1  0  0  0  0
 46 45  1  0  0  0  0
 47 48  1  0  0  0  0
 48 49  1  0  0  0  0
 50 48  1  0  0  0  0
 52 51  1  0  0  0  0
 52 50  1  0  0  0  0
 53 55  1  0  0  0  0
 55 54  2  0  0  0  0
M  END
>  <MODEL>
7

>  <REMARK>
 VINA RESULT:      -0.8      2.708      4.297
  Name = 
  8 active torsions:
  status: ('A' for Active; 'I' for Inactive)
    1  A    between atoms: C_6  and  C_25
    2  A    between atoms: C_6  and  C_46
    3  A    between atoms: C_8  and  C_22
    4  A    between atoms: C_12  and  C_30
    5  A    between atoms: C_13  and  C_52
    6  A    between atoms: C_22  and  C_43
    7  A    between atoms: C_25  and  C_38
    8  A    between atoms: C_30  and  C_50
                            x       y       z     vdW  Elec       q    Type
                         _______ _______ _______ _____ _____    ______ ____

>  <TORSDO>
F 8

$$$$
=
 OpenBabel11052414523D

 55 61  0  0  1  0  0  0  0  0999 V2000
  189.2390  177.3040  142.9900 O   0  0  0  0  0  0  0  0  0  0  0  0
  184.9330  177.2890  138.1730 C   0  0  0  0  0  2  0  0  0  0  0  0
  187.6500  178.1230  135.5310 C   0  0  0  0  0  2  0  0  0  0  0  0
  190.1010  176.7380  134.8830 C   0  0  0  0  0  3  0  0  0  0  0  0
  191.2040  175.9330  134.5970 C   0  0  0  0  0  3  0  0  0  0  0  0
  190.9670  177.1530  137.1120 C   0  0  0  0  0  0  0  0  0  0  0  0
  192.0810  176.3610  136.8070 C   0  0  0  0  0  3  0  0  0  0  0  0
  189.0570  179.5170  137.0520 C   0  0  0  0  0  1  0  0  0  0  0  0
  192.1990  175.7530  135.5550 C   0  0  0  0  0  3  0  0  0  0  0  0
  187.4190  178.2130  144.2990 C   0  0  0  0  0  3  0  0  0  0  0  0
  189.9700  177.3750  136.1300 C   0  0  0  0  0  0  0  0  0  0  0  0
  185.6240  177.6770  142.2200 C   0  0  0  0  0  0  0  0  0  0  0  0
  189.7700  176.6150  141.8620 C   0  0  0  0  0  2  0  0  0  0  0  0
  186.9720  177.3520  142.0880 C   0  0  0  0  0  3  0  0  0  0  0  0
  190.2790  177.5880  140.7960 C   0  0  2  0  0  3  0  0  0  0  0  0
  185.7270  179.2680  139.6230 C   0  0  0  0  0  2  0  0  0  0  0  0
  190.8640  177.6770  138.4050 O   0  0  0  0  0  0  0  0  0  0  0  0
  186.2690  177.2450  137.4290 C   0  0  0  0  0  2  0  0  0  0  0  0
  186.3610  178.2920  136.3340 C   0  0  0  0  0  2  0  0  0  0  0  0
  186.0630  178.5350  144.4420 C   0  0  0  0  0  3  0  0  0  0  0  0
  184.6200  178.6620  138.7870 C   0  0  2  0  0  0  0  0  0  0  0  0
  187.8820  177.6210  143.1190 C   0  0  0  0  0  0  0  0  0  0  0  0
  188.8480  178.2520  136.3610 N   0  0  0  0  0  0  0  0  0  0  0  0
  189.1280  178.2450  140.0470 C   0  0  0  0  0  2  0  0  0  0  0  0
  184.4520  178.7680  140.3070 C   0  0  1  0  0  3  0  0  0  0  0  0
  189.9380  177.1680  139.3630 C   0  0  2  0  0  0  0  0  0  0  0  0
  184.7110  177.4580  141.0570 C   0  0  0  0  0  2  0  0  0  0  0  0
  185.1660  178.2720  143.4000 C   0  0  0  0  0  3  0  0  0  0  0  0
  189.0770  173.1950  136.4750 C   0  0  0  0  0  0  0  0  0  0  0  0
  189.2780  175.8000  139.0690 C   0  0  1  0  0  3  0  0  0  0  0  0
  190.4050  172.5650  136.2390 C   0  0  0  0  0  1  0  0  0  0  0  0
  188.9450  174.3210  137.3510 N   0  0  0  0  0  0  0  0  0  0  0  0
  187.9350  175.9460  138.6550 O   0  0  0  0  0  0  0  0  0  0  0  0
  187.6810  174.9050  137.7340 C   0  0  0  0  0  2  0  0  0  0  0  0
  188.0610  172.7140  135.9080 O   0  0  0  0  0  0  0  0  0  0  0  0
  190.0150  174.9070  138.1020 C   0  0  0  0  0  2  0  0  0  0  0  0
  183.7520  179.6130  137.9500 C   0  0  0  0  0  2  0  0  0  0  0  0
  178.9480  179.1140  138.7030 O   0  0  0  0  0  0  0  0  0  0  0  0
  180.8990  181.6850  139.4680 C   0  0  0  0  0  2  0  0  0  0  0  0
  182.9270  180.5810  138.7470 C   0  0  0  0  0  3  0  0  0  0  0  0
  179.5280  179.7700  137.6010 C   0  0  1  0  0  3  0  0  0  0  0  0
  181.6100  180.6640  138.6200 C   0  0  0  0  0  0  0  0  0  0  0  0
  178.9330  182.1510  140.9640 C   0  0  0  0  0  1  0  0  0  0  0  0
  180.9450  179.8160  137.7350 O   0  0  0  0  0  0  0  0  0  0  0  0
  179.1010  179.8450  139.9170 C   0  0  2  0  0  3  0  0  0  0  0  0
  179.4270  181.3520  139.7780 C   0  0  2  0  0  3  0  0  0  0  0  0
  180.9070  179.7830  141.5430 O   0  0  0  0  0  1  0  0  0  0  0  0
  179.8750  179.0290  140.9860 C   0  0  0  0  0  0  0  0  0  0  0  0
  180.4280  177.8830  140.4070 O   0  0  0  0  0  1  0  0  0  0  0  0
  178.9330  178.6240  142.1210 C   0  0  0  0  0  2  0  0  0  0  0  0
  179.7740  177.4760  144.1040 N   0  0  0  0  0  1  0  0  0  0  0  0
  179.5470  178.7750  143.5080 C   0  0  0  0  0  2  0  0  0  0  0  0
  179.1690  179.0200  136.3260 C   0  0  0  0  0  2  0  0  0  0  0  0
  180.7670  177.2390  135.7430 C   0  0  0  0  0  2  0  0  0  0  0  0
  180.3940  178.5100  135.6380 C   0  0  0  0  0  3  0  0  0  0  0  0
  1 22  1  0  0  0  0
  2 21  1  0  0  0  0
  3 19  1  0  0  0  0
  3 23  1  0  0  0  0
  4 11  1  0  0  0  0
  5  4  2  0  0  0  0
  5  9  1  0  0  0  0
  6 17  1  0  0  0  0
  7  6  1  0  0  0  0
  9  7  2  0  0  0  0
 10 20  1  0  0  0  0
 11 23  1  0  0  0  0
 11  6  2  0  0  0  0
 12 28  1  0  0  0  0
 13  1  1  0  0  0  0
 14 12  2  0  0  0  0
 14 22  1  0  0  0  0
 15 24  1  1  0  0  0
 15 13  1  0  0  0  0
 17 26  1  0  0  0  0
 18  2  1  0  0  0  0
 19 18  1  0  0  0  0
 21 37  1  6  0  0  0
 21 16  1  0  0  0  0
 21 25  1  0  0  0  0
 22 10  2  0  0  0  0
 23  8  1  0  0  0  0
 25 16  1  1  0  0  0
 25 27  1  0  0  0  0
 26 24  1  6  0  0  0
 26 15  1  0  0  0  0
 27 12  1  0  0  0  0
 28 20  2  0  0  0  0
 29 32  1  0  0  0  0
 30 36  1  6  0  0  0
 30 26  1  0  0  0  0
 31 29  1  0  0  0  0
 32 34  1  0  0  0  0
 32 36  1  0  0  0  0
 33 30  1  0  0  0  0
 34 33  1  0  0  0  0
 35 29  2  0  0  0  0
 37 40  1  0  0  0  0
 38 45  1  0  0  0  0
 39 46  1  0  0  0  0
 41 53  1  6  0  0  0
 41 44  1  0  0  0  0
 41 38  1  0  0  0  0
 42 40  2  0  0  0  0
 42 39  1  0  0  0  0
 44 42  1  0  0  0  0
 45 48  1  1  0  0  0
 46 45  1  0  0  0  0
 46 43  1  1  0  0  0
 48 47  1  0  0  0  0
 48 50  1  0  0  0  0
 49 48  1  0  0  0  0
 50 52  1  0  0  0  0
 52 51  1  0  0  0  0
 55 54  2  0  0  0  0
 55 53  1  0  0  0  0
M  END
>  <MODEL>
8

>  <REMARK>
 VINA RESULT:      -0.6      3.473      9.265
  Name = 
  8 active torsions:
  status: ('A' for Active; 'I' for Inactive)
    1  A    between atoms: C_6  and  C_25
    2  A    between atoms: C_6  and  C_46
    3  A    between atoms: C_8  and  C_22
    4  A    between atoms: C_12  and  C_30
    5  A    between atoms: C_13  and  C_52
    6  A    between atoms: C_22  and  C_43
    7  A    between atoms: C_25  and  C_38
    8  A    between atoms: C_30  and  C_50
                            x       y       z     vdW  Elec       q    Type
                         _______ _______ _______ _____ _____    ______ ____

>  <TORSDO>
F 8

$$$$
