=
 OpenBabel11052412393D

 25 29  0  0  1  0  0  0  0  0999 V2000
  187.1500  177.9300  145.5790 C   0  0  0  0  0  0  0  0  0  0  0  0
  188.3850  177.1520  145.2510 C   0  0  1  0  0  3  0  0  0  0  0  0
  187.6430  178.1030  147.9510 C   0  0  0  0  0  3  0  0  0  0  0  0
  186.0480  178.1690  144.8910 C   0  0  0  0  0  0  0  0  0  0  0  0
  183.5320  178.8200  143.9240 C   0  0  0  0  0  3  0  0  0  0  0  0
  188.9930  177.5530  147.6660 C   0  0  0  0  0  3  0  0  0  0  0  0
  185.0890  178.7000  145.7490 C   0  0  0  0  0  0  0  0  0  0  0  0
  183.8200  179.0380  145.2820 C   0  0  0  0  0  3  0  0  0  0  0  0
  190.7520  176.7560  146.1410 C   0  0  0  0  0  0  0  0  0  0  0  0
  191.8270  176.1980  147.4120 Cl  0  0  0  0  0  0  0  0  0  0  0  0
  189.0580  177.5970  143.9820 C   0  0  0  0  0  3  0  0  0  0  0  0
  184.5020  178.2650  143.0630 C   0  0  0  0  0  3  0  0  0  0  0  0
  186.8110  178.2940  146.9310 C   0  0  0  0  0  0  0  0  0  0  0  0
  185.4790  178.7960  146.9850 N   0  0  0  0  0  0  0  0  0  0  0  0
  191.2220  176.8810  144.8950 C   0  0  0  0  0  3  0  0  0  0  0  0
  185.7770  177.9270  143.5450 C   0  0  0  0  0  3  0  0  0  0  0  0
  190.3720  177.4080  143.8010 C   0  0  0  0  0  0  0  0  0  0  0  0
  189.3610  177.1590  146.4260 C   0  0  0  0  0  0  0  0  0  0  0  0
  190.9930  177.7670  142.4970 C   0  0  0  0  0  2  0  0  0  0  0  0
  190.3660  176.9540  141.3790 C   0  0  2  0  0  3  0  0  0  0  0  0
  190.5080  177.7190  140.0760 C   0  0  2  0  0  3  0  0  0  0  0  0
  189.1820  177.7060  140.8130 C   0  0  0  0  0  2  0  0  0  0  0  0
  190.4640  176.7660  138.9270 C   0  0  0  0  0  0  0  0  0  0  0  0
  189.9760  177.1800  137.6940 O   0  0  0  0  0  0  0  0  0  0  0  0
  190.8280  175.5710  139.0830 O   0  0  0  0  0  1  0  0  0  0  0  0
  1 13  1  0  0  0  0
  2 11  1  6  0  0  0
  2  1  1  0  0  0  0
  2 18  1  0  0  0  0
  4  1  2  0  0  0  0
  4  7  1  0  0  0  0
  5  8  2  0  0  0  0
  6  3  1  0  0  0  0
  7 14  2  0  0  0  0
  8  7  1  0  0  0  0
  9 18  1  0  0  0  0
  9 10  1  0  0  0  0
 12 16  2  0  0  0  0
 12  5  1  0  0  0  0
 13 14  1  0  0  0  0
 13  3  2  0  0  0  0
 15  9  2  0  0  0  0
 16  4  1  0  0  0  0
 17 11  2  0  0  0  0
 17 15  1  0  0  0  0
 18  6  2  0  0  0  0
 19 17  1  0  0  0  0
 20 19  1  1  0  0  0
 21 23  1  6  0  0  0
 21 22  1  0  0  0  0
 21 20  1  0  0  0  0
 22 20  1  0  0  0  0
 23 25  1  0  0  0  0
 24 23  2  0  0  0  0
M  END
>  <MODEL>
1

>  <REMARK>
 VINA RESULT:     -11.3      0.000      0.000
  Name = 
  3 active torsions:
  status: ('A' for Active; 'I' for Inactive)
    1  A    between atoms: C_2  and  C_21
    2  A    between atoms: C_6  and  C_15
    3  A    between atoms: C_6  and  C_23
                            x       y       z     vdW  Elec       q    Type
                         _______ _______ _______ _____ _____    ______ ____

>  <TORSDO>
F 3

$$$$
=
 OpenBabel11052412393D

 25 29  0  0  1  0  0  0  0  0999 V2000
  187.1540  177.9620  142.4180 C   0  0  0  0  0  0  0  0  0  0  0  0
  186.2580  177.6640  143.5790 C   0  0  1  0  0  3  0  0  0  0  0  0
  185.4640  179.1710  141.1630 C   0  0  0  0  0  3  0  0  0  0  0  0
  188.3350  177.4830  142.0690 C   0  0  0  0  0  0  0  0  0  0  0  0
  190.7010  176.7000  140.8540 C   0  0  0  0  0  3  0  0  0  0  0  0
  184.5980  179.1260  142.3680 C   0  0  0  0  0  3  0  0  0  0  0  0
  188.6080  177.8740  140.7610 C   0  0  0  0  0  0  0  0  0  0  0  0
  189.7930  177.4950  140.1340 C   0  0  0  0  0  3  0  0  0  0  0  0
  184.1590  178.5750  144.7260 C   0  0  0  0  0  0  0  0  0  0  0  0
  182.4540  178.9880  144.6740 Cl  0  0  0  0  0  0  0  0  0  0  0  0
  186.9270  177.8350  144.9160 C   0  0  0  0  0  3  0  0  0  0  0  0
  190.4110  176.2920  142.1730 C   0  0  0  0  0  3  0  0  0  0  0  0
  186.6790  178.6350  141.2370 C   0  0  0  0  0  0  0  0  0  0  0  0
  187.6560  178.5610  140.2040 N   0  0  0  0  0  0  0  0  0  0  0  0
  184.7560  178.4050  145.9120 C   0  0  0  0  0  3  0  0  0  0  0  0
  189.2120  176.6790  142.7940 C   0  0  0  0  0  3  0  0  0  0  0  0
  186.2070  178.1190  146.0090 C   0  0  0  0  0  0  0  0  0  0  0  0
  184.9700  178.4800  143.4960 C   0  0  0  0  0  0  0  0  0  0  0  0
  186.8800  178.1840  147.3350 C   0  0  0  0  0  2  0  0  0  0  0  0
  188.3840  178.2840  147.1530 C   0  0  2  0  0  3  0  0  0  0  0  0
  189.0220  176.9870  147.6160 C   0  0  2  0  0  3  0  0  0  0  0  0
  189.0590  178.2170  148.5040 C   0  0  0  0  0  2  0  0  0  0  0  0
  190.3400  176.8060  146.9380 C   0  0  0  0  0  0  0  0  0  0  0  0
  191.3280  176.0270  147.5280 O   0  0  0  0  0  1  0  0  0  0  0  0
  190.5760  177.3930  145.8500 O   0  0  0  0  0  0  0  0  0  0  0  0
  1  2  1  0  0  0  0
  2 11  1  1  0  0  0
  3 13  2  0  0  0  0
  3  6  1  0  0  0  0
  4  1  2  0  0  0  0
  4 16  1  0  0  0  0
  5 12  1  0  0  0  0
  6 18  2  0  0  0  0
  7  4  1  0  0  0  0
  8  7  1  0  0  0  0
  8  5  2  0  0  0  0
  9 15  2  0  0  0  0
 10  9  1  0  0  0  0
 11 17  2  0  0  0  0
 12 16  2  0  0  0  0
 13  1  1  0  0  0  0
 14  7  2  0  0  0  0
 14 13  1  0  0  0  0
 15 17  1  0  0  0  0
 17 19  1  0  0  0  0
 18  2  1  0  0  0  0
 18  9  1  0  0  0  0
 20 19  1  1  0  0  0
 20 21  1  0  0  0  0
 20 22  1  0  0  0  0
 21 23  1  6  0  0  0
 21 22  1  0  0  0  0
 23 24  1  0  0  0  0
 25 23  2  0  0  0  0
M  END
>  <MODEL>
2

>  <REMARK>
 VINA RESULT:     -10.8      3.494      6.647
  Name = 
  3 active torsions:
  status: ('A' for Active; 'I' for Inactive)
    1  A    between atoms: C_2  and  C_21
    2  A    between atoms: C_6  and  C_15
    3  A    between atoms: C_6  and  C_23
                            x       y       z     vdW  Elec       q    Type
                         _______ _______ _______ _____ _____    ______ ____

>  <TORSDO>
F 3

$$$$
=
 OpenBabel11052412393D

 25 29  0  0  1  0  0  0  0  0999 V2000
  185.9640  178.1530  144.7010 C   0  0  0  0  0  0  0  0  0  0  0  0
  187.2470  177.3880  144.6080 C   0  0  1  0  0  3  0  0  0  0  0  0
  186.0790  178.4500  147.1080 C   0  0  0  0  0  3  0  0  0  0  0  0
  184.9790  178.3340  143.8380 C   0  0  0  0  0  0  0  0  0  0  0  0
  182.6360  178.8810  142.4620 C   0  0  0  0  0  3  0  0  0  0  0  0
  187.4650  177.9180  147.0640 C   0  0  0  0  0  3  0  0  0  0  0  0
  183.8900  178.8830  144.5100 C   0  0  0  0  0  0  0  0  0  0  0  0
  182.7050  179.1700  143.8360 C   0  0  0  0  0  3  0  0  0  0  0  0
  189.4520  177.0880  145.8730 C   0  0  0  0  0  0  0  0  0  0  0  0
  190.3240  176.6160  147.3210 Cl  0  0  0  0  0  0  0  0  0  0  0  0
  188.1020  177.7870  143.4370 C   0  0  0  0  0  3  0  0  0  0  0  0
  183.7360  178.3080  141.7910 C   0  0  0  0  0  3  0  0  0  0  0  0
  185.4130  178.5740  145.9640 C   0  0  0  0  0  0  0  0  0  0  0  0
  184.0820  179.0470  145.7850 N   0  0  0  0  0  0  0  0  0  0  0  0
  190.1080  177.1640  144.7090 C   0  0  0  0  0  3  0  0  0  0  0  0
  184.9250  178.0220  142.4810 C   0  0  0  0  0  3  0  0  0  0  0  0
  189.4310  177.6190  143.4720 C   0  0  0  0  0  0  0  0  0  0  0  0
  188.0270  177.4730  145.9180 C   0  0  0  0  0  0  0  0  0  0  0  0
  190.2420  177.9290  142.2630 C   0  0  0  0  0  2  0  0  0  0  0  0
  189.7680  177.0930  141.0880 C   0  0  2  0  0  3  0  0  0  0  0  0
  190.2450  177.7400  139.8010 C   0  0  2  0  0  3  0  0  0  0  0  0
  188.8050  177.9040  140.2500 C   0  0  0  0  0  2  0  0  0  0  0  0
  190.3300  176.7100  138.7230 C   0  0  0  0  0  0  0  0  0  0  0  0
  189.9790  177.0340  137.4180 O   0  0  0  0  0  0  0  0  0  0  0  0
  190.6800  175.5330  139.0000 O   0  0  0  0  0  1  0  0  0  0  0  0
  1 13  1  0  0  0  0
  2 11  1  6  0  0  0
  2  1  1  0  0  0  0
  2 18  1  0  0  0  0
  4  7  1  0  0  0  0
  4  1  2  0  0  0  0
  5  8  2  0  0  0  0
  6  3  1  0  0  0  0
  7 14  2  0  0  0  0
  8  7  1  0  0  0  0
  9 18  1  0  0  0  0
  9 10  1  0  0  0  0
 11 17  2  0  0  0  0
 12  5  1  0  0  0  0
 12 16  2  0  0  0  0
 13  3  2  0  0  0  0
 14 13  1  0  0  0  0
 15  9  2  0  0  0  0
 16  4  1  0  0  0  0
 17 15  1  0  0  0  0
 18  6  2  0  0  0  0
 19 17  1  0  0  0  0
 20 19  1  1  0  0  0
 21 23  1  6  0  0  0
 21 22  1  0  0  0  0
 21 20  1  0  0  0  0
 22 20  1  0  0  0  0
 23 25  1  0  0  0  0
 24 23  2  0  0  0  0
M  END
>  <MODEL>
3

>  <REMARK>
 VINA RESULT:     -10.7      0.936      1.330
  Name = 
  3 active torsions:
  status: ('A' for Active; 'I' for Inactive)
    1  A    between atoms: C_2  and  C_21
    2  A    between atoms: C_6  and  C_15
    3  A    between atoms: C_6  and  C_23
                            x       y       z     vdW  Elec       q    Type
                         _______ _______ _______ _____ _____    ______ ____

>  <TORSDO>
F 3

$$$$
=
 OpenBabel11052412393D

 25 29  0  0  1  0  0  0  0  0999 V2000
  186.8400  177.8210  144.2250 C   0  0  0  0  0  0  0  0  0  0  0  0
  187.9080  176.9810  143.5990 C   0  0  1  0  0  3  0  0  0  0  0  0
  187.8860  177.8750  146.4170 C   0  0  0  0  0  3  0  0  0  0  0  0
  185.6270  178.1540  143.8210 C   0  0  0  0  0  0  0  0  0  0  0  0
  183.0070  178.9960  143.4890 C   0  0  0  0  0  3  0  0  0  0  0  0
  189.0900  177.2530  145.8100 C   0  0  0  0  0  3  0  0  0  0  0  0
  184.9350  178.7110  144.8930 C   0  0  0  0  0  0  0  0  0  0  0  0
  183.6190  179.1440  144.7450 C   0  0  0  0  0  3  0  0  0  0  0  0
  190.3850  176.4050  143.8970 C   0  0  0  0  0  0  0  0  0  0  0  0
  191.6850  175.7340  144.8660 Cl  0  0  0  0  0  0  0  0  0  0  0  0
  188.2940  177.4300  142.2160 C   0  0  0  0  0  3  0  0  0  0  0  0
  183.7080  178.4140  142.4120 C   0  0  0  0  0  3  0  0  0  0  0  0
  186.8530  178.1550  145.6260 C   0  0  0  0  0  0  0  0  0  0  0  0
  185.6090  178.7370  146.0040 N   0  0  0  0  0  0  0  0  0  0  0  0
  190.5570  176.5470  142.5780 C   0  0  0  0  0  3  0  0  0  0  0  0
  185.0330  177.9800  142.5720 C   0  0  0  0  0  3  0  0  0  0  0  0
  189.5140  177.1670  141.7270 C   0  0  0  0  0  0  0  0  0  0  0  0
  189.1300  176.8830  144.5100 C   0  0  0  0  0  0  0  0  0  0  0  0
  189.8360  177.5350  140.3210 C   0  0  0  0  0  2  0  0  0  0  0  0
  188.6760  178.2920  139.7010 C   0  0  2  0  0  3  0  0  0  0  0  0
  188.1790  177.5250  138.4900 C   0  0  2  0  0  3  0  0  0  0  0  0
  189.0590  178.7480  138.3100 C   0  0  0  0  0  2  0  0  0  0  0  0
  186.7530  177.8770  138.2220 C   0  0  0  0  0  0  0  0  0  0  0  0
  186.0400  178.6470  139.1340 O   0  0  0  0  0  1  0  0  0  0  0  0
  186.1780  177.4420  137.1900 O   0  0  0  0  0  0  0  0  0  0  0  0
  1 13  1  0  0  0  0
  2 11  1  6  0  0  0
  2  1  1  0  0  0  0
  2 18  1  0  0  0  0
  4  1  2  0  0  0  0
  4  7  1  0  0  0  0
  5  8  2  0  0  0  0
  6  3  1  0  0  0  0
  7 14  2  0  0  0  0
  8  7  1  0  0  0  0
  9 18  1  0  0  0  0
  9 10  1  0  0  0  0
 12 16  2  0  0  0  0
 12  5  1  0  0  0  0
 13 14  1  0  0  0  0
 13  3  2  0  0  0  0
 15  9  2  0  0  0  0
 16  4  1  0  0  0  0
 17 11  2  0  0  0  0
 17 15  1  0  0  0  0
 18  6  2  0  0  0  0
 19 17  1  0  0  0  0
 20 19  1  1  0  0  0
 21 23  1  6  0  0  0
 21 20  1  0  0  0  0
 22 21  1  0  0  0  0
 22 20  1  0  0  0  0
 23 24  1  0  0  0  0
 25 23  2  0  0  0  0
M  END
>  <MODEL>
4

>  <REMARK>
 VINA RESULT:     -10.5      1.843      2.388
  Name = 
  3 active torsions:
  status: ('A' for Active; 'I' for Inactive)
    1  A    between atoms: C_2  and  C_21
    2  A    between atoms: C_6  and  C_15
    3  A    between atoms: C_6  and  C_23
                            x       y       z     vdW  Elec       q    Type
                         _______ _______ _______ _____ _____    ______ ____

>  <TORSDO>
F 3

$$$$
=
 OpenBabel11052412393D

 25 29  0  0  1  0  0  0  0  0999 V2000
  186.9390  177.7620  144.2120 C   0  0  0  0  0  0  0  0  0  0  0  0
  187.9110  177.0020  143.3650 C   0  0  0  0  0  0  0  0  0  0  0  0
  188.2440  177.5580  146.2500 C   0  0  0  0  0  3  0  0  0  0  0  0
  185.6910  178.1400  144.0010 C   0  0  0  0  0  0  0  0  0  0  0  0
  183.0610  179.0130  144.0930 C   0  0  0  0  0  3  0  0  0  0  0  0
  189.3560  177.0130  145.4320 C   0  0  0  0  0  3  0  0  0  0  0  0
  185.1410  178.5660  145.2070 C   0  0  0  0  0  0  0  0  0  0  0  0
  183.8230  179.0130  145.2740 C   0  0  0  0  0  3  0  0  0  0  0  0
  190.3970  176.3970  143.2890 C   0  0  0  0  0  0  0  0  0  0  0  0
  191.7970  175.6170  144.0060 Cl  0  0  0  0  0  0  0  0  0  0  0  0
  188.1330  177.6120  142.0080 C   0  0  0  0  0  2  0  0  0  0  0  0
  183.6180  178.5630  142.8780 C   0  0  0  0  0  3  0  0  0  0  0  0
  187.1270  177.9290  145.6300 C   0  0  0  0  0  0  0  0  0  0  0  0
  185.9460  178.4610  146.2220 N   0  0  0  0  0  0  0  0  0  0  0  0
  190.4100  176.6930  141.9840 C   0  0  0  0  0  3  0  0  0  0  0  0
  184.9470  178.1140  142.8230 C   0  0  0  0  0  3  0  0  0  0  0  0
  189.2800  177.4080  141.3460 C   0  0  0  0  0  0  0  0  0  0  0  0
  189.2330  176.7990  144.1030 C   0  0  0  0  0  0  0  0  0  0  0  0
  189.4330  177.9390  139.9640 C   0  0  0  0  0  2  0  0  0  0  0  0
  189.4810  176.7960  138.9670 C   0  0  2  0  0  3  0  0  0  0  0  0
  190.6100  177.0460  137.9860 C   0  0  2  0  0  3  0  0  0  0  0  0
  189.1730  177.3220  137.5830 C   0  0  0  0  0  2  0  0  0  0  0  0
  191.0650  175.7490  137.4010 C   0  0  0  0  0  0  0  0  0  0  0  0
  190.8150  174.5560  138.0690 O   0  0  0  0  0  1  0  0  0  0  0  0
  191.7140  175.7350  136.3230 O   0  0  0  0  0  0  0  0  0  0  0  0
  1 13  1  0  0  0  0
  2 18  1  0  0  0  0
  2  1  2  0  0  0  0
  4  1  1  0  0  0  0
  4  7  1  0  0  0  0
  5  8  1  0  0  0  0
  6  3  2  0  0  0  0
  7  8  2  0  0  0  0
  7 14  1  0  0  0  0
  9 10  1  0  0  0  0
  9 18  2  0  0  0  0
 11  2  1  0  0  0  0
 12  5  2  0  0  0  0
 13 14  2  0  0  0  0
 13  3  1  0  0  0  0
 15  9  1  0  0  0  0
 16 12  1  0  0  0  0
 16  4  2  0  0  0  0
 17 15  2  0  0  0  0
 17 11  1  0  0  0  0
 18  6  1  0  0  0  0
 19 17  1  0  0  0  0
 20 19  1  1  0  0  0
 21 23  1  6  0  0  0
 21 20  1  0  0  0  0
 22 21  1  0  0  0  0
 22 20  1  0  0  0  0
 23 24  1  0  0  0  0
 25 23  2  0  0  0  0
M  END
>  <MODEL>
5

>  <REMARK>
 VINA RESULT:     -10.1      1.367      2.182
  Name = 
  3 active torsions:
  status: ('A' for Active; 'I' for Inactive)
    1  A    between atoms: C_2  and  C_21
    2  A    between atoms: C_6  and  C_15
    3  A    between atoms: C_6  and  C_23
                            x       y       z     vdW  Elec       q    Type
                         _______ _______ _______ _____ _____    ______ ____

>  <TORSDO>
F 3

$$$$
=
 OpenBabel11052412393D

 25 29  0  0  1  0  0  0  0  0999 V2000
  189.8680  177.1600  143.2920 C   0  0  0  0  0  0  0  0  0  0  0  0
  189.9210  177.6820  144.6940 C   0  0  1  0  0  3  0  0  0  0  0  0
  191.7610  175.6630  143.5620 C   0  0  0  0  0  3  0  0  0  0  0  0
  189.2240  177.5800  142.2170 C   0  0  0  0  0  0  0  0  0  0  0  0
  188.2170  178.1360  139.6950 C   0  0  0  0  0  3  0  0  0  0  0  0
  191.7250  175.9500  145.0180 C   0  0  0  0  0  3  0  0  0  0  0  0
  189.7340  176.9190  141.1030 C   0  0  0  0  0  0  0  0  0  0  0  0
  189.2380  177.1800  139.8270 C   0  0  0  0  0  3  0  0  0  0  0  0
  190.7400  176.9920  147.0180 C   0  0  0  0  0  0  0  0  0  0  0  0
  192.0460  176.5360  148.0990 Cl  0  0  0  0  0  0  0  0  0  0  0  0
  188.5680  177.8250  145.3350 C   0  0  0  0  0  3  0  0  0  0  0  0
  187.7170  178.8150  140.8250 C   0  0  0  0  0  3  0  0  0  0  0  0
  190.8460  176.2330  142.7830 C   0  0  0  0  0  0  0  0  0  0  0  0
  190.7100  176.1030  141.3710 N   0  0  0  0  0  0  0  0  0  0  0  0
  189.5870  177.4320  147.5350 C   0  0  0  0  0  3  0  0  0  0  0  0
  188.2250  178.5450  142.1060 C   0  0  0  0  0  3  0  0  0  0  0  0
  188.4330  177.7690  146.6670 C   0  0  0  0  0  0  0  0  0  0  0  0
  190.8560  176.8360  145.5550 C   0  0  0  0  0  0  0  0  0  0  0  0
  187.0990  178.0120  147.2810 C   0  0  0  0  0  2  0  0  0  0  0  0
  186.0040  177.7970  146.2520 C   0  0  2  0  0  3  0  0  0  0  0  0
  185.4720  179.1480  145.8110 C   0  0  2  0  0  3  0  0  0  0  0  0
  184.6900  178.3060  146.8020 C   0  0  0  0  0  2  0  0  0  0  0  0
  184.8670  179.0300  144.4510 C   0  0  0  0  0  0  0  0  0  0  0  0
  185.2700  178.0140  143.5920 O   0  0  0  0  0  0  0  0  0  0  0  0
  184.0210  179.8760  144.0610 O   0  0  0  0  0  1  0  0  0  0  0  0
  1  2  1  0  0  0  0
  2 11  1  1  0  0  0
  2 18  1  0  0  0  0
  3  6  1  0  0  0  0
  4  1  2  0  0  0  0
  5  8  2  0  0  0  0
  5 12  1  0  0  0  0
  6 18  2  0  0  0  0
  7 14  2  0  0  0  0
  7  4  1  0  0  0  0
  8  7  1  0  0  0  0
  9 15  2  0  0  0  0
  9 10  1  0  0  0  0
 11 17  2  0  0  0  0
 12 16  2  0  0  0  0
 13  1  1  0  0  0  0
 13  3  2  0  0  0  0
 14 13  1  0  0  0  0
 16  4  1  0  0  0  0
 17 19  1  0  0  0  0
 17 15  1  0  0  0  0
 18  9  1  0  0  0  0
 20 22  1  0  0  0  0
 20 19  1  1  0  0  0
 21 23  1  6  0  0  0
 21 20  1  0  0  0  0
 21 22  1  0  0  0  0
 24 23  2  0  0  0  0
 25 23  1  0  0  0  0
M  END
>  <MODEL>
6

>  <REMARK>
 VINA RESULT:     -10.1      3.081      5.697
  Name = 
  3 active torsions:
  status: ('A' for Active; 'I' for Inactive)
    1  A    between atoms: C_2  and  C_21
    2  A    between atoms: C_6  and  C_15
    3  A    between atoms: C_6  and  C_23
                            x       y       z     vdW  Elec       q    Type
                         _______ _______ _______ _____ _____    ______ ____

>  <TORSDO>
F 3

$$$$
=
 OpenBabel11052412393D

 25 29  0  0  1  0  0  0  0  0999 V2000
  187.6380  177.9730  142.1160 C   0  0  0  0  0  0  0  0  0  0  0  0
  187.2420  177.4930  143.4770 C   0  0  1  0  0  3  0  0  0  0  0  0
  185.5690  179.1780  141.7150 C   0  0  0  0  0  3  0  0  0  0  0  0
  188.6220  177.6200  141.3060 C   0  0  0  0  0  0  0  0  0  0  0  0
  190.3970  177.1410  139.2320 C   0  0  0  0  0  3  0  0  0  0  0  0
  185.2090  178.9460  143.1370 C   0  0  0  0  0  3  0  0  0  0  0  0
  188.3820  178.1620  140.0470 C   0  0  0  0  0  0  0  0  0  0  0  0
  189.2640  177.9370  138.9920 C   0  0  0  0  0  3  0  0  0  0  0  0
  185.6860  178.1260  145.4080 C   0  0  0  0  0  0  0  0  0  0  0  0
  184.0700  178.4170  146.0280 Cl  0  0  0  0  0  0  0  0  0  0  0  0
  188.3500  177.5740  144.4900 C   0  0  0  0  0  3  0  0  0  0  0  0
  190.6250  176.5800  140.5060 C   0  0  0  0  0  3  0  0  0  0  0  0
  186.7410  178.7270  141.2780 C   0  0  0  0  0  0  0  0  0  0  0  0
  187.2710  178.8310  139.9600 N   0  0  0  0  0  0  0  0  0  0  0  0
  186.6820  177.8800  146.2670 C   0  0  0  0  0  3  0  0  0  0  0  0
  189.7280  176.8120  141.5610 C   0  0  0  0  0  3  0  0  0  0  0  0
  188.0750  177.6920  145.7960 C   0  0  0  0  0  0  0  0  0  0  0  0
  185.9900  178.2170  143.9660 C   0  0  0  0  0  0  0  0  0  0  0  0
  189.1870  177.6700  146.7860 C   0  0  0  0  0  2  0  0  0  0  0  0
  190.2650  176.7000  146.3380 C   0  0  2  0  0  3  0  0  0  0  0  0
  191.5190  176.9470  147.1570 C   0  0  2  0  0  3  0  0  0  0  0  0
  191.4180  177.4740  145.7370 C   0  0  0  0  0  2  0  0  0  0  0  0
  192.3520  175.7080  147.1850 C   0  0  0  0  0  0  0  0  0  0  0  0
  192.3040  174.8090  146.1270 O   0  0  0  0  0  0  0  0  0  0  0  0
  193.0700  175.4530  148.1870 O   0  0  0  0  0  1  0  0  0  0  0  0
  1  2  1  0  0  0  0
  2 18  1  0  0  0  0
  2 11  1  1  0  0  0
  3  6  1  0  0  0  0
  4 16  1  0  0  0  0
  4  1  2  0  0  0  0
  5 12  1  0  0  0  0
  6 18  2  0  0  0  0
  7  4  1  0  0  0  0
  8  5  2  0  0  0  0
  8  7  1  0  0  0  0
  9 10  1  0  0  0  0
  9 15  2  0  0  0  0
 11 17  2  0  0  0  0
 12 16  2  0  0  0  0
 13  3  2  0  0  0  0
 13  1  1  0  0  0  0
 14  7  2  0  0  0  0
 14 13  1  0  0  0  0
 17 15  1  0  0  0  0
 17 19  1  0  0  0  0
 18  9  1  0  0  0  0
 20 19  1  1  0  0  0
 20 21  1  0  0  0  0
 21 23  1  6  0  0  0
 22 20  1  0  0  0  0
 22 21  1  0  0  0  0
 23 25  1  0  0  0  0
 24 23  2  0  0  0  0
M  END
>  <MODEL>
7

>  <REMARK>
 VINA RESULT:      -9.9      3.437      6.241
  Name = 
  3 active torsions:
  status: ('A' for Active; 'I' for Inactive)
    1  A    between atoms: C_2  and  C_21
    2  A    between atoms: C_6  and  C_15
    3  A    between atoms: C_6  and  C_23
                            x       y       z     vdW  Elec       q    Type
                         _______ _______ _______ _____ _____    ______ ____

>  <TORSDO>
F 3

$$$$
=
 OpenBabel11052412393D

 25 29  0  0  1  0  0  0  0  0999 V2000
  189.5370  177.4490  143.6920 C   0  0  0  0  0  0  0  0  0  0  0  0
  188.8850  178.1920  144.8150 C   0  0  1  0  0  3  0  0  0  0  0  0
  191.2950  176.4990  145.0710 C   0  0  0  0  0  3  0  0  0  0  0  0
  189.3920  177.5260  142.3800 C   0  0  0  0  0  0  0  0  0  0  0  0
  189.5540  177.4110  139.6150 C   0  0  0  0  0  3  0  0  0  0  0  0
  190.5720  177.0040  146.2650 C   0  0  0  0  0  3  0  0  0  0  0  0
  190.4320  176.8280  141.7730 C   0  0  0  0  0  0  0  0  0  0  0  0
  190.5290  176.7540  140.3850 C   0  0  0  0  0  3  0  0  0  0  0  0
  188.6630  178.1020  147.3640 C   0  0  0  0  0  0  0  0  0  0  0  0
  189.3960  178.1460  148.9580 Cl  0  0  0  0  0  0  0  0  0  0  0  0
  187.3830  178.1190  144.7940 C   0  0  0  0  0  3  0  0  0  0  0  0
  188.5130  178.1310  140.2370 C   0  0  0  0  0  3  0  0  0  0  0  0
  190.7570  176.7050  143.8720 C   0  0  0  0  0  0  0  0  0  0  0  0
  191.2870  176.3170  142.6080 N   0  0  0  0  0  0  0  0  0  0  0  0
  187.3520  178.3410  147.2390 C   0  0  0  0  0  3  0  0  0  0  0  0
  188.4260  178.2000  141.6360 C   0  0  0  0  0  3  0  0  0  0  0  0
  186.6750  178.2530  145.9240 C   0  0  0  0  0  0  0  0  0  0  0  0
  189.4420  177.7390  146.1630 C   0  0  0  0  0  0  0  0  0  0  0  0
  185.1880  178.2770  145.8600 C   0  0  0  0  0  2  0  0  0  0  0  0
  184.7240  178.0960  144.4270 C   0  0  2  0  0  3  0  0  0  0  0  0
  184.4950  179.4630  143.8090 C   0  0  2  0  0  3  0  0  0  0  0  0
  183.3170  178.6330  144.2830 C   0  0  0  0  0  2  0  0  0  0  0  0
  184.6210  179.3710  142.3240 C   0  0  0  0  0  0  0  0  0  0  0  0
  183.5940  178.8200  141.5680 O   0  0  0  0  0  0  0  0  0  0  0  0
  185.6780  179.7520  141.7550 O   0  0  0  0  0  1  0  0  0  0  0  0
  1 13  1  0  0  0  0
  1  2  1  0  0  0  0
  2 11  1  1  0  0  0
  2 18  1  0  0  0  0
  3  6  1  0  0  0  0
  4  1  2  0  0  0  0
  5 12  1  0  0  0  0
  5  8  2  0  0  0  0
  7  4  1  0  0  0  0
  7 14  2  0  0  0  0
  8  7  1  0  0  0  0
  9 10  1  0  0  0  0
 11 17  2  0  0  0  0
 12 16  2  0  0  0  0
 13  3  2  0  0  0  0
 14 13  1  0  0  0  0
 15  9  2  0  0  0  0
 16  4  1  0  0  0  0
 17 15  1  0  0  0  0
 18  6  2  0  0  0  0
 18  9  1  0  0  0  0
 19 17  1  0  0  0  0
 20 19  1  1  0  0  0
 21 23  1  6  0  0  0
 21 22  1  0  0  0  0
 21 20  1  0  0  0  0
 22 20  1  0  0  0  0
 24 23  2  0  0  0  0
 25 23  1  0  0  0  0
M  END
>  <MODEL>
8

>  <REMARK>
 VINA RESULT:      -9.5      2.746      5.563
  Name = 
  3 active torsions:
  status: ('A' for Active; 'I' for Inactive)
    1  A    between atoms: C_2  and  C_21
    2  A    between atoms: C_6  and  C_15
    3  A    between atoms: C_6  and  C_23
                            x       y       z     vdW  Elec       q    Type
                         _______ _______ _______ _____ _____    ______ ____

>  <TORSDO>
F 3

$$$$
=
 OpenBabel11052412393D

 25 29  0  0  1  0  0  0  0  0999 V2000
  188.2540  177.5980  142.8250 C   0  0  0  0  0  0  0  0  0  0  0  0
  187.1460  178.3850  143.4510 C   0  0  1  0  0  3  0  0  0  0  0  0
  189.1190  176.7540  144.9310 C   0  0  0  0  0  3  0  0  0  0  0  0
  188.7620  177.6050  141.6050 C   0  0  0  0  0  0  0  0  0  0  0  0
  190.2400  177.3540  139.2730 C   0  0  0  0  0  3  0  0  0  0  0  0
  187.9120  177.3040  145.5980 C   0  0  0  0  0  3  0  0  0  0  0  0
  189.9610  176.8980  141.6140 C   0  0  0  0  0  0  0  0  0  0  0  0
  190.7160  176.7560  140.4520 C   0  0  0  0  0  3  0  0  0  0  0  0
  185.7180  178.4200  145.5760 C   0  0  0  0  0  0  0  0  0  0  0  0
  185.5890  178.5580  147.3210 Cl  0  0  0  0  0  0  0  0  0  0  0  0
  185.8410  178.2820  142.7110 C   0  0  0  0  0  3  0  0  0  0  0  0
  189.0330  178.0850  139.2740 C   0  0  0  0  0  3  0  0  0  0  0  0
  189.2290  176.8880  143.6120 C   0  0  0  0  0  0  0  0  0  0  0  0
  190.3010  176.4460  142.7840 N   0  0  0  0  0  0  0  0  0  0  0  0
  184.6330  178.6260  144.8210 C   0  0  0  0  0  3  0  0  0  0  0  0
  188.2810  178.2220  140.4510 C   0  0  0  0  0  3  0  0  0  0  0  0
  184.6760  178.4580  143.3490 C   0  0  0  0  0  0  0  0  0  0  0  0
  186.9780  178.0110  144.9220 C   0  0  0  0  0  0  0  0  0  0  0  0
  183.4050  178.4500  142.5740 C   0  0  0  0  0  2  0  0  0  0  0  0
  183.6990  178.5460  141.0880 C   0  0  2  0  0  3  0  0  0  0  0  0
  182.4800  179.1090  140.3810 C   0  0  2  0  0  3  0  0  0  0  0  0
  182.7730  177.6210  140.3310 C   0  0  0  0  0  2  0  0  0  0  0  0
  182.8950  179.7550  139.1000 C   0  0  0  0  0  0  0  0  0  0  0  0
  184.1820  180.2590  138.9570 O   0  0  0  0  0  1  0  0  0  0  0  0
  182.0670  179.8840  138.1610 O   0  0  0  0  0  0  0  0  0  0  0  0
  1  2  1  0  0  0  0
  1 13  1  0  0  0  0
  2 11  1  6  0  0  0
  2 18  1  0  0  0  0
  3  6  1  0  0  0  0
  4  7  1  0  0  0  0
  4  1  2  0  0  0  0
  5 12  1  0  0  0  0
  5  8  2  0  0  0  0
  7 14  2  0  0  0  0
  8  7  1  0  0  0  0
  9 10  1  0  0  0  0
 11 17  2  0  0  0  0
 12 16  2  0  0  0  0
 13  3  2  0  0  0  0
 14 13  1  0  0  0  0
 15  9  2  0  0  0  0
 16  4  1  0  0  0  0
 17 15  1  0  0  0  0
 18  9  1  0  0  0  0
 18  6  2  0  0  0  0
 19 17  1  0  0  0  0
 20 19  1  1  0  0  0
 21 23  1  6  0  0  0
 21 20  1  0  0  0  0
 22 21  1  0  0  0  0
 22 20  1  0  0  0  0
 24 23  1  0  0  0  0
 25 23  2  0  0  0  0
M  END
>  <MODEL>
9

>  <REMARK>
 VINA RESULT:      -9.3      3.288      6.170
  Name = 
  3 active torsions:
  status: ('A' for Active; 'I' for Inactive)
    1  A    between atoms: C_2  and  C_21
    2  A    between atoms: C_6  and  C_15
    3  A    between atoms: C_6  and  C_23
                            x       y       z     vdW  Elec       q    Type
                         _______ _______ _______ _____ _____    ______ ____

>  <TORSDO>
F 3

$$$$
