=
 OpenBabel11052415453D

 34 38  0  0  1  0  0  0  0  0999 V2000
  183.1920  179.0760  142.7370 C   0  0  2  0  0  3  0  0  0  0  0  0
  184.1910  177.8210  139.2760 C   0  0  0  0  0  3  0  0  0  0  0  0
  182.0370  177.5140  140.5050 C   0  0  0  0  0  2  0  0  0  0  0  0
  180.8560  179.7550  143.3540 C   0  0  0  0  0  3  0  0  0  0  0  0
  178.9310  178.9820  142.1050 C   0  0  0  0  0  3  0  0  0  0  0  0
  179.4710  179.7230  143.1590 C   0  0  0  0  0  3  0  0  0  0  0  0
  181.1580  178.3080  141.4270 C   0  0  0  0  0  0  0  0  0  0  0  0
  181.7040  179.0470  142.4970 C   0  0  0  0  0  0  0  0  0  0  0  0
  179.7730  178.2740  141.2430 C   0  0  0  0  0  3  0  0  0  0  0  0
  185.5080  178.2920  139.1780 C   0  0  0  0  0  0  0  0  0  0  0  0
  186.0570  179.0130  140.2470 C   0  0  0  0  0  3  0  0  0  0  0  0
  183.4250  178.0780  140.4150 C   0  0  0  0  0  0  0  0  0  0  0  0
  185.3020  179.2680  141.3930 C   0  0  0  0  0  3  0  0  0  0  0  0
  183.9860  178.8050  141.4850 C   0  0  0  0  0  0  0  0  0  0  0  0
  186.1510  176.7710  137.1920 C   0  0  0  0  0  1  0  0  0  0  0  0
  187.1420  178.8910  137.5640 O   0  0  0  0  0  0  0  0  0  0  0  0
  186.3090  178.0340  137.9660 C   0  0  0  0  0  0  0  0  0  0  0  0
  183.6080  178.1780  143.9100 C   0  0  0  0  0  2  0  0  0  0  0  0
  184.0330  178.9560  145.1520 C   0  0  0  0  0  2  0  0  0  0  0  0
  187.9190  177.3960  146.9090 C   0  0  0  0  0  2  0  0  0  0  0  0
  185.9860  177.5010  144.7080 C   0  0  0  0  0  2  0  0  0  0  0  0
  190.2610  177.2270  143.8040 C   0  0  2  0  0  0  0  0  0  0  0  0
  190.1290  175.8490  143.6140 O   0  0  0  0  0  1  0  0  0  0  0  0
  189.8470  177.5780  145.2340 C   0  0  0  0  0  2  0  0  0  0  0  0
  188.3590  177.4930  145.4740 C   0  0  0  0  0  0  0  0  0  0  0  0
  185.5050  178.7350  145.4540 C   0  0  2  0  0  3  0  0  0  0  0  0
  187.8970  177.5690  143.0130 C   0  0  0  0  0  2  0  0  0  0  0  0
  187.4630  177.5690  144.4570 C   0  0  0  0  0  0  0  0  0  0  0  0
  189.3570  177.9790  142.8260 C   0  0  0  0  0  2  0  0  0  0  0  0
  185.7000  178.5620  146.9560 C   0  0  0  0  0  2  0  0  0  0  0  0
  187.1690  178.6460  147.3470 C   0  0  0  0  0  2  0  0  0  0  0  0
  191.7270  177.6170  143.5940 C   0  0  0  0  0  3  0  0  0  0  0  0
  191.9960  178.8850  144.1170 O   0  0  0  0  0  1  0  0  0  0  0  0
  192.0600  177.5900  142.2380 O   0  0  0  0  0  1  0  0  0  0  0  0
  1 18  1  1  0  0  0
  2 12  1  0  0  0  0
  3  7  1  0  0  0  0
  5  6  2  0  0  0  0
  6  4  1  0  0  0  0
  7  8  1  0  0  0  0
  8  1  1  0  0  0  0
  8  4  2  0  0  0  0
  9  7  2  0  0  0  0
  9  5  1  0  0  0  0
 10  2  2  0  0  0  0
 10 11  1  0  0  0  0
 11 13  2  0  0  0  0
 12  3  1  0  0  0  0
 12 14  2  0  0  0  0
 13 14  1  0  0  0  0
 14  1  1  0  0  0  0
 15 17  1  0  0  0  0
 16 17  2  0  0  0  0
 17 10  1  0  0  0  0
 18 19  1  0  0  0  0
 20 31  1  0  0  0  0
 21 26  1  0  0  0  0
 22 23  1  6  0  0  0
 22 24  1  0  0  0  0
 24 25  1  0  0  0  0
 25 20  1  0  0  0  0
 26 19  1  1  0  0  0
 26 30  1  0  0  0  0
 27 28  1  0  0  0  0
 28 21  1  0  0  0  0
 28 25  2  0  0  0  0
 29 27  1  0  0  0  0
 29 22  1  0  0  0  0
 30 31  1  0  0  0  0
 32 22  1  0  0  0  0
 32 33  1  0  0  0  0
 34 32  1  0  0  0  0
M  END
>  <MODEL>
1

>  <REMARK>
 VINA RESULT:      -9.8      0.000      0.000
  Name = 
  5 active torsions:
  status: ('A' for Active; 'I' for Inactive)
    1  A    between atoms: C_1  and  C_9
    2  A    between atoms: C_7  and  C_11
    3  A    between atoms: C_8  and  C_9
    4  A    between atoms: C_8  and  C_18
    5  A    between atoms: C_23  and  C_25
                            x       y       z     vdW  Elec       q    Type
                         _______ _______ _______ _____ _____    ______ ____

>  <TORSDO>
F 5

$$$$
=
 OpenBabel11052415453D

 34 38  0  0  1  0  0  0  0  0999 V2000
  188.0420  178.0390  143.3830 C   0  0  2  0  0  3  0  0  0  0  0  0
  190.9530  176.3420  145.1720 C   0  0  0  0  0  3  0  0  0  0  0  0
  190.1650  176.0560  142.8180 C   0  0  0  0  0  2  0  0  0  0  0  0
  188.0490  178.6130  140.9400 C   0  0  0  0  0  3  0  0  0  0  0  0
  189.5210  177.4990  139.3730 C   0  0  0  0  0  3  0  0  0  0  0  0
  188.5200  178.4380  139.6350 C   0  0  0  0  0  3  0  0  0  0  0  0
  189.5960  176.9110  141.7230 C   0  0  0  0  0  0  0  0  0  0  0  0
  188.5770  177.8500  141.9870 C   0  0  0  0  0  0  0  0  0  0  0  0
  190.0550  176.7360  140.4150 C   0  0  0  0  0  3  0  0  0  0  0  0
  190.8530  176.8970  146.4560 C   0  0  0  0  0  0  0  0  0  0  0  0
  189.8330  177.8200  146.7240 C   0  0  0  0  0  3  0  0  0  0  0  0
  190.0590  176.7110  144.1650 C   0  0  0  0  0  0  0  0  0  0  0  0
  188.9300  178.1890  145.7250 C   0  0  0  0  0  3  0  0  0  0  0  0
  189.0360  177.6400  144.4440 C   0  0  0  0  0  0  0  0  0  0  0  0
  192.4730  175.1850  147.5120 C   0  0  0  0  0  1  0  0  0  0  0  0
  192.0850  177.3310  148.4380 O   0  0  0  0  0  0  0  0  0  0  0  0
  191.8100  176.5190  147.5140 C   0  0  0  0  0  0  0  0  0  0  0  0
  186.6720  177.3720  143.5740 C   0  0  0  0  0  2  0  0  0  0  0  0
  185.6730  178.2390  144.3350 C   0  0  0  0  0  2  0  0  0  0  0  0
  181.5550  179.4030  142.8150 C   0  0  0  0  0  2  0  0  0  0  0  0
  184.3990  178.8900  142.3160 C   0  0  0  0  0  2  0  0  0  0  0  0
  181.4450  177.7620  139.2870 C   0  0  2  0  0  0  0  0  0  0  0  0
  181.7200  178.9380  138.5860 O   0  0  0  0  0  1  0  0  0  0  0  0
  180.9430  178.1190  140.6870 C   0  0  0  0  0  2  0  0  0  0  0  0
  182.0210  178.6410  141.6040 C   0  0  0  0  0  0  0  0  0  0  0  0
  184.3080  178.2070  143.6710 C   0  0  2  0  0  3  0  0  0  0  0  0
  183.8150  177.7020  140.1290 C   0  0  0  0  0  2  0  0  0  0  0  0
  183.3360  178.3800  141.3880 C   0  0  0  0  0  0  0  0  0  0  0  0
  182.7150  176.9190  139.4140 C   0  0  0  0  0  2  0  0  0  0  0  0
  183.2890  178.9130  144.5590 C   0  0  0  0  0  2  0  0  0  0  0  0
  181.8620  178.6470  144.1010 C   0  0  0  0  0  2  0  0  0  0  0  0
  180.3540  176.9860  138.5430 C   0  0  0  0  0  3  0  0  0  0  0  0
  179.1610  176.9610  139.2700 O   0  0  0  0  0  1  0  0  0  0  0  0
  180.7660  175.6780  138.2770 O   0  0  0  0  0  1  0  0  0  0  0  0
  1 18  1  6  0  0  0
  1 14  1  0  0  0  0
  2 10  1  0  0  0  0
  3 12  1  0  0  0  0
  4  8  1  0  0  0  0
  5  6  1  0  0  0  0
  5  9  2  0  0  0  0
  6  4  2  0  0  0  0
  7  8  2  0  0  0  0
  7  3  1  0  0  0  0
  8  1  1  0  0  0  0
  9  7  1  0  0  0  0
 10 11  2  0  0  0  0
 10 17  1  0  0  0  0
 12 14  1  0  0  0  0
 12  2  2  0  0  0  0
 13 11  1  0  0  0  0
 14 13  2  0  0  0  0
 15 17  1  0  0  0  0
 17 16  2  0  0  0  0
 18 19  1  0  0  0  0
 20 31  1  0  0  0  0
 21 26  1  0  0  0  0
 22 23  1  6  0  0  0
 22 29  1  0  0  0  0
 22 24  1  0  0  0  0
 24 25  1  0  0  0  0
 25 20  1  0  0  0  0
 26 19  1  1  0  0  0
 26 30  1  0  0  0  0
 27 28  1  0  0  0  0
 28 25  2  0  0  0  0
 28 21  1  0  0  0  0
 29 27  1  0  0  0  0
 31 30  1  0  0  0  0
 32 33  1  0  0  0  0
 32 22  1  0  0  0  0
 34 32  1  0  0  0  0
M  END
>  <MODEL>
2

>  <REMARK>
 VINA RESULT:      -9.6      2.822      8.542
  Name = 
  5 active torsions:
  status: ('A' for Active; 'I' for Inactive)
    1  A    between atoms: C_1  and  C_9
    2  A    between atoms: C_7  and  C_11
    3  A    between atoms: C_8  and  C_9
    4  A    between atoms: C_8  and  C_18
    5  A    between atoms: C_23  and  C_25
                            x       y       z     vdW  Elec       q    Type
                         _______ _______ _______ _____ _____    ______ ____

>  <TORSDO>
F 5

$$$$
=
 OpenBabel11052415453D

 34 38  0  0  1  0  0  0  0  0999 V2000
  185.9440  178.0060  142.2640 C   0  0  2  0  0  3  0  0  0  0  0  0
  186.7140  178.1950  145.9960 C   0  0  0  0  0  3  0  0  0  0  0  0
  184.8280  179.2230  144.7200 C   0  0  0  0  0  2  0  0  0  0  0  0
  183.6190  177.9950  141.3190 C   0  0  0  0  0  3  0  0  0  0  0  0
  181.7290  178.8500  142.5690 C   0  0  0  0  0  3  0  0  0  0  0  0
  182.2510  178.2730  141.4080 C   0  0  0  0  0  3  0  0  0  0  0  0
  183.9400  178.8650  143.5640 C   0  0  0  0  0  0  0  0  0  0  0  0
  184.4690  178.2930  142.3890 C   0  0  0  0  0  0  0  0  0  0  0  0
  182.5730  179.1470  143.6430 C   0  0  0  0  0  3  0  0  0  0  0  0
  187.8980  177.4480  146.0740 C   0  0  0  0  0  0  0  0  0  0  0  0
  188.4330  176.8910  144.9050 C   0  0  0  0  0  3  0  0  0  0  0  0
  186.0640  178.3730  144.7730 C   0  0  0  0  0  0  0  0  0  0  0  0
  187.7950  177.0710  143.6770 C   0  0  0  0  0  3  0  0  0  0  0  0
  186.6100  177.8090  143.6020 C   0  0  0  0  0  0  0  0  0  0  0  0
  188.0530  177.8740  148.6170 C   0  0  0  0  0  1  0  0  0  0  0  0
  189.6070  176.5270  147.4400 O   0  0  0  0  0  0  0  0  0  0  0  0
  188.5740  177.2450  147.3710 C   0  0  0  0  0  0  0  0  0  0  0  0
  186.6640  179.0410  141.3880 C   0  0  0  0  0  2  0  0  0  0  0  0
  188.0990  178.6540  141.0440 C   0  0  0  0  0  2  0  0  0  0  0  0
  187.9450  177.5360  136.6450 C   0  0  0  0  0  2  0  0  0  0  0  0
  189.4900  178.1400  139.0620 C   0  0  0  0  0  2  0  0  0  0  0  0
  190.9650  175.1080  136.2690 C   0  0  2  0  0  0  0  0  0  0  0  0
  191.8230  176.0530  135.7020 O   0  0  0  0  0  1  0  0  0  0  0  0
  189.5210  175.5880  136.1160 C   0  0  0  0  0  2  0  0  0  0  0  0
  189.1640  176.7400  137.0240 C   0  0  0  0  0  0  0  0  0  0  0  0
  188.1550  177.8770  139.7400 C   0  0  2  0  0  3  0  0  0  0  0  0
  191.1400  176.2730  138.4920 C   0  0  0  0  0  2  0  0  0  0  0  0
  189.8630  177.0030  138.1580 C   0  0  0  0  0  0  0  0  0  0  0  0
  191.2790  174.9410  137.7560 C   0  0  0  0  0  2  0  0  0  0  0  0
  187.0030  178.3060  138.8380 C   0  0  0  0  0  2  0  0  0  0  0  0
  186.8250  177.3560  137.6620 C   0  0  0  0  0  2  0  0  0  0  0  0
  191.1340  173.7780  135.5280 C   0  0  0  0  0  3  0  0  0  0  0  0
  189.9220  173.0920  135.4310 O   0  0  0  0  0  1  0  0  0  0  0  0
  192.0790  172.9710  136.1650 O   0  0  0  0  0  1  0  0  0  0  0  0
  1 18  1  1  0  0  0
  1  8  1  0  0  0  0
  1 14  1  0  0  0  0
  2 10  1  0  0  0  0
  3 12  1  0  0  0  0
  4  6  2  0  0  0  0
  4  8  1  0  0  0  0
  5  9  2  0  0  0  0
  6  5  1  0  0  0  0
  7  9  1  0  0  0  0
  7  3  1  0  0  0  0
  8  7  2  0  0  0  0
 10 17  1  0  0  0  0
 11 10  2  0  0  0  0
 12  2  2  0  0  0  0
 13 11  1  0  0  0  0
 14 13  2  0  0  0  0
 14 12  1  0  0  0  0
 17 16  2  0  0  0  0
 17 15  1  0  0  0  0
 19 18  1  0  0  0  0
 20 25  1  0  0  0  0
 20 31  1  0  0  0  0
 21 26  1  0  0  0  0
 22 23  1  6  0  0  0
 22 29  1  0  0  0  0
 24 22  1  0  0  0  0
 24 25  1  0  0  0  0
 25 28  2  0  0  0  0
 26 19  1  1  0  0  0
 28 27  1  0  0  0  0
 28 21  1  0  0  0  0
 29 27  1  0  0  0  0
 30 26  1  0  0  0  0
 31 30  1  0  0  0  0
 32 34  1  0  0  0  0
 32 22  1  0  0  0  0
 33 32  1  0  0  0  0
M  END
>  <MODEL>
3

>  <REMARK>
 VINA RESULT:      -9.6      3.240      7.069
  Name = 
  5 active torsions:
  status: ('A' for Active; 'I' for Inactive)
    1  A    between atoms: C_1  and  C_9
    2  A    between atoms: C_7  and  C_11
    3  A    between atoms: C_8  and  C_9
    4  A    between atoms: C_8  and  C_18
    5  A    between atoms: C_23  and  C_25
                            x       y       z     vdW  Elec       q    Type
                         _______ _______ _______ _____ _____    ______ ____

>  <TORSDO>
F 5

$$$$
=
 OpenBabel11052415453D

 34 38  0  0  1  0  0  0  0  0999 V2000
  184.6050  178.2760  141.8850 C   0  0  2  0  0  3  0  0  0  0  0  0
  185.7040  178.5200  145.5300 C   0  0  0  0  0  3  0  0  0  0  0  0
  183.6210  179.3780  144.4490 C   0  0  0  0  0  2  0  0  0  0  0  0
  182.2110  178.0580  141.1610 C   0  0  0  0  0  3  0  0  0  0  0  0
  180.3800  178.7340  142.5930 C   0  0  0  0  0  3  0  0  0  0  0  0
  180.8390  178.2110  141.3820 C   0  0  0  0  0  3  0  0  0  0  0  0
  182.6640  178.9450  143.3770 C   0  0  0  0  0  0  0  0  0  0  0  0
  183.1290  178.4280  142.1500 C   0  0  0  0  0  0  0  0  0  0  0  0
  181.2910  179.1030  143.5870 C   0  0  0  0  0  3  0  0  0  0  0  0
  186.9520  177.8820  145.4880 C   0  0  0  0  0  0  0  0  0  0  0  0
  187.4230  177.3800  144.2670 C   0  0  0  0  0  3  0  0  0  0  0  0
  184.9280  178.6430  144.3750 C   0  0  0  0  0  0  0  0  0  0  0  0
  186.6570  177.5060  143.1060 C   0  0  0  0  0  3  0  0  0  0  0  0
  185.4090  178.1350  143.1510 C   0  0  0  0  0  0  0  0  0  0  0  0
  189.1220  177.1290  146.6690 C   0  0  0  0  0  1  0  0  0  0  0  0
  187.3120  178.1340  147.8210 O   0  0  0  0  0  0  0  0  0  0  0  0
  187.7630  177.7370  146.7130 C   0  0  0  0  0  0  0  0  0  0  0  0
  185.1440  179.3740  140.9580 C   0  0  0  0  0  2  0  0  0  0  0  0
  184.6000  179.2920  139.5350 C   0  0  0  0  0  2  0  0  0  0  0  0
  185.7610  176.3570  136.2700 C   0  0  0  0  0  2  0  0  0  0  0  0
  186.4250  178.6290  138.0000 C   0  0  0  0  0  2  0  0  0  0  0  0
  189.5300  175.7100  136.9950 C   0  0  2  0  0  0  0  0  0  0  0  0
  190.0050  176.5640  135.9970 O   0  0  0  0  0  1  0  0  0  0  0  0
  188.0750  175.3480  136.6940 C   0  0  0  0  0  2  0  0  0  0  0  0
  187.1050  176.4790  136.9330 C   0  0  0  0  0  0  0  0  0  0  0  0
  185.2200  178.1280  138.7820 C   0  0  2  0  0  3  0  0  0  0  0  0
  188.7790  177.6950  138.3460 C   0  0  0  0  0  2  0  0  0  0  0  0
  187.4020  177.5170  137.7570 C   0  0  0  0  0  0  0  0  0  0  0  0
  189.5980  176.4050  138.3550 C   0  0  0  0  0  2  0  0  0  0  0  0
  184.1880  177.5180  137.8400 C   0  0  0  0  0  2  0  0  0  0  0  0
  184.6490  176.1740  137.2940 C   0  0  0  0  0  2  0  0  0  0  0  0
  190.3770  174.4330  136.9980 C   0  0  0  0  0  3  0  0  0  0  0  0
  189.5890  173.3010  137.2190 O   0  0  0  0  0  1  0  0  0  0  0  0
  191.3780  174.5030  137.9690 O   0  0  0  0  0  1  0  0  0  0  0  0
  1 18  1  1  0  0  0
  1  8  1  0  0  0  0
  1 14  1  0  0  0  0
  4  6  2  0  0  0  0
  4  8  1  0  0  0  0
  5  9  2  0  0  0  0
  6  5  1  0  0  0  0
  7  9  1  0  0  0  0
  7  3  1  0  0  0  0
  8  7  2  0  0  0  0
 10  2  1  0  0  0  0
 10 17  1  0  0  0  0
 11 10  2  0  0  0  0
 12  3  1  0  0  0  0
 12  2  2  0  0  0  0
 13 14  2  0  0  0  0
 13 11  1  0  0  0  0
 14 12  1  0  0  0  0
 15 17  1  0  0  0  0
 17 16  2  0  0  0  0
 19 18  1  0  0  0  0
 20 25  1  0  0  0  0
 20 31  1  0  0  0  0
 21 26  1  0  0  0  0
 22 23  1  6  0  0  0
 22 32  1  0  0  0  0
 22 29  1  0  0  0  0
 24 25  1  0  0  0  0
 24 22  1  0  0  0  0
 25 28  2  0  0  0  0
 26 19  1  6  0  0  0
 27 29  1  0  0  0  0
 28 21  1  0  0  0  0
 28 27  1  0  0  0  0
 30 26  1  0  0  0  0
 31 30  1  0  0  0  0
 32 33  1  0  0  0  0
 32 34  1  0  0  0  0
M  END
>  <MODEL>
4

>  <REMARK>
 VINA RESULT:      -9.3      2.435      6.549
  Name = 
  5 active torsions:
  status: ('A' for Active; 'I' for Inactive)
    1  A    between atoms: C_1  and  C_9
    2  A    between atoms: C_7  and  C_11
    3  A    between atoms: C_8  and  C_9
    4  A    between atoms: C_8  and  C_18
    5  A    between atoms: C_23  and  C_25
                            x       y       z     vdW  Elec       q    Type
                         _______ _______ _______ _____ _____    ______ ____

>  <TORSDO>
F 5

$$$$
=
 OpenBabel11052415453D

 34 38  0  0  1  0  0  0  0  0999 V2000
  183.0770  178.8500  141.0290 C   0  0  2  0  0  3  0  0  0  0  0  0
  184.5440  177.0770  137.9860 C   0  0  0  0  0  3  0  0  0  0  0  0
  182.2970  176.8000  139.0430 C   0  0  0  0  0  2  0  0  0  0  0  0
  180.6420  179.4070  141.2800 C   0  0  0  0  0  3  0  0  0  0  0  0
  178.9310  178.2370  140.0280 C   0  0  0  0  0  3  0  0  0  0  0  0
  179.2950  179.2080  140.9650 C   0  0  0  0  0  3  0  0  0  0  0  0
  181.2640  177.6640  139.7060 C   0  0  0  0  0  0  0  0  0  0  0  0
  181.6320  178.6350  140.6600 C   0  0  0  0  0  0  0  0  0  0  0  0
  179.9150  177.4650  139.4030 C   0  0  0  0  0  3  0  0  0  0  0  0
  185.8250  177.6450  137.9240 C   0  0  0  0  0  0  0  0  0  0  0  0
  186.1970  178.6000  138.8790 C   0  0  0  0  0  3  0  0  0  0  0  0
  183.6400  177.4670  138.9770 C   0  0  0  0  0  0  0  0  0  0  0  0
  185.3020  178.9890  139.8780 C   0  0  0  0  0  3  0  0  0  0  0  0
  184.0230  178.4290  139.9340 C   0  0  0  0  0  0  0  0  0  0  0  0
  187.8820  178.1460  136.4440 C   0  0  0  0  0  1  0  0  0  0  0  0
  186.6570  176.1230  136.3030 O   0  0  0  0  0  0  0  0  0  0  0  0
  186.7730  177.2450  136.8650 C   0  0  0  0  0  0  0  0  0  0  0  0
  183.4270  178.2280  142.3880 C   0  0  0  0  0  2  0  0  0  0  0  0
  183.7110  179.2590  143.4760 C   0  0  0  0  0  2  0  0  0  0  0  0
  186.8600  177.4240  146.1850 C   0  0  0  0  0  2  0  0  0  0  0  0
  185.6750  177.7540  143.5240 C   0  0  0  0  0  2  0  0  0  0  0  0
  190.0180  177.3560  143.9100 C   0  0  2  0  0  0  0  0  0  0  0  0
  189.9190  176.0000  143.5880 O   0  0  0  0  0  1  0  0  0  0  0  0
  189.2040  177.6310  145.1750 C   0  0  0  0  0  2  0  0  0  0  0  0
  187.7110  177.5950  144.9560 C   0  0  0  0  0  0  0  0  0  0  0  0
  185.0210  178.9570  144.1830 C   0  0  2  0  0  3  0  0  0  0  0  0
  188.0070  177.8490  142.4810 C   0  0  0  0  0  2  0  0  0  0  0  0
  187.1610  177.7750  143.7280 C   0  0  0  0  0  0  0  0  0  0  0  0
  189.4640  178.2070  142.7670 C   0  0  0  0  0  2  0  0  0  0  0  0
  184.7540  178.6790  145.6580 C   0  0  0  0  0  2  0  0  0  0  0  0
  186.0400  178.6750  146.4720 C   0  0  0  0  0  2  0  0  0  0  0  0
  191.4890  177.6960  144.1740 C   0  0  0  0  0  3  0  0  0  0  0  0
  191.8310  177.4720  145.5100 O   0  0  0  0  0  1  0  0  0  0  0  0
  191.7600  179.0240  143.8380 O   0  0  0  0  0  1  0  0  0  0  0  0
  1 18  1  1  0  0  0
  2 12  1  0  0  0  0
  3  7  1  0  0  0  0
  5  6  2  0  0  0  0
  6  4  1  0  0  0  0
  7  8  1  0  0  0  0
  8  1  1  0  0  0  0
  8  4  2  0  0  0  0
  9  7  2  0  0  0  0
  9  5  1  0  0  0  0
 10  2  2  0  0  0  0
 10 11  1  0  0  0  0
 11 13  2  0  0  0  0
 12  3  1  0  0  0  0
 12 14  2  0  0  0  0
 13 14  1  0  0  0  0
 14  1  1  0  0  0  0
 15 17  1  0  0  0  0
 16 17  2  0  0  0  0
 17 10  1  0  0  0  0
 18 19  1  0  0  0  0
 20 31  1  0  0  0  0
 21 28  1  0  0  0  0
 21 26  1  0  0  0  0
 22 23  1  6  0  0  0
 22 32  1  0  0  0  0
 22 24  1  0  0  0  0
 25 24  1  0  0  0  0
 25 20  1  0  0  0  0
 26 19  1  6  0  0  0
 26 30  1  0  0  0  0
 27 29  1  0  0  0  0
 27 28  1  0  0  0  0
 28 25  2  0  0  0  0
 29 22  1  0  0  0  0
 30 31  1  0  0  0  0
 32 33  1  0  0  0  0
 34 32  1  0  0  0  0
M  END
>  <MODEL>
5

>  <REMARK>
 VINA RESULT:      -9.2      1.215      1.614
  Name = 
  5 active torsions:
  status: ('A' for Active; 'I' for Inactive)
    1  A    between atoms: C_1  and  C_9
    2  A    between atoms: C_7  and  C_11
    3  A    between atoms: C_8  and  C_9
    4  A    between atoms: C_8  and  C_18
    5  A    between atoms: C_23  and  C_25
                            x       y       z     vdW  Elec       q    Type
                         _______ _______ _______ _____ _____    ______ ____

>  <TORSDO>
F 5

$$$$
=
 OpenBabel11052415453D

 34 38  0  0  1  0  0  0  0  0999 V2000
  184.1990  178.9620  140.0010 C   0  0  2  0  0  3  0  0  0  0  0  0
  186.0770  177.1770  137.2000 C   0  0  0  0  0  3  0  0  0  0  0  0
  183.6140  177.3930  137.5610 C   0  0  0  0  0  2  0  0  0  0  0  0
  181.9880  180.1080  139.6880 C   0  0  0  0  0  3  0  0  0  0  0  0
  180.5140  179.5560  137.8480 C   0  0  0  0  0  3  0  0  0  0  0  0
  180.7870  180.3000  138.9990 C   0  0  0  0  0  3  0  0  0  0  0  0
  182.6490  178.4270  138.0630 C   0  0  0  0  0  0  0  0  0  0  0  0
  182.9200  179.1700  139.2310 C   0  0  0  0  0  0  0  0  0  0  0  0
  181.4430  178.6190  137.3840 C   0  0  0  0  0  3  0  0  0  0  0  0
  187.4100  177.3930  137.5770 C   0  0  0  0  0  0  0  0  0  0  0  0
  187.6820  178.1190  138.7440 C   0  0  0  0  0  3  0  0  0  0  0  0
  185.0280  177.6890  137.9670 C   0  0  0  0  0  0  0  0  0  0  0  0
  186.6400  178.6280  139.5210 C   0  0  0  0  0  3  0  0  0  0  0  0
  185.3110  178.4190  139.1400 C   0  0  0  0  0  0  0  0  0  0  0  0
  188.9800  175.4570  136.8980 C   0  0  0  0  0  1  0  0  0  0  0  0
  189.0870  177.6080  135.9100 O   0  0  0  0  0  0  0  0  0  0  0  0
  188.5170  176.8670  136.7550 C   0  0  0  0  0  0  0  0  0  0  0  0
  183.9800  178.1380  141.2780 C   0  0  0  0  0  2  0  0  0  0  0  0
  183.8460  178.9900  142.5360 C   0  0  0  0  0  2  0  0  0  0  0  0
  186.6010  177.5070  145.8280 C   0  0  0  0  0  2  0  0  0  0  0  0
  185.8200  177.5700  143.0030 C   0  0  0  0  0  2  0  0  0  0  0  0
  190.0650  177.3750  144.0570 C   0  0  2  0  0  0  0  0  0  0  0  0
  190.0510  175.9950  143.8430 O   0  0  0  0  0  1  0  0  0  0  0  0
  189.0630  177.7220  145.1600 C   0  0  0  0  0  2  0  0  0  0  0  0
  187.6210  177.6090  144.7280 C   0  0  0  0  0  0  0  0  0  0  0  0
  185.0430  178.7980  143.4520 C   0  0  2  0  0  3  0  0  0  0  0  0
  188.2780  177.6710  142.3110 C   0  0  0  0  0  2  0  0  0  0  0  0
  187.2570  177.6660  143.4210 C   0  0  0  0  0  0  0  0  0  0  0  0
  189.6660  178.1080  142.7750 C   0  0  0  0  0  2  0  0  0  0  0  0
  184.5650  178.6310  144.8910 C   0  0  0  0  0  2  0  0  0  0  0  0
  185.7150  178.7440  145.8820 C   0  0  0  0  0  2  0  0  0  0  0  0
  191.4700  177.7930  144.5040 C   0  0  0  0  0  3  0  0  0  0  0  0
  191.6810  177.5050  145.8540 O   0  0  0  0  0  1  0  0  0  0  0  0
  191.6800  179.1550  144.2780 O   0  0  0  0  0  1  0  0  0  0  0  0
  1 18  1  1  0  0  0
  2 10  2  0  0  0  0
  2 12  1  0  0  0  0
  3 12  1  0  0  0  0
  3  7  1  0  0  0  0
  5  6  1  0  0  0  0
  6  4  2  0  0  0  0
  7  8  2  0  0  0  0
  8  4  1  0  0  0  0
  8  1  1  0  0  0  0
  9  5  2  0  0  0  0
  9  7  1  0  0  0  0
 10 11  1  0  0  0  0
 11 13  2  0  0  0  0
 12 14  2  0  0  0  0
 14 13  1  0  0  0  0
 14  1  1  0  0  0  0
 16 17  2  0  0  0  0
 17 15  1  0  0  0  0
 17 10  1  0  0  0  0
 18 19  1  0  0  0  0
 20 31  1  0  0  0  0
 21 28  1  0  0  0  0
 21 26  1  0  0  0  0
 22 23  1  6  0  0  0
 22 32  1  0  0  0  0
 22 24  1  0  0  0  0
 25 24  1  0  0  0  0
 25 20  1  0  0  0  0
 26 19  1  6  0  0  0
 26 30  1  0  0  0  0
 27 29  1  0  0  0  0
 27 28  1  0  0  0  0
 28 25  2  0  0  0  0
 29 22  1  0  0  0  0
 30 31  1  0  0  0  0
 32 33  1  0  0  0  0
 34 32  1  0  0  0  0
M  END
>  <MODEL>
6

>  <REMARK>
 VINA RESULT:      -8.9      1.799      2.642
  Name = 
  5 active torsions:
  status: ('A' for Active; 'I' for Inactive)
    1  A    between atoms: C_1  and  C_9
    2  A    between atoms: C_7  and  C_11
    3  A    between atoms: C_8  and  C_9
    4  A    between atoms: C_8  and  C_18
    5  A    between atoms: C_23  and  C_25
                            x       y       z     vdW  Elec       q    Type
                         _______ _______ _______ _____ _____    ______ ____

>  <TORSDO>
F 5

$$$$
=
 OpenBabel11052415453D

 34 38  0  0  1  0  0  0  0  0999 V2000
  185.8040  178.0580  142.4000 C   0  0  2  0  0  3  0  0  0  0  0  0
  186.5020  178.3140  146.1420 C   0  0  0  0  0  3  0  0  0  0  0  0
  184.6660  179.3550  144.8040 C   0  0  0  0  0  2  0  0  0  0  0  0
  183.5000  178.0770  141.4060 C   0  0  0  0  0  3  0  0  0  0  0  0
  181.6050  179.0010  142.5970 C   0  0  0  0  0  3  0  0  0  0  0  0
  182.1370  178.3870  141.4610 C   0  0  0  0  0  3  0  0  0  0  0  0
  183.7940  178.9900  143.6380 C   0  0  0  0  0  0  0  0  0  0  0  0
  184.3350  178.3800  142.4870 C   0  0  0  0  0  0  0  0  0  0  0  0
  182.4330  179.3040  143.6820 C   0  0  0  0  0  3  0  0  0  0  0  0
  187.6670  177.5430  146.2620 C   0  0  0  0  0  0  0  0  0  0  0  0
  188.2130  176.9480  145.1170 C   0  0  0  0  0  3  0  0  0  0  0  0
  185.8820  178.4790  144.9020 C   0  0  0  0  0  0  0  0  0  0  0  0
  187.6040  177.1140  143.8720 C   0  0  0  0  0  3  0  0  0  0  0  0
  186.4380  177.8770  143.7550 C   0  0  0  0  0  0  0  0  0  0  0  0
  189.7940  177.3890  147.7200 C   0  0  0  0  0  1  0  0  0  0  0  0
  187.6070  177.1670  148.6050 O   0  0  0  0  0  0  0  0  0  0  0  0
  188.3110  177.3550  147.5770 C   0  0  0  0  0  0  0  0  0  0  0  0
  186.5660  179.0560  141.5170 C   0  0  0  0  0  2  0  0  0  0  0  0
  186.8020  178.5540  140.0950 C   0  0  0  0  0  2  0  0  0  0  0  0
  190.8800  176.6160  140.5850 C   0  0  0  0  0  2  0  0  0  0  0  0
  188.3040  176.8030  139.1980 C   0  0  0  0  0  2  0  0  0  0  0  0
  191.9140  175.8470  136.9120 C   0  0  2  0  0  0  0  0  0  0  0  0
  191.5820  174.4900  136.9630 O   0  0  0  0  0  1  0  0  0  0  0  0
  192.0810  176.3760  138.3370 C   0  0  0  0  0  2  0  0  0  0  0  0
  190.7800  176.5240  139.0870 C   0  0  0  0  0  0  0  0  0  0  0  0
  188.2540  178.1540  139.8940 C   0  0  2  0  0  3  0  0  0  0  0  0
  189.4720  176.4510  136.9520 C   0  0  0  0  0  2  0  0  0  0  0  0
  189.5900  176.6390  138.4430 C   0  0  0  0  0  0  0  0  0  0  0  0
  190.7990  176.6310  136.2180 C   0  0  0  0  0  2  0  0  0  0  0  0
  188.9580  178.0860  141.2440 C   0  0  0  0  0  2  0  0  0  0  0  0
  190.4690  177.9940  141.0870 C   0  0  0  0  0  2  0  0  0  0  0  0
  193.2370  176.0040  136.1570 C   0  0  0  0  0  3  0  0  0  0  0  0
  193.4380  174.9540  135.2580 O   0  0  0  0  0  1  0  0  0  0  0  0
  194.3120  176.0720  137.0450 O   0  0  0  0  0  1  0  0  0  0  0  0
  1 18  1  1  0  0  0
  1  8  1  0  0  0  0
  1 14  1  0  0  0  0
  2 10  1  0  0  0  0
  3 12  1  0  0  0  0
  4  6  2  0  0  0  0
  4  8  1  0  0  0  0
  5  9  2  0  0  0  0
  6  5  1  0  0  0  0
  7  9  1  0  0  0  0
  7  3  1  0  0  0  0
  8  7  2  0  0  0  0
 10 17  1  0  0  0  0
 11 10  2  0  0  0  0
 12  2  2  0  0  0  0
 13 11  1  0  0  0  0
 14 13  2  0  0  0  0
 14 12  1  0  0  0  0
 17 15  1  0  0  0  0
 17 16  2  0  0  0  0
 19 18  1  0  0  0  0
 20 31  1  0  0  0  0
 21 26  1  0  0  0  0
 22 23  1  1  0  0  0
 22 24  1  0  0  0  0
 24 25  1  0  0  0  0
 25 20  1  0  0  0  0
 26 19  1  1  0  0  0
 26 30  1  0  0  0  0
 27 28  1  0  0  0  0
 28 25  2  0  0  0  0
 28 21  1  0  0  0  0
 29 22  1  0  0  0  0
 29 27  1  0  0  0  0
 31 30  1  0  0  0  0
 32 22  1  0  0  0  0
 32 34  1  0  0  0  0
 33 32  1  0  0  0  0
M  END
>  <MODEL>
7

>  <REMARK>
 VINA RESULT:      -8.8      3.396      6.494
  Name = 
  5 active torsions:
  status: ('A' for Active; 'I' for Inactive)
    1  A    between atoms: C_1  and  C_9
    2  A    between atoms: C_7  and  C_11
    3  A    between atoms: C_8  and  C_9
    4  A    between atoms: C_8  and  C_18
    5  A    between atoms: C_23  and  C_25
                            x       y       z     vdW  Elec       q    Type
                         _______ _______ _______ _____ _____    ______ ____

>  <TORSDO>
F 5

$$$$
=
 OpenBabel11052415453D

 34 38  0  0  1  0  0  0  0  0999 V2000
  188.8320  178.0120  141.8920 C   0  0  2  0  0  3  0  0  0  0  0  0
  185.3500  177.8950  143.4480 C   0  0  0  0  0  3  0  0  0  0  0  0
  187.5060  176.9970  144.3350 C   0  0  0  0  0  2  0  0  0  0  0  0
  190.9500  178.2010  143.2260 C   0  0  0  0  0  3  0  0  0  0  0  0
  191.0470  177.5710  145.5620 C   0  0  0  0  0  3  0  0  0  0  0  0
  191.6770  178.0530  144.4110 C   0  0  0  0  0  3  0  0  0  0  0  0
  188.9550  177.3910  144.3500 C   0  0  0  0  0  0  0  0  0  0  0  0
  189.5920  177.8670  143.1860 C   0  0  0  0  0  0  0  0  0  0  0  0
  189.6890  177.2390  145.5300 C   0  0  0  0  0  3  0  0  0  0  0  0
  184.5830  178.5330  142.4630 C   0  0  0  0  0  0  0  0  0  0  0  0
  185.2120  178.9930  141.2980 C   0  0  0  0  0  3  0  0  0  0  0  0
  186.7280  177.7310  143.2830 C   0  0  0  0  0  0  0  0  0  0  0  0
  186.5870  178.8270  141.1210 C   0  0  0  0  0  3  0  0  0  0  0  0
  187.3520  178.1980  142.1080 C   0  0  0  0  0  0  0  0  0  0  0  0
  182.5560  179.0070  143.9920 C   0  0  0  0  0  1  0  0  0  0  0  0
  182.3530  178.6470  141.6580 O   0  0  0  0  0  0  0  0  0  0  0  0
  183.1310  178.7210  142.6470 C   0  0  0  0  0  0  0  0  0  0  0  0
  189.1510  176.8830  140.9020 C   0  0  0  0  0  2  0  0  0  0  0  0
  189.7170  177.3790  139.5750 C   0  0  0  0  0  2  0  0  0  0  0  0
  187.5050  178.0380  135.6640 C   0  0  0  0  0  2  0  0  0  0  0  0
  188.7350  176.2290  137.6150 C   0  0  0  0  0  2  0  0  0  0  0  0
  185.1140  174.9710  135.5000 C   0  0  2  0  0  0  0  0  0  0  0  0
  185.8970  174.2410  134.6010 O   0  0  0  0  0  1  0  0  0  0  0  0
  185.5140  176.4450  135.4310 C   0  0  0  0  0  2  0  0  0  0  0  0
  186.8540  176.7410  136.0590 C   0  0  0  0  0  0  0  0  0  0  0  0
  188.6320  177.4510  138.5140 C   0  0  2  0  0  3  0  0  0  0  0  0
  186.8120  174.5720  137.3130 C   0  0  0  0  0  2  0  0  0  0  0  0
  187.4110  175.9170  136.9840 C   0  0  0  0  0  0  0  0  0  0  0  0
  185.3390  174.4600  136.9240 C   0  0  0  0  0  2  0  0  0  0  0  0
  188.7960  178.7290  137.6990 C   0  0  0  0  0  2  0  0  0  0  0  0
  187.5730  179.0070  136.8360 C   0  0  0  0  0  2  0  0  0  0  0  0
  183.6410  174.8290  135.1020 C   0  0  0  0  0  3  0  0  0  0  0  0
  182.7950  175.3200  136.0990 O   0  0  0  0  0  1  0  0  0  0  0  0
  183.3240  173.4950  134.8340 O   0  0  0  0  0  1  0  0  0  0  0  0
  1 18  1  6  0  0  0
  1 14  1  0  0  0  0
  1  8  1  0  0  0  0
  3  7  1  0  0  0  0
  4  6  1  0  0  0  0
  6  5  2  0  0  0  0
  7  9  2  0  0  0  0
  8  4  2  0  0  0  0
  8  7  1  0  0  0  0
  9  5  1  0  0  0  0
 10 17  1  0  0  0  0
 10  2  2  0  0  0  0
 11 10  1  0  0  0  0
 12  2  1  0  0  0  0
 12  3  1  0  0  0  0
 13 11  2  0  0  0  0
 13 14  1  0  0  0  0
 14 12  2  0  0  0  0
 16 17  2  0  0  0  0
 17 15  1  0  0  0  0
 19 18  1  0  0  0  0
 20 25  1  0  0  0  0
 20 31  1  0  0  0  0
 21 26  1  0  0  0  0
 22 23  1  6  0  0  0
 22 29  1  0  0  0  0
 24 22  1  0  0  0  0
 24 25  1  0  0  0  0
 25 28  2  0  0  0  0
 26 19  1  1  0  0  0
 28 27  1  0  0  0  0
 28 21  1  0  0  0  0
 29 27  1  0  0  0  0
 30 26  1  0  0  0  0
 31 30  1  0  0  0  0
 32 22  1  0  0  0  0
 32 33  1  0  0  0  0
 34 32  1  0  0  0  0
M  END
>  <MODEL>
8

>  <REMARK>
 VINA RESULT:      -8.7      3.559      8.643
  Name = 
  5 active torsions:
  status: ('A' for Active; 'I' for Inactive)
    1  A    between atoms: C_1  and  C_9
    2  A    between atoms: C_7  and  C_11
    3  A    between atoms: C_8  and  C_9
    4  A    between atoms: C_8  and  C_18
    5  A    between atoms: C_23  and  C_25
                            x       y       z     vdW  Elec       q    Type
                         _______ _______ _______ _____ _____    ______ ____

>  <TORSDO>
F 5

$$$$
=
 OpenBabel11052415453D

 34 38  0  0  1  0  0  0  0  0999 V2000
  187.5810  177.8770  142.2110 C   0  0  2  0  0  3  0  0  0  0  0  0
  191.2740  177.5030  141.3330 C   0  0  0  0  0  3  0  0  0  0  0  0
  190.2290  178.2340  143.4810 C   0  0  0  0  0  2  0  0  0  0  0  0
  186.6400  177.4470  144.4980 C   0  0  0  0  0  3  0  0  0  0  0  0
  188.0290  177.5030  146.4800 C   0  0  0  0  0  3  0  0  0  0  0  0
  186.7770  177.3310  145.8850 C   0  0  0  0  0  3  0  0  0  0  0  0
  189.0190  177.8970  144.3030 C   0  0  0  0  0  0  0  0  0  0  0  0
  187.7530  177.7350  143.7020 C   0  0  0  0  0  0  0  0  0  0  0  0
  189.1470  177.7880  145.6900 C   0  0  0  0  0  3  0  0  0  0  0  0
  191.2020  177.0930  139.9940 C   0  0  0  0  0  0  0  0  0  0  0  0
  189.9460  176.9460  139.3910 C   0  0  0  0  0  3  0  0  0  0  0  0
  190.1110  177.7480  142.0660 C   0  0  0  0  0  0  0  0  0  0  0  0
  188.7780  177.1960  140.1140 C   0  0  0  0  0  3  0  0  0  0  0  0
  188.8510  177.5960  141.4520 C   0  0  0  0  0  0  0  0  0  0  0  0
  192.3750  176.1550  137.8920 C   0  0  0  0  0  1  0  0  0  0  0  0
  193.5560  177.1470  139.6910 O   0  0  0  0  0  0  0  0  0  0  0  0
  192.4320  176.8180  139.2260 C   0  0  0  0  0  0  0  0  0  0  0  0
  186.9440  179.2200  141.8270 C   0  0  0  0  0  2  0  0  0  0  0  0
  185.4180  179.1890  141.8100 C   0  0  0  0  0  2  0  0  0  0  0  0
  182.8510  177.3720  138.5340 C   0  0  0  0  0  2  0  0  0  0  0  0
  185.1680  178.9690  139.3570 C   0  0  0  0  0  2  0  0  0  0  0  0
  185.4730  176.3980  135.8260 C   0  0  2  0  0  0  0  0  0  0  0  0
  185.2320  177.5030  135.0060 O   0  0  0  0  0  1  0  0  0  0  0  0
  184.2800  176.1990  136.7630 C   0  0  0  0  0  2  0  0  0  0  0  0
  184.1870  177.2340  137.8570 C   0  0  0  0  0  0  0  0  0  0  0  0
  184.9050  178.2950  140.6940 C   0  0  2  0  0  3  0  0  0  0  0  0
  186.5820  177.8910  137.5210 C   0  0  0  0  0  2  0  0  0  0  0  0
  185.2670  177.9540  138.2570 C   0  0  0  0  0  0  0  0  0  0  0  0
  186.7300  176.6350  136.6650 C   0  0  0  0  0  2  0  0  0  0  0  0
  183.4140  178.0440  140.8830 C   0  0  0  0  0  2  0  0  0  0  0  0
  182.9140  176.9200  139.9860 C   0  0  0  0  0  2  0  0  0  0  0  0
  185.6360  175.1540  134.9470 C   0  0  0  0  0  3  0  0  0  0  0  0
  184.7870  174.1250  135.3600 O   0  0  0  0  0  1  0  0  0  0  0  0
  186.9580  174.7040  134.9620 O   0  0  0  0  0  1  0  0  0  0  0  0
  1 18  1  1  0  0  0
  1  8  1  0  0  0  0
  2 12  1  0  0  0  0
  3  7  1  0  0  0  0
  4  6  1  0  0  0  0
  6  5  2  0  0  0  0
  7  9  2  0  0  0  0
  8  7  1  0  0  0  0
  8  4  2  0  0  0  0
  9  5  1  0  0  0  0
 10  2  2  0  0  0  0
 11 10  1  0  0  0  0
 11 13  2  0  0  0  0
 12  3  1  0  0  0  0
 13 14  1  0  0  0  0
 14 12  2  0  0  0  0
 14  1  1  0  0  0  0
 15 17  1  0  0  0  0
 17 16  2  0  0  0  0
 17 10  1  0  0  0  0
 19 18  1  0  0  0  0
 20 31  1  0  0  0  0
 21 26  1  0  0  0  0
 22 23  1  6  0  0  0
 22 29  1  0  0  0  0
 22 24  1  0  0  0  0
 24 25  1  0  0  0  0
 25 28  2  0  0  0  0
 25 20  1  0  0  0  0
 26 30  1  0  0  0  0
 26 19  1  1  0  0  0
 27 28  1  0  0  0  0
 28 21  1  0  0  0  0
 29 27  1  0  0  0  0
 31 30  1  0  0  0  0
 32 34  1  0  0  0  0
 32 33  1  0  0  0  0
 32 22  1  0  0  0  0
M  END
>  <MODEL>
9

>  <REMARK>
 VINA RESULT:      -8.6      2.497      7.669
  Name = 
  5 active torsions:
  status: ('A' for Active; 'I' for Inactive)
    1  A    between atoms: C_1  and  C_9
    2  A    between atoms: C_7  and  C_11
    3  A    between atoms: C_8  and  C_9
    4  A    between atoms: C_8  and  C_18
    5  A    between atoms: C_23  and  C_25
                            x       y       z     vdW  Elec       q    Type
                         _______ _______ _______ _____ _____    ______ ____

>  <TORSDO>
F 5

$$$$
