=
 OpenBabel11052413523D

 27 30  0  0  1  0  0  0  0  0999 V2000
  188.1190  177.2390  143.5020 C   0  0  2  0  0  3  0  0  0  0  0  0
  188.5800  177.2030  142.0540 C   0  0  1  0  0  3  0  0  0  0  0  0
  190.4650  176.4850  143.5040 C   0  0  2  0  0  0  0  0  0  0  0  0
  188.4240  178.5560  141.3940 C   0  0  0  0  0  2  0  0  0  0  0  0
  190.4100  177.3590  146.2880 C   0  0  0  0  0  0  0  0  0  0  0  0
  191.0330  175.2100  143.4850 O   0  0  0  0  0  1  0  0  0  0  0  0
  190.4360  177.8080  147.6020 O   0  0  0  0  0  1  0  0  0  0  0  0
  190.8570  177.0270  141.0980 C   0  0  0  0  0  3  0  0  0  0  0  0
  190.4150  177.4990  139.7340 C   0  0  2  0  0  3  0  0  0  0  0  0
  189.1580  176.4620  144.3160 C   0  0  1  0  0  3  0  0  0  0  0  0
  190.0230  176.8730  142.1340 C   0  0  0  0  0  0  0  0  0  0  0  0
  191.7000  177.2850  145.5310 C   0  0  0  0  0  2  0  0  0  0  0  0
  188.7950  178.3850  139.6160 S   0  0  0  0  0  0  0  0  0  0  0  0
  188.0920  176.9950  146.5110 O   0  0  0  0  0  1  0  0  0  0  0  0
  189.2510  176.9620  145.7420 C   0  0  0  0  0  0  0  0  0  0  0  0
  191.4680  177.5070  144.0440 C   0  0  0  0  0  2  0  0  0  0  0  0
  190.4900  176.4190  138.7550 N   0  0  0  0  0  2  0  0  0  0  0  0
  191.6290  174.9340  137.0680 C   0  0  0  0  0  1  0  0  0  0  0  0
  192.7590  176.6670  138.2310 O   0  0  0  0  0  0  0  0  0  0  0  0
  191.6770  176.0530  138.0430 C   0  0  0  0  0  0  0  0  0  0  0  0
  186.7010  176.6800  143.6690 C   0  0  0  0  0  2  0  0  0  0  0  0
  183.6690  179.7000  144.0470 C   0  0  0  0  0  3  0  0  0  0  0  0
  185.6540  177.7430  143.8000 C   0  0  0  0  0  0  0  0  0  0  0  0
  184.9140  178.1390  142.6790 C   0  0  0  0  0  3  0  0  0  0  0  0
  183.9230  179.1170  142.8030 C   0  0  0  0  0  3  0  0  0  0  0  0
  184.4070  179.3070  145.1680 C   0  0  0  0  0  3  0  0  0  0  0  0
  185.3980  178.3290  145.0450 C   0  0  0  0  0  3  0  0  0  0  0  0
  1 21  1  6  0  0  0
  1 10  1  0  0  0  0
  2  4  1  1  0  0  0
  2 11  1  0  0  0  0
  2  1  1  0  0  0  0
  3  6  1  6  0  0  0
  3 16  1  0  0  0  0
  3 10  1  0  0  0  0
  5  7  1  0  0  0  0
  8 11  2  0  0  0  0
  9 17  1  6  0  0  0
  9  8  1  0  0  0  0
 10 15  1  1  0  0  0
 11  3  1  0  0  0  0
 12  5  1  0  0  0  0
 13  9  1  0  0  0  0
 13  4  1  0  0  0  0
 15  5  2  0  0  0  0
 15 14  1  0  0  0  0
 16 12  1  0  0  0  0
 18 20  1  0  0  0  0
 20 19  2  0  0  0  0
 20 17  1  0  0  0  0
 21 23  1  0  0  0  0
 22 26  1  0  0  0  0
 23 27  1  0  0  0  0
 24 25  1  0  0  0  0
 24 23  2  0  0  0  0
 25 22  2  0  0  0  0
 27 26  2  0  0  0  0
M  END
>  <MODEL>
1

>  <REMARK>
 VINA RESULT:      -8.7      0.000      0.000
  Name = 
  3 active torsions:
  status: ('A' for Active; 'I' for Inactive)
    1  A    between atoms: C_1  and  C_15
    2  A    between atoms: N_4  and  C_17
    3  A    between atoms: C_9  and  C_15
                            x       y       z     vdW  Elec       q    Type
                         _______ _______ _______ _____ _____    ______ ____

>  <TORSDO>
F 3

$$$$
=
 OpenBabel11052413523D

 27 30  0  0  1  0  0  0  0  0999 V2000
  186.4010  177.8890  144.7640 C   0  0  2  0  0  3  0  0  0  0  0  0
  187.5290  177.5390  143.8080 C   0  0  1  0  0  3  0  0  0  0  0  0
  185.7950  178.8050  142.5580 C   0  0  2  0  0  0  0  0  0  0  0  0
  187.7600  176.0450  143.7520 C   0  0  0  0  0  2  0  0  0  0  0  0
  183.0880  178.7800  143.6470 C   0  0  0  0  0  0  0  0  0  0  0  0
  185.9960  180.0620  141.9850 O   0  0  0  0  0  1  0  0  0  0  0  0
  181.7790  178.7370  144.1120 O   0  0  0  0  0  1  0  0  0  0  0  0
  187.6220  177.6200  141.3350 C   0  0  0  0  0  3  0  0  0  0  0  0
  188.8430  176.7340  141.2650 C   0  0  2  0  0  3  0  0  0  0  0  0
  185.5470  178.9540  144.0700 C   0  0  1  0  0  3  0  0  0  0  0  0
  187.0470  177.9990  142.4830 C   0  0  0  0  0  0  0  0  0  0  0  0
  183.3220  178.7380  142.1680 C   0  0  0  0  0  2  0  0  0  0  0  0
  189.2540  175.7200  142.7560 S   0  0  0  0  0  0  0  0  0  0  0  0
  183.8210  178.9970  145.8750 O   0  0  0  0  0  1  0  0  0  0  0  0
  184.1010  178.9020  144.5160 C   0  0  0  0  0  0  0  0  0  0  0  0
  184.6520  178.0730  141.8500 C   0  0  0  0  0  2  0  0  0  0  0  0
  190.0080  177.4850  140.8080 N   0  0  0  0  0  2  0  0  0  0  0  0
  192.1320  177.8410  139.4980 C   0  0  0  0  0  1  0  0  0  0  0  0
  190.8840  175.8240  139.4060 O   0  0  0  0  0  0  0  0  0  0  0  0
  190.9840  176.9830  139.8890 C   0  0  0  0  0  0  0  0  0  0  0  0
  186.9250  178.3510  146.1290 C   0  0  0  0  0  2  0  0  0  0  0  0
  190.8340  176.8140  147.0320 C   0  0  0  0  0  3  0  0  0  0  0  0
  188.2910  177.8270  146.4510 C   0  0  0  0  0  0  0  0  0  0  0  0
  188.4630  176.9230  147.5070 C   0  0  0  0  0  3  0  0  0  0  0  0
  189.7340  176.4180  147.7970 C   0  0  0  0  0  3  0  0  0  0  0  0
  190.6650  177.7170  145.9770 C   0  0  0  0  0  3  0  0  0  0  0  0
  189.3940  178.2220  145.6870 C   0  0  0  0  0  3  0  0  0  0  0  0
  1 21  1  1  0  0  0
  2  4  1  6  0  0  0
  2  1  1  0  0  0  0
  3  6  1  6  0  0  0
  3 10  1  0  0  0  0
  5  7  1  0  0  0  0
  5 15  2  0  0  0  0
  8 11  2  0  0  0  0
  9 17  1  1  0  0  0
  9  8  1  0  0  0  0
  9 13  1  0  0  0  0
 10 15  1  6  0  0  0
 10  1  1  0  0  0  0
 11  3  1  0  0  0  0
 11  2  1  0  0  0  0
 12  5  1  0  0  0  0
 13  4  1  0  0  0  0
 15 14  1  0  0  0  0
 16 12  1  0  0  0  0
 16  3  1  0  0  0  0
 18 20  1  0  0  0  0
 19 20  2  0  0  0  0
 20 17  1  0  0  0  0
 21 23  1  0  0  0  0
 22 25  1  0  0  0  0
 23 24  1  0  0  0  0
 24 25  2  0  0  0  0
 26 22  2  0  0  0  0
 27 26  1  0  0  0  0
 27 23  2  0  0  0  0
M  END
>  <MODEL>
2

>  <REMARK>
 VINA RESULT:      -6.9      2.498      5.403
  Name = 
  3 active torsions:
  status: ('A' for Active; 'I' for Inactive)
    1  A    between atoms: C_1  and  C_15
    2  A    between atoms: N_4  and  C_17
    3  A    between atoms: C_9  and  C_15
                            x       y       z     vdW  Elec       q    Type
                         _______ _______ _______ _____ _____    ______ ____

>  <TORSDO>
F 3

$$$$
=
 OpenBabel11052413523D

 27 30  0  0  1  0  0  0  0  0999 V2000
  187.1450  178.2520  141.9650 C   0  0  2  0  0  3  0  0  0  0  0  0
  187.3820  178.0270  143.4500 C   0  0  1  0  0  3  0  0  0  0  0  0
  189.5560  177.8380  142.2630 C   0  0  2  0  0  0  0  0  0  0  0  0
  186.5450  176.8800  143.9720 C   0  0  0  0  0  2  0  0  0  0  0  0
  189.4680  177.1740  139.4230 C   0  0  0  0  0  0  0  0  0  0  0  0
  190.6340  178.7070  142.4490 O   0  0  0  0  0  1  0  0  0  0  0  0
  189.4560  176.8040  138.0840 O   0  0  0  0  0  1  0  0  0  0  0  0
  189.3470  177.1040  144.6410 C   0  0  0  0  0  3  0  0  0  0  0  0
  188.5660  176.8470  145.9080 C   0  0  2  0  0  3  0  0  0  0  0  0
  188.5190  178.4870  141.3290 C   0  0  1  0  0  3  0  0  0  0  0  0
  188.8140  177.6570  143.5430 C   0  0  0  0  0  0  0  0  0  0  0  0
  190.5410  176.6210  140.3090 C   0  0  0  0  0  2  0  0  0  0  0  0
  186.7210  176.8060  145.7870 S   0  0  0  0  0  0  0  0  0  0  0  0
  187.6190  178.5730  139.0010 O   0  0  0  0  0  1  0  0  0  0  0  0
  188.5570  178.0440  139.8820 C   0  0  0  0  0  0  0  0  0  0  0  0
  190.0450  176.4860  141.7400 C   0  0  0  0  0  2  0  0  0  0  0  0
  188.9980  177.7410  146.9790 N   0  0  0  0  0  2  0  0  0  0  0  0
  190.4850  178.5010  148.8660 C   0  0  0  0  0  1  0  0  0  0  0  0
  190.8730  176.5040  147.6430 O   0  0  0  0  0  0  0  0  0  0  0  0
  190.1460  177.5190  147.8040 C   0  0  0  0  0  0  0  0  0  0  0  0
  186.1710  179.4080  141.7060 C   0  0  0  0  0  2  0  0  0  0  0  0
  182.3490  178.9240  143.6090 C   0  0  0  0  0  3  0  0  0  0  0  0
  184.8410  179.2260  142.3730 C   0  0  0  0  0  0  0  0  0  0  0  0
  184.6630  179.6290  143.7010 C   0  0  0  0  0  3  0  0  0  0  0  0
  183.4180  179.4780  144.3190 C   0  0  0  0  0  3  0  0  0  0  0  0
  182.5250  178.5200  142.2820 C   0  0  0  0  0  3  0  0  0  0  0  0
  183.7700  178.6710  141.6640 C   0  0  0  0  0  3  0  0  0  0  0  0
  1 21  1  1  0  0  0
  1  2  1  0  0  0  0
  2 11  1  0  0  0  0
  2  4  1  6  0  0  0
  3  6  1  1  0  0  0
  3 11  1  0  0  0  0
  4 13  1  0  0  0  0
  5 15  2  0  0  0  0
  5 12  1  0  0  0  0
  7  5  1  0  0  0  0
  8  9  1  0  0  0  0
  9 17  1  1  0  0  0
 10 15  1  6  0  0  0
 10  1  1  0  0  0  0
 10  3  1  0  0  0  0
 11  8  2  0  0  0  0
 12 16  1  0  0  0  0
 13  9  1  0  0  0  0
 14 15  1  0  0  0  0
 16  3  1  0  0  0  0
 17 20  1  0  0  0  0
 19 20  2  0  0  0  0
 20 18  1  0  0  0  0
 21 23  1  0  0  0  0
 22 25  1  0  0  0  0
 23 24  1  0  0  0  0
 24 25  2  0  0  0  0
 26 22  2  0  0  0  0
 27 26  1  0  0  0  0
 27 23  2  0  0  0  0
M  END
>  <MODEL>
3

>  <REMARK>
 VINA RESULT:      -6.5      2.776      5.773
  Name = 
  3 active torsions:
  status: ('A' for Active; 'I' for Inactive)
    1  A    between atoms: C_1  and  C_15
    2  A    between atoms: N_4  and  C_17
    3  A    between atoms: C_9  and  C_15
                            x       y       z     vdW  Elec       q    Type
                         _______ _______ _______ _____ _____    ______ ____

>  <TORSDO>
F 3

$$$$
=
 OpenBabel11052413523D

 27 30  0  0  1  0  0  0  0  0999 V2000
  187.5870  177.8760  143.0230 C   0  0  2  0  0  3  0  0  0  0  0  0
  188.9010  177.6630  143.7580 C   0  0  1  0  0  3  0  0  0  0  0  0
  187.0580  177.6930  145.4230 C   0  0  2  0  0  0  0  0  0  0  0  0
  189.8750  178.7870  143.4810 C   0  0  0  0  0  2  0  0  0  0  0  0
  184.5960  179.0600  144.6570 C   0  0  0  0  0  0  0  0  0  0  0  0
  186.6930  176.6020  146.2150 O   0  0  0  0  0  1  0  0  0  0  0  0
  183.4340  179.7520  144.3390 O   0  0  0  0  0  1  0  0  0  0  0  0
  189.4370  177.8260  146.1700 C   0  0  0  0  0  3  0  0  0  0  0  0
  190.9250  177.9080  145.9220 C   0  0  2  0  0  3  0  0  0  0  0  0
  186.4680  177.5310  144.0100 C   0  0  1  0  0  3  0  0  0  0  0  0
  188.5300  177.6920  145.1930 C   0  0  0  0  0  0  0  0  0  0  0  0
  185.1120  179.1350  146.0610 C   0  0  0  0  0  2  0  0  0  0  0  0
  191.4880  178.3600  144.2190 S   0  0  0  0  0  0  0  0  0  0  0  0
  184.6440  178.2280  142.4530 O   0  0  0  0  0  1  0  0  0  0  0  0
  185.2010  178.3090  143.7250 C   0  0  0  0  0  0  0  0  0  0  0  0
  186.6270  179.0020  146.0880 C   0  0  0  0  0  2  0  0  0  0  0  0
  191.6010  176.7030  146.3910 N   0  0  0  0  0  2  0  0  0  0  0  0
  192.7880  175.2530  148.0770 C   0  0  0  0  0  1  0  0  0  0  0  0
  192.0070  177.4370  148.5790 O   0  0  0  0  0  0  0  0  0  0  0  0
  192.1150  176.5270  147.7160 C   0  0  0  0  0  0  0  0  0  0  0  0
  187.5090  177.0520  141.7320 C   0  0  0  0  0  2  0  0  0  0  0  0
  190.6700  177.8790  138.9430 C   0  0  0  0  0  3  0  0  0  0  0  0
  188.6150  177.3520  140.7670 C   0  0  0  0  0  0  0  0  0  0  0  0
  189.8560  176.7210  140.9060 C   0  0  0  0  0  3  0  0  0  0  0  0
  190.8830  176.9850  139.9950 C   0  0  0  0  0  3  0  0  0  0  0  0
  189.4310  178.5110  138.8010 C   0  0  0  0  0  3  0  0  0  0  0  0
  188.4040  178.2470  139.7130 C   0  0  0  0  0  3  0  0  0  0  0  0
  1 21  1  6  0  0  0
  1  2  1  0  0  0  0
  1 10  1  0  0  0  0
  2  4  1  1  0  0  0
  2 11  1  0  0  0  0
  3 16  1  0  0  0  0
  3  6  1  1  0  0  0
  4 13  1  0  0  0  0
  5 12  1  0  0  0  0
  7  5  1  0  0  0  0
  9  8  1  0  0  0  0
  9 17  1  6  0  0  0
 10 15  1  1  0  0  0
 10  3  1  0  0  0  0
 11  3  1  0  0  0  0
 11  8  2  0  0  0  0
 12 16  1  0  0  0  0
 13  9  1  0  0  0  0
 14 15  1  0  0  0  0
 15  5  2  0  0  0  0
 17 20  1  0  0  0  0
 20 18  1  0  0  0  0
 20 19  2  0  0  0  0
 22 25  1  0  0  0  0
 23 24  1  0  0  0  0
 23 21  1  0  0  0  0
 25 24  2  0  0  0  0
 26 22  2  0  0  0  0
 26 27  1  0  0  0  0
 27 23  2  0  0  0  0
M  END
>  <MODEL>
4

>  <REMARK>
 VINA RESULT:      -6.3      3.075      6.335
  Name = 
  3 active torsions:
  status: ('A' for Active; 'I' for Inactive)
    1  A    between atoms: C_1  and  C_15
    2  A    between atoms: N_4  and  C_17
    3  A    between atoms: C_9  and  C_15
                            x       y       z     vdW  Elec       q    Type
                         _______ _______ _______ _____ _____    ______ ____

>  <TORSDO>
F 3

$$$$
=
 OpenBabel11052413523D

 27 30  0  0  1  0  0  0  0  0999 V2000
  190.9490  177.2280  138.9160 C   0  0  2  0  0  3  0  0  0  0  0  0
  189.4660  177.0860  138.6140 C   0  0  1  0  0  3  0  0  0  0  0  0
  190.7010  175.3270  137.3690 C   0  0  2  0  0  0  0  0  0  0  0  0
  188.8980  178.3630  138.0330 C   0  0  0  0  0  2  0  0  0  0  0  0
  193.5220  175.8210  136.8140 C   0  0  0  0  0  0  0  0  0  0  0  0
  190.5600  173.9560  137.5930 O   0  0  0  0  0  1  0  0  0  0  0  0
  194.8520  176.0570  136.4880 O   0  0  0  0  0  1  0  0  0  0  0  0
  188.3030  175.7950  136.8500 C   0  0  0  0  0  3  0  0  0  0  0  0
  187.0120  176.5600  137.0210 C   0  0  2  0  0  3  0  0  0  0  0  0
  191.6230  175.9390  138.4380 C   0  0  1  0  0  3  0  0  0  0  0  0
  189.3990  176.0200  137.5860 C   0  0  0  0  0  0  0  0  0  0  0  0
  192.6510  175.1320  135.8090 C   0  0  0  0  0  2  0  0  0  0  0  0
  187.0880  178.1880  137.8950 S   0  0  0  0  0  0  0  0  0  0  0  0
  193.9310  176.7530  138.9400 O   0  0  0  0  0  1  0  0  0  0  0  0
  193.0610  176.1700  138.0240 C   0  0  0  0  0  0  0  0  0  0  0  0
  191.2060  175.5850  135.9470 C   0  0  0  0  0  2  0  0  0  0  0  0
  185.9720  175.7100  137.5940 N   0  0  0  0  0  2  0  0  0  0  0  0
  184.0630  174.0660  137.5230 C   0  0  0  0  0  1  0  0  0  0  0  0
  185.1590  174.8530  135.5700 O   0  0  0  0  0  0  0  0  0  0  0  0
  185.0850  174.8890  136.8260 C   0  0  0  0  0  0  0  0  0  0  0  0
  191.2100  177.5140  140.4000 C   0  0  0  0  0  2  0  0  0  0  0  0
  187.7780  176.9280  142.9170 C   0  0  0  0  0  3  0  0  0  0  0  0
  190.0070  177.3040  141.2670 C   0  0  0  0  0  0  0  0  0  0  0  0
  189.9390  176.1910  142.1130 C   0  0  0  0  0  3  0  0  0  0  0  0
  188.8260  176.0030  142.9370 C   0  0  0  0  0  3  0  0  0  0  0  0
  187.8430  178.0400  142.0730 C   0  0  0  0  0  3  0  0  0  0  0  0
  188.9560  178.2280  141.2490 C   0  0  0  0  0  3  0  0  0  0  0  0
  1 21  1  1  0  0  0
  2  4  1  6  0  0  0
  2  1  1  0  0  0  0
  3 11  1  0  0  0  0
  3  6  1  1  0  0  0
  3 10  1  0  0  0  0
  5 15  2  0  0  0  0
  7  5  1  0  0  0  0
  8  9  1  0  0  0  0
  8 11  2  0  0  0  0
  9 17  1  1  0  0  0
  9 13  1  0  0  0  0
 10 15  1  6  0  0  0
 10  1  1  0  0  0  0
 11  2  1  0  0  0  0
 12 16  1  0  0  0  0
 12  5  1  0  0  0  0
 13  4  1  0  0  0  0
 15 14  1  0  0  0  0
 16  3  1  0  0  0  0
 19 20  2  0  0  0  0
 20 18  1  0  0  0  0
 20 17  1  0  0  0  0
 21 23  1  0  0  0  0
 22 25  1  0  0  0  0
 23 24  1  0  0  0  0
 24 25  2  0  0  0  0
 26 22  2  0  0  0  0
 27 23  2  0  0  0  0
 27 26  1  0  0  0  0
M  END
>  <MODEL>
5

>  <REMARK>
 VINA RESULT:      -6.2      3.811      6.716
  Name = 
  3 active torsions:
  status: ('A' for Active; 'I' for Inactive)
    1  A    between atoms: C_1  and  C_15
    2  A    between atoms: N_4  and  C_17
    3  A    between atoms: C_9  and  C_15
                            x       y       z     vdW  Elec       q    Type
                         _______ _______ _______ _____ _____    ______ ____

>  <TORSDO>
F 3

$$$$
=
 OpenBabel11052413523D

 27 30  0  0  1  0  0  0  0  0999 V2000
  187.5850  178.1620  139.9360 C   0  0  2  0  0  3  0  0  0  0  0  0
  186.2570  178.5230  139.2890 C   0  0  1  0  0  3  0  0  0  0  0  0
  186.0690  178.8820  141.7400 C   0  0  2  0  0  0  0  0  0  0  0  0
  185.6900  177.3570  138.5090 C   0  0  0  0  0  2  0  0  0  0  0  0
  187.9120  177.3990  143.4480 C   0  0  0  0  0  0  0  0  0  0  0  0
  185.8610  180.1260  142.3410 O   0  0  0  0  0  1  0  0  0  0  0  0
  188.7400  176.6630  144.2860 O   0  0  0  0  0  1  0  0  0  0  0  0
  184.0280  178.8990  140.2990 C   0  0  0  0  0  3  0  0  0  0  0  0
  183.3090  178.7510  138.9800 C   0  0  2  0  0  3  0  0  0  0  0  0
  187.5520  178.7280  141.3590 C   0  0  1  0  0  3  0  0  0  0  0  0
  185.3590  178.8180  140.4310 C   0  0  0  0  0  0  0  0  0  0  0  0
  186.4950  177.6360  143.8700 C   0  0  0  0  0  2  0  0  0  0  0  0
  184.2170  177.9250  137.5960 S   0  0  0  0  0  0  0  0  0  0  0  0
  189.7440  177.7160  141.9990 O   0  0  0  0  0  1  0  0  0  0  0  0
  188.4030  177.9170  142.3120 C   0  0  0  0  0  0  0  0  0  0  0  0
  185.5830  177.7580  142.6590 C   0  0  0  0  0  2  0  0  0  0  0  0
  182.7450  180.0250  138.5450 N   0  0  0  0  0  2  0  0  0  0  0  0
  180.9710  181.8080  138.3860 C   0  0  0  0  0  1  0  0  0  0  0  0
  180.6760  179.8010  139.6190 O   0  0  0  0  0  0  0  0  0  0  0  0
  181.4370  180.4910  138.8920 C   0  0  0  0  0  0  0  0  0  0  0  0
  188.7800  178.6770  139.1250 C   0  0  0  0  0  2  0  0  0  0  0  0
  190.4810  175.7490  136.4800 C   0  0  0  0  0  3  0  0  0  0  0  0
  189.3620  177.6480  138.2040 C   0  0  0  0  0  0  0  0  0  0  0  0
  189.2460  177.8030  136.8180 C   0  0  0  0  0  3  0  0  0  0  0  0
  189.8040  176.8540  135.9570 C   0  0  0  0  0  3  0  0  0  0  0  0
  190.5980  175.5920  137.8650 C   0  0  0  0  0  3  0  0  0  0  0  0
  190.0390  176.5400  138.7260 C   0  0  0  0  0  3  0  0  0  0  0  0
  1 21  1  6  0  0  0
  1 10  1  0  0  0  0
  2  4  1  1  0  0  0
  2  1  1  0  0  0  0
  2 11  1  0  0  0  0
  3  6  1  1  0  0  0
  3 16  1  0  0  0  0
  5 12  1  0  0  0  0
  5  7  1  0  0  0  0
  8 11  2  0  0  0  0
  9 17  1  6  0  0  0
  9  8  1  0  0  0  0
 10  3  1  0  0  0  0
 10 15  1  1  0  0  0
 11  3  1  0  0  0  0
 13  4  1  0  0  0  0
 13  9  1  0  0  0  0
 14 15  1  0  0  0  0
 15  5  2  0  0  0  0
 16 12  1  0  0  0  0
 17 20  1  0  0  0  0
 18 20  1  0  0  0  0
 20 19  2  0  0  0  0
 22 26  1  0  0  0  0
 23 27  1  0  0  0  0
 23 21  1  0  0  0  0
 24 23  2  0  0  0  0
 25 22  2  0  0  0  0
 25 24  1  0  0  0  0
 26 27  2  0  0  0  0
M  END
>  <MODEL>
6

>  <REMARK>
 VINA RESULT:      -6.0      3.893      7.341
  Name = 
  3 active torsions:
  status: ('A' for Active; 'I' for Inactive)
    1  A    between atoms: C_1  and  C_15
    2  A    between atoms: N_4  and  C_17
    3  A    between atoms: C_9  and  C_15
                            x       y       z     vdW  Elec       q    Type
                         _______ _______ _______ _____ _____    ______ ____

>  <TORSDO>
F 3

$$$$
=
 OpenBabel11052413523D

 27 30  0  0  1  0  0  0  0  0999 V2000
  188.3270  177.2670  142.0980 C   0  0  2  0  0  3  0  0  0  0  0  0
  187.0120  177.6810  141.4560 C   0  0  1  0  0  3  0  0  0  0  0  0
  188.6640  177.2250  139.6570 C   0  0  2  0  0  0  0  0  0  0  0  0
  186.5690  179.0440  141.9390 C   0  0  0  0  0  2  0  0  0  0  0  0
  191.4880  177.4170  140.3640 C   0  0  0  0  0  0  0  0  0  0  0  0
  188.5440  176.1980  138.7180 O   0  0  0  0  0  1  0  0  0  0  0  0
  192.8380  177.5570  140.6600 O   0  0  0  0  0  1  0  0  0  0  0  0
  186.5060  178.3670  139.1320 C   0  0  0  0  0  3  0  0  0  0  0  0
  185.1800  178.9820  139.5110 C   0  0  2  0  0  3  0  0  0  0  0  0
  189.1880  176.6560  140.9880 C   0  0  1  0  0  3  0  0  0  0  0  0
  187.3180  177.7620  140.0080 C   0  0  0  0  0  0  0  0  0  0  0  0
  190.9980  177.8780  139.0260 C   0  0  0  0  0  2  0  0  0  0  0  0
  184.8950  179.3780  141.2950 S   0  0  0  0  0  0  0  0  0  0  0  0
  191.1890  176.3740  142.4560 O   0  0  0  0  0  1  0  0  0  0  0  0
  190.6670  176.8380  141.2530 C   0  0  0  0  0  0  0  0  0  0  0  0
  189.5530  178.3450  139.1110 C   0  0  0  0  0  2  0  0  0  0  0  0
  184.0690  178.2080  138.9660 N   0  0  0  0  0  2  0  0  0  0  0  0
  181.7690  177.8800  137.9870 C   0  0  0  0  0  1  0  0  0  0  0  0
  182.6260  180.0130  138.5800 O   0  0  0  0  0  0  0  0  0  0  0  0
  182.8300  178.7720  138.5220 C   0  0  0  0  0  0  0  0  0  0  0  0
  188.1170  176.3080  143.2760 C   0  0  0  0  0  2  0  0  0  0  0  0
  187.9770  178.2530  147.1040 C   0  0  0  0  0  3  0  0  0  0  0  0
  188.0710  176.9980  144.6040 C   0  0  0  0  0  0  0  0  0  0  0  0
  186.8410  177.3800  145.1530 C   0  0  0  0  0  3  0  0  0  0  0  0
  186.7940  178.0070  146.4020 C   0  0  0  0  0  3  0  0  0  0  0  0
  189.2070  177.8740  146.5580 C   0  0  0  0  0  3  0  0  0  0  0  0
  189.2540  177.2460  145.3090 C   0  0  0  0  0  3  0  0  0  0  0  0
  1 21  1  1  0  0  0
  2  4  1  1  0  0  0
  2  1  1  0  0  0  0
  3  6  1  6  0  0  0
  3 11  1  0  0  0  0
  3 10  1  0  0  0  0
  5  7  1  0  0  0  0
  5 15  2  0  0  0  0
  8  9  1  0  0  0  0
  8 11  2  0  0  0  0
  9 17  1  1  0  0  0
  9 13  1  0  0  0  0
 10 15  1  1  0  0  0
 10  1  1  0  0  0  0
 11  2  1  0  0  0  0
 12 16  1  0  0  0  0
 12  5  1  0  0  0  0
 13  4  1  0  0  0  0
 15 14  1  0  0  0  0
 16  3  1  0  0  0  0
 18 20  1  0  0  0  0
 20 19  2  0  0  0  0
 20 17  1  0  0  0  0
 21 23  1  0  0  0  0
 23 24  2  0  0  0  0
 23 27  1  0  0  0  0
 24 25  1  0  0  0  0
 25 22  2  0  0  0  0
 26 22  1  0  0  0  0
 27 26  2  0  0  0  0
M  END
>  <MODEL>
7

>  <REMARK>
 VINA RESULT:      -5.9      3.315      5.550
  Name = 
  3 active torsions:
  status: ('A' for Active; 'I' for Inactive)
    1  A    between atoms: C_1  and  C_15
    2  A    between atoms: N_4  and  C_17
    3  A    between atoms: C_9  and  C_15
                            x       y       z     vdW  Elec       q    Type
                         _______ _______ _______ _____ _____    ______ ____

>  <TORSDO>
F 3

$$$$
=
 OpenBabel11052413523D

 27 30  0  0  1  0  0  0  0  0999 V2000
  184.8830  178.4330  140.2940 C   0  0  2  0  0  3  0  0  0  0  0  0
  183.3970  178.5580  140.5900 C   0  0  1  0  0  3  0  0  0  0  0  0
  184.6630  179.0190  142.6770 C   0  0  2  0  0  0  0  0  0  0  0  0
  182.6600  177.2800  140.2540 C   0  0  0  0  0  2  0  0  0  0  0  0
  187.3600  177.9210  142.8680 C   0  0  0  0  0  0  0  0  0  0  0  0
  184.6720  180.2500  143.3380 O   0  0  0  0  0  1  0  0  0  0  0  0
  188.6240  177.3620  143.0070 O   0  0  0  0  0  1  0  0  0  0  0  0
  182.1930  178.6560  142.7510 C   0  0  0  0  0  3  0  0  0  0  0  0
  180.8590  178.3310  142.1220 C   0  0  2  0  0  3  0  0  0  0  0  0
  185.6240  179.0650  141.4760 C   0  0  1  0  0  3  0  0  0  0  0  0
  183.3300  178.7800  142.0540 C   0  0  0  0  0  0  0  0  0  0  0  0
  186.4630  177.9680  144.0660 C   0  0  0  0  0  2  0  0  0  0  0  0
  180.8690  177.5730  140.4340 S   0  0  0  0  0  0  0  0  0  0  0  0
  187.8840  178.4240  140.6260 O   0  0  0  0  0  1  0  0  0  0  0  0
  186.9870  178.4420  141.6890 C   0  0  0  0  0  0  0  0  0  0  0  0
  185.0020  177.8880  143.6510 C   0  0  0  0  0  2  0  0  0  0  0  0
  179.9630  179.4820  142.1700 N   0  0  0  0  0  2  0  0  0  0  0  0
  178.9310  181.6170  141.3170 C   0  0  0  0  0  1  0  0  0  0  0  0
  180.6080  180.4310  140.1280 O   0  0  0  0  0  0  0  0  0  0  0  0
  179.8830  180.4880  141.1550 C   0  0  0  0  0  0  0  0  0  0  0  0
  185.2590  179.0730  138.9520 C   0  0  0  0  0  2  0  0  0  0  0  0
  186.6110  176.2550  136.0030 C   0  0  0  0  0  3  0  0  0  0  0  0
  185.7370  178.0840  137.9330 C   0  0  0  0  0  0  0  0  0  0  0  0
  184.9190  177.0110  137.5610 C   0  0  0  0  0  3  0  0  0  0  0  0
  185.3550  176.0980  136.5970 C   0  0  0  0  0  3  0  0  0  0  0  0
  187.4300  177.3260  136.3740 C   0  0  0  0  0  3  0  0  0  0  0  0
  186.9940  178.2390  137.3380 C   0  0  0  0  0  3  0  0  0  0  0  0
  1 21  1  6  0  0  0
  1  2  1  0  0  0  0
  1 10  1  0  0  0  0
  2  4  1  1  0  0  0
  2 11  1  0  0  0  0
  3  6  1  1  0  0  0
  3 16  1  0  0  0  0
  4 13  1  0  0  0  0
  5  7  1  0  0  0  0
  5 12  1  0  0  0  0
  9 17  1  6  0  0  0
  9  8  1  0  0  0  0
 10 15  1  1  0  0  0
 10  3  1  0  0  0  0
 11  3  1  0  0  0  0
 11  8  2  0  0  0  0
 13  9  1  0  0  0  0
 14 15  1  0  0  0  0
 15  5  2  0  0  0  0
 16 12  1  0  0  0  0
 19 20  2  0  0  0  0
 20 18  1  0  0  0  0
 20 17  1  0  0  0  0
 22 26  2  0  0  0  0
 22 25  1  0  0  0  0
 23 21  1  0  0  0  0
 24 23  1  0  0  0  0
 25 24  2  0  0  0  0
 26 27  1  0  0  0  0
 27 23  2  0  0  0  0
M  END
>  <MODEL>
8

>  <REMARK>
 VINA RESULT:      -5.8      4.874      8.077
  Name = 
  3 active torsions:
  status: ('A' for Active; 'I' for Inactive)
    1  A    between atoms: C_1  and  C_15
    2  A    between atoms: N_4  and  C_17
    3  A    between atoms: C_9  and  C_15
                            x       y       z     vdW  Elec       q    Type
                         _______ _______ _______ _____ _____    ______ ____

>  <TORSDO>
F 3

$$$$
