=
 OpenBabel11052413403D

 27 32  0  0  1  0  0  0  0  0999 V2000
  189.4310  177.8480  137.0060 C   0  0  0  0  0  2  0  0  0  0  0  0
  188.3420  177.6190  139.2230 C   0  0  0  0  0  0  0  0  0  0  0  0
  190.6150  176.5780  139.3680 N   0  0  0  0  0  2  0  0  0  0  0  0
  188.7560  178.4840  143.3000 N   0  0  0  0  0  2  0  0  0  0  0  0
  190.9820  179.1350  144.0400 C   0  0  0  0  0  1  0  0  0  0  0  0
  187.2700  178.2590  139.8820 C   0  0  0  0  0  3  0  0  0  0  0  0
  190.6490  177.3670  142.3010 C   0  0  1  0  0  3  0  0  0  0  0  0
  191.5090  173.9670  136.8190 C   0  0  0  0  0  2  0  0  0  0  0  0
  190.8560  175.8770  142.5080 C   0  0  0  0  0  1  0  0  0  0  0  0
  190.9260  174.5670  135.5220 C   0  0  2  0  0  3  0  0  0  0  0  0
  189.5530  177.6060  141.3190 C   0  0  0  0  0  0  0  0  0  0  0  0
  188.2780  177.4210  137.7990 N   0  0  0  0  0  0  0  0  0  0  0  0
  190.0960  177.9840  143.6040 C   0  0  2  0  0  3  0  0  0  0  0  0
  188.5060  178.2310  141.9340 C   0  0  0  0  0  0  0  0  0  0  0  0
  190.4930  176.7530  136.9110 C   0  0  2  0  0  3  0  0  0  0  0  0
  189.5100  177.2760  139.9590 C   0  0  0  0  0  0  0  0  0  0  0  0
  191.7290  174.9330  137.9770 C   0  0  0  0  0  2  0  0  0  0  0  0
  187.3430  178.5650  141.2470 C   0  0  0  0  0  3  0  0  0  0  0  0
  191.7240  175.7500  135.0160 C   0  0  0  0  0  2  0  0  0  0  0  0
  190.3360  175.9870  135.5940 C   0  0  1  0  0  3  0  0  0  0  0  0
  190.5210  175.8250  138.1240 C   0  0  1  0  0  3  0  0  0  0  0  0
  184.9160  175.6680  135.8660 C   0  0  0  0  0  3  0  0  0  0  0  0
  187.1310  176.8250  137.1550 C   0  0  0  0  0  0  0  0  0  0  0  0
  186.9610  175.4300  137.1380 C   0  0  0  0  0  3  0  0  0  0  0  0
  185.8600  174.8550  136.5000 C   0  0  0  0  0  3  0  0  0  0  0  0
  185.0760  177.0560  135.8700 C   0  0  0  0  0  3  0  0  0  0  0  0
  186.1790  177.6300  136.5100 C   0  0  0  0  0  3  0  0  0  0  0  0
  1 12  1  0  0  0  0
  2  6  2  0  0  0  0
  2 16  1  0  0  0  0
  3 16  1  0  0  0  0
  4 13  1  0  0  0  0
  6 18  1  0  0  0  0
  7  9  1  1  0  0  0
  7 13  1  0  0  0  0
  8 17  1  0  0  0  0
 10 19  1  6  0  0  0
 10 20  1  0  0  0  0
 10  8  1  0  0  0  0
 11 14  1  0  0  0  0
 11  7  1  0  0  0  0
 12  2  1  0  0  0  0
 13  5  1  6  0  0  0
 14  4  1  0  0  0  0
 15  1  1  1  0  0  0
 15 21  1  0  0  0  0
 16 11  2  0  0  0  0
 18 14  2  0  0  0  0
 20 19  1  6  0  0  0
 20 15  1  0  0  0  0
 21 17  1  6  0  0  0
 21  3  1  0  0  0  0
 22 26  2  0  0  0  0
 22 25  1  0  0  0  0
 23 12  1  0  0  0  0
 24 23  1  0  0  0  0
 25 24  2  0  0  0  0
 26 27  1  0  0  0  0
 27 23  2  0  0  0  0
M  END
>  <MODEL>
1

>  <REMARK>
 VINA RESULT:      -6.8      0.000      0.000
  Name = 
  1 active torsions:
  status: ('A' for Active; 'I' for Inactive)
    1  A    between atoms: C_9  and  N_15
                            x       y       z     vdW  Elec       q    Type
                         _______ _______ _______ _____ _____    ______ ____

>  <TORSDO>
F 1

$$$$
=
 OpenBabel11052413403D

 27 32  0  0  1  0  0  0  0  0999 V2000
  188.6770  178.6210  138.4600 C   0  0  0  0  0  2  0  0  0  0  0  0
  190.6090  177.2530  139.2040 C   0  0  0  0  0  0  0  0  0  0  0  0
  189.7700  176.2960  137.0470 N   0  0  0  0  0  2  0  0  0  0  0  0
  194.3830  175.8350  138.0720 N   0  0  0  0  0  2  0  0  0  0  0  0
  194.9290  175.9990  135.7060 C   0  0  0  0  0  1  0  0  0  0  0  0
  191.6880  177.4470  140.0920 C   0  0  0  0  0  3  0  0  0  0  0  0
  192.6210  175.4160  136.4760 C   0  0  1  0  0  3  0  0  0  0  0  0
  186.1220  175.4270  136.8200 C   0  0  0  0  0  2  0  0  0  0  0  0
  191.9810  174.0420  136.3840 C   0  0  0  0  0  1  0  0  0  0  0  0
  185.4590  176.6210  137.5390 C   0  0  2  0  0  3  0  0  0  0  0  0
  192.1280  176.1370  137.6840 C   0  0  0  0  0  0  0  0  0  0  0  0
  189.3290  177.8380  139.5090 N   0  0  0  0  0  0  0  0  0  0  0  0
  194.1310  175.2510  136.7560 C   0  0  2  0  0  3  0  0  0  0  0  0
  193.1580  176.3410  138.5570 C   0  0  0  0  0  0  0  0  0  0  0  0
  187.8330  177.7430  137.5360 C   0  0  2  0  0  3  0  0  0  0  0  0
  190.8290  176.5760  137.9730 C   0  0  0  0  0  0  0  0  0  0  0  0
  187.5500  175.6360  136.3290 C   0  0  0  0  0  2  0  0  0  0  0  0
  192.9730  176.9860  139.7760 C   0  0  0  0  0  3  0  0  0  0  0  0
  185.5040  177.8940  136.7210 C   0  0  0  0  0  2  0  0  0  0  0  0
  186.3660  177.7880  137.9710 C   0  0  1  0  0  3  0  0  0  0  0  0
  188.3580  176.3140  137.4080 C   0  0  1  0  0  3  0  0  0  0  0  0
  187.4270  177.3210  143.2810 C   0  0  0  0  0  3  0  0  0  0  0  0
  188.6940  177.6700  140.7950 C   0  0  0  0  0  0  0  0  0  0  0  0
  189.1340  176.6800  141.6900 C   0  0  0  0  0  3  0  0  0  0  0  0
  188.5060  176.5080  142.9260 C   0  0  0  0  0  3  0  0  0  0  0  0
  186.9750  178.3060  142.3980 C   0  0  0  0  0  3  0  0  0  0  0  0
  187.6050  178.4770  141.1620 C   0  0  0  0  0  3  0  0  0  0  0  0
  1 12  1  0  0  0  0
  2 12  1  0  0  0  0
  2  6  1  0  0  0  0
  3 21  1  0  0  0  0
  3 16  1  0  0  0  0
  4 14  1  0  0  0  0
  7  9  1  1  0  0  0
  7 13  1  0  0  0  0
  7 11  1  0  0  0  0
  8 10  1  0  0  0  0
 10 19  1  6  0  0  0
 10 20  1  0  0  0  0
 11 16  1  0  0  0  0
 11 14  2  0  0  0  0
 12 23  1  0  0  0  0
 13  5  1  6  0  0  0
 13  4  1  0  0  0  0
 14 18  1  0  0  0  0
 15 20  1  0  0  0  0
 15  1  1  1  0  0  0
 16  2  2  0  0  0  0
 17  8  1  0  0  0  0
 18  6  2  0  0  0  0
 20 19  1  6  0  0  0
 21 17  1  6  0  0  0
 21 15  1  0  0  0  0
 23 27  2  0  0  0  0
 23 24  1  0  0  0  0
 24 25  2  0  0  0  0
 25 22  1  0  0  0  0
 26 22  2  0  0  0  0
 27 26  1  0  0  0  0
M  END
>  <MODEL>
2

>  <REMARK>
 VINA RESULT:      -6.8      1.837      5.647
  Name = 
  1 active torsions:
  status: ('A' for Active; 'I' for Inactive)
    1  A    between atoms: C_9  and  N_15
                            x       y       z     vdW  Elec       q    Type
                         _______ _______ _______ _____ _____    ______ ____

>  <TORSDO>
F 1

$$$$
=
 OpenBabel11052413403D

 27 32  0  0  1  0  0  0  0  0999 V2000
  188.0590  176.1340  143.5760 C   0  0  0  0  0  2  0  0  0  0  0  0
  186.8060  177.7240  142.1420 C   0  0  0  0  0  0  0  0  0  0  0  0
  189.1800  177.6700  141.3450 N   0  0  0  0  0  2  0  0  0  0  0  0
  185.7640  178.6080  138.1830 N   0  0  0  0  0  2  0  0  0  0  0  0
  187.0480  177.4740  136.4540 C   0  0  0  0  0  1  0  0  0  0  0  0
  185.4440  177.9430  141.8430 C   0  0  0  0  0  3  0  0  0  0  0  0
  188.1260  178.2820  138.5630 C   0  0  1  0  0  3  0  0  0  0  0  0
  191.8890  178.2920  143.8720 C   0  0  0  0  0  2  0  0  0  0  0  0
  189.0550  179.4770  138.6760 C   0  0  0  0  0  1  0  0  0  0  0  0
  191.3800  177.4990  145.0950 C   0  0  2  0  0  3  0  0  0  0  0  0
  187.3270  178.1270  139.8120 C   0  0  0  0  0  0  0  0  0  0  0  0
  187.1800  177.2980  143.4650 N   0  0  0  0  0  0  0  0  0  0  0  0
  187.0520  178.5780  137.4930 C   0  0  2  0  0  3  0  0  0  0  0  0
  186.0030  178.3290  139.5460 C   0  0  0  0  0  0  0  0  0  0  0  0
  189.5340  176.5260  143.5010 C   0  0  2  0  0  3  0  0  0  0  0  0
  187.7750  177.8260  141.1050 C   0  0  0  0  0  0  0  0  0  0  0  0
  191.2840  177.9230  142.5230 C   0  0  0  0  0  2  0  0  0  0  0  0
  185.0330  178.2530  140.5400 C   0  0  0  0  0  3  0  0  0  0  0  0
  191.4970  176.0010  144.9080 C   0  0  0  0  0  2  0  0  0  0  0  0
  190.1160  176.6400  144.9130 C   0  0  1  0  0  3  0  0  0  0  0  0
  189.7900  177.7780  142.6640 C   0  0  1  0  0  3  0  0  0  0  0  0
  185.7900  179.2740  146.9680 C   0  0  0  0  0  3  0  0  0  0  0  0
  186.7170  177.9790  144.6520 C   0  0  0  0  0  0  0  0  0  0  0  0
  187.4260  177.8780  145.8600 C   0  0  0  0  0  3  0  0  0  0  0  0
  186.9670  178.5230  147.0100 C   0  0  0  0  0  3  0  0  0  0  0  0
  185.0710  179.3780  145.7750 C   0  0  0  0  0  3  0  0  0  0  0  0
  185.5320  178.7320  144.6230 C   0  0  0  0  0  3  0  0  0  0  0  0
  2 12  1  0  0  0  0
  3 21  1  0  0  0  0
  4 14  1  0  0  0  0
  6  2  1  0  0  0  0
  7  9  1  1  0  0  0
  7 11  1  0  0  0  0
 10  8  1  6  0  0  0
 11 16  1  0  0  0  0
 12  1  1  0  0  0  0
 12 23  1  0  0  0  0
 13  5  1  6  0  0  0
 13  4  1  0  0  0  0
 13  7  1  0  0  0  0
 14 11  2  0  0  0  0
 14 18  1  0  0  0  0
 15  1  1  1  0  0  0
 15 20  1  0  0  0  0
 16  3  1  0  0  0  0
 16  2  2  0  0  0  0
 17  8  1  0  0  0  0
 18  6  2  0  0  0  0
 19 10  1  0  0  0  0
 20 19  1  6  0  0  0
 20 10  1  0  0  0  0
 21 17  1  6  0  0  0
 21 15  1  0  0  0  0
 22 25  1  0  0  0  0
 23 24  1  0  0  0  0
 24 25  2  0  0  0  0
 26 22  2  0  0  0  0
 27 23  2  0  0  0  0
 27 26  1  0  0  0  0
M  END
>  <MODEL>
3

>  <REMARK>
 VINA RESULT:      -6.5      2.796      7.132
  Name = 
  1 active torsions:
  status: ('A' for Active; 'I' for Inactive)
    1  A    between atoms: C_9  and  N_15
                            x       y       z     vdW  Elec       q    Type
                         _______ _______ _______ _____ _____    ______ ____

>  <TORSDO>
F 1

$$$$
=
 OpenBabel11052413403D

 27 32  0  0  1  0  0  0  0  0999 V2000
  184.6400  179.5920  139.9040 C   0  0  0  0  0  2  0  0  0  0  0  0
  186.7840  178.3570  139.7160 C   0  0  0  0  0  0  0  0  0  0  0  0
  185.1750  177.3660  138.0710 N   0  0  0  0  0  2  0  0  0  0  0  0
  189.8110  177.2240  137.0520 N   0  0  0  0  0  2  0  0  0  0  0  0
  189.3000  177.4530  134.6830 C   0  0  0  0  0  1  0  0  0  0  0  0
  188.1230  178.6170  140.0770 C   0  0  0  0  0  3  0  0  0  0  0  0
  187.5690  176.6990  136.3250 C   0  0  1  0  0  3  0  0  0  0  0  0
  181.8290  176.2420  139.3580 C   0  0  0  0  0  2  0  0  0  0  0  0
  187.0330  175.2840  136.4540 C   0  0  0  0  0  1  0  0  0  0  0  0
  181.4600  177.3780  140.3360 C   0  0  2  0  0  3  0  0  0  0  0  0
  187.5880  177.3690  137.6570 C   0  0  0  0  0  0  0  0  0  0  0  0
  185.7190  178.8450  140.5520 N   0  0  0  0  0  0  0  0  0  0  0  0
  189.0640  176.6390  135.9400 C   0  0  2  0  0  3  0  0  0  0  0  0
  188.8750  177.6360  138.0260 C   0  0  0  0  0  0  0  0  0  0  0  0
  183.5410  178.6660  139.3840 C   0  0  2  0  0  3  0  0  0  0  0  0
  186.5070  177.7110  138.4790 C   0  0  0  0  0  0  0  0  0  0  0  0
  182.9030  176.5590  138.3230 C   0  0  0  0  0  2  0  0  0  0  0  0
  189.1810  178.2530  139.2350 C   0  0  0  0  0  3  0  0  0  0  0  0
  181.0810  178.6600  139.6250 C   0  0  0  0  0  2  0  0  0  0  0  0
  182.3920  178.6020  140.3950 C   0  0  1  0  0  3  0  0  0  0  0  0
  184.0470  177.2800  138.9910 C   0  0  1  0  0  3  0  0  0  0  0  0
  185.6790  178.2020  144.7590 C   0  0  0  0  0  3  0  0  0  0  0  0
  185.6950  178.6180  141.9780 C   0  0  0  0  0  0  0  0  0  0  0  0
  184.7650  179.2830  142.7960 C   0  0  0  0  0  3  0  0  0  0  0  0
  184.7560  179.0740  144.1770 C   0  0  0  0  0  3  0  0  0  0  0  0
  186.6130  177.5390  143.9580 C   0  0  0  0  0  3  0  0  0  0  0  0
  186.6210  177.7480  142.5760 C   0  0  0  0  0  3  0  0  0  0  0  0
  1 12  1  0  0  0  0
  2  6  1  0  0  0  0
  2 12  1  0  0  0  0
  3 16  1  0  0  0  0
  3 21  1  0  0  0  0
  4 14  1  0  0  0  0
  7  9  1  1  0  0  0
  7 11  1  0  0  0  0
 10  8  1  6  0  0  0
 10 20  1  0  0  0  0
 11 14  2  0  0  0  0
 11 16  1  0  0  0  0
 12 23  1  0  0  0  0
 13  5  1  6  0  0  0
 13  7  1  0  0  0  0
 13  4  1  0  0  0  0
 14 18  1  0  0  0  0
 15  1  1  1  0  0  0
 15 20  1  0  0  0  0
 16  2  2  0  0  0  0
 17  8  1  0  0  0  0
 18  6  2  0  0  0  0
 19 10  1  0  0  0  0
 20 19  1  6  0  0  0
 21 17  1  6  0  0  0
 21 15  1  0  0  0  0
 23 27  2  0  0  0  0
 23 24  1  0  0  0  0
 24 25  2  0  0  0  0
 25 22  1  0  0  0  0
 26 22  2  0  0  0  0
 27 26  1  0  0  0  0
M  END
>  <MODEL>
4

>  <REMARK>
 VINA RESULT:      -6.1      3.074      7.270
  Name = 
  1 active torsions:
  status: ('A' for Active; 'I' for Inactive)
    1  A    between atoms: C_9  and  N_15
                            x       y       z     vdW  Elec       q    Type
                         _______ _______ _______ _____ _____    ______ ____

>  <TORSDO>
F 1

$$$$
=
 OpenBabel11052413403D

 27 32  0  0  1  0  0  0  0  0999 V2000
  187.8530  178.8610  137.3330 C   0  0  0  0  0  2  0  0  0  0  0  0
  187.2470  178.1170  139.6210 C   0  0  0  0  0  0  0  0  0  0  0  0
  189.5860  177.3510  139.1530 N   0  0  0  0  0  2  0  0  0  0  0  0
  188.3830  178.3010  143.6480 N   0  0  0  0  0  2  0  0  0  0  0  0
  190.6460  179.0790  144.0920 C   0  0  0  0  0  1  0  0  0  0  0  0
  186.2760  178.4970  140.5720 C   0  0  0  0  0  3  0  0  0  0  0  0
  190.1310  177.6140  142.1300 C   0  0  1  0  0  3  0  0  0  0  0  0
  190.1800  175.3540  136.0280 C   0  0  0  0  0  2  0  0  0  0  0  0
  190.5020  176.1470  142.0020 C   0  0  0  0  0  1  0  0  0  0  0  0
  189.3020  176.0960  134.9970 C   0  0  2  0  0  3  0  0  0  0  0  0
  188.8460  177.8860  141.4240 C   0  0  0  0  0  0  0  0  0  0  0  0
  186.9210  178.1650  138.2200 N   0  0  0  0  0  0  0  0  0  0  0  0
  189.7950  177.9230  143.6050 C   0  0  2  0  0  3  0  0  0  0  0  0
  187.8910  178.2620  142.3250 C   0  0  0  0  0  0  0  0  0  0  0  0
  188.9660  177.9370  136.8390 C   0  0  2  0  0  3  0  0  0  0  0  0
  188.5630  177.7960  140.0550 C   0  0  0  0  0  0  0  0  0  0  0  0
  190.5400  176.1230  137.2930 C   0  0  0  0  0  2  0  0  0  0  0  0
  186.5900  178.5670  141.9350 C   0  0  0  0  0  3  0  0  0  0  0  0
  189.8790  177.4370  134.5970 C   0  0  0  0  0  2  0  0  0  0  0  0
  188.6180  177.3990  135.4480 C   0  0  1  0  0  3  0  0  0  0  0  0
  189.3120  176.8210  137.8230 C   0  0  1  0  0  3  0  0  0  0  0  0
  183.3920  176.3450  136.6860 C   0  0  0  0  0  3  0  0  0  0  0  0
  185.7250  177.5550  137.6880 C   0  0  0  0  0  0  0  0  0  0  0  0
  184.4920  178.2280  137.7360 C   0  0  0  0  0  3  0  0  0  0  0  0
  183.3340  177.6280  137.2360 C   0  0  0  0  0  3  0  0  0  0  0  0
  184.6100  175.6620  136.6380 C   0  0  0  0  0  3  0  0  0  0  0  0
  185.7690  176.2630  137.1370 C   0  0  0  0  0  3  0  0  0  0  0  0
  1 12  1  0  0  0  0
  2 16  2  0  0  0  0
  2  6  1  0  0  0  0
  3 16  1  0  0  0  0
  6 18  2  0  0  0  0
  7  9  1  1  0  0  0
  7 13  1  0  0  0  0
  8 17  1  0  0  0  0
 10 19  1  6  0  0  0
 10 20  1  0  0  0  0
 10  8  1  0  0  0  0
 11  7  1  0  0  0  0
 11 14  2  0  0  0  0
 12  2  1  0  0  0  0
 13  4  1  0  0  0  0
 13  5  1  6  0  0  0
 14  4  1  0  0  0  0
 15  1  1  1  0  0  0
 15 21  1  0  0  0  0
 16 11  1  0  0  0  0
 18 14  1  0  0  0  0
 20 19  1  6  0  0  0
 20 15  1  0  0  0  0
 21 17  1  6  0  0  0
 21  3  1  0  0  0  0
 22 25  1  0  0  0  0
 23 24  1  0  0  0  0
 23 12  1  0  0  0  0
 25 24  2  0  0  0  0
 26 22  2  0  0  0  0
 26 27  1  0  0  0  0
 27 23  2  0  0  0  0
M  END
>  <MODEL>
5

>  <REMARK>
 VINA RESULT:      -5.9      1.257      1.790
  Name = 
  1 active torsions:
  status: ('A' for Active; 'I' for Inactive)
    1  A    between atoms: C_9  and  N_15
                            x       y       z     vdW  Elec       q    Type
                         _______ _______ _______ _____ _____    ______ ____

>  <TORSDO>
F 1

$$$$
=
 OpenBabel11052413403D

 27 32  0  0  1  0  0  0  0  0999 V2000
  188.7140  175.9720  143.0720 C   0  0  0  0  0  2  0  0  0  0  0  0
  189.0900  176.9390  140.8190 C   0  0  0  0  0  0  0  0  0  0  0  0
  191.2340  177.1150  142.1020 N   0  0  0  0  0  2  0  0  0  0  0  0
  191.4660  176.6750  137.3800 N   0  0  0  0  0  2  0  0  0  0  0  0
  193.5350  175.4100  137.5960 C   0  0  0  0  0  1  0  0  0  0  0  0
  188.4450  176.8400  139.5670 C   0  0  0  0  0  3  0  0  0  0  0  0
  192.6940  176.8650  139.4500 C   0  0  1  0  0  3  0  0  0  0  0  0
  191.1250  178.7750  145.4700 C   0  0  0  0  0  2  0  0  0  0  0  0
  193.2920  178.1970  139.8670 C   0  0  0  0  0  1  0  0  0  0  0  0
  189.8160  178.2130  146.0660 C   0  0  2  0  0  3  0  0  0  0  0  0
  191.2190  176.8700  139.6670 C   0  0  0  0  0  0  0  0  0  0  0  0
  188.3040  176.9060  142.0240 N   0  0  0  0  0  0  0  0  0  0  0  0
  192.8250  176.7100  137.9190 C   0  0  2  0  0  3  0  0  0  0  0  0
  190.5720  176.7690  138.4680 C   0  0  0  0  0  0  0  0  0  0  0  0
  189.7570  176.5870  144.0060 C   0  0  2  0  0  3  0  0  0  0  0  0
  190.5120  176.9620  140.8720 C   0  0  0  0  0  0  0  0  0  0  0  0
  191.7280  178.0000  144.3050 C   0  0  0  0  0  2  0  0  0  0  0  0
  189.1830  176.7600  138.3800 C   0  0  0  0  0  3  0  0  0  0  0  0
  189.9340  176.7580  146.4650 C   0  0  0  0  0  2  0  0  0  0  0  0
  189.0740  177.1280  145.2650 C   0  0  1  0  0  3  0  0  0  0  0  0
  190.6390  177.6330  143.3280 C   0  0  1  0  0  3  0  0  0  0  0  0
  184.8810  179.3780  142.5610 C   0  0  0  0  0  3  0  0  0  0  0  0
  187.1500  177.7540  142.2130 C   0  0  0  0  0  0  0  0  0  0  0  0
  186.4550  177.7600  143.4330 C   0  0  0  0  0  3  0  0  0  0  0  0
  185.3290  178.5680  143.6070 C   0  0  0  0  0  3  0  0  0  0  0  0
  185.5600  179.3780  141.3390 C   0  0  0  0  0  3  0  0  0  0  0  0
  186.6870  178.5690  141.1670 C   0  0  0  0  0  3  0  0  0  0  0  0
  2 16  1  0  0  0  0
  2 12  1  0  0  0  0
  3 21  1  0  0  0  0
  4 13  1  0  0  0  0
  4 14  1  0  0  0  0
  6  2  2  0  0  0  0
  7 11  1  0  0  0  0
  7  9  1  6  0  0  0
 10  8  1  6  0  0  0
 10 19  1  0  0  0  0
 11 16  2  0  0  0  0
 12 23  1  0  0  0  0
 12  1  1  0  0  0  0
 13  5  1  1  0  0  0
 13  7  1  0  0  0  0
 14 11  1  0  0  0  0
 15  1  1  6  0  0  0
 15 20  1  0  0  0  0
 16  3  1  0  0  0  0
 17  8  1  0  0  0  0
 18 14  2  0  0  0  0
 18  6  1  0  0  0  0
 20 10  1  0  0  0  0
 20 19  1  1  0  0  0
 21 15  1  0  0  0  0
 21 17  1  1  0  0  0
 22 25  1  0  0  0  0
 23 24  1  0  0  0  0
 24 25  2  0  0  0  0
 26 22  2  0  0  0  0
 27 26  1  0  0  0  0
 27 23  2  0  0  0  0
M  END
>  <MODEL>
6

>  <REMARK>
 VINA RESULT:      -5.8      2.559      6.483
  Name = 
  1 active torsions:
  status: ('A' for Active; 'I' for Inactive)
    1  A    between atoms: C_9  and  N_15
                            x       y       z     vdW  Elec       q    Type
                         _______ _______ _______ _____ _____    ______ ____

>  <TORSDO>
F 1

$$$$
=
 OpenBabel11052413403D

 27 32  0  0  1  0  0  0  0  0999 V2000
  188.0120  177.2850  136.4490 C   0  0  0  0  0  2  0  0  0  0  0  0
  185.6250  176.9080  137.0140 C   0  0  0  0  0  0  0  0  0  0  0  0
  186.6500  178.2620  138.8540 N   0  0  0  0  0  2  0  0  0  0  0  0
  182.0250  178.8350  137.9440 N   0  0  0  0  0  2  0  0  0  0  0  0
  182.1910  181.1830  138.5620 C   0  0  0  0  0  1  0  0  0  0  0  0
  184.4700  176.5500  136.2870 C   0  0  0  0  0  3  0  0  0  0  0  0
  183.9180  179.5190  139.2780 C   0  0  1  0  0  3  0  0  0  0  0  0
  189.7690  176.9350  140.4740 C   0  0  0  0  0  2  0  0  0  0  0  0
  184.0960  178.9830  140.6870 C   0  0  0  0  0  1  0  0  0  0  0  0
  190.5630  176.4030  139.2620 C   0  0  2  0  0  3  0  0  0  0  0  0
  184.2810  178.4750  138.2770 C   0  0  0  0  0  0  0  0  0  0  0  0
  186.8990  176.3540  136.6340 N   0  0  0  0  0  0  0  0  0  0  0  0
  182.4140  179.7530  139.0130 C   0  0  2  0  0  3  0  0  0  0  0  0
  183.1780  178.1170  137.5560 C   0  0  0  0  0  0  0  0  0  0  0  0
  188.7460  177.5610  137.7600 C   0  0  2  0  0  3  0  0  0  0  0  0
  185.5310  177.8880  138.0400 C   0  0  0  0  0  0  0  0  0  0  0  0
  188.6580  177.9340  140.1740 C   0  0  0  0  0  2  0  0  0  0  0  0
  183.2330  177.1500  136.5570 C   0  0  0  0  0  3  0  0  0  0  0  0
  191.1330  177.5130  138.4050 C   0  0  0  0  0  2  0  0  0  0  0  0
  189.9890  176.6710  137.8590 C   0  0  1  0  0  3  0  0  0  0  0  0
  187.8530  177.4500  138.9940 C   0  0  1  0  0  3  0  0  0  0  0  0
  187.5100  172.1790  136.0760 C   0  0  0  0  0  3  0  0  0  0  0  0
  187.0930  174.9360  136.4380 C   0  0  0  0  0  0  0  0  0  0  0  0
  186.5110  174.0040  137.3120 C   0  0  0  0  0  3  0  0  0  0  0  0
  186.7150  172.6340  137.1310 C   0  0  0  0  0  3  0  0  0  0  0  0
  188.1000  173.0960  135.2020 C   0  0  0  0  0  3  0  0  0  0  0  0
  187.8940  174.4670  135.3840 C   0  0  0  0  0  3  0  0  0  0  0  0
  1 12  1  0  0  0  0
  2 16  1  0  0  0  0
  3 21  1  0  0  0  0
  4 13  1  0  0  0  0
  6 18  1  0  0  0  0
  6  2  2  0  0  0  0
  7  9  1  1  0  0  0
 10 19  1  6  0  0  0
 10  8  1  0  0  0  0
 11  7  1  0  0  0  0
 12  2  1  0  0  0  0
 13  5  1  6  0  0  0
 13  7  1  0  0  0  0
 14  4  1  0  0  0  0
 14 11  1  0  0  0  0
 15  1  1  6  0  0  0
 15 20  1  0  0  0  0
 15 21  1  0  0  0  0
 16 11  2  0  0  0  0
 16  3  1  0  0  0  0
 17  8  1  0  0  0  0
 18 14  2  0  0  0  0
 20 19  1  6  0  0  0
 20 10  1  0  0  0  0
 21 17  1  1  0  0  0
 22 25  1  0  0  0  0
 23 12  1  0  0  0  0
 23 24  1  0  0  0  0
 25 24  2  0  0  0  0
 26 27  1  0  0  0  0
 26 22  2  0  0  0  0
 27 23  2  0  0  0  0
M  END
>  <MODEL>
7

>  <REMARK>
 VINA RESULT:      -5.8      2.711      5.331
  Name = 
  1 active torsions:
  status: ('A' for Active; 'I' for Inactive)
    1  A    between atoms: C_9  and  N_15
                            x       y       z     vdW  Elec       q    Type
                         _______ _______ _______ _____ _____    ______ ____

>  <TORSDO>
F 1

$$$$
=
 OpenBabel11052413403D

 27 32  0  0  1  0  0  0  0  0999 V2000
  186.8280  176.2700  144.2720 C   0  0  0  0  0  2  0  0  0  0  0  0
  185.0510  177.9770  143.9790 C   0  0  0  0  0  0  0  0  0  0  0  0
  186.3490  177.8380  141.8410 N   0  0  0  0  0  2  0  0  0  0  0  0
  181.7680  179.0700  141.6190 N   0  0  0  0  0  2  0  0  0  0  0  0
  181.5660  177.9450  139.4710 C   0  0  0  0  0  1  0  0  0  0  0  0
  183.8330  178.2740  144.6260 C   0  0  0  0  0  3  0  0  0  0  0  0
  183.7950  178.6130  140.3900 C   0  0  1  0  0  3  0  0  0  0  0  0
  190.0800  178.2240  142.0310 C   0  0  0  0  0  2  0  0  0  0  0  0
  184.6540  179.7550  139.8770 C   0  0  0  0  0  1  0  0  0  0  0  0
  190.4270  177.4080  143.2940 C   0  0  2  0  0  3  0  0  0  0  0  0
  183.9780  178.4480  141.8600 C   0  0  0  0  0  0  0  0  0  0  0  0
  186.1590  177.4800  144.7510 N   0  0  0  0  0  0  0  0  0  0  0  0
  182.3070  179.0050  140.2620 C   0  0  2  0  0  3  0  0  0  0  0  0
  182.8090  178.7240  142.5090 C   0  0  0  0  0  0  0  0  0  0  0  0
  187.9310  176.5910  143.2640 C   0  0  2  0  0  3  0  0  0  0  0  0
  185.1310  178.0720  142.5620 C   0  0  0  0  0  0  0  0  0  0  0  0
  188.7280  177.9400  141.3870 C   0  0  0  0  0  2  0  0  0  0  0  0
  182.7020  178.6560  143.8950 C   0  0  0  0  0  3  0  0  0  0  0  0
  190.3010  175.9150  143.0770 C   0  0  0  0  0  2  0  0  0  0  0  0
  189.2900  176.6200  143.9700 C   0  0  1  0  0  3  0  0  0  0  0  0
  187.6690  177.8620  142.4580 C   0  0  1  0  0  3  0  0  0  0  0  0
  187.4630  179.3900  148.3240 C   0  0  0  0  0  3  0  0  0  0  0  0
  186.6120  178.1340  145.9560 C   0  0  0  0  0  0  0  0  0  0  0  0
  187.7000  177.6260  146.6850 C   0  0  0  0  0  3  0  0  0  0  0  0
  188.1250  178.2510  147.8600 C   0  0  0  0  0  3  0  0  0  0  0  0
  186.3750  179.9030  147.6120 C   0  0  0  0  0  3  0  0  0  0  0  0
  185.9520  179.2770  146.4360 C   0  0  0  0  0  3  0  0  0  0  0  0
  1 12  1  0  0  0  0
  2  6  1  0  0  0  0
  2 12  1  0  0  0  0
  3 21  1  0  0  0  0
  3 16  1  0  0  0  0
  4 14  1  0  0  0  0
  7  9  1  1  0  0  0
  7 11  1  0  0  0  0
 10  8  1  6  0  0  0
 10 20  1  0  0  0  0
 11 14  2  0  0  0  0
 11 16  1  0  0  0  0
 12 23  1  0  0  0  0
 13  5  1  6  0  0  0
 13  7  1  0  0  0  0
 13  4  1  0  0  0  0
 14 18  1  0  0  0  0
 15 20  1  0  0  0  0
 15  1  1  1  0  0  0
 16  2  2  0  0  0  0
 17  8  1  0  0  0  0
 18  6  2  0  0  0  0
 19 10  1  0  0  0  0
 20 19  1  6  0  0  0
 21 17  1  6  0  0  0
 21 15  1  0  0  0  0
 23 27  2  0  0  0  0
 23 24  1  0  0  0  0
 24 25  2  0  0  0  0
 25 22  1  0  0  0  0
 26 22  2  0  0  0  0
 27 26  1  0  0  0  0
M  END
>  <MODEL>
8

>  <REMARK>
 VINA RESULT:      -5.8      4.351      8.133
  Name = 
  1 active torsions:
  status: ('A' for Active; 'I' for Inactive)
    1  A    between atoms: C_9  and  N_15
                            x       y       z     vdW  Elec       q    Type
                         _______ _______ _______ _____ _____    ______ ____

>  <TORSDO>
F 1

$$$$
=
 OpenBabel11052413403D

 27 32  0  0  1  0  0  0  0  0999 V2000
  190.1410  178.7720  144.3670 C   0  0  0  0  0  2  0  0  0  0  0  0
  190.6500  177.5040  142.2960 C   0  0  0  0  0  0  0  0  0  0  0  0
  188.2130  178.0850  142.2680 N   0  0  0  0  0  2  0  0  0  0  0  0
  190.4740  177.6480  138.1140 N   0  0  0  0  0  2  0  0  0  0  0  0
  189.0560  179.3780  137.1560 C   0  0  0  0  0  1  0  0  0  0  0  0
  191.8210  177.2060  141.5680 C   0  0  0  0  0  3  0  0  0  0  0  0
  188.3970  178.1520  139.2360 C   0  0  1  0  0  3  0  0  0  0  0  0
  186.1510  177.1270  145.2570 C   0  0  0  0  0  2  0  0  0  0  0  0
  187.3030  177.1030  139.3330 C   0  0  0  0  0  1  0  0  0  0  0  0
  187.0970  177.4710  146.4280 C   0  0  2  0  0  3  0  0  0  0  0  0
  189.4950  177.8450  140.1960 C   0  0  0  0  0  0  0  0  0  0  0  0
  190.7110  177.5840  143.7320 N   0  0  0  0  0  0  0  0  0  0  0  0
  189.0880  178.0350  137.8600 C   0  0  2  0  0  3  0  0  0  0  0  0
  190.6430  177.5590  139.5130 C   0  0  0  0  0  0  0  0  0  0  0  0
  188.6450  178.6100  144.6380 C   0  0  2  0  0  3  0  0  0  0  0  0
  189.4540  177.8240  141.5960 C   0  0  0  0  0  0  0  0  0  0  0  0
  186.4620  177.7810  143.9170 C   0  0  0  0  0  2  0  0  0  0  0  0
  191.8250  177.2260  140.1680 C   0  0  0  0  0  3  0  0  0  0  0  0
  187.2410  178.9620  146.6420 C   0  0  0  0  0  2  0  0  0  0  0  0
  188.4230  178.1770  146.0910 C   0  0  1  0  0  3  0  0  0  0  0  0
  187.9430  177.6880  143.6430 C   0  0  1  0  0  3  0  0  0  0  0  0
  192.4300  174.5040  146.1140 C   0  0  0  0  0  3  0  0  0  0  0  0
  191.3070  176.5420  144.5360 C   0  0  0  0  0  0  0  0  0  0  0  0
  191.6810  175.3160  143.9610 C   0  0  0  0  0  3  0  0  0  0  0  0
  192.2400  174.3040  144.7440 C   0  0  0  0  0  3  0  0  0  0  0  0
  192.0580  175.7160  146.7000 C   0  0  0  0  0  3  0  0  0  0  0  0
  191.4980  176.7290  145.9150 C   0  0  0  0  0  3  0  0  0  0  0  0
  2 12  1  0  0  0  0
  3 21  1  0  0  0  0
  4 14  1  0  0  0  0
  6  2  2  0  0  0  0
  7  9  1  6  0  0  0
  7 11  1  0  0  0  0
 10  8  1  6  0  0  0
 10 19  1  0  0  0  0
 11 16  2  0  0  0  0
 12  1  1  0  0  0  0
 12 23  1  0  0  0  0
 13  5  1  1  0  0  0
 13  4  1  0  0  0  0
 13  7  1  0  0  0  0
 14 18  2  0  0  0  0
 14 11  1  0  0  0  0
 15  1  1  6  0  0  0
 15 20  1  0  0  0  0
 16  3  1  0  0  0  0
 16  2  1  0  0  0  0
 17  8  1  0  0  0  0
 18  6  1  0  0  0  0
 20 10  1  0  0  0  0
 20 19  1  1  0  0  0
 21 17  1  1  0  0  0
 21 15  1  0  0  0  0
 22 26  1  0  0  0  0
 23 27  1  0  0  0  0
 24 23  2  0  0  0  0
 24 25  1  0  0  0  0
 25 22  2  0  0  0  0
 27 26  2  0  0  0  0
M  END
>  <MODEL>
9

>  <REMARK>
 VINA RESULT:      -5.7      2.654      8.070
  Name = 
  1 active torsions:
  status: ('A' for Active; 'I' for Inactive)
    1  A    between atoms: C_9  and  N_15
                            x       y       z     vdW  Elec       q    Type
                         _______ _______ _______ _____ _____    ______ ____

>  <TORSDO>
F 1

$$$$
