=
 OpenBabel11052413143D

 31 34  0  0  1  0  0  0  0  0999 V2000
  183.4620  178.9660  141.5020 C   0  0  0  0  0  0  0  0  0  0  0  0
  186.6650  178.2730  139.6730 C   0  0  0  0  0  0  0  0  0  0  0  0
  186.2430  178.2870  138.1970 C   0  0  2  0  0  3  0  0  0  0  0  0
  185.1340  176.9770  136.5740 C   0  0  0  0  0  2  0  0  0  0  0  0
  185.7170  178.4540  140.7210 C   0  0  0  0  0  0  0  0  0  0  0  0
  183.8630  178.7740  142.8230 C   0  0  0  0  0  3  0  0  0  0  0  0
  184.9520  177.5520  137.9470 C   0  0  0  0  0  2  0  0  0  0  0  0
  188.3940  177.9090  141.3770 C   0  0  0  0  0  0  0  0  0  0  0  0
  182.1780  179.3000  141.2260 F   0  0  0  0  0  0  0  0  0  0  0  0
  189.0430  179.1260  138.0010 C   0  0  0  0  0  2  0  0  0  0  0  0
  186.5410  177.1120  136.2210 N   0  0  0  0  0  0  0  0  0  0  0  0
  187.4350  177.9950  142.3810 C   0  0  0  0  0  3  0  0  0  0  0  0
  188.0390  178.1240  140.0340 C   0  0  0  0  0  0  0  0  0  0  0  0
  184.3800  178.8090  140.4610 C   0  0  0  0  0  3  0  0  0  0  0  0
  187.0410  175.7690  135.9800 C   0  0  0  0  0  1  0  0  0  0  0  0
  186.1140  178.2890  142.0700 C   0  0  0  0  0  0  0  0  0  0  0  0
  185.1880  178.4380  143.1070 C   0  0  0  0  0  3  0  0  0  0  0  0
  189.0760  178.2130  139.0940 O   0  0  0  0  0  0  0  0  0  0  0  0
  188.1770  178.6010  136.8650 C   0  0  0  0  0  2  0  0  0  0  0  0
  187.2230  177.6110  137.3490 N   0  0  1  0  0  0  0  0  0  0  0  0
  189.8190  177.6760  141.7730 C   0  0  0  0  0  2  0  0  0  0  0  0
  190.7410  179.0790  144.1890 C   0  0  0  0  0  1  0  0  0  0  0  0
  189.5170  175.7820  143.1840 O   0  0  0  0  0  0  0  0  0  0  0  0
  189.9070  176.9780  143.0970 C   0  0  0  0  0  0  0  0  0  0  0  0
  190.4260  177.6570  144.2560 N   0  0  0  0  0  0  0  0  0  0  0  0
  191.7780  176.4980  145.8570 C   0  0  0  0  0  2  0  0  0  0  0  0
  190.5880  176.9710  145.5080 C   0  0  0  0  0  0  0  0  0  0  0  0
  189.5110  176.7810  146.3820 O   0  0  0  0  0  0  0  0  0  0  0  0
  188.6370  177.8320  146.7760 C   0  0  0  0  0  3  0  0  0  0  0  0
  188.4910  177.8270  148.2820 C   0  0  0  0  0  1  0  0  0  0  0  0
  187.2730  177.6410  146.1420 C   0  0  0  0  0  1  0  0  0  0  0  0
  1  6  1  0  0  0  0
  2 13  2  0  0  0  0
  2  5  1  0  0  0  0
  3  7  1  1  0  0  0
  3  2  1  0  0  0  0
  4  7  1  0  0  0  0
  5 16  2  0  0  0  0
  6 17  2  0  0  0  0
  8 21  1  0  0  0  0
  8 12  2  0  0  0  0
  9  1  1  0  0  0  0
 10 18  1  0  0  0  0
 11  4  1  0  0  0  0
 11 20  1  0  0  0  0
 13  8  1  0  0  0  0
 14  5  1  0  0  0  0
 14  1  2  0  0  0  0
 15 11  1  0  0  0  0
 16 12  1  0  0  0  0
 16 17  1  0  0  0  0
 18 13  1  0  0  0  0
 19 10  1  0  0  0  0
 20 19  1  6  0  0  0
 20  3  1  0  0  0  0
 21 24  1  0  0  0  0
 22 25  1  0  0  0  0
 24 23  2  0  0  0  0
 24 25  1  0  0  0  0
 25 27  1  0  0  0  0
 27 26  2  0  0  0  0
 27 28  1  0  0  0  0
 28 29  1  0  0  0  0
 29 30  1  0  0  0  0
 31 29  1  0  0  0  0
M  END
>  <MODEL>
1

>  <REMARK>
 VINA RESULT:      -8.5      0.000      0.000
  Name = 
  5 active torsions:
  status: ('A' for Active; 'I' for Inactive)
    1  A    between atoms: C_1  and  O_24
    2  A    between atoms: C_9  and  C_23
    3  A    between atoms: C_15  and  C_23
    4  A    between atoms: C_19  and  N_22
    5  A    between atoms: C_19  and  O_24
                            x       y       z     vdW  Elec       q    Type
                         _______ _______ _______ _____ _____    ______ ____

>  <TORSDO>
F 5

$$$$
=
 OpenBabel11052413143D

 31 34  0  0  1  0  0  0  0  0999 V2000
  184.8820  178.8870  139.3060 C   0  0  0  0  0  0  0  0  0  0  0  0
  188.1640  177.1710  138.6950 C   0  0  0  0  0  0  0  0  0  0  0  0
  187.9880  176.5530  137.3000 C   0  0  2  0  0  3  0  0  0  0  0  0
  186.9380  174.7510  136.1900 C   0  0  0  0  0  2  0  0  0  0  0  0
  187.1080  177.8860  139.3310 C   0  0  0  0  0  0  0  0  0  0  0  0
  185.0310  179.2790  140.6360 C   0  0  0  0  0  3  0  0  0  0  0  0
  186.6440  175.8980  137.1110 C   0  0  0  0  0  2  0  0  0  0  0  0
  189.5120  177.4680  140.7240 C   0  0  0  0  0  0  0  0  0  0  0  0
  183.7360  179.1700  138.6400 F   0  0  0  0  0  0  0  0  0  0  0  0
  190.8870  176.9690  137.3830 C   0  0  0  0  0  2  0  0  0  0  0  0
  188.3840  174.5910  136.1300 N   0  0  0  0  0  0  0  0  0  0  0  0
  188.4370  178.0800  141.3600 C   0  0  0  0  0  3  0  0  0  0  0  0
  189.4160  177.0830  139.3750 C   0  0  0  0  0  0  0  0  0  0  0  0
  185.9120  178.1990  138.6590 C   0  0  0  0  0  3  0  0  0  0  0  0
  188.6740  173.2470  136.5990 C   0  0  0  0  0  1  0  0  0  0  0  0
  187.2530  178.3150  140.6730 C   0  0  0  0  0  0  0  0  0  0  0  0
  186.2150  178.9950  141.3170 C   0  0  0  0  0  3  0  0  0  0  0  0
  190.5880  176.6490  138.7380 O   0  0  0  0  0  0  0  0  0  0  0  0
  190.1330  176.0640  136.4200 C   0  0  0  0  0  2  0  0  0  0  0  0
  188.9570  175.4850  137.0570 N   0  0  1  0  0  0  0  0  0  0  0  0
  190.7940  177.3180  141.4820 C   0  0  0  0  0  2  0  0  0  0  0  0
  191.0750  178.9600  143.9070 C   0  0  0  0  0  1  0  0  0  0  0  0
  190.1630  175.5500  142.9470 O   0  0  0  0  0  0  0  0  0  0  0  0
  190.5530  176.7450  142.8470 C   0  0  0  0  0  0  0  0  0  0  0  0
  190.7630  177.5410  144.0280 N   0  0  0  0  0  0  0  0  0  0  0  0
  191.6810  176.5840  146.0230 C   0  0  0  0  0  2  0  0  0  0  0  0
  190.6120  176.9760  145.3410 C   0  0  0  0  0  0  0  0  0  0  0  0
  189.3510  176.8200  145.9280 O   0  0  0  0  0  0  0  0  0  0  0  0
  188.2950  177.7570  145.7590 C   0  0  0  0  0  3  0  0  0  0  0  0
  187.5740  177.9460  147.0770 C   0  0  0  0  0  1  0  0  0  0  0  0
  187.3110  177.2530  144.7200 C   0  0  0  0  0  1  0  0  0  0  0  0
  1  6  1  0  0  0  0
  2  5  2  0  0  0  0
  2 13  1  0  0  0  0
  3  7  1  1  0  0  0
  3  2  1  0  0  0  0
  4  7  1  0  0  0  0
  5 16  1  0  0  0  0
  6 17  2  0  0  0  0
  8 12  1  0  0  0  0
  8 21  1  0  0  0  0
  9  1  1  0  0  0  0
 10 18  1  0  0  0  0
 11  4  1  0  0  0  0
 11 15  1  0  0  0  0
 11 20  1  0  0  0  0
 13  8  2  0  0  0  0
 14  1  2  0  0  0  0
 14  5  1  0  0  0  0
 16 17  1  0  0  0  0
 16 12  2  0  0  0  0
 18 13  1  0  0  0  0
 19 10  1  0  0  0  0
 20 19  1  6  0  0  0
 20  3  1  0  0  0  0
 21 24  1  0  0  0  0
 22 25  1  0  0  0  0
 24 23  2  0  0  0  0
 24 25  1  0  0  0  0
 25 27  1  0  0  0  0
 27 28  1  0  0  0  0
 27 26  2  0  0  0  0
 29 28  1  0  0  0  0
 29 30  1  0  0  0  0
 31 29  1  0  0  0  0
M  END
>  <MODEL>
2

>  <REMARK>
 VINA RESULT:      -8.2      1.652      2.069
  Name = 
  5 active torsions:
  status: ('A' for Active; 'I' for Inactive)
    1  A    between atoms: C_1  and  O_24
    2  A    between atoms: C_9  and  C_23
    3  A    between atoms: C_15  and  C_23
    4  A    between atoms: C_19  and  N_22
    5  A    between atoms: C_19  and  O_24
                            x       y       z     vdW  Elec       q    Type
                         _______ _______ _______ _____ _____    ______ ____

>  <TORSDO>
F 5

$$$$
=
 OpenBabel11052413143D

 31 34  0  0  1  0  0  0  0  0999 V2000
  181.8200  179.0760  143.5080 C   0  0  0  0  0  0  0  0  0  0  0  0
  184.3350  178.2450  140.8500 C   0  0  0  0  0  0  0  0  0  0  0  0
  183.4680  177.9560  139.6170 C   0  0  2  0  0  3  0  0  0  0  0  0
  182.0640  176.3000  138.6840 C   0  0  0  0  0  2  0  0  0  0  0  0
  183.7540  178.5620  142.1120 C   0  0  0  0  0  0  0  0  0  0  0  0
  182.6390  179.1600  144.6330 C   0  0  0  0  0  3  0  0  0  0  0  0
  182.2600  177.1110  139.9300 C   0  0  0  0  0  2  0  0  0  0  0  0
  186.5460  178.3100  141.9150 C   0  0  0  0  0  0  0  0  0  0  0  0
  180.4850  179.2760  143.6270 F   0  0  0  0  0  0  0  0  0  0  0  0
  185.9410  178.9090  138.3690 C   0  0  0  0  0  2  0  0  0  0  0  0
  183.2600  176.4500  137.8660 N   0  0  0  0  0  0  0  0  0  0  0  0
  185.9520  178.5260  143.1550 C   0  0  0  0  0  3  0  0  0  0  0  0
  185.7600  178.2480  140.7510 C   0  0  0  0  0  0  0  0  0  0  0  0
  182.3720  178.7810  142.2590 C   0  0  0  0  0  3  0  0  0  0  0  0
  183.8130  175.1180  137.6870 C   0  0  0  0  0  1  0  0  0  0  0  0
  184.5750  178.6770  143.2590 C   0  0  0  0  0  0  0  0  0  0  0  0
  184.0150  178.9630  144.5080 C   0  0  0  0  0  3  0  0  0  0  0  0
  186.4270  178.2210  139.5180 O   0  0  0  0  0  0  0  0  0  0  0  0
  184.8280  178.1290  137.6840 C   0  0  0  0  0  2  0  0  0  0  0  0
  184.2010  177.1920  138.6080 N   0  0  1  0  0  0  0  0  0  0  0  0
  188.0400  178.2420  141.8450 C   0  0  0  0  0  2  0  0  0  0  0  0
  190.2520  179.1770  143.5430 C   0  0  0  0  0  1  0  0  0  0  0  0
  188.0590  176.2720  143.1830 O   0  0  0  0  0  0  0  0  0  0  0  0
  188.5950  177.3880  142.9450 C   0  0  0  0  0  0  0  0  0  0  0  0
  189.7240  177.8300  143.7220 N   0  0  0  0  0  0  0  0  0  0  0  0
  191.4690  176.3780  144.4860 C   0  0  0  0  0  2  0  0  0  0  0  0
  190.3130  176.9850  144.7250 C   0  0  0  0  0  0  0  0  0  0  0  0
  189.6910  176.7760  145.9610 O   0  0  0  0  0  0  0  0  0  0  0  0
  188.9500  177.7850  146.6370 C   0  0  0  0  0  3  0  0  0  0  0  0
  189.2940  177.7580  148.1110 C   0  0  0  0  0  1  0  0  0  0  0  0
  187.4630  177.5410  146.4670 C   0  0  0  0  0  1  0  0  0  0  0  0
  1  9  1  0  0  0  0
  1  6  1  0  0  0  0
  2  5  1  0  0  0  0
  3  7  1  1  0  0  0
  3  2  1  0  0  0  0
  4  7  1  0  0  0  0
  5 14  1  0  0  0  0
  5 16  2  0  0  0  0
  8 12  2  0  0  0  0
 10 18  1  0  0  0  0
 11 20  1  0  0  0  0
 11  4  1  0  0  0  0
 12 16  1  0  0  0  0
 13  2  2  0  0  0  0
 13  8  1  0  0  0  0
 14  1  2  0  0  0  0
 15 11  1  0  0  0  0
 16 17  1  0  0  0  0
 17  6  2  0  0  0  0
 18 13  1  0  0  0  0
 19 10  1  0  0  0  0
 20 19  1  6  0  0  0
 20  3  1  0  0  0  0
 21  8  1  0  0  0  0
 21 24  1  0  0  0  0
 22 25  1  0  0  0  0
 24 23  2  0  0  0  0
 24 25  1  0  0  0  0
 25 27  1  0  0  0  0
 26 27  2  0  0  0  0
 27 28  1  0  0  0  0
 28 29  1  0  0  0  0
 29 30  1  0  0  0  0
 31 29  1  0  0  0  0
M  END
>  <MODEL>
3

>  <REMARK>
 VINA RESULT:      -7.5      1.749      2.387
  Name = 
  5 active torsions:
  status: ('A' for Active; 'I' for Inactive)
    1  A    between atoms: C_1  and  O_24
    2  A    between atoms: C_9  and  C_23
    3  A    between atoms: C_15  and  C_23
    4  A    between atoms: C_19  and  N_22
    5  A    between atoms: C_19  and  O_24
                            x       y       z     vdW  Elec       q    Type
                         _______ _______ _______ _____ _____    ______ ____

>  <TORSDO>
F 5

$$$$
=
 OpenBabel11052413143D

 31 34  0  0  1  0  0  0  0  0999 V2000
  184.4650  178.4320  144.9450 C   0  0  0  0  0  0  0  0  0  0  0  0
  187.7860  177.6180  143.3980 C   0  0  0  0  0  0  0  0  0  0  0  0
  188.5640  176.9630  144.5490 C   0  0  2  0  0  3  0  0  0  0  0  0
  189.7180  177.4880  146.5430 C   0  0  0  0  0  2  0  0  0  0  0  0
  186.4670  178.1240  143.5840 C   0  0  0  0  0  0  0  0  0  0  0  0
  183.8690  179.1690  143.9220 C   0  0  0  0  0  3  0  0  0  0  0  0
  188.3970  177.6860  145.8600 C   0  0  0  0  0  2  0  0  0  0  0  0
  187.7290  178.4710  141.0970 C   0  0  0  0  0  0  0  0  0  0  0  0
  183.7980  178.2210  146.1050 F   0  0  0  0  0  0  0  0  0  0  0  0
  189.8000  175.6860  142.2200 C   0  0  0  0  0  2  0  0  0  0  0  0
  190.6540  176.9700  145.5530 N   0  0  0  0  0  0  0  0  0  0  0  0
  186.4810  179.0390  141.3300 C   0  0  0  0  0  3  0  0  0  0  0  0
  188.3530  177.6950  142.0900 C   0  0  0  0  0  0  0  0  0  0  0  0
  185.7510  177.9130  144.7770 C   0  0  0  0  0  3  0  0  0  0  0  0
  191.7440  177.9270  145.4700 C   0  0  0  0  0  1  0  0  0  0  0  0
  185.8370  178.8530  142.5460 C   0  0  0  0  0  0  0  0  0  0  0  0
  184.5530  179.3770  142.7240 C   0  0  0  0  0  3  0  0  0  0  0  0
  189.5140  176.9940  141.7330 O   0  0  0  0  0  0  0  0  0  0  0  0
  190.3680  175.7320  143.6310 C   0  0  0  0  0  2  0  0  0  0  0  0
  190.0050  176.9740  144.3020 N   0  0  1  0  0  0  0  0  0  0  0  0
  188.3400  178.6280  139.7400 C   0  0  0  0  0  2  0  0  0  0  0  0
  189.5910  176.3630  138.3390 C   0  0  0  0  0  1  0  0  0  0  0  0
  186.3790  178.1070  138.4940 O   0  0  0  0  0  0  0  0  0  0  0  0
  187.5900  177.8330  138.7130 C   0  0  0  0  0  0  0  0  0  0  0  0
  188.2380  176.7730  137.9850 N   0  0  0  0  0  0  0  0  0  0  0  0
  187.6220  176.4860  135.6880 C   0  0  0  0  0  2  0  0  0  0  0  0
  187.5500  176.0590  136.9430 C   0  0  0  0  0  0  0  0  0  0  0  0
  186.7930  174.9150  137.2190 O   0  0  0  0  0  0  0  0  0  0  0  0
  186.9770  173.6810  136.5360 C   0  0  0  0  0  3  0  0  0  0  0  0
  185.9200  172.6950  136.9870 C   0  0  0  0  0  1  0  0  0  0  0  0
  188.3490  173.1140  136.8430 C   0  0  0  0  0  1  0  0  0  0  0  0
  1  9  1  0  0  0  0
  2  5  1  0  0  0  0
  2  3  1  0  0  0  0
  3  7  1  1  0  0  0
  5 14  2  0  0  0  0
  6  1  2  0  0  0  0
  7  4  1  0  0  0  0
  8 12  2  0  0  0  0
  8 13  1  0  0  0  0
 10 19  1  0  0  0  0
 11  4  1  0  0  0  0
 12 16  1  0  0  0  0
 13  2  2  0  0  0  0
 14  1  1  0  0  0  0
 15 11  1  0  0  0  0
 16 17  2  0  0  0  0
 16  5  1  0  0  0  0
 17  6  1  0  0  0  0
 18 13  1  0  0  0  0
 18 10  1  0  0  0  0
 20 19  1  6  0  0  0
 20  3  1  0  0  0  0
 20 11  1  0  0  0  0
 21  8  1  0  0  0  0
 23 24  2  0  0  0  0
 24 21  1  0  0  0  0
 25 22  1  0  0  0  0
 25 24  1  0  0  0  0
 26 27  2  0  0  0  0
 27 28  1  0  0  0  0
 27 25  1  0  0  0  0
 29 31  1  0  0  0  0
 29 30  1  0  0  0  0
 29 28  1  0  0  0  0
M  END
>  <MODEL>
4

>  <REMARK>
 VINA RESULT:      -7.3      2.055      7.108
  Name = 
  5 active torsions:
  status: ('A' for Active; 'I' for Inactive)
    1  A    between atoms: C_1  and  O_24
    2  A    between atoms: C_9  and  C_23
    3  A    between atoms: C_15  and  C_23
    4  A    between atoms: C_19  and  N_22
    5  A    between atoms: C_19  and  O_24
                            x       y       z     vdW  Elec       q    Type
                         _______ _______ _______ _____ _____    ______ ____

>  <TORSDO>
F 5

$$$$
=
 OpenBabel11052413143D

 31 34  0  0  1  0  0  0  0  0999 V2000
  184.4600  178.3480  144.0090 C   0  0  0  0  0  0  0  0  0  0  0  0
  187.9710  177.5650  142.9390 C   0  0  0  0  0  0  0  0  0  0  0  0
  188.6300  177.0520  144.2270 C   0  0  2  0  0  3  0  0  0  0  0  0
  189.5160  177.8040  146.2840 C   0  0  0  0  0  2  0  0  0  0  0  0
  186.6210  178.0210  142.9230 C   0  0  0  0  0  0  0  0  0  0  0  0
  183.9630  178.9630  142.8610 C   0  0  0  0  0  3  0  0  0  0  0  0
  188.2800  177.8780  145.4380 C   0  0  0  0  0  2  0  0  0  0  0  0
  188.1570  178.2100  140.5780 C   0  0  0  0  0  0  0  0  0  0  0  0
  183.6670  178.2070  145.0990 F   0  0  0  0  0  0  0  0  0  0  0  0
  190.1840  175.6390  142.1850 C   0  0  0  0  0  2  0  0  0  0  0  0
  190.5830  177.2490  145.4620 N   0  0  0  0  0  0  0  0  0  0  0  0
  186.8690  178.7350  140.6110 C   0  0  0  0  0  3  0  0  0  0  0  0
  188.6870  177.5550  141.7030 C   0  0  0  0  0  0  0  0  0  0  0  0
  185.7760  177.8800  144.0390 C   0  0  0  0  0  3  0  0  0  0  0  0
  191.6380  178.2470  145.4170 C   0  0  0  0  0  1  0  0  0  0  0  0
  186.0920  178.6240  141.7570 C   0  0  0  0  0  0  0  0  0  0  0  0
  184.7770  179.0990  141.7360 C   0  0  0  0  0  3  0  0  0  0  0  0
  189.9080  176.8830  141.5490 O   0  0  0  0  0  0  0  0  0  0  0  0
  190.5770  175.8350  143.6420 C   0  0  0  0  0  2  0  0  0  0  0  0
  190.0880  177.1110  144.1480 N   0  0  1  0  0  0  0  0  0  0  0  0
  188.9200  178.2780  139.2920 C   0  0  0  0  0  2  0  0  0  0  0  0
  186.9120  178.2530  137.1410 C   0  0  0  0  0  1  0  0  0  0  0  0
  189.4060  176.0380  138.6440 O   0  0  0  0  0  0  0  0  0  0  0  0
  188.6840  177.0550  138.4570 C   0  0  0  0  0  0  0  0  0  0  0  0
  187.6490  177.0350  137.4550 N   0  0  0  0  0  0  0  0  0  0  0  0
  187.7150  175.7600  135.4290 C   0  0  0  0  0  2  0  0  0  0  0  0
  187.3640  175.8420  136.7060 C   0  0  0  0  0  0  0  0  0  0  0  0
  186.7120  174.7500  137.2910 O   0  0  0  0  0  0  0  0  0  0  0  0
  185.4250  174.3030  136.8810 C   0  0  0  0  0  3  0  0  0  0  0  0
  184.3960  175.3600  137.2180 C   0  0  0  0  0  1  0  0  0  0  0  0
  185.0680  173.0140  137.5950 C   0  0  0  0  0  1  0  0  0  0  0  0
  1 14  1  0  0  0  0
  1  9  1  0  0  0  0
  2  3  1  0  0  0  0
  3  7  1  1  0  0  0
  5  2  1  0  0  0  0
  5 14  2  0  0  0  0
  6  1  2  0  0  0  0
  7  4  1  0  0  0  0
  8 12  2  0  0  0  0
  8 13  1  0  0  0  0
 10 19  1  0  0  0  0
 11  4  1  0  0  0  0
 12 16  1  0  0  0  0
 13  2  2  0  0  0  0
 15 11  1  0  0  0  0
 16  5  1  0  0  0  0
 17 16  2  0  0  0  0
 17  6  1  0  0  0  0
 18 13  1  0  0  0  0
 18 10  1  0  0  0  0
 20 19  1  1  0  0  0
 20  3  1  0  0  0  0
 20 11  1  0  0  0  0
 21  8  1  0  0  0  0
 22 25  1  0  0  0  0
 24 23  2  0  0  0  0
 24 21  1  0  0  0  0
 25 24  1  0  0  0  0
 26 27  2  0  0  0  0
 27 28  1  0  0  0  0
 27 25  1  0  0  0  0
 29 30  1  0  0  0  0
 29 28  1  0  0  0  0
 29 31  1  0  0  0  0
M  END
>  <MODEL>
5

>  <REMARK>
 VINA RESULT:      -7.3      1.831      6.987
  Name = 
  5 active torsions:
  status: ('A' for Active; 'I' for Inactive)
    1  A    between atoms: C_1  and  O_24
    2  A    between atoms: C_9  and  C_23
    3  A    between atoms: C_15  and  C_23
    4  A    between atoms: C_19  and  N_22
    5  A    between atoms: C_19  and  O_24
                            x       y       z     vdW  Elec       q    Type
                         _______ _______ _______ _____ _____    ______ ____

>  <TORSDO>
F 5

$$$$
=
 OpenBabel11052413143D

 31 34  0  0  1  0  0  0  0  0999 V2000
  187.0940  177.9790  136.3520 C   0  0  0  0  0  0  0  0  0  0  0  0
  190.3690  176.6340  137.5980 C   0  0  0  0  0  0  0  0  0  0  0  0
  191.0260  176.0660  136.3320 C   0  0  2  0  0  3  0  0  0  0  0  0
  190.9270  174.2210  134.8600 C   0  0  0  0  0  2  0  0  0  0  0  0
  189.0650  177.2080  137.5680 C   0  0  0  0  0  0  0  0  0  0  0  0
  186.4730  178.3220  137.5520 C   0  0  0  0  0  3  0  0  0  0  0  0
  190.0670  175.2880  135.4690 C   0  0  0  0  0  2  0  0  0  0  0  0
  190.3990  176.9720  140.0300 C   0  0  0  0  0  0  0  0  0  0  0  0
  186.4500  178.1740  135.1760 F   0  0  0  0  0  0  0  0  0  0  0  0
  193.3770  176.7690  137.9330 C   0  0  0  0  0  2  0  0  0  0  0  0
  192.1950  174.2110  135.5780 N   0  0  0  0  0  0  0  0  0  0  0  0
  189.0900  177.4420  139.9890 C   0  0  0  0  0  3  0  0  0  0  0  0
  191.0730  176.6420  138.8410 C   0  0  0  0  0  0  0  0  0  0  0  0
  188.3780  177.4290  136.3600 C   0  0  0  0  0  3  0  0  0  0  0  0
  192.3390  172.8820  136.1500 C   0  0  0  0  0  1  0  0  0  0  0  0
  188.4310  177.5870  138.7760 C   0  0  0  0  0  0  0  0  0  0  0  0
  187.1420  178.1280  138.7620 C   0  0  0  0  0  3  0  0  0  0  0  0
  192.4440  176.3590  138.9280 O   0  0  0  0  0  0  0  0  0  0  0  0
  193.3510  175.8390  136.7300 C   0  0  0  0  0  2  0  0  0  0  0  0
  192.0880  175.1140  136.6550 N   0  0  1  0  0  0  0  0  0  0  0  0
  191.0950  176.9180  141.3540 C   0  0  0  0  0  2  0  0  0  0  0  0
  190.3140  178.9120  143.3710 C   0  0  0  0  0  1  0  0  0  0  0  0
  189.6090  175.4350  142.4780 O   0  0  0  0  0  0  0  0  0  0  0  0
  190.1360  176.5800  142.4560 C   0  0  0  0  0  0  0  0  0  0  0  0
  189.8170  177.5450  143.4770 N   0  0  0  0  0  0  0  0  0  0  0  0
  187.6570  177.4390  144.5070 C   0  0  0  0  0  2  0  0  0  0  0  0
  188.9620  177.2040  144.5800 C   0  0  0  0  0  0  0  0  0  0  0  0
  189.4720  176.6260  145.7490 O   0  0  0  0  0  0  0  0  0  0  0  0
  189.9170  177.3910  146.8620 C   0  0  0  0  0  3  0  0  0  0  0  0
  191.1940  176.7880  147.4080 C   0  0  0  0  0  1  0  0  0  0  0  0
  188.8620  177.3930  147.9510 C   0  0  0  0  0  1  0  0  0  0  0  0
  1 14  2  0  0  0  0
  1  6  1  0  0  0  0
  2 13  1  0  0  0  0
  3  7  1  6  0  0  0
  3 20  1  0  0  0  0
  3  2  1  0  0  0  0
  4  7  1  0  0  0  0
  4 11  1  0  0  0  0
  5  2  2  0  0  0  0
  5 16  1  0  0  0  0
  6 17  2  0  0  0  0
  8 21  1  0  0  0  0
  9  1  1  0  0  0  0
 10 18  1  0  0  0  0
 11 15  1  0  0  0  0
 11 20  1  0  0  0  0
 12  8  1  0  0  0  0
 13 18  1  0  0  0  0
 13  8  2  0  0  0  0
 14  5  1  0  0  0  0
 16 12  2  0  0  0  0
 17 16  1  0  0  0  0
 19 10  1  0  0  0  0
 20 19  1  6  0  0  0
 21 24  1  0  0  0  0
 22 25  1  0  0  0  0
 24 23  2  0  0  0  0
 24 25  1  0  0  0  0
 25 27  1  0  0  0  0
 26 27  2  0  0  0  0
 27 28  1  0  0  0  0
 28 29  1  0  0  0  0
 29 30  1  0  0  0  0
 29 31  1  0  0  0  0
M  END
>  <MODEL>
6

>  <REMARK>
 VINA RESULT:      -6.9      3.251      4.463
  Name = 
  5 active torsions:
  status: ('A' for Active; 'I' for Inactive)
    1  A    between atoms: C_1  and  O_24
    2  A    between atoms: C_9  and  C_23
    3  A    between atoms: C_15  and  C_23
    4  A    between atoms: C_19  and  N_22
    5  A    between atoms: C_19  and  O_24
                            x       y       z     vdW  Elec       q    Type
                         _______ _______ _______ _____ _____    ______ ____

>  <TORSDO>
F 5

$$$$
=
 OpenBabel11052413143D

 31 34  0  0  1  0  0  0  0  0999 V2000
  184.6920  178.2480  146.0660 C   0  0  0  0  0  0  0  0  0  0  0  0
  187.3000  177.8850  143.3920 C   0  0  0  0  0  0  0  0  0  0  0  0
  188.5520  177.4580  144.1710 C   0  0  2  0  0  3  0  0  0  0  0  0
  190.2410  178.3170  145.5820 C   0  0  0  0  0  2  0  0  0  0  0  0
  186.0730  178.1770  144.0550 C   0  0  0  0  0  0  0  0  0  0  0  0
  183.6370  178.7960  145.3360 C   0  0  0  0  0  3  0  0  0  0  0  0
  188.7490  178.2400  145.4430 C   0  0  0  0  0  2  0  0  0  0  0  0
  186.2460  178.5390  141.2740 C   0  0  0  0  0  0  0  0  0  0  0  0
  184.5490  178.0180  147.3930 F   0  0  0  0  0  0  0  0  0  0  0  0
  189.0560  176.2320  141.5580 C   0  0  0  0  0  2  0  0  0  0  0  0
  190.8250  177.8890  144.3180 N   0  0  0  0  0  0  0  0  0  0  0  0
  185.0890  178.9080  141.9540 C   0  0  0  0  0  3  0  0  0  0  0  0
  187.3220  177.9560  141.9660 C   0  0  0  0  0  0  0  0  0  0  0  0
  185.8970  177.9400  145.4310 C   0  0  0  0  0  3  0  0  0  0  0  0
  191.6140  179.0050  143.8240 C   0  0  0  0  0  1  0  0  0  0  0  0
  184.9840  178.7090  143.3240 C   0  0  0  0  0  0  0  0  0  0  0  0
  183.7830  179.0250  143.9670 C   0  0  0  0  0  3  0  0  0  0  0  0
  188.3770  177.4330  141.2040 O   0  0  0  0  0  0  0  0  0  0  0  0
  190.0840  176.4780  142.6530 C   0  0  0  0  0  2  0  0  0  0  0  0
  189.7720  177.6900  143.4010 N   0  0  1  0  0  0  0  0  0  0  0  0
  186.2750  178.6930  139.7850 C   0  0  0  0  0  2  0  0  0  0  0  0
  184.6880  176.6240  138.4220 C   0  0  0  0  0  1  0  0  0  0  0  0
  184.4070  180.1280  139.4340 O   0  0  0  0  0  0  0  0  0  0  0  0
  184.9080  178.9860  139.2440 C   0  0  0  0  0  0  0  0  0  0  0  0
  184.1720  177.9840  138.5170 N   0  0  0  0  0  0  0  0  0  0  0  0
  182.7070  178.0970  136.6250 C   0  0  0  0  0  2  0  0  0  0  0  0
  182.8960  178.2820  137.9260 C   0  0  0  0  0  0  0  0  0  0  0  0
  181.8320  178.7720  138.6930 O   0  0  0  0  0  0  0  0  0  0  0  0
  181.1940  178.0090  139.7100 C   0  0  0  0  0  3  0  0  0  0  0  0
  179.7000  177.9910  139.4610 C   0  0  0  0  0  1  0  0  0  0  0  0
  181.4640  178.6240  141.0700 C   0  0  0  0  0  1  0  0  0  0  0  0
  1  9  1  0  0  0  0
  2  5  1  0  0  0  0
  2  3  1  0  0  0  0
  3  7  1  1  0  0  0
  5 14  2  0  0  0  0
  6  1  2  0  0  0  0
  7  4  1  0  0  0  0
  8 12  2  0  0  0  0
  8 13  1  0  0  0  0
 10 19  1  0  0  0  0
 11  4  1  0  0  0  0
 12 16  1  0  0  0  0
 13  2  2  0  0  0  0
 14  1  1  0  0  0  0
 15 11  1  0  0  0  0
 16 17  2  0  0  0  0
 16  5  1  0  0  0  0
 17  6  1  0  0  0  0
 18 10  1  0  0  0  0
 18 13  1  0  0  0  0
 20 19  1  6  0  0  0
 20  3  1  0  0  0  0
 20 11  1  0  0  0  0
 21  8  1  0  0  0  0
 22 25  1  0  0  0  0
 24 23  2  0  0  0  0
 24 21  1  0  0  0  0
 25 24  1  0  0  0  0
 26 27  2  0  0  0  0
 27 25  1  0  0  0  0
 27 28  1  0  0  0  0
 28 29  1  0  0  0  0
 29 31  1  0  0  0  0
 30 29  1  0  0  0  0
M  END
>  <MODEL>
7

>  <REMARK>
 VINA RESULT:      -6.9      2.683      7.319
  Name = 
  5 active torsions:
  status: ('A' for Active; 'I' for Inactive)
    1  A    between atoms: C_1  and  O_24
    2  A    between atoms: C_9  and  C_23
    3  A    between atoms: C_15  and  C_23
    4  A    between atoms: C_19  and  N_22
    5  A    between atoms: C_19  and  O_24
                            x       y       z     vdW  Elec       q    Type
                         _______ _______ _______ _____ _____    ______ ____

>  <TORSDO>
F 5

$$$$
=
 OpenBabel11052413143D

 31 34  0  0  1  0  0  0  0  0999 V2000
  184.6300  178.5890  144.7690 C   0  0  0  0  0  0  0  0  0  0  0  0
  183.6730  178.8940  141.1530 C   0  0  0  0  0  0  0  0  0  0  0  0
  182.1540  179.1120  141.2040 C   0  0  2  0  0  3  0  0  0  0  0  0
  180.1250  177.9520  141.5540 C   0  0  0  0  0  2  0  0  0  0  0  0
  184.4350  178.6820  142.3380 C   0  0  0  0  0  0  0  0  0  0  0  0
  185.9720  178.2260  144.6600 C   0  0  0  0  0  3  0  0  0  0  0  0
  181.4610  178.2050  142.1870 C   0  0  0  0  0  2  0  0  0  0  0  0
  185.7190  178.5460  139.8420 C   0  0  0  0  0  0  0  0  0  0  0  0
  184.0610  178.7170  145.9920 F   0  0  0  0  0  0  0  0  0  0  0  0
  182.8490  180.4960  138.7170 C   0  0  0  0  0  2  0  0  0  0  0  0
  180.1930  178.4210  140.1760 N   0  0  0  0  0  0  0  0  0  0  0  0
  186.4240  178.2490  141.0050 C   0  0  0  0  0  3  0  0  0  0  0  0
  184.3720  178.9450  139.9090 C   0  0  0  0  0  0  0  0  0  0  0  0
  183.8700  178.8170  143.6200 C   0  0  0  0  0  3  0  0  0  0  0  0
  179.9170  177.2720  139.3300 C   0  0  0  0  0  1  0  0  0  0  0  0
  185.8050  178.3390  142.2450 C   0  0  0  0  0  0  0  0  0  0  0  0
  186.5590  178.1030  143.3990 C   0  0  0  0  0  3  0  0  0  0  0  0
  183.7740  179.4130  138.7300 O   0  0  0  0  0  0  0  0  0  0  0  0
  181.4590  180.0440  139.1400 C   0  0  0  0  0  2  0  0  0  0  0  0
  181.5230  178.8140  139.9190 N   0  0  1  0  0  0  0  0  0  0  0  0
  186.4540  178.5200  138.5390 C   0  0  0  0  0  2  0  0  0  0  0  0
  187.6570  176.0070  137.5930 C   0  0  0  0  0  1  0  0  0  0  0  0
  188.6420  179.1010  139.2780 O   0  0  0  0  0  0  0  0  0  0  0  0
  187.9100  178.2240  138.7440 C   0  0  0  0  0  0  0  0  0  0  0  0
  188.4690  176.9600  138.3390 N   0  0  0  0  0  0  0  0  0  0  0  0
  190.7510  176.7550  137.6410 C   0  0  0  0  0  2  0  0  0  0  0  0
  189.8450  176.6380  138.6040 C   0  0  0  0  0  0  0  0  0  0  0  0
  190.2620  176.1940  139.8650 O   0  0  0  0  0  0  0  0  0  0  0  0
  190.4570  177.0680  140.9700 C   0  0  0  0  0  3  0  0  0  0  0  0
  191.9070  177.5000  141.0180 C   0  0  0  0  0  1  0  0  0  0  0  0
  190.1040  176.3600  142.2630 C   0  0  0  0  0  1  0  0  0  0  0  0
  1  9  1  0  0  0  0
  2  3  1  0  0  0  0
  2  5  1  0  0  0  0
  3  7  1  1  0  0  0
  4  7  1  0  0  0  0
  5 14  1  0  0  0  0
  6  1  1  0  0  0  0
  8 13  1  0  0  0  0
  8 12  2  0  0  0  0
 10 18  1  0  0  0  0
 10 19  1  0  0  0  0
 11  4  1  0  0  0  0
 12 16  1  0  0  0  0
 13  2  2  0  0  0  0
 14  1  2  0  0  0  0
 15 11  1  0  0  0  0
 16  5  2  0  0  0  0
 16 17  1  0  0  0  0
 17  6  2  0  0  0  0
 18 13  1  0  0  0  0
 20 19  1  6  0  0  0
 20 11  1  0  0  0  0
 20  3  1  0  0  0  0
 21 24  1  0  0  0  0
 21  8  1  0  0  0  0
 22 25  1  0  0  0  0
 24 23  2  0  0  0  0
 25 27  1  0  0  0  0
 25 24  1  0  0  0  0
 26 27  2  0  0  0  0
 27 28  1  0  0  0  0
 28 29  1  0  0  0  0
 29 30  1  0  0  0  0
 29 31  1  0  0  0  0
M  END
>  <MODEL>
8

>  <REMARK>
 VINA RESULT:      -6.9      2.908      5.560
  Name = 
  5 active torsions:
  status: ('A' for Active; 'I' for Inactive)
    1  A    between atoms: C_1  and  O_24
    2  A    between atoms: C_9  and  C_23
    3  A    between atoms: C_15  and  C_23
    4  A    between atoms: C_19  and  N_22
    5  A    between atoms: C_19  and  O_24
                            x       y       z     vdW  Elec       q    Type
                         _______ _______ _______ _____ _____    ______ ____

>  <TORSDO>
F 5

$$$$
=
 OpenBabel11052413143D

 31 34  0  0  1  0  0  0  0  0999 V2000
  185.0600  178.1880  138.6620 C   0  0  0  0  0  0  0  0  0  0  0  0
  182.8900  178.7390  141.6740 C   0  0  0  0  0  0  0  0  0  0  0  0
  181.4700  178.7560  141.0910 C   0  0  2  0  0  3  0  0  0  0  0  0
  179.9800  180.1280  139.8750 C   0  0  0  0  0  2  0  0  0  0  0  0
  184.0360  178.5970  140.8390 C   0  0  0  0  0  0  0  0  0  0  0  0
  186.3300  178.3510  139.2150 C   0  0  0  0  0  3  0  0  0  0  0  0
  181.3640  179.5530  139.8170 C   0  0  0  0  0  2  0  0  0  0  0  0
  184.3930  179.0100  143.5960 C   0  0  0  0  0  0  0  0  0  0  0  0
  184.9270  177.9170  137.3410 F   0  0  0  0  0  0  0  0  0  0  0  0
  180.9650  177.7850  143.8090 C   0  0  0  0  0  2  0  0  0  0  0  0
  179.4740  179.9280  141.2260 N   0  0  0  0  0  0  0  0  0  0  0  0
  185.4970  178.9630  142.7500 C   0  0  0  0  0  3  0  0  0  0  0  0
  183.0970  178.8200  143.0850 C   0  0  0  0  0  0  0  0  0  0  0  0
  183.9240  178.3080  139.4670 C   0  0  0  0  0  3  0  0  0  0  0  0
  179.1820  181.2480  141.7610 C   0  0  0  0  0  1  0  0  0  0  0  0
  185.3330  178.7340  141.3900 C   0  0  0  0  0  0  0  0  0  0  0  0
  186.4660  178.6220  140.5770 C   0  0  0  0  0  3  0  0  0  0  0  0
  182.0490  178.6880  144.0060 O   0  0  0  0  0  0  0  0  0  0  0  0
  179.9320  178.3590  142.8500 C   0  0  0  0  0  2  0  0  0  0  0  0
  180.5200  179.3900  142.0040 N   0  0  1  0  0  0  0  0  0  0  0  0
  184.6300  179.1710  145.0650 C   0  0  0  0  0  2  0  0  0  0  0  0
  186.1270  179.7730  147.5250 C   0  0  0  0  0  1  0  0  0  0  0  0
  186.0120  177.2400  144.8890 O   0  0  0  0  0  0  0  0  0  0  0  0
  185.7510  178.2920  145.5330 C   0  0  0  0  0  0  0  0  0  0  0  0
  186.5200  178.6370  146.7000 N   0  0  0  0  0  0  0  0  0  0  0  0
  187.9230  177.7000  148.4000 C   0  0  0  0  0  2  0  0  0  0  0  0
  187.6460  177.8420  147.1090 C   0  0  0  0  0  0  0  0  0  0  0  0
  188.4730  177.2090  146.1740 O   0  0  0  0  0  0  0  0  0  0  0  0
  189.5980  177.8430  145.5790 C   0  0  0  0  0  3  0  0  0  0  0  0
  189.3430  178.0350  144.0990 C   0  0  0  0  0  1  0  0  0  0  0  0
  190.8370  176.9880  145.7640 C   0  0  0  0  0  1  0  0  0  0  0  0
  1  6  2  0  0  0  0
  1 14  1  0  0  0  0
  2 13  2  0  0  0  0
  3  7  1  6  0  0  0
  3  2  1  0  0  0  0
  3 20  1  0  0  0  0
  4 11  1  0  0  0  0
  5 16  1  0  0  0  0
  5  2  1  0  0  0  0
  6 17  1  0  0  0  0
  7  4  1  0  0  0  0
  8 21  1  0  0  0  0
  9  1  1  0  0  0  0
 10 18  1  0  0  0  0
 11 15  1  0  0  0  0
 11 20  1  0  0  0  0
 12  8  2  0  0  0  0
 13  8  1  0  0  0  0
 13 18  1  0  0  0  0
 14  5  2  0  0  0  0
 16 12  1  0  0  0  0
 17 16  2  0  0  0  0
 19 10  1  0  0  0  0
 20 19  1  1  0  0  0
 21 24  1  0  0  0  0
 23 24  2  0  0  0  0
 24 25  1  0  0  0  0
 25 27  1  0  0  0  0
 25 22  1  0  0  0  0
 27 26  2  0  0  0  0
 28 27  1  0  0  0  0
 29 31  1  0  0  0  0
 29 28  1  0  0  0  0
 30 29  1  0  0  0  0
M  END
>  <MODEL>
9

>  <REMARK>
 VINA RESULT:      -6.7      3.512      5.711
  Name = 
  5 active torsions:
  status: ('A' for Active; 'I' for Inactive)
    1  A    between atoms: C_1  and  O_24
    2  A    between atoms: C_9  and  C_23
    3  A    between atoms: C_15  and  C_23
    4  A    between atoms: C_19  and  N_22
    5  A    between atoms: C_19  and  O_24
                            x       y       z     vdW  Elec       q    Type
                         _______ _______ _______ _____ _____    ______ ____

>  <TORSDO>
F 5

$$$$
