=
 OpenBabel11052415053D

 55 60  0  0  1  0  0  0  0  0999 V2000
  185.1610  175.7750  137.3910 C   0  0  0  0  0  3  0  0  0  0  0  0
  187.3170  173.3400  136.4340 S   0  0  0  0  0  0  0  0  0  0  0  0
  184.4440  171.6350  135.6150 C   0  0  0  0  0  1  0  0  0  0  0  0
  181.3830  172.5440  135.1880 C   0  0  0  0  0  2  0  0  0  0  0  0
  179.9360  172.1160  134.9320 C   0  0  0  0  0  2  0  0  0  0  0  0
  180.3940  174.6540  136.0820 C   0  0  2  0  0  3  0  0  0  0  0  0
  179.0430  174.0210  135.7630 C   0  0  0  0  0  2  0  0  0  0  0  0
  183.4690  173.1640  137.1790 O   0  0  0  0  0  0  0  0  0  0  0  0
  179.1530  173.2420  134.5940 O   0  0  0  0  0  0  0  0  0  0  0  0
  186.3150  177.8550  136.6380 C   0  0  0  0  0  3  0  0  0  0  0  0
  181.4090  173.5500  136.3440 C   0  0  2  0  0  3  0  0  0  0  0  0
  188.8250  176.6760  137.1070 C   0  0  0  0  0  0  0  0  0  0  0  0
  183.9370  176.1720  137.0710 C   0  0  0  0  0  3  0  0  0  0  0  0
  187.6400  175.9200  137.2860 C   0  0  0  0  0  0  0  0  0  0  0  0
  181.4800  176.1930  137.2770 C   0  0  2  0  0  3  0  0  0  0  0  0
  187.7040  174.5610  137.6180 O   0  0  0  0  0  0  0  0  0  0  0  0
  180.3060  175.4280  137.2350 O   0  0  0  0  0  0  0  0  0  0  0  0
  185.8230  172.7950  137.3210 C   0  0  0  0  0  2  0  0  0  0  0  0
  184.6110  172.9220  136.4060 C   0  0  1  0  0  3  0  0  0  0  0  0
  187.4840  178.5730  136.3930 C   0  0  0  0  0  3  0  0  0  0  0  0
  186.3840  176.5240  137.0760 C   0  0  0  0  0  0  0  0  0  0  0  0
  182.7570  174.1150  136.5200 N   0  0  1  0  0  0  0  0  0  0  0  0
  182.7540  175.3160  137.4040 C   0  0  1  0  0  3  0  0  0  0  0  0
  188.7290  177.9830  136.6240 C   0  0  0  0  0  3  0  0  0  0  0  0
  180.9430  176.7000  139.6830 C   0  0  0  0  0  3  0  0  0  0  0  0
  181.1940  178.9430  140.5860 C   0  0  0  0  0  0  0  0  0  0  0  0
  181.7350  178.4990  138.2610 C   0  0  0  0  0  3  0  0  0  0  0  0
  181.6390  179.3910  139.3300 C   0  0  0  0  0  3  0  0  0  0  0  0
  180.8410  177.5970  140.7530 C   0  0  0  0  0  3  0  0  0  0  0  0
  181.3960  177.1470  138.4320 C   0  0  0  0  0  0  0  0  0  0  0  0
  181.0860  179.8150  141.6750 O   0  0  0  0  0  0  0  0  0  0  0  0
  181.1450  179.3770  142.9990 C   0  0  0  0  0  3  0  0  0  0  0  0
  182.3010  179.0360  143.5370 C   0  0  0  0  0  2  0  0  0  0  0  0
  190.1080  176.2000  137.4040 O   0  0  0  0  0  0  0  0  0  0  0  0
  190.5900  175.9170  138.7140 C   0  0  0  0  0  2  0  0  0  0  0  0
  191.4810  177.0480  139.2280 C   0  0  2  0  0  3  0  0  0  0  0  0
  193.8340  176.8690  139.4880 O   0  0  0  0  0  0  0  0  0  0  0  0
  192.8890  176.9190  138.7190 C   0  0  0  0  0  3  0  0  0  0  0  0
  191.4130  177.2690  140.7480 C   0  0  0  0  0  2  0  0  0  0  0  0
  190.1390  176.7050  141.3760 C   0  0  1  0  0  3  0  0  0  0  0  0
  190.4290  175.5840  142.1620 O   0  0  0  0  0  1  0  0  0  0  0  0
  185.2800  178.9040  140.8260 C   0  0  0  0  0  2  0  0  0  0  0  0
  188.4590  177.9040  145.5840 O   0  0  0  0  0  1  0  0  0  0  0  0
  189.3300  177.7620  142.1580 C   0  0  1  0  0  0  0  0  0  0  0  0
  188.2920  175.9650  143.3670 O   0  0  0  0  0  0  0  0  0  0  0  0
  188.5110  177.1690  143.2930 C   0  0  0  0  0  0  0  0  0  0  0  0
  187.3910  179.2460  141.7810 O   0  0  0  0  0  0  0  0  0  0  0  0
  186.3730  178.1730  144.3340 C   0  0  1  0  0  3  0  0  0  0  0  0
  186.1030  178.7320  141.8500 C   0  0  0  0  0  0  0  0  0  0  0  0
  187.9170  178.1070  144.3080 C   0  0  1  0  0  3  0  0  0  0  0  0
  190.2270  178.6860  142.6990 O   0  0  0  0  0  1  0  0  0  0  0  0
  185.6820  177.8540  142.9920 C   0  0  0  0  0  2  0  0  0  0  0  0
  188.4370  178.5000  141.1470 C   0  0  0  0  0  2  0  0  0  0  0  0
  185.8570  177.3490  145.3400 O   0  0  0  0  0  0  0  0  0  0  0  0
  185.2030  178.2290  146.2020 C   0  0  0  0  0  1  0  0  0  0  0  0
  2 18  1  0  0  0  0
  2 16  1  0  0  0  0
  5  4  1  0  0  0  0
  6  7  1  1  0  0  0
  6 11  1  0  0  0  0
  6 17  1  0  0  0  0
  9  5  1  0  0  0  0
  9  7  1  0  0  0  0
 10 21  1  0  0  0  0
 11  4  1  6  0  0  0
 11 22  1  0  0  0  0
 12 14  1  0  0  0  0
 12 34  1  0  0  0  0
 13  1  2  0  0  0  0
 14 16  1  0  0  0  0
 15 23  1  0  0  0  0
 15 30  1  1  0  0  0
 17 15  1  0  0  0  0
 19  3  1  1  0  0  0
 19  8  1  0  0  0  0
 19 18  1  0  0  0  0
 20 24  1  0  0  0  0
 20 10  2  0  0  0  0
 21 14  2  0  0  0  0
 21  1  1  0  0  0  0
 22  8  1  1  0  0  0
 22 23  1  0  0  0  0
 23 13  1  6  0  0  0
 24 12  2  0  0  0  0
 25 29  1  0  0  0  0
 26 29  2  0  0  0  0
 26 31  1  0  0  0  0
 27 30  1  0  0  0  0
 27 28  2  0  0  0  0
 28 26  1  0  0  0  0
 30 25  2  0  0  0  0
 31 32  1  0  0  0  0
 32 33  2  0  0  0  0
 34 35  1  0  0  0  0
 36 35  1  1  0  0  0
 36 39  1  0  0  0  0
 38 36  1  0  0  0  0
 38 37  2  0  0  0  0
 39 40  1  0  0  0  0
 40 44  1  0  0  0  0
 40 41  1  1  0  0  0
 42 49  2  0  0  0  0
 44 51  1  1  0  0  0
 44 46  1  0  0  0  0
 46 45  2  0  0  0  0
 46 50  1  0  0  0  0
 47 49  1  0  0  0  0
 48 54  1  1  0  0  0
 49 52  1  0  0  0  0
 50 48  1  0  0  0  0
 50 43  1  1  0  0  0
 52 48  1  0  0  0  0
 53 47  1  0  0  0  0
 53 44  1  0  0  0  0
 54 55  1  0  0  0  0
M  END
>  <MODEL>
1

>  <REMARK>
 VINA RESULT:      -8.0      0.000      0.000
  Name = 
  11 active torsions:
  status: ('A' for Active; 'I' for Inactive)
    1  A    between atoms: C_6  and  C_20
    2  A    between atoms: C_8  and  C_43
    3  A    between atoms: O_10  and  C_18
    4  A    between atoms: O_10  and  C_32
    5  A    between atoms: O_11  and  C_29
    6  A    between atoms: C_20  and  C_22
    7  A    between atoms: C_22  and  C_43
    8  A    between atoms: C_27  and  O_54
    9  A    between atoms: C_33  and  C_52
   10  A    between atoms: C_43  and  C_51
   11  A    between atoms: C_51  and  O_54
                            x       y       z     vdW  Elec       q    Type
                         _______ _______ _______ _____ _____    ______ ____

>  <TORSDO>
F 11

$$$$
=
 OpenBabel11052415053D

 55 60  0  0  1  0  0  0  0  0999 V2000
  184.9960  178.6130  139.0020 C   0  0  0  0  0  3  0  0  0  0  0  0
  187.6340  177.9570  141.0280 S   0  0  0  0  0  0  0  0  0  0  0  0
  185.2960  178.2170  143.5360 C   0  0  0  0  0  1  0  0  0  0  0  0
  182.0740  178.1670  143.5660 C   0  0  0  0  0  2  0  0  0  0  0  0
  180.7910  178.3270  144.3850 C   0  0  0  0  0  2  0  0  0  0  0  0
  180.6320  178.6240  141.5810 C   0  0  2  0  0  3  0  0  0  0  0  0
  179.4910  178.7620  142.5850 C   0  0  0  0  0  2  0  0  0  0  0  0
  184.1090  179.4610  141.8690 O   0  0  0  0  0  0  0  0  0  0  0  0
  179.6850  177.8530  143.6450 O   0  0  0  0  0  0  0  0  0  0  0  0
  185.4110  177.1080  137.0560 C   0  0  0  0  0  3  0  0  0  0  0  0
  181.9440  178.9740  142.2690 C   0  0  2  0  0  3  0  0  0  0  0  0
  188.1900  177.3800  137.3920 C   0  0  0  0  0  0  0  0  0  0  0  0
  183.6810  178.4430  139.0310 C   0  0  0  0  0  3  0  0  0  0  0  0
  187.3000  177.9880  138.3120 C   0  0  0  0  0  0  0  0  0  0  0  0
  181.3620  179.1140  139.5300 C   0  0  2  0  0  3  0  0  0  0  0  0
  187.7880  178.6610  139.4390 O   0  0  0  0  0  0  0  0  0  0  0  0
  180.4590  179.5150  140.5260 O   0  0  0  0  0  0  0  0  0  0  0  0
  186.4710  179.2350  141.6020 C   0  0  0  0  0  2  0  0  0  0  0  0
  185.1770  178.5770  142.0640 C   0  0  1  0  0  3  0  0  0  0  0  0
  186.2890  176.4510  136.1960 C   0  0  0  0  0  3  0  0  0  0  0  0
  185.9080  177.8710  138.1230 C   0  0  0  0  0  0  0  0  0  0  0  0
  183.0840  178.7200  141.3740 N   0  0  1  0  0  0  0  0  0  0  0  0
  182.8390  179.2240  139.9930 C   0  0  1  0  0  3  0  0  0  0  0  0
  187.6690  176.5860  136.3690 C   0  0  0  0  0  3  0  0  0  0  0  0
  180.9240  179.3480  137.0640 C   0  0  0  0  0  3  0  0  0  0  0  0
  180.7720  181.5350  136.0110 C   0  0  0  0  0  0  0  0  0  0  0  0
  181.1850  181.3580  138.3970 C   0  0  0  0  0  3  0  0  0  0  0  0
  180.9980  182.1420  137.2590 C   0  0  0  0  0  3  0  0  0  0  0  0
  180.7440  180.1360  135.9200 C   0  0  0  0  0  3  0  0  0  0  0  0
  181.1410  179.9560  138.3090 C   0  0  0  0  0  0  0  0  0  0  0  0
  180.5840  182.2960  134.8520 O   0  0  0  0  0  0  0  0  0  0  0  0
  179.9270  183.5280  134.8590 C   0  0  0  0  0  3  0  0  0  0  0  0
  180.6100  184.6450  135.0270 C   0  0  0  0  0  2  0  0  0  0  0  0
  189.5810  177.5390  137.4300 O   0  0  0  0  0  0  0  0  0  0  0  0
  190.5260  176.5590  137.0120 C   0  0  0  0  0  2  0  0  0  0  0  0
  191.4390  176.1490  138.1680 C   0  0  2  0  0  3  0  0  0  0  0  0
  191.4670  177.4040  140.1830 O   0  0  0  0  0  0  0  0  0  0  0  0
  190.8830  176.5840  139.4940 C   0  0  0  0  0  3  0  0  0  0  0  0
  192.9150  176.5390  137.9810 C   0  0  0  0  0  2  0  0  0  0  0  0
  193.6820  175.5630  137.0910 C   0  0  1  0  0  3  0  0  0  0  0  0
  194.1490  176.2040  135.9390 O   0  0  0  0  0  1  0  0  0  0  0  0
  195.2230  170.4430  137.4980 C   0  0  0  0  0  2  0  0  0  0  0  0
  198.3120  175.3540  137.7900 O   0  0  0  0  0  1  0  0  0  0  0  0
  194.8130  174.8240  137.8380 C   0  0  1  0  0  0  0  0  0  0  0  0
  196.1330  174.9800  135.8370 O   0  0  0  0  0  0  0  0  0  0  0  0
  196.1060  174.7490  137.0400 C   0  0  0  0  0  0  0  0  0  0  0  0
  195.3460  172.5250  138.5650 O   0  0  0  0  0  0  0  0  0  0  0  0
  197.9700  172.9820  137.2960 C   0  0  1  0  0  3  0  0  0  0  0  0
  195.8400  171.6060  137.6490 C   0  0  0  0  0  0  0  0  0  0  0  0
  197.3600  174.3270  137.7550 C   0  0  1  0  0  3  0  0  0  0  0  0
  195.0710  175.5090  139.0280 O   0  0  0  0  0  1  0  0  0  0  0  0
  196.9600  171.9690  136.7180 C   0  0  0  0  0  2  0  0  0  0  0  0
  194.2930  173.4230  138.1960 C   0  0  0  0  0  2  0  0  0  0  0  0
  199.0050  173.1940  136.3800 O   0  0  0  0  0  0  0  0  0  0  0  0
  198.5440  172.6080  135.2000 C   0  0  0  0  0  1  0  0  0  0  0  0
  1 13  2  0  0  0  0
  2 18  1  0  0  0  0
  4  5  1  0  0  0  0
  6 11  1  0  0  0  0
  6  7  1  1  0  0  0
  7  9  1  0  0  0  0
  8 19  1  0  0  0  0
  9  5  1  0  0  0  0
 10 21  1  0  0  0  0
 11  4  1  1  0  0  0
 12 34  1  0  0  0  0
 12 14  1  0  0  0  0
 14 16  1  0  0  0  0
 15 30  1  6  0  0  0
 15 23  1  0  0  0  0
 15 17  1  0  0  0  0
 16  2  1  0  0  0  0
 17  6  1  0  0  0  0
 18 19  1  0  0  0  0
 19  3  1  1  0  0  0
 20 24  1  0  0  0  0
 20 10  2  0  0  0  0
 21 14  2  0  0  0  0
 21  1  1  0  0  0  0
 22  8  1  1  0  0  0
 22 11  1  0  0  0  0
 23 13  1  6  0  0  0
 23 22  1  0  0  0  0
 24 12  2  0  0  0  0
 25 30  1  0  0  0  0
 26 28  2  0  0  0  0
 28 27  1  0  0  0  0
 29 26  1  0  0  0  0
 29 25  2  0  0  0  0
 30 27  2  0  0  0  0
 31 32  1  0  0  0  0
 31 26  1  0  0  0  0
 32 33  2  0  0  0  0
 35 34  1  0  0  0  0
 36 35  1  6  0  0  0
 36 38  1  0  0  0  0
 38 37  2  0  0  0  0
 39 36  1  0  0  0  0
 40 41  1  6  0  0  0
 40 44  1  0  0  0  0
 40 39  1  0  0  0  0
 42 49  2  0  0  0  0
 44 53  1  0  0  0  0
 44 51  1  1  0  0  0
 45 46  2  0  0  0  0
 46 50  1  0  0  0  0
 46 44  1  0  0  0  0
 48 54  1  6  0  0  0
 48 50  1  0  0  0  0
 49 47  1  0  0  0  0
 50 43  1  6  0  0  0
 52 48  1  0  0  0  0
 52 49  1  0  0  0  0
 53 47  1  0  0  0  0
 55 54  1  0  0  0  0
M  END
>  <MODEL>
2

>  <REMARK>
 VINA RESULT:      -7.5      3.802      8.157
  Name = 
  11 active torsions:
  status: ('A' for Active; 'I' for Inactive)
    1  A    between atoms: C_6  and  C_20
    2  A    between atoms: C_8  and  C_43
    3  A    between atoms: O_10  and  C_18
    4  A    between atoms: O_10  and  C_32
    5  A    between atoms: O_11  and  C_29
    6  A    between atoms: C_20  and  C_22
    7  A    between atoms: C_22  and  C_43
    8  A    between atoms: C_27  and  O_54
    9  A    between atoms: C_33  and  C_52
   10  A    between atoms: C_43  and  C_51
   11  A    between atoms: C_51  and  O_54
                            x       y       z     vdW  Elec       q    Type
                         _______ _______ _______ _____ _____    ______ ____

>  <TORSDO>
F 11

$$$$
=
 OpenBabel11052415053D

 55 60  0  0  1  0  0  0  0  0999 V2000
  185.9490  177.9290  138.3350 C   0  0  0  0  0  3  0  0  0  0  0  0
  189.1070  177.3130  139.4040 S   0  0  0  0  0  0  0  0  0  0  0  0
  187.8260  178.1420  142.4870 C   0  0  0  0  0  1  0  0  0  0  0  0
  184.8260  178.4030  143.6340 C   0  0  0  0  0  2  0  0  0  0  0  0
  183.9260  178.7980  144.8070 C   0  0  0  0  0  2  0  0  0  0  0  0
  182.7920  178.7140  142.2220 C   0  0  2  0  0  3  0  0  0  0  0  0
  182.0890  179.0990  143.5210 C   0  0  0  0  0  2  0  0  0  0  0  0
  186.1750  179.2490  141.1510 O   0  0  0  0  0  0  0  0  0  0  0  0
  182.6110  178.3330  144.5820 O   0  0  0  0  0  0  0  0  0  0  0  0
  185.5840  176.1350  136.6400 C   0  0  0  0  0  3  0  0  0  0  0  0
  184.2760  179.0310  142.3480 C   0  0  2  0  0  3  0  0  0  0  0  0
  188.3100  176.1850  135.9470 C   0  0  0  0  0  0  0  0  0  0  0  0
  184.7250  177.8900  138.8430 C   0  0  0  0  0  3  0  0  0  0  0  0
  187.8300  176.9970  137.0050 C   0  0  0  0  0  0  0  0  0  0  0  0
  182.7630  178.8420  139.9950 C   0  0  2  0  0  3  0  0  0  0  0  0
  188.7140  177.7710  137.7670 O   0  0  0  0  0  0  0  0  0  0  0  0
  182.2910  179.4620  141.1610 O   0  0  0  0  0  0  0  0  0  0  0  0
  188.2750  178.7640  140.1270 C   0  0  0  0  0  2  0  0  0  0  0  0
  187.2060  178.3030  141.1090 C   0  0  1  0  0  3  0  0  0  0  0  0
  186.0730  175.2840  135.6500 C   0  0  0  0  0  3  0  0  0  0  0  0
  186.4590  176.9880  137.3300 C   0  0  0  0  0  0  0  0  0  0  0  0
  185.0120  178.5470  141.1690 N   0  0  1  0  0  0  0  0  0  0  0  0
  184.3120  178.8740  139.8940 C   0  0  1  0  0  3  0  0  0  0  0  0
  187.4280  175.3090  135.3120 C   0  0  0  0  0  3  0  0  0  0  0  0
  182.1040  180.9240  138.7450 C   0  0  0  0  0  3  0  0  0  0  0  0
  180.9790  180.8010  136.5930 C   0  0  0  0  0  0  0  0  0  0  0  0
  181.6060  178.7650  137.7580 C   0  0  0  0  0  3  0  0  0  0  0  0
  181.0250  179.3970  136.6590 C   0  0  0  0  0  3  0  0  0  0  0  0
  181.5140  181.5580  137.6440 C   0  0  0  0  0  3  0  0  0  0  0  0
  182.1570  179.5230  138.8040 C   0  0  0  0  0  0  0  0  0  0  0  0
  180.4000  181.4620  135.5040 O   0  0  0  0  0  0  0  0  0  0  0  0
  179.8270  182.7300  135.6120 C   0  0  0  0  0  3  0  0  0  0  0  0
  179.9080  183.5840  134.6090 C   0  0  0  0  0  2  0  0  0  0  0  0
  189.6290  176.2140  135.4760 O   0  0  0  0  0  0  0  0  0  0  0  0
  190.2020  175.2550  134.5940 C   0  0  0  0  0  2  0  0  0  0  0  0
  191.4330  174.6000  135.2190 C   0  0  2  0  0  3  0  0  0  0  0  0
  190.0350  173.0920  136.4050 O   0  0  0  0  0  0  0  0  0  0  0  0
  191.1000  173.2740  135.8410 C   0  0  0  0  0  3  0  0  0  0  0  0
  192.2300  175.5180  136.1620 C   0  0  0  0  0  2  0  0  0  0  0  0
  193.7250  175.5420  135.8470 C   0  0  1  0  0  3  0  0  0  0  0  0
  194.1370  176.8310  135.4960 O   0  0  0  0  0  1  0  0  0  0  0  0
  194.8430  170.5790  137.5430 C   0  0  0  0  0  2  0  0  0  0  0  0
  198.0120  175.4440  137.7400 O   0  0  0  0  0  1  0  0  0  0  0  0
  194.5920  174.9490  136.9790 C   0  0  1  0  0  0  0  0  0  0  0  0
  196.3790  174.7240  135.3910 O   0  0  0  0  0  0  0  0  0  0  0  0
  196.0380  174.7210  136.5680 C   0  0  0  0  0  0  0  0  0  0  0  0
  194.8020  172.8220  138.2170 O   0  0  0  0  0  0  0  0  0  0  0  0
  197.6810  173.0230  137.6060 C   0  0  1  0  0  3  0  0  0  0  0  0
  195.4620  171.7460  137.6370 C   0  0  0  0  0  0  0  0  0  0  0  0
  197.0470  174.4320  137.6450 C   0  0  1  0  0  3  0  0  0  0  0  0
  194.5760  175.8410  138.0540 O   0  0  0  0  0  1  0  0  0  0  0  0
  196.7980  171.9250  136.9770 C   0  0  0  0  0  2  0  0  0  0  0  0
  193.9250  173.6410  137.4350 C   0  0  0  0  0  2  0  0  0  0  0  0
  198.9240  173.0560  136.9640 O   0  0  0  0  0  0  0  0  0  0  0  0
  199.1780  171.7220  136.6410 C   0  0  0  0  0  1  0  0  0  0  0  0
  1 13  2  0  0  0  0
  2 18  1  0  0  0  0
  4  5  1  0  0  0  0
  6 11  1  0  0  0  0
  6  7  1  1  0  0  0
  7  9  1  0  0  0  0
  9  5  1  0  0  0  0
 10 21  1  0  0  0  0
 11  4  1  1  0  0  0
 12 14  1  0  0  0  0
 14 21  2  0  0  0  0
 14 16  1  0  0  0  0
 15 30  1  6  0  0  0
 15 17  1  0  0  0  0
 16  2  1  0  0  0  0
 17  6  1  0  0  0  0
 18 19  1  0  0  0  0
 19  8  1  0  0  0  0
 19  3  1  1  0  0  0
 20 10  2  0  0  0  0
 21  1  1  0  0  0  0
 22  8  1  6  0  0  0
 22 11  1  0  0  0  0
 23 13  1  6  0  0  0
 23 15  1  0  0  0  0
 23 22  1  0  0  0  0
 24 20  1  0  0  0  0
 24 12  2  0  0  0  0
 25 30  1  0  0  0  0
 26 28  2  0  0  0  0
 26 29  1  0  0  0  0
 27 30  2  0  0  0  0
 28 27  1  0  0  0  0
 29 25  2  0  0  0  0
 31 32  1  0  0  0  0
 31 26  1  0  0  0  0
 33 32  2  0  0  0  0
 34 12  1  0  0  0  0
 35 34  1  0  0  0  0
 36 35  1  1  0  0  0
 36 38  1  0  0  0  0
 36 39  1  0  0  0  0
 38 37  2  0  0  0  0
 40 41  1  1  0  0  0
 40 39  1  0  0  0  0
 40 44  1  0  0  0  0
 42 49  2  0  0  0  0
 44 53  1  0  0  0  0
 44 51  1  1  0  0  0
 45 46  2  0  0  0  0
 46 44  1  0  0  0  0
 46 50  1  0  0  0  0
 48 54  1  6  0  0  0
 48 50  1  0  0  0  0
 49 47  1  0  0  0  0
 50 43  1  6  0  0  0
 52 48  1  0  0  0  0
 52 49  1  0  0  0  0
 53 47  1  0  0  0  0
 55 54  1  0  0  0  0
M  END
>  <MODEL>
3

>  <REMARK>
 VINA RESULT:      -7.0      3.761      8.288
  Name = 
  11 active torsions:
  status: ('A' for Active; 'I' for Inactive)
    1  A    between atoms: C_6  and  C_20
    2  A    between atoms: C_8  and  C_43
    3  A    between atoms: O_10  and  C_18
    4  A    between atoms: O_10  and  C_32
    5  A    between atoms: O_11  and  C_29
    6  A    between atoms: C_20  and  C_22
    7  A    between atoms: C_22  and  C_43
    8  A    between atoms: C_27  and  O_54
    9  A    between atoms: C_33  and  C_52
   10  A    between atoms: C_43  and  C_51
   11  A    between atoms: C_51  and  O_54
                            x       y       z     vdW  Elec       q    Type
                         _______ _______ _______ _____ _____    ______ ____

>  <TORSDO>
F 11

$$$$
=
 OpenBabel11052415053D

 55 60  0  0  1  0  0  0  0  0999 V2000
  187.8670  176.7790  138.7530 C   0  0  0  0  0  3  0  0  0  0  0  0
  189.0180  178.4250  141.4850 S   0  0  0  0  0  0  0  0  0  0  0  0
  192.1060  177.5400  140.2550 C   0  0  0  0  0  1  0  0  0  0  0  0
  193.1220  176.4890  137.3840 C   0  0  0  0  0  2  0  0  0  0  0  0
  194.2850  175.9510  136.5470 C   0  0  0  0  0  2  0  0  0  0  0  0
  191.6530  175.4410  135.6600 C   0  0  2  0  0  3  0  0  0  0  0  0
  192.9500  174.9850  134.9970 C   0  0  0  0  0  2  0  0  0  0  0  0
  190.8250  175.8630  139.1250 O   0  0  0  0  0  0  0  0  0  0  0  0
  193.9410  175.9710  135.1770 O   0  0  0  0  0  0  0  0  0  0  0  0
  185.9610  178.2090  138.0150 C   0  0  0  0  0  3  0  0  0  0  0  0
  191.8900  175.6050  137.1540 C   0  0  2  0  0  3  0  0  0  0  0  0
  185.4180  178.9260  140.6800 C   0  0  0  0  0  0  0  0  0  0  0  0
  188.3040  176.4920  137.5350 C   0  0  0  0  0  3  0  0  0  0  0  0
  186.5370  178.1100  140.3770 C   0  0  0  0  0  0  0  0  0  0  0  0
  189.4570  175.1010  135.8560 C   0  0  2  0  0  3  0  0  0  0  0  0
  187.4270  177.7160  141.3840 O   0  0  0  0  0  0  0  0  0  0  0  0
  190.6610  174.4800  135.4930 O   0  0  0  0  0  0  0  0  0  0  0  0
  189.8600  176.8650  141.0650 C   0  0  0  0  0  2  0  0  0  0  0  0
  190.7260  177.0690  139.8280 C   0  0  1  0  0  3  0  0  0  0  0  0
  184.9060  179.0710  138.3090 C   0  0  0  0  0  3  0  0  0  0  0  0
  186.7880  177.7310  139.0420 C   0  0  0  0  0  0  0  0  0  0  0  0
  190.7020  176.1760  137.8090 N   0  0  1  0  0  0  0  0  0  0  0  0
  189.4390  175.5330  137.3470 C   0  0  1  0  0  3  0  0  0  0  0  0
  184.6420  179.4270  139.6340 C   0  0  0  0  0  3  0  0  0  0  0  0
  188.4370  172.8020  135.9190 C   0  0  0  0  0  3  0  0  0  0  0  0
  186.2160  172.3820  135.0220 C   0  0  0  0  0  0  0  0  0  0  0  0
  187.1550  174.6190  134.9490 C   0  0  0  0  0  3  0  0  0  0  0  0
  186.1080  173.7400  134.6760 C   0  0  0  0  0  3  0  0  0  0  0  0
  187.3870  171.9190  135.6370 C   0  0  0  0  0  3  0  0  0  0  0  0
  188.3230  174.1590  135.5800 C   0  0  0  0  0  0  0  0  0  0  0  0
  185.1820  171.4770  134.7580 O   0  0  0  0  0  0  0  0  0  0  0  0
  184.4610  170.8410  135.7710 C   0  0  0  0  0  3  0  0  0  0  0  0
  183.6960  171.5430  136.5840 C   0  0  0  0  0  2  0  0  0  0  0  0
  185.0220  179.2550  141.9820 O   0  0  0  0  0  0  0  0  0  0  0  0
  184.1220  178.4910  142.7790 C   0  0  0  0  0  2  0  0  0  0  0  0
  183.3140  179.3920  143.7120 C   0  0  2  0  0  3  0  0  0  0  0  0
  184.3980  179.0950  145.8030 O   0  0  0  0  0  0  0  0  0  0  0  0
  183.3900  178.9240  145.1380 C   0  0  0  0  0  3  0  0  0  0  0  0
  181.8710  179.6580  143.2470 C   0  0  0  0  0  2  0  0  0  0  0  0
  181.1040  178.3760  142.9270 C   0  0  1  0  0  3  0  0  0  0  0  0
  180.3540  177.9580  144.0310 O   0  0  0  0  0  1  0  0  0  0  0  0
  181.1220  181.5790  138.6260 C   0  0  0  0  0  2  0  0  0  0  0  0
  179.4100  176.0600  139.2210 O   0  0  0  0  0  1  0  0  0  0  0  0
  180.2380  178.4920  141.6540 C   0  0  1  0  0  0  0  0  0  0  0  0
  181.8410  177.1030  140.5270 O   0  0  0  0  0  0  0  0  0  0  0  0
  180.7220  177.6050  140.5180 C   0  0  0  0  0  0  0  0  0  0  0  0
  179.7580  180.1620  139.8980 O   0  0  0  0  0  0  0  0  0  0  0  0
  180.3150  177.9750  137.9960 C   0  0  1  0  0  3  0  0  0  0  0  0
  180.6640  180.3590  138.8640 C   0  0  0  0  0  0  0  0  0  0  0  0
  179.8120  177.3970  139.3390 C   0  0  1  0  0  3  0  0  0  0  0  0
  178.9310  178.1160  141.9780 O   0  0  0  0  0  1  0  0  0  0  0  0
  181.2520  179.1950  138.1190 C   0  0  0  0  0  2  0  0  0  0  0  0
  180.2190  179.9730  141.2400 C   0  0  0  0  0  2  0  0  0  0  0  0
  180.9300  176.9820  137.2270 O   0  0  0  0  0  0  0  0  0  0  0  0
  182.0590  177.6090  136.6980 C   0  0  0  0  0  1  0  0  0  0  0  0
  1 21  1  0  0  0  0
  5  4  1  0  0  0  0
  6  7  1  6  0  0  0
  6 11  1  0  0  0  0
  7  9  1  0  0  0  0
  8 19  1  0  0  0  0
  9  5  1  0  0  0  0
 10 20  2  0  0  0  0
 10 21  1  0  0  0  0
 11  4  1  6  0  0  0
 11 22  1  0  0  0  0
 12 34  1  0  0  0  0
 13  1  2  0  0  0  0
 14 12  1  0  0  0  0
 14 16  1  0  0  0  0
 15 30  1  1  0  0  0
 15 23  1  0  0  0  0
 16  2  1  0  0  0  0
 17  6  1  0  0  0  0
 17 15  1  0  0  0  0
 18  2  1  0  0  0  0
 19  3  1  1  0  0  0
 19 18  1  0  0  0  0
 20 24  1  0  0  0  0
 21 14  2  0  0  0  0
 22  8  1  1  0  0  0
 23 13  1  6  0  0  0
 23 22  1  0  0  0  0
 24 12  2  0  0  0  0
 26 29  2  0  0  0  0
 27 30  1  0  0  0  0
 28 27  2  0  0  0  0
 28 26  1  0  0  0  0
 29 25  1  0  0  0  0
 30 25  2  0  0  0  0
 31 26  1  0  0  0  0
 31 32  1  0  0  0  0
 32 33  2  0  0  0  0
 34 35  1  0  0  0  0
 36 35  1  6  0  0  0
 36 38  1  0  0  0  0
 38 37  2  0  0  0  0
 39 36  1  0  0  0  0
 40 39  1  0  0  0  0
 40 41  1  1  0  0  0
 42 49  2  0  0  0  0
 44 51  1  1  0  0  0
 44 40  1  0  0  0  0
 46 45  2  0  0  0  0
 46 44  1  0  0  0  0
 47 53  1  0  0  0  0
 48 54  1  1  0  0  0
 48 52  1  0  0  0  0
 48 50  1  0  0  0  0
 49 47  1  0  0  0  0
 50 43  1  6  0  0  0
 50 46  1  0  0  0  0
 52 49  1  0  0  0  0
 53 44  1  0  0  0  0
 55 54  1  0  0  0  0
M  END
>  <MODEL>
4

>  <REMARK>
 VINA RESULT:      -6.9      2.781      9.079
  Name = 
  11 active torsions:
  status: ('A' for Active; 'I' for Inactive)
    1  A    between atoms: C_6  and  C_20
    2  A    between atoms: C_8  and  C_43
    3  A    between atoms: O_10  and  C_18
    4  A    between atoms: O_10  and  C_32
    5  A    between atoms: O_11  and  C_29
    6  A    between atoms: C_20  and  C_22
    7  A    between atoms: C_22  and  C_43
    8  A    between atoms: C_27  and  O_54
    9  A    between atoms: C_33  and  C_52
   10  A    between atoms: C_43  and  C_51
   11  A    between atoms: C_51  and  O_54
                            x       y       z     vdW  Elec       q    Type
                         _______ _______ _______ _____ _____    ______ ____

>  <TORSDO>
F 11

$$$$
=
 OpenBabel11052415053D

 55 60  0  0  1  0  0  0  0  0999 V2000
  187.8100  176.7090  138.4460 C   0  0  0  0  0  3  0  0  0  0  0  0
  189.0480  178.4760  141.0610 S   0  0  0  0  0  0  0  0  0  0  0  0
  192.0940  177.5110  139.7900 C   0  0  0  0  0  1  0  0  0  0  0  0
  193.0220  176.3150  136.9460 C   0  0  0  0  0  2  0  0  0  0  0  0
  194.1580  175.7300  136.1030 C   0  0  0  0  0  2  0  0  0  0  0  0
  191.4990  175.1970  135.3160 C   0  0  2  0  0  3  0  0  0  0  0  0
  192.7740  174.7000  134.6400 C   0  0  0  0  0  2  0  0  0  0  0  0
  190.7720  175.7900  138.7790 O   0  0  0  0  0  0  0  0  0  0  0  0
  193.7760  175.6860  134.7440 O   0  0  0  0  0  0  0  0  0  0  0  0
  185.8920  178.1150  137.6930 C   0  0  0  0  0  3  0  0  0  0  0  0
  191.7790  175.4310  136.7930 C   0  0  2  0  0  3  0  0  0  0  0  0
  185.4290  178.9630  140.3340 C   0  0  0  0  0  0  0  0  0  0  0  0
  188.2110  176.3600  137.2310 C   0  0  0  0  0  3  0  0  0  0  0  0
  186.5340  178.1250  140.0400 C   0  0  0  0  0  0  0  0  0  0  0  0
  189.3070  174.8820  135.5890 C   0  0  2  0  0  3  0  0  0  0  0  0
  187.4500  177.7750  141.0390 O   0  0  0  0  0  0  0  0  0  0  0  0
  190.4970  174.2360  135.2240 O   0  0  0  0  0  0  0  0  0  0  0  0
  189.8680  176.8920  140.6940 C   0  0  0  0  0  2  0  0  0  0  0  0
  190.7000  177.0300  139.4250 C   0  0  1  0  0  3  0  0  0  0  0  0
  184.8500  178.9980  137.9740 C   0  0  0  0  0  3  0  0  0  0  0  0
  186.7450  177.6820  138.7190 C   0  0  0  0  0  0  0  0  0  0  0  0
  190.6140  176.0410  137.4530 N   0  0  1  0  0  0  0  0  0  0  0  0
  189.3350  175.3850  137.0580 C   0  0  1  0  0  3  0  0  0  0  0  0
  184.6260  179.4190  139.2870 C   0  0  0  0  0  3  0  0  0  0  0  0
  186.9760  174.3810  134.7850 C   0  0  0  0  0  3  0  0  0  0  0  0
  185.9940  172.1740  135.0610 C   0  0  0  0  0  0  0  0  0  0  0  0
  188.2510  172.6090  135.8430 C   0  0  0  0  0  3  0  0  0  0  0  0
  187.1790  171.7320  135.6760 C   0  0  0  0  0  3  0  0  0  0  0  0
  185.8980  173.5020  134.6240 C   0  0  0  0  0  3  0  0  0  0  0  0
  188.1610  173.9360  135.3910 C   0  0  0  0  0  0  0  0  0  0  0  0
  184.9020  171.3180  134.8820 O   0  0  0  0  0  0  0  0  0  0  0  0
  184.0610  170.9410  135.9310 C   0  0  0  0  0  3  0  0  0  0  0  0
  183.5880  171.8480  136.7640 C   0  0  0  0  0  2  0  0  0  0  0  0
  185.0710  179.3570  141.6300 O   0  0  0  0  0  0  0  0  0  0  0  0
  183.9080  178.9190  142.3240 C   0  0  0  0  0  2  0  0  0  0  0  0
  184.2120  178.6680  143.8010 C   0  0  2  0  0  3  0  0  0  0  0  0
  181.8800  178.9540  144.1420 O   0  0  0  0  0  0  0  0  0  0  0  0
  182.9610  178.6810  144.6340 C   0  0  0  0  0  3  0  0  0  0  0  0
  185.3250  179.5570  144.3810 C   0  0  0  0  0  2  0  0  0  0  0  0
  185.8100  179.0880  145.7510 C   0  0  1  0  0  3  0  0  0  0  0  0
  184.7290  178.7240  146.5610 O   0  0  0  0  0  1  0  0  0  0  0  0
  190.7300  178.6940  143.6550 C   0  0  0  0  0  2  0  0  0  0  0  0
  188.3420  176.0150  148.2240 O   0  0  0  0  0  1  0  0  0  0  0  0
  186.8690  177.9680  145.6670 C   0  0  1  0  0  0  0  0  0  0  0  0
  187.8730  178.8720  147.6530 O   0  0  0  0  0  0  0  0  0  0  0  0
  187.7960  177.9300  146.8720 C   0  0  0  0  0  0  0  0  0  0  0  0
  188.8790  177.4300  144.3360 O   0  0  0  0  0  0  0  0  0  0  0  0
  190.1920  176.9720  146.9390 C   0  0  1  0  0  3  0  0  0  0  0  0
  190.0860  178.0560  144.6210 C   0  0  0  0  0  0  0  0  0  0  0  0
  188.6710  176.7210  147.0590 C   0  0  1  0  0  3  0  0  0  0  0  0
  186.2040  176.7420  145.5860 O   0  0  0  0  0  1  0  0  0  0  0  0
  190.5900  178.1550  146.0320 C   0  0  0  0  0  2  0  0  0  0  0  0
  187.6540  178.1710  144.3610 C   0  0  0  0  0  2  0  0  0  0  0  0
  190.7710  177.1290  148.2020 O   0  0  0  0  0  0  0  0  0  0  0  0
  192.0260  176.5310  148.0810 C   0  0  0  0  0  1  0  0  0  0  0  0
  1 21  1  0  0  0  0
  5  4  1  0  0  0  0
  6  7  1  6  0  0  0
  6 11  1  0  0  0  0
  7  9  1  0  0  0  0
  8 19  1  0  0  0  0
  9  5  1  0  0  0  0
 10 20  2  0  0  0  0
 10 21  1  0  0  0  0
 11  4  1  6  0  0  0
 11 22  1  0  0  0  0
 12 34  1  0  0  0  0
 13  1  2  0  0  0  0
 14 12  1  0  0  0  0
 14 16  1  0  0  0  0
 15 30  1  1  0  0  0
 15 23  1  0  0  0  0
 16  2  1  0  0  0  0
 17  6  1  0  0  0  0
 17 15  1  0  0  0  0
 18  2  1  0  0  0  0
 19  3  1  1  0  0  0
 19 18  1  0  0  0  0
 20 24  1  0  0  0  0
 21 14  2  0  0  0  0
 22  8  1  1  0  0  0
 23 13  1  6  0  0  0
 23 22  1  0  0  0  0
 24 12  2  0  0  0  0
 25 30  1  0  0  0  0
 26 28  2  0  0  0  0
 28 27  1  0  0  0  0
 29 25  2  0  0  0  0
 29 26  1  0  0  0  0
 30 27  2  0  0  0  0
 31 26  1  0  0  0  0
 31 32  1  0  0  0  0
 32 33  2  0  0  0  0
 34 35  1  0  0  0  0
 36 35  1  6  0  0  0
 36 39  1  0  0  0  0
 36 38  1  0  0  0  0
 37 38  2  0  0  0  0
 39 40  1  0  0  0  0
 40 41  1  1  0  0  0
 42 49  2  0  0  0  0
 44 51  1  6  0  0  0
 44 40  1  0  0  0  0
 44 46  1  0  0  0  0
 46 50  1  0  0  0  0
 46 45  2  0  0  0  0
 47 53  1  0  0  0  0
 47 49  1  0  0  0  0
 48 50  1  0  0  0  0
 48 54  1  1  0  0  0
 49 52  1  0  0  0  0
 50 43  1  1  0  0  0
 52 48  1  0  0  0  0
 53 44  1  0  0  0  0
 55 54  1  0  0  0  0
M  END
>  <MODEL>
5

>  <REMARK>
 VINA RESULT:      -6.3      3.096      8.111
  Name = 
  11 active torsions:
  status: ('A' for Active; 'I' for Inactive)
    1  A    between atoms: C_6  and  C_20
    2  A    between atoms: C_8  and  C_43
    3  A    between atoms: O_10  and  C_18
    4  A    between atoms: O_10  and  C_32
    5  A    between atoms: O_11  and  C_29
    6  A    between atoms: C_20  and  C_22
    7  A    between atoms: C_22  and  C_43
    8  A    between atoms: C_27  and  O_54
    9  A    between atoms: C_33  and  C_52
   10  A    between atoms: C_43  and  C_51
   11  A    between atoms: C_51  and  O_54
                            x       y       z     vdW  Elec       q    Type
                         _______ _______ _______ _____ _____    ______ ____

>  <TORSDO>
F 11

$$$$
=
 OpenBabel11052415053D

 55 60  0  0  1  0  0  0  0  0999 V2000
  184.9670  177.4780  139.1240 C   0  0  0  0  0  3  0  0  0  0  0  0
  183.3470  176.3590  136.3640 S   0  0  0  0  0  0  0  0  0  0  0  0
  180.5240  176.9560  138.2360 C   0  0  0  0  0  1  0  0  0  0  0  0
  179.9700  178.6530  140.9180 C   0  0  0  0  0  2  0  0  0  0  0  0
  178.9710  179.0520  142.0070 C   0  0  0  0  0  2  0  0  0  0  0  0
  181.7270  179.3170  142.5610 C   0  0  2  0  0  3  0  0  0  0  0  0
  180.5670  179.6330  143.5010 C   0  0  0  0  0  2  0  0  0  0  0  0
  182.0740  176.7760  140.0520 O   0  0  0  0  0  0  0  0  0  0  0  0
  179.4810  180.1350  142.7550 O   0  0  0  0  0  0  0  0  0  0  0  0
  186.8240  178.8350  138.1570 C   0  0  0  0  0  3  0  0  0  0  0  0
  181.2910  178.2400  141.5780 C   0  0  2  0  0  3  0  0  0  0  0  0
  186.9650  177.1230  135.9300 C   0  0  0  0  0  0  0  0  0  0  0  0
  184.7130  178.2950  140.1370 C   0  0  0  0  0  3  0  0  0  0  0  0
  185.9660  176.9260  136.9160 C   0  0  0  0  0  0  0  0  0  0  0  0
  183.9020  178.8470  142.4000 C   0  0  2  0  0  3  0  0  0  0  0  0
  184.9920  175.9320  136.7580 O   0  0  0  0  0  0  0  0  0  0  0  0
  182.8100  178.8190  143.2790 O   0  0  0  0  0  0  0  0  0  0  0  0
  182.6990  175.7920  137.9690 C   0  0  0  0  0  2  0  0  0  0  0  0
  181.9810  176.9420  138.6650 C   0  0  1  0  0  3  0  0  0  0  0  0
  187.7580  179.0700  137.1490 C   0  0  0  0  0  3  0  0  0  0  0  0
  185.9180  177.7700  138.0440 C   0  0  0  0  0  0  0  0  0  0  0  0
  182.3340  178.0060  140.5680 N   0  0  1  0  0  0  0  0  0  0  0  0
  183.6950  177.9210  141.1710 C   0  0  1  0  0  3  0  0  0  0  0  0
  187.8220  178.2190  136.0430 C   0  0  0  0  0  3  0  0  0  0  0  0
  186.3550  178.2920  142.4690 C   0  0  0  0  0  3  0  0  0  0  0  0
  187.4420  177.6320  144.5410 C   0  0  0  0  0  0  0  0  0  0  0  0
  185.0740  178.1680  144.5250 C   0  0  0  0  0  3  0  0  0  0  0  0
  186.2180  177.7710  145.2180 C   0  0  0  0  0  3  0  0  0  0  0  0
  187.5010  177.8870  143.1640 C   0  0  0  0  0  3  0  0  0  0  0  0
  185.1370  178.4390  143.1480 C   0  0  0  0  0  0  0  0  0  0  0  0
  188.6040  177.2330  145.2100 O   0  0  0  0  0  0  0  0  0  0  0  0
  189.8830  177.5680  144.7610 C   0  0  0  0  0  3  0  0  0  0  0  0
  190.9430  176.9530  145.2520 C   0  0  0  0  0  2  0  0  0  0  0  0
  187.1650  176.2660  134.8400 O   0  0  0  0  0  0  0  0  0  0  0  0
  188.3540  175.5220  134.5940 C   0  0  0  0  0  2  0  0  0  0  0  0
  188.6820  174.6060  135.7730 C   0  0  2  0  0  3  0  0  0  0  0  0
  187.6250  172.5380  136.2630 O   0  0  0  0  0  0  0  0  0  0  0  0
  187.5090  173.7460  136.1500 C   0  0  0  0  0  3  0  0  0  0  0  0
  189.3090  175.3250  136.9810 C   0  0  0  0  0  2  0  0  0  0  0  0
  190.6700  175.9420  136.6660 C   0  0  1  0  0  3  0  0  0  0  0  0
  190.8190  177.1720  137.3160 O   0  0  0  0  0  1  0  0  0  0  0  0
  192.3810  171.3010  134.5950 C   0  0  0  0  0  2  0  0  0  0  0  0
  195.3260  175.6320  137.1120 O   0  0  0  0  0  1  0  0  0  0  0  0
  191.8490  174.9900  136.9600 C   0  0  1  0  0  0  0  0  0  0  0  0
  193.0930  176.1230  135.2460 O   0  0  0  0  0  0  0  0  0  0  0  0
  193.1150  175.3540  136.2010 C   0  0  0  0  0  0  0  0  0  0  0  0
  192.4770  172.6430  136.5130 O   0  0  0  0  0  0  0  0  0  0  0  0
  195.0400  173.7560  135.5670 C   0  0  1  0  0  3  0  0  0  0  0  0
  192.9670  172.2840  135.2640 C   0  0  0  0  0  0  0  0  0  0  0  0
  194.4060  174.7000  136.6130 C   0  0  1  0  0  3  0  0  0  0  0  0
  192.1260  175.0460  138.3280 O   0  0  0  0  0  1  0  0  0  0  0  0
  194.0430  173.0900  134.5960 C   0  0  0  0  0  2  0  0  0  0  0  0
  191.3850  173.5630  136.6260 C   0  0  0  0  0  2  0  0  0  0  0  0
  196.0370  174.4170  134.8410 O   0  0  0  0  0  0  0  0  0  0  0  0
  197.0710  173.4840  134.7500 C   0  0  0  0  0  1  0  0  0  0  0  0
  1 13  2  0  0  0  0
  2 16  1  0  0  0  0
  2 18  1  0  0  0  0
  4  5  1  0  0  0  0
  5  9  1  0  0  0  0
  6 17  1  0  0  0  0
  6  7  1  1  0  0  0
  9  7  1  0  0  0  0
 11  4  1  6  0  0  0
 11  6  1  0  0  0  0
 12 24  2  0  0  0  0
 12 14  1  0  0  0  0
 14 21  2  0  0  0  0
 15 30  1  1  0  0  0
 15 17  1  0  0  0  0
 16 14  1  0  0  0  0
 18 19  1  0  0  0  0
 19  3  1  6  0  0  0
 19  8  1  0  0  0  0
 20 10  2  0  0  0  0
 21 10  1  0  0  0  0
 21  1  1  0  0  0  0
 22  8  1  1  0  0  0
 22 23  1  0  0  0  0
 22 11  1  0  0  0  0
 23 13  1  6  0  0  0
 23 15  1  0  0  0  0
 24 20  1  0  0  0  0
 25 30  2  0  0  0  0
 25 29  1  0  0  0  0
 26 31  1  0  0  0  0
 26 28  1  0  0  0  0
 27 28  2  0  0  0  0
 29 26  2  0  0  0  0
 30 27  1  0  0  0  0
 32 31  1  0  0  0  0
 32 33  2  0  0  0  0
 34 12  1  0  0  0  0
 35 34  1  0  0  0  0
 36 35  1  6  0  0  0
 36 38  1  0  0  0  0
 36 39  1  0  0  0  0
 38 37  2  0  0  0  0
 40 44  1  0  0  0  0
 40 39  1  0  0  0  0
 40 41  1  1  0  0  0
 42 49  2  0  0  0  0
 44 51  1  1  0  0  0
 45 46  2  0  0  0  0
 46 50  1  0  0  0  0
 46 44  1  0  0  0  0
 47 53  1  0  0  0  0
 48 54  1  6  0  0  0
 48 50  1  0  0  0  0
 49 47  1  0  0  0  0
 50 43  1  6  0  0  0
 52 49  1  0  0  0  0
 52 48  1  0  0  0  0
 53 44  1  0  0  0  0
 55 54  1  0  0  0  0
M  END
>  <MODEL>
6

>  <REMARK>
 VINA RESULT:      -6.0      2.952      7.834
  Name = 
  11 active torsions:
  status: ('A' for Active; 'I' for Inactive)
    1  A    between atoms: C_6  and  C_20
    2  A    between atoms: C_8  and  C_43
    3  A    between atoms: O_10  and  C_18
    4  A    between atoms: O_10  and  C_32
    5  A    between atoms: O_11  and  C_29
    6  A    between atoms: C_20  and  C_22
    7  A    between atoms: C_22  and  C_43
    8  A    between atoms: C_27  and  O_54
    9  A    between atoms: C_33  and  C_52
   10  A    between atoms: C_43  and  C_51
   11  A    between atoms: C_51  and  O_54
                            x       y       z     vdW  Elec       q    Type
                         _______ _______ _______ _____ _____    ______ ____

>  <TORSDO>
F 11

$$$$
=
 OpenBabel11052415053D

 55 60  0  0  1  0  0  0  0  0999 V2000
  188.5020  175.9440  137.6390 C   0  0  0  0  0  3  0  0  0  0  0  0
  189.4570  178.1230  140.0550 S   0  0  0  0  0  0  0  0  0  0  0  0
  192.6290  177.1080  139.1950 C   0  0  0  0  0  1  0  0  0  0  0  0
  193.8340  175.5480  136.6460 C   0  0  0  0  0  2  0  0  0  0  0  0
  195.0550  174.8930  135.9960 C   0  0  0  0  0  2  0  0  0  0  0  0
  192.4910  174.1430  135.0820 C   0  0  2  0  0  3  0  0  0  0  0  0
  193.8330  173.6050  134.5940 C   0  0  0  0  0  2  0  0  0  0  0  0
  191.4480  175.2050  138.3470 O   0  0  0  0  0  0  0  0  0  0  0  0
  194.7940  174.6360  134.6320 O   0  0  0  0  0  0  0  0  0  0  0  0
  186.6180  177.1460  136.5310 C   0  0  0  0  0  3  0  0  0  0  0  0
  192.6350  174.6010  136.5260 C   0  0  2  0  0  3  0  0  0  0  0  0
  185.9030  178.3510  138.9700 C   0  0  0  0  0  0  0  0  0  0  0  0
  189.0170  175.4380  136.5270 C   0  0  0  0  0  3  0  0  0  0  0  0
  187.0530  177.5250  138.8950 C   0  0  0  0  0  0  0  0  0  0  0  0
  190.2930  173.7820  135.2190 C   0  0  2  0  0  3  0  0  0  0  0  0
  187.8880  177.3620  140.0070 O   0  0  0  0  0  0  0  0  0  0  0  0
  191.5280  173.1390  135.0520 O   0  0  0  0  0  0  0  0  0  0  0  0
  190.3510  176.5370  139.9960 C   0  0  0  0  0  2  0  0  0  0  0  0
  191.2860  176.5220  138.7930 C   0  0  1  0  0  3  0  0  0  0  0  0
  185.5310  178.0170  136.5910 C   0  0  0  0  0  3  0  0  0  0  0  0
  187.3900  176.9020  137.6760 C   0  0  0  0  0  0  0  0  0  0  0  0
  191.3990  175.2530  136.9890 N   0  0  1  0  0  0  0  0  0  0  0  0
  190.1780  174.4950  136.5930 C   0  0  1  0  0  3  0  0  0  0  0  0
  185.1820  178.6160  137.8040 C   0  0  0  0  0  3  0  0  0  0  0  0
  189.4730  171.4040  135.2180 C   0  0  0  0  0  3  0  0  0  0  0  0
  187.1470  170.8710  134.7490 C   0  0  0  0  0  0  0  0  0  0  0  0
  187.8910  173.1820  134.7490 C   0  0  0  0  0  3  0  0  0  0  0  0
  186.8730  172.2410  134.5940 C   0  0  0  0  0  3  0  0  0  0  0  0
  188.4520  170.4590  135.0550 C   0  0  0  0  0  3  0  0  0  0  0  0
  189.1950  172.7710  135.0710 C   0  0  0  0  0  0  0  0  0  0  0  0
  186.1470  169.9050  134.5970 O   0  0  0  0  0  0  0  0  0  0  0  0
  184.7960  170.1780  134.8190 C   0  0  0  0  0  3  0  0  0  0  0  0
  184.2930  170.1020  136.0370 C   0  0  0  0  0  2  0  0  0  0  0  0
  185.4230  178.9150  140.1590 O   0  0  0  0  0  0  0  0  0  0  0  0
  184.6940  178.2120  141.1590 C   0  0  0  0  0  2  0  0  0  0  0  0
  185.3870  178.3140  142.5180 C   0  0  2  0  0  3  0  0  0  0  0  0
  185.0410  179.5780  144.4970 O   0  0  0  0  0  0  0  0  0  0  0  0
  184.9270  179.5210  143.2850 C   0  0  0  0  0  3  0  0  0  0  0  0
  186.9190  178.1910  142.4600 C   0  0  0  0  0  2  0  0  0  0  0  0
  187.4760  177.2040  143.4850 C   0  0  1  0  0  3  0  0  0  0  0  0
  187.9410  176.0450  142.8560 O   0  0  0  0  0  1  0  0  0  0  0  0
  188.2330  177.4270  148.7890 C   0  0  0  0  0  2  0  0  0  0  0  0
  192.0630  177.4300  144.4210 O   0  0  0  0  0  1  0  0  0  0  0  0
  188.5480  177.8280  144.4050 C   0  0  1  0  0  0  0  0  0  0  0  0
  189.6700  175.7050  144.4140 O   0  0  0  0  0  0  0  0  0  0  0  0
  189.7270  176.9040  144.6630 C   0  0  0  0  0  0  0  0  0  0  0  0
  188.7840  178.4860  146.7740 O   0  0  0  0  0  0  0  0  0  0  0  0
  191.3090  176.9610  146.7010 C   0  0  1  0  0  3  0  0  0  0  0  0
  189.0360  177.5200  147.7390 C   0  0  0  0  0  0  0  0  0  0  0  0
  190.9650  177.4860  145.2880 C   0  0  1  0  0  3  0  0  0  0  0  0
  189.0260  178.9910  143.7940 O   0  0  0  0  0  1  0  0  0  0  0  0
  190.1010  176.4820  147.5340 C   0  0  0  0  0  2  0  0  0  0  0  0
  187.8530  178.2310  145.7170 C   0  0  0  0  0  2  0  0  0  0  0  0
  192.2690  175.9450  146.6330 O   0  0  0  0  0  0  0  0  0  0  0  0
  192.5270  175.6280  147.9670 C   0  0  0  0  0  1  0  0  0  0  0  0
  1 21  1  0  0  0  0
  5  4  1  0  0  0  0
  6  7  1  1  0  0  0
  6 11  1  0  0  0  0
  7  9  1  0  0  0  0
  8 19  1  0  0  0  0
  9  5  1  0  0  0  0
 10 20  2  0  0  0  0
 10 21  1  0  0  0  0
 11  4  1  6  0  0  0
 11 22  1  0  0  0  0
 12 34  1  0  0  0  0
 13  1  2  0  0  0  0
 14 12  1  0  0  0  0
 14 16  1  0  0  0  0
 15 30  1  1  0  0  0
 15 23  1  0  0  0  0
 16  2  1  0  0  0  0
 17  6  1  0  0  0  0
 17 15  1  0  0  0  0
 18  2  1  0  0  0  0
 19  3  1  1  0  0  0
 19 18  1  0  0  0  0
 20 24  1  0  0  0  0
 21 14  2  0  0  0  0
 22  8  1  1  0  0  0
 23 13  1  6  0  0  0
 23 22  1  0  0  0  0
 24 12  2  0  0  0  0
 26 29  1  0  0  0  0
 27 30  2  0  0  0  0
 28 27  1  0  0  0  0
 28 26  2  0  0  0  0
 29 25  2  0  0  0  0
 30 25  1  0  0  0  0
 31 26  1  0  0  0  0
 31 32  1  0  0  0  0
 32 33  2  0  0  0  0
 34 35  1  0  0  0  0
 36 35  1  6  0  0  0
 36 38  1  0  0  0  0
 38 37  2  0  0  0  0
 39 36  1  0  0  0  0
 39 40  1  0  0  0  0
 40 41  1  6  0  0  0
 40 44  1  0  0  0  0
 44 51  1  6  0  0  0
 44 46  1  0  0  0  0
 44 53  1  0  0  0  0
 45 46  2  0  0  0  0
 46 50  1  0  0  0  0
 47 49  1  0  0  0  0
 48 54  1  6  0  0  0
 48 52  1  0  0  0  0
 49 42  2  0  0  0  0
 50 43  1  6  0  0  0
 50 48  1  0  0  0  0
 52 49  1  0  0  0  0
 53 47  1  0  0  0  0
 54 55  1  0  0  0  0
M  END
>  <MODEL>
7

>  <REMARK>
 VINA RESULT:      -5.5      3.508      8.345
  Name = 
  11 active torsions:
  status: ('A' for Active; 'I' for Inactive)
    1  A    between atoms: C_6  and  C_20
    2  A    between atoms: C_8  and  C_43
    3  A    between atoms: O_10  and  C_18
    4  A    between atoms: O_10  and  C_32
    5  A    between atoms: O_11  and  C_29
    6  A    between atoms: C_20  and  C_22
    7  A    between atoms: C_22  and  C_43
    8  A    between atoms: C_27  and  O_54
    9  A    between atoms: C_33  and  C_52
   10  A    between atoms: C_43  and  C_51
   11  A    between atoms: C_51  and  O_54
                            x       y       z     vdW  Elec       q    Type
                         _______ _______ _______ _____ _____    ______ ____

>  <TORSDO>
F 11

$$$$
=
 OpenBabel11052415053D

 55 60  0  0  1  0  0  0  0  0999 V2000
  186.3440  177.7310  138.5870 C   0  0  0  0  0  3  0  0  0  0  0  0
  189.6140  176.9390  139.0050 S   0  0  0  0  0  0  0  0  0  0  0  0
  189.0130  177.7780  142.2850 C   0  0  0  0  0  1  0  0  0  0  0  0
  186.3180  178.1700  144.0070 C   0  0  0  0  0  2  0  0  0  0  0  0
  185.6890  178.5890  145.3380 C   0  0  0  0  0  2  0  0  0  0  0  0
  184.0640  178.6070  143.0290 C   0  0  2  0  0  3  0  0  0  0  0  0
  183.6530  179.0050  144.4440 C   0  0  0  0  0  2  0  0  0  0  0  0
  187.1920  178.9900  141.3120 O   0  0  0  0  0  0  0  0  0  0  0  0
  184.3340  178.1950  145.3750 O   0  0  0  0  0  0  0  0  0  0  0  0
  185.5570  175.9860  136.9870 C   0  0  0  0  0  3  0  0  0  0  0  0
  185.5580  178.8460  142.8600 C   0  0  2  0  0  3  0  0  0  0  0  0
  188.0910  175.9110  135.7670 C   0  0  0  0  0  0  0  0  0  0  0  0
  185.2440  177.7450  139.3270 C   0  0  0  0  0  3  0  0  0  0  0  0
  187.8730  176.7290  136.9040 C   0  0  0  0  0  0  0  0  0  0  0  0
  183.6020  178.7740  140.8520 C   0  0  2  0  0  3  0  0  0  0  0  0
  188.9300  177.4440  137.4810 O   0  0  0  0  0  0  0  0  0  0  0  0
  183.4030  179.3970  142.0930 O   0  0  0  0  0  0  0  0  0  0  0  0
  189.0190  178.4170  139.8870 C   0  0  0  0  0  2  0  0  0  0  0  0
  188.1420  177.9940  141.0590 C   0  0  1  0  0  3  0  0  0  0  0  0
  185.7940  175.1290  135.9130 C   0  0  0  0  0  3  0  0  0  0  0  0
  186.5940  176.7830  137.4940 C   0  0  0  0  0  0  0  0  0  0  0  0
  186.0190  178.3470  141.5550 N   0  0  1  0  0  0  0  0  0  0  0  0
  185.1000  178.7300  140.4470 C   0  0  1  0  0  3  0  0  0  0  0  0
  187.0550  175.0920  135.3130 C   0  0  0  0  0  3  0  0  0  0  0  0
  181.5350  179.0440  139.4430 C   0  0  0  0  0  3  0  0  0  0  0  0
  181.3390  180.8490  137.8250 C   0  0  0  0  0  0  0  0  0  0  0  0
  183.3480  180.6330  139.1700 C   0  0  0  0  0  3  0  0  0  0  0  0
  182.6180  181.3030  138.1880 C   0  0  0  0  0  3  0  0  0  0  0  0
  180.8060  179.7140  138.4520 C   0  0  0  0  0  3  0  0  0  0  0  0
  182.8080  179.5050  139.8100 C   0  0  0  0  0  0  0  0  0  0  0  0
  180.5850  181.4990  136.8420 O   0  0  0  0  0  0  0  0  0  0  0  0
  180.4550  182.8880  136.7880 C   0  0  0  0  0  3  0  0  0  0  0  0
  180.3860  183.5050  135.6240 C   0  0  0  0  0  2  0  0  0  0  0  0
  189.2900  175.8820  135.0440 O   0  0  0  0  0  0  0  0  0  0  0  0
  189.9590  174.6990  134.6190 C   0  0  0  0  0  2  0  0  0  0  0  0
  190.6050  173.9800  135.8030 C   0  0  2  0  0  3  0  0  0  0  0  0
  188.8870  172.4770  136.4550 O   0  0  0  0  0  0  0  0  0  0  0  0
  189.5740  173.4390  136.7520 C   0  0  0  0  0  3  0  0  0  0  0  0
  191.7060  174.7870  136.5130 C   0  0  0  0  0  2  0  0  0  0  0  0
  192.9430  175.0010  135.6420 C   0  0  1  0  0  3  0  0  0  0  0  0
  193.3290  176.3450  135.6510 O   0  0  0  0  0  1  0  0  0  0  0  0
  198.2570  175.1390  134.9400 C   0  0  0  0  0  2  0  0  0  0  0  0
  195.0620  172.7130  139.1420 O   0  0  0  0  0  1  0  0  0  0  0  0
  194.1130  174.0640  136.0120 C   0  0  1  0  0  0  0  0  0  0  0  0
  194.4230  175.3620  138.0090 O   0  0  0  0  0  0  0  0  0  0  0  0
  194.6760  174.3290  137.3990 C   0  0  0  0  0  0  0  0  0  0  0  0
  196.4590  173.6910  135.3340 O   0  0  0  0  0  0  0  0  0  0  0  0
  197.0610  173.7830  138.2210 C   0  0  1  0  0  3  0  0  0  0  0  0
  197.4580  174.5330  135.8050 C   0  0  0  0  0  0  0  0  0  0  0  0
  195.6060  173.3090  137.9960 C   0  0  1  0  0  3  0  0  0  0  0  0
  193.6480  172.7470  135.9700 O   0  0  0  0  0  1  0  0  0  0  0  0
  197.5440  174.8900  137.2610 C   0  0  0  0  0  2  0  0  0  0  0  0
  195.1930  174.2230  134.9290 C   0  0  0  0  0  2  0  0  0  0  0  0
  197.2510  174.1900  139.5460 O   0  0  0  0  0  0  0  0  0  0  0  0
  197.6870  175.5110  139.4390 C   0  0  0  0  0  1  0  0  0  0  0  0
  1 13  2  0  0  0  0
  2 18  1  0  0  0  0
  4  5  1  0  0  0  0
  5  9  1  0  0  0  0
  6  7  1  1  0  0  0
  7  9  1  0  0  0  0
 10 21  1  0  0  0  0
 11  6  1  0  0  0  0
 11  4  1  1  0  0  0
 12 14  1  0  0  0  0
 14 16  1  0  0  0  0
 14 21  2  0  0  0  0
 15 30  1  6  0  0  0
 15 17  1  0  0  0  0
 16  2  1  0  0  0  0
 17  6  1  0  0  0  0
 18 19  1  0  0  0  0
 19  8  1  0  0  0  0
 19  3  1  1  0  0  0
 20 10  2  0  0  0  0
 21  1  1  0  0  0  0
 22  8  1  6  0  0  0
 22 11  1  0  0  0  0
 23 13  1  6  0  0  0
 23 15  1  0  0  0  0
 23 22  1  0  0  0  0
 24 12  2  0  0  0  0
 24 20  1  0  0  0  0
 25 30  1  0  0  0  0
 26 28  2  0  0  0  0
 26 29  1  0  0  0  0
 27 30  2  0  0  0  0
 28 27  1  0  0  0  0
 29 25  2  0  0  0  0
 31 26  1  0  0  0  0
 32 31  1  0  0  0  0
 33 32  2  0  0  0  0
 34 12  1  0  0  0  0
 35 34  1  0  0  0  0
 36 35  1  6  0  0  0
 36 39  1  0  0  0  0
 36 38  1  0  0  0  0
 37 38  2  0  0  0  0
 40 41  1  1  0  0  0
 40 44  1  0  0  0  0
 40 39  1  0  0  0  0
 42 49  2  0  0  0  0
 44 51  1  6  0  0  0
 44 46  1  0  0  0  0
 46 50  1  0  0  0  0
 46 45  2  0  0  0  0
 47 49  1  0  0  0  0
 48 54  1  1  0  0  0
 49 52  1  0  0  0  0
 50 48  1  0  0  0  0
 50 43  1  1  0  0  0
 52 48  1  0  0  0  0
 53 47  1  0  0  0  0
 53 44  1  0  0  0  0
 55 54  1  0  0  0  0
M  END
>  <MODEL>
8

>  <REMARK>
 VINA RESULT:      -5.4      3.421      8.190
  Name = 
  11 active torsions:
  status: ('A' for Active; 'I' for Inactive)
    1  A    between atoms: C_6  and  C_20
    2  A    between atoms: C_8  and  C_43
    3  A    between atoms: O_10  and  C_18
    4  A    between atoms: O_10  and  C_32
    5  A    between atoms: O_11  and  C_29
    6  A    between atoms: C_20  and  C_22
    7  A    between atoms: C_22  and  C_43
    8  A    between atoms: C_27  and  O_54
    9  A    between atoms: C_33  and  C_52
   10  A    between atoms: C_43  and  C_51
   11  A    between atoms: C_51  and  O_54
                            x       y       z     vdW  Elec       q    Type
                         _______ _______ _______ _____ _____    ______ ____

>  <TORSDO>
F 11

$$$$
