=
 OpenBabel11052415163D

 37 44  0  0  1  0  0  0  0  0999 V2000
  184.0850  175.6810  137.5870 C   0  0  0  0  0  2  0  0  0  0  0  0
  181.6090  178.1570  141.0710 C   0  0  0  0  0  0  0  0  0  0  0  0
  184.3120  176.4420  136.2940 C   0  0  1  0  0  3  0  0  0  0  0  0
  184.5950  179.4030  140.4930 C   0  0  0  0  0  2  0  0  0  0  0  0
  180.3470  176.7150  139.5490 C   0  0  0  0  0  2  0  0  0  0  0  0
  182.8550  177.4580  140.6450 C   0  0  2  0  0  3  0  0  0  0  0  0
  185.4800  174.7390  135.1210 C   0  0  0  0  0  1  0  0  0  0  0  0
  180.4680  177.8220  140.5400 C   0  0  0  0  0  0  0  0  0  0  0  0
  184.1510  178.1050  141.1860 C   0  0  2  0  0  3  0  0  0  0  0  0
  179.4330  178.6690  141.0010 N   0  0  0  0  0  0  0  0  0  0  0  0
  185.7640  176.6010  136.5160 C   0  0  1  0  0  3  0  0  0  0  0  0
  181.6410  176.5300  138.7030 C   0  0  2  0  0  3  0  0  0  0  0  0
  181.8100  179.0020  143.6410 S   0  0  0  0  0  0  0  0  0  0  0  0
  185.2780  176.1760  135.2100 N   0  0  0  0  0  0  0  0  0  0  0  0
  179.9380  179.5370  141.7810 N   0  0  0  0  0  0  0  0  0  0  0  0
  185.7070  178.0230  137.0190 C   0  0  1  0  0  3  0  0  0  0  0  0
  184.7040  179.2850  138.9680 C   0  0  0  0  0  2  0  0  0  0  0  0
  181.3850  179.3640  141.9130 C   0  0  2  0  0  3  0  0  0  0  0  0
  182.8290  177.3080  139.1710 N   0  0  2  0  0  0  0  0  0  0  0  0
  184.2530  178.1220  142.7180 C   0  0  2  0  0  3  0  0  0  0  0  0
  185.2020  177.9130  138.4880 C   0  0  1  0  0  3  0  0  0  0  0  0
  184.1340  176.7540  138.7280 C   0  0  2  0  0  3  0  0  0  0  0  0
  183.5770  179.3270  143.3660 C   0  0  0  0  0  2  0  0  0  0  0  0
  185.9420  177.8960  144.5430 C   0  0  0  0  0  3  0  0  0  0  0  0
  185.6720  177.9770  143.1720 C   0  0  0  0  0  0  0  0  0  0  0  0
  186.7300  177.8970  142.2530 C   0  0  0  0  0  3  0  0  0  0  0  0
  189.0620  177.6680  141.8160 F   0  0  0  0  0  0  0  0  0  0  0  0
  188.3060  177.6670  144.0760 C   0  0  0  0  0  3  0  0  0  0  0  0
  188.0440  177.7440  142.7050 C   0  0  0  0  0  0  0  0  0  0  0  0
  187.2560  177.7430  144.9950 C   0  0  0  0  0  3  0  0  0  0  0  0
  187.0950  178.6400  136.9930 C   0  0  0  0  0  2  0  0  0  0  0  0
  187.7420  178.4110  138.2080 O   0  0  0  0  0  1  0  0  0  0  0  0
  181.3090  176.9360  137.2700 C   0  0  0  0  0  2  0  0  0  0  0  0
  181.1500  178.7590  135.7860 C   0  0  0  0  0  0  0  0  0  0  0  0
  181.3460  178.4460  137.1120 C   0  0  1  0  0  3  0  0  0  0  0  0
  180.0910  178.9160  136.8330 O   0  0  0  0  0  0  0  0  0  0  0  0
  181.5460  178.8410  134.5940 O   0  0  0  0  0  0  0  0  0  0  0  0
  1 22  1  0  0  0  0
  3 11  1  0  0  0  0
  3  1  1  1  0  0  0
  5  8  1  0  0  0  0
  6  2  1  6  0  0  0
  6  9  1  0  0  0  0
  7 14  1  0  0  0  0
  8 10  1  0  0  0  0
  8  2  2  0  0  0  0
  9  4  1  1  0  0  0
  9 20  1  0  0  0  0
 10 15  2  0  0  0  0
 11 14  1  6  0  0  0
 11 16  1  0  0  0  0
 12 33  1  6  0  0  0
 12 19  1  0  0  0  0
 12  5  1  0  0  0  0
 14  3  1  0  0  0  0
 15 18  1  0  0  0  0
 16 31  1  1  0  0  0
 16 21  1  0  0  0  0
 17  4  1  0  0  0  0
 18  2  1  6  0  0  0
 18 13  1  0  0  0  0
 19  6  1  0  0  0  0
 20 25  1  0  0  0  0
 20 23  1  0  0  0  0
 21 22  1  0  0  0  0
 21 17  1  0  0  0  0
 22 19  1  0  0  0  0
 23 13  1  0  0  0  0
 24 30  1  0  0  0  0
 25 24  2  0  0  0  0
 26 29  2  0  0  0  0
 26 25  1  0  0  0  0
 27 29  1  0  0  0  0
 28 30  2  0  0  0  0
 29 28  1  0  0  0  0
 31 32  1  0  0  0  0
 34 36  1  0  0  0  0
 34 35  1  0  0  0  0
 35 33  1  0  0  0  0
 36 35  1  0  0  0  0
 37 34  2  0  0  0  0
M  END
>  <MODEL>
1

>  <REMARK>
 VINA RESULT:      -7.0      0.000      0.000
  Name = 
  4 active torsions:
  status: ('A' for Active; 'I' for Inactive)
    1  A    between atoms: C_6  and  C_31
    2  A    between atoms: C_11  and  C_26
    3  A    between atoms: C_20  and  C_25
    4  A    between atoms: C_21  and  C_25
                            x       y       z     vdW  Elec       q    Type
                         _______ _______ _______ _____ _____    ______ ____

>  <TORSDO>
F 4

$$$$
=
 OpenBabel11052415163D

 37 44  0  0  1  0  0  0  0  0999 V2000
  187.8810  178.4140  136.9630 C   0  0  0  0  0  2  0  0  0  0  0  0
  185.1480  178.5670  141.0760 C   0  0  0  0  0  0  0  0  0  0  0  0
  188.2890  177.0250  136.5130 C   0  0  1  0  0  3  0  0  0  0  0  0
  183.5600  177.2170  138.5340 C   0  0  0  0  0  2  0  0  0  0  0  0
  187.5750  178.7950  141.2830 C   0  0  0  0  0  2  0  0  0  0  0  0
  185.2780  178.8610  139.6200 C   0  0  2  0  0  3  0  0  0  0  0  0
  189.5330  177.6630  134.5940 C   0  0  0  0  0  1  0  0  0  0  0  0
  186.2130  178.5150  141.8220 C   0  0  0  0  0  0  0  0  0  0  0  0
  183.9670  178.6700  138.8230 C   0  0  2  0  0  3  0  0  0  0  0  0
  185.8840  178.1250  143.1410 N   0  0  0  0  0  0  0  0  0  0  0  0
  187.4010  177.0270  135.3330 C   0  0  1  0  0  3  0  0  0  0  0  0
  187.7060  178.4240  139.7760 C   0  0  2  0  0  3  0  0  0  0  0  0
  182.7660  179.4540  142.0250 S   0  0  0  0  0  0  0  0  0  0  0  0
  188.7790  176.5750  135.1950 N   0  0  0  0  0  0  0  0  0  0  0  0
  184.6320  177.9060  143.1970 N   0  0  0  0  0  0  0  0  0  0  0  0
  186.2960  176.2030  135.9450 C   0  0  1  0  0  3  0  0  0  0  0  0
  184.6650  176.3860  137.8690 C   0  0  0  0  0  2  0  0  0  0  0  0
  183.9910  178.1200  141.8990 C   0  0  2  0  0  3  0  0  0  0  0  0
  186.4240  178.0860  139.0860 N   0  0  2  0  0  0  0  0  0  0  0  0
  182.8200  179.5860  139.2730 C   0  0  2  0  0  3  0  0  0  0  0  0
  185.5310  177.1830  136.8830 C   0  0  1  0  0  3  0  0  0  0  0  0
  186.4620  178.2530  137.6110 C   0  0  2  0  0  3  0  0  0  0  0  0
  182.0020  179.0230  140.4330 C   0  0  0  0  0  2  0  0  0  0  0  0
  181.6170  179.0050  137.1630 C   0  0  0  0  0  3  0  0  0  0  0  0
  181.9460  179.9720  138.1210 C   0  0  0  0  0  0  0  0  0  0  0  0
  181.4320  181.2720  137.9960 C   0  0  0  0  0  3  0  0  0  0  0  0
  180.1100  182.8550  136.8010 F   0  0  0  0  0  0  0  0  0  0  0  0
  180.2820  180.6300  135.9640 C   0  0  0  0  0  3  0  0  0  0  0  0
  180.6030  181.6000  136.9180 C   0  0  0  0  0  0  0  0  0  0  0  0
  180.7880  179.3330  136.0860 C   0  0  0  0  0  3  0  0  0  0  0  0
  185.3650  175.6920  134.8590 C   0  0  0  0  0  2  0  0  0  0  0  0
  185.2630  174.3020  134.9320 O   0  0  0  0  0  1  0  0  0  0  0  0
  188.6550  177.2330  139.6820 C   0  0  0  0  0  2  0  0  0  0  0  0
  190.5440  176.7760  141.0140 C   0  0  0  0  0  0  0  0  0  0  0  0
  190.0710  177.6380  140.0510 C   0  0  1  0  0  3  0  0  0  0  0  0
  190.9600  176.7120  139.5770 O   0  0  0  0  0  0  0  0  0  0  0  0
  190.5890  176.3480  142.1960 O   0  0  0  0  0  0  0  0  0  0  0  0
  1 22  1  0  0  0  0
  2  8  2  0  0  0  0
  3  1  1  6  0  0  0
  5  8  1  0  0  0  0
  6  2  1  1  0  0  0
  7 14  1  0  0  0  0
  8 10  1  0  0  0  0
  9  4  1  1  0  0  0
  9 20  1  0  0  0  0
  9  6  1  0  0  0  0
 10 15  2  0  0  0  0
 11 14  1  6  0  0  0
 11 16  1  0  0  0  0
 11  3  1  0  0  0  0
 12 33  1  1  0  0  0
 12  5  1  0  0  0  0
 14  3  1  0  0  0  0
 16 31  1  6  0  0  0
 16 21  1  0  0  0  0
 17  4  1  0  0  0  0
 18  2  1  6  0  0  0
 18 13  1  0  0  0  0
 18 15  1  0  0  0  0
 19  6  1  0  0  0  0
 19 12  1  0  0  0  0
 20 23  1  0  0  0  0
 21 22  1  0  0  0  0
 21 17  1  0  0  0  0
 22 19  1  0  0  0  0
 23 13  1  0  0  0  0
 24 25  1  0  0  0  0
 25 20  1  0  0  0  0
 26 25  2  0  0  0  0
 27 29  1  0  0  0  0
 28 30  1  0  0  0  0
 28 29  2  0  0  0  0
 29 26  1  0  0  0  0
 30 24  2  0  0  0  0
 31 32  1  0  0  0  0
 33 35  1  0  0  0  0
 34 37  2  0  0  0  0
 35 34  1  0  0  0  0
 36 35  1  0  0  0  0
 36 34  1  0  0  0  0
M  END
>  <MODEL>
2

>  <REMARK>
 VINA RESULT:      -6.3      3.304      6.721
  Name = 
  4 active torsions:
  status: ('A' for Active; 'I' for Inactive)
    1  A    between atoms: C_6  and  C_31
    2  A    between atoms: C_11  and  C_26
    3  A    between atoms: C_20  and  C_25
    4  A    between atoms: C_21  and  C_25
                            x       y       z     vdW  Elec       q    Type
                         _______ _______ _______ _____ _____    ______ ____

>  <TORSDO>
F 4

$$$$
=
 OpenBabel11052415163D

 37 44  0  0  1  0  0  0  0  0999 V2000
  186.6790  178.8030  138.3740 C   0  0  0  0  0  2  0  0  0  0  0  0
  183.0220  179.0010  141.6890 C   0  0  0  0  0  0  0  0  0  0  0  0
  187.2730  177.4250  138.1510 C   0  0  1  0  0  3  0  0  0  0  0  0
  182.1920  177.3620  138.9640 C   0  0  0  0  0  2  0  0  0  0  0  0
  185.3060  179.4400  142.4490 C   0  0  0  0  0  2  0  0  0  0  0  0
  183.4850  179.2080  140.2870 C   0  0  2  0  0  3  0  0  0  0  0  0
  188.9040  178.0360  136.5370 C   0  0  0  0  0  1  0  0  0  0  0  0
  183.8750  179.0860  142.6690 C   0  0  0  0  0  0  0  0  0  0  0  0
  182.4230  178.8590  139.2200 C   0  0  2  0  0  3  0  0  0  0  0  0
  183.2590  178.7570  143.8990 N   0  0  0  0  0  0  0  0  0  0  0  0
  186.7010  177.2780  136.7970 C   0  0  1  0  0  3  0  0  0  0  0  0
  185.8240  178.9830  141.0530 C   0  0  2  0  0  3  0  0  0  0  0  0
  180.4300  179.7510  141.9660 S   0  0  0  0  0  0  0  0  0  0  0  0
  188.0970  176.9320  137.0310 N   0  0  0  0  0  0  0  0  0  0  0  0
  182.0480  178.4410  143.6740 N   0  0  0  0  0  0  0  0  0  0  0  0
  185.5340  176.4080  137.1950 C   0  0  1  0  0  3  0  0  0  0  0  0
  183.4750  176.5820  138.6530 C   0  0  0  0  0  2  0  0  0  0  0  0
  181.7310  178.5160  142.2470 C   0  0  2  0  0  3  0  0  0  0  0  0
  184.7730  178.4970  140.1080 N   0  0  2  0  0  0  0  0  0  0  0  0
  181.1440  179.7060  139.3050 C   0  0  2  0  0  3  0  0  0  0  0  0
  184.5030  177.3810  137.8390 C   0  0  1  0  0  3  0  0  0  0  0  0
  185.1590  178.5690  138.6760 C   0  0  2  0  0  3  0  0  0  0  0  0
  180.1060  179.1550  140.2790 C   0  0  0  0  0  2  0  0  0  0  0  0
  179.5120  179.1200  137.5090 C   0  0  0  0  0  3  0  0  0  0  0  0
  180.5550  179.9430  137.9500 C   0  0  0  0  0  0  0  0  0  0  0  0
  181.0090  180.9850  137.1260 C   0  0  0  0  0  3  0  0  0  0  0  0
  180.8690  182.2000  135.0810 F   0  0  0  0  0  0  0  0  0  0  0  0
  179.3890  180.3660  135.4370 C   0  0  0  0  0  3  0  0  0  0  0  0
  180.4270  181.1940  135.8720 C   0  0  0  0  0  0  0  0  0  0  0  0
  178.9310  179.3290  136.2550 C   0  0  0  0  0  3  0  0  0  0  0  0
  184.9310  175.7530  135.9650 C   0  0  0  0  0  2  0  0  0  0  0  0
  185.6480  176.1230  134.8260 O   0  0  0  0  0  1  0  0  0  0  0  0
  186.8410  177.8700  141.2870 C   0  0  0  0  0  2  0  0  0  0  0  0
  188.2030  176.8540  142.9190 C   0  0  0  0  0  0  0  0  0  0  0  0
  187.4660  177.9890  142.6660 C   0  0  1  0  0  3  0  0  0  0  0  0
  188.8180  178.1690  142.5510 O   0  0  0  0  0  0  0  0  0  0  0  0
  188.2980  175.6350  143.2180 O   0  0  0  0  0  0  0  0  0  0  0  0
  1 22  1  0  0  0  0
  2  8  2  0  0  0  0
  3  1  1  6  0  0  0
  5  8  1  0  0  0  0
  6  2  1  1  0  0  0
  7 14  1  0  0  0  0
  8 10  1  0  0  0  0
  9  4  1  1  0  0  0
  9 20  1  0  0  0  0
  9  6  1  0  0  0  0
 11 14  1  6  0  0  0
 11 16  1  0  0  0  0
 11  3  1  0  0  0  0
 12 33  1  1  0  0  0
 12  5  1  0  0  0  0
 13 18  1  0  0  0  0
 14  3  1  0  0  0  0
 15 10  2  0  0  0  0
 16 31  1  6  0  0  0
 16 21  1  0  0  0  0
 17  4  1  0  0  0  0
 18  2  1  6  0  0  0
 18 15  1  0  0  0  0
 19  6  1  0  0  0  0
 19 12  1  0  0  0  0
 20 23  1  0  0  0  0
 21 17  1  0  0  0  0
 21 22  1  0  0  0  0
 22 19  1  0  0  0  0
 23 13  1  0  0  0  0
 24 25  1  0  0  0  0
 25 20  1  0  0  0  0
 26 25  2  0  0  0  0
 27 29  1  0  0  0  0
 28 29  2  0  0  0  0
 28 30  1  0  0  0  0
 29 26  1  0  0  0  0
 30 24  2  0  0  0  0
 32 31  1  0  0  0  0
 33 35  1  0  0  0  0
 34 37  2  0  0  0  0
 35 34  1  0  0  0  0
 36 35  1  0  0  0  0
 36 34  1  0  0  0  0
M  END
>  <MODEL>
3

>  <REMARK>
 VINA RESULT:      -6.0      2.971      6.496
  Name = 
  4 active torsions:
  status: ('A' for Active; 'I' for Inactive)
    1  A    between atoms: C_6  and  C_31
    2  A    between atoms: C_11  and  C_26
    3  A    between atoms: C_20  and  C_25
    4  A    between atoms: C_21  and  C_25
                            x       y       z     vdW  Elec       q    Type
                         _______ _______ _______ _____ _____    ______ ____

>  <TORSDO>
F 4

$$$$
=
 OpenBabel11052415163D

 37 44  0  0  1  0  0  0  0  0999 V2000
  187.0060  178.5080  137.1970 C   0  0  0  0  0  2  0  0  0  0  0  0
  184.9850  178.6320  141.7030 C   0  0  0  0  0  0  0  0  0  0  0  0
  187.3840  177.1250  136.6990 C   0  0  1  0  0  3  0  0  0  0  0  0
  183.0490  177.1890  139.4710 C   0  0  0  0  0  2  0  0  0  0  0  0
  187.4030  178.9440  141.5040 C   0  0  0  0  0  2  0  0  0  0  0  0
  184.8620  178.9070  140.2420 C   0  0  2  0  0  3  0  0  0  0  0  0
  188.2710  177.7750  134.5940 C   0  0  0  0  0  1  0  0  0  0  0  0
  186.1590  178.6270  142.2630 C   0  0  0  0  0  0  0  0  0  0  0  0
  183.4460  178.6590  139.6750 C   0  0  2  0  0  3  0  0  0  0  0  0
  186.0660  178.2470  143.6220 N   0  0  0  0  0  0  0  0  0  0  0  0
  186.3140  177.0800  135.6810 C   0  0  1  0  0  3  0  0  0  0  0  0
  187.2970  178.5550  139.9990 C   0  0  2  0  0  3  0  0  0  0  0  0
  182.7620  179.4520  143.0240 S   0  0  0  0  0  0  0  0  0  0  0  0
  187.6660  176.6720  135.3220 N   0  0  0  0  0  0  0  0  0  0  0  0
  184.8490  177.9870  143.8860 N   0  0  0  0  0  0  0  0  0  0  0  0
  185.3550  176.2280  136.4760 C   0  0  1  0  0  3  0  0  0  0  0  0
  184.0580  176.3850  138.6420 C   0  0  0  0  0  2  0  0  0  0  0  0
  183.9960  178.1580  142.7100 C   0  0  2  0  0  3  0  0  0  0  0  0
  185.9320  178.1630  139.5340 N   0  0  2  0  0  0  0  0  0  0  0  0
  182.3560  179.5430  140.2990 C   0  0  2  0  0  3  0  0  0  0  0  0
  184.7210  177.1960  137.5180 C   0  0  1  0  0  3  0  0  0  0  0  0
  185.7200  178.3090  138.0710 C   0  0  2  0  0  3  0  0  0  0  0  0
  181.7620  178.9710  141.5840 C   0  0  0  0  0  2  0  0  0  0  0  0
  179.9480  179.7990  139.6910 C   0  0  0  0  0  3  0  0  0  0  0  0
  181.2910  179.8810  139.3040 C   0  0  0  0  0  0  0  0  0  0  0  0
  181.6110  180.3010  138.0030 C   0  0  0  0  0  3  0  0  0  0  0  0
  180.9090  181.0320  135.8460 F   0  0  0  0  0  0  0  0  0  0  0  0
  179.2570  180.5400  137.4920 C   0  0  0  0  0  3  0  0  0  0  0  0
  180.5950  180.6280  137.1000 C   0  0  0  0  0  0  0  0  0  0  0  0
  178.9330  180.1260  138.7870 C   0  0  0  0  0  3  0  0  0  0  0  0
  184.2770  175.6700  135.5630 C   0  0  0  0  0  2  0  0  0  0  0  0
  184.6770  174.4350  135.0510 O   0  0  0  0  0  1  0  0  0  0  0  0
  188.2600  177.3950  139.7610 C   0  0  0  0  0  2  0  0  0  0  0  0
  190.4830  177.1220  140.4900 C   0  0  0  0  0  0  0  0  0  0  0  0
  189.6920  177.8910  139.6670 C   0  0  1  0  0  3  0  0  0  0  0  0
  190.4600  176.9760  139.0000 O   0  0  0  0  0  0  0  0  0  0  0  0
  190.9040  176.7820  141.6260 O   0  0  0  0  0  0  0  0  0  0  0  0
  1 22  1  0  0  0  0
  2  8  2  0  0  0  0
  3  1  1  6  0  0  0
  5  8  1  0  0  0  0
  6  2  1  1  0  0  0
  7 14  1  0  0  0  0
  8 10  1  0  0  0  0
  9  4  1  1  0  0  0
  9  6  1  0  0  0  0
  9 20  1  0  0  0  0
 10 15  2  0  0  0  0
 11 14  1  6  0  0  0
 11 16  1  0  0  0  0
 11  3  1  0  0  0  0
 12 33  1  1  0  0  0
 12  5  1  0  0  0  0
 14  3  1  0  0  0  0
 16 31  1  6  0  0  0
 16 21  1  0  0  0  0
 17  4  1  0  0  0  0
 18  2  1  6  0  0  0
 18 13  1  0  0  0  0
 18 15  1  0  0  0  0
 19 12  1  0  0  0  0
 19  6  1  0  0  0  0
 20 23  1  0  0  0  0
 21 22  1  0  0  0  0
 21 17  1  0  0  0  0
 22 19  1  0  0  0  0
 23 13  1  0  0  0  0
 25 24  1  0  0  0  0
 25 20  1  0  0  0  0
 26 25  2  0  0  0  0
 27 29  1  0  0  0  0
 28 30  1  0  0  0  0
 29 28  2  0  0  0  0
 29 26  1  0  0  0  0
 30 24  2  0  0  0  0
 32 31  1  0  0  0  0
 34 37  2  0  0  0  0
 35 33  1  0  0  0  0
 35 34  1  0  0  0  0
 36 35  1  0  0  0  0
 36 34  1  0  0  0  0
M  END
>  <MODEL>
4

>  <REMARK>
 VINA RESULT:      -5.8      3.129      6.398
  Name = 
  4 active torsions:
  status: ('A' for Active; 'I' for Inactive)
    1  A    between atoms: C_6  and  C_31
    2  A    between atoms: C_11  and  C_26
    3  A    between atoms: C_20  and  C_25
    4  A    between atoms: C_21  and  C_25
                            x       y       z     vdW  Elec       q    Type
                         _______ _______ _______ _____ _____    ______ ____

>  <TORSDO>
F 4

$$$$
=
 OpenBabel11052415163D

 37 44  0  0  1  0  0  0  0  0999 V2000
  188.1450  176.6400  143.4770 C   0  0  0  0  0  2  0  0  0  0  0  0
  191.6200  176.9300  139.9780 C   0  0  0  0  0  0  0  0  0  0  0  0
  187.7160  177.9680  144.0700 C   0  0  1  0  0  3  0  0  0  0  0  0
  188.7420  178.2070  139.0330 C   0  0  0  0  0  2  0  0  0  0  0  0
  192.3270  176.5650  142.2910 C   0  0  0  0  0  2  0  0  0  0  0  0
  190.2380  176.5340  140.3730 C   0  0  2  0  0  3  0  0  0  0  0  0
  186.1250  177.1280  145.6190 C   0  0  0  0  0  1  0  0  0  0  0  0
  192.5630  176.9640  140.8740 C   0  0  0  0  0  0  0  0  0  0  0  0
  189.1830  176.7540  139.2640 C   0  0  2  0  0  3  0  0  0  0  0  0
  193.7650  177.4600  140.3190 N   0  0  0  0  0  0  0  0  0  0  0  0
  186.3820  177.9430  143.4370 C   0  0  1  0  0  3  0  0  0  0  0  0
  190.8610  176.8260  142.7460 C   0  0  2  0  0  3  0  0  0  0  0  0
  192.1110  176.2590  137.3950 S   0  0  0  0  0  0  0  0  0  0  0  0
  186.5030  178.2980  144.8450 N   0  0  0  0  0  0  0  0  0  0  0  0
  193.5550  177.7600  139.1010 N   0  0  0  0  0  0  0  0  0  0  0  0
  186.7140  178.8740  142.2960 C   0  0  1  0  0  3  0  0  0  0  0  0
  188.2740  178.9220  140.3060 C   0  0  0  0  0  2  0  0  0  0  0  0
  192.1670  177.5030  138.7170 C   0  0  2  0  0  3  0  0  0  0  0  0
  189.9080  177.1980  141.6560 N   0  0  2  0  0  0  0  0  0  0  0  0
  189.4380  175.9440  137.9850 C   0  0  2  0  0  3  0  0  0  0  0  0
  187.5260  178.0090  141.2890 C   0  0  1  0  0  3  0  0  0  0  0  0
  188.4820  176.9320  141.9740 C   0  0  2  0  0  3  0  0  0  0  0  0
  190.3770  176.6320  136.9980 C   0  0  0  0  0  2  0  0  0  0  0  0
  188.0220  174.2330  136.8440 C   0  0  0  0  0  3  0  0  0  0  0  0
  188.1540  175.5380  137.3310 C   0  0  0  0  0  0  0  0  0  0  0  0
  187.0760  176.4300  137.2190 C   0  0  0  0  0  3  0  0  0  0  0  0
  184.8450  176.8820  136.5120 F   0  0  0  0  0  0  0  0  0  0  0  0
  185.7590  174.7140  136.1320 C   0  0  0  0  0  3  0  0  0  0  0  0
  185.8820  176.0180  136.6190 C   0  0  0  0  0  0  0  0  0  0  0  0
  186.8280  173.8210  136.2440 C   0  0  0  0  0  3  0  0  0  0  0  0
  185.4360  179.3700  141.6410 C   0  0  0  0  0  2  0  0  0  0  0  0
  184.3830  178.5000  141.9290 O   0  0  0  0  0  1  0  0  0  0  0  0
  190.8990  177.9460  143.7820 C   0  0  0  0  0  2  0  0  0  0  0  0
  190.7180  177.1280  145.9840 C   0  0  0  0  0  0  0  0  0  0  0  0
  191.6390  177.5030  145.0320 C   0  0  1  0  0  3  0  0  0  0  0  0
  191.5230  176.1490  145.1870 O   0  0  0  0  0  0  0  0  0  0  0  0
  189.8500  177.3940  146.8540 O   0  0  0  0  0  0  0  0  0  0  0  0
  2  8  2  0  0  0  0
  3  1  1  1  0  0  0
  3 14  1  0  0  0  0
  4 17  1  0  0  0  0
  5 12  1  0  0  0  0
  6  2  1  6  0  0  0
  6 19  1  0  0  0  0
  8  5  1  0  0  0  0
  9  4  1  6  0  0  0
  9  6  1  0  0  0  0
 10  8  1  0  0  0  0
 11  3  1  0  0  0  0
 11 14  1  1  0  0  0
 12 33  1  1  0  0  0
 14  7  1  0  0  0  0
 15 10  2  0  0  0  0
 16 31  1  6  0  0  0
 16 11  1  0  0  0  0
 17 21  1  0  0  0  0
 18 13  1  6  0  0  0
 18 15  1  0  0  0  0
 18  2  1  0  0  0  0
 19 22  1  0  0  0  0
 19 12  1  0  0  0  0
 20  9  1  0  0  0  0
 21 22  1  0  0  0  0
 21 16  1  0  0  0  0
 22  1  1  0  0  0  0
 23 13  1  0  0  0  0
 23 20  1  0  0  0  0
 24 25  1  0  0  0  0
 25 20  1  0  0  0  0
 26 25  2  0  0  0  0
 27 29  1  0  0  0  0
 28 30  1  0  0  0  0
 28 29  2  0  0  0  0
 29 26  1  0  0  0  0
 30 24  2  0  0  0  0
 31 32  1  0  0  0  0
 33 35  1  0  0  0  0
 34 37  2  0  0  0  0
 35 36  1  0  0  0  0
 35 34  1  0  0  0  0
 36 34  1  0  0  0  0
M  END
>  <MODEL>
5

>  <REMARK>
 VINA RESULT:      -5.8      4.923      9.549
  Name = 
  4 active torsions:
  status: ('A' for Active; 'I' for Inactive)
    1  A    between atoms: C_6  and  C_31
    2  A    between atoms: C_11  and  C_26
    3  A    between atoms: C_20  and  C_25
    4  A    between atoms: C_21  and  C_25
                            x       y       z     vdW  Elec       q    Type
                         _______ _______ _______ _____ _____    ______ ____

>  <TORSDO>
F 4

$$$$
=
 OpenBabel11052415163D

 37 44  0  0  1  0  0  0  0  0999 V2000
  187.5790  176.7620  144.0550 C   0  0  0  0  0  2  0  0  0  0  0  0
  187.6670  178.0820  139.2960 C   0  0  0  0  0  0  0  0  0  0  0  0
  187.8300  177.8880  145.0410 C   0  0  1  0  0  3  0  0  0  0  0  0
  185.1020  179.3370  140.9240 C   0  0  0  0  0  2  0  0  0  0  0  0
  189.7320  177.2510  140.3110 C   0  0  0  0  0  2  0  0  0  0  0  0
  186.9110  177.5110  140.4470 C   0  0  2  0  0  3  0  0  0  0  0  0
  187.6750  176.6090  147.0350 C   0  0  0  0  0  1  0  0  0  0  0  0
  188.9640  177.9770  139.2590 C   0  0  0  0  0  0  0  0  0  0  0  0
  185.4160  177.9030  140.4700 C   0  0  2  0  0  3  0  0  0  0  0  0
  189.4920  178.6690  138.1450 N   0  0  0  0  0  0  0  0  0  0  0  0
  186.4380  177.9150  145.5320 C   0  0  1  0  0  3  0  0  0  0  0  0
  189.0310  177.2990  141.7000 C   0  0  2  0  0  3  0  0  0  0  0  0
  186.1560  178.0520  137.0430 S   0  0  0  0  0  0  0  0  0  0  0  0
  187.5390  177.9480  146.4860 N   0  0  0  0  0  0  0  0  0  0  0  0
  188.5330  179.2230  137.5200 N   0  0  0  0  0  0  0  0  0  0  0  0
  185.9880  179.1010  144.7150 C   0  0  1  0  0  3  0  0  0  0  0  0
  185.7290  179.7090  142.2740 C   0  0  0  0  0  2  0  0  0  0  0  0
  187.2480  178.9630  138.1710 C   0  0  2  0  0  3  0  0  0  0  0  0
  187.6380  177.8420  141.6960 N   0  0  2  0  0  0  0  0  0  0  0  0
  184.6220  177.4250  139.2460 C   0  0  2  0  0  3  0  0  0  0  0  0
  185.7750  178.5460  143.2760 C   0  0  1  0  0  3  0  0  0  0  0  0
  186.8110  177.4110  142.8520 C   0  0  2  0  0  3  0  0  0  0  0  0
  184.6850  178.3830  138.0590 C   0  0  0  0  0  2  0  0  0  0  0  0
  182.6740  175.8630  139.1970 C   0  0  0  0  0  3  0  0  0  0  0  0
  183.2090  177.0900  139.6080 C   0  0  0  0  0  0  0  0  0  0  0  0
  182.4210  177.9670  140.3690 C   0  0  0  0  0  3  0  0  0  0  0  0
  180.3530  178.4710  141.4410 F   0  0  0  0  0  0  0  0  0  0  0  0
  180.5810  176.3960  140.2910 C   0  0  0  0  0  3  0  0  0  0  0  0
  181.1090  177.6210  140.7080 C   0  0  0  0  0  0  0  0  0  0  0  0
  181.3630  175.5170  139.5360 C   0  0  0  0  0  3  0  0  0  0  0  0
  184.6780  179.6430  145.2620 C   0  0  0  0  0  2  0  0  0  0  0  0
  184.1830  178.7880  146.2480 O   0  0  0  0  0  1  0  0  0  0  0  0
  189.8990  178.1540  142.6180 C   0  0  0  0  0  2  0  0  0  0  0  0
  191.3460  177.2130  144.2220 C   0  0  0  0  0  0  0  0  0  0  0  0
  191.2370  177.4850  142.8770 C   0  0  1  0  0  3  0  0  0  0  0  0
  191.0470  176.1670  143.1930 O   0  0  0  0  0  0  0  0  0  0  0  0
  191.5370  177.5660  145.4140 O   0  0  0  0  0  0  0  0  0  0  0  0
  3  1  1  1  0  0  0
  3 11  1  0  0  0  0
  3 14  1  0  0  0  0
  4 17  1  0  0  0  0
  5 12  1  0  0  0  0
  6  2  1  6  0  0  0
  6  9  1  0  0  0  0
  6 19  1  0  0  0  0
  8  2  2  0  0  0  0
  8  5  1  0  0  0  0
  9  4  1  6  0  0  0
 10  8  1  0  0  0  0
 11 14  1  1  0  0  0
 12 33  1  1  0  0  0
 13 23  1  0  0  0  0
 14  7  1  0  0  0  0
 15 10  2  0  0  0  0
 15 18  1  0  0  0  0
 16 31  1  1  0  0  0
 16 11  1  0  0  0  0
 17 21  1  0  0  0  0
 18 13  1  6  0  0  0
 18  2  1  0  0  0  0
 19 12  1  0  0  0  0
 19 22  1  0  0  0  0
 20 25  1  0  0  0  0
 20  9  1  0  0  0  0
 21 16  1  0  0  0  0
 22 21  1  0  0  0  0
 22  1  1  0  0  0  0
 23 20  1  0  0  0  0
 24 30  2  0  0  0  0
 24 25  1  0  0  0  0
 25 26  2  0  0  0  0
 26 29  1  0  0  0  0
 28 29  2  0  0  0  0
 29 27  1  0  0  0  0
 30 28  1  0  0  0  0
 31 32  1  0  0  0  0
 33 35  1  0  0  0  0
 34 37  2  0  0  0  0
 35 36  1  0  0  0  0
 35 34  1  0  0  0  0
 36 34  1  0  0  0  0
M  END
>  <MODEL>
6

>  <REMARK>
 VINA RESULT:      -5.5      4.421      8.415
  Name = 
  4 active torsions:
  status: ('A' for Active; 'I' for Inactive)
    1  A    between atoms: C_6  and  C_31
    2  A    between atoms: C_11  and  C_26
    3  A    between atoms: C_20  and  C_25
    4  A    between atoms: C_21  and  C_25
                            x       y       z     vdW  Elec       q    Type
                         _______ _______ _______ _____ _____    ______ ____

>  <TORSDO>
F 4

$$$$
=
 OpenBabel11052415163D

 37 44  0  0  1  0  0  0  0  0999 V2000
  190.3070  173.8810  137.1470 C   0  0  0  0  0  2  0  0  0  0  0  0
  187.0140  177.2490  138.6350 C   0  0  0  0  0  0  0  0  0  0  0  0
  191.1730  174.3010  135.9740 C   0  0  1  0  0  3  0  0  0  0  0  0
  190.1200  178.1490  139.2250 C   0  0  0  0  0  2  0  0  0  0  0  0
  186.3010  175.5640  137.0100 C   0  0  0  0  0  2  0  0  0  0  0  0
  188.1980  176.3990  138.9470 C   0  0  2  0  0  3  0  0  0  0  0  0
  192.4440  172.3040  135.7840 C   0  0  0  0  0  1  0  0  0  0  0  0
  186.1650  176.8660  137.7260 C   0  0  0  0  0  0  0  0  0  0  0  0
  189.2290  177.0790  139.8760 C   0  0  2  0  0  3  0  0  0  0  0  0
  185.1780  177.8550  137.5100 N   0  0  0  0  0  0  0  0  0  0  0  0
  192.4010  174.4240  136.7840 C   0  0  1  0  0  3  0  0  0  0  0  0
  187.7860  175.1100  136.8790 C   0  0  2  0  0  3  0  0  0  0  0  0
  186.2440  178.6640  140.8180 S   0  0  0  0  0  0  0  0  0  0  0  0
  192.4500  173.7310  135.5040 N   0  0  0  0  0  0  0  0  0  0  0  0
  185.4360  178.8530  138.2560 N   0  0  0  0  0  0  0  0  0  0  0  0
  192.3600  175.9250  136.9340 C   0  0  1  0  0  3  0  0  0  0  0  0
  190.8410  177.6670  137.9600 C   0  0  0  0  0  2  0  0  0  0  0  0
  186.6470  178.6320  139.0480 C   0  0  2  0  0  3  0  0  0  0  0  0
  188.7710  175.9060  137.6720 N   0  0  2  0  0  0  0  0  0  0  0  0
  188.6790  177.4520  141.2600 C   0  0  2  0  0  3  0  0  0  0  0  0
  191.2740  176.1950  138.0170 C   0  0  1  0  0  3  0  0  0  0  0  0
  190.0380  175.1890  137.9680 C   0  0  2  0  0  3  0  0  0  0  0  0
  187.9900  178.8130  141.3030 C   0  0  0  0  0  2  0  0  0  0  0  0
  190.1080  178.4800  143.0300 C   0  0  0  0  0  3  0  0  0  0  0  0
  189.7330  177.3360  142.3160 C   0  0  0  0  0  0  0  0  0  0  0  0
  190.3330  176.1040  142.6200 C   0  0  0  0  0  3  0  0  0  0  0  0
  191.8800  174.8330  143.9130 F   0  0  0  0  0  0  0  0  0  0  0  0
  191.6750  177.1700  144.3300 C   0  0  0  0  0  3  0  0  0  0  0  0
  191.3030  176.0230  143.6240 C   0  0  0  0  0  0  0  0  0  0  0  0
  191.0780  178.3990  144.0340 C   0  0  0  0  0  3  0  0  0  0  0  0
  193.7080  176.4370  137.4140 C   0  0  0  0  0  2  0  0  0  0  0  0
  194.4620  176.8850  136.3280 O   0  0  0  0  0  1  0  0  0  0  0  0
  188.1550  175.1850  135.4000 C   0  0  0  0  0  2  0  0  0  0  0  0
  187.9640  172.9160  134.7930 C   0  0  0  0  0  0  0  0  0  0  0  0
  187.3860  174.1500  134.5970 C   0  0  1  0  0  3  0  0  0  0  0  0
  186.6800  173.3350  135.4400 O   0  0  0  0  0  0  0  0  0  0  0  0
  188.8780  172.0740  134.5970 O   0  0  0  0  0  0  0  0  0  0  0  0
  1 22  1  0  0  0  0
  2 18  1  0  0  0  0
  3 11  1  0  0  0  0
  3  1  1  1  0  0  0
  5  8  1  0  0  0  0
  6  2  1  6  0  0  0
  6  9  1  0  0  0  0
  8  2  2  0  0  0  0
  9  4  1  6  0  0  0
  9 20  1  0  0  0  0
 10  8  1  0  0  0  0
 10 15  2  0  0  0  0
 11 14  1  6  0  0  0
 11 16  1  0  0  0  0
 12 33  1  6  0  0  0
 12  5  1  0  0  0  0
 12 19  1  0  0  0  0
 13 23  1  0  0  0  0
 14  7  1  0  0  0  0
 14  3  1  0  0  0  0
 16 31  1  1  0  0  0
 16 21  1  0  0  0  0
 17 21  1  0  0  0  0
 17  4  1  0  0  0  0
 18 15  1  6  0  0  0
 18 13  1  0  0  0  0
 19 22  1  0  0  0  0
 19  6  1  0  0  0  0
 20 23  1  0  0  0  0
 20 25  1  0  0  0  0
 22 21  1  0  0  0  0
 24 30  1  0  0  0  0
 25 26  1  0  0  0  0
 25 24  2  0  0  0  0
 26 29  2  0  0  0  0
 29 27  1  0  0  0  0
 29 28  1  0  0  0  0
 30 28  2  0  0  0  0
 32 31  1  0  0  0  0
 34 36  1  0  0  0  0
 35 34  1  0  0  0  0
 35 33  1  0  0  0  0
 35 36  1  0  0  0  0
 37 34  2  0  0  0  0
M  END
>  <MODEL>
7

>  <REMARK>
 VINA RESULT:      -5.4      4.437      6.386
  Name = 
  4 active torsions:
  status: ('A' for Active; 'I' for Inactive)
    1  A    between atoms: C_6  and  C_31
    2  A    between atoms: C_11  and  C_26
    3  A    between atoms: C_20  and  C_25
    4  A    between atoms: C_21  and  C_25
                            x       y       z     vdW  Elec       q    Type
                         _______ _______ _______ _____ _____    ______ ____

>  <TORSDO>
F 4

$$$$
=
 OpenBabel11052415163D

 37 44  0  0  1  0  0  0  0  0999 V2000
  183.8630  177.1470  138.6480 C   0  0  0  0  0  2  0  0  0  0  0  0
  186.5770  173.9760  136.0050 C   0  0  0  0  0  0  0  0  0  0  0  0
  183.5740  178.4710  137.9650 C   0  0  1  0  0  3  0  0  0  0  0  0
  183.5820  174.4620  134.7390 C   0  0  0  0  0  2  0  0  0  0  0  0
  187.7250  175.4700  137.5650 C   0  0  0  0  0  2  0  0  0  0  0  0
  185.2960  174.2840  136.7040 C   0  0  2  0  0  3  0  0  0  0  0  0
  182.3140  179.4640  139.7160 C   0  0  0  0  0  1  0  0  0  0  0  0
  187.6790  174.5470  136.3950 C   0  0  0  0  0  0  0  0  0  0  0  0
  184.0450  173.7140  135.9990 C   0  0  2  0  0  3  0  0  0  0  0  0
  188.7530  174.2010  135.5420 N   0  0  0  0  0  0  0  0  0  0  0  0
  182.1410  178.1790  137.7630 C   0  0  1  0  0  3  0  0  0  0  0  0
  186.3810  176.2280  137.7780 C   0  0  2  0  0  3  0  0  0  0  0  0
  186.5380  171.4580  134.9950 S   0  0  0  0  0  0  0  0  0  0  0  0
  182.5440  179.4800  138.2800 N   0  0  0  0  0  0  0  0  0  0  0  0
  188.3080  173.4510  134.6160 N   0  0  0  0  0  0  0  0  0  0  0  0
  182.2500  177.7720  136.3140 C   0  0  1  0  0  3  0  0  0  0  0  0
  183.3840  175.9680  134.9520 C   0  0  0  0  0  2  0  0  0  0  0  0
  186.8690  173.2270  134.7520 C   0  0  2  0  0  3  0  0  0  0  0  0
  185.2360  175.7450  136.9490 N   0  0  2  0  0  0  0  0  0  0  0  0
  184.0320  172.1830  135.8830 C   0  0  2  0  0  3  0  0  0  0  0  0
  182.8370  176.3300  136.3410 C   0  0  1  0  0  3  0  0  0  0  0  0
  183.8980  176.0760  137.5030 C   0  0  2  0  0  3  0  0  0  0  0  0
  184.7630  171.6530  134.6530 C   0  0  0  0  0  2  0  0  0  0  0  0
  182.2660  170.5870  135.1280 C   0  0  0  0  0  3  0  0  0  0  0  0
  182.6390  171.6410  135.9710 C   0  0  0  0  0  0  0  0  0  0  0  0
  181.7120  172.1500  136.8930 C   0  0  0  0  0  3  0  0  0  0  0  0
  179.5320  172.1070  137.8560 F   0  0  0  0  0  0  0  0  0  0  0  0
  180.0570  170.5620  136.1190 C   0  0  0  0  0  3  0  0  0  0  0  0
  180.4240  171.6120  136.9660 C   0  0  0  0  0  0  0  0  0  0  0  0
  180.9770  170.0490  135.2000 C   0  0  0  0  0  3  0  0  0  0  0  0
  180.8720  177.7590  135.6730 C   0  0  0  0  0  2  0  0  0  0  0  0
  180.1210  176.6960  136.1770 O   0  0  0  0  0  1  0  0  0  0  0  0
  186.6370  177.7010  137.4700 C   0  0  0  0  0  2  0  0  0  0  0  0
  188.6900  178.2790  136.4690 C   0  0  0  0  0  0  0  0  0  0  0  0
  188.0970  178.0550  137.6910 C   0  0  1  0  0  3  0  0  0  0  0  0
  188.3030  179.3780  137.4090 O   0  0  0  0  0  0  0  0  0  0  0  0
  189.1760  177.8770  135.3800 O   0  0  0  0  0  0  0  0  0  0  0  0
  2  8  2  0  0  0  0
  3 14  1  0  0  0  0
  3  1  1  1  0  0  0
  4 17  1  0  0  0  0
  5 12  1  0  0  0  0
  6  2  1  6  0  0  0
  6 19  1  0  0  0  0
  8  5  1  0  0  0  0
  9  4  1  6  0  0  0
  9  6  1  0  0  0  0
 10  8  1  0  0  0  0
 11  3  1  0  0  0  0
 11 14  1  6  0  0  0
 12 33  1  6  0  0  0
 14  7  1  0  0  0  0
 15 10  2  0  0  0  0
 16 31  1  1  0  0  0
 16 21  1  0  0  0  0
 16 11  1  0  0  0  0
 17 21  1  0  0  0  0
 18 15  1  1  0  0  0
 18 13  1  0  0  0  0
 18  2  1  0  0  0  0
 19 22  1  0  0  0  0
 19 12  1  0  0  0  0
 20 25  1  0  0  0  0
 20  9  1  0  0  0  0
 21 22  1  0  0  0  0
 22  1  1  0  0  0  0
 23 13  1  0  0  0  0
 23 20  1  0  0  0  0
 24 30  2  0  0  0  0
 24 25  1  0  0  0  0
 25 26  2  0  0  0  0
 26 29  1  0  0  0  0
 28 29  2  0  0  0  0
 29 27  1  0  0  0  0
 30 28  1  0  0  0  0
 31 32  1  0  0  0  0
 33 35  1  0  0  0  0
 34 36  1  0  0  0  0
 34 35  1  0  0  0  0
 36 35  1  0  0  0  0
 37 34  2  0  0  0  0
M  END
>  <MODEL>
8

>  <REMARK>
 VINA RESULT:      -4.5      4.201      8.519
  Name = 
  4 active torsions:
  status: ('A' for Active; 'I' for Inactive)
    1  A    between atoms: C_6  and  C_31
    2  A    between atoms: C_11  and  C_26
    3  A    between atoms: C_20  and  C_25
    4  A    between atoms: C_21  and  C_25
                            x       y       z     vdW  Elec       q    Type
                         _______ _______ _______ _____ _____    ______ ____

>  <TORSDO>
F 4

$$$$
=
 OpenBabel11052415163D

 37 44  0  0  1  0  0  0  0  0999 V2000
  188.6030  176.3780  141.4940 C   0  0  0  0  0  2  0  0  0  0  0  0
  186.9260  178.3070  145.7210 C   0  0  0  0  0  0  0  0  0  0  0  0
  189.0290  177.3910  140.4480 C   0  0  1  0  0  3  0  0  0  0  0  0
  190.1390  178.8280  145.2630 C   0  0  0  0  0  2  0  0  0  0  0  0
  185.3070  177.7550  143.9720 C   0  0  0  0  0  2  0  0  0  0  0  0
  187.9270  177.4570  145.0170 C   0  0  2  0  0  3  0  0  0  0  0  0
  189.6720  175.8540  138.7570 C   0  0  0  0  0  1  0  0  0  0  0  0
  185.7350  178.4550  145.2170 C   0  0  0  0  0  0  0  0  0  0  0  0
  189.3540  177.5520  145.6050 C   0  0  2  0  0  3  0  0  0  0  0  0
  184.9780  179.3750  145.9780 N   0  0  0  0  0  0  0  0  0  0  0  0
  190.4680  177.0890  140.5830 C   0  0  1  0  0  3  0  0  0  0  0  0
  186.4960  177.4860  143.0020 C   0  0  2  0  0  3  0  0  0  0  0  0
  187.3630  178.2890  148.3990 S   0  0  0  0  0  0  0  0  0  0  0  0
  189.8780  177.2030  139.2560 N   0  0  0  0  0  0  0  0  0  0  0  0
  185.7070  179.8150  146.9230 N   0  0  0  0  0  0  0  0  0  0  0  0
  190.8110  178.2660  141.4630 C   0  0  1  0  0  3  0  0  0  0  0  0
  190.2050  179.1300  143.7610 C   0  0  0  0  0  2  0  0  0  0  0  0
  187.0490  179.2340  146.8800 C   0  0  2  0  0  3  0  0  0  0  0  0
  187.8550  177.7510  143.5660 N   0  0  2  0  0  0  0  0  0  0  0  0
  189.4620  177.0980  147.0670 C   0  0  2  0  0  3  0  0  0  0  0  0
  190.3000  177.8750  142.8810 C   0  0  1  0  0  3  0  0  0  0  0  0
  188.9530  177.0230  142.8800 C   0  0  2  0  0  3  0  0  0  0  0  0
  189.1510  178.1990  148.0780 C   0  0  0  0  0  2  0  0  0  0  0  0
  191.2660  175.4810  146.4630 C   0  0  0  0  0  3  0  0  0  0  0  0
  190.7860  176.4570  147.3440 C   0  0  0  0  0  0  0  0  0  0  0  0
  191.5640  176.8320  148.4500 C   0  0  0  0  0  3  0  0  0  0  0  0
  193.5530  176.5940  149.7420 F   0  0  0  0  0  0  0  0  0  0  0  0
  193.2760  175.2520  147.7920 C   0  0  0  0  0  3  0  0  0  0  0  0
  192.8060  176.2300  148.6730 C   0  0  0  0  0  0  0  0  0  0  0  0
  192.5070  174.8780  146.6860 C   0  0  0  0  0  3  0  0  0  0  0  0
  192.3150  178.4730  141.4920 C   0  0  0  0  0  2  0  0  0  0  0  0
  192.9340  177.6080  140.5880 O   0  0  0  0  0  1  0  0  0  0  0  0
  186.2840  178.3610  141.7700 C   0  0  0  0  0  2  0  0  0  0  0  0
  184.5590  179.0920  140.3420 C   0  0  0  0  0  0  0  0  0  0  0  0
  184.8340  178.7970  141.6580 C   0  0  1  0  0  3  0  0  0  0  0  0
  184.1060  177.8340  141.0150 O   0  0  0  0  0  0  0  0  0  0  0  0
  184.6360  179.8380  139.3320 O   0  0  0  0  0  0  0  0  0  0  0  0
  1 22  1  0  0  0  0
  3 11  1  0  0  0  0
  3  1  1  1  0  0  0
  5  8  1  0  0  0  0
  6  9  1  0  0  0  0
  6  2  1  1  0  0  0
  7 14  1  0  0  0  0
  8  2  2  0  0  0  0
  8 10  1  0  0  0  0
  9  4  1  1  0  0  0
  9 20  1  0  0  0  0
 10 15  2  0  0  0  0
 11 14  1  6  0  0  0
 11 16  1  0  0  0  0
 12 33  1  6  0  0  0
 12 19  1  0  0  0  0
 12  5  1  0  0  0  0
 14  3  1  0  0  0  0
 16 31  1  1  0  0  0
 16 21  1  0  0  0  0
 17  4  1  0  0  0  0
 18  2  1  6  0  0  0
 18 15  1  0  0  0  0
 18 13  1  0  0  0  0
 19  6  1  0  0  0  0
 20 25  1  0  0  0  0
 20 23  1  0  0  0  0
 21 17  1  0  0  0  0
 22 21  1  0  0  0  0
 22 19  1  0  0  0  0
 23 13  1  0  0  0  0
 24 30  2  0  0  0  0
 24 25  1  0  0  0  0
 25 26  2  0  0  0  0
 26 29  1  0  0  0  0
 28 29  2  0  0  0  0
 29 27  1  0  0  0  0
 30 28  1  0  0  0  0
 32 31  1  0  0  0  0
 34 36  1  0  0  0  0
 34 35  1  0  0  0  0
 35 33  1  0  0  0  0
 36 35  1  0  0  0  0
 37 34  2  0  0  0  0
M  END
>  <MODEL>
9

>  <REMARK>
 VINA RESULT:      -4.2      4.399      6.805
  Name = 
  4 active torsions:
  status: ('A' for Active; 'I' for Inactive)
    1  A    between atoms: C_6  and  C_31
    2  A    between atoms: C_11  and  C_26
    3  A    between atoms: C_20  and  C_25
    4  A    between atoms: C_21  and  C_25
                            x       y       z     vdW  Elec       q    Type
                         _______ _______ _______ _____ _____    ______ ____

>  <TORSDO>
F 4

$$$$
