=
 OpenBabel11052412593D

 31 33  0  0  1  0  0  0  0  0999 V2000
  189.7360  176.8630  138.3360 C   0  0  0  0  0  0  0  0  0  0  0  0
  190.9010  176.4840  137.6330 C   0  0  0  0  0  0  0  0  0  0  0  0
  191.2710  174.7040  135.9630 C   0  0  0  0  0  3  0  0  0  0  0  0
  190.8260  176.1080  136.1820 C   0  0  0  0  0  2  0  0  0  0  0  0
  192.1970  176.9920  139.5690 N   0  0  0  0  0  0  0  0  0  0  0  0
  192.5230  174.3060  136.1900 C   0  0  0  0  0  3  0  0  0  0  0  0
  189.8670  177.2890  139.6680 C   0  0  0  0  0  0  0  0  0  0  0  0
  193.5850  175.1550  136.7550 C   0  0  0  0  0  3  0  0  0  0  0  0
  191.1010  177.3530  140.2330 N   0  0  0  0  0  0  0  0  0  0  0  0
  192.1440  176.5310  138.2950 C   0  0  0  0  0  0  0  0  0  0  0  0
  193.4180  176.1240  137.6650 C   0  0  0  0  0  3  0  0  0  0  0  0
  188.6620  177.6300  140.4890 C   0  0  2  0  0  3  0  0  0  0  0  0
  188.4340  179.0070  140.4650 O   0  0  0  0  0  1  0  0  0  0  0  0
  186.6920  177.8970  142.4980 N   0  0  0  0  0  2  0  0  0  0  0  0
  188.3050  176.7940  144.1520 C   0  0  0  0  0  1  0  0  0  0  0  0
  187.9760  177.3180  142.7950 C   0  0  0  0  0  0  0  0  0  0  0  0
  188.8660  177.1840  141.8620 N   0  0  0  0  0  0  0  0  0  0  0  0
  184.8170  178.6120  145.6750 C   0  0  0  0  0  0  0  0  0  0  0  0
  183.3450  178.9280  143.7790 C   0  0  0  0  0  3  0  0  0  0  0  0
  185.0240  178.6220  147.0140 F   0  0  0  0  0  0  0  0  0  0  0  0
  185.8580  178.2670  144.8080 C   0  0  0  0  0  3  0  0  0  0  0  0
  184.3860  178.5770  142.9140 C   0  0  0  0  0  3  0  0  0  0  0  0
  185.6480  178.2390  143.4220 C   0  0  0  0  0  0  0  0  0  0  0  0
  183.5620  178.9460  145.1600 C   0  0  0  0  0  3  0  0  0  0  0  0
  188.3610  176.8290  137.7160 C   0  0  1  0  0  3  0  0  0  0  0  0
  188.2260  177.8270  136.5710 C   0  0  0  0  0  2  0  0  0  0  0  0
  187.6630  179.0790  137.0490 N   0  0  0  0  0  2  0  0  0  0  0  0
  186.5830  178.7630  137.8040 O   0  0  0  0  0  1  0  0  0  0  0  0
  187.9690  175.4170  137.3080 C   0  0  0  0  0  2  0  0  0  0  0  0
  186.0060  173.6970  137.3680 C   0  0  0  0  0  1  0  0  0  0  0  0
  186.2360  175.3900  136.7650 S   0  0  0  0  0  0  0  0  0  0  0  0
  1  7  1  0  0  0  0
  2 10  1  0  0  0  0
  2  1  2  0  0  0  0
  3  4  1  0  0  0  0
  3  6  2  0  0  0  0
  4  2  1  0  0  0  0
  5  9  1  0  0  0  0
  6  8  1  0  0  0  0
  7  9  2  0  0  0  0
  7 12  1  0  0  0  0
  8 11  2  0  0  0  0
 10  5  2  0  0  0  0
 11 10  1  0  0  0  0
 12 13  1  1  0  0  0
 12 17  1  0  0  0  0
 14 16  1  0  0  0  0
 14 23  1  0  0  0  0
 16 15  1  0  0  0  0
 17 16  2  0  0  0  0
 18 20  1  0  0  0  0
 19 24  2  0  0  0  0
 21 18  2  0  0  0  0
 22 23  2  0  0  0  0
 22 19  1  0  0  0  0
 23 21  1  0  0  0  0
 24 18  1  0  0  0  0
 25 26  1  6  0  0  0
 25  1  1  0  0  0  0
 26 27  1  0  0  0  0
 27 28  1  0  0  0  0
 29 25  1  0  0  0  0
 31 29  1  0  0  0  0
 31 30  1  0  0  0  0
M  END
>  <MODEL>
1

>  <REMARK>
 VINA RESULT:      -7.8      0.000      0.000
  Name = 
  8 active torsions:
  status: ('A' for Active; 'I' for Inactive)
    1  A    between atoms: N_2  and  C_25
    2  A    between atoms: N_3  and  C_22
    3  A    between atoms: C_4  and  C_12
    4  A    between atoms: C_12  and  C_25
    5  A    between atoms: C_12  and  C_27
    6  A    between atoms: C_15  and  C_21
    7  A    between atoms: C_15  and  N_23
    8  A    between atoms: C_27  and  S_28
                            x       y       z     vdW  Elec       q    Type
                         _______ _______ _______ _____ _____    ______ ____

>  <TORSDO>
F 8

$$$$
=
 OpenBabel11052412593D

 31 33  0  0  1  0  0  0  0  0999 V2000
  182.1250  178.0380  139.3470 C   0  0  0  0  0  0  0  0  0  0  0  0
  181.5270  176.9130  138.7390 C   0  0  0  0  0  0  0  0  0  0  0  0
  179.7640  175.3850  139.5480 C   0  0  0  0  0  3  0  0  0  0  0  0
  180.0490  176.6760  138.8620 C   0  0  0  0  0  2  0  0  0  0  0  0
  183.6300  176.3620  137.7610 N   0  0  0  0  0  0  0  0  0  0  0  0
  180.0950  174.2060  139.0220 C   0  0  0  0  0  3  0  0  0  0  0  0
  183.4950  178.2660  139.1340 C   0  0  0  0  0  0  0  0  0  0  0  0
  180.8430  174.0270  137.7670 C   0  0  0  0  0  3  0  0  0  0  0  0
  184.1960  177.4240  138.3310 N   0  0  0  0  0  0  0  0  0  0  0  0
  182.3240  176.0550  137.9550 C   0  0  0  0  0  0  0  0  0  0  0  0
  181.8070  174.8330  137.3030 C   0  0  0  0  0  3  0  0  0  0  0  0
  184.2020  179.3970  139.8130 C   0  0  2  0  0  3  0  0  0  0  0  0
  184.1330  180.5510  139.0320 O   0  0  0  0  0  1  0  0  0  0  0  0
  185.1970  178.6350  142.3470 N   0  0  0  0  0  2  0  0  0  0  0  0
  187.5070  178.3270  141.2880 C   0  0  0  0  0  1  0  0  0  0  0  0
  186.0660  178.7000  141.2010 C   0  0  0  0  0  0  0  0  0  0  0  0
  185.5960  179.0330  140.0400 N   0  0  0  0  0  0  0  0  0  0  0  0
  187.0720  177.5620  145.4210 C   0  0  0  0  0  0  0  0  0  0  0  0
  185.0480  178.7220  146.0720 C   0  0  0  0  0  3  0  0  0  0  0  0
  188.2080  176.9060  145.7590 F   0  0  0  0  0  0  0  0  0  0  0  0
  186.7460  177.7500  144.0750 C   0  0  0  0  0  3  0  0  0  0  0  0
  184.7210  178.9030  144.7250 C   0  0  0  0  0  3  0  0  0  0  0  0
  185.5640  178.4150  143.7170 C   0  0  0  0  0  0  0  0  0  0  0  0
  186.2250  178.0510  146.4200 C   0  0  0  0  0  3  0  0  0  0  0  0
  181.3550  179.0020  140.2160 C   0  0  1  0  0  3  0  0  0  0  0  0
  180.3020  179.7680  139.4240 C   0  0  0  0  0  2  0  0  0  0  0  0
  180.7490  181.1260  139.1600 N   0  0  0  0  0  2  0  0  0  0  0  0
  181.1170  181.1730  137.8560 O   0  0  0  0  0  1  0  0  0  0  0  0
  180.7740  178.3080  141.4390 C   0  0  0  0  0  2  0  0  0  0  0  0
  180.0440  178.3950  143.9440 C   0  0  0  0  0  1  0  0  0  0  0  0
  181.3780  179.1150  142.9510 S   0  0  0  0  0  0  0  0  0  0  0  0
  1 25  1  0  0  0  0
  2  4  1  0  0  0  0
  2  1  2  0  0  0  0
  4  3  1  0  0  0  0
  5 10  2  0  0  0  0
  5  9  1  0  0  0  0
  6  3  2  0  0  0  0
  7  1  1  0  0  0  0
  7 12  1  0  0  0  0
  8  6  1  0  0  0  0
  9  7  2  0  0  0  0
 10  2  1  0  0  0  0
 11  8  2  0  0  0  0
 11 10  1  0  0  0  0
 12 13  1  6  0  0  0
 12 17  1  0  0  0  0
 14 23  1  0  0  0  0
 16 15  1  0  0  0  0
 16 14  1  0  0  0  0
 17 16  2  0  0  0  0
 18 20  1  0  0  0  0
 18 24  1  0  0  0  0
 19 24  2  0  0  0  0
 21 18  2  0  0  0  0
 22 19  1  0  0  0  0
 23 21  1  0  0  0  0
 23 22  2  0  0  0  0
 25 26  1  6  0  0  0
 25 29  1  0  0  0  0
 27 26  1  0  0  0  0
 28 27  1  0  0  0  0
 29 31  1  0  0  0  0
 31 30  1  0  0  0  0
M  END
>  <MODEL>
2

>  <REMARK>
 VINA RESULT:      -7.3      4.782      7.535
  Name = 
  8 active torsions:
  status: ('A' for Active; 'I' for Inactive)
    1  A    between atoms: N_2  and  C_25
    2  A    between atoms: N_3  and  C_22
    3  A    between atoms: C_4  and  C_12
    4  A    between atoms: C_12  and  C_25
    5  A    between atoms: C_12  and  C_27
    6  A    between atoms: C_15  and  C_21
    7  A    between atoms: C_15  and  N_23
    8  A    between atoms: C_27  and  S_28
                            x       y       z     vdW  Elec       q    Type
                         _______ _______ _______ _____ _____    ______ ____

>  <TORSDO>
F 8

$$$$
=
 OpenBabel11052412593D

 31 33  0  0  1  0  0  0  0  0999 V2000
  182.7350  177.6090  138.4500 C   0  0  0  0  0  0  0  0  0  0  0  0
  182.4860  176.5680  137.5290 C   0  0  0  0  0  0  0  0  0  0  0  0
  180.9350  174.6500  137.6370 C   0  0  0  0  0  3  0  0  0  0  0  0
  181.0860  176.0880  137.2800 C   0  0  0  0  0  2  0  0  0  0  0  0
  184.7990  176.5710  136.9490 N   0  0  0  0  0  0  0  0  0  0  0  0
  181.5780  173.6800  136.9870 C   0  0  0  0  0  3  0  0  0  0  0  0
  184.0500  178.0830  138.5870 C   0  0  0  0  0  0  0  0  0  0  0  0
  182.5630  173.8970  135.9150 C   0  0  0  0  0  3  0  0  0  0  0  0
  185.0350  177.5550  137.8160 N   0  0  0  0  0  0  0  0  0  0  0  0
  183.5640  176.0350  136.7930 C   0  0  0  0  0  0  0  0  0  0  0  0
  183.4210  174.9220  135.8300 C   0  0  0  0  0  3  0  0  0  0  0  0
  184.3890  179.1300  139.6010 C   0  0  2  0  0  3  0  0  0  0  0  0
  184.1800  180.4040  139.0710 O   0  0  0  0  0  1  0  0  0  0  0  0
  185.1610  178.5340  142.2540 N   0  0  0  0  0  2  0  0  0  0  0  0
  187.6060  178.5770  141.4960 C   0  0  0  0  0  1  0  0  0  0  0  0
  186.1480  178.7270  141.2240 C   0  0  0  0  0  0  0  0  0  0  0  0
  185.7820  178.9820  140.0060 N   0  0  0  0  0  0  0  0  0  0  0  0
  186.7160  177.6300  145.5530 C   0  0  0  0  0  0  0  0  0  0  0  0
  184.6070  178.7560  145.9350 C   0  0  0  0  0  3  0  0  0  0  0  0
  187.8230  177.0180  146.0370 F   0  0  0  0  0  0  0  0  0  0  0  0
  186.5340  177.7580  144.1730 C   0  0  0  0  0  3  0  0  0  0  0  0
  184.4240  178.8780  144.5540 C   0  0  0  0  0  3  0  0  0  0  0  0
  185.3820  178.3760  143.6640 C   0  0  0  0  0  0  0  0  0  0  0  0
  185.7550  178.1320  146.4340 C   0  0  0  0  0  3  0  0  0  0  0  0
  181.6470  178.2300  139.2930 C   0  0  1  0  0  3  0  0  0  0  0  0
  180.5910  178.9230  138.4400 C   0  0  0  0  0  2  0  0  0  0  0  0
  180.9500  180.3130  138.2130 N   0  0  0  0  0  2  0  0  0  0  0  0
  180.7560  180.9680  139.3830 O   0  0  0  0  0  1  0  0  0  0  0  0
  181.0460  177.2190  140.2590 C   0  0  0  0  0  2  0  0  0  0  0  0
  181.5520  178.9040  142.1880 C   0  0  0  0  0  1  0  0  0  0  0  0
  180.0770  178.0830  141.5300 S   0  0  0  0  0  0  0  0  0  0  0  0
  1  7  1  0  0  0  0
  1 25  1  0  0  0  0
  2  1  2  0  0  0  0
  4  2  1  0  0  0  0
  4  3  1  0  0  0  0
  5  9  1  0  0  0  0
  6  3  2  0  0  0  0
  7 12  1  0  0  0  0
  8  6  1  0  0  0  0
  9  7  2  0  0  0  0
 10  5  2  0  0  0  0
 10  2  1  0  0  0  0
 11  8  2  0  0  0  0
 11 10  1  0  0  0  0
 12 13  1  6  0  0  0
 12 17  1  0  0  0  0
 14 23  1  0  0  0  0
 16 15  1  0  0  0  0
 16 14  1  0  0  0  0
 17 16  2  0  0  0  0
 18 20  1  0  0  0  0
 18 24  1  0  0  0  0
 19 24  2  0  0  0  0
 21 18  2  0  0  0  0
 22 19  1  0  0  0  0
 23 21  1  0  0  0  0
 23 22  2  0  0  0  0
 25 26  1  6  0  0  0
 25 29  1  0  0  0  0
 27 26  1  0  0  0  0
 27 28  1  0  0  0  0
 29 31  1  0  0  0  0
 31 30  1  0  0  0  0
M  END
>  <MODEL>
3

>  <REMARK>
 VINA RESULT:      -7.2      4.731      6.734
  Name = 
  8 active torsions:
  status: ('A' for Active; 'I' for Inactive)
    1  A    between atoms: N_2  and  C_25
    2  A    between atoms: N_3  and  C_22
    3  A    between atoms: C_4  and  C_12
    4  A    between atoms: C_12  and  C_25
    5  A    between atoms: C_12  and  C_27
    6  A    between atoms: C_15  and  C_21
    7  A    between atoms: C_15  and  N_23
    8  A    between atoms: C_27  and  S_28
                            x       y       z     vdW  Elec       q    Type
                         _______ _______ _______ _____ _____    ______ ____

>  <TORSDO>
F 8

$$$$
=
 OpenBabel11052412593D

 31 33  0  0  1  0  0  0  0  0999 V2000
  190.7450  176.5620  137.9720 C   0  0  0  0  0  0  0  0  0  0  0  0
  191.6540  176.2850  136.9270 C   0  0  0  0  0  0  0  0  0  0  0  0
  191.5250  174.6780  135.0570 C   0  0  0  0  0  3  0  0  0  0  0  0
  191.1580  176.0420  135.5310 C   0  0  0  0  0  2  0  0  0  0  0  0
  193.4590  176.6540  138.4410 N   0  0  0  0  0  0  0  0  0  0  0  0
  192.7890  174.3000  134.8700 C   0  0  0  0  0  3  0  0  0  0  0  0
  191.2580  176.8670  139.2430 C   0  0  0  0  0  0  0  0  0  0  0  0
  193.9670  175.1280  135.1800 C   0  0  0  0  0  3  0  0  0  0  0  0
  192.6030  176.9180  139.4280 N   0  0  0  0  0  0  0  0  0  0  0  0
  193.0360  176.3110  137.1990 C   0  0  0  0  0  0  0  0  0  0  0  0
  194.0710  176.0030  136.1890 C   0  0  0  0  0  3  0  0  0  0  0  0
  190.3460  177.0930  140.4090 C   0  0  2  0  0  3  0  0  0  0  0  0
  189.5920  178.2520  140.2150 O   0  0  0  0  0  1  0  0  0  0  0  0
  189.1860  177.1610  142.9850 N   0  0  0  0  0  2  0  0  0  0  0  0
  191.5370  177.3590  143.9800 C   0  0  0  0  0  1  0  0  0  0  0  0
  190.6120  177.2620  142.8140 C   0  0  0  0  0  0  0  0  0  0  0  0
  191.1350  177.2120  141.6290 N   0  0  0  0  0  0  0  0  0  0  0  0
  188.2590  177.4010  146.6180 C   0  0  0  0  0  0  0  0  0  0  0  0
  186.2990  177.8020  145.2550 C   0  0  0  0  0  3  0  0  0  0  0  0
  188.8360  177.2870  147.8390 F   0  0  0  0  0  0  0  0  0  0  0  0
  189.0260  177.2260  145.4630 C   0  0  0  0  0  3  0  0  0  0  0  0
  187.0660  177.6200  144.1010 C   0  0  0  0  0  3  0  0  0  0  0  0
  188.4330  177.3260  144.1960 C   0  0  0  0  0  0  0  0  0  0  0  0
  186.8970  177.6920  146.5150 C   0  0  0  0  0  3  0  0  0  0  0  0
  189.2480  176.5410  137.7790 C   0  0  1  0  0  3  0  0  0  0  0  0
  188.7880  177.5910  136.7740 C   0  0  0  0  0  2  0  0  0  0  0  0
  188.0730  178.6630  137.4480 N   0  0  0  0  0  2  0  0  0  0  0  0
  188.8790  179.7520  137.4230 O   0  0  0  0  0  1  0  0  0  0  0  0
  188.7510  175.1450  137.4330 C   0  0  0  0  0  2  0  0  0  0  0  0
  187.5660  173.4710  135.8190 C   0  0  0  0  0  1  0  0  0  0  0  0
  187.4650  175.2480  136.1540 S   0  0  0  0  0  0  0  0  0  0  0  0
  1  7  1  0  0  0  0
  2 10  1  0  0  0  0
  2  1  2  0  0  0  0
  3  4  1  0  0  0  0
  4  2  1  0  0  0  0
  5  9  1  0  0  0  0
  6  3  2  0  0  0  0
  6  8  1  0  0  0  0
  7  9  2  0  0  0  0
  7 12  1  0  0  0  0
  8 11  2  0  0  0  0
 10  5  2  0  0  0  0
 11 10  1  0  0  0  0
 12 13  1  6  0  0  0
 12 17  1  0  0  0  0
 14 23  1  0  0  0  0
 16 14  1  0  0  0  0
 16 15  1  0  0  0  0
 17 16  2  0  0  0  0
 18 20  1  0  0  0  0
 19 24  2  0  0  0  0
 21 18  2  0  0  0  0
 22 23  2  0  0  0  0
 22 19  1  0  0  0  0
 23 21  1  0  0  0  0
 24 18  1  0  0  0  0
 25 26  1  6  0  0  0
 25  1  1  0  0  0  0
 26 27  1  0  0  0  0
 28 27  1  0  0  0  0
 29 25  1  0  0  0  0
 30 31  1  0  0  0  0
 31 29  1  0  0  0  0
M  END
>  <MODEL>
4

>  <REMARK>
 VINA RESULT:      -7.1      1.760      2.273
  Name = 
  8 active torsions:
  status: ('A' for Active; 'I' for Inactive)
    1  A    between atoms: N_2  and  C_25
    2  A    between atoms: N_3  and  C_22
    3  A    between atoms: C_4  and  C_12
    4  A    between atoms: C_12  and  C_25
    5  A    between atoms: C_12  and  C_27
    6  A    between atoms: C_15  and  C_21
    7  A    between atoms: C_15  and  N_23
    8  A    between atoms: C_27  and  S_28
                            x       y       z     vdW  Elec       q    Type
                         _______ _______ _______ _____ _____    ______ ____

>  <TORSDO>
F 8

$$$$
=
 OpenBabel11052412593D

 31 33  0  0  1  0  0  0  0  0999 V2000
  189.1410  175.7340  137.4100 C   0  0  0  0  0  0  0  0  0  0  0  0
  189.5310  174.7970  136.4270 C   0  0  0  0  0  0  0  0  0  0  0  0
  188.2060  173.1570  135.1440 C   0  0  0  0  0  3  0  0  0  0  0  0
  188.6790  174.5670  135.2130 C   0  0  0  0  0  2  0  0  0  0  0  0
  191.5720  174.4510  137.6120 N   0  0  0  0  0  0  0  0  0  0  0  0
  189.0390  172.1290  134.9780 C   0  0  0  0  0  3  0  0  0  0  0  0
  190.0120  175.9780  138.4850 C   0  0  0  0  0  0  0  0  0  0  0  0
  190.5070  172.2380  134.9310 C   0  0  0  0  0  3  0  0  0  0  0  0
  191.2080  175.3360  138.5380 N   0  0  0  0  0  0  0  0  0  0  0  0
  190.7670  174.1330  136.5680 C   0  0  0  0  0  0  0  0  0  0  0  0
  191.2550  173.1110  135.6180 C   0  0  0  0  0  3  0  0  0  0  0  0
  189.6210  176.9010  139.5970 C   0  0  2  0  0  3  0  0  0  0  0  0
  190.0080  178.2090  139.3000 O   0  0  0  0  0  1  0  0  0  0  0  0
  188.3630  177.1140  142.1200 N   0  0  0  0  0  2  0  0  0  0  0  0
  190.4420  176.0670  143.1850 C   0  0  0  0  0  1  0  0  0  0  0  0
  189.6930  176.5750  142.0000 C   0  0  0  0  0  0  0  0  0  0  0  0
  190.2540  176.4650  140.8370 N   0  0  0  0  0  0  0  0  0  0  0  0
  185.6300  178.0890  144.5060 C   0  0  0  0  0  0  0  0  0  0  0  0
  187.6560  177.6180  145.7460 C   0  0  0  0  0  3  0  0  0  0  0  0
  184.3280  178.4620  144.4860 F   0  0  0  0  0  0  0  0  0  0  0  0
  186.2940  177.7980  143.3110 C   0  0  0  0  0  3  0  0  0  0  0  0
  188.3210  177.3340  144.5490 C   0  0  0  0  0  3  0  0  0  0  0  0
  187.6470  177.4270  143.3230 C   0  0  0  0  0  0  0  0  0  0  0  0
  186.3100  177.9950  145.7240 C   0  0  0  0  0  3  0  0  0  0  0  0
  187.8310  176.4800  137.3520 C   0  0  1  0  0  3  0  0  0  0  0  0
  187.8370  177.5610  136.2770 C   0  0  0  0  0  2  0  0  0  0  0  0
  187.8810  178.8820  136.8830 N   0  0  0  0  0  2  0  0  0  0  0  0
  186.8840  178.9290  137.8000 O   0  0  0  0  0  1  0  0  0  0  0  0
  186.6530  175.5260  137.2130 C   0  0  0  0  0  2  0  0  0  0  0  0
  184.2280  176.4700  137.4120 C   0  0  0  0  0  1  0  0  0  0  0  0
  185.4240  176.2270  136.0740 S   0  0  0  0  0  0  0  0  0  0  0  0
  1  7  1  0  0  0  0
  2 10  1  0  0  0  0
  2  1  2  0  0  0  0
  3  4  1  0  0  0  0
  4  2  1  0  0  0  0
  5  9  1  0  0  0  0
  6  3  2  0  0  0  0
  7  9  2  0  0  0  0
  7 12  1  0  0  0  0
  8  6  1  0  0  0  0
  8 11  2  0  0  0  0
 10  5  2  0  0  0  0
 11 10  1  0  0  0  0
 12 13  1  6  0  0  0
 12 17  1  0  0  0  0
 14 23  1  0  0  0  0
 16 14  1  0  0  0  0
 16 15  1  0  0  0  0
 17 16  2  0  0  0  0
 18 24  1  0  0  0  0
 20 18  1  0  0  0  0
 21 23  1  0  0  0  0
 21 18  2  0  0  0  0
 22 19  1  0  0  0  0
 23 22  2  0  0  0  0
 24 19  2  0  0  0  0
 25 26  1  6  0  0  0
 25  1  1  0  0  0  0
 26 27  1  0  0  0  0
 27 28  1  0  0  0  0
 29 25  1  0  0  0  0
 31 29  1  0  0  0  0
 31 30  1  0  0  0  0
M  END
>  <MODEL>
5

>  <REMARK>
 VINA RESULT:      -7.1      1.852      2.704
  Name = 
  8 active torsions:
  status: ('A' for Active; 'I' for Inactive)
    1  A    between atoms: N_2  and  C_25
    2  A    between atoms: N_3  and  C_22
    3  A    between atoms: C_4  and  C_12
    4  A    between atoms: C_12  and  C_25
    5  A    between atoms: C_12  and  C_27
    6  A    between atoms: C_15  and  C_21
    7  A    between atoms: C_15  and  N_23
    8  A    between atoms: C_27  and  S_28
                            x       y       z     vdW  Elec       q    Type
                         _______ _______ _______ _____ _____    ______ ____

>  <TORSDO>
F 8

$$$$
=
 OpenBabel11052412593D

 31 33  0  0  1  0  0  0  0  0999 V2000
  186.6960  178.0880  143.7170 C   0  0  0  0  0  0  0  0  0  0  0  0
  187.1990  178.2180  145.0300 C   0  0  0  0  0  0  0  0  0  0  0  0
  188.7150  176.7660  146.3300 C   0  0  0  0  0  3  0  0  0  0  0  0
  188.6280  177.8720  145.3360 C   0  0  0  0  0  2  0  0  0  0  0  0
  185.1150  179.1620  145.7020 N   0  0  0  0  0  0  0  0  0  0  0  0
  188.2860  176.8950  147.5850 C   0  0  0  0  0  3  0  0  0  0  0  0
  185.3790  178.5040  143.4600 C   0  0  0  0  0  0  0  0  0  0  0  0
  187.6070  178.0860  148.1220 C   0  0  0  0  0  3  0  0  0  0  0  0
  184.6390  179.0430  144.4640 N   0  0  0  0  0  0  0  0  0  0  0  0
  186.3620  178.7440  146.0340 C   0  0  0  0  0  0  0  0  0  0  0  0
  186.7750  178.8900  147.4460 C   0  0  0  0  0  3  0  0  0  0  0  0
  184.7640  178.3210  142.1080 C   0  0  2  0  0  3  0  0  0  0  0  0
  185.1170  179.3780  141.2670 O   0  0  0  0  0  1  0  0  0  0  0  0
  183.0020  178.9340  139.9840 N   0  0  0  0  0  2  0  0  0  0  0  0
  181.0350  178.4130  141.5370 C   0  0  0  0  0  1  0  0  0  0  0  0
  182.4960  178.5500  141.2770 C   0  0  0  0  0  0  0  0  0  0  0  0
  183.3130  178.2530  142.2380 N   0  0  0  0  0  0  0  0  0  0  0  0
  181.1800  181.2000  137.6050 C   0  0  0  0  0  0  0  0  0  0  0  0
  181.1770  178.9410  136.7330 C   0  0  0  0  0  3  0  0  0  0  0  0
  180.8270  182.5030  137.4880 F   0  0  0  0  0  0  0  0  0  0  0  0
  181.9010  180.7680  138.7210 C   0  0  0  0  0  3  0  0  0  0  0  0
  181.8930  178.5100  137.8530 C   0  0  0  0  0  3  0  0  0  0  0  0
  182.2560  179.4170  138.8570 C   0  0  0  0  0  0  0  0  0  0  0  0
  180.8210  180.2880  136.6090 C   0  0  0  0  0  3  0  0  0  0  0  0
  187.5130  177.5210  142.5820 C   0  0  1  0  0  3  0  0  0  0  0  0
  188.2820  178.6050  141.8350 C   0  0  0  0  0  2  0  0  0  0  0  0
  187.8920  178.6340  140.4350 N   0  0  0  0  0  2  0  0  0  0  0  0
  189.0360  178.6350  139.7070 O   0  0  0  0  0  1  0  0  0  0  0  0
  188.4130  176.3880  143.0560 C   0  0  0  0  0  2  0  0  0  0  0  0
  190.8660  175.6280  143.5190 C   0  0  0  0  0  1  0  0  0  0  0  0
  189.9900  176.4370  142.1560 S   0  0  0  0  0  0  0  0  0  0  0  0
  1  2  1  0  0  0  0
  2  4  1  0  0  0  0
  2 10  2  0  0  0  0
  3  6  2  0  0  0  0
  4  3  1  0  0  0  0
  5 10  1  0  0  0  0
  6  8  1  0  0  0  0
  7  1  2  0  0  0  0
  7  9  1  0  0  0  0
  9  5  2  0  0  0  0
 10 11  1  0  0  0  0
 11  8  2  0  0  0  0
 12 13  1  6  0  0  0
 12 17  1  0  0  0  0
 12  7  1  0  0  0  0
 14 16  1  0  0  0  0
 16 15  1  0  0  0  0
 16 17  2  0  0  0  0
 18 21  1  0  0  0  0
 19 22  2  0  0  0  0
 20 18  1  0  0  0  0
 21 23  2  0  0  0  0
 22 23  1  0  0  0  0
 23 14  1  0  0  0  0
 24 19  1  0  0  0  0
 24 18  2  0  0  0  0
 25 26  1  1  0  0  0
 25 29  1  0  0  0  0
 25  1  1  0  0  0  0
 27 26  1  0  0  0  0
 28 27  1  0  0  0  0
 31 29  1  0  0  0  0
 31 30  1  0  0  0  0
M  END
>  <MODEL>
6

>  <REMARK>
 VINA RESULT:      -7.1      4.806      7.938
  Name = 
  8 active torsions:
  status: ('A' for Active; 'I' for Inactive)
    1  A    between atoms: N_2  and  C_25
    2  A    between atoms: N_3  and  C_22
    3  A    between atoms: C_4  and  C_12
    4  A    between atoms: C_12  and  C_25
    5  A    between atoms: C_12  and  C_27
    6  A    between atoms: C_15  and  C_21
    7  A    between atoms: C_15  and  N_23
    8  A    between atoms: C_27  and  S_28
                            x       y       z     vdW  Elec       q    Type
                         _______ _______ _______ _____ _____    ______ ____

>  <TORSDO>
F 8

$$$$
=
 OpenBabel11052412593D

 31 33  0  0  1  0  0  0  0  0999 V2000
  180.9440  179.2550  140.6610 C   0  0  0  0  0  0  0  0  0  0  0  0
  180.3500  180.1660  139.7600 C   0  0  0  0  0  0  0  0  0  0  0  0
  181.1510  181.0570  137.6010 C   0  0  0  0  0  3  0  0  0  0  0  0
  180.4370  179.9390  138.2780 C   0  0  0  0  0  2  0  0  0  0  0  0
  179.4480  181.3640  141.6140 N   0  0  0  0  0  0  0  0  0  0  0  0
  180.6670  182.2990  137.5670 C   0  0  0  0  0  3  0  0  0  0  0  0
  180.7630  179.4610  142.0380 C   0  0  0  0  0  0  0  0  0  0  0  0
  179.4390  182.7410  138.2490 C   0  0  0  0  0  3  0  0  0  0  0  0
  180.0050  180.5040  142.4660 N   0  0  0  0  0  0  0  0  0  0  0  0
  179.6130  181.2520  140.2730 C   0  0  0  0  0  0  0  0  0  0  0  0
  178.9810  182.2830  139.4210 C   0  0  0  0  0  3  0  0  0  0  0  0
  181.4310  178.5750  143.0440 C   0  0  2  0  0  3  0  0  0  0  0  0
  180.4770  177.9680  143.8630 O   0  0  0  0  0  1  0  0  0  0  0  0
  184.2370  178.4590  142.7270 N   0  0  0  0  0  2  0  0  0  0  0  0
  184.4660  180.1850  144.6040 C   0  0  0  0  0  1  0  0  0  0  0  0
  183.6410  179.3050  143.7290 C   0  0  0  0  0  0  0  0  0  0  0  0
  182.3520  179.3640  143.8530 N   0  0  0  0  0  0  0  0  0  0  0  0
  187.7170  178.4000  141.3130 C   0  0  0  0  0  0  0  0  0  0  0  0
  187.6420  177.0630  143.3300 C   0  0  0  0  0  3  0  0  0  0  0  0
  188.4120  178.8990  140.2630 F   0  0  0  0  0  0  0  0  0  0  0  0
  186.3600  178.6970  141.4600 C   0  0  0  0  0  3  0  0  0  0  0  0
  186.2820  177.3570  143.4720 C   0  0  0  0  0  3  0  0  0  0  0  0
  185.6300  178.1710  142.5370 C   0  0  0  0  0  0  0  0  0  0  0  0
  188.3600  177.5850  142.2500 C   0  0  0  0  0  3  0  0  0  0  0  0
  181.7630  178.0720  140.2040 C   0  0  1  0  0  3  0  0  0  0  0  0
  180.9420  177.0980  139.3680 C   0  0  0  0  0  2  0  0  0  0  0  0
  180.3230  176.0920  140.2170 N   0  0  0  0  0  2  0  0  0  0  0  0
  180.4790  174.8990  139.5940 O   0  0  0  0  0  1  0  0  0  0  0  0
  183.0360  178.5160  139.5000 C   0  0  0  0  0  2  0  0  0  0  0  0
  185.1140  177.9860  138.0110 C   0  0  0  0  0  1  0  0  0  0  0  0
  183.4110  177.3820  138.1310 S   0  0  0  0  0  0  0  0  0  0  0  0
  1  7  1  0  0  0  0
  2 10  1  0  0  0  0
  2  1  2  0  0  0  0
  3  4  1  0  0  0  0
  4  2  1  0  0  0  0
  5  9  1  0  0  0  0
  6  3  2  0  0  0  0
  6  8  1  0  0  0  0
  7  9  2  0  0  0  0
  7 12  1  0  0  0  0
  8 11  2  0  0  0  0
 10  5  2  0  0  0  0
 11 10  1  0  0  0  0
 12 17  1  0  0  0  0
 12 13  1  1  0  0  0
 14 16  1  0  0  0  0
 16 17  2  0  0  0  0
 16 15  1  0  0  0  0
 18 21  2  0  0  0  0
 18 24  1  0  0  0  0
 19 22  1  0  0  0  0
 20 18  1  0  0  0  0
 21 23  1  0  0  0  0
 23 14  1  0  0  0  0
 23 22  2  0  0  0  0
 24 19  2  0  0  0  0
 25 26  1  6  0  0  0
 25  1  1  0  0  0  0
 26 27  1  0  0  0  0
 28 27  1  0  0  0  0
 29 25  1  0  0  0  0
 30 31  1  0  0  0  0
 31 29  1  0  0  0  0
M  END
>  <MODEL>
7

>  <REMARK>
 VINA RESULT:      -6.9      5.182      9.017
  Name = 
  8 active torsions:
  status: ('A' for Active; 'I' for Inactive)
    1  A    between atoms: N_2  and  C_25
    2  A    between atoms: N_3  and  C_22
    3  A    between atoms: C_4  and  C_12
    4  A    between atoms: C_12  and  C_25
    5  A    between atoms: C_12  and  C_27
    6  A    between atoms: C_15  and  C_21
    7  A    between atoms: C_15  and  N_23
    8  A    between atoms: C_27  and  S_28
                            x       y       z     vdW  Elec       q    Type
                         _______ _______ _______ _____ _____    ______ ____

>  <TORSDO>
F 8

$$$$
=
 OpenBabel11052412593D

 31 33  0  0  1  0  0  0  0  0999 V2000
  187.3720  178.1610  140.2500 C   0  0  0  0  0  0  0  0  0  0  0  0
  188.1790  177.9650  141.3920 C   0  0  0  0  0  0  0  0  0  0  0  0
  190.0240  176.3790  141.8130 C   0  0  0  0  0  3  0  0  0  0  0  0
  189.6510  177.7060  141.2490 C   0  0  0  0  0  2  0  0  0  0  0  0
  186.2930  178.4420  142.7700 N   0  0  0  0  0  0  0  0  0  0  0  0
  189.9150  176.0960  143.1110 C   0  0  0  0  0  3  0  0  0  0  0  0
  186.0180  178.4850  140.4340 C   0  0  0  0  0  0  0  0  0  0  0  0
  189.3450  177.0020  144.1220 C   0  0  0  0  0  3  0  0  0  0  0  0
  185.5300  178.6300  141.6940 N   0  0  0  0  0  0  0  0  0  0  0  0
  187.5970  178.0870  142.6690 C   0  0  0  0  0  0  0  0  0  0  0  0
  188.3420  177.8680  143.9280 C   0  0  0  0  0  3  0  0  0  0  0  0
  185.0940  178.6290  139.2650 C   0  0  2  0  0  3  0  0  0  0  0  0
  184.9140  179.9780  138.9540 O   0  0  0  0  0  1  0  0  0  0  0  0
  184.1900  176.2460  138.0440 N   0  0  0  0  0  2  0  0  0  0  0  0
  182.0550  176.3990  139.4480 C   0  0  0  0  0  1  0  0  0  0  0  0
  183.3770  176.9330  139.0130 C   0  0  0  0  0  0  0  0  0  0  0  0
  183.8090  178.0150  139.5810 N   0  0  0  0  0  0  0  0  0  0  0  0
  183.7540  172.7360  136.7750 C   0  0  0  0  0  0  0  0  0  0  0  0
  182.7250  174.2890  135.2280 C   0  0  0  0  0  3  0  0  0  0  0  0
  184.0710  171.4670  137.1250 F   0  0  0  0  0  0  0  0  0  0  0  0
  184.1350  173.8040  137.5930 C   0  0  0  0  0  3  0  0  0  0  0  0
  183.1120  175.3560  136.0440 C   0  0  0  0  0  3  0  0  0  0  0  0
  183.8230  175.1220  137.2290 C   0  0  0  0  0  0  0  0  0  0  0  0
  183.0460  172.9780  135.5950 C   0  0  0  0  0  3  0  0  0  0  0  0
  187.9040  178.0350  138.8430 C   0  0  1  0  0  3  0  0  0  0  0  0
  189.0540  179.0000  138.5790 C   0  0  0  0  0  2  0  0  0  0  0  0
  188.9940  179.5070  137.2180 N   0  0  0  0  0  2  0  0  0  0  0  0
  187.6820  179.6250  136.8990 O   0  0  0  0  0  1  0  0  0  0  0  0
  188.2620  176.5950  138.5100 C   0  0  0  0  0  2  0  0  0  0  0  0
  189.1590  176.0100  136.1290 C   0  0  0  0  0  1  0  0  0  0  0  0
  187.5300  176.1310  136.9130 S   0  0  0  0  0  0  0  0  0  0  0  0
  1  7  2  0  0  0  0
  1  2  1  0  0  0  0
  2 10  2  0  0  0  0
  3  6  2  0  0  0  0
  4  2  1  0  0  0  0
  4  3  1  0  0  0  0
  6  8  1  0  0  0  0
  7  9  1  0  0  0  0
  9  5  2  0  0  0  0
 10  5  1  0  0  0  0
 10 11  1  0  0  0  0
 11  8  2  0  0  0  0
 12 13  1  1  0  0  0
 12 17  1  0  0  0  0
 12  7  1  0  0  0  0
 14 16  1  0  0  0  0
 16 15  1  0  0  0  0
 16 17  2  0  0  0  0
 18 20  1  0  0  0  0
 18 21  1  0  0  0  0
 19 24  1  0  0  0  0
 19 22  2  0  0  0  0
 22 23  1  0  0  0  0
 23 21  2  0  0  0  0
 23 14  1  0  0  0  0
 24 18  2  0  0  0  0
 25 29  1  1  0  0  0
 25  1  1  0  0  0  0
 26 25  1  0  0  0  0
 27 26  1  0  0  0  0
 28 27  1  0  0  0  0
 30 31  1  0  0  0  0
 31 29  1  0  0  0  0
M  END
>  <MODEL>
8

>  <REMARK>
 VINA RESULT:      -6.8      3.601      6.580
  Name = 
  8 active torsions:
  status: ('A' for Active; 'I' for Inactive)
    1  A    between atoms: N_2  and  C_25
    2  A    between atoms: N_3  and  C_22
    3  A    between atoms: C_4  and  C_12
    4  A    between atoms: C_12  and  C_25
    5  A    between atoms: C_12  and  C_27
    6  A    between atoms: C_15  and  C_21
    7  A    between atoms: C_15  and  N_23
    8  A    between atoms: C_27  and  S_28
                            x       y       z     vdW  Elec       q    Type
                         _______ _______ _______ _____ _____    ______ ____

>  <TORSDO>
F 8

$$$$
=
 OpenBabel11052412593D

 31 33  0  0  1  0  0  0  0  0999 V2000
  189.5070  177.6360  139.5800 C   0  0  0  0  0  0  0  0  0  0  0  0
  189.3910  177.6150  140.9880 C   0  0  0  0  0  0  0  0  0  0  0  0
  190.1810  175.9680  142.6490 C   0  0  0  0  0  3  0  0  0  0  0  0
  190.5420  177.1660  141.8400 C   0  0  0  0  0  2  0  0  0  0  0  0
  187.2300  178.6050  140.7940 N   0  0  0  0  0  0  0  0  0  0  0  0
  189.2510  176.0030  143.6030 C   0  0  0  0  0  3  0  0  0  0  0  0
  188.4350  178.1450  138.8280 C   0  0  0  0  0  0  0  0  0  0  0  0
  188.4150  177.1740  143.9200 C   0  0  0  0  0  3  0  0  0  0  0  0
  187.3380  178.6280  139.4670 N   0  0  0  0  0  0  0  0  0  0  0  0
  188.2050  178.0900  141.5830 C   0  0  0  0  0  0  0  0  0  0  0  0
  187.9660  178.0810  143.0420 C   0  0  0  0  0  3  0  0  0  0  0  0
  188.4660  178.1230  137.3320 C   0  0  2  0  0  3  0  0  0  0  0  0
  189.1300  179.2500  136.8440 O   0  0  0  0  0  1  0  0  0  0  0  0
  187.0840  175.7130  136.8130 N   0  0  0  0  0  2  0  0  0  0  0  0
  185.0660  177.0950  136.0580 C   0  0  0  0  0  1  0  0  0  0  0  0
  186.4660  176.9880  136.5580 C   0  0  0  0  0  0  0  0  0  0  0  0
  187.1020  178.0880  136.8170 N   0  0  0  0  0  0  0  0  0  0  0  0
  185.1280  172.5050  136.8520 C   0  0  0  0  0  0  0  0  0  0  0  0
  186.6290  172.5140  134.9520 C   0  0  0  0  0  3  0  0  0  0  0  0
  184.1800  171.8850  137.5930 F   0  0  0  0  0  0  0  0  0  0  0  0
  185.5920  173.7700  137.2230 C   0  0  0  0  0  3  0  0  0  0  0  0
  187.0960  173.7770  135.3290 C   0  0  0  0  0  3  0  0  0  0  0  0
  186.5860  174.4110  136.4690 C   0  0  0  0  0  0  0  0  0  0  0  0
  185.6440  171.8780  135.7140 C   0  0  0  0  0  3  0  0  0  0  0  0
  190.7310  177.1340  138.8540 C   0  0  1  0  0  3  0  0  0  0  0  0
  192.0180  177.5030  139.5830 C   0  0  0  0  0  2  0  0  0  0  0  0
  193.1600  176.8520  138.9620 N   0  0  0  0  0  2  0  0  0  0  0  0
  194.1630  176.8630  139.8730 O   0  0  0  0  0  1  0  0  0  0  0  0
  190.6320  175.6440  138.5620 C   0  0  0  0  0  2  0  0  0  0  0  0
  192.0110  174.0940  136.9780 C   0  0  0  0  0  1  0  0  0  0  0  0
  190.7320  175.3600  136.7700 S   0  0  0  0  0  0  0  0  0  0  0  0
  1  2  1  0  0  0  0
  2 10  2  0  0  0  0
  2  4  1  0  0  0  0
  3  6  2  0  0  0  0
  4  3  1  0  0  0  0
  5 10  1  0  0  0  0
  6  8  1  0  0  0  0
  7  9  1  0  0  0  0
  7  1  2  0  0  0  0
  9  5  2  0  0  0  0
 10 11  1  0  0  0  0
 11  8  2  0  0  0  0
 12 13  1  6  0  0  0
 12  7  1  0  0  0  0
 15 16  1  0  0  0  0
 16 14  1  0  0  0  0
 16 17  2  0  0  0  0
 17 12  1  0  0  0  0
 18 21  1  0  0  0  0
 18 20  1  0  0  0  0
 19 22  2  0  0  0  0
 19 24  1  0  0  0  0
 22 23  1  0  0  0  0
 23 14  1  0  0  0  0
 23 21  2  0  0  0  0
 24 18  2  0  0  0  0
 25 29  1  1  0  0  0
 25  1  1  0  0  0  0
 25 26  1  0  0  0  0
 27 26  1  0  0  0  0
 27 28  1  0  0  0  0
 31 30  1  0  0  0  0
 31 29  1  0  0  0  0
M  END
>  <MODEL>
9

>  <REMARK>
 VINA RESULT:      -6.8      3.204      7.070
  Name = 
  8 active torsions:
  status: ('A' for Active; 'I' for Inactive)
    1  A    between atoms: N_2  and  C_25
    2  A    between atoms: N_3  and  C_22
    3  A    between atoms: C_4  and  C_12
    4  A    between atoms: C_12  and  C_25
    5  A    between atoms: C_12  and  C_27
    6  A    between atoms: C_15  and  C_21
    7  A    between atoms: C_15  and  N_23
    8  A    between atoms: C_27  and  S_28
                            x       y       z     vdW  Elec       q    Type
                         _______ _______ _______ _____ _____    ______ ____

>  <TORSDO>
F 8

$$$$
