=
 OpenBabel11052416063D

 43 48  0  0  1  0  0  0  0  0999 V2000
  187.7780  177.2440  147.5630 C   0  0  1  0  0  3  0  0  0  0  0  0
  185.5180  178.7230  143.2550 C   0  0  0  0  0  0  0  0  0  0  0  0
  187.3420  178.0930  141.1680 C   0  0  0  0  0  0  0  0  0  0  0  0
  186.3350  178.4620  145.9260 C   0  0  0  0  0  0  0  0  0  0  0  0
  188.8210  177.1760  146.4810 C   0  0  0  0  0  3  0  0  0  0  0  0
  188.3940  177.3590  148.8080 O   0  0  0  0  0  1  0  0  0  0  0  0
  187.1970  178.0620  144.8870 C   0  0  0  0  0  0  0  0  0  0  0  0
  186.8080  178.4120  147.3520 C   0  0  0  0  0  2  0  0  0  0  0  0
  188.5270  177.5200  145.2230 C   0  0  0  0  0  3  0  0  0  0  0  0
  187.6570  177.8540  142.5100 O   0  0  0  0  0  0  0  0  0  0  0  0
  186.7920  178.2060  143.5510 C   0  0  2  0  0  3  0  0  0  0  0  0
  184.6720  179.1250  144.2980 C   0  0  0  0  0  3  0  0  0  0  0  0
  185.0440  178.8200  141.8290 C   0  0  0  0  0  0  0  0  0  0  0  0
  186.1420  178.5780  140.8240 C   0  0  0  0  0  3  0  0  0  0  0  0
  185.0840  179.0060  145.6270 C   0  0  0  0  0  3  0  0  0  0  0  0
  188.3830  177.8280  140.1290 C   0  0  1  0  0  3  0  0  0  0  0  0
  188.7060  179.0020  139.4440 O   0  0  0  0  0  1  0  0  0  0  0  0
  189.6300  177.2210  140.7570 C   0  0  0  0  0  2  0  0  0  0  0  0
  190.8050  177.2840  139.7940 C   0  0  1  0  0  3  0  0  0  0  0  0
  192.0900  177.3920  140.5900 C   0  0  0  0  0  1  0  0  0  0  0  0
  190.8390  176.1260  139.0100 O   0  0  0  0  0  0  0  0  0  0  0  0
  191.2430  176.5520  137.7380 C   0  0  2  0  0  3  0  0  0  0  0  0
  190.6800  174.6990  136.2870 C   0  0  0  0  0  2  0  0  0  0  0  0
  190.0160  176.9580  136.9440 C   0  0  0  0  0  2  0  0  0  0  0  0
  191.8550  175.4070  136.9360 C   0  0  1  0  0  0  0  0  0  0  0  0
  192.6670  175.9410  135.9490 F   0  0  0  0  0  0  0  0  0  0  0  0
  189.5540  175.7170  136.2000 C   0  0  0  0  0  2  0  0  0  0  0  0
  192.6730  174.4550  137.8080 C   0  0  0  0  0  2  0  0  0  0  0  0
  194.0770  174.4630  137.4190 N   0  0  0  0  0  0  0  0  0  0  0  0
  196.4500  175.0890  140.1150 N   0  0  0  0  0  1  0  0  0  0  0  0
  195.5500  173.3100  138.8120 N   0  0  0  0  0  0  0  0  0  0  0  0
  195.6100  174.5560  139.0980 C   0  0  0  0  0  0  0  0  0  0  0  0
  194.6130  173.2100  137.7800 N   0  0  0  0  0  2  0  0  0  0  0  0
  194.7400  175.3370  138.3000 N   0  0  0  0  0  2  0  0  0  0  0  0
  183.9090  177.8320  141.5910 C   0  0  0  0  0  2  0  0  0  0  0  0
  180.4510  178.5620  140.1450 C   0  0  0  0  0  2  0  0  0  0  0  0
  180.3340  177.1560  139.5370 C   0  0  0  0  0  0  0  0  0  0  0  0
  179.3330  176.3520  140.3430 C   0  0  0  0  0  1  0  0  0  0  0  0
  182.8610  177.3420  139.3750 C   0  0  0  0  0  2  0  0  0  0  0  0
  181.5730  178.6430  141.1760 C   0  0  0  0  0  2  0  0  0  0  0  0
  182.9380  178.3430  140.5370 C   0  0  0  0  0  3  0  0  0  0  0  0
  179.8160  177.2840  138.1190 C   0  0  0  0  0  1  0  0  0  0  0  0
  181.6690  176.3960  139.5190 C   0  0  0  0  0  2  0  0  0  0  0  0
  1  6  1  1  0  0  0
  2 11  1  0  0  0  0
  2 12  1  0  0  0  0
  3 10  1  0  0  0  0
  4  8  1  0  0  0  0
  5  1  1  0  0  0  0
  7  9  1  0  0  0  0
  7  4  2  0  0  0  0
  8  1  1  0  0  0  0
  9  5  2  0  0  0  0
 11 10  1  6  0  0  0
 11  7  1  0  0  0  0
 12 15  2  0  0  0  0
 13  2  2  0  0  0  0
 14  3  2  0  0  0  0
 14 13  1  0  0  0  0
 15  4  1  0  0  0  0
 16 17  1  1  0  0  0
 16 18  1  0  0  0  0
 16  3  1  0  0  0  0
 19 20  1  1  0  0  0
 19 18  1  0  0  0  0
 21 19  1  0  0  0  0
 22 21  1  1  0  0  0
 23 25  1  0  0  0  0
 24 22  1  0  0  0  0
 25 26  1  6  0  0  0
 25 22  1  0  0  0  0
 25 28  1  0  0  0  0
 27 23  1  0  0  0  0
 27 24  1  0  0  0  0
 29 33  1  0  0  0  0
 29 28  1  0  0  0  0
 29 34  1  0  0  0  0
 31 32  2  0  0  0  0
 32 30  1  0  0  0  0
 33 31  1  0  0  0  0
 34 32  1  0  0  0  0
 35 13  1  0  0  0  0
 36 40  1  0  0  0  0
 37 36  1  0  0  0  0
 37 38  1  0  0  0  0
 39 43  1  0  0  0  0
 39 41  1  0  0  0  0
 41 40  1  0  0  0  0
 41 35  1  0  0  0  0
 42 37  1  0  0  0  0
 43 37  1  0  0  0  0
M  END
>  <MODEL>
1

>  <REMARK>
 VINA RESULT:     -10.1      0.000      0.000
  Name = 
  9 active torsions:
  status: ('A' for Active; 'I' for Inactive)
    1  A    between atoms: C_1  and  C_34
    2  A    between atoms: C_1  and  C_35
    3  A    between atoms: C_2  and  C_6
    4  A    between atoms: C_2  and  C_13
    5  A    between atoms: O_3  and  C_4
    6  A    between atoms: O_3  and  C_12
    7  A    between atoms: C_6  and  C_12
    8  A    between atoms: N_11  and  C_14
    9  A    between atoms: C_14  and  C_22
                            x       y       z     vdW  Elec       q    Type
                         _______ _______ _______ _____ _____    ______ ____

>  <TORSDO>
F 9

$$$$
=
 OpenBabel11052416063D

 43 48  0  0  1  0  0  0  0  0999 V2000
  191.4910  177.0920  147.0050 C   0  0  1  0  0  3  0  0  0  0  0  0
  189.0800  177.1050  142.5290 C   0  0  0  0  0  0  0  0  0  0  0  0
  186.4330  177.9870  143.0770 C   0  0  0  0  0  0  0  0  0  0  0  0
  190.8180  176.5520  144.6590 C   0  0  0  0  0  0  0  0  0  0  0  0
  190.0290  177.2880  147.3000 C   0  0  0  0  0  3  0  0  0  0  0  0
  192.1360  176.5750  148.1270 O   0  0  0  0  0  1  0  0  0  0  0  0
  189.5380  177.0800  144.9180 C   0  0  0  0  0  0  0  0  0  0  0  0
  191.7140  176.1660  145.8040 C   0  0  0  0  0  2  0  0  0  0  0  0
  189.1280  177.3250  146.3130 C   0  0  0  0  0  3  0  0  0  0  0  0
  187.3760  177.8250  144.0990 O   0  0  0  0  0  0  0  0  0  0  0  0
  188.6650  177.3440  143.8520 C   0  0  0  0  0  0  0  0  0  0  0  0
  190.3520  176.5710  142.2850 C   0  0  0  0  0  2  0  0  0  0  0  0
  188.1780  177.4460  141.3720 C   0  0  0  0  0  0  0  0  0  0  0  0
  186.7710  177.7810  141.7980 C   0  0  0  0  0  3  0  0  0  0  0  0
  191.2140  176.2860  143.3470 C   0  0  0  0  0  3  0  0  0  0  0  0
  185.0340  178.3600  143.4460 C   0  0  1  0  0  3  0  0  0  0  0  0
  185.0180  179.1010  144.6300 O   0  0  0  0  0  1  0  0  0  0  0  0
  184.3700  179.1430  142.3220 C   0  0  0  0  0  2  0  0  0  0  0  0
  183.0230  178.5360  141.9640 C   0  0  1  0  0  3  0  0  0  0  0  0
  181.9990  178.9620  142.9970 C   0  0  0  0  0  1  0  0  0  0  0  0
  182.6220  178.9830  140.7000 O   0  0  0  0  0  0  0  0  0  0  0  0
  182.0050  177.8780  140.0960 C   0  0  2  0  0  3  0  0  0  0  0  0
  182.5930  178.0790  137.7570 C   0  0  0  0  0  2  0  0  0  0  0  0
  183.0590  176.8270  139.8050 C   0  0  0  0  0  2  0  0  0  0  0  0
  181.4360  178.2390  138.7270 C   0  0  1  0  0  0  0  0  0  0  0  0
  180.4430  177.3290  138.4050 F   0  0  0  0  0  0  0  0  0  0  0  0
  183.5660  177.1040  138.3990 C   0  0  0  0  0  2  0  0  0  0  0  0
  180.8620  179.6550  138.6880 C   0  0  0  0  0  2  0  0  0  0  0  0
  181.6270  180.5060  137.7850 N   0  0  0  0  0  0  0  0  0  0  0  0
  179.7010  183.0340  135.9990 N   0  0  0  0  0  1  0  0  0  0  0  0
  181.1620  182.7900  137.8630 N   0  0  0  0  0  0  0  0  0  0  0  0
  180.5350  182.2810  136.8700 C   0  0  0  0  0  0  0  0  0  0  0  0
  181.8480  181.7260  138.4560 N   0  0  0  0  0  2  0  0  0  0  0  0
  180.7560  180.8880  136.7480 N   0  0  0  0  0  2  0  0  0  0  0  0
  188.7630  178.6120  140.5840 C   0  0  0  0  0  2  0  0  0  0  0  0
  189.0730  178.5460  136.7790 C   0  0  0  0  0  2  0  0  0  0  0  0
  187.9790  177.4760  136.6410 C   0  0  0  0  0  0  0  0  0  0  0  0
  186.7260  178.1200  136.0790 C   0  0  0  0  0  1  0  0  0  0  0  0
  188.8240  176.7470  138.9200 C   0  0  0  0  0  2  0  0  0  0  0  0
  189.0660  179.1880  138.1630 C   0  0  0  0  0  2  0  0  0  0  0  0
  189.3510  178.1490  139.2590 C   0  0  0  0  0  3  0  0  0  0  0  0
  188.4550  176.4210  135.6640 C   0  0  0  0  0  1  0  0  0  0  0  0
  187.6240  176.8030  137.9760 C   0  0  0  0  0  2  0  0  0  0  0  0
  1  5  1  0  0  0  0
  1  6  1  1  0  0  0
  2 11  1  0  0  0  0
  3 16  1  0  0  0  0
  3 10  1  0  0  0  0
  4  7  1  0  0  0  0
  4  8  1  0  0  0  0
  7  9  1  0  0  0  0
  8  1  1  0  0  0  0
  9  5  2  0  0  0  0
 11 10  1  0  0  0  0
 11  7  2  0  0  0  0
 12  2  1  0  0  0  0
 12 15  1  0  0  0  0
 13 14  1  0  0  0  0
 13  2  2  0  0  0  0
 14  3  2  0  0  0  0
 15  4  2  0  0  0  0
 16 17  1  1  0  0  0
 18 16  1  0  0  0  0
 19 18  1  0  0  0  0
 19 20  1  1  0  0  0
 21 19  1  0  0  0  0
 22 21  1  6  0  0  0
 23 27  1  0  0  0  0
 23 25  1  0  0  0  0
 24 22  1  0  0  0  0
 25 26  1  6  0  0  0
 25 22  1  0  0  0  0
 27 24  1  0  0  0  0
 28 25  1  0  0  0  0
 29 33  1  0  0  0  0
 29 28  1  0  0  0  0
 30 32  1  0  0  0  0
 31 33  1  0  0  0  0
 32 31  2  0  0  0  0
 34 32  1  0  0  0  0
 34 29  1  0  0  0  0
 35 13  1  0  0  0  0
 36 40  1  0  0  0  0
 37 36  1  0  0  0  0
 37 43  1  0  0  0  0
 38 37  1  0  0  0  0
 39 41  1  0  0  0  0
 40 41  1  0  0  0  0
 41 35  1  0  0  0  0
 42 37  1  0  0  0  0
 43 39  1  0  0  0  0
M  END
>  <MODEL>
2

>  <REMARK>
 VINA RESULT:      -9.2      5.958      8.921
  Name = 
  9 active torsions:
  status: ('A' for Active; 'I' for Inactive)
    1  A    between atoms: C_1  and  C_34
    2  A    between atoms: C_1  and  C_35
    3  A    between atoms: C_2  and  C_6
    4  A    between atoms: C_2  and  C_13
    5  A    between atoms: O_3  and  C_4
    6  A    between atoms: O_3  and  C_12
    7  A    between atoms: C_6  and  C_12
    8  A    between atoms: N_11  and  C_14
    9  A    between atoms: C_14  and  C_22
                            x       y       z     vdW  Elec       q    Type
                         _______ _______ _______ _____ _____    ______ ____

>  <TORSDO>
F 9

$$$$
=
 OpenBabel11052416063D

 43 48  0  0  1  0  0  0  0  0999 V2000
  187.7360  177.2290  147.2430 C   0  0  1  0  0  3  0  0  0  0  0  0
  185.4630  178.6730  142.9300 C   0  0  0  0  0  0  0  0  0  0  0  0
  187.4020  178.3310  140.8810 C   0  0  0  0  0  0  0  0  0  0  0  0
  186.2240  178.3710  145.6140 C   0  0  0  0  0  0  0  0  0  0  0  0
  188.8120  177.3180  146.1950 C   0  0  0  0  0  3  0  0  0  0  0  0
  188.3000  177.3460  148.5120 O   0  0  0  0  0  1  0  0  0  0  0  0
  187.1530  178.1090  144.5870 C   0  0  0  0  0  0  0  0  0  0  0  0
  186.6580  178.3010  147.0510 C   0  0  0  0  0  2  0  0  0  0  0  0
  188.5210  177.6890  144.9440 C   0  0  0  0  0  3  0  0  0  0  0  0
  187.7010  178.0620  142.2210 O   0  0  0  0  0  0  0  0  0  0  0  0
  186.7750  178.2740  143.2460 C   0  0  2  0  0  3  0  0  0  0  0  0
  184.5500  178.9380  143.9600 C   0  0  0  0  0  3  0  0  0  0  0  0
  185.0240  178.7890  141.4950 C   0  0  0  0  0  0  0  0  0  0  0  0
  186.1700  178.7080  140.5180 C   0  0  0  0  0  3  0  0  0  0  0  0
  184.9330  178.7980  145.2970 C   0  0  0  0  0  3  0  0  0  0  0  0
  188.4950  178.2220  139.8670 C   0  0  1  0  0  3  0  0  0  0  0  0
  189.6990  177.8600  140.4770 O   0  0  0  0  0  1  0  0  0  0  0  0
  188.1290  177.2190  138.7830 C   0  0  0  0  0  2  0  0  0  0  0  0
  187.9480  177.9150  137.4430 C   0  0  1  0  0  3  0  0  0  0  0  0
  188.8800  179.1080  137.3760 C   0  0  0  0  0  1  0  0  0  0  0  0
  188.2520  177.0290  136.4040 O   0  0  0  0  0  0  0  0  0  0  0  0
  189.0890  176.0610  136.9750 C   0  0  2  0  0  3  0  0  0  0  0  0
  189.6070  174.5700  135.1410 C   0  0  0  0  0  2  0  0  0  0  0  0
  190.5200  176.3420  136.5570 C   0  0  0  0  0  2  0  0  0  0  0  0
  188.7940  174.6710  136.4180 C   0  0  1  0  0  0  0  0  0  0  0  0
  189.2470  173.7250  137.3220 F   0  0  0  0  0  0  0  0  0  0  0  0
  190.7570  175.5540  135.2790 C   0  0  0  0  0  2  0  0  0  0  0  0
  187.3040  174.4520  136.1540 C   0  0  0  0  0  2  0  0  0  0  0  0
  186.5650  174.3190  137.4030 N   0  0  0  0  0  0  0  0  0  0  0  0
  182.9420  174.0850  137.0670 N   0  0  0  0  0  1  0  0  0  0  0  0
  184.8620  172.7260  137.4410 N   0  0  0  0  0  0  0  0  0  0  0  0
  184.3380  173.8770  137.2400 C   0  0  0  0  0  0  0  0  0  0  0  0
  186.2370  172.9550  137.5460 N   0  0  0  0  0  2  0  0  0  0  0  0
  185.3050  174.9100  137.1970 N   0  0  0  0  0  2  0  0  0  0  0  0
  184.0030  177.7040  141.1750 C   0  0  0  0  0  2  0  0  0  0  0  0
  180.3040  178.4150  140.5530 C   0  0  0  0  0  2  0  0  0  0  0  0
  180.0910  177.0610  139.8580 C   0  0  0  0  0  0  0  0  0  0  0  0
  179.3000  176.1520  140.7780 C   0  0  0  0  0  1  0  0  0  0  0  0
  182.5220  177.3620  139.1900 C   0  0  0  0  0  2  0  0  0  0  0  0
  181.6160  178.4520  141.3320 C   0  0  0  0  0  2  0  0  0  0  0  0
  182.8210  178.2630  140.3970 C   0  0  0  0  0  3  0  0  0  0  0  0
  179.2830  177.2880  138.5970 C   0  0  0  0  0  1  0  0  0  0  0  0
  181.4080  176.3600  139.4920 C   0  0  0  0  0  2  0  0  0  0  0  0
  1  6  1  1  0  0  0
  2 11  1  0  0  0  0
  2 12  1  0  0  0  0
  3 10  1  0  0  0  0
  4  8  1  0  0  0  0
  5  1  1  0  0  0  0
  7  9  1  0  0  0  0
  7  4  2  0  0  0  0
  8  1  1  0  0  0  0
  9  5  2  0  0  0  0
 11 10  1  1  0  0  0
 11  7  1  0  0  0  0
 12 15  2  0  0  0  0
 13  2  2  0  0  0  0
 14  3  2  0  0  0  0
 14 13  1  0  0  0  0
 15  4  1  0  0  0  0
 16 17  1  1  0  0  0
 16  3  1  0  0  0  0
 18 16  1  0  0  0  0
 19 20  1  1  0  0  0
 19 18  1  0  0  0  0
 21 19  1  0  0  0  0
 22 21  1  6  0  0  0
 23 27  1  0  0  0  0
 23 25  1  0  0  0  0
 24 22  1  0  0  0  0
 25 22  1  0  0  0  0
 25 26  1  1  0  0  0
 27 24  1  0  0  0  0
 28 25  1  0  0  0  0
 28 29  1  0  0  0  0
 29 33  1  0  0  0  0
 30 32  1  0  0  0  0
 31 33  1  0  0  0  0
 32 31  2  0  0  0  0
 34 32  1  0  0  0  0
 34 29  1  0  0  0  0
 35 13  1  0  0  0  0
 36 40  1  0  0  0  0
 37 36  1  0  0  0  0
 37 38  1  0  0  0  0
 39 43  1  0  0  0  0
 39 41  1  0  0  0  0
 41 35  1  0  0  0  0
 41 40  1  0  0  0  0
 42 37  1  0  0  0  0
 43 37  1  0  0  0  0
M  END
>  <MODEL>
3

>  <REMARK>
 VINA RESULT:      -9.1      3.394      4.296
  Name = 
  9 active torsions:
  status: ('A' for Active; 'I' for Inactive)
    1  A    between atoms: C_1  and  C_34
    2  A    between atoms: C_1  and  C_35
    3  A    between atoms: C_2  and  C_6
    4  A    between atoms: C_2  and  C_13
    5  A    between atoms: O_3  and  C_4
    6  A    between atoms: O_3  and  C_12
    7  A    between atoms: C_6  and  C_12
    8  A    between atoms: N_11  and  C_14
    9  A    between atoms: C_14  and  C_22
                            x       y       z     vdW  Elec       q    Type
                         _______ _______ _______ _____ _____    ______ ____

>  <TORSDO>
F 9

$$$$
=
 OpenBabel11052416063D

 43 48  0  0  1  0  0  0  0  0999 V2000
  184.2050  176.9580  135.4630 C   0  0  1  0  0  3  0  0  0  0  0  0
  188.9900  177.1680  137.1710 C   0  0  0  0  0  0  0  0  0  0  0  0
  188.7950  177.7350  139.9500 C   0  0  0  0  0  0  0  0  0  0  0  0
  186.6820  177.2690  135.5790 C   0  0  0  0  0  0  0  0  0  0  0  0
  184.1440  177.5210  136.8570 C   0  0  0  0  0  3  0  0  0  0  0  0
  183.0660  177.3300  134.7510 O   0  0  0  0  0  1  0  0  0  0  0  0
  186.5820  177.4530  136.9720 C   0  0  0  0  0  0  0  0  0  0  0  0
  185.4610  177.4170  134.7140 C   0  0  0  0  0  2  0  0  0  0  0  0
  185.2580  177.7080  137.5710 C   0  0  0  0  0  3  0  0  0  0  0  0
  187.6570  177.6430  139.1420 O   0  0  0  0  0  0  0  0  0  0  0  0
  187.7380  177.4160  137.7650 C   0  0  0  0  0  0  0  0  0  0  0  0
  189.0780  176.9950  135.7830 C   0  0  0  0  0  2  0  0  0  0  0  0
  190.2300  177.0590  138.0180 C   0  0  0  0  0  0  0  0  0  0  0  0
  190.0130  177.5030  139.4430 C   0  0  0  0  0  3  0  0  0  0  0  0
  187.9300  177.0560  134.9900 C   0  0  0  0  0  3  0  0  0  0  0  0
  188.6280  178.1300  141.3820 C   0  0  1  0  0  3  0  0  0  0  0  0
  187.4250  178.8140  141.5670 O   0  0  0  0  0  1  0  0  0  0  0  0
  188.6890  176.9090  142.2890 C   0  0  0  0  0  2  0  0  0  0  0  0
  189.6450  177.1450  143.4470 C   0  0  1  0  0  3  0  0  0  0  0  0
  189.9830  178.6200  143.5180 C   0  0  0  0  0  1  0  0  0  0  0  0
  189.0440  176.7470  144.6470 O   0  0  0  0  0  0  0  0  0  0  0  0
  189.5000  177.6600  145.6090 C   0  0  2  0  0  3  0  0  0  0  0  0
  189.0640  176.5600  147.7200 C   0  0  0  0  0  2  0  0  0  0  0  0
  190.8330  177.1780  146.1490 C   0  0  0  0  0  2  0  0  0  0  0  0
  188.5820  177.6890  146.8270 C   0  0  1  0  0  0  0  0  0  0  0  0
  188.7540  178.8950  147.4850 F   0  0  0  0  0  0  0  0  0  0  0  0
  190.5200  176.3130  147.3580 C   0  0  0  0  0  2  0  0  0  0  0  0
  187.1090  177.5180  146.4520 C   0  0  0  0  0  2  0  0  0  0  0  0
  186.5200  178.7900  146.0510 N   0  0  0  0  0  0  0  0  0  0  0  0
  183.7250  178.5600  143.7230 N   0  0  0  0  0  1  0  0  0  0  0  0
  184.1910  178.8990  146.0340 N   0  0  0  0  0  0  0  0  0  0  0  0
  184.5980  178.6960  144.8370 C   0  0  0  0  0  0  0  0  0  0  0  0
  185.3480  178.9610  146.8150 N   0  0  0  0  0  2  0  0  0  0  0  0
  186.0080  178.6110  144.7530 N   0  0  0  0  0  2  0  0  0  0  0  0
  190.7440  175.6250  138.0040 C   0  0  0  0  0  2  0  0  0  0  0  0
  193.6590  173.7660  136.3840 C   0  0  0  0  0  2  0  0  0  0  0  0
  194.6640  174.3080  137.4130 C   0  0  0  0  0  0  0  0  0  0  0  0
  195.0590  173.1880  138.3550 C   0  0  0  0  0  1  0  0  0  0  0  0
  193.0880  176.2980  137.4570 C   0  0  0  0  0  2  0  0  0  0  0  0
  192.2170  173.9620  136.8430 C   0  0  0  0  0  2  0  0  0  0  0  0
  191.8860  175.4530  137.0130 C   0  0  0  0  0  3  0  0  0  0  0  0
  195.9030  174.7760  136.6770 C   0  0  0  0  0  1  0  0  0  0  0  0
  194.1040  175.4710  138.2460 C   0  0  0  0  0  2  0  0  0  0  0  0
  1  6  1  6  0  0  0
  1  5  1  0  0  0  0
  2 11  1  0  0  0  0
  2 13  2  0  0  0  0
  3 16  1  0  0  0  0
  4  7  1  0  0  0  0
  5  9  2  0  0  0  0
  7  9  1  0  0  0  0
  7 11  2  0  0  0  0
  8  1  1  0  0  0  0
  8  4  1  0  0  0  0
 10  3  1  0  0  0  0
 11 10  1  0  0  0  0
 12  2  1  0  0  0  0
 13 14  1  0  0  0  0
 14  3  2  0  0  0  0
 15  4  2  0  0  0  0
 15 12  1  0  0  0  0
 16 17  1  6  0  0  0
 16 18  1  0  0  0  0
 18 19  1  0  0  0  0
 19 20  1  1  0  0  0
 19 21  1  0  0  0  0
 22 21  1  6  0  0  0
 22 24  1  0  0  0  0
 22 25  1  0  0  0  0
 24 27  1  0  0  0  0
 25 26  1  1  0  0  0
 25 23  1  0  0  0  0
 27 23  1  0  0  0  0
 28 25  1  0  0  0  0
 29 28  1  0  0  0  0
 29 33  1  0  0  0  0
 30 32  1  0  0  0  0
 31 33  1  0  0  0  0
 32 31  2  0  0  0  0
 34 32  1  0  0  0  0
 34 29  1  0  0  0  0
 35 13  1  0  0  0  0
 36 40  1  0  0  0  0
 36 37  1  0  0  0  0
 37 43  1  0  0  0  0
 37 38  1  0  0  0  0
 39 43  1  0  0  0  0
 40 41  1  0  0  0  0
 41 39  1  0  0  0  0
 41 35  1  0  0  0  0
 42 37  1  0  0  0  0
M  END
>  <MODEL>
4

>  <REMARK>
 VINA RESULT:      -9.1      5.204     10.521
  Name = 
  9 active torsions:
  status: ('A' for Active; 'I' for Inactive)
    1  A    between atoms: C_1  and  C_34
    2  A    between atoms: C_1  and  C_35
    3  A    between atoms: C_2  and  C_6
    4  A    between atoms: C_2  and  C_13
    5  A    between atoms: O_3  and  C_4
    6  A    between atoms: O_3  and  C_12
    7  A    between atoms: C_6  and  C_12
    8  A    between atoms: N_11  and  C_14
    9  A    between atoms: C_14  and  C_22
                            x       y       z     vdW  Elec       q    Type
                         _______ _______ _______ _____ _____    ______ ____

>  <TORSDO>
F 9

$$$$
=
 OpenBabel11052416063D

 43 48  0  0  1  0  0  0  0  0999 V2000
  187.8960  177.1740  147.2430 C   0  0  1  0  0  3  0  0  0  0  0  0
  185.1570  178.7500  143.2590 C   0  0  0  0  0  0  0  0  0  0  0  0
  186.8290  178.4070  140.9860 C   0  0  0  0  0  0  0  0  0  0  0  0
  186.2270  178.3790  145.8260 C   0  0  0  0  0  0  0  0  0  0  0  0
  188.8400  177.2610  146.0740 C   0  0  0  0  0  3  0  0  0  0  0  0
  188.6100  177.2540  148.4370 O   0  0  0  0  0  1  0  0  0  0  0  0
  187.0200  178.1190  144.6910 C   0  0  0  0  0  0  0  0  0  0  0  0
  186.8270  178.2720  147.2000 C   0  0  0  0  0  2  0  0  0  0  0  0
  188.4100  177.6630  144.8740 C   0  0  0  0  0  3  0  0  0  0  0  0
  187.2800  178.1060  142.2760 O   0  0  0  0  0  0  0  0  0  0  0  0
  186.4870  178.3180  143.4080 C   0  0  2  0  0  3  0  0  0  0  0  0
  184.3810  179.0140  144.3960 C   0  0  0  0  0  3  0  0  0  0  0  0
  184.5520  178.9030  141.8890 C   0  0  0  0  0  0  0  0  0  0  0  0
  185.5710  178.8170  140.7800 C   0  0  0  0  0  3  0  0  0  0  0  0
  184.9170  178.8390  145.6740 C   0  0  0  0  0  3  0  0  0  0  0  0
  187.7900  178.2950  139.8470 C   0  0  1  0  0  3  0  0  0  0  0  0
  188.7750  177.3450  140.1250 O   0  0  0  0  0  1  0  0  0  0  0  0
  187.0610  177.9420  138.5580 C   0  0  0  0  0  2  0  0  0  0  0  0
  188.0410  177.8090  137.4030 C   0  0  1  0  0  3  0  0  0  0  0  0
  189.0420  178.9450  137.4710 C   0  0  0  0  0  1  0  0  0  0  0  0
  188.7170  176.5870  137.4930 O   0  0  0  0  0  0  0  0  0  0  0  0
  188.8470  176.1390  136.1710 C   0  0  2  0  0  3  0  0  0  0  0  0
  188.8410  173.7270  136.3620 C   0  0  0  0  0  2  0  0  0  0  0  0
  187.4960  175.6520  135.6830 C   0  0  0  0  0  2  0  0  0  0  0  0
  189.7490  174.9110  136.0870 C   0  0  1  0  0  0  0  0  0  0  0  0
  190.2470  174.8140  134.7980 F   0  0  0  0  0  0  0  0  0  0  0  0
  187.4310  174.1690  136.0050 C   0  0  0  0  0  2  0  0  0  0  0  0
  190.9110  174.9710  137.0780 C   0  0  0  0  0  2  0  0  0  0  0  0
  191.6870  176.1920  136.9040 N   0  0  0  0  0  0  0  0  0  0  0  0
  193.8460  177.0940  139.6990 N   0  0  0  0  0  1  0  0  0  0  0  0
  193.9300  176.1000  137.5360 N   0  0  0  0  0  0  0  0  0  0  0  0
  193.2620  176.6460  138.4820 C   0  0  0  0  0  0  0  0  0  0  0  0
  192.9930  175.8030  136.5420 N   0  0  0  0  0  2  0  0  0  0  0  0
  191.8810  176.7390  138.1860 N   0  0  0  0  0  2  0  0  0  0  0  0
  183.4750  177.8460  141.6750 C   0  0  0  0  0  2  0  0  0  0  0  0
  180.4420  178.0900  139.3700 C   0  0  0  0  0  2  0  0  0  0  0  0
  180.3900  176.5680  139.1650 C   0  0  0  0  0  0  0  0  0  0  0  0
  179.2050  176.0070  139.9250 C   0  0  0  0  0  1  0  0  0  0  0  0
  182.9000  176.7390  139.5090 C   0  0  0  0  0  2  0  0  0  0  0  0
  181.3220  178.4730  140.5560 C   0  0  0  0  0  2  0  0  0  0  0  0
  182.7760  178.0270  140.3360 C   0  0  0  0  0  3  0  0  0  0  0  0
  180.1920  176.2850  137.6900 C   0  0  0  0  0  1  0  0  0  0  0  0
  181.6620  175.8530  139.6480 C   0  0  0  0  0  2  0  0  0  0  0  0
  1  6  1  1  0  0  0
  2 11  1  0  0  0  0
  2 12  1  0  0  0  0
  3 10  1  0  0  0  0
  4  8  1  0  0  0  0
  5  1  1  0  0  0  0
  7  9  1  0  0  0  0
  7  4  2  0  0  0  0
  8  1  1  0  0  0  0
  9  5  2  0  0  0  0
 11 10  1  1  0  0  0
 11  7  1  0  0  0  0
 12 15  2  0  0  0  0
 13  2  2  0  0  0  0
 14  3  2  0  0  0  0
 14 13  1  0  0  0  0
 15  4  1  0  0  0  0
 16 17  1  1  0  0  0
 16  3  1  0  0  0  0
 18 16  1  0  0  0  0
 19 20  1  1  0  0  0
 19 21  1  0  0  0  0
 19 18  1  0  0  0  0
 22 21  1  1  0  0  0
 24 27  1  0  0  0  0
 24 22  1  0  0  0  0
 25 26  1  6  0  0  0
 25 22  1  0  0  0  0
 25 23  1  0  0  0  0
 25 28  1  0  0  0  0
 27 23  1  0  0  0  0
 29 28  1  0  0  0  0
 29 34  1  0  0  0  0
 31 32  2  0  0  0  0
 32 30  1  0  0  0  0
 33 29  1  0  0  0  0
 33 31  1  0  0  0  0
 34 32  1  0  0  0  0
 35 13  1  0  0  0  0
 36 40  1  0  0  0  0
 37 36  1  0  0  0  0
 37 43  1  0  0  0  0
 37 38  1  0  0  0  0
 39 43  1  0  0  0  0
 39 41  1  0  0  0  0
 41 40  1  0  0  0  0
 41 35  1  0  0  0  0
 42 37  1  0  0  0  0
M  END
>  <MODEL>
5

>  <REMARK>
 VINA RESULT:      -9.1      1.563      2.019
  Name = 
  9 active torsions:
  status: ('A' for Active; 'I' for Inactive)
    1  A    between atoms: C_1  and  C_34
    2  A    between atoms: C_1  and  C_35
    3  A    between atoms: C_2  and  C_6
    4  A    between atoms: C_2  and  C_13
    5  A    between atoms: O_3  and  C_4
    6  A    between atoms: O_3  and  C_12
    7  A    between atoms: C_6  and  C_12
    8  A    between atoms: N_11  and  C_14
    9  A    between atoms: C_14  and  C_22
                            x       y       z     vdW  Elec       q    Type
                         _______ _______ _______ _____ _____    ______ ____

>  <TORSDO>
F 9

$$$$
=
 OpenBabel11052416063D

 43 48  0  0  1  0  0  0  0  0999 V2000
  194.9250  174.7700  135.8300 C   0  0  1  0  0  3  0  0  0  0  0  0
  190.2340  176.2660  137.0990 C   0  0  0  0  0  0  0  0  0  0  0  0
  190.3340  176.8530  139.8780 C   0  0  0  0  0  0  0  0  0  0  0  0
  192.4430  175.0520  135.8660 C   0  0  0  0  0  0  0  0  0  0  0  0
  194.8790  174.8240  137.3330 C   0  0  0  0  0  3  0  0  0  0  0  0
  195.9450  173.9140  135.4180 O   0  0  0  0  0  1  0  0  0  0  0  0
  192.5180  175.4340  137.2200 C   0  0  0  0  0  0  0  0  0  0  0  0
  193.5900  174.3170  135.2310 C   0  0  0  0  0  2  0  0  0  0  0  0
  193.7600  175.1780  137.9720 C   0  0  0  0  0  3  0  0  0  0  0  0
  191.4550  176.3710  139.1940 O   0  0  0  0  0  0  0  0  0  0  0  0
  191.4080  176.0290  137.8390 C   0  0  0  0  0  0  0  0  0  0  0  0
  190.1690  175.8730  135.7550 C   0  0  0  0  0  2  0  0  0  0  0  0
  189.0600  176.9630  137.7320 C   0  0  0  0  0  0  0  0  0  0  0  0
  189.1910  177.1040  139.2280 C   0  0  0  0  0  3  0  0  0  0  0  0
  191.2650  175.2590  135.1450 C   0  0  0  0  0  3  0  0  0  0  0  0
  190.4280  177.0490  141.3570 C   0  0  1  0  0  3  0  0  0  0  0  0
  191.7200  177.4350  141.7210 O   0  0  0  0  0  1  0  0  0  0  0  0
  189.4140  178.0800  141.8310 C   0  0  0  0  0  2  0  0  0  0  0  0
  188.2250  177.4040  142.4930 C   0  0  1  0  0  3  0  0  0  0  0  0
  188.7020  176.1550  143.2080 C   0  0  0  0  0  1  0  0  0  0  0  0
  187.6390  178.2740  143.4190 O   0  0  0  0  0  0  0  0  0  0  0  0
  186.5840  177.5490  143.9910 C   0  0  2  0  0  3  0  0  0  0  0  0
  185.3090  179.2160  145.1980 C   0  0  0  0  0  2  0  0  0  0  0  0
  185.3200  177.8130  143.1950 C   0  0  0  0  0  2  0  0  0  0  0  0
  186.2620  178.0510  145.3960 C   0  0  1  0  0  0  0  0  0  0  0  0
  185.6130  177.0440  146.0890 F   0  0  0  0  0  0  0  0  0  0  0  0
  184.6390  179.0030  143.8500 C   0  0  0  0  0  2  0  0  0  0  0  0
  187.5140  178.4740  146.1660 C   0  0  0  0  0  2  0  0  0  0  0  0
  187.8730  177.4800  147.1680 N   0  0  0  0  0  0  0  0  0  0  0  0
  191.3910  176.5290  147.2470 N   0  0  0  0  0  1  0  0  0  0  0  0
  189.8130  177.8920  148.3950 N   0  0  0  0  0  0  0  0  0  0  0  0
  190.0920  177.0660  147.4590 C   0  0  0  0  0  0  0  0  0  0  0  0
  188.4520  178.1750  148.2500 N   0  0  0  0  0  2  0  0  0  0  0  0
  188.9670  176.7590  146.6550 N   0  0  0  0  0  2  0  0  0  0  0  0
  188.8740  178.3400  137.1050 C   0  0  0  0  0  2  0  0  0  0  0  0
  185.1460  177.5230  136.9900 C   0  0  0  0  0  2  0  0  0  0  0  0
  185.3090  176.6450  135.7400 C   0  0  0  0  0  0  0  0  0  0  0  0
  185.1580  175.1890  136.1350 C   0  0  0  0  0  1  0  0  0  0  0  0
  187.2180  178.2400  135.2350 C   0  0  0  0  0  2  0  0  0  0  0  0
  186.4880  177.8100  137.6590 C   0  0  0  0  0  2  0  0  0  0  0  0
  187.4230  178.5840  136.7180 C   0  0  0  0  0  3  0  0  0  0  0  0
  184.2070  176.9920  134.7600 C   0  0  0  0  0  1  0  0  0  0  0  0
  186.6710  176.8250  135.0510 C   0  0  0  0  0  2  0  0  0  0  0  0
  1  6  1  1  0  0  0
  1  5  1  0  0  0  0
  2 13  2  0  0  0  0
  2 11  1  0  0  0  0
  3 16  1  0  0  0  0
  4  7  1  0  0  0  0
  5  9  2  0  0  0  0
  7 11  2  0  0  0  0
  7  9  1  0  0  0  0
  8  1  1  0  0  0  0
  8  4  1  0  0  0  0
 10  3  1  0  0  0  0
 11 10  1  0  0  0  0
 12  2  1  0  0  0  0
 13 14  1  0  0  0  0
 14  3  2  0  0  0  0
 15 12  1  0  0  0  0
 15  4  2  0  0  0  0
 16 17  1  6  0  0  0
 16 18  1  0  0  0  0
 18 19  1  0  0  0  0
 19 20  1  1  0  0  0
 19 21  1  0  0  0  0
 22 21  1  6  0  0  0
 22 25  1  0  0  0  0
 23 25  1  0  0  0  0
 24 27  1  0  0  0  0
 24 22  1  0  0  0  0
 25 26  1  1  0  0  0
 25 28  1  0  0  0  0
 27 23  1  0  0  0  0
 28 29  1  0  0  0  0
 29 33  1  0  0  0  0
 30 32  1  0  0  0  0
 32 31  2  0  0  0  0
 33 31  1  0  0  0  0
 34 29  1  0  0  0  0
 34 32  1  0  0  0  0
 35 13  1  0  0  0  0
 36 40  1  0  0  0  0
 37 38  1  0  0  0  0
 37 36  1  0  0  0  0
 39 41  1  0  0  0  0
 41 35  1  0  0  0  0
 41 40  1  0  0  0  0
 42 37  1  0  0  0  0
 43 39  1  0  0  0  0
 43 37  1  0  0  0  0
M  END
>  <MODEL>
6

>  <REMARK>
 VINA RESULT:      -8.8      4.691      9.048
  Name = 
  9 active torsions:
  status: ('A' for Active; 'I' for Inactive)
    1  A    between atoms: C_1  and  C_34
    2  A    between atoms: C_1  and  C_35
    3  A    between atoms: C_2  and  C_6
    4  A    between atoms: C_2  and  C_13
    5  A    between atoms: O_3  and  C_4
    6  A    between atoms: O_3  and  C_12
    7  A    between atoms: C_6  and  C_12
    8  A    between atoms: N_11  and  C_14
    9  A    between atoms: C_14  and  C_22
                            x       y       z     vdW  Elec       q    Type
                         _______ _______ _______ _____ _____    ______ ____

>  <TORSDO>
F 9

$$$$
=
 OpenBabel11052416063D

 43 48  0  0  1  0  0  0  0  0999 V2000
  191.4670  177.1260  146.9940 C   0  0  1  0  0  3  0  0  0  0  0  0
  189.0160  177.1750  142.5390 C   0  0  0  0  0  0  0  0  0  0  0  0
  186.3730  178.0470  143.1190 C   0  0  0  0  0  0  0  0  0  0  0  0
  190.7740  176.6060  144.6500 C   0  0  0  0  0  0  0  0  0  0  0  0
  190.0070  177.3180  147.3040 C   0  0  0  0  0  3  0  0  0  0  0  0
  192.1230  176.6010  148.1050 O   0  0  0  0  0  1  0  0  0  0  0  0
  189.4960  177.1300  144.9240 C   0  0  0  0  0  0  0  0  0  0  0  0
  191.6810  176.2120  145.7820 C   0  0  0  0  0  2  0  0  0  0  0  0
  189.0980  177.3620  146.3250 C   0  0  0  0  0  3  0  0  0  0  0  0
  187.3250  177.8780  144.1310 O   0  0  0  0  0  0  0  0  0  0  0  0
  188.6120  177.4010  143.8680 C   0  0  0  0  0  0  0  0  0  0  0  0
  190.2870  176.6450  142.2790 C   0  0  0  0  0  2  0  0  0  0  0  0
  188.1030  177.5240  141.3930 C   0  0  0  0  0  0  0  0  0  0  0  0
  186.6990  177.8520  141.8350 C   0  0  0  0  0  3  0  0  0  0  0  0
  191.1580  176.3520  143.3310 C   0  0  0  0  0  3  0  0  0  0  0  0
  184.9760  178.4150  143.5040 C   0  0  1  0  0  3  0  0  0  0  0  0
  184.9810  179.4130  144.4810 O   0  0  0  0  0  1  0  0  0  0  0  0
  184.1830  178.8680  142.2870 C   0  0  0  0  0  2  0  0  0  0  0  0
  182.7910  178.2570  142.2910 C   0  0  1  0  0  3  0  0  0  0  0  0
  181.9270  179.0020  143.2880 C   0  0  0  0  0  1  0  0  0  0  0  0
  182.2240  178.3580  141.0160 O   0  0  0  0  0  0  0  0  0  0  0  0
  183.3100  178.3920  140.1300 C   0  0  2  0  0  3  0  0  0  0  0  0
  182.2970  178.1520  137.9450 C   0  0  0  0  0  2  0  0  0  0  0  0
  183.3540  179.7530  139.4610 C   0  0  0  0  0  2  0  0  0  0  0  0
  183.1200  177.4070  138.9800 C   0  0  1  0  0  0  0  0  0  0  0  0
  184.3610  177.1060  138.4440 F   0  0  0  0  0  0  0  0  0  0  0  0
  182.5320  179.6340  138.1880 C   0  0  0  0  0  2  0  0  0  0  0  0
  182.4300  176.1170  139.4240 C   0  0  0  0  0  2  0  0  0  0  0  0
  181.1000  176.0060  138.8400 N   0  0  0  0  0  0  0  0  0  0  0  0
  180.0460  172.6290  137.9610 N   0  0  0  0  0  1  0  0  0  0  0  0
  179.7480  174.2850  139.6460 N   0  0  0  0  0  0  0  0  0  0  0  0
  180.2770  173.9060  138.5440 C   0  0  0  0  0  0  0  0  0  0  0  0
  180.2330  175.5780  139.8660 N   0  0  0  0  0  2  0  0  0  0  0  0
  181.1230  174.8920  137.9810 N   0  0  0  0  0  2  0  0  0  0  0  0
  188.6790  178.6980  140.6110 C   0  0  0  0  0  2  0  0  0  0  0  0
  189.1140  178.6290  136.8180 C   0  0  0  0  0  2  0  0  0  0  0  0
  188.0360  177.5490  136.6460 C   0  0  0  0  0  0  0  0  0  0  0  0
  186.7960  178.1790  136.0420 C   0  0  0  0  0  1  0  0  0  0  0  0
  188.8130  176.8310  138.9540 C   0  0  0  0  0  2  0  0  0  0  0  0
  189.0560  179.2730  138.2000 C   0  0  0  0  0  2  0  0  0  0  0  0
  189.3150  178.2380  139.3070 C   0  0  0  0  0  3  0  0  0  0  0  0
  188.5540  176.4970  135.6870 C   0  0  0  0  0  1  0  0  0  0  0  0
  187.6440  176.8740  137.9700 C   0  0  0  0  0  2  0  0  0  0  0  0
  1  5  1  0  0  0  0
  1  6  1  1  0  0  0
  2 11  1  0  0  0  0
  3 16  1  0  0  0  0
  3 10  1  0  0  0  0
  4  7  1  0  0  0  0
  4  8  1  0  0  0  0
  7  9  1  0  0  0  0
  8  1  1  0  0  0  0
  9  5  2  0  0  0  0
 11 10  1  0  0  0  0
 11  7  2  0  0  0  0
 12  2  1  0  0  0  0
 12 15  1  0  0  0  0
 13 14  1  0  0  0  0
 13  2  2  0  0  0  0
 14  3  2  0  0  0  0
 15  4  2  0  0  0  0
 16 17  1  1  0  0  0
 18 19  1  0  0  0  0
 18 16  1  0  0  0  0
 19 20  1  1  0  0  0
 21 19  1  0  0  0  0
 22 21  1  1  0  0  0
 23 27  1  0  0  0  0
 23 25  1  0  0  0  0
 24 22  1  0  0  0  0
 25 26  1  6  0  0  0
 25 28  1  0  0  0  0
 25 22  1  0  0  0  0
 27 24  1  0  0  0  0
 29 28  1  0  0  0  0
 29 33  1  0  0  0  0
 30 32  1  0  0  0  0
 31 33  1  0  0  0  0
 32 31  2  0  0  0  0
 34 32  1  0  0  0  0
 34 29  1  0  0  0  0
 35 13  1  0  0  0  0
 36 40  1  0  0  0  0
 37 36  1  0  0  0  0
 37 43  1  0  0  0  0
 38 37  1  0  0  0  0
 39 41  1  0  0  0  0
 40 41  1  0  0  0  0
 41 35  1  0  0  0  0
 42 37  1  0  0  0  0
 43 39  1  0  0  0  0
M  END
>  <MODEL>
7

>  <REMARK>
 VINA RESULT:      -8.7      5.564      8.365
  Name = 
  9 active torsions:
  status: ('A' for Active; 'I' for Inactive)
    1  A    between atoms: C_1  and  C_34
    2  A    between atoms: C_1  and  C_35
    3  A    between atoms: C_2  and  C_6
    4  A    between atoms: C_2  and  C_13
    5  A    between atoms: O_3  and  C_4
    6  A    between atoms: O_3  and  C_12
    7  A    between atoms: C_6  and  C_12
    8  A    between atoms: N_11  and  C_14
    9  A    between atoms: C_14  and  C_22
                            x       y       z     vdW  Elec       q    Type
                         _______ _______ _______ _____ _____    ______ ____

>  <TORSDO>
F 9

$$$$
=
 OpenBabel11052416063D

 43 48  0  0  1  0  0  0  0  0999 V2000
  189.6350  177.6160  145.7970 C   0  0  1  0  0  3  0  0  0  0  0  0
  188.6970  177.4410  140.8030 C   0  0  0  0  0  0  0  0  0  0  0  0
  186.0760  178.4900  140.4700 C   0  0  0  0  0  0  0  0  0  0  0  0
  189.6680  176.9500  143.3890 C   0  0  0  0  0  0  0  0  0  0  0  0
  188.1680  177.9050  145.6200 C   0  0  0  0  0  3  0  0  0  0  0  0
  189.8730  177.1460  147.0870 O   0  0  0  0  0  1  0  0  0  0  0  0
  188.4090  177.5580  143.2160 C   0  0  0  0  0  0  0  0  0  0  0  0
  190.1460  176.6000  144.7700 C   0  0  0  0  0  2  0  0  0  0  0  0
  187.6140  177.9190  144.4040 C   0  0  0  0  0  3  0  0  0  0  0  0
  186.6520  178.3520  141.7370 O   0  0  0  0  0  0  0  0  0  0  0  0
  187.9190  177.7910  141.9220 C   0  0  0  0  0  0  0  0  0  0  0  0
  189.9440  176.8290  140.9870 C   0  0  0  0  0  2  0  0  0  0  0  0
  188.2140  177.7460  139.4100 C   0  0  0  0  0  0  0  0  0  0  0  0
  186.7700  178.1790  139.3670 C   0  0  0  0  0  3  0  0  0  0  0  0
  190.4220  176.5750  142.2750 C   0  0  0  0  0  3  0  0  0  0  0  0
  184.6600  178.9580  140.3730 C   0  0  1  0  0  3  0  0  0  0  0  0
  184.5600  180.0500  139.5080 O   0  0  0  0  0  1  0  0  0  0  0  0
  183.7490  177.8300  139.9100 C   0  0  0  0  0  2  0  0  0  0  0  0
  182.3620  178.3570  139.5810 C   0  0  1  0  0  3  0  0  0  0  0  0
  181.3850  177.1990  139.5600 C   0  0  0  0  0  1  0  0  0  0  0  0
  181.9630  179.2840  140.5510 O   0  0  0  0  0  0  0  0  0  0  0  0
  180.8520  178.7060  141.1800 C   0  0  2  0  0  3  0  0  0  0  0  0
  180.4580  180.1250  143.1010 C   0  0  0  0  0  2  0  0  0  0  0  0
  179.6260  179.5460  140.8770 C   0  0  0  0  0  2  0  0  0  0  0  0
  180.9840  178.7580  142.6990 C   0  0  1  0  0  0  0  0  0  0  0  0
  180.1740  177.7790  143.2490 F   0  0  0  0  0  0  0  0  0  0  0  0
  179.5180  180.5700  141.9930 C   0  0  0  0  0  2  0  0  0  0  0  0
  182.4250  178.5510  143.1680 C   0  0  0  0  0  2  0  0  0  0  0  0
  182.8050  179.5560  144.1530 N   0  0  0  0  0  0  0  0  0  0  0  0
  184.8250  178.3430  146.9340 N   0  0  0  0  0  1  0  0  0  0  0  0
  185.0220  179.5200  144.8740 N   0  0  0  0  0  0  0  0  0  0  0  0
  184.3010  178.9220  145.7460 C   0  0  0  0  0  0  0  0  0  0  0  0
  184.1360  179.9260  143.8720 N   0  0  0  0  0  2  0  0  0  0  0  0
  182.9320  178.8910  145.3860 N   0  0  0  0  0  2  0  0  0  0  0  0
  189.0880  178.8240  138.7810 C   0  0  0  0  0  2  0  0  0  0  0  0
  188.4040  177.5600  135.2440 C   0  0  0  0  0  2  0  0  0  0  0  0
  188.6540  176.0980  135.6450 C   0  0  0  0  0  0  0  0  0  0  0  0
  187.3290  175.3620  135.6820 C   0  0  0  0  0  1  0  0  0  0  0  0
  190.2390  177.1460  137.3280 C   0  0  0  0  0  2  0  0  0  0  0  0
  188.2080  178.4570  136.4630 C   0  0  0  0  0  2  0  0  0  0  0  0
  189.4630  178.4710  137.3490 C   0  0  0  0  0  3  0  0  0  0  0  0
  189.5320  175.4520  134.5940 C   0  0  0  0  0  1  0  0  0  0  0  0
  189.3280  175.9590  137.0190 C   0  0  0  0  0  2  0  0  0  0  0  0
  1  6  1  1  0  0  0
  2 12  1  0  0  0  0
  2 11  1  0  0  0  0
  3 10  1  0  0  0  0
  4  8  1  0  0  0  0
  5  1  1  0  0  0  0
  7  4  1  0  0  0  0
  7  9  1  0  0  0  0
  8  1  1  0  0  0  0
  9  5  2  0  0  0  0
 10 11  1  0  0  0  0
 11  7  2  0  0  0  0
 12 15  1  0  0  0  0
 13  2  2  0  0  0  0
 14 13  1  0  0  0  0
 14  3  2  0  0  0  0
 15  4  2  0  0  0  0
 16 17  1  6  0  0  0
 16  3  1  0  0  0  0
 18 16  1  0  0  0  0
 19 20  1  1  0  0  0
 19 18  1  0  0  0  0
 19 21  1  0  0  0  0
 22 21  1  6  0  0  0
 22 25  1  0  0  0  0
 24 22  1  0  0  0  0
 24 27  1  0  0  0  0
 25 23  1  0  0  0  0
 25 28  1  0  0  0  0
 25 26  1  1  0  0  0
 27 23  1  0  0  0  0
 28 29  1  0  0  0  0
 29 34  1  0  0  0  0
 31 32  2  0  0  0  0
 32 30  1  0  0  0  0
 33 29  1  0  0  0  0
 33 31  1  0  0  0  0
 34 32  1  0  0  0  0
 35 13  1  0  0  0  0
 36 37  1  0  0  0  0
 36 40  1  0  0  0  0
 37 38  1  0  0  0  0
 37 43  1  0  0  0  0
 39 41  1  0  0  0  0
 40 41  1  0  0  0  0
 41 35  1  0  0  0  0
 42 37  1  0  0  0  0
 43 39  1  0  0  0  0
M  END
>  <MODEL>
8

>  <REMARK>
 VINA RESULT:      -8.6      5.406      8.989
  Name = 
  9 active torsions:
  status: ('A' for Active; 'I' for Inactive)
    1  A    between atoms: C_1  and  C_34
    2  A    between atoms: C_1  and  C_35
    3  A    between atoms: C_2  and  C_6
    4  A    between atoms: C_2  and  C_13
    5  A    between atoms: O_3  and  C_4
    6  A    between atoms: O_3  and  C_12
    7  A    between atoms: C_6  and  C_12
    8  A    between atoms: N_11  and  C_14
    9  A    between atoms: C_14  and  C_22
                            x       y       z     vdW  Elec       q    Type
                         _______ _______ _______ _____ _____    ______ ____

>  <TORSDO>
F 9

$$$$
=
 OpenBabel11052416063D

 43 48  0  0  1  0  0  0  0  0999 V2000
  183.9760  179.3050  144.6450 C   0  0  1  0  0  3  0  0  0  0  0  0
  188.3490  177.4520  142.8310 C   0  0  0  0  0  0  0  0  0  0  0  0
  188.3040  177.9580  140.0350 C   0  0  0  0  0  0  0  0  0  0  0  0
  186.0450  177.9340  144.3570 C   0  0  0  0  0  0  0  0  0  0  0  0
  183.8610  179.3120  143.1450 C   0  0  0  0  0  3  0  0  0  0  0  0
  182.7060  179.3010  145.2180 O   0  0  0  0  0  1  0  0  0  0  0  0
  186.0640  178.2720  142.9900 C   0  0  0  0  0  0  0  0  0  0  0  0
  184.7810  178.1040  145.1530 C   0  0  0  0  0  2  0  0  0  0  0  0
  184.8620  178.8670  142.3780 C   0  0  0  0  0  3  0  0  0  0  0  0
  187.2270  178.3060  140.8570 O   0  0  0  0  0  0  0  0  0  0  0  0
  187.2130  178.0170  142.2250 C   0  0  2  0  0  3  0  0  0  0  0  0
  188.3150  177.1120  144.1900 C   0  0  0  0  0  3  0  0  0  0  0  0
  189.6110  177.2350  142.0380 C   0  0  0  0  0  0  0  0  0  0  0  0
  189.4160  177.4220  140.5540 C   0  0  0  0  0  3  0  0  0  0  0  0
  187.1640  177.3430  144.9470 C   0  0  0  0  0  3  0  0  0  0  0  0
  188.1760  178.1650  138.5600 C   0  0  1  0  0  3  0  0  0  0  0  0
  189.0480  179.1660  138.1250 O   0  0  0  0  0  1  0  0  0  0  0  0
  188.4390  176.8690  137.8070 C   0  0  0  0  0  2  0  0  0  0  0  0
  188.6000  177.1320  136.3190 C   0  0  1  0  0  3  0  0  0  0  0  0
  189.9350  176.5820  135.8610 C   0  0  0  0  0  1  0  0  0  0  0  0
  187.5700  176.5010  135.6120 O   0  0  0  0  0  0  0  0  0  0  0  0
  187.1990  175.4020  136.4000 C   0  0  2  0  0  3  0  0  0  0  0  0
  185.2790  174.4760  135.2560 C   0  0  0  0  0  2  0  0  0  0  0  0
  187.6550  174.1300  135.7110 C   0  0  0  0  0  2  0  0  0  0  0  0
  185.6820  175.2670  136.4870 C   0  0  1  0  0  0  0  0  0  0  0  0
  185.3660  174.5370  137.6210 F   0  0  0  0  0  0  0  0  0  0  0  0
  186.5010  173.6780  134.8320 C   0  0  0  0  0  2  0  0  0  0  0  0
  184.9770  176.6220  136.5400 C   0  0  0  0  0  2  0  0  0  0  0  0
  184.2290  176.7750  137.7810 N   0  0  0  0  0  0  0  0  0  0  0  0
  184.1290  180.1530  139.1480 N   0  0  0  0  0  1  0  0  0  0  0  0
  182.7980  178.6110  137.9150 N   0  0  0  0  0  0  0  0  0  0  0  0
  183.8870  178.8990  138.5220 C   0  0  0  0  0  0  0  0  0  0  0  0
  182.9690  177.3070  137.4420 N   0  0  0  0  0  2  0  0  0  0  0  0
  184.8230  177.8380  138.4870 N   0  0  0  0  0  2  0  0  0  0  0  0
  190.7020  178.1770  142.5320 C   0  0  0  0  0  2  0  0  0  0  0  0
  191.7410  175.5620  145.1130 C   0  0  0  0  0  2  0  0  0  0  0  0
  191.3460  176.4680  146.2890 C   0  0  0  0  0  0  0  0  0  0  0  0
  190.0760  175.9330  146.9200 C   0  0  0  0  0  1  0  0  0  0  0  0
  191.9750  178.3260  144.6780 C   0  0  0  0  0  2  0  0  0  0  0  0
  191.1570  176.0590  143.7930 C   0  0  0  0  0  2  0  0  0  0  0  0
  191.6860  177.4590  143.4440 C   0  0  0  0  0  3  0  0  0  0  0  0
  192.4510  176.4240  147.3250 C   0  0  0  0  0  1  0  0  0  0  0  0
  191.1060  177.9270  145.8700 C   0  0  0  0  0  2  0  0  0  0  0  0
  1  8  1  0  0  0  0
  1  6  1  1  0  0  0
  2 12  1  0  0  0  0
  3 14  2  0  0  0  0
  3 10  1  0  0  0  0
  4 15  1  0  0  0  0
  4  8  1  0  0  0  0
  5  1  1  0  0  0  0
  7  4  2  0  0  0  0
  9  7  1  0  0  0  0
  9  5  2  0  0  0  0
 11 10  1  6  0  0  0
 11  2  1  0  0  0  0
 11  7  1  0  0  0  0
 12 15  2  0  0  0  0
 13 35  1  0  0  0  0
 13  2  2  0  0  0  0
 14 13  1  0  0  0  0
 16 17  1  6  0  0  0
 16  3  1  0  0  0  0
 18 16  1  0  0  0  0
 19 20  1  6  0  0  0
 19 18  1  0  0  0  0
 21 19  1  0  0  0  0
 22 21  1  6  0  0  0
 22 25  1  0  0  0  0
 23 25  1  0  0  0  0
 24 22  1  0  0  0  0
 25 28  1  0  0  0  0
 25 26  1  1  0  0  0
 27 23  1  0  0  0  0
 27 24  1  0  0  0  0
 28 29  1  0  0  0  0
 29 34  1  0  0  0  0
 31 32  2  0  0  0  0
 32 30  1  0  0  0  0
 33 29  1  0  0  0  0
 33 31  1  0  0  0  0
 34 32  1  0  0  0  0
 35 41  1  0  0  0  0
 36 37  1  0  0  0  0
 37 38  1  0  0  0  0
 37 42  1  0  0  0  0
 39 43  1  0  0  0  0
 40 36  1  0  0  0  0
 41 40  1  0  0  0  0
 41 39  1  0  0  0  0
 43 37  1  0  0  0  0
M  END
>  <MODEL>
9

>  <REMARK>
 VINA RESULT:      -8.5      4.720      7.863
  Name = 
  9 active torsions:
  status: ('A' for Active; 'I' for Inactive)
    1  A    between atoms: C_1  and  C_34
    2  A    between atoms: C_1  and  C_35
    3  A    between atoms: C_2  and  C_6
    4  A    between atoms: C_2  and  C_13
    5  A    between atoms: O_3  and  C_4
    6  A    between atoms: O_3  and  C_12
    7  A    between atoms: C_6  and  C_12
    8  A    between atoms: N_11  and  C_14
    9  A    between atoms: C_14  and  C_22
                            x       y       z     vdW  Elec       q    Type
                         _______ _______ _______ _____ _____    ______ ____

>  <TORSDO>
F 9

$$$$
