=
 OpenBabel11052416433D

 43 47  0  0  1  0  0  0  0  0999 V2000
  189.3860  177.6460  138.8990 N   0  0  0  0  0  0  0  0  0  0  0  0
  188.6280  177.8090  140.1080 C   0  0  0  0  0  0  0  0  0  0  0  0
  187.6680  178.6250  140.1470 O   0  0  0  0  0  0  0  0  0  0  0  0
  193.7810  175.9780  136.4570 C   0  0  0  0  0  0  0  0  0  0  0  0
  191.2510  176.0380  136.6320 C   0  0  1  0  0  3  0  0  0  0  0  0
  193.9140  176.4690  137.6510 N   0  0  0  0  0  0  0  0  0  0  0  0
  194.9710  175.8520  135.5730 C   0  0  0  0  0  1  0  0  0  0  0  0
  191.4890  176.9040  137.8610 C   0  0  2  0  0  3  0  0  0  0  0  0
  192.4850  175.6230  135.9620 N   0  0  0  0  0  2  0  0  0  0  0  0
  192.7900  176.5290  138.5770 C   0  0  0  0  0  2  0  0  0  0  0  0
  190.3370  176.5380  138.7780 C   0  0  2  0  0  3  0  0  0  0  0  0
  189.6740  175.3360  138.2690 N   0  0  0  0  0  2  0  0  0  0  0  0
  190.4840  174.8530  137.1560 C   0  0  0  0  0  2  0  0  0  0  0  0
  188.9290  176.9840  141.3190 C   0  0  0  0  0  2  0  0  0  0  0  0
  190.6380  178.1950  144.0120 C   0  0  1  0  0  3  0  0  0  0  0  0
  189.9090  177.8040  145.3070 C   0  0  2  0  0  3  0  0  0  0  0  0
  190.8220  176.5170  146.1350 Cl  0  0  0  0  0  0  0  0  0  0  0  0
  188.2840  176.7140  143.7040 C   0  0  0  0  0  2  0  0  0  0  0  0
  189.6730  178.7460  142.9630 C   0  0  0  0  0  2  0  0  0  0  0  0
  188.5730  177.7320  142.5960 C   0  0  1  0  0  3  0  0  0  0  0  0
  191.7050  179.2240  144.3210 C   0  0  0  0  0  1  0  0  0  0  0  0
  188.4600  177.3460  145.0820 C   0  0  0  0  0  2  0  0  0  0  0  0
  189.1320  178.5330  137.7620 C   0  0  0  0  0  2  0  0  0  0  0  0
  188.0150  178.0000  136.8650 C   0  0  0  0  0  2  0  0  0  0  0  0
  186.7990  178.6500  137.1120 O   0  0  0  0  0  0  0  0  0  0  0  0
  185.8160  177.6550  137.0640 C   0  0  0  0  0  2  0  0  0  0  0  0
  184.8010  177.8460  138.1830 C   0  0  0  0  0  2  0  0  0  0  0  0
  182.3730  177.2000  138.6080 N   0  0  0  0  0  2  0  0  0  0  0  0
  183.6630  176.8790  138.0750 C   0  0  0  0  0  0  0  0  0  0  0  0
  183.8570  175.7450  137.5680 O   0  0  0  0  0  0  0  0  0  0  0  0
  181.8610  178.5300  138.7760 C   0  0  0  0  0  0  0  0  0  0  0  0
  180.8230  180.2290  140.1710 C   0  0  0  0  0  3  0  0  0  0  0  0
  181.7960  179.4110  137.6850 C   0  0  0  0  0  3  0  0  0  0  0  0
  181.2560  180.6900  137.8360 C   0  0  0  0  0  3  0  0  0  0  0  0
  181.3620  178.9450  140.0240 C   0  0  0  0  0  0  0  0  0  0  0  0
  180.7680  181.0980  139.0790 C   0  0  0  0  0  3  0  0  0  0  0  0
  181.4850  178.0690  141.2310 C   0  0  0  0  0  2  0  0  0  0  0  0
  182.6230  178.5210  142.0860 C   0  0  0  0  0  0  0  0  0  0  0  0
  184.7650  179.3120  143.7080 C   0  0  0  0  0  3  0  0  0  0  0  0
  183.4530  179.4160  144.1820 C   0  0  0  0  0  3  0  0  0  0  0  0
  185.0070  178.8150  142.4220 C   0  0  0  0  0  3  0  0  0  0  0  0
  182.3840  179.0230  143.3710 C   0  0  0  0  0  3  0  0  0  0  0  0
  183.9380  178.4180  141.6130 C   0  0  0  0  0  3  0  0  0  0  0  0
  1  2  1  0  0  0  0
  2  3  2  0  0  0  0
  2 14  1  0  0  0  0
  4  6  2  0  0  0  0
  5 13  1  1  0  0  0
  5  8  1  0  0  0  0
  6 10  1  0  0  0  0
  7  4  1  0  0  0  0
  8 10  1  1  0  0  0
  8 11  1  0  0  0  0
  9  4  1  0  0  0  0
  9  5  1  0  0  0  0
 11  1  1  6  0  0  0
 12 11  1  0  0  0  0
 13 12  1  0  0  0  0
 15 21  1  1  0  0  0
 15 16  1  0  0  0  0
 16 17  1  6  0  0  0
 18 22  1  0  0  0  0
 19 15  1  0  0  0  0
 20 14  1  6  0  0  0
 20 19  1  0  0  0  0
 20 18  1  0  0  0  0
 22 16  1  0  0  0  0
 23  1  1  0  0  0  0
 24 25  1  0  0  0  0
 24 23  1  0  0  0  0
 26 25  1  0  0  0  0
 26 27  1  0  0  0  0
 28 31  1  0  0  0  0
 29 27  1  0  0  0  0
 29 28  1  0  0  0  0
 30 29  2  0  0  0  0
 31 35  1  0  0  0  0
 33 34  1  0  0  0  0
 33 31  2  0  0  0  0
 34 36  2  0  0  0  0
 35 32  2  0  0  0  0
 35 37  1  0  0  0  0
 36 32  1  0  0  0  0
 37 38  1  0  0  0  0
 38 42  1  0  0  0  0
 39 40  1  0  0  0  0
 41 39  2  0  0  0  0
 42 40  2  0  0  0  0
 43 38  2  0  0  0  0
 43 41  1  0  0  0  0
M  END
>  <MODEL>
1

>  <REMARK>
 VINA RESULT:      -8.3      0.000      0.000
  Name = 
  12 active torsions:
  status: ('A' for Active; 'I' for Inactive)
    1  A    between atoms: C_1  and  C_34
    2  A    between atoms: C_1  and  C_35
    3  A    between atoms: O_2  and  C_7
    4  A    between atoms: O_2  and  C_13
    5  A    between atoms: N_3  and  C_4
    6  A    between atoms: C_6  and  C_7
    7  A    between atoms: C_6  and  C_12
    8  A    between atoms: N_8  and  C_27
    9  A    between atoms: N_8  and  C_30
   10  A    between atoms: C_11  and  C_14
   11  A    between atoms: C_13  and  C_27
   12  A    between atoms: C_14  and  C_41
                            x       y       z     vdW  Elec       q    Type
                         _______ _______ _______ _____ _____    ______ ____

>  <TORSDO>
F 12

$$$$
=
 OpenBabel11052416433D

 43 47  0  0  1  0  0  0  0  0999 V2000
  186.4610  176.8910  136.8930 N   0  0  0  0  0  0  0  0  0  0  0  0
  185.7010  177.8170  137.6860 C   0  0  0  0  0  0  0  0  0  0  0  0
  186.2860  178.7340  138.3220 O   0  0  0  0  0  0  0  0  0  0  0  0
  183.9710  172.2360  136.4810 C   0  0  0  0  0  0  0  0  0  0  0  0
  186.0740  173.6320  136.2390 C   0  0  1  0  0  3  0  0  0  0  0  0
  183.2320  173.2960  136.5960 N   0  0  0  0  0  0  0  0  0  0  0  0
  183.3830  170.8940  136.7450 C   0  0  0  0  0  1  0  0  0  0  0  0
  185.2010  174.7870  136.7090 C   0  0  2  0  0  3  0  0  0  0  0  0
  185.3630  172.3530  136.1690 N   0  0  0  0  0  2  0  0  0  0  0  0
  183.7460  174.6190  136.2620 C   0  0  0  0  0  2  0  0  0  0  0  0
  185.7730  175.9840  135.9720 C   0  0  2  0  0  3  0  0  0  0  0  0
  186.6830  175.5190  134.9230 N   0  0  0  0  0  2  0  0  0  0  0  0
  186.5630  174.0650  134.8830 C   0  0  0  0  0  2  0  0  0  0  0  0
  184.2070  177.7400  137.7320 C   0  0  0  0  0  2  0  0  0  0  0  0
  181.3660  176.6720  139.2890 C   0  0  1  0  0  3  0  0  0  0  0  0
  180.9060  177.7260  140.3070 C   0  0  2  0  0  3  0  0  0  0  0  0
  179.4620  178.5640  139.6800 Cl  0  0  0  0  0  0  0  0  0  0  0  0
  182.9530  178.9670  139.4920 C   0  0  0  0  0  2  0  0  0  0  0  0
  182.8660  176.4010  139.3950 C   0  0  0  0  0  2  0  0  0  0  0  0
  183.7050  177.6720  139.1670 C   0  0  1  0  0  3  0  0  0  0  0  0
  180.5930  175.3870  139.5030 C   0  0  0  0  0  1  0  0  0  0  0  0
  181.9880  178.7580  140.6560 C   0  0  0  0  0  2  0  0  0  0  0  0
  187.9240  176.9300  136.9430 C   0  0  0  0  0  2  0  0  0  0  0  0
  188.4790  176.0040  138.0260 C   0  0  0  0  0  2  0  0  0  0  0  0
  189.8740  175.9030  137.9550 O   0  0  0  0  0  0  0  0  0  0  0  0
  190.3730  177.0180  138.6380 C   0  0  0  0  0  2  0  0  0  0  0  0
  189.9130  177.0110  140.0900 C   0  0  0  0  0  2  0  0  0  0  0  0
  188.8100  178.5450  141.8000 N   0  0  0  0  0  2  0  0  0  0  0  0
  189.1540  178.2530  140.4410 C   0  0  0  0  0  0  0  0  0  0  0  0
  188.7560  179.0170  139.5250 O   0  0  0  0  0  0  0  0  0  0  0  0
  189.5360  178.0850  142.9480 C   0  0  0  0  0  0  0  0  0  0  0  0
  189.6330  176.7820  144.9990 C   0  0  0  0  0  3  0  0  0  0  0  0
  190.8300  178.5610  143.2110 C   0  0  0  0  0  3  0  0  0  0  0  0
  191.5210  178.1480  144.3520 C   0  0  0  0  0  3  0  0  0  0  0  0
  188.9350  177.1950  143.8570 C   0  0  0  0  0  0  0  0  0  0  0  0
  190.9210  177.2610  145.2470 C   0  0  0  0  0  3  0  0  0  0  0  0
  187.5910  176.6000  143.5740 C   0  0  0  0  0  2  0  0  0  0  0  0
  186.5100  177.4880  144.0960 C   0  0  0  0  0  0  0  0  0  0  0  0
  184.4500  179.1060  145.0860 C   0  0  0  0  0  3  0  0  0  0  0  0
  184.5680  178.8890  143.7090 C   0  0  0  0  0  3  0  0  0  0  0  0
  185.3620  178.5170  145.9690 C   0  0  0  0  0  3  0  0  0  0  0  0
  185.5980  178.0830  143.2150 C   0  0  0  0  0  3  0  0  0  0  0  0
  186.3900  177.7070  145.4750 C   0  0  0  0  0  3  0  0  0  0  0  0
  1 23  1  0  0  0  0
  1  2  1  0  0  0  0
  2 14  1  0  0  0  0
  2  3  2  0  0  0  0
  4  6  2  0  0  0  0
  4  7  1  0  0  0  0
  5 13  1  6  0  0  0
  5  8  1  0  0  0  0
  8 10  1  6  0  0  0
  9  5  1  0  0  0  0
  9  4  1  0  0  0  0
 10  6  1  0  0  0  0
 11  8  1  0  0  0  0
 11  1  1  1  0  0  0
 12 11  1  0  0  0  0
 13 12  1  0  0  0  0
 15 19  1  0  0  0  0
 15 21  1  1  0  0  0
 15 16  1  0  0  0  0
 16 17  1  6  0  0  0
 16 22  1  0  0  0  0
 18 22  1  0  0  0  0
 20 14  1  6  0  0  0
 20 19  1  0  0  0  0
 20 18  1  0  0  0  0
 23 24  1  0  0  0  0
 25 24  1  0  0  0  0
 25 26  1  0  0  0  0
 26 27  1  0  0  0  0
 27 29  1  0  0  0  0
 28 31  1  0  0  0  0
 29 28  1  0  0  0  0
 30 29  2  0  0  0  0
 31 33  2  0  0  0  0
 31 35  1  0  0  0  0
 32 36  1  0  0  0  0
 33 34  1  0  0  0  0
 34 36  2  0  0  0  0
 35 32  2  0  0  0  0
 37 35  1  0  0  0  0
 37 38  1  0  0  0  0
 38 43  1  0  0  0  0
 39 41  1  0  0  0  0
 40 39  2  0  0  0  0
 42 40  1  0  0  0  0
 42 38  2  0  0  0  0
 43 41  2  0  0  0  0
M  END
>  <MODEL>
2

>  <REMARK>
 VINA RESULT:      -8.1      3.289      7.695
  Name = 
  12 active torsions:
  status: ('A' for Active; 'I' for Inactive)
    1  A    between atoms: C_1  and  C_34
    2  A    between atoms: C_1  and  C_35
    3  A    between atoms: O_2  and  C_7
    4  A    between atoms: O_2  and  C_13
    5  A    between atoms: N_3  and  C_4
    6  A    between atoms: C_6  and  C_7
    7  A    between atoms: C_6  and  C_12
    8  A    between atoms: N_8  and  C_27
    9  A    between atoms: N_8  and  C_30
   10  A    between atoms: C_11  and  C_14
   11  A    between atoms: C_13  and  C_27
   12  A    between atoms: C_14  and  C_41
                            x       y       z     vdW  Elec       q    Type
                         _______ _______ _______ _____ _____    ______ ____

>  <TORSDO>
F 12

$$$$
=
 OpenBabel11052416433D

 43 47  0  0  1  0  0  0  0  0999 V2000
  188.1040  177.8810  138.6190 N   0  0  0  0  0  0  0  0  0  0  0  0
  186.8630  178.3010  139.2070 C   0  0  0  0  0  0  0  0  0  0  0  0
  186.8600  178.9280  140.3000 O   0  0  0  0  0  0  0  0  0  0  0  0
  188.1380  173.4970  135.6490 C   0  0  0  0  0  0  0  0  0  0  0  0
  189.3820  175.3980  136.7760 C   0  0  1  0  0  3  0  0  0  0  0  0
  186.9970  174.0900  135.8190 N   0  0  0  0  0  0  0  0  0  0  0  0
  188.1740  172.0880  135.1700 C   0  0  0  0  0  1  0  0  0  0  0  0
  188.0030  175.8580  137.2250 C   0  0  2  0  0  3  0  0  0  0  0  0
  189.3590  174.1640  135.9860 N   0  0  0  0  0  2  0  0  0  0  0  0
  186.9220  175.4940  136.2030 C   0  0  0  0  0  2  0  0  0  0  0  0
  188.1260  177.3700  137.2470 C   0  0  2  0  0  3  0  0  0  0  0  0
  189.3570  177.7680  136.5620 N   0  0  0  0  0  2  0  0  0  0  0  0
  189.9160  176.5550  135.9740 C   0  0  0  0  0  2  0  0  0  0  0  0
  185.5610  178.0460  138.5140 C   0  0  0  0  0  2  0  0  0  0  0  0
  182.2290  177.3230  138.6010 C   0  0  1  0  0  3  0  0  0  0  0  0
  181.4240  178.6140  138.8140 C   0  0  2  0  0  3  0  0  0  0  0  0
  180.6160  179.0670  137.2910 Cl  0  0  0  0  0  0  0  0  0  0  0  0
  183.7180  179.6800  138.8390 C   0  0  0  0  0  2  0  0  0  0  0  0
  183.4160  177.2310  139.5590 C   0  0  0  0  0  2  0  0  0  0  0  0
  184.3830  178.4200  139.4020 C   0  0  1  0  0  3  0  0  0  0  0  0
  181.3230  176.1230  138.7870 C   0  0  0  0  0  1  0  0  0  0  0  0
  182.2730  179.7910  139.3170 C   0  0  0  0  0  2  0  0  0  0  0  0
  189.3520  178.0580  139.3640 C   0  0  0  0  0  2  0  0  0  0  0  0
  189.6500  176.8580  140.2640 C   0  0  0  0  0  2  0  0  0  0  0  0
  189.5830  177.2000  141.6210 O   0  0  0  0  0  0  0  0  0  0  0  0
  189.9210  176.0390  142.3250 C   0  0  0  0  0  2  0  0  0  0  0  0
  190.7880  176.3730  143.5320 C   0  0  0  0  0  2  0  0  0  0  0  0
  190.0130  178.5990  144.5010 N   0  0  0  0  0  2  0  0  0  0  0  0
  190.9460  177.8510  143.7120 C   0  0  0  0  0  0  0  0  0  0  0  0
  191.8720  178.4550  143.1130 O   0  0  0  0  0  0  0  0  0  0  0  0
  189.2330  178.0630  145.5790 C   0  0  0  0  0  0  0  0  0  0  0  0
  187.1100  177.2620  146.4500 C   0  0  0  0  0  3  0  0  0  0  0  0
  189.7960  177.9050  146.8560 C   0  0  0  0  0  3  0  0  0  0  0  0
  189.0260  177.4260  147.9170 C   0  0  0  0  0  3  0  0  0  0  0  0
  187.8770  177.7450  145.3830 C   0  0  0  0  0  0  0  0  0  0  0  0
  187.6820  177.1060  147.7150 C   0  0  0  0  0  3  0  0  0  0  0  0
  187.2600  177.8200  144.0220 C   0  0  0  0  0  2  0  0  0  0  0  0
  185.8190  178.2000  144.1260 C   0  0  0  0  0  0  0  0  0  0  0  0
  183.1310  178.9670  144.3020 C   0  0  0  0  0  3  0  0  0  0  0  0
  183.9440  179.0020  145.4400 C   0  0  0  0  0  3  0  0  0  0  0  0
  183.6600  178.5470  143.0770 C   0  0  0  0  0  3  0  0  0  0  0  0
  185.2850  178.6160  145.3520 C   0  0  0  0  0  3  0  0  0  0  0  0
  185.0030  178.1660  142.9880 C   0  0  0  0  0  3  0  0  0  0  0  0
  1  2  1  0  0  0  0
  1 23  1  0  0  0  0
  2  3  2  0  0  0  0
  4  6  2  0  0  0  0
  4  9  1  0  0  0  0
  5 13  1  6  0  0  0
  5  8  1  0  0  0  0
  6 10  1  0  0  0  0
  7  4  1  0  0  0  0
  8 10  1  6  0  0  0
  8 11  1  0  0  0  0
  9  5  1  0  0  0  0
 11  1  1  1  0  0  0
 12 11  1  0  0  0  0
 13 12  1  0  0  0  0
 14  2  1  0  0  0  0
 15 21  1  1  0  0  0
 15 16  1  0  0  0  0
 15 19  1  0  0  0  0
 16 17  1  6  0  0  0
 16 22  1  0  0  0  0
 18 22  1  0  0  0  0
 18 20  1  0  0  0  0
 20 14  1  6  0  0  0
 20 19  1  0  0  0  0
 23 24  1  0  0  0  0
 24 25  1  0  0  0  0
 25 26  1  0  0  0  0
 26 27  1  0  0  0  0
 27 29  1  0  0  0  0
 28 31  1  0  0  0  0
 29 28  1  0  0  0  0
 30 29  2  0  0  0  0
 31 33  1  0  0  0  0
 32 36  2  0  0  0  0
 33 34  2  0  0  0  0
 35 31  2  0  0  0  0
 35 32  1  0  0  0  0
 36 34  1  0  0  0  0
 37 38  1  0  0  0  0
 37 35  1  0  0  0  0
 38 42  1  0  0  0  0
 39 40  1  0  0  0  0
 41 39  2  0  0  0  0
 42 40  2  0  0  0  0
 43 41  1  0  0  0  0
 43 38  2  0  0  0  0
M  END
>  <MODEL>
3

>  <REMARK>
 VINA RESULT:      -7.9      3.148      7.292
  Name = 
  12 active torsions:
  status: ('A' for Active; 'I' for Inactive)
    1  A    between atoms: C_1  and  C_34
    2  A    between atoms: C_1  and  C_35
    3  A    between atoms: O_2  and  C_7
    4  A    between atoms: O_2  and  C_13
    5  A    between atoms: N_3  and  C_4
    6  A    between atoms: C_6  and  C_7
    7  A    between atoms: C_6  and  C_12
    8  A    between atoms: N_8  and  C_27
    9  A    between atoms: N_8  and  C_30
   10  A    between atoms: C_11  and  C_14
   11  A    between atoms: C_13  and  C_27
   12  A    between atoms: C_14  and  C_41
                            x       y       z     vdW  Elec       q    Type
                         _______ _______ _______ _____ _____    ______ ____

>  <TORSDO>
F 12

$$$$
=
 OpenBabel11052416433D

 43 47  0  0  1  0  0  0  0  0999 V2000
  189.0810  177.1190  138.7010 N   0  0  0  0  0  0  0  0  0  0  0  0
  188.7410  177.4630  140.0540 C   0  0  0  0  0  0  0  0  0  0  0  0
  187.7080  178.1460  140.2920 O   0  0  0  0  0  0  0  0  0  0  0  0
  193.6290  176.2420  136.1340 C   0  0  0  0  0  0  0  0  0  0  0  0
  191.1040  176.0370  136.2660 C   0  0  1  0  0  3  0  0  0  0  0  0
  193.7080  176.5670  137.3870 N   0  0  0  0  0  0  0  0  0  0  0  0
  194.8310  176.3570  135.2640 C   0  0  0  0  0  1  0  0  0  0  0  0
  191.2510  176.7360  137.6100 C   0  0  2  0  0  3  0  0  0  0  0  0
  192.3770  175.8420  135.5670 N   0  0  0  0  0  2  0  0  0  0  0  0
  192.5780  176.3860  138.2900 C   0  0  0  0  0  2  0  0  0  0  0  0
  190.1340  176.1350  138.4430 C   0  0  2  0  0  3  0  0  0  0  0  0
  189.5930  174.9610  137.7550 N   0  0  0  0  0  2  0  0  0  0  0  0
  190.4520  174.7220  136.6010 C   0  0  0  0  0  2  0  0  0  0  0  0
  189.5730  176.9810  141.2010 C   0  0  0  0  0  2  0  0  0  0  0  0
  191.0030  178.2840  144.0100 C   0  0  1  0  0  3  0  0  0  0  0  0
  190.3520  177.6680  145.2570 C   0  0  2  0  0  3  0  0  0  0  0  0
  191.4850  176.5150  146.0090 Cl  0  0  0  0  0  0  0  0  0  0  0  0
  188.9730  176.4160  143.5450 C   0  0  0  0  0  2  0  0  0  0  0  0
  189.9590  178.7220  142.9830 C   0  0  0  0  0  2  0  0  0  0  0  0
  189.0720  177.5510  142.5200 C   0  0  1  0  0  3  0  0  0  0  0  0
  191.8560  179.4690  144.4150 C   0  0  0  0  0  1  0  0  0  0  0  0
  189.0170  176.9640  144.9690 C   0  0  0  0  0  2  0  0  0  0  0  0
  188.3060  177.6840  137.5960 C   0  0  0  0  0  2  0  0  0  0  0  0
  187.0380  176.8750  137.3200 C   0  0  0  0  0  2  0  0  0  0  0  0
  185.9590  177.7030  136.9850 O   0  0  0  0  0  0  0  0  0  0  0  0
  185.5560  178.3100  138.1800 C   0  0  0  0  0  2  0  0  0  0  0  0
  184.0450  178.2180  138.3480 C   0  0  0  0  0  2  0  0  0  0  0  0
  182.0820  179.5780  139.2380 N   0  0  0  0  0  2  0  0  0  0  0  0
  183.4630  179.4970  138.8660 C   0  0  0  0  0  0  0  0  0  0  0  0
  184.1770  180.5300  138.9130 O   0  0  0  0  0  0  0  0  0  0  0  0
  181.2850  178.4710  139.6840 C   0  0  0  0  0  0  0  0  0  0  0  0
  180.2590  177.2030  141.4860 C   0  0  0  0  0  3  0  0  0  0  0  0
  180.8320  177.5060  138.7700 C   0  0  0  0  0  3  0  0  0  0  0  0
  180.0940  176.4040  139.2090 C   0  0  0  0  0  3  0  0  0  0  0  0
  181.0000  178.3090  141.0520 C   0  0  0  0  0  0  0  0  0  0  0  0
  179.8100  176.2520  140.5670 C   0  0  0  0  0  3  0  0  0  0  0  0
  181.3930  179.3530  142.0480 C   0  0  0  0  0  2  0  0  0  0  0  0
  182.6460  178.9500  142.7560 C   0  0  0  0  0  0  0  0  0  0  0  0
  185.0100  178.2530  144.0840 C   0  0  0  0  0  3  0  0  0  0  0  0
  184.9340  178.1480  142.6910 C   0  0  0  0  0  3  0  0  0  0  0  0
  183.9050  178.7040  144.8140 C   0  0  0  0  0  3  0  0  0  0  0  0
  183.7520  178.4940  142.0290 C   0  0  0  0  0  3  0  0  0  0  0  0
  182.7250  179.0550  144.1510 C   0  0  0  0  0  3  0  0  0  0  0  0
  1  2  1  0  0  0  0
  2  3  2  0  0  0  0
  2 14  1  0  0  0  0
  4  6  2  0  0  0  0
  5 13  1  1  0  0  0
  5  8  1  0  0  0  0
  6 10  1  0  0  0  0
  7  4  1  0  0  0  0
  8 10  1  1  0  0  0
  8 11  1  0  0  0  0
  9  4  1  0  0  0  0
  9  5  1  0  0  0  0
 11  1  1  6  0  0  0
 12 11  1  0  0  0  0
 13 12  1  0  0  0  0
 15 21  1  1  0  0  0
 15 16  1  0  0  0  0
 16 17  1  6  0  0  0
 18 22  1  0  0  0  0
 19 15  1  0  0  0  0
 20 14  1  6  0  0  0
 20 19  1  0  0  0  0
 20 18  1  0  0  0  0
 22 16  1  0  0  0  0
 23  1  1  0  0  0  0
 24 23  1  0  0  0  0
 25 24  1  0  0  0  0
 25 26  1  0  0  0  0
 26 27  1  0  0  0  0
 27 29  1  0  0  0  0
 28 31  1  0  0  0  0
 29 30  2  0  0  0  0
 29 28  1  0  0  0  0
 31 35  1  0  0  0  0
 33 34  1  0  0  0  0
 33 31  2  0  0  0  0
 34 36  2  0  0  0  0
 35 32  2  0  0  0  0
 35 37  1  0  0  0  0
 36 32  1  0  0  0  0
 37 38  1  0  0  0  0
 38 43  1  0  0  0  0
 39 41  1  0  0  0  0
 40 39  2  0  0  0  0
 42 40  1  0  0  0  0
 42 38  2  0  0  0  0
 43 41  2  0  0  0  0
M  END
>  <MODEL>
4

>  <REMARK>
 VINA RESULT:      -7.9      1.194      1.867
  Name = 
  12 active torsions:
  status: ('A' for Active; 'I' for Inactive)
    1  A    between atoms: C_1  and  C_34
    2  A    between atoms: C_1  and  C_35
    3  A    between atoms: O_2  and  C_7
    4  A    between atoms: O_2  and  C_13
    5  A    between atoms: N_3  and  C_4
    6  A    between atoms: C_6  and  C_7
    7  A    between atoms: C_6  and  C_12
    8  A    between atoms: N_8  and  C_27
    9  A    between atoms: N_8  and  C_30
   10  A    between atoms: C_11  and  C_14
   11  A    between atoms: C_13  and  C_27
   12  A    between atoms: C_14  and  C_41
                            x       y       z     vdW  Elec       q    Type
                         _______ _______ _______ _____ _____    ______ ____

>  <TORSDO>
F 12

$$$$
=
 OpenBabel11052416433D

 43 47  0  0  1  0  0  0  0  0999 V2000
  185.5090  177.8380  137.5930 N   0  0  0  0  0  0  0  0  0  0  0  0
  184.5130  176.8420  137.3100 C   0  0  0  0  0  0  0  0  0  0  0  0
  183.3410  176.9760  137.7550 O   0  0  0  0  0  0  0  0  0  0  0  0
  190.5040  176.0880  137.7870 C   0  0  0  0  0  0  0  0  0  0  0  0
  188.8070  177.9360  138.1550 C   0  0  1  0  0  3  0  0  0  0  0  0
  189.6610  175.4000  137.0800 N   0  0  0  0  0  0  0  0  0  0  0  0
  191.7940  175.4740  138.2020 C   0  0  0  0  0  1  0  0  0  0  0  0
  187.7970  176.9350  137.6130 C   0  0  2  0  0  3  0  0  0  0  0  0
  190.1710  177.4090  138.2280 N   0  0  0  0  0  2  0  0  0  0  0  0
  188.4270  175.9940  136.5810 C   0  0  0  0  0  2  0  0  0  0  0  0
  186.7910  177.8080  136.8860 C   0  0  2  0  0  3  0  0  0  0  0  0
  187.3370  179.1590  136.7400 N   0  0  0  0  0  2  0  0  0  0  0  0
  188.7170  179.1030  137.2090 C   0  0  0  0  0  2  0  0  0  0  0  0
  184.8320  175.6620  136.4470 C   0  0  0  0  0  2  0  0  0  0  0  0
  185.8560  172.4300  136.0720 C   0  0  1  0  0  3  0  0  0  0  0  0
  184.6660  171.4820  136.2780 C   0  0  2  0  0  3  0  0  0  0  0  0
  184.1610  170.8140  134.7040 Cl  0  0  0  0  0  0  0  0  0  0  0  0
  183.4040  173.6400  136.6610 C   0  0  0  0  0  2  0  0  0  0  0  0
  185.9210  173.5020  137.1590 C   0  0  0  0  0  2  0  0  0  0  0  0
  184.6420  174.3580  137.2080 C   0  0  1  0  0  3  0  0  0  0  0  0
  187.1450  171.6330  136.0570 C   0  0  0  0  0  1  0  0  0  0  0  0
  183.4630  172.1450  136.9650 C   0  0  0  0  0  2  0  0  0  0  0  0
  185.1970  178.9290  138.5180 C   0  0  0  0  0  2  0  0  0  0  0  0
  185.3550  178.4990  139.9770 C   0  0  0  0  0  2  0  0  0  0  0  0
  185.2210  179.5840  140.8520 O   0  0  0  0  0  0  0  0  0  0  0  0
  186.0840  179.3220  141.9220 C   0  0  0  0  0  2  0  0  0  0  0  0
  185.4800  179.8090  143.2330 C   0  0  0  0  0  2  0  0  0  0  0  0
  184.8600  177.8370  144.7230 N   0  0  0  0  0  2  0  0  0  0  0  0
  184.4750  178.8420  143.7780 C   0  0  0  0  0  0  0  0  0  0  0  0
  183.2920  178.8700  143.3540 O   0  0  0  0  0  0  0  0  0  0  0  0
  185.9690  177.9420  145.6290 C   0  0  0  0  0  0  0  0  0  0  0  0
  188.2740  177.4310  146.2070 C   0  0  0  0  0  3  0  0  0  0  0  0
  185.8130  178.5680  146.8750 C   0  0  0  0  0  3  0  0  0  0  0  0
  186.8780  178.6310  147.7760 C   0  0  0  0  0  3  0  0  0  0  0  0
  187.2080  177.3630  145.3000 C   0  0  0  0  0  0  0  0  0  0  0  0
  188.1080  178.0610  147.4420 C   0  0  0  0  0  3  0  0  0  0  0  0
  187.4410  176.7580  143.9520 C   0  0  0  0  0  2  0  0  0  0  0  0
  188.8630  176.9480  143.5360 C   0  0  0  0  0  0  0  0  0  0  0  0
  191.5470  177.2890  142.8130 C   0  0  0  0  0  3  0  0  0  0  0  0
  190.7790  178.3950  143.1920 C   0  0  0  0  0  3  0  0  0  0  0  0
  190.9740  176.0120  142.7930 C   0  0  0  0  0  3  0  0  0  0  0  0
  189.4390  178.2240  143.5510 C   0  0  0  0  0  3  0  0  0  0  0  0
  189.6340  175.8410  143.1560 C   0  0  0  0  0  3  0  0  0  0  0  0
  1 23  1  0  0  0  0
  2  1  1  0  0  0  0
  2  3  2  0  0  0  0
  4  7  1  0  0  0  0
  4  9  1  0  0  0  0
  5 13  1  6  0  0  0
  5  9  1  0  0  0  0
  6  4  2  0  0  0  0
  8 10  1  6  0  0  0
  8  5  1  0  0  0  0
 10  6  1  0  0  0  0
 11  1  1  1  0  0  0
 11  8  1  0  0  0  0
 12 11  1  0  0  0  0
 12 13  1  0  0  0  0
 14  2  1  0  0  0  0
 15 21  1  1  0  0  0
 15 16  1  0  0  0  0
 15 19  1  0  0  0  0
 16 17  1  6  0  0  0
 16 22  1  0  0  0  0
 18 22  1  0  0  0  0
 18 20  1  0  0  0  0
 19 20  1  0  0  0  0
 20 14  1  6  0  0  0
 23 24  1  0  0  0  0
 24 25  1  0  0  0  0
 25 26  1  0  0  0  0
 26 27  1  0  0  0  0
 27 29  1  0  0  0  0
 28 31  1  0  0  0  0
 29 28  1  0  0  0  0
 30 29  2  0  0  0  0
 31 33  1  0  0  0  0
 32 36  2  0  0  0  0
 33 34  2  0  0  0  0
 35 31  2  0  0  0  0
 35 32  1  0  0  0  0
 36 34  1  0  0  0  0
 37 35  1  0  0  0  0
 38 42  1  0  0  0  0
 38 37  1  0  0  0  0
 39 40  1  0  0  0  0
 40 42  2  0  0  0  0
 41 39  2  0  0  0  0
 41 43  1  0  0  0  0
 43 38  2  0  0  0  0
M  END
>  <MODEL>
5

>  <REMARK>
 VINA RESULT:      -7.9      3.551      7.468
  Name = 
  12 active torsions:
  status: ('A' for Active; 'I' for Inactive)
    1  A    between atoms: C_1  and  C_34
    2  A    between atoms: C_1  and  C_35
    3  A    between atoms: O_2  and  C_7
    4  A    between atoms: O_2  and  C_13
    5  A    between atoms: N_3  and  C_4
    6  A    between atoms: C_6  and  C_7
    7  A    between atoms: C_6  and  C_12
    8  A    between atoms: N_8  and  C_27
    9  A    between atoms: N_8  and  C_30
   10  A    between atoms: C_11  and  C_14
   11  A    between atoms: C_13  and  C_27
   12  A    between atoms: C_14  and  C_41
                            x       y       z     vdW  Elec       q    Type
                         _______ _______ _______ _____ _____    ______ ____

>  <TORSDO>
F 12

$$$$
=
 OpenBabel11052416433D

 43 47  0  0  1  0  0  0  0  0999 V2000
  186.9070  178.3270  142.0240 N   0  0  0  0  0  0  0  0  0  0  0  0
  185.5920  178.6990  141.5810 C   0  0  0  0  0  0  0  0  0  0  0  0
  185.4460  179.3530  140.5130 O   0  0  0  0  0  0  0  0  0  0  0  0
  187.9330  177.8360  147.1970 C   0  0  0  0  0  0  0  0  0  0  0  0
  188.7200  177.7960  144.7860 C   0  0  1  0  0  3  0  0  0  0  0  0
  186.6880  177.8010  146.8330 N   0  0  0  0  0  0  0  0  0  0  0  0
  188.2790  178.0910  148.6210 C   0  0  0  0  0  1  0  0  0  0  0  0
  187.2660  178.0900  144.4460 C   0  0  2  0  0  3  0  0  0  0  0  0
  188.9760  177.7010  146.2250 N   0  0  0  0  0  2  0  0  0  0  0  0
  186.3070  177.4690  145.4660 C   0  0  0  0  0  2  0  0  0  0  0  0
  187.0620  177.3730  143.1250 C   0  0  2  0  0  3  0  0  0  0  0  0
  188.1920  176.4750  142.8790 N   0  0  0  0  0  2  0  0  0  0  0  0
  189.0080  176.4930  144.0890 C   0  0  0  0  0  2  0  0  0  0  0  0
  184.3770  178.2810  142.3480 C   0  0  0  0  0  2  0  0  0  0  0  0
  181.0270  178.1500  142.9800 C   0  0  1  0  0  3  0  0  0  0  0  0
  180.2480  178.2150  141.6580 C   0  0  2  0  0  3  0  0  0  0  0  0
  179.5740  176.6070  141.2880 Cl  0  0  0  0  0  0  0  0  0  0  0  0
  182.5640  178.3520  140.6510 C   0  0  0  0  0  2  0  0  0  0  0  0
  182.1340  179.2030  143.0370 C   0  0  0  0  0  2  0  0  0  0  0  0
  183.1450  179.0460  141.8860 C   0  0  1  0  0  3  0  0  0  0  0  0
  180.0740  178.3410  144.1420 C   0  0  0  0  0  1  0  0  0  0  0  0
  181.0900  178.7060  140.4710 C   0  0  0  0  0  2  0  0  0  0  0  0
  188.0790  178.8320  141.3090 C   0  0  0  0  0  2  0  0  0  0  0  0
  188.4190  177.9660  140.0950 C   0  0  0  0  0  2  0  0  0  0  0  0
  188.4380  178.7180  138.9130 O   0  0  0  0  0  0  0  0  0  0  0  0
  187.5040  178.1170  138.0620 C   0  0  0  0  0  2  0  0  0  0  0  0
  187.8460  176.6500  137.8360 C   0  0  0  0  0  2  0  0  0  0  0  0
  186.4880  175.6290  135.9380 N   0  0  0  0  0  2  0  0  0  0  0  0
  187.6890  176.2560  136.4000 C   0  0  0  0  0  0  0  0  0  0  0  0
  188.6480  176.4170  135.6030 O   0  0  0  0  0  0  0  0  0  0  0  0
  185.1930  175.7890  136.5380 C   0  0  0  0  0  0  0  0  0  0  0  0
  183.3550  174.8970  137.8530 C   0  0  0  0  0  3  0  0  0  0  0  0
  184.4450  176.9560  136.3160 C   0  0  0  0  0  3  0  0  0  0  0  0
  183.1670  177.0950  136.8610 C   0  0  0  0  0  3  0  0  0  0  0  0
  184.6360  174.7520  137.3070 C   0  0  0  0  0  0  0  0  0  0  0  0
  182.6220  176.0640  137.6290 C   0  0  0  0  0  3  0  0  0  0  0  0
  185.4300  173.5270  137.6350 C   0  0  0  0  0  2  0  0  0  0  0  0
  184.9490  172.3650  136.8280 C   0  0  0  0  0  0  0  0  0  0  0  0
  184.0300  170.2250  135.2730 C   0  0  0  0  0  3  0  0  0  0  0  0
  183.2310  170.7360  136.3010 C   0  0  0  0  0  3  0  0  0  0  0  0
  185.2890  170.7820  135.0220 C   0  0  0  0  0  3  0  0  0  0  0  0
  183.6920  171.8030  137.0790 C   0  0  0  0  0  3  0  0  0  0  0  0
  185.7480  171.8520  135.7980 C   0  0  0  0  0  3  0  0  0  0  0  0
  2  1  1  0  0  0  0
  2 14  1  0  0  0  0
  3  2  2  0  0  0  0
  4  7  1  0  0  0  0
  5 13  1  6  0  0  0
  5  9  1  0  0  0  0
  6  4  2  0  0  0  0
  8  5  1  0  0  0  0
  8 10  1  1  0  0  0
  9  4  1  0  0  0  0
 10  6  1  0  0  0  0
 11  1  1  6  0  0  0
 11  8  1  0  0  0  0
 12 11  1  0  0  0  0
 12 13  1  0  0  0  0
 15 19  1  0  0  0  0
 15 21  1  1  0  0  0
 16 17  1  6  0  0  0
 16 15  1  0  0  0  0
 18 20  1  0  0  0  0
 20 14  1  1  0  0  0
 20 19  1  0  0  0  0
 22 18  1  0  0  0  0
 22 16  1  0  0  0  0
 23  1  1  0  0  0  0
 24 23  1  0  0  0  0
 25 24  1  0  0  0  0
 26 25  1  0  0  0  0
 27 26  1  0  0  0  0
 28 29  1  0  0  0  0
 28 31  1  0  0  0  0
 29 27  1  0  0  0  0
 30 29  2  0  0  0  0
 31 35  1  0  0  0  0
 33 31  2  0  0  0  0
 33 34  1  0  0  0  0
 34 36  2  0  0  0  0
 35 37  1  0  0  0  0
 35 32  2  0  0  0  0
 36 32  1  0  0  0  0
 38 42  1  0  0  0  0
 38 37  1  0  0  0  0
 39 40  1  0  0  0  0
 40 42  2  0  0  0  0
 41 39  2  0  0  0  0
 41 43  1  0  0  0  0
 43 38  2  0  0  0  0
M  END
>  <MODEL>
6

>  <REMARK>
 VINA RESULT:      -7.7      3.913      7.940
  Name = 
  12 active torsions:
  status: ('A' for Active; 'I' for Inactive)
    1  A    between atoms: C_1  and  C_34
    2  A    between atoms: C_1  and  C_35
    3  A    between atoms: O_2  and  C_7
    4  A    between atoms: O_2  and  C_13
    5  A    between atoms: N_3  and  C_4
    6  A    between atoms: C_6  and  C_7
    7  A    between atoms: C_6  and  C_12
    8  A    between atoms: N_8  and  C_27
    9  A    between atoms: N_8  and  C_30
   10  A    between atoms: C_11  and  C_14
   11  A    between atoms: C_13  and  C_27
   12  A    between atoms: C_14  and  C_41
                            x       y       z     vdW  Elec       q    Type
                         _______ _______ _______ _____ _____    ______ ____

>  <TORSDO>
F 12

$$$$
=
 OpenBabel11052416433D

 43 47  0  0  1  0  0  0  0  0999 V2000
  186.2790  177.0300  136.7340 N   0  0  0  0  0  0  0  0  0  0  0  0
  185.5840  177.9480  137.5940 C   0  0  0  0  0  0  0  0  0  0  0  0
  186.2200  178.8550  138.1950 O   0  0  0  0  0  0  0  0  0  0  0  0
  183.8770  172.3210  136.4100 C   0  0  0  0  0  0  0  0  0  0  0  0
  185.9060  173.7870  135.9990 C   0  0  1  0  0  3  0  0  0  0  0  0
  183.1280  173.3540  136.6430 N   0  0  0  0  0  0  0  0  0  0  0  0
  183.3550  170.9550  136.6830 C   0  0  0  0  0  1  0  0  0  0  0  0
  185.0600  174.8980  136.6030 C   0  0  2  0  0  3  0  0  0  0  0  0
  185.2240  172.4910  135.9570 N   0  0  0  0  0  2  0  0  0  0  0  0
  183.5690  174.7030  136.3080 C   0  0  0  0  0  2  0  0  0  0  0  0
  185.5190  176.1360  135.8570 C   0  0  2  0  0  3  0  0  0  0  0  0
  186.3220  175.7360  134.7000 N   0  0  0  0  0  2  0  0  0  0  0  0
  186.2350  174.2820  134.6160 C   0  0  0  0  0  2  0  0  0  0  0  0
  184.0980  177.8740  137.7540 C   0  0  0  0  0  2  0  0  0  0  0  0
  181.4190  176.6540  139.4770 C   0  0  1  0  0  3  0  0  0  0  0  0
  181.0060  177.6530  140.5680 C   0  0  2  0  0  3  0  0  0  0  0  0
  179.4940  178.4650  140.0860 Cl  0  0  0  0  0  0  0  0  0  0  0  0
  182.9470  178.9910  139.6520 C   0  0  0  0  0  2  0  0  0  0  0  0
  182.9300  176.4280  139.4580 C   0  0  0  0  0  2  0  0  0  0  0  0
  183.7100  177.7350  139.2190 C   0  0  1  0  0  3  0  0  0  0  0  0
  180.7030  175.3370  139.6970 C   0  0  0  0  0  1  0  0  0  0  0  0
  182.0800  178.7060  140.8760 C   0  0  0  0  0  2  0  0  0  0  0  0
  187.7400  177.0640  136.6720 C   0  0  0  0  0  2  0  0  0  0  0  0
  188.3760  176.4090  137.8980 C   0  0  0  0  0  2  0  0  0  0  0  0
  189.7500  176.2050  137.7220 O   0  0  0  0  0  0  0  0  0  0  0  0
  190.3740  176.8530  138.7940 C   0  0  0  0  0  2  0  0  0  0  0  0
  189.3750  177.1340  139.9090 C   0  0  0  0  0  2  0  0  0  0  0  0
  189.4140  178.0690  142.2790 N   0  0  0  0  0  2  0  0  0  0  0  0
  190.0530  177.3340  141.2290 C   0  0  0  0  0  0  0  0  0  0  0  0
  191.2240  176.9080  141.3970 O   0  0  0  0  0  0  0  0  0  0  0  0
  187.9950  178.2050  142.4410 C   0  0  0  0  0  0  0  0  0  0  0  0
  185.9160  177.5030  143.4880 C   0  0  0  0  0  3  0  0  0  0  0  0
  187.2690  179.1000  141.6400 C   0  0  0  0  0  3  0  0  0  0  0  0
  185.8820  179.2010  141.7660 C   0  0  0  0  0  3  0  0  0  0  0  0
  187.3070  177.3970  143.3650 C   0  0  0  0  0  0  0  0  0  0  0  0
  185.2050  178.4010  142.6880 C   0  0  0  0  0  3  0  0  0  0  0  0
  188.0500  176.4890  144.2940 C   0  0  0  0  0  2  0  0  0  0  0  0
  188.1920  177.1250  145.6380 C   0  0  0  0  0  0  0  0  0  0  0  0
  188.4650  178.2640  148.1820 C   0  0  0  0  0  3  0  0  0  0  0  0
  187.1920  178.0630  147.6380 C   0  0  0  0  0  3  0  0  0  0  0  0
  189.6020  177.8980  147.4540 C   0  0  0  0  0  3  0  0  0  0  0  0
  187.0560  177.4970  146.3670 C   0  0  0  0  0  3  0  0  0  0  0  0
  189.4670  177.3270  146.1840 C   0  0  0  0  0  3  0  0  0  0  0  0
  1  2  1  0  0  0  0
  2 14  1  0  0  0  0
  2  3  2  0  0  0  0
  4  6  2  0  0  0  0
  4  7  1  0  0  0  0
  5 13  1  6  0  0  0
  5  8  1  0  0  0  0
  8 10  1  6  0  0  0
  9  5  1  0  0  0  0
  9  4  1  0  0  0  0
 10  6  1  0  0  0  0
 11  8  1  0  0  0  0
 11  1  1  1  0  0  0
 12 11  1  0  0  0  0
 13 12  1  0  0  0  0
 15 21  1  1  0  0  0
 15 16  1  0  0  0  0
 16 17  1  6  0  0  0
 16 22  1  0  0  0  0
 18 22  1  0  0  0  0
 19 15  1  0  0  0  0
 20 14  1  6  0  0  0
 20 19  1  0  0  0  0
 20 18  1  0  0  0  0
 23  1  1  0  0  0  0
 23 24  1  0  0  0  0
 25 24  1  0  0  0  0
 25 26  1  0  0  0  0
 26 27  1  0  0  0  0
 27 29  1  0  0  0  0
 28 31  1  0  0  0  0
 29 30  2  0  0  0  0
 29 28  1  0  0  0  0
 31 35  1  0  0  0  0
 33 34  1  0  0  0  0
 33 31  2  0  0  0  0
 34 36  2  0  0  0  0
 35 32  2  0  0  0  0
 35 37  1  0  0  0  0
 36 32  1  0  0  0  0
 37 38  1  0  0  0  0
 38 43  2  0  0  0  0
 38 42  1  0  0  0  0
 40 39  1  0  0  0  0
 41 39  2  0  0  0  0
 42 40  2  0  0  0  0
 43 41  1  0  0  0  0
M  END
>  <MODEL>
7

>  <REMARK>
 VINA RESULT:      -7.7      3.385      7.404
  Name = 
  12 active torsions:
  status: ('A' for Active; 'I' for Inactive)
    1  A    between atoms: C_1  and  C_34
    2  A    between atoms: C_1  and  C_35
    3  A    between atoms: O_2  and  C_7
    4  A    between atoms: O_2  and  C_13
    5  A    between atoms: N_3  and  C_4
    6  A    between atoms: C_6  and  C_7
    7  A    between atoms: C_6  and  C_12
    8  A    between atoms: N_8  and  C_27
    9  A    between atoms: N_8  and  C_30
   10  A    between atoms: C_11  and  C_14
   11  A    between atoms: C_13  and  C_27
   12  A    between atoms: C_14  and  C_41
                            x       y       z     vdW  Elec       q    Type
                         _______ _______ _______ _____ _____    ______ ____

>  <TORSDO>
F 12

$$$$
=
 OpenBabel11052416433D

 43 47  0  0  1  0  0  0  0  0999 V2000
  186.8810  178.3470  142.1160 N   0  0  0  0  0  0  0  0  0  0  0  0
  185.5600  178.7160  141.6890 C   0  0  0  0  0  0  0  0  0  0  0  0
  185.4010  179.3780  140.6280 O   0  0  0  0  0  0  0  0  0  0  0  0
  188.1250  177.8040  147.2350 C   0  0  0  0  0  0  0  0  0  0  0  0
  188.7990  177.7420  144.7910 C   0  0  1  0  0  3  0  0  0  0  0  0
  186.8650  177.8150  146.9280 N   0  0  0  0  0  0  0  0  0  0  0  0
  188.5450  178.0410  148.6430 C   0  0  0  0  0  1  0  0  0  0  0  0
  187.3430  178.0900  144.5180 C   0  0  2  0  0  3  0  0  0  0  0  0
  189.1170  177.6340  146.2160 N   0  0  0  0  0  2  0  0  0  0  0  0
  186.4090  177.5010  145.5800 C   0  0  0  0  0  2  0  0  0  0  0  0
  187.0510  177.3840  143.2070 C   0  0  2  0  0  3  0  0  0  0  0  0
  188.1360  176.4470  142.9080 N   0  0  0  0  0  2  0  0  0  0  0  0
  189.0060  176.4320  144.0790 C   0  0  0  0  0  2  0  0  0  0  0  0
  184.3540  178.2850  142.4640 C   0  0  0  0  0  2  0  0  0  0  0  0
  181.0140  178.1960  143.1490 C   0  0  1  0  0  3  0  0  0  0  0  0
  180.2140  178.4180  141.8570 C   0  0  2  0  0  3  0  0  0  0  0  0
  179.4810  176.8770  141.3410 Cl  0  0  0  0  0  0  0  0  0  0  0  0
  182.5150  178.5850  140.8200 C   0  0  0  0  0  2  0  0  0  0  0  0
  182.1550  179.2020  143.2890 C   0  0  0  0  0  2  0  0  0  0  0  0
  183.1410  179.1320  142.1070 C   0  0  1  0  0  3  0  0  0  0  0  0
  180.0880  178.2970  144.3440 C   0  0  0  0  0  1  0  0  0  0  0  0
  181.0510  179.0010  140.7080 C   0  0  0  0  0  2  0  0  0  0  0  0
  188.0440  178.8630  141.3930 C   0  0  0  0  0  2  0  0  0  0  0  0
  188.2920  178.0970  140.0940 C   0  0  0  0  0  2  0  0  0  0  0  0
  188.6750  178.9530  139.0540 O   0  0  0  0  0  0  0  0  0  0  0  0
  189.5740  178.2220  138.2680 C   0  0  0  0  0  2  0  0  0  0  0  0
  188.9100  176.9680  137.7150 C   0  0  0  0  0  2  0  0  0  0  0  0
  188.7950  175.6460  135.5400 N   0  0  0  0  0  2  0  0  0  0  0  0
  189.0400  176.8790  136.2260 C   0  0  0  0  0  0  0  0  0  0  0  0
  189.4320  177.8800  135.5750 O   0  0  0  0  0  0  0  0  0  0  0  0
  187.9330  174.6000  136.0120 C   0  0  0  0  0  0  0  0  0  0  0  0
  185.7010  173.6870  136.3210 C   0  0  0  0  0  3  0  0  0  0  0  0
  188.4590  173.5090  136.7210 C   0  0  0  0  0  3  0  0  0  0  0  0
  187.6160  172.5130  137.2200 C   0  0  0  0  0  3  0  0  0  0  0  0
  186.5420  174.6890  135.8200 C   0  0  0  0  0  0  0  0  0  0  0  0
  186.2370  172.6040  137.0220 C   0  0  0  0  0  3  0  0  0  0  0  0
  185.9470  175.7910  135.0010 C   0  0  0  0  0  2  0  0  0  0  0  0
  184.9240  176.5350  135.7960 C   0  0  0  0  0  0  0  0  0  0  0  0
  183.0010  177.8810  137.3230 C   0  0  0  0  0  3  0  0  0  0  0  0
  182.6250  177.2210  136.1480 C   0  0  0  0  0  3  0  0  0  0  0  0
  184.3380  177.8710  137.7340 C   0  0  0  0  0  3  0  0  0  0  0  0
  183.5860  176.5510  135.3850 C   0  0  0  0  0  3  0  0  0  0  0  0
  185.2990  177.1970  136.9730 C   0  0  0  0  0  3  0  0  0  0  0  0
  2  1  1  0  0  0  0
  2 14  1  0  0  0  0
  3  2  2  0  0  0  0
  4  7  1  0  0  0  0
  5 13  1  6  0  0  0
  5  9  1  0  0  0  0
  6  4  2  0  0  0  0
  8  5  1  0  0  0  0
  8 10  1  1  0  0  0
  9  4  1  0  0  0  0
 10  6  1  0  0  0  0
 11  1  1  6  0  0  0
 11  8  1  0  0  0  0
 12 11  1  0  0  0  0
 12 13  1  0  0  0  0
 15 19  1  0  0  0  0
 15 21  1  1  0  0  0
 16 17  1  6  0  0  0
 16 15  1  0  0  0  0
 18 20  1  0  0  0  0
 20 14  1  1  0  0  0
 20 19  1  0  0  0  0
 22 18  1  0  0  0  0
 22 16  1  0  0  0  0
 23  1  1  0  0  0  0
 24 23  1  0  0  0  0
 25 24  1  0  0  0  0
 26 25  1  0  0  0  0
 27 26  1  0  0  0  0
 28 31  1  0  0  0  0
 28 29  1  0  0  0  0
 29 27  1  0  0  0  0
 30 29  2  0  0  0  0
 31 33  1  0  0  0  0
 32 36  2  0  0  0  0
 33 34  2  0  0  0  0
 35 31  2  0  0  0  0
 35 32  1  0  0  0  0
 36 34  1  0  0  0  0
 37 38  1  0  0  0  0
 37 35  1  0  0  0  0
 38 43  1  0  0  0  0
 39 41  1  0  0  0  0
 40 39  2  0  0  0  0
 42 38  2  0  0  0  0
 42 40  1  0  0  0  0
 43 41  2  0  0  0  0
M  END
>  <MODEL>
8

>  <REMARK>
 VINA RESULT:      -7.6      3.397      8.010
  Name = 
  12 active torsions:
  status: ('A' for Active; 'I' for Inactive)
    1  A    between atoms: C_1  and  C_34
    2  A    between atoms: C_1  and  C_35
    3  A    between atoms: O_2  and  C_7
    4  A    between atoms: O_2  and  C_13
    5  A    between atoms: N_3  and  C_4
    6  A    between atoms: C_6  and  C_7
    7  A    between atoms: C_6  and  C_12
    8  A    between atoms: N_8  and  C_27
    9  A    between atoms: N_8  and  C_30
   10  A    between atoms: C_11  and  C_14
   11  A    between atoms: C_13  and  C_27
   12  A    between atoms: C_14  and  C_41
                            x       y       z     vdW  Elec       q    Type
                         _______ _______ _______ _____ _____    ______ ____

>  <TORSDO>
F 12

$$$$
=
 OpenBabel11052416433D

 43 47  0  0  1  0  0  0  0  0999 V2000
  189.2660  177.6590  140.1850 N   0  0  0  0  0  0  0  0  0  0  0  0
  189.9700  177.3690  138.9660 C   0  0  0  0  0  0  0  0  0  0  0  0
  189.7990  178.0940  137.9500 O   0  0  0  0  0  0  0  0  0  0  0  0
  188.6110  177.5770  145.4400 C   0  0  0  0  0  0  0  0  0  0  0  0
  189.9570  178.2640  143.4030 C   0  0  1  0  0  3  0  0  0  0  0  0
  187.9020  176.7460  144.7400 N   0  0  0  0  0  0  0  0  0  0  0  0
  188.2180  177.8840  146.8420 C   0  0  0  0  0  1  0  0  0  0  0  0
  188.8820  177.5340  142.6110 C   0  0  2  0  0  3  0  0  0  0  0  0
  189.7270  178.2510  144.8500 N   0  0  0  0  0  2  0  0  0  0  0  0
  188.3020  176.3530  143.3950 C   0  0  0  0  0  2  0  0  0  0  0  0
  189.6400  176.9710  141.4230 C   0  0  2  0  0  3  0  0  0  0  0  0
  191.0790  177.0840  141.6680 N   0  0  0  0  0  2  0  0  0  0  0  0
  191.2320  177.5490  143.0420 C   0  0  0  0  0  2  0  0  0  0  0  0
  190.9470  176.2370  138.8950 C   0  0  0  0  0  2  0  0  0  0  0  0
  192.1980  173.9330  136.7140 C   0  0  1  0  0  3  0  0  0  0  0  0
  193.6510  174.2860  136.3640 C   0  0  2  0  0  3  0  0  0  0  0  0
  194.7500  173.1430  137.1790 Cl  0  0  0  0  0  0  0  0  0  0  0  0
  193.2350  176.2300  137.9270 C   0  0  0  0  0  2  0  0  0  0  0  0
  191.2850  175.1570  136.6430 C   0  0  0  0  0  2  0  0  0  0  0  0
  191.7400  176.2770  137.5970 C   0  0  1  0  0  3  0  0  0  0  0  0
  191.6950  172.8600  135.7700 C   0  0  0  0  0  1  0  0  0  0  0  0
  194.0400  175.7250  136.7330 C   0  0  0  0  0  2  0  0  0  0  0  0
  188.2470  178.7080  140.1970 C   0  0  0  0  0  2  0  0  0  0  0  0
  186.9140  178.2120  139.6360 C   0  0  0  0  0  2  0  0  0  0  0  0
  186.6910  178.6880  138.3370 O   0  0  0  0  0  0  0  0  0  0  0  0
  185.4740  178.1290  137.9290 C   0  0  0  0  0  2  0  0  0  0  0  0
  184.4660  178.1380  139.0710 C   0  0  0  0  0  2  0  0  0  0  0  0
  182.2190  179.3390  139.0780 N   0  0  0  0  0  2  0  0  0  0  0  0
  183.6500  179.3930  139.0840 C   0  0  0  0  0  0  0  0  0  0  0  0
  184.2250  180.5100  139.0350 O   0  0  0  0  0  0  0  0  0  0  0  0
  181.4360  178.2490  139.5880 C   0  0  0  0  0  0  0  0  0  0  0  0
  180.3580  177.1170  141.4500 C   0  0  0  0  0  3  0  0  0  0  0  0
  181.0620  177.1870  138.7490 C   0  0  0  0  0  3  0  0  0  0  0  0
  180.3400  176.1040  139.2540 C   0  0  0  0  0  3  0  0  0  0  0  0
  181.0850  178.2050  140.9490 C   0  0  0  0  0  0  0  0  0  0  0  0
  179.9890  176.0680  140.6040 C   0  0  0  0  0  3  0  0  0  0  0  0
  181.3920  179.3520  141.8590 C   0  0  0  0  0  2  0  0  0  0  0  0
  182.5200  179.0020  142.7730 C   0  0  0  0  0  0  0  0  0  0  0  0
  184.6520  178.4050  144.4880 C   0  0  0  0  0  3  0  0  0  0  0  0
  184.8060  178.2610  143.1050 C   0  0  0  0  0  3  0  0  0  0  0  0
  183.4330  178.8450  145.0150 C   0  0  0  0  0  3  0  0  0  0  0  0
  183.7400  178.5570  142.2500 C   0  0  0  0  0  3  0  0  0  0  0  0
  182.3680  179.1460  144.1590 C   0  0  0  0  0  3  0  0  0  0  0  0
  1 23  1  0  0  0  0
  2  1  1  0  0  0  0
  3  2  2  0  0  0  0
  4  7  1  0  0  0  0
  5 13  1  1  0  0  0
  5  9  1  0  0  0  0
  6  4  2  0  0  0  0
  8 10  1  1  0  0  0
  8  5  1  0  0  0  0
  9  4  1  0  0  0  0
 10  6  1  0  0  0  0
 11  1  1  6  0  0  0
 11 12  1  0  0  0  0
 11  8  1  0  0  0  0
 12 13  1  0  0  0  0
 14  2  1  0  0  0  0
 15 21  1  6  0  0  0
 16 15  1  0  0  0  0
 16 22  1  0  0  0  0
 16 17  1  1  0  0  0
 19 15  1  0  0  0  0
 19 20  1  0  0  0  0
 20 18  1  0  0  0  0
 20 14  1  1  0  0  0
 22 18  1  0  0  0  0
 24 23  1  0  0  0  0
 25 24  1  0  0  0  0
 26 25  1  0  0  0  0
 26 27  1  0  0  0  0
 27 29  1  0  0  0  0
 28 29  1  0  0  0  0
 28 31  1  0  0  0  0
 30 29  2  0  0  0  0
 31 35  1  0  0  0  0
 33 34  1  0  0  0  0
 33 31  2  0  0  0  0
 34 36  2  0  0  0  0
 35 32  2  0  0  0  0
 35 37  1  0  0  0  0
 36 32  1  0  0  0  0
 37 38  1  0  0  0  0
 38 43  1  0  0  0  0
 39 41  1  0  0  0  0
 40 39  2  0  0  0  0
 42 38  2  0  0  0  0
 42 40  1  0  0  0  0
 43 41  2  0  0  0  0
M  END
>  <MODEL>
9

>  <REMARK>
 VINA RESULT:      -7.6      2.571      5.904
  Name = 
  12 active torsions:
  status: ('A' for Active; 'I' for Inactive)
    1  A    between atoms: C_1  and  C_34
    2  A    between atoms: C_1  and  C_35
    3  A    between atoms: O_2  and  C_7
    4  A    between atoms: O_2  and  C_13
    5  A    between atoms: N_3  and  C_4
    6  A    between atoms: C_6  and  C_7
    7  A    between atoms: C_6  and  C_12
    8  A    between atoms: N_8  and  C_27
    9  A    between atoms: N_8  and  C_30
   10  A    between atoms: C_11  and  C_14
   11  A    between atoms: C_13  and  C_27
   12  A    between atoms: C_14  and  C_41
                            x       y       z     vdW  Elec       q    Type
                         _______ _______ _______ _____ _____    ______ ____

>  <TORSDO>
F 12

$$$$
