=
 OpenBabel11052413293D

 28 31  0  0  1  0  0  0  0  0999 V2000
  190.7070  176.7340  142.7330 C   0  0  2  0  0  0  0  0  0  0  0  0
  189.4920  177.7260  144.5140 C   0  0  1  0  0  3  0  0  0  0  0  0
  190.2620  175.3600  143.1670 C   0  0  0  0  0  2  0  0  0  0  0  0
  191.5880  178.9050  143.5700 C   0  0  0  0  0  2  0  0  0  0  0  0
  190.5600  178.8250  144.7320 C   0  0  0  0  0  2  0  0  0  0  0  0
  191.9890  177.5160  143.0150 C   0  0  0  0  0  2  0  0  0  0  0  0
  190.2730  176.4570  144.2020 C   0  0  1  0  0  3  0  0  0  0  0  0
  189.7020  177.4110  141.7490 C   0  0  2  0  0  3  0  0  0  0  0  0
  188.4480  176.7850  141.7250 O   0  0  0  0  0  1  0  0  0  0  0  0
  190.2580  177.5290  140.3320 C   0  0  0  0  0  2  0  0  0  0  0  0
  189.8720  176.5570  138.0690 C   0  0  0  0  0  1  0  0  0  0  0  0
  189.2090  177.2030  139.2720 C   0  0  2  0  0  3  0  0  0  0  0  0
  188.4450  178.4160  138.8450 C   0  0  0  0  0  0  0  0  0  0  0  0
  187.1000  178.5220  139.1730 O   0  0  0  0  0  1  0  0  0  0  0  0
  188.9910  179.3250  138.1630 O   0  0  0  0  0  0  0  0  0  0  0  0
  189.2110  176.9230  146.8960 C   0  0  0  0  0  1  0  0  0  0  0  0
  188.6530  177.5560  145.7030 N   0  0  0  0  0  0  0  0  0  0  0  0
  184.5030  178.2270  142.0110 C   0  0  0  0  0  1  0  0  0  0  0  0
  184.5800  178.7020  145.6400 C   0  0  0  0  0  0  0  0  0  0  0  0
  186.5650  178.0040  144.4470 C   0  0  0  0  0  3  0  0  0  0  0  0
  183.1370  178.9110  144.0920 C   0  0  0  0  0  0  0  0  0  0  0  0
  185.2250  178.3850  144.4720 C   0  0  0  0  0  0  0  0  0  0  0  0
  186.5860  178.2760  146.8760 C   0  0  0  0  0  3  0  0  0  0  0  0
  183.2900  179.0320  145.4320 N   0  0  0  0  0  0  0  0  0  0  0  0
  185.2340  178.6570  146.8680 C   0  0  0  0  0  3  0  0  0  0  0  0
  181.9020  179.1530  143.4280 N   0  0  0  0  0  1  0  0  0  0  0  0
  184.3060  178.5100  143.4620 C   0  0  0  0  0  0  0  0  0  0  0  0
  187.2660  177.9480  145.6730 C   0  0  1  0  0  3  0  0  0  0  0  0
  1  8  1  6  0  0  0
  1  6  1  0  0  0  0
  1  3  1  0  0  0  0
  1  7  1  0  0  0  0
  2  5  1  0  0  0  0
  2 17  1  1  0  0  0
  4  5  1  0  0  0  0
  6  4  1  0  0  0  0
  7  3  1  6  0  0  0
  7  2  1  0  0  0  0
  8  9  1  6  0  0  0
 10  8  1  0  0  0  0
 12 11  1  6  0  0  0
 12 10  1  0  0  0  0
 13 14  1  0  0  0  0
 13 12  1  0  0  0  0
 15 13  2  0  0  0  0
 17 16  1  0  0  0  0
 18 27  1  0  0  0  0
 19 25  1  0  0  0  0
 20 22  2  0  0  0  0
 20 28  1  0  0  0  0
 21 24  1  0  0  0  0
 22 19  1  0  0  0  0
 24 19  2  0  0  0  0
 25 23  2  0  0  0  0
 26 21  1  0  0  0  0
 27 21  2  0  0  0  0
 27 22  1  0  0  0  0
 28 17  1  1  0  0  0
 28 23  1  0  0  0  0
M  END
>  <MODEL>
1

>  <REMARK>
 VINA RESULT:      -9.5      0.000      0.000
  Name = 
  6 active torsions:
  status: ('A' for Active; 'I' for Inactive)
    1  A    between atoms: C_1  and  C_2
    2  A    between atoms: C_2  and  C_3
    3  A    between atoms: C_3  and  C_11
    4  A    between atoms: C_6  and  C_11
    5  A    between atoms: C_16  and  N_20
    6  A    between atoms: N_20  and  C_25
                            x       y       z     vdW  Elec       q    Type
                         _______ _______ _______ _____ _____    ______ ____

>  <TORSDO>
F 6

$$$$
=
 OpenBabel11052413293D

 28 31  0  0  1  0  0  0  0  0999 V2000
  189.2290  176.6770  143.6540 C   0  0  2  0  0  0  0  0  0  0  0  0
  188.9110  177.7440  141.5580 C   0  0  1  0  0  3  0  0  0  0  0  0
  190.1000  175.6270  143.0100 C   0  0  0  0  0  2  0  0  0  0  0  0
  187.1030  177.9420  143.3920 C   0  0  0  0  0  2  0  0  0  0  0  0
  187.4490  178.1290  141.8900 C   0  0  0  0  0  2  0  0  0  0  0  0
  187.7440  176.6750  144.0110 C   0  0  0  0  0  2  0  0  0  0  0  0
  189.1060  176.3490  142.1360 C   0  0  1  0  0  3  0  0  0  0  0  0
  190.0350  177.9350  144.1050 C   0  0  2  0  0  3  0  0  0  0  0  0
  191.3830  177.8920  143.7240 O   0  0  0  0  0  1  0  0  0  0  0  0
  189.9200  178.1980  145.6050 C   0  0  0  0  0  2  0  0  0  0  0  0
  189.0640  177.0320  147.6350 C   0  0  0  0  0  1  0  0  0  0  0  0
  189.9680  176.9100  146.4220 C   0  0  2  0  0  3  0  0  0  0  0  0
  191.3580  176.5680  146.8530 C   0  0  0  0  0  0  0  0  0  0  0  0
  191.8570  177.1080  148.0300 O   0  0  0  0  0  1  0  0  0  0  0  0
  192.0970  175.8280  146.1490 O   0  0  0  0  0  0  0  0  0  0  0  0
  188.0600  178.1020  139.2030 C   0  0  0  0  0  1  0  0  0  0  0  0
  189.1510  177.7590  140.1130 N   0  0  0  0  0  0  0  0  0  0  0  0
  191.3620  175.5680  135.4640 C   0  0  0  0  0  1  0  0  0  0  0  0
  192.9370  176.6390  138.5900 C   0  0  0  0  0  0  0  0  0  0  0  0
  190.5420  176.8050  138.2980 C   0  0  0  0  0  3  0  0  0  0  0  0
  193.5880  175.7900  136.7520 C   0  0  0  0  0  0  0  0  0  0  0  0
  191.8080  176.4520  137.8350 C   0  0  0  0  0  0  0  0  0  0  0  0
  191.6140  177.5630  140.3590 C   0  0  0  0  0  3  0  0  0  0  0  0
  194.0500  176.2370  137.9440 N   0  0  0  0  0  0  0  0  0  0  0  0
  192.8770  177.1970  139.8640 C   0  0  0  0  0  3  0  0  0  0  0  0
  194.4400  175.2800  135.7340 N   0  0  0  0  0  1  0  0  0  0  0  0
  192.2110  175.9080  136.6430 C   0  0  0  0  0  0  0  0  0  0  0  0
  190.4380  177.3720  139.5880 C   0  0  1  0  0  3  0  0  0  0  0  0
  1  6  1  0  0  0  0
  1  8  1  1  0  0  0
  2 17  1  6  0  0  0
  2  5  1  0  0  0  0
  2  7  1  0  0  0  0
  3  1  1  0  0  0  0
  4  6  1  0  0  0  0
  5  4  1  0  0  0  0
  7  3  1  6  0  0  0
  7  1  1  0  0  0  0
  8  9  1  1  0  0  0
  8 10  1  0  0  0  0
 10 12  1  0  0  0  0
 12 13  1  0  0  0  0
 12 11  1  1  0  0  0
 13 14  1  0  0  0  0
 15 13  2  0  0  0  0
 16 17  1  0  0  0  0
 18 27  1  0  0  0  0
 19 25  1  0  0  0  0
 20 28  1  0  0  0  0
 21 24  1  0  0  0  0
 22 20  2  0  0  0  0
 22 19  1  0  0  0  0
 24 19  2  0  0  0  0
 25 23  2  0  0  0  0
 26 21  1  0  0  0  0
 27 21  2  0  0  0  0
 27 22  1  0  0  0  0
 28 17  1  6  0  0  0
 28 23  1  0  0  0  0
M  END
>  <MODEL>
2

>  <REMARK>
 VINA RESULT:      -8.2      3.966      8.279
  Name = 
  6 active torsions:
  status: ('A' for Active; 'I' for Inactive)
    1  A    between atoms: C_1  and  C_2
    2  A    between atoms: C_2  and  C_3
    3  A    between atoms: C_3  and  C_11
    4  A    between atoms: C_6  and  C_11
    5  A    between atoms: C_16  and  N_20
    6  A    between atoms: N_20  and  C_25
                            x       y       z     vdW  Elec       q    Type
                         _______ _______ _______ _____ _____    ______ ____

>  <TORSDO>
F 6

$$$$
=
 OpenBabel11052413293D

 28 31  0  0  1  0  0  0  0  0999 V2000
  184.2740  178.5340  138.4170 C   0  0  2  0  0  0  0  0  0  0  0  0
  183.4840  177.9650  140.5810 C   0  0  1  0  0  3  0  0  0  0  0  0
  184.1600  180.0030  138.7380 C   0  0  0  0  0  2  0  0  0  0  0  0
  183.0940  176.3510  138.6020 C   0  0  0  0  0  2  0  0  0  0  0  0
  182.7080  176.7330  140.0580 C   0  0  0  0  0  2  0  0  0  0  0  0
  183.3240  177.5830  137.6910 C   0  0  0  0  0  2  0  0  0  0  0  0
  183.3000  179.0420  139.5200 C   0  0  1  0  0  3  0  0  0  0  0  0
  185.6540  177.9320  138.8280 C   0  0  2  0  0  3  0  0  0  0  0  0
  186.4630  178.8370  139.5300 O   0  0  0  0  0  1  0  0  0  0  0  0
  186.4210  177.3560  137.6390 C   0  0  0  0  0  2  0  0  0  0  0  0
  186.7670  178.1390  135.2980 C   0  0  0  0  0  1  0  0  0  0  0  0
  187.0290  178.4460  136.7610 C   0  0  2  0  0  3  0  0  0  0  0  0
  188.4980  178.6030  136.9960 C   0  0  0  0  0  0  0  0  0  0  0  0
  189.3430  177.5290  136.7510 O   0  0  0  0  0  0  0  0  0  0  0  0
  188.9760  179.6790  137.4460 O   0  0  0  0  0  1  0  0  0  0  0  0
  181.5990  178.9030  141.9840 C   0  0  0  0  0  1  0  0  0  0  0  0
  182.9700  178.4060  141.8800 N   0  0  0  0  0  0  0  0  0  0  0  0
  188.2110  177.0440  143.2830 C   0  0  0  0  0  1  0  0  0  0  0  0
  185.4840  178.4450  145.2840 C   0  0  0  0  0  0  0  0  0  0  0  0
  185.1560  177.9300  142.9430 C   0  0  0  0  0  3  0  0  0  0  0  0
  187.4990  177.8590  145.6270 C   0  0  0  0  0  0  0  0  0  0  0  0
  185.9500  177.9620  144.0870 C   0  0  0  0  0  0  0  0  0  0  0  0
  183.3610  178.9130  144.2790 C   0  0  0  0  0  3  0  0  0  0  0  0
  186.4210  178.3900  146.2510 N   0  0  0  0  0  2  0  0  0  0  0  0
  184.1870  178.9320  145.4160 C   0  0  0  0  0  3  0  0  0  0  0  0
  188.7420  177.6360  146.2830 N   0  0  0  0  0  1  0  0  0  0  0  0
  187.2520  177.5840  144.2900 C   0  0  0  0  0  0  0  0  0  0  0  0
  183.8320  178.4130  143.0360 C   0  0  0  0  0  0  0  0  0  0  0  0
  1  3  1  0  0  0  0
  1  8  1  1  0  0  0
  1  7  1  0  0  0  0
  2 17  1  1  0  0  0
  4  5  1  0  0  0  0
  5  2  1  0  0  0  0
  6  1  1  0  0  0  0
  6  4  1  0  0  0  0
  7  3  1  1  0  0  0
  7  2  1  0  0  0  0
  8  9  1  6  0  0  0
 10  8  1  0  0  0  0
 12 11  1  6  0  0  0
 12 13  1  0  0  0  0
 12 10  1  0  0  0  0
 13 15  1  0  0  0  0
 14 13  2  0  0  0  0
 17 16  1  0  0  0  0
 17 28  1  0  0  0  0
 18 27  1  0  0  0  0
 19 25  1  0  0  0  0
 19 24  1  0  0  0  0
 20 28  2  0  0  0  0
 20 22  1  0  0  0  0
 21 24  1  0  0  0  0
 21 26  1  0  0  0  0
 22 27  1  0  0  0  0
 22 19  2  0  0  0  0
 23 25  2  0  0  0  0
 27 21  2  0  0  0  0
 28 23  1  0  0  0  0
M  END
>  <MODEL>
3

>  <REMARK>
 VINA RESULT:      -7.8      2.367      5.889
  Name = 
  6 active torsions:
  status: ('A' for Active; 'I' for Inactive)
    1  A    between atoms: C_1  and  C_2
    2  A    between atoms: C_2  and  C_3
    3  A    between atoms: C_3  and  C_11
    4  A    between atoms: C_6  and  C_11
    5  A    between atoms: C_16  and  N_20
    6  A    between atoms: N_20  and  C_25
                            x       y       z     vdW  Elec       q    Type
                         _______ _______ _______ _____ _____    ______ ____

>  <TORSDO>
F 6

$$$$
=
 OpenBabel11052413293D

 28 31  0  0  1  0  0  0  0  0999 V2000
  187.9080  177.0410  144.3210 C   0  0  2  0  0  0  0  0  0  0  0  0
  187.0130  178.3590  142.5610 C   0  0  1  0  0  3  0  0  0  0  0  0
  188.3820  176.0050  143.3320 C   0  0  0  0  0  2  0  0  0  0  0  0
  185.9780  178.4910  144.9240 C   0  0  0  0  0  2  0  0  0  0  0  0
  185.8070  178.8180  143.4160 C   0  0  0  0  0  2  0  0  0  0  0  0
  186.6460  177.1160  145.1770 C   0  0  0  0  0  2  0  0  0  0  0  0
  187.2360  176.8970  142.9230 C   0  0  1  0  0  3  0  0  0  0  0  0
  188.9560  178.1740  144.5550 C   0  0  2  0  0  3  0  0  0  0  0  0
  190.0850  178.0600  143.7310 O   0  0  0  0  0  1  0  0  0  0  0  0
  189.3830  178.2840  146.0180 C   0  0  0  0  0  2  0  0  0  0  0  0
  188.9790  176.7540  147.9430 C   0  0  0  0  0  1  0  0  0  0  0  0
  189.7150  176.9250  146.6270 C   0  0  2  0  0  3  0  0  0  0  0  0
  191.1850  176.7460  146.8350 C   0  0  0  0  0  0  0  0  0  0  0  0
  191.7520  177.1300  148.0420 O   0  0  0  0  0  1  0  0  0  0  0  0
  191.9220  176.2870  145.9210 O   0  0  0  0  0  0  0  0  0  0  0  0
  185.4370  179.0020  140.6910 C   0  0  0  0  0  1  0  0  0  0  0  0
  186.7430  178.5160  141.1300 N   0  0  0  0  0  0  0  0  0  0  0  0
  192.2320  177.4720  140.8460 C   0  0  0  0  0  1  0  0  0  0  0  0
  189.6400  177.3770  138.2630 C   0  0  0  0  0  0  0  0  0  0  0  0
  189.0910  177.9950  140.5370 C   0  0  0  0  0  3  0  0  0  0  0  0
  191.7370  177.0330  138.3510 C   0  0  0  0  0  0  0  0  0  0  0  0
  190.0120  177.6170  139.5610 C   0  0  0  0  0  0  0  0  0  0  0  0
  187.3640  177.8780  138.8120 C   0  0  0  0  0  3  0  0  0  0  0  0
  190.6870  177.0160  137.4960 N   0  0  0  0  0  0  0  0  0  0  0  0
  188.3160  177.4980  137.8510 C   0  0  0  0  0  3  0  0  0  0  0  0
  193.0610  176.6930  137.9590 N   0  0  0  0  0  1  0  0  0  0  0  0
  191.3630  177.3940  139.6370 C   0  0  0  0  0  0  0  0  0  0  0  0
  187.7370  178.1310  140.1580 C   0  0  1  0  0  3  0  0  0  0  0  0
  1  8  1  1  0  0  0
  1  6  1  0  0  0  0
  2 17  1  6  0  0  0
  2  7  1  0  0  0  0
  2  5  1  0  0  0  0
  3  1  1  0  0  0  0
  4  6  1  0  0  0  0
  5  4  1  0  0  0  0
  7  3  1  6  0  0  0
  7  1  1  0  0  0  0
  8  9  1  6  0  0  0
  8 10  1  0  0  0  0
 10 12  1  0  0  0  0
 12 13  1  0  0  0  0
 12 11  1  1  0  0  0
 13 14  1  0  0  0  0
 15 13  2  0  0  0  0
 16 17  1  0  0  0  0
 19 22  1  0  0  0  0
 21 27  2  0  0  0  0
 22 27  1  0  0  0  0
 22 20  2  0  0  0  0
 23 28  1  0  0  0  0
 24 19  2  0  0  0  0
 24 21  1  0  0  0  0
 25 19  1  0  0  0  0
 25 23  2  0  0  0  0
 26 21  1  0  0  0  0
 27 18  1  0  0  0  0
 28 20  1  0  0  0  0
 28 17  1  1  0  0  0
M  END
>  <MODEL>
4

>  <REMARK>
 VINA RESULT:      -7.8      3.354      7.386
  Name = 
  6 active torsions:
  status: ('A' for Active; 'I' for Inactive)
    1  A    between atoms: C_1  and  C_2
    2  A    between atoms: C_2  and  C_3
    3  A    between atoms: C_3  and  C_11
    4  A    between atoms: C_6  and  C_11
    5  A    between atoms: C_16  and  N_20
    6  A    between atoms: N_20  and  C_25
                            x       y       z     vdW  Elec       q    Type
                         _______ _______ _______ _____ _____    ______ ____

>  <TORSDO>
F 6

$$$$
=
 OpenBabel11052413293D

 28 31  0  0  1  0  0  0  0  0999 V2000
  187.9980  177.0930  144.8470 C   0  0  2  0  0  0  0  0  0  0  0  0
  186.1040  178.5130  144.6800 C   0  0  1  0  0  3  0  0  0  0  0  0
  187.4920  176.2470  143.7060 C   0  0  0  0  0  2  0  0  0  0  0  0
  187.3090  178.2350  146.9470 C   0  0  0  0  0  2  0  0  0  0  0  0
  186.0330  178.7260  146.2110 C   0  0  0  0  0  2  0  0  0  0  0  0
  187.8830  176.9220  146.3600 C   0  0  0  0  0  2  0  0  0  0  0  0
  186.4840  177.0510  144.4890 C   0  0  1  0  0  3  0  0  0  0  0  0
  188.8680  178.2970  144.3640 C   0  0  2  0  0  3  0  0  0  0  0  0
  188.9320  178.4060  142.9680 O   0  0  0  0  0  1  0  0  0  0  0  0
  190.2760  178.2770  144.9550 C   0  0  0  0  0  2  0  0  0  0  0  0
  191.5880  176.7830  146.4570 C   0  0  0  0  0  1  0  0  0  0  0  0
  190.7940  176.8570  145.1670 C   0  0  2  0  0  3  0  0  0  0  0  0
  191.6330  176.3880  144.0210 C   0  0  0  0  0  0  0  0  0  0  0  0
  191.9890  177.2880  143.0260 O   0  0  0  0  0  0  0  0  0  0  0  0
  191.9920  175.1830  143.9250 O   0  0  0  0  0  1  0  0  0  0  0  0
  183.6590  179.1340  144.8660 C   0  0  0  0  0  1  0  0  0  0  0  0
  184.8210  178.8160  144.0390 N   0  0  0  0  0  0  0  0  0  0  0  0
  180.9210  177.7200  140.1810 C   0  0  0  0  0  1  0  0  0  0  0  0
  184.4580  178.5950  139.8290 C   0  0  0  0  0  0  0  0  0  0  0  0
  183.4530  178.3840  142.0190 C   0  0  0  0  0  3  0  0  0  0  0  0
  182.8480  178.1400  138.5160 C   0  0  0  0  0  0  0  0  0  0  0  0
  183.3780  178.3240  140.6300 C   0  0  0  0  0  0  0  0  0  0  0  0
  185.8010  179.0170  141.7660 C   0  0  0  0  0  3  0  0  0  0  0  0
  184.1570  178.4870  138.5200 N   0  0  0  0  0  0  0  0  0  0  0  0
  185.6920  178.9480  140.3670 C   0  0  0  0  0  3  0  0  0  0  0  0
  182.1050  177.9340  137.3210 N   0  0  0  0  0  1  0  0  0  0  0  0
  182.3280  178.0330  139.7970 C   0  0  0  0  0  0  0  0  0  0  0  0
  184.6900  178.7360  142.6050 C   0  0  1  0  0  3  0  0  0  0  0  0
  1  8  1  6  0  0  0
  1  6  1  0  0  0  0
  2 17  1  6  0  0  0
  2  5  1  0  0  0  0
  3  1  1  0  0  0  0
  5  4  1  0  0  0  0
  6  4  1  0  0  0  0
  7  3  1  6  0  0  0
  7  2  1  0  0  0  0
  7  1  1  0  0  0  0
  8  9  1  6  0  0  0
  8 10  1  0  0  0  0
 10 12  1  0  0  0  0
 12 11  1  1  0  0  0
 13 12  1  0  0  0  0
 14 13  2  0  0  0  0
 15 13  1  0  0  0  0
 17 16  1  0  0  0  0
 19 25  1  0  0  0  0
 19 22  1  0  0  0  0
 20 28  1  0  0  0  0
 21 24  1  0  0  0  0
 21 27  2  0  0  0  0
 22 20  2  0  0  0  0
 23 28  1  0  0  0  0
 24 19  2  0  0  0  0
 25 23  2  0  0  0  0
 26 21  1  0  0  0  0
 27 18  1  0  0  0  0
 27 22  1  0  0  0  0
 28 17  1  6  0  0  0
M  END
>  <MODEL>
5

>  <REMARK>
 VINA RESULT:      -7.7      2.619      5.283
  Name = 
  6 active torsions:
  status: ('A' for Active; 'I' for Inactive)
    1  A    between atoms: C_1  and  C_2
    2  A    between atoms: C_2  and  C_3
    3  A    between atoms: C_3  and  C_11
    4  A    between atoms: C_6  and  C_11
    5  A    between atoms: C_16  and  N_20
    6  A    between atoms: N_20  and  C_25
                            x       y       z     vdW  Elec       q    Type
                         _______ _______ _______ _____ _____    ______ ____

>  <TORSDO>
F 6

$$$$
=
 OpenBabel11052413293D

 28 31  0  0  1  0  0  0  0  0999 V2000
  190.6530  177.9940  144.6920 C   0  0  2  0  0  0  0  0  0  0  0  0
  190.4570  177.0450  142.5260 C   0  0  1  0  0  3  0  0  0  0  0  0
  190.8120  179.3700  144.0980 C   0  0  0  0  0  2  0  0  0  0  0  0
  191.3880  175.6270  144.4740 C   0  0  0  0  0  2  0  0  0  0  0  0
  191.2170  175.7610  142.9360 C   0  0  0  0  0  2  0  0  0  0  0  0
  191.6850  176.9770  145.1730 C   0  0  0  0  0  2  0  0  0  0  0  0
  191.1720  178.1860  143.2370 C   0  0  1  0  0  3  0  0  0  0  0  0
  189.1590  177.6090  144.9300 C   0  0  2  0  0  3  0  0  0  0  0  0
  188.2600  178.5990  144.5080 O   0  0  0  0  0  1  0  0  0  0  0  0
  188.8750  177.2270  146.3820 C   0  0  0  0  0  2  0  0  0  0  0  0
  188.4240  178.2530  148.6070 C   0  0  0  0  0  1  0  0  0  0  0  0
  188.1060  178.3140  147.1250 C   0  0  2  0  0  3  0  0  0  0  0  0
  186.6290  178.2030  146.9140 C   0  0  0  0  0  0  0  0  0  0  0  0
  186.1250  177.1270  146.1950 O   0  0  0  0  0  0  0  0  0  0  0  0
  185.8390  179.0850  147.3450 O   0  0  0  0  0  1  0  0  0  0  0  0
  191.7360  177.1320  140.3450 C   0  0  0  0  0  1  0  0  0  0  0  0
  190.4720  177.2320  141.0720 N   0  0  0  0  0  0  0  0  0  0  0  0
  185.3510  179.2010  142.1650 C   0  0  0  0  0  1  0  0  0  0  0  0
  186.9280  178.2530  139.0000 C   0  0  0  0  0  0  0  0  0  0  0  0
  188.1320  178.0450  141.0870 C   0  0  0  0  0  3  0  0  0  0  0  0
  185.0300  178.9950  139.6120 C   0  0  0  0  0  0  0  0  0  0  0  0
  186.9860  178.3710  140.3650 C   0  0  0  0  0  0  0  0  0  0  0  0
  189.1880  177.4650  138.9600 C   0  0  0  0  0  3  0  0  0  0  0  0
  185.7300  178.6320  138.5110 N   0  0  0  0  0  0  0  0  0  0  0  0
  188.0170  177.8020  138.2610 C   0  0  0  0  0  3  0  0  0  0  0  0
  183.6960  179.4850  139.5550 N   0  0  0  0  0  1  0  0  0  0  0  0
  185.7700  178.8540  140.7760 C   0  0  0  0  0  0  0  0  0  0  0  0
  189.2600  177.5790  140.3740 C   0  0  1  0  0  3  0  0  0  0  0  0
  1  8  1  1  0  0  0
  1  6  1  0  0  0  0
  2 17  1  6  0  0  0
  2  5  1  0  0  0  0
  2  7  1  0  0  0  0
  3  1  1  0  0  0  0
  4  6  1  0  0  0  0
  5  4  1  0  0  0  0
  7  3  1  6  0  0  0
  7  1  1  0  0  0  0
  8  9  1  1  0  0  0
  8 10  1  0  0  0  0
 10 12  1  0  0  0  0
 12 11  1  1  0  0  0
 13 12  1  0  0  0  0
 13 15  1  0  0  0  0
 14 13  2  0  0  0  0
 16 17  1  0  0  0  0
 19 22  1  0  0  0  0
 21 27  2  0  0  0  0
 22 27  1  0  0  0  0
 22 20  2  0  0  0  0
 23 28  1  0  0  0  0
 24 19  2  0  0  0  0
 24 21  1  0  0  0  0
 25 23  2  0  0  0  0
 25 19  1  0  0  0  0
 26 21  1  0  0  0  0
 27 18  1  0  0  0  0
 28 17  1  6  0  0  0
 28 20  1  0  0  0  0
M  END
>  <MODEL>
6

>  <REMARK>
 VINA RESULT:      -7.7      2.729      5.878
  Name = 
  6 active torsions:
  status: ('A' for Active; 'I' for Inactive)
    1  A    between atoms: C_1  and  C_2
    2  A    between atoms: C_2  and  C_3
    3  A    between atoms: C_3  and  C_11
    4  A    between atoms: C_6  and  C_11
    5  A    between atoms: C_16  and  N_20
    6  A    between atoms: N_20  and  C_25
                            x       y       z     vdW  Elec       q    Type
                         _______ _______ _______ _____ _____    ______ ____

>  <TORSDO>
F 6

$$$$
=
 OpenBabel11052413293D

 28 31  0  0  1  0  0  0  0  0999 V2000
  187.9280  177.1450  144.8540 C   0  0  2  0  0  0  0  0  0  0  0  0
  186.0910  178.5980  144.4710 C   0  0  1  0  0  3  0  0  0  0  0  0
  187.4890  176.2570  143.7170 C   0  0  0  0  0  2  0  0  0  0  0  0
  187.1060  178.4020  146.8380 C   0  0  0  0  0  2  0  0  0  0  0  0
  185.9060  178.8870  145.9800 C   0  0  0  0  0  2  0  0  0  0  0  0
  187.6890  177.0490  146.3600 C   0  0  0  0  0  2  0  0  0  0  0  0
  186.4450  177.1200  144.3790 C   0  0  1  0  0  3  0  0  0  0  0  0
  188.8650  178.3030  144.3880 C   0  0  2  0  0  3  0  0  0  0  0  0
  189.0160  178.3630  142.9950 O   0  0  0  0  0  1  0  0  0  0  0  0
  190.2340  178.2580  145.0640 C   0  0  0  0  0  2  0  0  0  0  0  0
  191.5020  176.7090  146.5480 C   0  0  0  0  0  1  0  0  0  0  0  0
  190.7450  176.8310  145.2380 C   0  0  2  0  0  3  0  0  0  0  0  0
  191.6180  176.4040  144.1010 C   0  0  0  0  0  0  0  0  0  0  0  0
  192.0690  175.0920  144.0470 O   0  0  0  0  0  1  0  0  0  0  0  0
  191.9790  177.2210  143.2120 O   0  0  0  0  0  0  0  0  0  0  0  0
  183.6630  179.3050  144.4300 C   0  0  0  0  0  1  0  0  0  0  0  0
  184.8720  178.9010  143.7160 N   0  0  0  0  0  0  0  0  0  0  0  0
  188.4330  178.3810  139.4320 C   0  0  0  0  0  1  0  0  0  0  0  0
  184.7730  178.4090  139.5140 C   0  0  0  0  0  0  0  0  0  0  0  0
  186.0530  178.6680  141.5510 C   0  0  0  0  0  3  0  0  0  0  0  0
  186.2770  178.2380  138.0200 C   0  0  0  0  0  0  0  0  0  0  0  0
  185.9740  178.5050  140.1690 C   0  0  0  0  0  0  0  0  0  0  0  0
  183.6090  178.6330  141.5950 C   0  0  0  0  0  3  0  0  0  0  0  0
  184.9330  178.2450  138.1860 N   0  0  0  0  0  0  0  0  0  0  0  0
  183.5640  178.4680  140.2000 C   0  0  0  0  0  3  0  0  0  0  0  0
  186.8990  178.0690  136.7520 N   0  0  0  0  0  1  0  0  0  0  0  0
  186.9560  178.3910  139.2190 C   0  0  0  0  0  0  0  0  0  0  0  0
  184.8470  178.7360  142.2840 C   0  0  1  0  0  3  0  0  0  0  0  0
  1  8  1  6  0  0  0
  1  6  1  0  0  0  0
  2 17  1  6  0  0  0
  2  5  1  0  0  0  0
  3  1  1  0  0  0  0
  5  4  1  0  0  0  0
  6  4  1  0  0  0  0
  7  3  1  6  0  0  0
  7  2  1  0  0  0  0
  7  1  1  0  0  0  0
  8  9  1  6  0  0  0
  8 10  1  0  0  0  0
 10 12  1  0  0  0  0
 12 11  1  1  0  0  0
 13 12  1  0  0  0  0
 14 13  1  0  0  0  0
 15 13  2  0  0  0  0
 17 16  1  0  0  0  0
 19 22  1  0  0  0  0
 19 25  1  0  0  0  0
 20 28  1  0  0  0  0
 21 24  1  0  0  0  0
 21 27  2  0  0  0  0
 22 20  2  0  0  0  0
 23 28  1  0  0  0  0
 24 19  2  0  0  0  0
 25 23  2  0  0  0  0
 26 21  1  0  0  0  0
 27 18  1  0  0  0  0
 27 22  1  0  0  0  0
 28 17  1  1  0  0  0
M  END
>  <MODEL>
7

>  <REMARK>
 VINA RESULT:      -7.6      2.700      5.585
  Name = 
  6 active torsions:
  status: ('A' for Active; 'I' for Inactive)
    1  A    between atoms: C_1  and  C_2
    2  A    between atoms: C_2  and  C_3
    3  A    between atoms: C_3  and  C_11
    4  A    between atoms: C_6  and  C_11
    5  A    between atoms: C_16  and  N_20
    6  A    between atoms: N_20  and  C_25
                            x       y       z     vdW  Elec       q    Type
                         _______ _______ _______ _____ _____    ______ ____

>  <TORSDO>
F 6

$$$$
=
 OpenBabel11052413293D

 28 31  0  0  1  0  0  0  0  0999 V2000
  190.6090  177.9620  144.8630 C   0  0  2  0  0  0  0  0  0  0  0  0
  190.8540  177.1150  142.6590 C   0  0  1  0  0  3  0  0  0  0  0  0
  190.6960  179.3770  144.3510 C   0  0  0  0  0  2  0  0  0  0  0  0
  191.6370  175.7040  144.6750 C   0  0  0  0  0  2  0  0  0  0  0  0
  191.6870  175.9010  143.1360 C   0  0  0  0  0  2  0  0  0  0  0  0
  191.6680  177.0380  145.4620 C   0  0  0  0  0  2  0  0  0  0  0  0
  191.3160  178.2870  143.5150 C   0  0  1  0  0  3  0  0  0  0  0  0
  189.1510  177.4050  144.8500 C   0  0  2  0  0  3  0  0  0  0  0  0
  188.2420  178.2540  144.2040 O   0  0  0  0  0  1  0  0  0  0  0  0
  188.6430  177.0580  146.2490 C   0  0  0  0  0  2  0  0  0  0  0  0
  188.6440  178.2520  148.4360 C   0  0  0  0  0  1  0  0  0  0  0  0
  188.1460  178.2880  147.0030 C   0  0  2  0  0  3  0  0  0  0  0  0
  186.6550  178.3960  146.9820 C   0  0  0  0  0  0  0  0  0  0  0  0
  185.9200  177.5020  146.2160 O   0  0  0  0  0  0  0  0  0  0  0  0
  186.0570  179.3070  147.6170 O   0  0  0  0  0  1  0  0  0  0  0  0
  192.4290  177.4770  140.7130 C   0  0  0  0  0  1  0  0  0  0  0  0
  191.0670  177.3810  141.2340 N   0  0  0  0  0  0  0  0  0  0  0  0
  189.7600  177.0900  135.8020 C   0  0  0  0  0  1  0  0  0  0  0  0
  187.7460  178.0590  138.7010 C   0  0  0  0  0  0  0  0  0  0  0  0
  190.0650  177.4250  138.9690 C   0  0  0  0  0  3  0  0  0  0  0  0
  187.4430  177.8980  136.6020 C   0  0  0  0  0  0  0  0  0  0  0  0
  188.9460  177.6590  138.1720 C   0  0  0  0  0  0  0  0  0  0  0  0
  188.6930  178.0260  140.9000 C   0  0  0  0  0  3  0  0  0  0  0  0
  186.8020  178.2160  137.7520 N   0  0  0  0  0  0  0  0  0  0  0  0
  187.5820  178.2530  140.0700 C   0  0  0  0  0  3  0  0  0  0  0  0
  186.8050  177.9120  135.3310 N   0  0  0  0  0  1  0  0  0  0  0  0
  188.7670  177.5450  136.8170 C   0  0  0  0  0  0  0  0  0  0  0  0
  189.9410  177.6130  140.3640 C   0  0  1  0  0  3  0  0  0  0  0  0
  1  8  1  6  0  0  0
  1  6  1  0  0  0  0
  2 17  1  6  0  0  0
  2  5  1  0  0  0  0
  2  7  1  0  0  0  0
  3  1  1  0  0  0  0
  4  6  1  0  0  0  0
  5  4  1  0  0  0  0
  7  3  1  6  0  0  0
  7  1  1  0  0  0  0
  8  9  1  1  0  0  0
  8 10  1  0  0  0  0
 10 12  1  0  0  0  0
 12 11  1  1  0  0  0
 13 12  1  0  0  0  0
 13 15  1  0  0  0  0
 14 13  2  0  0  0  0
 16 17  1  0  0  0  0
 18 27  1  0  0  0  0
 19 25  1  0  0  0  0
 20 28  1  0  0  0  0
 21 27  2  0  0  0  0
 21 24  1  0  0  0  0
 22 19  1  0  0  0  0
 22 20  2  0  0  0  0
 24 19  2  0  0  0  0
 25 23  2  0  0  0  0
 26 21  1  0  0  0  0
 27 22  1  0  0  0  0
 28 23  1  0  0  0  0
 28 17  1  1  0  0  0
M  END
>  <MODEL>
8

>  <REMARK>
 VINA RESULT:      -7.6      3.378      6.662
  Name = 
  6 active torsions:
  status: ('A' for Active; 'I' for Inactive)
    1  A    between atoms: C_1  and  C_2
    2  A    between atoms: C_2  and  C_3
    3  A    between atoms: C_3  and  C_11
    4  A    between atoms: C_6  and  C_11
    5  A    between atoms: C_16  and  N_20
    6  A    between atoms: N_20  and  C_25
                            x       y       z     vdW  Elec       q    Type
                         _______ _______ _______ _____ _____    ______ ____

>  <TORSDO>
F 6

$$$$
=
 OpenBabel11052413293D

 28 31  0  0  1  0  0  0  0  0999 V2000
  188.0860  176.9460  144.2930 C   0  0  2  0  0  0  0  0  0  0  0  0
  187.0160  178.3160  142.6780 C   0  0  1  0  0  3  0  0  0  0  0  0
  188.5510  176.0010  143.2140 C   0  0  0  0  0  2  0  0  0  0  0  0
  186.1240  178.2450  145.1010 C   0  0  0  0  0  2  0  0  0  0  0  0
  185.8430  178.6530  143.6300 C   0  0  0  0  0  2  0  0  0  0  0  0
  186.8780  176.8980  145.2260 C   0  0  0  0  0  2  0  0  0  0  0  0
  187.3370  176.8500  142.9320 C   0  0  1  0  0  3  0  0  0  0  0  0
  189.0860  178.1190  144.5390 C   0  0  2  0  0  3  0  0  0  0  0  0
  190.2330  178.0430  143.7360 O   0  0  0  0  0  1  0  0  0  0  0  0
  189.4820  178.2560  146.0080 C   0  0  0  0  0  2  0  0  0  0  0  0
  189.0410  176.7570  147.9490 C   0  0  0  0  0  1  0  0  0  0  0  0
  189.8040  176.9080  146.6460 C   0  0  2  0  0  3  0  0  0  0  0  0
  191.2700  176.7370  146.8890 C   0  0  0  0  0  0  0  0  0  0  0  0
  192.0460  176.0940  145.9340 O   0  0  0  0  0  0  0  0  0  0  0  0
  191.8050  177.1330  147.9590 O   0  0  0  0  0  1  0  0  0  0  0  0
  185.3010  179.0060  140.9510 C   0  0  0  0  0  1  0  0  0  0  0  0
  186.6490  178.5450  141.2780 N   0  0  0  0  0  0  0  0  0  0  0  0
  186.7120  177.6630  135.7540 C   0  0  0  0  0  1  0  0  0  0  0  0
  189.4320  177.7010  138.2040 C   0  0  0  0  0  0  0  0  0  0  0  0
  187.1450  178.0770  138.8960 C   0  0  0  0  0  3  0  0  0  0  0  0
  189.2540  177.3810  136.1090 C   0  0  0  0  0  0  0  0  0  0  0  0
  188.0950  177.8020  137.9150 C   0  0  0  0  0  0  0  0  0  0  0  0
  188.9780  178.1500  140.5120 C   0  0  0  0  0  3  0  0  0  0  0  0
  190.1680  177.4400  137.1060 N   0  0  0  0  0  0  0  0  0  0  0  0
  189.9120  177.8720  139.5000 C   0  0  0  0  0  3  0  0  0  0  0  0
  189.6020  177.1380  134.7520 N   0  0  0  0  0  1  0  0  0  0  0  0
  187.9630  177.6030  136.5650 C   0  0  0  0  0  0  0  0  0  0  0  0
  187.5910  178.2550  140.2260 C   0  0  1  0  0  3  0  0  0  0  0  0
  1  8  1  1  0  0  0
  1  6  1  0  0  0  0
  2 17  1  6  0  0  0
  2  7  1  0  0  0  0
  2  5  1  0  0  0  0
  3  1  1  0  0  0  0
  4  6  1  0  0  0  0
  5  4  1  0  0  0  0
  7  3  1  6  0  0  0
  7  1  1  0  0  0  0
  8  9  1  6  0  0  0
  8 10  1  0  0  0  0
 10 12  1  0  0  0  0
 12 13  1  0  0  0  0
 12 11  1  1  0  0  0
 13 15  1  0  0  0  0
 14 13  2  0  0  0  0
 16 17  1  0  0  0  0
 18 27  1  0  0  0  0
 19 25  1  0  0  0  0
 20 28  1  0  0  0  0
 21 27  2  0  0  0  0
 21 24  1  0  0  0  0
 22 19  1  0  0  0  0
 22 20  2  0  0  0  0
 24 19  2  0  0  0  0
 25 23  2  0  0  0  0
 26 21  1  0  0  0  0
 27 22  1  0  0  0  0
 28 23  1  0  0  0  0
 28 17  1  6  0  0  0
M  END
>  <MODEL>
9

>  <REMARK>
 VINA RESULT:      -7.6      3.656      7.189
  Name = 
  6 active torsions:
  status: ('A' for Active; 'I' for Inactive)
    1  A    between atoms: C_1  and  C_2
    2  A    between atoms: C_2  and  C_3
    3  A    between atoms: C_3  and  C_11
    4  A    between atoms: C_6  and  C_11
    5  A    between atoms: C_16  and  N_20
    6  A    between atoms: N_20  and  C_25
                            x       y       z     vdW  Elec       q    Type
                         _______ _______ _______ _____ _____    ______ ____

>  <TORSDO>
F 6

$$$$
