=
 OpenBabel11052413343D

 28 33  0  0  1  0  0  0  0  0999 V2000
  189.3860  177.6380  140.0250 C   0  0  2  0  0  3  0  0  0  0  0  0
  184.5100  178.0980  141.8950 C   0  0  0  0  0  3  0  0  0  0  0  0
  189.9060  178.1220  144.9870 C   0  0  0  0  0  1  0  0  0  0  0  0
  184.9030  178.6510  144.2260 C   0  0  0  0  0  0  0  0  0  0  0  0
  186.8120  177.6730  142.8740 C   0  0  1  0  0  3  0  0  0  0  0  0
  182.7160  179.0030  143.2440 C   0  0  0  0  0  0  0  0  0  0  0  0
  185.3920  178.1930  142.9840 C   0  0  0  0  0  0  0  0  0  0  0  0
  187.0420  177.8780  145.2260 C   0  0  0  0  0  2  0  0  0  0  0  0
  183.5740  179.0700  144.3430 C   0  0  0  0  0  3  0  0  0  0  0  0
  189.6770  177.7540  142.5420 C   0  0  1  0  0  3  0  0  0  0  0  0
  187.4140  178.0110  141.5140 C   0  0  0  0  0  2  0  0  0  0  0  0
  185.8060  178.7480  145.4180 C   0  0  0  0  0  2  0  0  0  0  0  0
  191.5060  176.8510  141.1410 C   0  0  0  0  0  2  0  0  0  0  0  0
  188.9950  177.5480  143.9050 C   0  0  2  0  0  3  0  0  0  0  0  0
  190.9570  177.0260  142.4970 N   0  0  0  0  0  2  0  0  0  0  0  0
  181.4290  179.4060  143.3640 F   0  0  0  0  0  0  0  0  0  0  0  0
  183.1810  178.5090  142.0230 C   0  0  0  0  0  3  0  0  0  0  0  0
  187.6760  178.2080  143.9460 N   0  0  1  0  0  0  0  0  0  0  0  0
  190.9050  177.8180  140.1160 C   0  0  0  0  0  2  0  0  0  0  0  0
  188.7590  177.3230  141.3900 C   0  0  1  0  0  3  0  0  0  0  0  0
  189.0450  176.5180  139.0350 C   0  0  2  0  0  3  0  0  0  0  0  0
  189.3200  176.8390  137.5650 C   0  0  2  0  0  3  0  0  0  0  0  0
  187.5300  178.2660  137.7470 C   0  0  0  0  0  0  0  0  0  0  0  0
  189.8050  178.1590  137.3640 O   0  0  0  0  0  0  0  0  0  0  0  0
  187.1010  175.7560  137.4680 C   0  0  0  0  0  1  0  0  0  0  0  0
  187.8960  176.8840  138.0910 C   0  0  2  0  0  0  0  0  0  0  0  0
  186.5090  178.8570  138.2450 N   0  0  0  0  0  2  0  0  0  0  0  0
  188.6880  179.0030  137.2190 C   0  0  0  0  0  2  0  0  0  0  0  0
  1 19  1  1  0  0  0
  1 20  1  0  0  0  0
  2 17  2  0  0  0  0
  2  7  1  0  0  0  0
  4  9  1  0  0  0  0
  4 12  1  0  0  0  0
  5 11  1  6  0  0  0
  5  7  1  0  0  0  0
  5 18  1  0  0  0  0
  6 16  1  0  0  0  0
  6  9  2  0  0  0  0
  7  4  2  0  0  0  0
  8 12  1  0  0  0  0
 10 15  1  1  0  0  0
 10 14  1  0  0  0  0
 13 15  1  0  0  0  0
 14 18  1  0  0  0  0
 14  3  1  1  0  0  0
 17  6  1  0  0  0  0
 18  8  1  1  0  0  0
 19 13  1  0  0  0  0
 20 11  1  1  0  0  0
 20 10  1  0  0  0  0
 21  1  1  1  0  0  0
 22 24  1  1  0  0  0
 22 26  1  0  0  0  0
 22 21  1  0  0  0  0
 23 26  1  0  0  0  0
 23 27  2  0  0  0  0
 26 25  1  6  0  0  0
 26 21  1  0  0  0  0
 28 24  1  0  0  0  0
 28 23  1  0  0  0  0
M  END
>  <MODEL>
1

>  <REMARK>
 VINA RESULT:      -9.2      0.000      0.000
  Name = 
  1 active torsions:
  status: ('A' for Active; 'I' for Inactive)
    1  A    between atoms: C_1  and  C_2
                            x       y       z     vdW  Elec       q    Type
                         _______ _______ _______ _____ _____    ______ ____

>  <TORSDO>
F 1

$$$$
=
 OpenBabel11052413343D

 28 33  0  0  1  0  0  0  0  0999 V2000
  189.0780  177.5650  138.9930 C   0  0  2  0  0  3  0  0  0  0  0  0
  185.2140  177.8900  142.5210 C   0  0  0  0  0  3  0  0  0  0  0  0
  191.3550  177.5960  143.4590 C   0  0  0  0  0  1  0  0  0  0  0  0
  186.4350  178.2280  144.5910 C   0  0  0  0  0  0  0  0  0  0  0  0
  187.6950  177.3620  142.5690 C   0  0  1  0  0  3  0  0  0  0  0  0
  184.0570  178.6830  144.4930 C   0  0  0  0  0  0  0  0  0  0  0  0
  186.4290  177.8800  143.2240 C   0  0  0  0  0  0  0  0  0  0  0  0
  188.7580  177.3530  144.6900 C   0  0  0  0  0  2  0  0  0  0  0  0
  185.2530  178.6450  145.2120 C   0  0  0  0  0  3  0  0  0  0  0  0
  190.2530  177.4520  141.2380 C   0  0  1  0  0  3  0  0  0  0  0  0
  187.7850  177.8160  141.1160 C   0  0  0  0  0  2  0  0  0  0  0  0
  187.7070  178.2110  145.3840 C   0  0  0  0  0  2  0  0  0  0  0  0
  191.4240  176.6650  139.2040 C   0  0  0  0  0  2  0  0  0  0  0  0
  190.0960  177.1290  142.7330 C   0  0  2  0  0  3  0  0  0  0  0  0
  191.4030  176.7210  140.6770 N   0  0  0  0  0  2  0  0  0  0  0  0
  182.9150  179.0830  145.1000 F   0  0  0  0  0  0  0  0  0  0  0  0
  184.0350  178.2980  143.1510 C   0  0  0  0  0  3  0  0  0  0  0  0
  188.9050  177.7920  143.2990 N   0  0  1  0  0  0  0  0  0  0  0  0
  190.5350  177.7240  138.5460 C   0  0  0  0  0  2  0  0  0  0  0  0
  188.9690  177.1320  140.4620 C   0  0  1  0  0  3  0  0  0  0  0  0
  188.3620  176.5410  138.1040 C   0  0  2  0  0  3  0  0  0  0  0  0
  188.1060  176.9910  136.6640 C   0  0  2  0  0  3  0  0  0  0  0  0
  186.5560  178.4080  137.5940 C   0  0  0  0  0  0  0  0  0  0  0  0
  188.5380  178.3200  136.4110 O   0  0  0  0  0  0  0  0  0  0  0  0
  185.9580  175.9370  137.2840 C   0  0  0  0  0  1  0  0  0  0  0  0
  186.9670  176.9990  137.6700 C   0  0  2  0  0  0  0  0  0  0  0  0
  185.8050  178.9590  138.4720 N   0  0  0  0  0  2  0  0  0  0  0  0
  187.4770  179.1820  136.7460 C   0  0  0  0  0  2  0  0  0  0  0  0
  1 19  1  6  0  0  0
  1 20  1  0  0  0  0
  2 17  2  0  0  0  0
  2  7  1  0  0  0  0
  4  9  1  0  0  0  0
  4 12  1  0  0  0  0
  5 11  1  6  0  0  0
  5  7  1  0  0  0  0
  5 18  1  0  0  0  0
  6 16  1  0  0  0  0
  6  9  2  0  0  0  0
  7  4  2  0  0  0  0
  8 12  1  0  0  0  0
 10 15  1  6  0  0  0
 10 14  1  0  0  0  0
 13 15  1  0  0  0  0
 14 18  1  0  0  0  0
 14  3  1  1  0  0  0
 17  6  1  0  0  0  0
 18  8  1  1  0  0  0
 19 13  1  0  0  0  0
 20 11  1  1  0  0  0
 20 10  1  0  0  0  0
 21  1  1  1  0  0  0
 22 24  1  1  0  0  0
 22 26  1  0  0  0  0
 22 21  1  0  0  0  0
 23 26  1  0  0  0  0
 23 27  2  0  0  0  0
 24 28  1  0  0  0  0
 26 25  1  6  0  0  0
 26 21  1  0  0  0  0
 28 23  1  0  0  0  0
M  END
>  <MODEL>
2

>  <REMARK>
 VINA RESULT:      -8.7      1.214      1.510
  Name = 
  1 active torsions:
  status: ('A' for Active; 'I' for Inactive)
    1  A    between atoms: C_1  and  C_2
                            x       y       z     vdW  Elec       q    Type
                         _______ _______ _______ _____ _____    ______ ____

>  <TORSDO>
F 1

$$$$
=
 OpenBabel11052413343D

 28 33  0  0  1  0  0  0  0  0999 V2000
  189.8000  177.3300  141.1910 C   0  0  2  0  0  3  0  0  0  0  0  0
  185.4320  178.8900  143.6340 C   0  0  0  0  0  3  0  0  0  0  0  0
  186.3560  177.8050  137.5800 C   0  0  0  0  0  1  0  0  0  0  0  0
  183.7790  178.7660  141.8610 C   0  0  0  0  0  0  0  0  0  0  0  0
  186.2350  178.7540  141.2310 C   0  0  1  0  0  3  0  0  0  0  0  0
  183.0730  178.9320  144.1730 C   0  0  0  0  0  0  0  0  0  0  0  0
  185.1290  178.7570  142.2690 C   0  0  0  0  0  0  0  0  0  0  0  0
  184.6020  179.0070  139.5290 C   0  0  0  0  0  2  0  0  0  0  0  0
  182.7590  178.8340  142.8160 C   0  0  0  0  0  3  0  0  0  0  0  0
  188.1180  177.6810  139.3260 C   0  0  1  0  0  3  0  0  0  0  0  0
  187.4370  177.9500  141.7150 C   0  0  0  0  0  2  0  0  0  0  0  0
  183.4130  178.6470  140.4130 C   0  0  0  0  0  2  0  0  0  0  0  0
  190.5340  177.6150  138.7960 C   0  0  0  0  0  2  0  0  0  0  0  0
  186.8170  178.3900  138.9130 C   0  0  2  0  0  3  0  0  0  0  0  0
  189.1720  177.9290  138.3270 N   0  0  0  0  0  2  0  0  0  0  0  0
  182.0820  179.0030  145.0930 F   0  0  0  0  0  0  0  0  0  0  0  0
  184.4080  178.9680  144.5820 C   0  0  0  0  0  3  0  0  0  0  0  0
  185.7680  178.2180  139.9360 N   0  0  1  0  0  0  0  0  0  0  0  0
  190.5560  176.6940  140.0190 C   0  0  0  0  0  2  0  0  0  0  0  0
  188.5710  178.1220  140.7240 C   0  0  1  0  0  3  0  0  0  0  0  0
  190.7330  178.2540  141.9830 C   0  0  2  0  0  3  0  0  0  0  0  0
  191.7580  177.5440  142.8690 C   0  0  2  0  0  3  0  0  0  0  0  0
  189.9510  176.9910  144.1730 C   0  0  0  0  0  0  0  0  0  0  0  0
  191.6320  176.1300  142.8440 O   0  0  0  0  0  0  0  0  0  0  0  0
  190.9360  179.3490  144.3440 C   0  0  0  0  0  1  0  0  0  0  0  0
  190.5210  178.1640  143.4960 C   0  0  2  0  0  0  0  0  0  0  0  0
  188.7470  176.9590  144.6090 N   0  0  0  0  0  2  0  0  0  0  0  0
  190.6980  175.7700  143.8340 C   0  0  0  0  0  2  0  0  0  0  0  0
  1 19  1  6  0  0  0
  2 17  1  0  0  0  0
  4  7  1  0  0  0  0
  4  9  2  0  0  0  0
  5 11  1  1  0  0  0
  5  7  1  0  0  0  0
  6 17  2  0  0  0  0
  6 16  1  0  0  0  0
  7  2  2  0  0  0  0
  8 12  1  0  0  0  0
  9  6  1  0  0  0  0
 10 15  1  6  0  0  0
 10 20  1  0  0  0  0
 12  4  1  0  0  0  0
 13 19  1  0  0  0  0
 14  3  1  6  0  0  0
 14 10  1  0  0  0  0
 14 18  1  0  0  0  0
 15 13  1  0  0  0  0
 18  8  1  6  0  0  0
 18  5  1  0  0  0  0
 20  1  1  0  0  0  0
 20 11  1  1  0  0  0
 21  1  1  6  0  0  0
 21 22  1  0  0  0  0
 21 26  1  0  0  0  0
 22 24  1  6  0  0  0
 22 26  1  0  0  0  0
 23 27  2  0  0  0  0
 24 28  1  0  0  0  0
 26 23  1  0  0  0  0
 26 25  1  1  0  0  0
 28 23  1  0  0  0  0
M  END
>  <MODEL>
3

>  <REMARK>
 VINA RESULT:      -8.4      1.921      4.711
  Name = 
  1 active torsions:
  status: ('A' for Active; 'I' for Inactive)
    1  A    between atoms: C_1  and  C_2
                            x       y       z     vdW  Elec       q    Type
                         _______ _______ _______ _____ _____    ______ ____

>  <TORSDO>
F 1

$$$$
=
 OpenBabel11052413343D

 28 33  0  0  1  0  0  0  0  0999 V2000
  188.9820  177.8780  145.2770 C   0  0  2  0  0  3  0  0  0  0  0  0
  187.8280  177.7600  140.1640 C   0  0  0  0  0  3  0  0  0  0  0  0
  184.1040  178.9970  144.9890 C   0  0  0  0  0  1  0  0  0  0  0  0
  185.5610  178.6280  140.1290 C   0  0  0  0  0  0  0  0  0  0  0  0
  186.5150  177.8220  142.3350 C   0  0  1  0  0  3  0  0  0  0  0  0
  186.8530  178.5120  138.0810 C   0  0  0  0  0  0  0  0  0  0  0  0
  186.6580  178.1170  140.8540 C   0  0  0  0  0  0  0  0  0  0  0  0
  184.2020  178.3260  142.1860 C   0  0  0  0  0  2  0  0  0  0  0  0
  185.6720  178.8410  138.7500 C   0  0  0  0  0  3  0  0  0  0  0  0
  186.4870  178.3230  145.1760 C   0  0  1  0  0  3  0  0  0  0  0  0
  187.8200  178.0960  143.0750 C   0  0  0  0  0  2  0  0  0  0  0  0
  184.2880  179.0030  140.8230 C   0  0  0  0  0  2  0  0  0  0  0  0
  187.5100  177.5710  147.3000 C   0  0  0  0  0  2  0  0  0  0  0  0
  185.2070  178.1660  144.3380 C   0  0  2  0  0  3  0  0  0  0  0  0
  186.2700  177.8080  146.5400 N   0  0  0  0  0  2  0  0  0  0  0  0
  186.9530  178.7150  136.7460 F   0  0  0  0  0  0  0  0  0  0  0  0
  187.9270  177.9650  138.7850 C   0  0  0  0  0  3  0  0  0  0  0  0
  185.4230  178.6060  142.9470 N   0  0  1  0  0  0  0  0  0  0  0  0
  188.7230  178.3070  146.7250 C   0  0  0  0  0  2  0  0  0  0  0  0
  187.6780  177.6230  144.5080 C   0  0  1  0  0  3  0  0  0  0  0  0
  189.8480  176.6130  145.2470 C   0  0  2  0  0  3  0  0  0  0  0  0
  191.3440  176.8400  145.4770 C   0  0  2  0  0  3  0  0  0  0  0  0
  191.3160  177.7910  143.3870 C   0  0  0  0  0  0  0  0  0  0  0  0
  191.6830  178.2100  145.6290 O   0  0  0  0  0  0  0  0  0  0  0  0
  191.3280  175.2380  143.5940 C   0  0  0  0  0  1  0  0  0  0  0  0
  190.8270  176.5860  144.0700 C   0  0  2  0  0  0  0  0  0  0  0  0
  190.8850  178.1600  142.2390 N   0  0  0  0  0  2  0  0  0  0  0  0
  191.9180  178.7330  144.3430 C   0  0  0  0  0  2  0  0  0  0  0  0
  1 19  1  1  0  0  0
  2  7  1  0  0  0  0
  4 12  1  0  0  0  0
  4  7  2  0  0  0  0
  5 18  1  0  0  0  0
  5 11  1  1  0  0  0
  6  9  2  0  0  0  0
  6 17  1  0  0  0  0
  7  5  1  0  0  0  0
  9  4  1  0  0  0  0
 10 15  1  1  0  0  0
 12  8  1  0  0  0  0
 14  3  1  1  0  0  0
 14 10  1  0  0  0  0
 15 13  1  0  0  0  0
 16  6  1  0  0  0  0
 17  2  2  0  0  0  0
 18  8  1  6  0  0  0
 18 14  1  0  0  0  0
 19 13  1  0  0  0  0
 20 11  1  6  0  0  0
 20 10  1  0  0  0  0
 20  1  1  0  0  0  0
 21  1  1  6  0  0  0
 21 22  1  0  0  0  0
 22 24  1  6  0  0  0
 23 26  1  0  0  0  0
 23 28  1  0  0  0  0
 26 25  1  6  0  0  0
 26 21  1  0  0  0  0
 26 22  1  0  0  0  0
 27 23  2  0  0  0  0
 28 24  1  0  0  0  0
M  END
>  <MODEL>
4

>  <REMARK>
 VINA RESULT:      -7.8      2.908      5.807
  Name = 
  1 active torsions:
  status: ('A' for Active; 'I' for Inactive)
    1  A    between atoms: C_1  and  C_2
                            x       y       z     vdW  Elec       q    Type
                         _______ _______ _______ _____ _____    ______ ____

>  <TORSDO>
F 1

$$$$
=
 OpenBabel11052413343D

 28 33  0  0  1  0  0  0  0  0999 V2000
  189.3360  177.7620  145.7590 C   0  0  2  0  0  3  0  0  0  0  0  0
  186.5780  178.0850  141.3120 C   0  0  0  0  0  3  0  0  0  0  0  0
  184.6200  178.6840  147.1850 C   0  0  0  0  0  1  0  0  0  0  0  0
  184.4150  178.8510  142.1040 C   0  0  0  0  0  0  0  0  0  0  0  0
  186.0450  177.8790  143.7840 C   0  0  1  0  0  3  0  0  0  0  0  0
  184.9680  178.9910  139.7480 C   0  0  0  0  0  0  0  0  0  0  0  0
  185.6940  178.3220  142.3770 C   0  0  0  0  0  0  0  0  0  0  0  0
  183.8050  178.2910  144.4460 C   0  0  0  0  0  2  0  0  0  0  0  0
  184.0670  179.2000  140.7950 C   0  0  0  0  0  3  0  0  0  0  0  0
  186.9410  178.1030  146.5180 C   0  0  1  0  0  3  0  0  0  0  0  0
  187.5170  178.1390  144.0880 C   0  0  0  0  0  2  0  0  0  0  0  0
  183.4340  179.1000  143.2080 C   0  0  0  0  0  2  0  0  0  0  0  0
  188.6090  177.1960  148.1050 C   0  0  0  0  0  2  0  0  0  0  0  0
  185.4590  177.9700  146.1280 C   0  0  2  0  0  3  0  0  0  0  0  0
  187.1860  177.4500  147.8160 N   0  0  0  0  0  2  0  0  0  0  0  0
  184.6250  179.3250  138.4820 F   0  0  0  0  0  0  0  0  0  0  0  0
  186.2200  178.4270  140.0050 C   0  0  0  0  0  3  0  0  0  0  0  0
  185.2040  178.5510  144.7960 N   0  0  1  0  0  0  0  0  0  0  0  0
  189.5590  178.0380  147.2500 C   0  0  0  0  0  2  0  0  0  0  0  0
  187.8560  177.5240  145.4310 C   0  0  1  0  0  3  0  0  0  0  0  0
  190.1600  176.5460  145.3170 C   0  0  2  0  0  3  0  0  0  0  0  0
  191.6380  176.8230  145.0400 C   0  0  2  0  0  3  0  0  0  0  0  0
  190.8750  177.9390  143.1840 C   0  0  0  0  0  0  0  0  0  0  0  0
  191.9870  178.1910  145.1930 O   0  0  0  0  0  0  0  0  0  0  0  0
  190.9990  175.3810  143.1370 C   0  0  0  0  0  1  0  0  0  0  0  0
  190.6720  176.6600  143.8790 C   0  0  2  0  0  0  0  0  0  0  0  0
  190.0680  178.3800  142.2930 N   0  0  0  0  0  2  0  0  0  0  0  0
  191.7550  178.8280  143.9590 C   0  0  0  0  0  2  0  0  0  0  0  0
  1 19  1  1  0  0  0
  2  7  1  0  0  0  0
  4  7  2  0  0  0  0
  4 12  1  0  0  0  0
  5 11  1  1  0  0  0
  5 18  1  0  0  0  0
  6 17  1  0  0  0  0
  6  9  2  0  0  0  0
  7  5  1  0  0  0  0
  9  4  1  0  0  0  0
 10 15  1  1  0  0  0
 12  8  1  0  0  0  0
 14 10  1  0  0  0  0
 14  3  1  1  0  0  0
 15 13  1  0  0  0  0
 16  6  1  0  0  0  0
 17  2  2  0  0  0  0
 18  8  1  6  0  0  0
 18 14  1  0  0  0  0
 19 13  1  0  0  0  0
 20 11  1  6  0  0  0
 20  1  1  0  0  0  0
 20 10  1  0  0  0  0
 21  1  1  1  0  0  0
 22 24  1  1  0  0  0
 22 21  1  0  0  0  0
 23 26  1  0  0  0  0
 23 28  1  0  0  0  0
 26 25  1  6  0  0  0
 26 22  1  0  0  0  0
 26 21  1  0  0  0  0
 27 23  2  0  0  0  0
 28 24  1  0  0  0  0
M  END
>  <MODEL>
5

>  <REMARK>
 VINA RESULT:      -7.8      3.043      5.287
  Name = 
  1 active torsions:
  status: ('A' for Active; 'I' for Inactive)
    1  A    between atoms: C_1  and  C_2
                            x       y       z     vdW  Elec       q    Type
                         _______ _______ _______ _____ _____    ______ ____

>  <TORSDO>
F 1

$$$$
=
 OpenBabel11052413343D

 28 33  0  0  1  0  0  0  0  0999 V2000
  185.6640  178.0690  138.7950 C   0  0  2  0  0  3  0  0  0  0  0  0
  189.1740  177.7290  142.6750 C   0  0  0  0  0  3  0  0  0  0  0  0
  183.0290  178.6290  143.0230 C   0  0  0  0  0  1  0  0  0  0  0  0
  187.7570  177.6820  144.6460 C   0  0  0  0  0  0  0  0  0  0  0  0
  186.7570  178.4700  142.4540 C   0  0  1  0  0  3  0  0  0  0  0  0
  190.0830  177.0180  144.8020 C   0  0  0  0  0  0  0  0  0  0  0  0
  187.9100  177.9050  143.2610 C   0  0  0  0  0  0  0  0  0  0  0  0
  185.5260  178.7580  144.4610 C   0  0  0  0  0  2  0  0  0  0  0  0
  188.8390  177.2220  145.4040 C   0  0  0  0  0  3  0  0  0  0  0  0
  184.3210  178.4810  140.9070 C   0  0  1  0  0  3  0  0  0  0  0  0
  186.7470  177.8970  141.0410 C   0  0  0  0  0  2  0  0  0  0  0  0
  186.4310  177.8780  145.3150 C   0  0  0  0  0  2  0  0  0  0  0  0
  183.4030  179.1810  138.7180 C   0  0  0  0  0  2  0  0  0  0  0  0
  184.3830  178.9210  142.3790 C   0  0  2  0  0  3  0  0  0  0  0  0
  183.2950  179.2550  140.1860 N   0  0  0  0  0  2  0  0  0  0  0  0
  191.1290  176.5780  145.5410 F   0  0  0  0  0  0  0  0  0  0  0  0
  190.2520  177.2790  143.4410 C   0  0  0  0  0  3  0  0  0  0  0  0
  185.4550  178.2110  143.1030 N   0  0  1  0  0  0  0  0  0  0  0  0
  184.2410  177.9960  138.2320 C   0  0  0  0  0  2  0  0  0  0  0  0
  185.6910  178.6190  140.2280 C   0  0  1  0  0  3  0  0  0  0  0  0
  186.5440  178.9450  137.8950 C   0  0  2  0  0  3  0  0  0  0  0  0
  186.8880  178.3420  136.5320 C   0  0  2  0  0  3  0  0  0  0  0  0
  188.2180  176.9010  137.7260 C   0  0  0  0  0  0  0  0  0  0  0  0
  186.3660  177.0340  136.3530 O   0  0  0  0  0  0  0  0  0  0  0  0
  189.0550  179.2780  137.2640 C   0  0  0  0  0  1  0  0  0  0  0  0
  187.9280  178.3400  137.6400 C   0  0  2  0  0  0  0  0  0  0  0  0
  188.8370  176.3780  138.7180 N   0  0  0  0  0  2  0  0  0  0  0  0
  187.3140  176.1260  136.8640 C   0  0  0  0  0  2  0  0  0  0  0  0
  1 19  1  6  0  0  0
  1 20  1  0  0  0  0
  2  7  2  0  0  0  0
  2 17  1  0  0  0  0
  4 12  1  0  0  0  0
  4  9  2  0  0  0  0
  5 11  1  6  0  0  0
  5 18  1  0  0  0  0
  5  7  1  0  0  0  0
  6  9  1  0  0  0  0
  6 16  1  0  0  0  0
  7  4  1  0  0  0  0
  8 12  1  0  0  0  0
 10 15  1  6  0  0  0
 10 14  1  0  0  0  0
 13 15  1  0  0  0  0
 14  3  1  1  0  0  0
 14 18  1  0  0  0  0
 17  6  2  0  0  0  0
 18  8  1  1  0  0  0
 19 13  1  0  0  0  0
 20 10  1  0  0  0  0
 20 11  1  1  0  0  0
 21  1  1  1  0  0  0
 22 24  1  1  0  0  0
 22 26  1  0  0  0  0
 22 21  1  0  0  0  0
 23 27  2  0  0  0  0
 24 28  1  0  0  0  0
 26 25  1  6  0  0  0
 26 23  1  0  0  0  0
 26 21  1  0  0  0  0
 28 23  1  0  0  0  0
M  END
>  <MODEL>
6

>  <REMARK>
 VINA RESULT:      -7.5      2.680      5.050
  Name = 
  1 active torsions:
  status: ('A' for Active; 'I' for Inactive)
    1  A    between atoms: C_1  and  C_2
                            x       y       z     vdW  Elec       q    Type
                         _______ _______ _______ _____ _____    ______ ____

>  <TORSDO>
F 1

$$$$
=
 OpenBabel11052413343D

 28 33  0  0  1  0  0  0  0  0999 V2000
  189.0340  177.1920  137.9010 C   0  0  2  0  0  3  0  0  0  0  0  0
  187.4930  177.1390  142.9120 C   0  0  0  0  0  3  0  0  0  0  0  0
  193.2520  177.5040  140.5920 C   0  0  0  0  0  1  0  0  0  0  0  0
  189.5600  177.6220  144.0900 C   0  0  0  0  0  0  0  0  0  0  0  0
  189.6910  176.8760  141.6710 C   0  0  1  0  0  3  0  0  0  0  0  0
  187.4320  177.8230  145.2330 C   0  0  0  0  0  0  0  0  0  0  0  0
  188.8910  177.2640  142.9010 C   0  0  0  0  0  0  0  0  0  0  0  0
  191.6800  176.9980  142.9570 C   0  0  0  0  0  2  0  0  0  0  0  0
  188.8250  177.9180  145.2430 C   0  0  0  0  0  3  0  0  0  0  0  0
  191.1930  177.2240  139.2320 C   0  0  1  0  0  3  0  0  0  0  0  0
  188.9840  177.3250  140.3960 C   0  0  0  0  0  2  0  0  0  0  0  0
  191.0520  177.7470  144.1270 C   0  0  0  0  0  2  0  0  0  0  0  0
  191.2340  176.5470  136.8530 C   0  0  0  0  0  2  0  0  0  0  0  0
  191.8500  176.8990  140.5850 C   0  0  2  0  0  3  0  0  0  0  0  0
  191.9610  176.6130  138.1330 N   0  0  0  0  0  2  0  0  0  0  0  0
  186.7250  178.1050  146.3530 F   0  0  0  0  0  0  0  0  0  0  0  0
  186.7660  177.4260  144.0710 C   0  0  0  0  0  3  0  0  0  0  0  0
  191.0560  177.4380  141.7060 N   0  0  1  0  0  0  0  0  0  0  0  0
  190.0380  177.5010  136.7850 C   0  0  0  0  0  2  0  0  0  0  0  0
  189.7290  176.7640  139.2010 C   0  0  1  0  0  3  0  0  0  0  0  0
  188.0660  176.0910  137.4520 C   0  0  2  0  0  3  0  0  0  0  0  0
  187.3300  176.3630  136.1390 C   0  0  2  0  0  3  0  0  0  0  0  0
  186.1780  177.9420  137.3440 C   0  0  0  0  0  0  0  0  0  0  0  0
  187.6380  177.6320  135.5810 O   0  0  0  0  0  0  0  0  0  0  0  0
  185.5330  175.4750  137.5850 C   0  0  0  0  0  1  0  0  0  0  0  0
  186.6020  176.5400  137.4620 C   0  0  2  0  0  0  0  0  0  0  0  0
  185.7670  178.6280  138.3440 N   0  0  0  0  0  2  0  0  0  0  0  0
  186.7470  178.5680  136.1400 C   0  0  0  0  0  2  0  0  0  0  0  0
  1 19  1  6  0  0  0
  1 20  1  0  0  0  0
  2 17  1  0  0  0  0
  4 12  1  0  0  0  0
  4  9  2  0  0  0  0
  5 11  1  6  0  0  0
  5 18  1  0  0  0  0
  5  7  1  0  0  0  0
  6  9  1  0  0  0  0
  6 16  1  0  0  0  0
  7  2  2  0  0  0  0
  7  4  1  0  0  0  0
  8 12  1  0  0  0  0
 10 15  1  6  0  0  0
 10 14  1  0  0  0  0
 13 15  1  0  0  0  0
 14  3  1  6  0  0  0
 14 18  1  0  0  0  0
 17  6  2  0  0  0  0
 18  8  1  1  0  0  0
 19 13  1  0  0  0  0
 20 10  1  0  0  0  0
 20 11  1  1  0  0  0
 21 26  1  0  0  0  0
 21  1  1  1  0  0  0
 22 24  1  1  0  0  0
 22 21  1  0  0  0  0
 22 26  1  0  0  0  0
 23 26  1  0  0  0  0
 23 27  2  0  0  0  0
 24 28  1  0  0  0  0
 26 25  1  1  0  0  0
 28 23  1  0  0  0  0
M  END
>  <MODEL>
7

>  <REMARK>
 VINA RESULT:      -7.5      2.364      3.810
  Name = 
  1 active torsions:
  status: ('A' for Active; 'I' for Inactive)
    1  A    between atoms: C_1  and  C_2
                            x       y       z     vdW  Elec       q    Type
                         _______ _______ _______ _____ _____    ______ ____

>  <TORSDO>
F 1

$$$$
=
 OpenBabel11052413343D

 28 33  0  0  1  0  0  0  0  0999 V2000
  190.0490  177.0170  144.9020 C   0  0  2  0  0  3  0  0  0  0  0  0
  185.0790  178.6860  144.9520 C   0  0  0  0  0  3  0  0  0  0  0  0
  188.7650  177.5120  140.0820 C   0  0  0  0  0  1  0  0  0  0  0  0
  184.4750  178.5700  142.6040 C   0  0  0  0  0  0  0  0  0  0  0  0
  186.9320  178.5060  143.2270 C   0  0  1  0  0  3  0  0  0  0  0  0
  182.7520  178.7770  144.2960 C   0  0  0  0  0  0  0  0  0  0  0  0
  185.4640  178.5420  143.6100 C   0  0  0  0  0  0  0  0  0  0  0  0
  186.3190  178.7680  140.9510 C   0  0  0  0  0  2  0  0  0  0  0  0
  183.1240  178.6690  142.9540 C   0  0  0  0  0  3  0  0  0  0  0  0
  189.4730  177.3760  142.4580 C   0  0  1  0  0  3  0  0  0  0  0  0
  187.7380  177.6860  144.2290 C   0  0  0  0  0  2  0  0  0  0  0  0
  184.8440  178.4410  141.1580 C   0  0  0  0  0  2  0  0  0  0  0  0
  191.8460  177.2600  143.1500 C   0  0  0  0  0  2  0  0  0  0  0  0
  188.5440  178.1040  141.4720 C   0  0  2  0  0  3  0  0  0  0  0  0
  190.8820  177.5930  142.0860 N   0  0  0  0  0  2  0  0  0  0  0  0
  181.4430  178.8770  144.6290 F   0  0  0  0  0  0  0  0  0  0  0  0
  183.7290  178.7940  145.2940 C   0  0  0  0  0  3  0  0  0  0  0  0
  187.1300  177.9630  141.8670 N   0  0  1  0  0  0  0  0  0  0  0  0
  191.2600  176.3530  144.2360 C   0  0  0  0  0  2  0  0  0  0  0  0
  189.2110  177.8260  143.9020 C   0  0  1  0  0  3  0  0  0  0  0  0
  190.5100  177.9330  146.0420 C   0  0  2  0  0  3  0  0  0  0  0  0
  191.1440  177.2200  147.2380 C   0  0  2  0  0  3  0  0  0  0  0  0
  189.0150  176.4780  147.6710 C   0  0  0  0  0  0  0  0  0  0  0  0
  191.1510  175.8060  147.1040 O   0  0  0  0  0  0  0  0  0  0  0  0
  189.6590  178.8690  148.3250 C   0  0  0  0  0  1  0  0  0  0  0  0
  189.7140  177.7260  147.3340 C   0  0  2  0  0  0  0  0  0  0  0  0
  187.7440  176.3500  147.5800 N   0  0  0  0  0  2  0  0  0  0  0  0
  189.9290  175.3270  147.6140 C   0  0  0  0  0  2  0  0  0  0  0  0
  1 19  1  6  0  0  0
  2 17  1  0  0  0  0
  4  9  2  0  0  0  0
  4  7  1  0  0  0  0
  5  7  1  0  0  0  0
  5 11  1  1  0  0  0
  6 16  1  0  0  0  0
  6 17  2  0  0  0  0
  7  2  2  0  0  0  0
  8 12  1  0  0  0  0
  9  6  1  0  0  0  0
 10 15  1  6  0  0  0
 10 20  1  0  0  0  0
 12  4  1  0  0  0  0
 13 19  1  0  0  0  0
 14  3  1  6  0  0  0
 14 18  1  0  0  0  0
 14 10  1  0  0  0  0
 15 13  1  0  0  0  0
 18  8  1  6  0  0  0
 18  5  1  0  0  0  0
 20 11  1  1  0  0  0
 20  1  1  0  0  0  0
 21  1  1  6  0  0  0
 21 22  1  0  0  0  0
 21 26  1  0  0  0  0
 22 24  1  6  0  0  0
 22 26  1  0  0  0  0
 24 28  1  0  0  0  0
 26 23  1  0  0  0  0
 26 25  1  1  0  0  0
 27 23  2  0  0  0  0
 28 23  1  0  0  0  0
M  END
>  <MODEL>
8

>  <REMARK>
 VINA RESULT:      -7.3      2.668      5.878
  Name = 
  1 active torsions:
  status: ('A' for Active; 'I' for Inactive)
    1  A    between atoms: C_1  and  C_2
                            x       y       z     vdW  Elec       q    Type
                         _______ _______ _______ _____ _____    ______ ____

>  <TORSDO>
F 1

$$$$
=
 OpenBabel11052413343D

 28 33  0  0  1  0  0  0  0  0999 V2000
  183.3200  178.3870  142.2910 C   0  0  2  0  0  3  0  0  0  0  0  0
  188.1630  177.8000  140.3700 C   0  0  0  0  0  3  0  0  0  0  0  0
  186.2830  177.8520  146.2990 C   0  0  0  0  0  1  0  0  0  0  0  0
  189.4370  177.2270  142.3550 C   0  0  0  0  0  0  0  0  0  0  0  0
  187.1410  178.2620  142.6470 C   0  0  1  0  0  3  0  0  0  0  0  0
  190.3740  176.8410  140.1540 C   0  0  0  0  0  0  0  0  0  0  0  0
  188.2480  177.7110  141.7690 C   0  0  0  0  0  0  0  0  0  0  0  0
  188.5580  178.0330  144.5350 C   0  0  0  0  0  2  0  0  0  0  0  0
  190.4850  176.7780  141.5440 C   0  0  0  0  0  3  0  0  0  0  0  0
  184.8060  178.2450  144.3410 C   0  0  1  0  0  3  0  0  0  0  0  0
  185.7700  177.9540  142.0550 C   0  0  0  0  0  2  0  0  0  0  0  0
  189.5780  177.1340  143.8440 C   0  0  0  0  0  2  0  0  0  0  0  0
  182.5340  179.2050  144.5420 C   0  0  0  0  0  2  0  0  0  0  0  0
  186.2360  178.4200  144.8820 C   0  0  2  0  0  3  0  0  0  0  0  0
  183.8510  179.0010  145.1710 N   0  0  0  0  0  2  0  0  0  0  0  0
  191.3930  176.4090  139.3730 F   0  0  0  0  0  0  0  0  0  0  0  0
  189.2180  177.3590  139.5670 C   0  0  0  0  0  3  0  0  0  0  0  0
  187.2180  177.7320  144.0230 N   0  0  1  0  0  0  0  0  0  0  0  0
  182.2590  178.2380  143.3870 C   0  0  0  0  0  2  0  0  0  0  0  0
  184.7130  178.6720  142.8700 C   0  0  1  0  0  3  0  0  0  0  0  0
  182.9280  179.5110  141.3250 C   0  0  2  0  0  3  0  0  0  0  0  0
  181.6400  179.2760  140.5350 C   0  0  2  0  0  3  0  0  0  0  0  0
  182.8580  177.6910  139.4040 C   0  0  0  0  0  0  0  0  0  0  0  0
  181.0470  178.0130  140.8010 O   0  0  0  0  0  0  0  0  0  0  0  0
  183.1690  180.1630  138.8090 C   0  0  0  0  0  1  0  0  0  0  0  0
  182.9850  179.0840  139.8560 C   0  0  2  0  0  0  0  0  0  0  0  0
  183.8610  176.9930  139.0200 N   0  0  0  0  0  2  0  0  0  0  0  0
  181.6220  177.0800  139.9170 C   0  0  0  0  0  2  0  0  0  0  0  0
  1 20  1  0  0  0  0
  1 19  1  1  0  0  0
  2  7  1  0  0  0  0
  4 12  1  0  0  0  0
  5 11  1  6  0  0  0
  5 18  1  0  0  0  0
  6  9  2  0  0  0  0
  7  4  2  0  0  0  0
  7  5  1  0  0  0  0
  9  4  1  0  0  0  0
 10 14  1  0  0  0  0
 10 15  1  1  0  0  0
 12  8  1  0  0  0  0
 13 15  1  0  0  0  0
 14  3  1  1  0  0  0
 16  6  1  0  0  0  0
 17  6  1  0  0  0  0
 17  2  2  0  0  0  0
 18  8  1  1  0  0  0
 18 14  1  0  0  0  0
 19 13  1  0  0  0  0
 20 11  1  6  0  0  0
 20 10  1  0  0  0  0
 21  1  1  1  0  0  0
 22 24  1  1  0  0  0
 22 21  1  0  0  0  0
 23 26  1  0  0  0  0
 23 28  1  0  0  0  0
 26 25  1  6  0  0  0
 26 22  1  0  0  0  0
 26 21  1  0  0  0  0
 27 23  2  0  0  0  0
 28 24  1  0  0  0  0
M  END
>  <MODEL>
9

>  <REMARK>
 VINA RESULT:      -7.1      3.251      6.319
  Name = 
  1 active torsions:
  status: ('A' for Active; 'I' for Inactive)
    1  A    between atoms: C_1  and  C_2
                            x       y       z     vdW  Elec       q    Type
                         _______ _______ _______ _____ _____    ______ ____

>  <TORSDO>
F 1

$$$$
