=
 OpenBabel11052416443D

 43 47  0  0  1  0  0  0  0  0999 V2000
  180.7770  181.0910  138.5930 C   0  0  0  0  0  0  0  0  0  0  0  0
  184.4360  177.3470  137.4600 C   0  0  1  0  0  0  0  0  0  0  0  0
  181.0050  178.7570  137.8810 C   0  0  2  0  0  3  0  0  0  0  0  0
  182.2110  181.1360  139.0530 C   0  0  0  0  0  2  0  0  0  0  0  0
  180.1790  182.1310  138.3780 O   0  0  0  0  0  0  0  0  0  0  0  0
  182.3260  178.6110  138.6400 C   0  0  2  0  0  0  0  0  0  0  0  0
  180.0550  179.7800  138.4930 C   0  0  0  0  0  2  0  0  0  0  0  0
  183.0310  179.9720  138.4690 C   0  0  0  0  0  2  0  0  0  0  0  0
  183.9430  176.7350  138.6320 O   0  0  0  0  0  0  0  0  0  0  0  0
  182.9890  177.4440  137.8650 C   0  0  2  0  0  0  0  0  0  0  0  0
  181.7630  176.3010  137.1280 S   0  0  0  0  0  0  0  0  0  0  0  0
  180.3950  177.3970  137.6220 C   0  0  0  0  0  2  0  0  0  0  0  0
  186.2310  178.1390  139.0280 C   0  0  0  0  0  1  0  0  0  0  0  0
  185.4150  178.4680  137.7910 C   0  0  0  0  0  2  0  0  0  0  0  0
  184.8820  176.3340  136.3920 C   0  0  1  0  0  3  0  0  0  0  0  0
  185.3250  176.9500  135.2170 O   0  0  0  0  0  1  0  0  0  0  0  0
  185.9450  175.3880  136.9440 C   0  0  0  0  0  2  0  0  0  0  0  0
  187.3610  174.1720  135.2330 C   0  0  0  0  0  1  0  0  0  0  0  0
  187.2410  175.3950  136.1340 C   0  0  2  0  0  3  0  0  0  0  0  0
  188.4780  175.6290  137.0220 C   0  0  1  0  0  3  0  0  0  0  0  0
  189.2180  174.4550  137.1970 O   0  0  0  0  0  1  0  0  0  0  0  0
  189.3980  176.7800  136.5860 C   0  0  0  0  0  3  0  0  0  0  0  0
  189.0400  178.8390  137.0630 C   0  0  0  0  0  2  0  0  0  0  0  0
  189.7650  177.6930  137.7430 C   0  0  0  0  0  2  0  0  0  0  0  0
  188.6650  177.9250  135.9120 C   0  0  0  0  0  2  0  0  0  0  0  0
  182.0480  178.2860  140.1500 C   0  0  2  0  0  3  0  0  0  0  0  0
  183.1690  177.6270  140.9690 C   0  0  0  0  0  2  0  0  0  0  0  0
  183.1460  179.4660  142.4540 O   0  0  0  0  0  0  0  0  0  0  0  0
  183.7700  178.5110  142.0160 C   0  0  0  0  0  0  0  0  0  0  0  0
  185.1590  178.2320  142.4940 C   0  0  0  0  0  2  0  0  0  0  0  0
  185.2370  178.2310  144.0120 C   0  0  0  0  0  2  0  0  0  0  0  0
  187.1400  178.0210  145.5270 C   0  0  0  0  0  3  0  0  0  0  0  0
  186.4890  177.5620  144.4660 C   0  0  0  0  0  3  0  0  0  0  0  0
  188.4570  177.0220  147.2040 O   0  0  0  0  0  0  0  0  0  0  0  0
  188.3760  177.3910  146.0040 C   0  0  0  0  0  0  0  0  0  0  0  0
  189.4840  177.1950  145.1290 N   0  0  0  0  0  1  0  0  0  0  0  0
  180.6500  177.7620  140.4900 C   0  0  0  0  0  2  0  0  0  0  0  0
  180.1460  178.3800  141.7470 C   0  0  0  0  0  0  0  0  0  0  0  0
  179.2380  179.5520  144.1210 C   0  0  0  0  0  3  0  0  0  0  0  0
  179.6850  178.2280  144.1210 C   0  0  0  0  0  3  0  0  0  0  0  0
  179.2470  180.2930  142.9340 C   0  0  0  0  0  3  0  0  0  0  0  0
  180.1400  177.6420  142.9360 C   0  0  0  0  0  3  0  0  0  0  0  0
  179.7030  179.7080  141.7490 C   0  0  0  0  0  3  0  0  0  0  0  0
  1  4  1  0  0  0  0
  2 14  1  1  0  0  0
  2 10  1  0  0  0  0
  2  9  1  0  0  0  0
  3 12  1  1  0  0  0
  3  7  1  0  0  0  0
  3  6  1  0  0  0  0
  5  1  2  0  0  0  0
  6 26  1  1  0  0  0
  7  1  1  0  0  0  0
  8  6  1  0  0  0  0
  8  4  1  0  0  0  0
 10 11  1  6  0  0  0
 10  9  1  0  0  0  0
 10  6  1  0  0  0  0
 11 12  1  0  0  0  0
 14 13  1  0  0  0  0
 15 16  1  6  0  0  0
 15 17  1  0  0  0  0
 15  2  1  0  0  0  0
 19 18  1  1  0  0  0
 19 17  1  0  0  0  0
 19 20  1  0  0  0  0
 20 21  1  6  0  0  0
 22 20  1  0  0  0  0
 22 24  1  0  0  0  0
 23 24  1  0  0  0  0
 25 22  1  0  0  0  0
 25 23  1  0  0  0  0
 26 37  1  6  0  0  0
 26 27  1  0  0  0  0
 27 29  1  0  0  0  0
 29 28  2  0  0  0  0
 29 30  1  0  0  0  0
 30 31  1  0  0  0  0
 31 33  1  0  0  0  0
 32 35  1  0  0  0  0
 33 32  2  0  0  0  0
 35 34  2  0  0  0  0
 36 35  1  0  0  0  0
 37 38  1  0  0  0  0
 38 43  2  0  0  0  0
 38 42  1  0  0  0  0
 39 40  1  0  0  0  0
 41 39  2  0  0  0  0
 42 40  2  0  0  0  0
 43 41  1  0  0  0  0
M  END
>  <MODEL>
1

>  <REMARK>
 VINA RESULT:      -5.7      0.000      0.000
  Name = 
  15 active torsions:
  status: ('A' for Active; 'I' for Inactive)
    1  A    between atoms: C_1  and  C_34
    2  A    between atoms: C_1  and  C_35
    3  A    between atoms: C_3  and  C_12
    4  A    between atoms: C_4  and  C_15
    5  A    between atoms: C_8  and  C_13
    6  A    between atoms: C_8  and  C_34
    7  A    between atoms: C_9  and  C_19
    8  A    between atoms: C_9  and  C_35
    9  A    between atoms: C_10  and  C_41
   10  A    between atoms: C_10  and  C_42
   11  A    between atoms: C_11  and  C_14
   12  A    between atoms: C_14  and  C_41
   13  A    between atoms: C_15  and  C_22
   14  A    between atoms: C_21  and  C_41
   15  A    between atoms: C_22  and  C_42
                            x       y       z     vdW  Elec       q    Type
                         _______ _______ _______ _____ _____    ______ ____

>  <TORSDO>
F 15

$$$$
=
 OpenBabel11052416443D

 43 47  0  0  1  0  0  0  0  0999 V2000
  180.2530  181.5450  137.8160 C   0  0  0  0  0  0  0  0  0  0  0  0
  183.9810  177.7180  137.4320 C   0  0  1  0  0  0  0  0  0  0  0  0
  180.6700  179.3360  136.8370 C   0  0  2  0  0  3  0  0  0  0  0  0
  181.4190  181.3950  138.7570 C   0  0  0  0  0  2  0  0  0  0  0  0
  179.8010  182.6530  137.5850 O   0  0  0  0  0  0  0  0  0  0  0  0
  181.6170  178.9630  137.9810 C   0  0  2  0  0  0  0  0  0  0  0  0
  179.5870  180.3310  137.2370 C   0  0  0  0  0  2  0  0  0  0  0  0
  182.3670  180.2680  138.3120 C   0  0  0  0  0  2  0  0  0  0  0  0
  183.0780  176.9790  138.2250 O   0  0  0  0  0  0  0  0  0  0  0  0
  182.4890  177.8760  137.3030 C   0  0  2  0  0  0  0  0  0  0  0  0
  181.5920  176.9690  135.9900 S   0  0  0  0  0  0  0  0  0  0  0  0
  180.1650  178.0890  136.1460 C   0  0  0  0  0  2  0  0  0  0  0  0
  184.9400  178.1840  139.7060 C   0  0  0  0  0  1  0  0  0  0  0  0
  184.7970  178.6870  138.2800 C   0  0  0  0  0  2  0  0  0  0  0  0
  184.7630  176.8460  136.4340 C   0  0  1  0  0  3  0  0  0  0  0  0
  185.3960  177.6000  135.4410 O   0  0  0  0  0  1  0  0  0  0  0  0
  185.7640  175.9500  137.1590 C   0  0  0  0  0  2  0  0  0  0  0  0
  187.2070  174.0890  136.2280 C   0  0  0  0  0  1  0  0  0  0  0  0
  186.9840  175.5940  136.3090 C   0  0  2  0  0  3  0  0  0  0  0  0
  188.2370  176.3820  136.7370 C   0  0  1  0  0  3  0  0  0  0  0  0
  188.7820  177.1030  135.6690 O   0  0  0  0  0  1  0  0  0  0  0  0
  188.0620  177.2920  137.9620 C   0  0  0  0  0  3  0  0  0  0  0  0
  189.6930  178.2110  139.0080 C   0  0  0  0  0  2  0  0  0  0  0  0
  188.8270  178.5970  137.8230 C   0  0  0  0  0  2  0  0  0  0  0  0
  188.9360  176.9020  139.1400 C   0  0  0  0  0  2  0  0  0  0  0  0
  180.7970  178.4360  139.2100 C   0  0  2  0  0  3  0  0  0  0  0  0
  181.5700  177.8350  140.3950 C   0  0  0  0  0  2  0  0  0  0  0  0
  180.7550  179.5560  141.7940 O   0  0  0  0  0  0  0  0  0  0  0  0
  181.6130  178.7060  141.6100 C   0  0  0  0  0  0  0  0  0  0  0  0
  182.7420  178.5490  142.5780 C   0  0  0  0  0  2  0  0  0  0  0  0
  182.5040  179.3530  143.8470 C   0  0  0  0  0  2  0  0  0  0  0  0
  184.7360  178.5570  144.4340 C   0  0  0  0  0  3  0  0  0  0  0  0
  183.5930  179.1000  144.8320 C   0  0  0  0  0  3  0  0  0  0  0  0
  185.6290  178.4210  146.6080 O   0  0  0  0  0  0  0  0  0  0  0  0
  185.8300  178.2910  145.3730 C   0  0  0  0  0  0  0  0  0  0  0  0
  187.1160  177.8910  144.9060 N   0  0  0  0  0  1  0  0  0  0  0  0
  179.4880  177.7040  138.8960 C   0  0  0  0  0  2  0  0  0  0  0  0
  179.5180  176.3160  139.4340 C   0  0  0  0  0  0  0  0  0  0  0  0
  179.5320  173.7020  140.4340 C   0  0  0  0  0  3  0  0  0  0  0  0
  179.1040  174.7580  141.2440 C   0  0  0  0  0  3  0  0  0  0  0  0
  179.9510  173.9500  139.1230 C   0  0  0  0  0  3  0  0  0  0  0  0
  179.0950  176.0640  140.7440 C   0  0  0  0  0  3  0  0  0  0  0  0
  179.9410  175.2560  138.6230 C   0  0  0  0  0  3  0  0  0  0  0  0
  1  4  1  0  0  0  0
  2  9  1  0  0  0  0
  2 14  1  1  0  0  0
  3 12  1  1  0  0  0
  3  7  1  0  0  0  0
  3  6  1  0  0  0  0
  5  1  2  0  0  0  0
  6  8  1  0  0  0  0
  6 26  1  1  0  0  0
  7  1  1  0  0  0  0
  8  4  1  0  0  0  0
 10 11  1  6  0  0  0
 10  2  1  0  0  0  0
 10  6  1  0  0  0  0
 10  9  1  0  0  0  0
 11 12  1  0  0  0  0
 14 13  1  0  0  0  0
 15 16  1  6  0  0  0
 15 17  1  0  0  0  0
 15  2  1  0  0  0  0
 19 18  1  1  0  0  0
 19 20  1  0  0  0  0
 19 17  1  0  0  0  0
 20 21  1  6  0  0  0
 20 22  1  0  0  0  0
 22 25  1  0  0  0  0
 23 25  1  0  0  0  0
 24 22  1  0  0  0  0
 24 23  1  0  0  0  0
 26 37  1  6  0  0  0
 26 27  1  0  0  0  0
 27 29  1  0  0  0  0
 29 28  2  0  0  0  0
 29 30  1  0  0  0  0
 30 31  1  0  0  0  0
 31 33  1  0  0  0  0
 32 33  2  0  0  0  0
 32 35  1  0  0  0  0
 35 34  2  0  0  0  0
 36 35  1  0  0  0  0
 37 38  1  0  0  0  0
 38 42  1  0  0  0  0
 39 40  1  0  0  0  0
 41 39  2  0  0  0  0
 42 40  2  0  0  0  0
 43 41  1  0  0  0  0
 43 38  2  0  0  0  0
M  END
>  <MODEL>
2

>  <REMARK>
 VINA RESULT:      -5.4      1.812      2.646
  Name = 
  15 active torsions:
  status: ('A' for Active; 'I' for Inactive)
    1  A    between atoms: C_1  and  C_34
    2  A    between atoms: C_1  and  C_35
    3  A    between atoms: C_3  and  C_12
    4  A    between atoms: C_4  and  C_15
    5  A    between atoms: C_8  and  C_13
    6  A    between atoms: C_8  and  C_34
    7  A    between atoms: C_9  and  C_19
    8  A    between atoms: C_9  and  C_35
    9  A    between atoms: C_10  and  C_41
   10  A    between atoms: C_10  and  C_42
   11  A    between atoms: C_11  and  C_14
   12  A    between atoms: C_14  and  C_41
   13  A    between atoms: C_15  and  C_22
   14  A    between atoms: C_21  and  C_41
   15  A    between atoms: C_22  and  C_42
                            x       y       z     vdW  Elec       q    Type
                         _______ _______ _______ _____ _____    ______ ____

>  <TORSDO>
F 15

$$$$
=
 OpenBabel11052416443D

 43 47  0  0  1  0  0  0  0  0999 V2000
  180.2100  181.5620  137.7230 C   0  0  0  0  0  0  0  0  0  0  0  0
  184.0640  177.8420  137.7160 C   0  0  1  0  0  0  0  0  0  0  0  0
  180.7750  179.3590  136.8100 C   0  0  2  0  0  3  0  0  0  0  0  0
  181.2910  181.4540  138.7670 C   0  0  0  0  0  2  0  0  0  0  0  0
  179.7490  182.6550  137.4410 O   0  0  0  0  0  0  0  0  0  0  0  0
  181.6250  179.0230  138.0370 C   0  0  2  0  0  0  0  0  0  0  0  0
  179.6320  180.3250  137.1010 C   0  0  0  0  0  2  0  0  0  0  0  0
  182.3060  180.3520  138.4200 C   0  0  0  0  0  2  0  0  0  0  0  0
  183.1150  177.0840  138.4320 O   0  0  0  0  0  0  0  0  0  0  0  0
  182.5850  177.9560  137.4520 C   0  0  2  0  0  0  0  0  0  0  0  0
  181.8350  177.0120  136.0740 S   0  0  0  0  0  0  0  0  0  0  0  0
  180.3690  178.0920  136.0900 C   0  0  0  0  0  2  0  0  0  0  0  0
  185.0660  178.2370  139.9840 C   0  0  0  0  0  1  0  0  0  0  0  0
  184.7730  178.8420  138.6220 C   0  0  0  0  0  2  0  0  0  0  0  0
  184.9560  176.9850  136.8010 C   0  0  1  0  0  3  0  0  0  0  0  0
  186.2060  177.5680  136.5680 O   0  0  0  0  0  1  0  0  0  0  0  0
  185.1090  175.5720  137.3560 C   0  0  0  0  0  2  0  0  0  0  0  0
  185.3350  174.5780  135.0380 C   0  0  0  0  0  1  0  0  0  0  0  0
  185.9160  174.6470  136.4440 C   0  0  2  0  0  3  0  0  0  0  0  0
  186.1520  173.2650  137.0830 C   0  0  1  0  0  3  0  0  0  0  0  0
  185.2750  172.3040  136.5710 O   0  0  0  0  0  1  0  0  0  0  0  0
  187.5980  172.7490  137.0330 C   0  0  0  0  0  3  0  0  0  0  0  0
  188.9310  173.0960  135.3900 C   0  0  0  0  0  2  0  0  0  0  0  0
  188.5860  173.8420  136.6650 C   0  0  0  0  0  2  0  0  0  0  0  0
  187.9360  172.0090  135.7520 C   0  0  0  0  0  2  0  0  0  0  0  0
  180.7140  178.4820  139.1940 C   0  0  2  0  0  3  0  0  0  0  0  0
  181.3940  177.8810  140.4340 C   0  0  0  0  0  2  0  0  0  0  0  0
  180.6160  179.6530  141.7890 O   0  0  0  0  0  0  0  0  0  0  0  0
  181.4800  178.8100  141.6040 C   0  0  0  0  0  0  0  0  0  0  0  0
  182.6560  178.7170  142.5220 C   0  0  0  0  0  2  0  0  0  0  0  0
  182.3540  179.3340  143.8790 C   0  0  0  0  0  2  0  0  0  0  0  0
  184.5820  179.2700  144.8750 C   0  0  0  0  0  3  0  0  0  0  0  0
  183.3250  178.8450  144.8980 C   0  0  0  0  0  3  0  0  0  0  0  0
  185.5670  179.3140  147.0130 O   0  0  0  0  0  0  0  0  0  0  0  0
  185.5670  178.8120  145.8590 C   0  0  0  0  0  0  0  0  0  0  0  0
  186.5250  177.8100  145.5260 N   0  0  0  0  0  1  0  0  0  0  0  0
  179.4410  177.7420  138.7720 C   0  0  0  0  0  2  0  0  0  0  0  0
  179.4340  176.3540  139.3130 C   0  0  0  0  0  0  0  0  0  0  0  0
  179.4600  173.7510  140.3410 C   0  0  0  0  0  3  0  0  0  0  0  0
  179.9420  173.9990  139.0520 C   0  0  0  0  0  3  0  0  0  0  0  0
  178.9680  174.8050  141.1190 C   0  0  0  0  0  3  0  0  0  0  0  0
  179.9300  175.2990  138.5380 C   0  0  0  0  0  3  0  0  0  0  0  0
  178.9570  176.1050  140.6050 C   0  0  0  0  0  3  0  0  0  0  0  0
  1  4  1  0  0  0  0
  2  9  1  0  0  0  0
  2 14  1  1  0  0  0
  3 12  1  1  0  0  0
  3  7  1  0  0  0  0
  3  6  1  0  0  0  0
  5  1  2  0  0  0  0
  6  8  1  0  0  0  0
  6 26  1  1  0  0  0
  7  1  1  0  0  0  0
  8  4  1  0  0  0  0
 10 11  1  6  0  0  0
 10  2  1  0  0  0  0
 10  6  1  0  0  0  0
 10  9  1  0  0  0  0
 11 12  1  0  0  0  0
 14 13  1  0  0  0  0
 15 16  1  1  0  0  0
 15 17  1  0  0  0  0
 15  2  1  0  0  0  0
 19 18  1  6  0  0  0
 19 20  1  0  0  0  0
 19 17  1  0  0  0  0
 20 21  1  6  0  0  0
 22 20  1  0  0  0  0
 23 25  1  0  0  0  0
 23 24  1  0  0  0  0
 24 22  1  0  0  0  0
 25 22  1  0  0  0  0
 26 37  1  6  0  0  0
 26 27  1  0  0  0  0
 27 29  1  0  0  0  0
 29 28  2  0  0  0  0
 29 30  1  0  0  0  0
 30 31  1  0  0  0  0
 31 33  1  0  0  0  0
 32 33  2  0  0  0  0
 32 35  1  0  0  0  0
 35 34  2  0  0  0  0
 36 35  1  0  0  0  0
 37 38  1  0  0  0  0
 38 43  1  0  0  0  0
 39 41  1  0  0  0  0
 40 39  2  0  0  0  0
 42 40  1  0  0  0  0
 42 38  2  0  0  0  0
 43 41  2  0  0  0  0
M  END
>  <MODEL>
3

>  <REMARK>
 VINA RESULT:      -5.2      2.222      3.192
  Name = 
  15 active torsions:
  status: ('A' for Active; 'I' for Inactive)
    1  A    between atoms: C_1  and  C_34
    2  A    between atoms: C_1  and  C_35
    3  A    between atoms: C_3  and  C_12
    4  A    between atoms: C_4  and  C_15
    5  A    between atoms: C_8  and  C_13
    6  A    between atoms: C_8  and  C_34
    7  A    between atoms: C_9  and  C_19
    8  A    between atoms: C_9  and  C_35
    9  A    between atoms: C_10  and  C_41
   10  A    between atoms: C_10  and  C_42
   11  A    between atoms: C_11  and  C_14
   12  A    between atoms: C_14  and  C_41
   13  A    between atoms: C_15  and  C_22
   14  A    between atoms: C_21  and  C_41
   15  A    between atoms: C_22  and  C_42
                            x       y       z     vdW  Elec       q    Type
                         _______ _______ _______ _____ _____    ______ ____

>  <TORSDO>
F 15

$$$$
=
 OpenBabel11052416443D

 43 47  0  0  1  0  0  0  0  0999 V2000
  187.7110  179.0490  136.9970 C   0  0  0  0  0  0  0  0  0  0  0  0
  191.6410  175.4470  137.5220 C   0  0  1  0  0  0  0  0  0  0  0  0
  188.1320  176.6350  137.0600 C   0  0  2  0  0  3  0  0  0  0  0  0
  189.0610  179.3430  137.5980 C   0  0  0  0  0  2  0  0  0  0  0  0
  187.1100  179.9270  136.4030 O   0  0  0  0  0  0  0  0  0  0  0  0
  189.3340  176.8270  137.9880 C   0  0  2  0  0  0  0  0  0  0  0  0
  187.0640  177.7120  137.2080 C   0  0  0  0  0  2  0  0  0  0  0  0
  190.0010  178.1300  137.5020 C   0  0  0  0  0  2  0  0  0  0  0  0
  191.0080  175.1700  138.7520 O   0  0  0  0  0  0  0  0  0  0  0  0
  190.1480  175.5420  137.6920 C   0  0  2  0  0  0  0  0  0  0  0  0
  189.0870  174.1370  137.1880 S   0  0  0  0  0  0  0  0  0  0  0  0
  187.6200  175.2140  137.1510 C   0  0  0  0  0  2  0  0  0  0  0  0
  193.0640  176.8720  139.0220 C   0  0  0  0  0  1  0  0  0  0  0  0
  192.5160  176.6910  137.6180 C   0  0  0  0  0  2  0  0  0  0  0  0
  192.2760  174.2040  136.8750 C   0  0  1  0  0  3  0  0  0  0  0  0
  192.4880  174.3600  135.5020 O   0  0  0  0  0  1  0  0  0  0  0  0
  193.5710  173.8200  137.5860 C   0  0  0  0  0  2  0  0  0  0  0  0
  194.8500  171.8200  136.7040 C   0  0  0  0  0  1  0  0  0  0  0  0
  194.6620  173.3300  136.6330 C   0  0  2  0  0  3  0  0  0  0  0  0
  195.9720  174.1240  136.7980 C   0  0  1  0  0  3  0  0  0  0  0  0
  195.7320  175.4960  136.9240 O   0  0  0  0  0  1  0  0  0  0  0  0
  196.9040  173.6400  137.9190 C   0  0  0  0  0  3  0  0  0  0  0  0
  198.2520  174.9210  138.9850 C   0  0  0  0  0  2  0  0  0  0  0  0
  196.8040  174.5040  139.1630 C   0  0  0  0  0  2  0  0  0  0  0  0
  198.3490  174.0650  137.7360 C   0  0  0  0  0  2  0  0  0  0  0  0
  188.8540  176.9400  139.4770 C   0  0  2  0  0  3  0  0  0  0  0  0
  188.5780  178.3400  140.0470 C   0  0  0  0  0  2  0  0  0  0  0  0
  186.2450  178.6200  139.7930 O   0  0  0  0  0  0  0  0  0  0  0  0
  187.1880  178.5340  140.5650 C   0  0  0  0  0  0  0  0  0  0  0  0
  186.9730  178.6590  142.0400 C   0  0  0  0  0  2  0  0  0  0  0  0
  185.5550  178.2720  142.4310 C   0  0  0  0  0  2  0  0  0  0  0  0
  186.0900  178.0440  144.8020 C   0  0  0  0  0  3  0  0  0  0  0  0
  185.3130  178.5780  143.8690 C   0  0  0  0  0  3  0  0  0  0  0  0
  184.7600  178.7290  146.6200 O   0  0  0  0  0  0  0  0  0  0  0  0
  185.8820  178.3190  146.2270 C   0  0  0  0  0  0  0  0  0  0  0  0
  186.9330  178.1300  147.1710 N   0  0  0  0  0  1  0  0  0  0  0  0
  189.5080  175.9860  140.4800 C   0  0  0  0  0  2  0  0  0  0  0  0
  189.8350  176.6960  141.7480 C   0  0  0  0  0  0  0  0  0  0  0  0
  190.4770  178.0000  144.1400 C   0  0  0  0  0  3  0  0  0  0  0  0
  189.4620  177.0380  144.1180 C   0  0  0  0  0  3  0  0  0  0  0  0
  191.1740  178.3090  142.9670 C   0  0  0  0  0  3  0  0  0  0  0  0
  189.1430  176.3860  142.9230 C   0  0  0  0  0  3  0  0  0  0  0  0
  190.8550  177.6560  141.7720 C   0  0  0  0  0  3  0  0  0  0  0  0
  1  7  1  0  0  0  0
  1  4  1  0  0  0  0
  2 14  1  6  0  0  0
  2 10  1  0  0  0  0
  2  9  1  0  0  0  0
  3 12  1  1  0  0  0
  3  7  1  0  0  0  0
  3  6  1  0  0  0  0
  5  1  2  0  0  0  0
  6 26  1  1  0  0  0
  8  4  1  0  0  0  0
  8  6  1  0  0  0  0
 10 11  1  6  0  0  0
 10  6  1  0  0  0  0
 10  9  1  0  0  0  0
 12 11  1  0  0  0  0
 14 13  1  0  0  0  0
 15 16  1  6  0  0  0
 15  2  1  0  0  0  0
 15 17  1  0  0  0  0
 19 18  1  1  0  0  0
 19 20  1  0  0  0  0
 19 17  1  0  0  0  0
 20 21  1  1  0  0  0
 20 22  1  0  0  0  0
 22 24  1  0  0  0  0
 23 24  1  0  0  0  0
 25 22  1  0  0  0  0
 25 23  1  0  0  0  0
 26 27  1  1  0  0  0
 26 37  1  0  0  0  0
 27 29  1  0  0  0  0
 28 29  2  0  0  0  0
 29 30  1  0  0  0  0
 30 31  1  0  0  0  0
 31 33  1  0  0  0  0
 32 35  1  0  0  0  0
 33 32  2  0  0  0  0
 35 34  2  0  0  0  0
 35 36  1  0  0  0  0
 37 38  1  0  0  0  0
 38 43  2  0  0  0  0
 38 42  1  0  0  0  0
 40 39  1  0  0  0  0
 41 39  2  0  0  0  0
 42 40  2  0  0  0  0
 43 41  1  0  0  0  0
M  END
>  <MODEL>
4

>  <REMARK>
 VINA RESULT:      -5.2      4.333      7.515
  Name = 
  15 active torsions:
  status: ('A' for Active; 'I' for Inactive)
    1  A    between atoms: C_1  and  C_34
    2  A    between atoms: C_1  and  C_35
    3  A    between atoms: C_3  and  C_12
    4  A    between atoms: C_4  and  C_15
    5  A    between atoms: C_8  and  C_13
    6  A    between atoms: C_8  and  C_34
    7  A    between atoms: C_9  and  C_19
    8  A    between atoms: C_9  and  C_35
    9  A    between atoms: C_10  and  C_41
   10  A    between atoms: C_10  and  C_42
   11  A    between atoms: C_11  and  C_14
   12  A    between atoms: C_14  and  C_41
   13  A    between atoms: C_15  and  C_22
   14  A    between atoms: C_21  and  C_41
   15  A    between atoms: C_22  and  C_42
                            x       y       z     vdW  Elec       q    Type
                         _______ _______ _______ _____ _____    ______ ____

>  <TORSDO>
F 15

$$$$
=
 OpenBabel11052416443D

 43 47  0  0  1  0  0  0  0  0999 V2000
  180.8630  179.6670  136.7090 C   0  0  0  0  0  0  0  0  0  0  0  0
  185.6470  178.1670  138.5950 C   0  0  1  0  0  0  0  0  0  0  0  0
  182.8360  178.3260  136.1430 C   0  0  2  0  0  3  0  0  0  0  0  0
  181.2570  179.7120  138.1620 C   0  0  0  0  0  2  0  0  0  0  0  0
  180.0710  180.4830  136.2710 O   0  0  0  0  0  0  0  0  0  0  0  0
  183.1030  178.0220  137.6200 C   0  0  2  0  0  0  0  0  0  0  0  0
  181.3650  178.5650  135.8230 C   0  0  0  0  0  2  0  0  0  0  0  0
  182.7320  179.3220  138.3620 C   0  0  0  0  0  2  0  0  0  0  0  0
  185.0450  176.8940  138.6640 O   0  0  0  0  0  0  0  0  0  0  0  0
  184.6220  177.7130  137.5900 C   0  0  2  0  0  0  0  0  0  0  0  0
  185.1700  177.0220  135.9860 S   0  0  0  0  0  0  0  0  0  0  0  0
  183.5220  177.3030  135.2640 C   0  0  0  0  0  2  0  0  0  0  0  0
  184.9530  178.1890  141.0080 C   0  0  0  0  0  1  0  0  0  0  0  0
  185.2430  179.0350  139.7820 C   0  0  0  0  0  2  0  0  0  0  0  0
  187.1470  178.1090  138.2600 C   0  0  1  0  0  3  0  0  0  0  0  0
  187.5200  179.0460  137.2910 O   0  0  0  0  0  1  0  0  0  0  0  0
  187.9950  178.2640  139.5200 C   0  0  0  0  0  2  0  0  0  0  0  0
  189.3600  176.4440  138.4080 C   0  0  0  0  0  1  0  0  0  0  0  0
  189.3600  177.5840  139.4190 C   0  0  2  0  0  3  0  0  0  0  0  0
  189.9110  177.1820  140.8010 C   0  0  1  0  0  3  0  0  0  0  0  0
  191.2650  177.5070  140.9300 O   0  0  0  0  0  1  0  0  0  0  0  0
  189.1180  177.7070  142.0080 C   0  0  0  0  0  3  0  0  0  0  0  0
  189.2700  176.8860  143.9830 C   0  0  0  0  0  2  0  0  0  0  0  0
  190.0070  177.9650  143.2120 C   0  0  0  0  0  2  0  0  0  0  0  0
  188.3890  176.6200  142.7760 C   0  0  0  0  0  2  0  0  0  0  0  0
  182.2230  176.8110  138.0890 C   0  0  2  0  0  3  0  0  0  0  0  0
  181.8480  176.7210  139.5770 C   0  0  0  0  0  2  0  0  0  0  0  0
  180.1970  175.3310  140.5400 O   0  0  0  0  0  0  0  0  0  0  0  0
  180.4360  176.2990  139.8340 C   0  0  0  0  0  0  0  0  0  0  0  0
  179.3210  177.0560  139.1850 C   0  0  0  0  0  2  0  0  0  0  0  0
  178.9320  178.2810  139.9970 C   0  0  0  0  0  2  0  0  0  0  0  0
  180.0910  178.8820  142.0610 C   0  0  0  0  0  3  0  0  0  0  0  0
  179.2480  178.0690  141.4380 C   0  0  0  0  0  3  0  0  0  0  0  0
  181.6300  178.7800  143.8390 O   0  0  0  0  0  0  0  0  0  0  0  0
  180.4270  178.7050  143.4760 C   0  0  0  0  0  0  0  0  0  0  0  0
  179.4140  178.4470  144.4450 N   0  0  0  0  0  1  0  0  0  0  0  0
  182.5290  175.4540  137.4490 C   0  0  0  0  0  2  0  0  0  0  0  0
  181.2720  174.7680  137.0390 C   0  0  0  0  0  0  0  0  0  0  0  0
  178.9310  173.4620  136.2360 C   0  0  0  0  0  3  0  0  0  0  0  0
  179.2520  174.7140  135.7020 C   0  0  0  0  0  3  0  0  0  0  0  0
  179.7820  172.8600  137.1700 C   0  0  0  0  0  3  0  0  0  0  0  0
  180.4220  175.3660  136.1020 C   0  0  0  0  0  3  0  0  0  0  0  0
  180.9530  173.5120  137.5690 C   0  0  0  0  0  3  0  0  0  0  0  0
  1  4  1  0  0  0  0
  2  9  1  0  0  0  0
  2 14  1  1  0  0  0
  3 12  1  6  0  0  0
  3  6  1  0  0  0  0
  4  8  1  0  0  0  0
  5  1  2  0  0  0  0
  6 26  1  1  0  0  0
  6  8  1  0  0  0  0
  7  3  1  0  0  0  0
  7  1  1  0  0  0  0
 10 11  1  6  0  0  0
 10  6  1  0  0  0  0
 10  2  1  0  0  0  0
 10  9  1  0  0  0  0
 12 11  1  0  0  0  0
 14 13  1  0  0  0  0
 15 16  1  6  0  0  0
 15  2  1  0  0  0  0
 15 17  1  0  0  0  0
 19 18  1  6  0  0  0
 19 17  1  0  0  0  0
 19 20  1  0  0  0  0
 20 21  1  1  0  0  0
 20 22  1  0  0  0  0
 22 25  1  0  0  0  0
 22 24  1  0  0  0  0
 24 23  1  0  0  0  0
 25 23  1  0  0  0  0
 26 37  1  1  0  0  0
 26 27  1  0  0  0  0
 27 29  1  0  0  0  0
 29 28  2  0  0  0  0
 30 29  1  0  0  0  0
 30 31  1  0  0  0  0
 31 33  1  0  0  0  0
 32 35  1  0  0  0  0
 33 32  2  0  0  0  0
 35 34  2  0  0  0  0
 35 36  1  0  0  0  0
 38 37  1  0  0  0  0
 38 43  1  0  0  0  0
 39 41  1  0  0  0  0
 40 42  1  0  0  0  0
 40 39  2  0  0  0  0
 41 43  2  0  0  0  0
 42 38  2  0  0  0  0
M  END
>  <MODEL>
5

>  <REMARK>
 VINA RESULT:      -5.0      2.939      5.566
  Name = 
  15 active torsions:
  status: ('A' for Active; 'I' for Inactive)
    1  A    between atoms: C_1  and  C_34
    2  A    between atoms: C_1  and  C_35
    3  A    between atoms: C_3  and  C_12
    4  A    between atoms: C_4  and  C_15
    5  A    between atoms: C_8  and  C_13
    6  A    between atoms: C_8  and  C_34
    7  A    between atoms: C_9  and  C_19
    8  A    between atoms: C_9  and  C_35
    9  A    between atoms: C_10  and  C_41
   10  A    between atoms: C_10  and  C_42
   11  A    between atoms: C_11  and  C_14
   12  A    between atoms: C_14  and  C_41
   13  A    between atoms: C_15  and  C_22
   14  A    between atoms: C_21  and  C_41
   15  A    between atoms: C_22  and  C_42
                            x       y       z     vdW  Elec       q    Type
                         _______ _______ _______ _____ _____    ______ ____

>  <TORSDO>
F 15

$$$$
=
 OpenBabel11052416443D

 43 47  0  0  1  0  0  0  0  0999 V2000
  180.5470  180.9430  139.6670 C   0  0  0  0  0  0  0  0  0  0  0  0
  182.6400  176.3380  137.9050 C   0  0  1  0  0  0  0  0  0  0  0  0
  180.4050  178.5130  139.9560 C   0  0  2  0  0  3  0  0  0  0  0  0
  181.8750  180.8250  138.9670 C   0  0  0  0  0  2  0  0  0  0  0  0
  179.8850  181.9590  139.5400 O   0  0  0  0  0  0  0  0  0  0  0  0
  181.8820  178.3420  139.5930 C   0  0  2  0  0  0  0  0  0  0  0  0
  180.0810  179.8600  140.5940 C   0  0  0  0  0  2  0  0  0  0  0  0
  182.1390  179.3870  138.4880 C   0  0  0  0  0  2  0  0  0  0  0  0
  183.1740  176.2650  139.2090 O   0  0  0  0  0  0  0  0  0  0  0  0
  181.9000  176.8720  139.1030 C   0  0  2  0  0  0  0  0  0  0  0  0
  180.6160  175.8440  139.9070 S   0  0  0  0  0  0  0  0  0  0  0  0
  179.9100  177.3090  140.7270 C   0  0  0  0  0  2  0  0  0  0  0  0
  184.9170  176.8260  136.9640 C   0  0  0  0  0  1  0  0  0  0  0  0
  183.4650  177.2670  137.0210 C   0  0  0  0  0  2  0  0  0  0  0  0
  182.2860  174.9610  137.3180 C   0  0  1  0  0  3  0  0  0  0  0  0
  181.9870  175.0180  135.9530 O   0  0  0  0  0  1  0  0  0  0  0  0
  183.3950  173.9490  137.5910 C   0  0  0  0  0  2  0  0  0  0  0  0
  182.1070  171.8030  137.2050 C   0  0  0  0  0  1  0  0  0  0  0  0
  183.2720  172.6750  136.7540 C   0  0  2  0  0  3  0  0  0  0  0  0
  184.6090  171.9160  136.6560 C   0  0  1  0  0  3  0  0  0  0  0  0
  184.4860  170.7530  135.8890 O   0  0  0  0  0  1  0  0  0  0  0  0
  185.8090  172.7470  136.1760 C   0  0  0  0  0  3  0  0  0  0  0  0
  187.8500  172.1200  136.3790 C   0  0  0  0  0  2  0  0  0  0  0  0
  186.7710  171.9330  135.3290 C   0  0  0  0  0  2  0  0  0  0  0  0
  186.8860  172.9250  137.2310 C   0  0  0  0  0  2  0  0  0  0  0  0
  182.7800  178.5960  140.8540 C   0  0  2  0  0  3  0  0  0  0  0  0
  184.1550  177.9110  140.9160 C   0  0  0  0  0  2  0  0  0  0  0  0
  185.2790  179.2710  139.3450 O   0  0  0  0  0  0  0  0  0  0  0  0
  185.2930  178.7670  140.4580 C   0  0  0  0  0  0  0  0  0  0  0  0
  186.4650  178.9660  141.3650 C   0  0  0  0  0  2  0  0  0  0  0  0
  187.0300  177.6390  141.8450 C   0  0  0  0  0  2  0  0  0  0  0  0
  187.5230  177.1330  144.1820 C   0  0  0  0  0  3  0  0  0  0  0  0
  187.8180  177.8330  143.0950 C   0  0  0  0  0  3  0  0  0  0  0  0
  189.5250  177.1670  145.4200 O   0  0  0  0  0  0  0  0  0  0  0  0
  188.2740  177.2960  145.4300 C   0  0  0  0  0  0  0  0  0  0  0  0
  187.6060  177.5970  146.6530 N   0  0  0  0  0  1  0  0  0  0  0  0
  182.0610  178.6540  142.2050 C   0  0  0  0  0  2  0  0  0  0  0  0
  183.0300  178.9040  143.3090 C   0  0  0  0  0  0  0  0  0  0  0  0
  184.8270  179.4060  145.3950 C   0  0  0  0  0  3  0  0  0  0  0  0
  184.9720  180.0670  144.1710 C   0  0  0  0  0  3  0  0  0  0  0  0
  183.7810  178.4950  145.5780 C   0  0  0  0  0  3  0  0  0  0  0  0
  184.0740  179.8180  143.1300 C   0  0  0  0  0  3  0  0  0  0  0  0
  182.8820  178.2460  144.5360 C   0  0  0  0  0  3  0  0  0  0  0  0
  1  7  1  0  0  0  0
  2 14  1  6  0  0  0
  2 10  1  0  0  0  0
  2  9  1  0  0  0  0
  3  7  1  1  0  0  0
  3 12  1  0  0  0  0
  4  1  1  0  0  0  0
  5  1  2  0  0  0  0
  6  3  1  0  0  0  0
  6 26  1  1  0  0  0
  8  4  1  0  0  0  0
  8  6  1  0  0  0  0
 10  9  1  1  0  0  0
 10  6  1  0  0  0  0
 10 11  1  0  0  0  0
 11 12  1  0  0  0  0
 13 14  1  0  0  0  0
 15 16  1  6  0  0  0
 15 17  1  0  0  0  0
 15  2  1  0  0  0  0
 19 18  1  1  0  0  0
 19 17  1  0  0  0  0
 20 21  1  6  0  0  0
 20 19  1  0  0  0  0
 22 20  1  0  0  0  0
 22 25  1  0  0  0  0
 23 25  1  0  0  0  0
 24 22  1  0  0  0  0
 24 23  1  0  0  0  0
 26 27  1  1  0  0  0
 26 37  1  0  0  0  0
 28 29  2  0  0  0  0
 29 27  1  0  0  0  0
 29 30  1  0  0  0  0
 30 31  1  0  0  0  0
 31 33  1  0  0  0  0
 32 35  1  0  0  0  0
 33 32  2  0  0  0  0
 34 35  2  0  0  0  0
 35 36  1  0  0  0  0
 37 38  1  0  0  0  0
 38 43  1  0  0  0  0
 39 41  1  0  0  0  0
 40 39  2  0  0  0  0
 42 38  2  0  0  0  0
 42 40  1  0  0  0  0
 43 41  2  0  0  0  0
M  END
>  <MODEL>
6

>  <REMARK>
 VINA RESULT:      -4.9      2.511      3.652
  Name = 
  15 active torsions:
  status: ('A' for Active; 'I' for Inactive)
    1  A    between atoms: C_1  and  C_34
    2  A    between atoms: C_1  and  C_35
    3  A    between atoms: C_3  and  C_12
    4  A    between atoms: C_4  and  C_15
    5  A    between atoms: C_8  and  C_13
    6  A    between atoms: C_8  and  C_34
    7  A    between atoms: C_9  and  C_19
    8  A    between atoms: C_9  and  C_35
    9  A    between atoms: C_10  and  C_41
   10  A    between atoms: C_10  and  C_42
   11  A    between atoms: C_11  and  C_14
   12  A    between atoms: C_14  and  C_41
   13  A    between atoms: C_15  and  C_22
   14  A    between atoms: C_21  and  C_41
   15  A    between atoms: C_22  and  C_42
                            x       y       z     vdW  Elec       q    Type
                         _______ _______ _______ _____ _____    ______ ____

>  <TORSDO>
F 15

$$$$
=
 OpenBabel11052416443D

 43 47  0  0  1  0  0  0  0  0999 V2000
  183.7760  177.8890  139.3950 C   0  0  0  0  0  0  0  0  0  0  0  0
  180.4650  174.3620  137.0950 C   0  0  1  0  0  0  0  0  0  0  0  0
  182.7930  177.2780  137.2340 C   0  0  2  0  0  3  0  0  0  0  0  0
  182.7570  177.0680  140.1400 C   0  0  0  0  0  2  0  0  0  0  0  0
  184.8140  178.2100  139.9470 O   0  0  0  0  0  0  0  0  0  0  0  0
  181.5340  176.7350  137.9150 C   0  0  2  0  0  0  0  0  0  0  0  0
  183.4780  178.3940  138.0140 C   0  0  0  0  0  2  0  0  0  0  0  0
  182.0420  176.0720  139.2110 C   0  0  0  0  0  2  0  0  0  0  0  0
  179.6320  175.4890  136.9340 O   0  0  0  0  0  0  0  0  0  0  0  0
  181.0220  175.7390  136.8440 C   0  0  2  0  0  0  0  0  0  0  0  0
  181.4880  176.2310  135.1430 S   0  0  0  0  0  0  0  0  0  0  0  0
  182.5090  177.5970  135.7830 C   0  0  0  0  0  2  0  0  0  0  0  0
  178.9310  173.6810  138.9620 C   0  0  0  0  0  1  0  0  0  0  0  0
  180.3750  173.8050  138.5110 C   0  0  0  0  0  2  0  0  0  0  0  0
  180.3410  173.3490  135.9450 C   0  0  1  0  0  3  0  0  0  0  0  0
  179.4410  173.7620  134.9570 O   0  0  0  0  0  1  0  0  0  0  0  0
  181.7080  173.0390  135.3400 C   0  0  0  0  0  2  0  0  0  0  0  0
  181.0180  170.7080  136.0520 C   0  0  0  0  0  1  0  0  0  0  0  0
  182.1580  171.5960  135.5700 C   0  0  2  0  0  3  0  0  0  0  0  0
  183.4180  171.5170  136.4540 C   0  0  1  0  0  3  0  0  0  0  0  0
  184.3160  170.5520  135.9870 O   0  0  0  0  0  1  0  0  0  0  0  0
  184.1430  172.8500  136.6950 C   0  0  0  0  0  3  0  0  0  0  0  0
  186.2040  173.0000  137.2640 C   0  0  0  0  0  2  0  0  0  0  0  0
  185.4610  172.9320  135.9440 C   0  0  0  0  0  2  0  0  0  0  0  0
  184.8890  172.9080  138.0150 C   0  0  0  0  0  2  0  0  0  0  0  0
  180.5340  177.9060  138.2140 C   0  0  2  0  0  3  0  0  0  0  0  0
  179.3770  177.6420  139.1910 C   0  0  0  0  0  2  0  0  0  0  0  0
  179.5100  177.0780  141.4830 O   0  0  0  0  0  0  0  0  0  0  0  0
  179.7000  177.9270  140.6240 C   0  0  0  0  0  0  0  0  0  0  0  0
  180.2240  179.2760  140.9970 C   0  0  0  0  0  2  0  0  0  0  0  0
  180.3580  179.4250  142.5040 C   0  0  0  0  0  2  0  0  0  0  0  0
  182.1140  178.9360  144.1290 C   0  0  0  0  0  3  0  0  0  0  0  0
  181.7900  179.3410  142.9080 C   0  0  0  0  0  3  0  0  0  0  0  0
  183.7910  179.0030  145.7800 O   0  0  0  0  0  0  0  0  0  0  0  0
  183.5110  178.8410  144.5640 C   0  0  0  0  0  0  0  0  0  0  0  0
  184.5530  178.5710  143.6300 N   0  0  0  0  0  1  0  0  0  0  0  0
  180.1450  178.7940  137.0280 C   0  0  0  0  0  2  0  0  0  0  0  0
  180.2590  180.2350  137.3870 C   0  0  0  0  0  0  0  0  0  0  0  0
  180.4940  182.9490  138.0260 C   0  0  0  0  0  3  0  0  0  0  0  0
  181.5240  182.0630  138.3520 C   0  0  0  0  0  3  0  0  0  0  0  0
  179.3460  182.4810  137.3770 C   0  0  0  0  0  3  0  0  0  0  0  0
  181.4080  180.7070  138.0320 C   0  0  0  0  0  3  0  0  0  0  0  0
  179.2300  181.1250  137.0560 C   0  0  0  0  0  3  0  0  0  0  0  0
  1  5  2  0  0  0  0
  1  4  1  0  0  0  0
  2 14  1  1  0  0  0
  3 12  1  6  0  0  0
  3  6  1  0  0  0  0
  3  7  1  0  0  0  0
  6 26  1  1  0  0  0
  6  8  1  0  0  0  0
  7  1  1  0  0  0  0
  8  4  1  0  0  0  0
  9  2  1  0  0  0  0
 10 11  1  6  0  0  0
 10  9  1  0  0  0  0
 10  2  1  0  0  0  0
 10  6  1  0  0  0  0
 11 12  1  0  0  0  0
 14 13  1  0  0  0  0
 15 16  1  6  0  0  0
 15  2  1  0  0  0  0
 17 19  1  0  0  0  0
 17 15  1  0  0  0  0
 19 18  1  1  0  0  0
 19 20  1  0  0  0  0
 20 21  1  6  0  0  0
 20 22  1  0  0  0  0
 22 25  1  0  0  0  0
 23 25  1  0  0  0  0
 24 22  1  0  0  0  0
 24 23  1  0  0  0  0
 26 37  1  6  0  0  0
 26 27  1  0  0  0  0
 27 29  1  0  0  0  0
 29 30  1  0  0  0  0
 29 28  2  0  0  0  0
 30 31  1  0  0  0  0
 31 33  1  0  0  0  0
 32 35  1  0  0  0  0
 33 32  2  0  0  0  0
 35 34  2  0  0  0  0
 36 35  1  0  0  0  0
 37 38  1  0  0  0  0
 38 42  1  0  0  0  0
 39 40  1  0  0  0  0
 41 39  2  0  0  0  0
 42 40  2  0  0  0  0
 43 41  1  0  0  0  0
 43 38  2  0  0  0  0
M  END
>  <MODEL>
7

>  <REMARK>
 VINA RESULT:      -4.9      3.237      5.387
  Name = 
  15 active torsions:
  status: ('A' for Active; 'I' for Inactive)
    1  A    between atoms: C_1  and  C_34
    2  A    between atoms: C_1  and  C_35
    3  A    between atoms: C_3  and  C_12
    4  A    between atoms: C_4  and  C_15
    5  A    between atoms: C_8  and  C_13
    6  A    between atoms: C_8  and  C_34
    7  A    between atoms: C_9  and  C_19
    8  A    between atoms: C_9  and  C_35
    9  A    between atoms: C_10  and  C_41
   10  A    between atoms: C_10  and  C_42
   11  A    between atoms: C_11  and  C_14
   12  A    between atoms: C_14  and  C_41
   13  A    between atoms: C_15  and  C_22
   14  A    between atoms: C_21  and  C_41
   15  A    between atoms: C_22  and  C_42
                            x       y       z     vdW  Elec       q    Type
                         _______ _______ _______ _____ _____    ______ ____

>  <TORSDO>
F 15

$$$$
=
 OpenBabel11052416443D

 43 47  0  0  1  0  0  0  0  0999 V2000
  191.6940  179.1480  143.9350 C   0  0  0  0  0  0  0  0  0  0  0  0
  189.6750  177.0780  139.4260 C   0  0  1  0  0  0  0  0  0  0  0  0
  189.6390  179.0370  142.6040 C   0  0  2  0  0  3  0  0  0  0  0  0
  192.2860  177.9760  143.1970 C   0  0  0  0  0  2  0  0  0  0  0  0
  192.4230  179.9000  144.5590 O   0  0  0  0  0  0  0  0  0  0  0  0
  190.0090  177.6500  142.0730 C   0  0  2  0  0  0  0  0  0  0  0  0
  190.2070  179.3360  143.9870 C   0  0  0  0  0  2  0  0  0  0  0  0
  191.5380  177.6970  141.8820 C   0  0  0  0  0  2  0  0  0  0  0  0
  188.9070  176.2970  140.3150 O   0  0  0  0  0  0  0  0  0  0  0  0
  189.1990  177.6110  140.7520 C   0  0  2  0  0  0  0  0  0  0  0  0
  187.6780  178.6280  140.8270 S   0  0  0  0  0  0  0  0  0  0  0  0
  188.1520  179.2750  142.4620 C   0  0  0  0  0  2  0  0  0  0  0  0
  191.0930  175.2910  138.3790 C   0  0  0  0  0  1  0  0  0  0  0  0
  191.0840  176.5180  139.2730 C   0  0  0  0  0  2  0  0  0  0  0  0
  188.9260  177.4300  138.1300 C   0  0  1  0  0  3  0  0  0  0  0  0
  189.7820  177.8750  137.1170 O   0  0  0  0  0  1  0  0  0  0  0  0
  188.0810  176.2520  137.6500 C   0  0  0  0  0  2  0  0  0  0  0  0
  186.0920  177.8070  137.4490 C   0  0  0  0  0  1  0  0  0  0  0  0
  186.8800  176.6740  136.8040 C   0  0  2  0  0  3  0  0  0  0  0  0
  186.0080  175.4700  136.3960 C   0  0  1  0  0  3  0  0  0  0  0  0
  186.0720  175.2300  135.0200 O   0  0  0  0  0  1  0  0  0  0  0  0
  186.2640  174.1720  137.1780 C   0  0  0  0  0  3  0  0  0  0  0  0
  185.3620  172.2890  136.6900 C   0  0  0  0  0  2  0  0  0  0  0  0
  186.6250  173.0130  136.2650 C   0  0  0  0  0  2  0  0  0  0  0  0
  184.9950  173.4520  137.5940 C   0  0  0  0  0  2  0  0  0  0  0  0
  189.5840  176.5470  143.1040 C   0  0  2  0  0  3  0  0  0  0  0  0
  190.3860  175.2360  143.1360 C   0  0  0  0  0  2  0  0  0  0  0  0
  192.4310  174.4940  144.0590 O   0  0  0  0  0  0  0  0  0  0  0  0
  191.4260  175.1720  144.2090 C   0  0  0  0  0  0  0  0  0  0  0  0
  191.2010  175.9200  145.4850 C   0  0  0  0  0  2  0  0  0  0  0  0
  191.9420  175.2770  146.6460 C   0  0  0  0  0  2  0  0  0  0  0  0
  193.1610  176.0030  148.6320 C   0  0  0  0  0  3  0  0  0  0  0  0
  192.3180  176.3070  147.6550 C   0  0  0  0  0  3  0  0  0  0  0  0
  194.5650  176.7680  150.3610 O   0  0  0  0  0  0  0  0  0  0  0  0
  193.5540  176.9880  149.6440 C   0  0  0  0  0  0  0  0  0  0  0  0
  192.8080  178.1880  149.8290 N   0  0  0  0  0  1  0  0  0  0  0  0
  188.0810  176.3520  143.3180 C   0  0  0  0  0  2  0  0  0  0  0  0
  187.6390  176.9980  144.5850 C   0  0  0  0  0  0  0  0  0  0  0  0
  186.8260  178.2490  146.9530 C   0  0  0  0  0  3  0  0  0  0  0  0
  188.1240  177.7430  146.8400 C   0  0  0  0  0  3  0  0  0  0  0  0
  185.9330  178.1320  145.8820 C   0  0  0  0  0  3  0  0  0  0  0  0
  188.5320  177.1200  145.6560 C   0  0  0  0  0  3  0  0  0  0  0  0
  186.3410  177.5100  144.6980 C   0  0  0  0  0  3  0  0  0  0  0  0
  1  7  1  0  0  0  0
  1  5  2  0  0  0  0
  2 14  1  6  0  0  0
  2  9  1  0  0  0  0
  2 10  1  0  0  0  0
  3 12  1  1  0  0  0
  3  7  1  0  0  0  0
  4  1  1  0  0  0  0
  6  3  1  0  0  0  0
  6 26  1  1  0  0  0
  8  6  1  0  0  0  0
  8  4  1  0  0  0  0
 10  9  1  1  0  0  0
 10 11  1  0  0  0  0
 10  6  1  0  0  0  0
 11 12  1  0  0  0  0
 13 14  1  0  0  0  0
 15 16  1  6  0  0  0
 15  2  1  0  0  0  0
 17 15  1  0  0  0  0
 19 18  1  1  0  0  0
 19 17  1  0  0  0  0
 20 21  1  6  0  0  0
 20 19  1  0  0  0  0
 20 22  1  0  0  0  0
 22 25  1  0  0  0  0
 23 25  1  0  0  0  0
 24 23  1  0  0  0  0
 24 22  1  0  0  0  0
 26 27  1  6  0  0  0
 26 37  1  0  0  0  0
 27 29  1  0  0  0  0
 28 29  2  0  0  0  0
 29 30  1  0  0  0  0
 30 31  1  0  0  0  0
 31 33  1  0  0  0  0
 32 35  1  0  0  0  0
 33 32  2  0  0  0  0
 35 36  1  0  0  0  0
 35 34  2  0  0  0  0
 37 38  1  0  0  0  0
 38 43  2  0  0  0  0
 38 42  1  0  0  0  0
 40 39  1  0  0  0  0
 41 39  2  0  0  0  0
 42 40  2  0  0  0  0
 43 41  1  0  0  0  0
M  END
>  <MODEL>
8

>  <REMARK>
 VINA RESULT:      -4.6      4.677      7.685
  Name = 
  15 active torsions:
  status: ('A' for Active; 'I' for Inactive)
    1  A    between atoms: C_1  and  C_34
    2  A    between atoms: C_1  and  C_35
    3  A    between atoms: C_3  and  C_12
    4  A    between atoms: C_4  and  C_15
    5  A    between atoms: C_8  and  C_13
    6  A    between atoms: C_8  and  C_34
    7  A    between atoms: C_9  and  C_19
    8  A    between atoms: C_9  and  C_35
    9  A    between atoms: C_10  and  C_41
   10  A    between atoms: C_10  and  C_42
   11  A    between atoms: C_11  and  C_14
   12  A    between atoms: C_14  and  C_41
   13  A    between atoms: C_15  and  C_22
   14  A    between atoms: C_21  and  C_41
   15  A    between atoms: C_22  and  C_42
                            x       y       z     vdW  Elec       q    Type
                         _______ _______ _______ _____ _____    ______ ____

>  <TORSDO>
F 15

$$$$
=
 OpenBabel11052416443D

 43 47  0  0  1  0  0  0  0  0999 V2000
  181.1020  180.3450  138.9460 C   0  0  0  0  0  0  0  0  0  0  0  0
  181.1020  175.4900  136.6820 C   0  0  1  0  0  0  0  0  0  0  0  0
  180.6640  177.9820  139.4280 C   0  0  2  0  0  3  0  0  0  0  0  0
  181.8470  179.9930  137.6850 C   0  0  0  0  0  2  0  0  0  0  0  0
  180.6750  181.4750  139.1010 O   0  0  0  0  0  0  0  0  0  0  0  0
  181.6940  177.5360  138.3870 C   0  0  2  0  0  0  0  0  0  0  0  0
  180.9700  179.3390  140.0510 C   0  0  0  0  0  2  0  0  0  0  0  0
  181.5540  178.5520  137.2360 C   0  0  0  0  0  2  0  0  0  0  0  0
  182.1930  175.2610  137.5460 O   0  0  0  0  0  0  0  0  0  0  0  0
  181.1820  176.1120  138.0510 C   0  0  2  0  0  0  0  0  0  0  0  0
  180.3090  175.3270  139.4560 S   0  0  0  0  0  0  0  0  0  0  0  0
  180.4050  176.8690  140.4200 C   0  0  0  0  0  2  0  0  0  0  0  0
  180.3250  176.7790  134.6720 C   0  0  0  0  0  1  0  0  0  0  0  0
  181.5290  176.2710  135.4450 C   0  0  0  0  0  2  0  0  0  0  0  0
  180.2450  174.2350  136.4450 C   0  0  1  0  0  3  0  0  0  0  0  0
  178.9330  174.5410  136.0680 O   0  0  0  0  0  1  0  0  0  0  0  0
  180.9020  173.3100  135.4240 C   0  0  0  0  0  2  0  0  0  0  0  0
  180.6000  171.5070  137.1770 C   0  0  0  0  0  1  0  0  0  0  0  0
  181.4700  172.0320  136.0430 C   0  0  2  0  0  3  0  0  0  0  0  0
  182.9550  172.1850  136.4240 C   0  0  1  0  0  3  0  0  0  0  0  0
  183.3980  171.1160  137.2110 O   0  0  0  0  0  1  0  0  0  0  0  0
  183.9200  172.4210  135.2520 C   0  0  0  0  0  3  0  0  0  0  0  0
  185.8000  173.4340  135.4410 C   0  0  0  0  0  2  0  0  0  0  0  0
  185.3400  171.9960  135.5810 C   0  0  0  0  0  2  0  0  0  0  0  0
  184.3790  173.8620  135.1230 C   0  0  0  0  0  2  0  0  0  0  0  0
  183.1340  177.5560  139.0100 C   0  0  2  0  0  3  0  0  0  0  0  0
  183.7910  178.9210  139.2740 C   0  0  0  0  0  2  0  0  0  0  0  0
  185.4960  179.7340  140.6940 O   0  0  0  0  0  0  0  0  0  0  0  0
  184.5140  179.0160  140.5800 C   0  0  0  0  0  0  0  0  0  0  0  0
  184.0420  178.1910  141.7350 C   0  0  0  0  0  2  0  0  0  0  0  0
  183.3650  179.0490  142.7920 C   0  0  0  0  0  2  0  0  0  0  0  0
  184.8770  178.2730  144.5440 C   0  0  0  0  0  3  0  0  0  0  0  0
  184.2920  179.2940  143.9330 C   0  0  0  0  0  3  0  0  0  0  0  0
  187.0280  178.2980  145.5010 O   0  0  0  0  0  0  0  0  0  0  0  0
  185.7940  178.4720  145.6710 C   0  0  0  0  0  0  0  0  0  0  0  0
  185.3060  178.8580  146.9530 N   0  0  0  0  0  1  0  0  0  0  0  0
  184.1120  176.4910  138.5060 C   0  0  0  0  0  2  0  0  0  0  0  0
  185.0720  177.0750  137.5280 C   0  0  0  0  0  0  0  0  0  0  0  0
  186.8560  178.2090  135.6950 C   0  0  0  0  0  3  0  0  0  0  0  0
  185.6280  177.7050  135.2550 C   0  0  0  0  0  3  0  0  0  0  0  0
  187.1920  178.1500  137.0510 C   0  0  0  0  0  3  0  0  0  0  0  0
  184.7360  177.1390  136.1710 C   0  0  0  0  0  3  0  0  0  0  0  0
  186.2990  177.5850  137.9680 C   0  0  0  0  0  3  0  0  0  0  0  0
  1  5  2  0  0  0  0
  1  7  1  0  0  0  0
  2 14  1  6  0  0  0
  2  9  1  0  0  0  0
  2 10  1  0  0  0  0
  3  7  1  1  0  0  0
  3 12  1  0  0  0  0
  4  1  1  0  0  0  0
  6 26  1  1  0  0  0
  6  3  1  0  0  0  0
  8  4  1  0  0  0  0
  8  6  1  0  0  0  0
 10  9  1  1  0  0  0
 10  6  1  0  0  0  0
 10 11  1  0  0  0  0
 11 12  1  0  0  0  0
 13 14  1  0  0  0  0
 15 16  1  6  0  0  0
 15  2  1  0  0  0  0
 17 19  1  0  0  0  0
 17 15  1  0  0  0  0
 19 20  1  0  0  0  0
 19 18  1  1  0  0  0
 20 21  1  6  0  0  0
 22 24  1  0  0  0  0
 22 20  1  0  0  0  0
 23 24  1  0  0  0  0
 25 22  1  0  0  0  0
 25 23  1  0  0  0  0
 26 37  1  6  0  0  0
 26 27  1  0  0  0  0
 27 29  1  0  0  0  0
 29 28  2  0  0  0  0
 29 30  1  0  0  0  0
 30 31  1  0  0  0  0
 31 33  1  0  0  0  0
 32 35  1  0  0  0  0
 33 32  2  0  0  0  0
 34 35  2  0  0  0  0
 35 36  1  0  0  0  0
 38 43  1  0  0  0  0
 38 37  1  0  0  0  0
 39 41  1  0  0  0  0
 40 39  2  0  0  0  0
 40 42  1  0  0  0  0
 41 43  2  0  0  0  0
 42 38  2  0  0  0  0
M  END
>  <MODEL>
9

>  <REMARK>
 VINA RESULT:      -4.6      2.807      5.371
  Name = 
  15 active torsions:
  status: ('A' for Active; 'I' for Inactive)
    1  A    between atoms: C_1  and  C_34
    2  A    between atoms: C_1  and  C_35
    3  A    between atoms: C_3  and  C_12
    4  A    between atoms: C_4  and  C_15
    5  A    between atoms: C_8  and  C_13
    6  A    between atoms: C_8  and  C_34
    7  A    between atoms: C_9  and  C_19
    8  A    between atoms: C_9  and  C_35
    9  A    between atoms: C_10  and  C_41
   10  A    between atoms: C_10  and  C_42
   11  A    between atoms: C_11  and  C_14
   12  A    between atoms: C_14  and  C_41
   13  A    between atoms: C_15  and  C_22
   14  A    between atoms: C_21  and  C_41
   15  A    between atoms: C_22  and  C_42
                            x       y       z     vdW  Elec       q    Type
                         _______ _______ _______ _____ _____    ______ ____

>  <TORSDO>
F 15

$$$$
