=
 OpenBabel11052416093D

 43 49  0  0  1  0  0  0  0  0999 V2000
  191.0210  176.1850  146.8560 N   0  0  0  0  0  0  0  0  0  0  0  0
  189.0020  177.6330  142.4800 C   0  0  0  0  0  0  0  0  0  0  0  0
  186.2500  177.8310  142.7130 C   0  0  2  0  0  3  0  0  0  0  0  0
  190.7200  176.9920  144.5680 C   0  0  0  0  0  0  0  0  0  0  0  0
  189.9930  177.1330  147.2770 C   0  0  0  0  0  2  0  0  0  0  0  0
  192.0090  176.1410  147.9190 C   0  0  0  0  0  1  0  0  0  0  0  0
  189.3650  177.2580  144.8490 C   0  0  0  0  0  0  0  0  0  0  0  0
  191.6950  176.7350  145.6810 C   0  0  0  0  0  2  0  0  0  0  0  0
  188.8510  177.1350  146.2610 C   0  0  0  0  0  2  0  0  0  0  0  0
  187.0290  177.8300  144.0370 C   0  0  0  0  0  2  0  0  0  0  0  0
  188.4900  177.5510  143.7900 C   0  0  0  0  0  0  0  0  0  0  0  0
  190.3160  177.3660  142.2450 N   0  0  0  0  0  0  0  0  0  0  0  0
  188.0450  177.8830  141.3350 C   0  0  1  0  0  3  0  0  0  0  0  0
  186.9270  178.6250  141.7710 O   0  0  0  0  0  0  0  0  0  0  0  0
  191.1760  177.0630  143.2520 C   0  0  0  0  0  3  0  0  0  0  0  0
  184.8250  178.3420  142.8900 C   0  0  1  0  0  3  0  0  0  0  0  0
  184.6700  179.0590  144.2220 C   0  0  0  0  0  1  0  0  0  0  0  0
  184.4660  179.2060  141.8130 O   0  0  0  0  0  0  0  0  0  0  0  0
  183.9710  178.7510  140.5840 C   0  0  0  0  0  0  0  0  0  0  0  0
  184.3030  179.3410  139.4380 C   0  0  0  0  0  2  0  0  0  0  0  0
  183.0770  177.5520  140.5480 C   0  0  2  0  0  3  0  0  0  0  0  0
  182.7250  177.2130  139.1120 C   0  0  2  0  0  3  0  0  0  0  0  0
  180.8720  175.7540  139.4530 O   0  0  0  0  0  0  0  0  0  0  0  0
  181.7200  177.9160  139.9740 C   0  0  1  0  0  3  0  0  0  0  0  0
  182.2120  175.7910  139.0380 C   0  0  1  0  0  3  0  0  0  0  0  0
  180.7120  176.8440  140.3230 C   0  0  0  0  0  2  0  0  0  0  0  0
  182.3390  175.2670  137.6790 N   0  0  0  0  0  0  0  0  0  0  0  0
  181.5060  175.8320  136.6220 C   0  0  0  0  0  1  0  0  0  0  0  0
  183.3110  174.2460  137.3780 C   0  0  0  0  0  0  0  0  0  0  0  0
  183.8440  171.9600  136.7340 C   0  0  0  0  0  3  0  0  0  0  0  0
  185.6290  173.5390  137.1440 C   0  0  0  0  0  3  0  0  0  0  0  0
  185.2080  172.2550  136.7940 C   0  0  0  0  0  3  0  0  0  0  0  0
  184.6860  174.5280  137.4350 C   0  0  0  0  0  3  0  0  0  0  0  0
  182.9010  172.9490  137.0240 C   0  0  0  0  0  3  0  0  0  0  0  0
  188.7320  178.6270  140.1960 C   0  0  0  0  0  2  0  0  0  0  0  0
  187.2790  177.1050  137.0460 C   0  0  0  0  0  3  0  0  0  0  0  0
  188.3770  176.3940  136.5520 C   0  0  0  0  0  0  0  0  0  0  0  0
  189.7120  177.1500  138.4260 C   0  0  0  0  0  3  0  0  0  0  0  0
  187.3980  177.8380  138.2300 C   0  0  0  0  0  3  0  0  0  0  0  0
  188.6150  177.8660  138.9200 C   0  0  0  0  0  0  0  0  0  0  0  0
  189.5930  176.4170  137.2420 C   0  0  0  0  0  3  0  0  0  0  0  0
  188.6920  174.0710  135.4590 O   0  0  0  0  0  0  0  0  0  0  0  0
  188.2270  175.4630  135.0540 S   0  0  0  0  0  3  0  0  0  0  0  0
  1  5  1  0  0  0  0
  1  6  1  0  0  0  0
  2 11  1  0  0  0  0
  3 16  1  1  0  0  0
  3 10  1  0  0  0  0
  4  7  1  0  0  0  0
  4  8  1  0  0  0  0
  7  9  1  0  0  0  0
  8  1  1  0  0  0  0
  9  5  1  0  0  0  0
 11 10  1  0  0  0  0
 11  7  2  0  0  0  0
 12  2  2  0  0  0  0
 12 15  1  0  0  0  0
 13 35  1  6  0  0  0
 13 14  1  0  0  0  0
 13  2  1  0  0  0  0
 14  3  1  0  0  0  0
 15  4  2  0  0  0  0
 16 17  1  1  0  0  0
 18 16  1  0  0  0  0
 19 18  1  0  0  0  0
 20 19  2  0  0  0  0
 21 19  1  6  0  0  0
 22 24  1  0  0  0  0
 22 21  1  0  0  0  0
 23 26  1  0  0  0  0
 24 26  1  0  0  0  0
 24 21  1  0  0  0  0
 25 22  1  0  0  0  0
 25 23  1  0  0  0  0
 27 25  1  0  0  0  0
 28 27  1  0  0  0  0
 29 33  1  0  0  0  0
 29 27  1  0  0  0  0
 30 32  2  0  0  0  0
 30 34  1  0  0  0  0
 31 33  2  0  0  0  0
 32 31  1  0  0  0  0
 34 29  2  0  0  0  0
 36 39  1  0  0  0  0
 37 36  2  0  0  0  0
 37 41  1  0  0  0  0
 38 40  1  0  0  0  0
 39 40  2  0  0  0  0
 40 35  1  0  0  0  0
 41 38  2  0  0  0  0
 43 42  2  0  0  0  0
 43 37  1  0  0  0  0
M  END
>  <MODEL>
1

>  <REMARK>
 VINA RESULT:      -9.1      0.000      0.000
  Name = 
  9 active torsions:
  status: ('A' for Active; 'I' for Inactive)
    1  A    between atoms: C_1  and  C_34
    2  A    between atoms: C_1  and  C_35
    3  A    between atoms: C_2  and  O_6
    4  A    between atoms: C_2  and  C_13
    5  A    between atoms: C_3  and  C_12
    6  A    between atoms: O_6  and  C_12
    7  A    between atoms: C_11  and  N_14
    8  A    between atoms: N_14  and  C_22
    9  A    between atoms: C_19  and  S_37
                            x       y       z     vdW  Elec       q    Type
                         _______ _______ _______ _____ _____    ______ ____

>  <TORSDO>
F 9

$$$$
=
 OpenBabel11052416093D

 43 49  0  0  1  0  0  0  0  0999 V2000
  193.5020  175.0720  135.6060 N   0  0  0  0  0  0  0  0  0  0  0  0
  189.0420  176.8600  137.1040 C   0  0  0  0  0  0  0  0  0  0  0  0
  189.0580  177.3060  139.8360 C   0  0  2  0  0  3  0  0  0  0  0  0
  191.2340  175.9860  135.6360 C   0  0  0  0  0  0  0  0  0  0  0  0
  193.8770  176.0970  136.5760 C   0  0  0  0  0  2  0  0  0  0  0  0
  194.6390  174.8980  134.7210 C   0  0  0  0  0  1  0  0  0  0  0  0
  191.4140  176.3680  136.9800 C   0  0  0  0  0  0  0  0  0  0  0  0
  192.4100  175.5980  134.7870 C   0  0  0  0  0  2  0  0  0  0  0  0
  192.7730  176.2430  137.6220 C   0  0  0  0  0  2  0  0  0  0  0  0
  190.4390  177.1850  139.1770 C   0  0  0  0  0  2  0  0  0  0  0  0
  190.3010  176.7790  137.7310 C   0  0  0  0  0  0  0  0  0  0  0  0
  188.9040  176.4780  135.8040 N   0  0  0  0  0  0  0  0  0  0  0  0
  187.8350  177.2390  137.9330 C   0  0  1  0  0  3  0  0  0  0  0  0
  188.2090  178.0660  139.0120 O   0  0  0  0  0  0  0  0  0  0  0  0
  189.9640  176.0610  135.0640 C   0  0  0  0  0  3  0  0  0  0  0  0
  189.1400  177.9430  141.2190 C   0  0  1  0  0  3  0  0  0  0  0  0
  187.8540  178.6850  141.5490 C   0  0  0  0  0  1  0  0  0  0  0  0
  189.4150  176.9540  142.2090 O   0  0  0  0  0  0  0  0  0  0  0  0
  190.5930  176.9210  142.9680 C   0  0  0  0  0  0  0  0  0  0  0  0
  191.7560  177.3300  142.4660 C   0  0  0  0  0  2  0  0  0  0  0  0
  190.5430  176.4490  144.3860 C   0  0  2  0  0  3  0  0  0  0  0  0
  189.8340  177.4770  145.2480 C   0  0  2  0  0  3  0  0  0  0  0  0
  190.4870  176.7470  147.4200 O   0  0  0  0  0  0  0  0  0  0  0  0
  191.3300  177.3840  145.2870 C   0  0  1  0  0  3  0  0  0  0  0  0
  189.3940  176.8350  146.5450 C   0  0  1  0  0  3  0  0  0  0  0  0
  191.6270  176.6980  146.6020 C   0  0  0  0  0  2  0  0  0  0  0  0
  188.3110  177.6020  147.1590 N   0  0  0  0  0  0  0  0  0  0  0  0
  188.4680  178.0730  148.5310 C   0  0  0  0  0  1  0  0  0  0  0  0
  187.1300  177.9330  146.4020 C   0  0  0  0  0  0  0  0  0  0  0  0
  185.8260  177.7930  144.3500 C   0  0  0  0  0  3  0  0  0  0  0  0
  184.9730  179.0490  146.2330 C   0  0  0  0  0  3  0  0  0  0  0  0
  184.8270  178.5820  144.9250 C   0  0  0  0  0  3  0  0  0  0  0  0
  186.1180  178.7260  146.9660 C   0  0  0  0  0  3  0  0  0  0  0  0
  186.9710  177.4700  145.0840 C   0  0  0  0  0  3  0  0  0  0  0  0
  186.7890  177.9560  137.0860 C   0  0  0  0  0  2  0  0  0  0  0  0
  183.6870  178.3600  139.2230 C   0  0  0  0  0  3  0  0  0  0  0  0
  182.8800  177.3290  138.7330 C   0  0  0  0  0  0  0  0  0  0  0  0
  184.6150  176.7150  137.1590 C   0  0  0  0  0  3  0  0  0  0  0  0
  184.9590  178.5680  138.6810 C   0  0  0  0  0  3  0  0  0  0  0  0
  185.4230  177.7490  137.6460 C   0  0  0  0  0  0  0  0  0  0  0  0
  183.3430  176.5070  137.7010 C   0  0  0  0  0  3  0  0  0  0  0  0
  180.7350  178.4760  139.6120 O   0  0  0  0  0  0  0  0  0  0  0  0
  181.2700  177.0630  139.4210 S   0  0  0  0  0  3  0  0  0  0  0  0
  1  5  1  0  0  0  0
  2 11  1  0  0  0  0
  2 13  1  0  0  0  0
  3 16  1  1  0  0  0
  4  7  1  0  0  0  0
  5  9  1  0  0  0  0
  6  1  1  0  0  0  0
  7  9  1  0  0  0  0
  7 11  2  0  0  0  0
  8  1  1  0  0  0  0
  8  4  1  0  0  0  0
 10  3  1  0  0  0  0
 11 10  1  0  0  0  0
 12  2  2  0  0  0  0
 13 35  1  6  0  0  0
 13 14  1  0  0  0  0
 14  3  1  0  0  0  0
 15  4  2  0  0  0  0
 15 12  1  0  0  0  0
 16 17  1  1  0  0  0
 16 18  1  0  0  0  0
 18 19  1  0  0  0  0
 20 19  2  0  0  0  0
 21 19  1  6  0  0  0
 21 22  1  0  0  0  0
 21 24  1  0  0  0  0
 22 24  1  0  0  0  0
 22 25  1  0  0  0  0
 24 26  1  0  0  0  0
 25 27  1  0  0  0  0
 25 23  1  0  0  0  0
 26 23  1  0  0  0  0
 27 28  1  0  0  0  0
 29 33  1  0  0  0  0
 29 27  1  0  0  0  0
 30 32  2  0  0  0  0
 30 34  1  0  0  0  0
 31 33  2  0  0  0  0
 32 31  1  0  0  0  0
 34 29  2  0  0  0  0
 35 40  1  0  0  0  0
 37 36  1  0  0  0  0
 37 43  1  0  0  0  0
 38 40  2  0  0  0  0
 38 41  1  0  0  0  0
 39 36  2  0  0  0  0
 40 39  1  0  0  0  0
 41 37  2  0  0  0  0
 43 42  2  0  0  0  0
M  END
>  <MODEL>
2

>  <REMARK>
 VINA RESULT:      -9.0      3.057      8.692
  Name = 
  9 active torsions:
  status: ('A' for Active; 'I' for Inactive)
    1  A    between atoms: C_1  and  C_34
    2  A    between atoms: C_1  and  C_35
    3  A    between atoms: C_2  and  O_6
    4  A    between atoms: C_2  and  C_13
    5  A    between atoms: C_3  and  C_12
    6  A    between atoms: O_6  and  C_12
    7  A    between atoms: C_11  and  N_14
    8  A    between atoms: N_14  and  C_22
    9  A    between atoms: C_19  and  S_37
                            x       y       z     vdW  Elec       q    Type
                         _______ _______ _______ _____ _____    ______ ____

>  <TORSDO>
F 9

$$$$
=
 OpenBabel11052416093D

 43 49  0  0  1  0  0  0  0  0999 V2000
  191.3970  177.0280  146.9160 N   0  0  0  0  0  0  0  0  0  0  0  0
  187.5570  177.8470  143.7670 C   0  0  0  0  0  0  0  0  0  0  0  0
  188.4990  178.2690  141.1980 C   0  0  2  0  0  3  0  0  0  0  0  0
  189.1580  177.2240  145.9510 C   0  0  0  0  0  0  0  0  0  0  0  0
  191.7940  176.2800  145.7260 C   0  0  0  0  0  2  0  0  0  0  0  0
  192.0960  176.4300  148.0380 C   0  0  0  0  0  1  0  0  0  0  0  0
  189.7240  177.2190  144.6600 C   0  0  0  0  0  0  0  0  0  0  0  0
  189.9700  176.8020  147.1420 C   0  0  0  0  0  2  0  0  0  0  0  0
  191.1940  176.9360  144.4830 C   0  0  0  0  0  2  0  0  0  0  0  0
  189.4830  177.5880  142.1600 C   0  0  0  0  0  2  0  0  0  0  0  0
  188.9220  177.5650  143.5590 C   0  0  0  0  0  0  0  0  0  0  0  0
  187.0460  177.8470  145.0290 N   0  0  0  0  0  0  0  0  0  0  0  0
  186.7140  178.2840  142.5890 C   0  0  1  0  0  3  0  0  0  0  0  0
  187.2110  177.7370  141.3880 O   0  0  0  0  0  0  0  0  0  0  0  0
  187.8080  177.5320  146.1090 C   0  0  0  0  0  3  0  0  0  0  0  0
  188.9160  178.1000  139.7410 C   0  0  1  0  0  3  0  0  0  0  0  0
  189.8480  176.9090  139.5810 C   0  0  0  0  0  1  0  0  0  0  0  0
  187.7700  177.9530  138.9060 O   0  0  0  0  0  0  0  0  0  0  0  0
  187.7550  178.2780  137.5420 C   0  0  0  0  0  0  0  0  0  0  0  0
  188.6720  179.0830  137.0080 C   0  0  0  0  0  2  0  0  0  0  0  0
  186.7100  177.6810  136.6540 C   0  0  2  0  0  3  0  0  0  0  0  0
  186.3880  176.2710  137.1100 C   0  0  2  0  0  3  0  0  0  0  0  0
  185.2470  175.4440  135.1890 O   0  0  0  0  0  0  0  0  0  0  0  0
  187.2640  176.4790  135.9110 C   0  0  1  0  0  3  0  0  0  0  0  0
  185.0630  175.8380  136.5230 C   0  0  1  0  0  3  0  0  0  0  0  0
  186.3730  176.1480  134.7360 C   0  0  0  0  0  2  0  0  0  0  0  0
  184.4860  174.7440  137.3020 N   0  0  0  0  0  0  0  0  0  0  0  0
  185.2850  173.5450  137.5390 C   0  0  0  0  0  1  0  0  0  0  0  0
  183.1690  174.8700  137.8750 C   0  0  0  0  0  0  0  0  0  0  0  0
  180.8070  174.2800  137.8930 C   0  0  0  0  0  3  0  0  0  0  0  0
  181.6700  175.8350  139.5330 C   0  0  0  0  0  3  0  0  0  0  0  0
  180.6000  175.1190  138.9910 C   0  0  0  0  0  3  0  0  0  0  0  0
  182.9460  175.7110  138.9770 C   0  0  0  0  0  3  0  0  0  0  0  0
  182.0830  174.1560  137.3380 C   0  0  0  0  0  3  0  0  0  0  0  0
  185.2580  177.8660  142.7700 C   0  0  0  0  0  2  0  0  0  0  0  0
  182.2130  179.0210  140.8360 C   0  0  0  0  0  3  0  0  0  0  0  0
  182.7970  179.4820  139.6520 C   0  0  0  0  0  0  0  0  0  0  0  0
  184.9880  178.9020  140.5060 C   0  0  0  0  0  3  0  0  0  0  0  0
  183.0160  178.5010  141.8540 C   0  0  0  0  0  3  0  0  0  0  0  0
  184.4050  178.4450  141.6930 C   0  0  0  0  0  0  0  0  0  0  0  0
  184.1840  179.4230  139.4870 C   0  0  0  0  0  3  0  0  0  0  0  0
  182.0340  181.6380  138.4430 O   0  0  0  0  0  0  0  0  0  0  0  0
  181.7800  180.1390  138.3600 S   0  0  0  0  0  3  0  0  0  0  0  0
  1  8  1  0  0  0  0
  1  6  1  0  0  0  0
  2 12  1  0  0  0  0
  3 16  1  6  0  0  0
  3 14  1  0  0  0  0
  3 10  1  0  0  0  0
  4 15  1  0  0  0  0
  4  8  1  0  0  0  0
  5  1  1  0  0  0  0
  7  4  2  0  0  0  0
  9  7  1  0  0  0  0
  9  5  1  0  0  0  0
 10 11  1  0  0  0  0
 11  2  2  0  0  0  0
 11  7  1  0  0  0  0
 12 15  2  0  0  0  0
 13 35  1  1  0  0  0
 13  2  1  0  0  0  0
 14 13  1  0  0  0  0
 16 17  1  1  0  0  0
 18 16  1  0  0  0  0
 19 18  1  0  0  0  0
 20 19  2  0  0  0  0
 21 22  1  0  0  0  0
 21 19  1  1  0  0  0
 23 25  1  0  0  0  0
 24 21  1  0  0  0  0
 24 22  1  0  0  0  0
 25 22  1  0  0  0  0
 25 27  1  0  0  0  0
 26 23  1  0  0  0  0
 26 24  1  0  0  0  0
 27 28  1  0  0  0  0
 27 29  1  0  0  0  0
 29 33  1  0  0  0  0
 30 32  2  0  0  0  0
 32 31  1  0  0  0  0
 33 31  2  0  0  0  0
 34 29  2  0  0  0  0
 34 30  1  0  0  0  0
 36 39  1  0  0  0  0
 37 36  2  0  0  0  0
 38 40  1  0  0  0  0
 40 39  2  0  0  0  0
 40 35  1  0  0  0  0
 41 37  1  0  0  0  0
 41 38  2  0  0  0  0
 43 42  2  0  0  0  0
 43 37  1  0  0  0  0
M  END
>  <MODEL>
3

>  <REMARK>
 VINA RESULT:      -9.0      2.199      4.804
  Name = 
  9 active torsions:
  status: ('A' for Active; 'I' for Inactive)
    1  A    between atoms: C_1  and  C_34
    2  A    between atoms: C_1  and  C_35
    3  A    between atoms: C_2  and  O_6
    4  A    between atoms: C_2  and  C_13
    5  A    between atoms: C_3  and  C_12
    6  A    between atoms: O_6  and  C_12
    7  A    between atoms: C_11  and  N_14
    8  A    between atoms: N_14  and  C_22
    9  A    between atoms: C_19  and  S_37
                            x       y       z     vdW  Elec       q    Type
                         _______ _______ _______ _____ _____    ______ ____

>  <TORSDO>
F 9

$$$$
=
 OpenBabel11052416093D

 43 49  0  0  1  0  0  0  0  0999 V2000
  180.1210  179.3180  138.1840 N   0  0  0  0  0  0  0  0  0  0  0  0
  183.3750  178.7710  141.9840 C   0  0  0  0  0  0  0  0  0  0  0  0
  185.9410  178.4220  141.0050 C   0  0  2  0  0  3  0  0  0  0  0  0
  181.1360  179.2440  140.4070 C   0  0  0  0  0  0  0  0  0  0  0  0
  181.2700  180.0990  137.7360 C   0  0  0  0  0  2  0  0  0  0  0  0
  178.9610  179.8420  137.4880 C   0  0  0  0  0  1  0  0  0  0  0  0
  182.4140  179.2820  139.8160 C   0  0  0  0  0  0  0  0  0  0  0  0
  179.9130  179.5860  139.6060 C   0  0  0  0  0  2  0  0  0  0  0  0
  182.5500  179.5170  138.3320 C   0  0  0  0  0  2  0  0  0  0  0  0
  184.9320  179.0270  140.0170 C   0  0  0  0  0  2  0  0  0  0  0  0
  183.5440  179.0110  140.6060 C   0  0  0  0  0  0  0  0  0  0  0  0
  182.1240  178.7380  142.5200 N   0  0  0  0  0  0  0  0  0  0  0  0
  184.5860  178.4150  142.8170 C   0  0  1  0  0  3  0  0  0  0  0  0
  185.7540  178.9920  142.2760 O   0  0  0  0  0  0  0  0  0  0  0  0
  181.0170  178.9790  141.7710 C   0  0  0  0  0  3  0  0  0  0  0  0
  187.3810  178.6360  140.5510 C   0  0  1  0  0  3  0  0  0  0  0  0
  188.3520  178.3580  141.6870 C   0  0  0  0  0  1  0  0  0  0  0  0
  187.6780  177.8110  139.4260 O   0  0  0  0  0  0  0  0  0  0  0  0
  187.8600  178.3050  138.1270 C   0  0  0  0  0  0  0  0  0  0  0  0
  189.0290  178.8030  137.7290 C   0  0  0  0  0  2  0  0  0  0  0  0
  186.7310  178.2390  137.1490 C   0  0  2  0  0  3  0  0  0  0  0  0
  186.1950  176.8220  137.0720 C   0  0  2  0  0  3  0  0  0  0  0  0
  184.9290  176.9460  135.0580 O   0  0  0  0  0  0  0  0  0  0  0  0
  187.0860  177.3360  135.9820 C   0  0  1  0  0  3  0  0  0  0  0  0
  184.8150  176.8350  136.4520 C   0  0  1  0  0  3  0  0  0  0  0  0
  186.1490  177.5990  134.8260 C   0  0  0  0  0  2  0  0  0  0  0  0
  184.0780  175.6240  136.8080 N   0  0  0  0  0  0  0  0  0  0  0  0
  184.6440  174.3230  136.4610 C   0  0  0  0  0  1  0  0  0  0  0  0
  182.8390  175.7110  137.5390 C   0  0  0  0  0  0  0  0  0  0  0  0
  180.4150  175.9400  137.5700 C   0  0  0  0  0  3  0  0  0  0  0  0
  181.6300  175.7420  139.6520 C   0  0  0  0  0  3  0  0  0  0  0  0
  180.4220  175.8840  138.9650 C   0  0  0  0  0  3  0  0  0  0  0  0
  182.8310  175.6570  138.9420 C   0  0  0  0  0  3  0  0  0  0  0  0
  181.6160  175.8540  136.8600 C   0  0  0  0  0  3  0  0  0  0  0  0
  184.4160  178.8780  144.2610 C   0  0  0  0  0  2  0  0  0  0  0  0
  186.8100  178.5080  147.1730 C   0  0  0  0  0  3  0  0  0  0  0  0
  187.7170  177.5730  146.6660 C   0  0  0  0  0  0  0  0  0  0  0  0
  186.4650  177.4780  144.5960 C   0  0  0  0  0  3  0  0  0  0  0  0
  185.7300  178.9280  146.3910 C   0  0  0  0  0  3  0  0  0  0  0  0
  185.5540  178.4100  145.1030 C   0  0  0  0  0  0  0  0  0  0  0  0
  187.5450  177.0570  145.3780 C   0  0  0  0  0  3  0  0  0  0  0  0
  190.2920  177.3600  146.7820 O   0  0  0  0  0  0  0  0  0  0  0  0
  189.0860  177.0420  147.6560 S   0  0  0  0  0  3  0  0  0  0  0  0
  1  8  1  0  0  0  0
  2 12  1  0  0  0  0
  2 13  1  0  0  0  0
  3 16  1  6  0  0  0
  3 14  1  0  0  0  0
  4 15  1  0  0  0  0
  5  1  1  0  0  0  0
  5  9  1  0  0  0  0
  6  1  1  0  0  0  0
  7  4  2  0  0  0  0
  7 11  1  0  0  0  0
  8  4  1  0  0  0  0
  9  7  1  0  0  0  0
 10 11  1  0  0  0  0
 10  3  1  0  0  0  0
 11  2  2  0  0  0  0
 13 35  1  1  0  0  0
 14 13  1  0  0  0  0
 15 12  2  0  0  0  0
 16 17  1  1  0  0  0
 18 16  1  0  0  0  0
 19 18  1  0  0  0  0
 20 19  2  0  0  0  0
 21 19  1  1  0  0  0
 22 21  1  0  0  0  0
 23 25  1  0  0  0  0
 24 22  1  0  0  0  0
 24 21  1  0  0  0  0
 25 27  1  0  0  0  0
 25 22  1  0  0  0  0
 26 23  1  0  0  0  0
 26 24  1  0  0  0  0
 27 29  1  0  0  0  0
 28 27  1  0  0  0  0
 29 33  1  0  0  0  0
 30 32  2  0  0  0  0
 32 31  1  0  0  0  0
 33 31  2  0  0  0  0
 34 29  2  0  0  0  0
 34 30  1  0  0  0  0
 35 40  1  0  0  0  0
 37 36  1  0  0  0  0
 37 43  1  0  0  0  0
 38 40  2  0  0  0  0
 38 41  1  0  0  0  0
 39 36  2  0  0  0  0
 40 39  1  0  0  0  0
 41 37  2  0  0  0  0
 42 43  2  0  0  0  0
M  END
>  <MODEL>
4

>  <REMARK>
 VINA RESULT:      -8.8      3.533      7.865
  Name = 
  9 active torsions:
  status: ('A' for Active; 'I' for Inactive)
    1  A    between atoms: C_1  and  C_34
    2  A    between atoms: C_1  and  C_35
    3  A    between atoms: C_2  and  O_6
    4  A    between atoms: C_2  and  C_13
    5  A    between atoms: C_3  and  C_12
    6  A    between atoms: O_6  and  C_12
    7  A    between atoms: C_11  and  N_14
    8  A    between atoms: N_14  and  C_22
    9  A    between atoms: C_19  and  S_37
                            x       y       z     vdW  Elec       q    Type
                         _______ _______ _______ _____ _____    ______ ____

>  <TORSDO>
F 9

$$$$
=
 OpenBabel11052416093D

 43 49  0  0  1  0  0  0  0  0999 V2000
  193.2510  174.9140  135.5020 N   0  0  0  0  0  0  0  0  0  0  0  0
  188.9490  176.9620  137.1240 C   0  0  0  0  0  0  0  0  0  0  0  0
  189.0310  177.3150  139.8690 C   0  0  2  0  0  3  0  0  0  0  0  0
  191.0540  175.9850  135.5960 C   0  0  0  0  0  0  0  0  0  0  0  0
  193.7110  175.8750  136.5000 C   0  0  0  0  0  2  0  0  0  0  0  0
  194.3610  174.6880  134.5950 C   0  0  0  0  0  1  0  0  0  0  0  0
  191.2790  176.3070  136.9490 C   0  0  0  0  0  0  0  0  0  0  0  0
  192.1890  175.5420  134.7170 C   0  0  0  0  0  2  0  0  0  0  0  0
  192.6330  176.0640  137.5660 C   0  0  0  0  0  2  0  0  0  0  0  0
  190.3930  177.1180  139.1860 C   0  0  0  0  0  2  0  0  0  0  0  0
  190.2070  176.7710  137.7300 C   0  0  0  0  0  0  0  0  0  0  0  0
  188.7680  176.6360  135.8150 N   0  0  0  0  0  0  0  0  0  0  0  0
  187.7830  177.3990  137.9830 C   0  0  1  0  0  3  0  0  0  0  0  0
  188.2290  178.1600  139.0830 O   0  0  0  0  0  0  0  0  0  0  0  0
  189.7860  176.1690  135.0460 C   0  0  0  0  0  3  0  0  0  0  0  0
  189.1760  177.8970  141.2700 C   0  0  1  0  0  3  0  0  0  0  0  0
  188.3150  179.1400  141.4300 C   0  0  0  0  0  1  0  0  0  0  0  0
  188.8350  176.9230  142.2550 O   0  0  0  0  0  0  0  0  0  0  0  0
  189.6530  176.6020  143.3470 C   0  0  0  0  0  0  0  0  0  0  0  0
  190.9620  176.4050  143.2020 C   0  0  0  0  0  2  0  0  0  0  0  0
  189.0540  176.5120  144.7140 C   0  0  2  0  0  3  0  0  0  0  0  0
  188.2500  177.7640  145.0100 C   0  0  2  0  0  3  0  0  0  0  0  0
  188.0100  177.5780  147.3730 O   0  0  0  0  0  0  0  0  0  0  0  0
  189.6120  177.6000  145.6140 C   0  0  1  0  0  3  0  0  0  0  0  0
  187.3060  177.5000  146.1620 C   0  0  1  0  0  3  0  0  0  0  0  0
  189.3410  177.2580  147.0610 C   0  0  0  0  0  2  0  0  0  0  0  0
  186.2010  178.4570  146.1530 N   0  0  0  0  0  0  0  0  0  0  0  0
  186.0560  179.3800  147.2750 C   0  0  0  0  0  1  0  0  0  0  0  0
  185.3020  178.5240  145.0290 C   0  0  0  0  0  0  0  0  0  0  0  0
  183.0990  179.0060  144.1100 C   0  0  0  0  0  3  0  0  0  0  0  0
  184.8670  178.2350  142.6510 C   0  0  0  0  0  3  0  0  0  0  0  0
  183.5470  178.6520  142.8350 C   0  0  0  0  0  3  0  0  0  0  0  0
  185.7380  178.1710  143.7420 C   0  0  0  0  0  3  0  0  0  0  0  0
  183.9700  178.9420  145.2010 C   0  0  0  0  0  3  0  0  0  0  0  0
  186.7800  178.2160  137.1760 C   0  0  0  0  0  2  0  0  0  0  0  0
  183.5360  177.9570  139.1140 C   0  0  0  0  0  3  0  0  0  0  0  0
  182.7780  177.1380  138.2720 C   0  0  0  0  0  0  0  0  0  0  0  0
  184.6240  177.0320  136.7090 C   0  0  0  0  0  3  0  0  0  0  0  0
  184.8390  178.3140  138.7530 C   0  0  0  0  0  3  0  0  0  0  0  0
  185.3830  177.8560  137.5480 C   0  0  0  0  0  0  0  0  0  0  0  0
  183.3210  176.6760  137.0700 C   0  0  0  0  0  3  0  0  0  0  0  0
  181.3300  175.4080  139.5380 O   0  0  0  0  0  0  0  0  0  0  0  0
  181.1290  176.6840  138.7310 S   0  0  0  0  0  3  0  0  0  0  0  0
  1  5  1  0  0  0  0
  2 11  1  0  0  0  0
  2 13  1  0  0  0  0
  3 16  1  1  0  0  0
  4  7  1  0  0  0  0
  5  9  1  0  0  0  0
  6  1  1  0  0  0  0
  7  9  1  0  0  0  0
  7 11  2  0  0  0  0
  8  1  1  0  0  0  0
  8  4  1  0  0  0  0
 10  3  1  0  0  0  0
 11 10  1  0  0  0  0
 12  2  2  0  0  0  0
 13 35  1  6  0  0  0
 13 14  1  0  0  0  0
 14  3  1  0  0  0  0
 15  4  2  0  0  0  0
 15 12  1  0  0  0  0
 16 17  1  6  0  0  0
 16 18  1  0  0  0  0
 18 19  1  0  0  0  0
 20 19  2  0  0  0  0
 21 19  1  6  0  0  0
 21 22  1  0  0  0  0
 21 24  1  0  0  0  0
 22 24  1  0  0  0  0
 22 25  1  0  0  0  0
 24 26  1  0  0  0  0
 25 23  1  0  0  0  0
 26 23  1  0  0  0  0
 27 25  1  0  0  0  0
 27 28  1  0  0  0  0
 29 34  1  0  0  0  0
 29 27  1  0  0  0  0
 30 34  2  0  0  0  0
 31 32  2  0  0  0  0
 31 33  1  0  0  0  0
 32 30  1  0  0  0  0
 33 29  2  0  0  0  0
 35 40  1  0  0  0  0
 37 43  1  0  0  0  0
 37 36  2  0  0  0  0
 38 41  2  0  0  0  0
 38 40  1  0  0  0  0
 39 36  1  0  0  0  0
 40 39  2  0  0  0  0
 41 37  1  0  0  0  0
 43 42  2  0  0  0  0
M  END
>  <MODEL>
5

>  <REMARK>
 VINA RESULT:      -8.8      3.016      8.058
  Name = 
  9 active torsions:
  status: ('A' for Active; 'I' for Inactive)
    1  A    between atoms: C_1  and  C_34
    2  A    between atoms: C_1  and  C_35
    3  A    between atoms: C_2  and  O_6
    4  A    between atoms: C_2  and  C_13
    5  A    between atoms: C_3  and  C_12
    6  A    between atoms: O_6  and  C_12
    7  A    between atoms: C_11  and  N_14
    8  A    between atoms: N_14  and  C_22
    9  A    between atoms: C_19  and  S_37
                            x       y       z     vdW  Elec       q    Type
                         _______ _______ _______ _____ _____    ______ ____

>  <TORSDO>
F 9

$$$$
=
 OpenBabel11052416093D

 43 49  0  0  1  0  0  0  0  0999 V2000
  187.5240  178.2570  147.0190 N   0  0  0  0  0  0  0  0  0  0  0  0
  183.8610  178.7680  143.6060 C   0  0  0  0  0  0  0  0  0  0  0  0
  184.9220  178.7210  141.0490 C   0  0  2  0  0  3  0  0  0  0  0  0
  185.3400  178.4170  145.9330 C   0  0  0  0  0  0  0  0  0  0  0  0
  187.9190  177.3080  145.9820 C   0  0  0  0  0  2  0  0  0  0  0  0
  188.1430  177.8100  148.2530 C   0  0  0  0  0  1  0  0  0  0  0  0
  185.9510  178.1750  144.6860 C   0  0  0  0  0  0  0  0  0  0  0  0
  186.0790  178.1480  147.2120 C   0  0  0  0  0  2  0  0  0  0  0  0
  187.4070  177.7880  144.6250 C   0  0  0  0  0  2  0  0  0  0  0  0
  185.8260  178.1500  142.1510 C   0  0  0  0  0  2  0  0  0  0  0  0
  185.2130  178.3830  143.5090 C   0  0  0  0  0  0  0  0  0  0  0  0
  183.3050  178.9970  144.8270 N   0  0  0  0  0  0  0  0  0  0  0  0
  183.0910  179.0550  142.3360 C   0  0  1  0  0  3  0  0  0  0  0  0
  183.5980  178.2970  141.2600 O   0  0  0  0  0  0  0  0  0  0  0  0
  184.0050  178.8190  145.9770 C   0  0  0  0  0  3  0  0  0  0  0  0
  185.3820  178.2980  139.6580 C   0  0  1  0  0  3  0  0  0  0  0  0
  184.4090  178.7850  138.5960 C   0  0  0  0  0  1  0  0  0  0  0  0
  186.6950  178.7890  139.3960 O   0  0  0  0  0  0  0  0  0  0  0  0
  187.5530  178.2390  138.4320 C   0  0  0  0  0  0  0  0  0  0  0  0
  187.6140  178.7280  137.1950 C   0  0  0  0  0  2  0  0  0  0  0  0
  188.4470  177.1010  138.8060 C   0  0  2  0  0  3  0  0  0  0  0  0
  189.8140  177.6260  139.2010 C   0  0  2  0  0  3  0  0  0  0  0  0
  191.0960  175.6200  139.0990 O   0  0  0  0  0  0  0  0  0  0  0  0
  189.6220  177.0080  137.8490 C   0  0  1  0  0  3  0  0  0  0  0  0
  190.5580  176.5660  139.9850 C   0  0  1  0  0  3  0  0  0  0  0  0
  190.2710  175.6480  137.9640 C   0  0  0  0  0  2  0  0  0  0  0  0
  191.6170  177.1690  140.7910 N   0  0  0  0  0  0  0  0  0  0  0  0
  192.8220  177.6560  140.1270 C   0  0  0  0  0  1  0  0  0  0  0  0
  191.4500  177.3290  142.2140 C   0  0  0  0  0  0  0  0  0  0  0  0
  191.4220  176.3850  144.4580 C   0  0  0  0  0  3  0  0  0  0  0  0
  190.9860  178.7430  144.1410 C   0  0  0  0  0  3  0  0  0  0  0  0
  191.1230  177.6420  144.9890 C   0  0  0  0  0  3  0  0  0  0  0  0
  191.1480  178.5860  142.7620 C   0  0  0  0  0  3  0  0  0  0  0  0
  191.5850  176.2290  143.0790 C   0  0  0  0  0  3  0  0  0  0  0  0
  181.6070  178.7510  142.5130 C   0  0  0  0  0  2  0  0  0  0  0  0
  179.7890  177.2830  139.5310 C   0  0  0  0  0  3  0  0  0  0  0  0
  179.7070  178.3930  138.6850 C   0  0  0  0  0  0  0  0  0  0  0  0
  180.8510  179.7410  140.3400 C   0  0  0  0  0  3  0  0  0  0  0  0
  180.4030  177.4020  140.7820 C   0  0  0  0  0  3  0  0  0  0  0  0
  180.9300  178.6320  141.1900 C   0  0  0  0  0  0  0  0  0  0  0  0
  180.2370  179.6220  139.0900 C   0  0  0  0  0  3  0  0  0  0  0  0
  179.9360  177.4260  136.2970 O   0  0  0  0  0  0  0  0  0  0  0  0
  178.9320  178.2420  137.1000 S   0  0  0  0  0  3  0  0  0  0  0  0
  1  8  1  0  0  0  0
  1  6  1  0  0  0  0
  2 12  1  0  0  0  0
  3 16  1  6  0  0  0
  3 14  1  0  0  0  0
  3 10  1  0  0  0  0
  4 15  1  0  0  0  0
  4  8  1  0  0  0  0
  5  1  1  0  0  0  0
  7  4  2  0  0  0  0
  9  7  1  0  0  0  0
  9  5  1  0  0  0  0
 10 11  1  0  0  0  0
 11  2  2  0  0  0  0
 11  7  1  0  0  0  0
 12 15  2  0  0  0  0
 13 35  1  1  0  0  0
 13  2  1  0  0  0  0
 14 13  1  0  0  0  0
 16 17  1  6  0  0  0
 18 16  1  0  0  0  0
 19 18  1  0  0  0  0
 20 19  2  0  0  0  0
 21 19  1  6  0  0  0
 21 22  1  0  0  0  0
 22 25  1  0  0  0  0
 23 25  1  0  0  0  0
 24 26  1  0  0  0  0
 24 21  1  0  0  0  0
 24 22  1  0  0  0  0
 25 27  1  0  0  0  0
 26 23  1  0  0  0  0
 27 29  1  0  0  0  0
 28 27  1  0  0  0  0
 29 33  2  0  0  0  0
 29 34  1  0  0  0  0
 30 32  1  0  0  0  0
 31 32  2  0  0  0  0
 33 31  1  0  0  0  0
 34 30  2  0  0  0  0
 36 39  1  0  0  0  0
 37 41  1  0  0  0  0
 37 36  2  0  0  0  0
 38 40  1  0  0  0  0
 39 40  2  0  0  0  0
 40 35  1  0  0  0  0
 41 38  2  0  0  0  0
 42 43  2  0  0  0  0
 43 37  1  0  0  0  0
M  END
>  <MODEL>
6

>  <REMARK>
 VINA RESULT:      -8.7      3.430      7.583
  Name = 
  9 active torsions:
  status: ('A' for Active; 'I' for Inactive)
    1  A    between atoms: C_1  and  C_34
    2  A    between atoms: C_1  and  C_35
    3  A    between atoms: C_2  and  O_6
    4  A    between atoms: C_2  and  C_13
    5  A    between atoms: C_3  and  C_12
    6  A    between atoms: O_6  and  C_12
    7  A    between atoms: C_11  and  N_14
    8  A    between atoms: N_14  and  C_22
    9  A    between atoms: C_19  and  S_37
                            x       y       z     vdW  Elec       q    Type
                         _______ _______ _______ _____ _____    ______ ____

>  <TORSDO>
F 9

$$$$
=
 OpenBabel11052416093D

 43 49  0  0  1  0  0  0  0  0999 V2000
  191.2860  177.0160  146.8670 N   0  0  0  0  0  0  0  0  0  0  0  0
  187.4420  177.8880  143.7380 C   0  0  0  0  0  0  0  0  0  0  0  0
  188.3810  178.3740  141.1790 C   0  0  2  0  0  3  0  0  0  0  0  0
  189.0470  177.2220  145.9060 C   0  0  0  0  0  0  0  0  0  0  0  0
  191.6870  176.2980  145.6600 C   0  0  0  0  0  2  0  0  0  0  0  0
  191.9880  176.3960  147.9750 C   0  0  0  0  0  1  0  0  0  0  0  0
  189.6120  177.2500  144.6160 C   0  0  0  0  0  0  0  0  0  0  0  0
  189.8610  176.7770  147.0880 C   0  0  0  0  0  2  0  0  0  0  0  0
  191.0840  176.9800  144.4330 C   0  0  0  0  0  2  0  0  0  0  0  0
  189.3690  177.6760  142.1250 C   0  0  0  0  0  2  0  0  0  0  0  0
  188.8080  177.6180  143.5240 C   0  0  0  0  0  0  0  0  0  0  0  0
  186.9310  177.8550  144.9990 N   0  0  0  0  0  0  0  0  0  0  0  0
  186.5960  178.3470  142.5700 C   0  0  1  0  0  3  0  0  0  0  0  0
  187.0960  177.8310  141.3560 O   0  0  0  0  0  0  0  0  0  0  0  0
  187.6940  177.5200  146.0720 C   0  0  0  0  0  3  0  0  0  0  0  0
  188.7990  178.2410  139.7190 C   0  0  1  0  0  3  0  0  0  0  0  0
  189.9190  177.2230  139.5690 C   0  0  0  0  0  1  0  0  0  0  0  0
  187.6830  177.8780  138.9090 O   0  0  0  0  0  0  0  0  0  0  0  0
  187.5260  178.2790  137.5750 C   0  0  0  0  0  0  0  0  0  0  0  0
  188.5120  178.8750  136.9080 C   0  0  0  0  0  2  0  0  0  0  0  0
  186.2380  178.0020  136.8690 C   0  0  2  0  0  3  0  0  0  0  0  0
  185.6990  176.6480  137.2890 C   0  0  2  0  0  3  0  0  0  0  0  0
  184.0870  176.2720  135.5740 O   0  0  0  0  0  0  0  0  0  0  0  0
  186.3770  176.7940  135.9600 C   0  0  1  0  0  3  0  0  0  0  0  0
  184.2290  176.5560  136.9410 C   0  0  1  0  0  3  0  0  0  0  0  0
  185.2450  176.7740  134.9580 C   0  0  0  0  0  2  0  0  0  0  0  0
  183.5710  175.5300  137.7460 N   0  0  0  0  0  0  0  0  0  0  0  0
  182.8050  175.9350  138.9210 C   0  0  0  0  0  1  0  0  0  0  0  0
  183.6320  174.1440  137.3550 C   0  0  0  0  0  0  0  0  0  0  0  0
  184.9260  172.1370  136.8770 C   0  0  0  0  0  3  0  0  0  0  0  0
  182.5150  172.0870  136.6830 C   0  0  0  0  0  3  0  0  0  0  0  0
  183.7500  171.4410  136.5900 C   0  0  0  0  0  3  0  0  0  0  0  0
  182.4580  173.4310  137.0630 C   0  0  0  0  0  3  0  0  0  0  0  0
  184.8670  173.4810  137.2570 C   0  0  0  0  0  3  0  0  0  0  0  0
  185.1430  177.9170  142.7410 C   0  0  0  0  0  2  0  0  0  0  0  0
  182.0990  179.0120  140.7690 C   0  0  0  0  0  3  0  0  0  0  0  0
  182.6910  179.5140  139.6060 C   0  0  0  0  0  0  0  0  0  0  0  0
  184.8830  178.9880  140.4920 C   0  0  0  0  0  3  0  0  0  0  0  0
  182.9000  178.4970  141.7940 C   0  0  0  0  0  3  0  0  0  0  0  0
  184.2920  178.4890  141.6590 C   0  0  0  0  0  0  0  0  0  0  0  0
  184.0820  179.5020  139.4680 C   0  0  0  0  0  3  0  0  0  0  0  0
  181.9350  181.6610  138.3790 O   0  0  0  0  0  0  0  0  0  0  0  0
  181.6780  180.1620  138.3070 S   0  0  0  0  0  3  0  0  0  0  0  0
  1  8  1  0  0  0  0
  1  6  1  0  0  0  0
  2 12  1  0  0  0  0
  3 16  1  6  0  0  0
  3 14  1  0  0  0  0
  3 10  1  0  0  0  0
  4 15  1  0  0  0  0
  4  8  1  0  0  0  0
  5  1  1  0  0  0  0
  7  4  2  0  0  0  0
  9  7  1  0  0  0  0
  9  5  1  0  0  0  0
 10 11  1  0  0  0  0
 11  2  2  0  0  0  0
 11  7  1  0  0  0  0
 12 15  2  0  0  0  0
 13 35  1  1  0  0  0
 13  2  1  0  0  0  0
 14 13  1  0  0  0  0
 16 17  1  1  0  0  0
 18 16  1  0  0  0  0
 19 18  1  0  0  0  0
 20 19  2  0  0  0  0
 21 22  1  0  0  0  0
 21 19  1  1  0  0  0
 23 25  1  0  0  0  0
 24 21  1  0  0  0  0
 24 22  1  0  0  0  0
 25 22  1  0  0  0  0
 25 27  1  0  0  0  0
 26 23  1  0  0  0  0
 26 24  1  0  0  0  0
 27 28  1  0  0  0  0
 29 27  1  0  0  0  0
 30 34  2  0  0  0  0
 31 33  1  0  0  0  0
 32 31  2  0  0  0  0
 32 30  1  0  0  0  0
 33 29  2  0  0  0  0
 34 29  1  0  0  0  0
 36 39  1  0  0  0  0
 37 36  2  0  0  0  0
 38 40  1  0  0  0  0
 40 39  2  0  0  0  0
 40 35  1  0  0  0  0
 41 37  1  0  0  0  0
 41 38  2  0  0  0  0
 43 42  2  0  0  0  0
 43 37  1  0  0  0  0
M  END
>  <MODEL>
7

>  <REMARK>
 VINA RESULT:      -8.7      2.189      4.495
  Name = 
  9 active torsions:
  status: ('A' for Active; 'I' for Inactive)
    1  A    between atoms: C_1  and  C_34
    2  A    between atoms: C_1  and  C_35
    3  A    between atoms: C_2  and  O_6
    4  A    between atoms: C_2  and  C_13
    5  A    between atoms: C_3  and  C_12
    6  A    between atoms: O_6  and  C_12
    7  A    between atoms: C_11  and  N_14
    8  A    between atoms: N_14  and  C_22
    9  A    between atoms: C_19  and  S_37
                            x       y       z     vdW  Elec       q    Type
                         _______ _______ _______ _____ _____    ______ ____

>  <TORSDO>
F 9

$$$$
=
 OpenBabel11052416093D

 43 49  0  0  1  0  0  0  0  0999 V2000
  180.6120  178.9560  141.0650 N   0  0  0  0  0  0  0  0  0  0  0  0
  185.0040  178.3640  143.4510 C   0  0  0  0  0  0  0  0  0  0  0  0
  187.0380  177.9420  141.6220 C   0  0  2  0  0  3  0  0  0  0  0  0
  182.3570  178.8780  142.7760 C   0  0  0  0  0  0  0  0  0  0  0  0
  181.5390  179.7050  140.2200 C   0  0  0  0  0  2  0  0  0  0  0  0
  179.2900  179.5040  140.8230 C   0  0  0  0  0  1  0  0  0  0  0  0
  183.3380  178.8790  141.7640 C   0  0  0  0  0  0  0  0  0  0  0  0
  180.9350  179.2430  142.4620 C   0  0  0  0  0  2  0  0  0  0  0  0
  182.9360  179.0970  140.3270 C   0  0  0  0  0  2  0  0  0  0  0  0
  185.7540  178.5620  141.0520 C   0  0  0  0  0  2  0  0  0  0  0  0
  184.6700  178.5870  142.1000 C   0  0  0  0  0  0  0  0  0  0  0  0
  184.0290  178.3670  144.4020 N   0  0  0  0  0  0  0  0  0  0  0  0
  186.4260  177.9860  143.8000 C   0  0  1  0  0  3  0  0  0  0  0  0
  187.3320  178.5290  142.8650 O   0  0  0  0  0  0  0  0  0  0  0  0
  182.7320  178.6290  144.0960 C   0  0  0  0  0  3  0  0  0  0  0  0
  188.2230  178.1160  140.6770 C   0  0  1  0  0  3  0  0  0  0  0  0
  189.4820  177.5080  141.2730 C   0  0  0  0  0  1  0  0  0  0  0  0
  187.9390  177.5330  139.4070 O   0  0  0  0  0  0  0  0  0  0  0  0
  187.9850  178.2420  138.1990 C   0  0  0  0  0  0  0  0  0  0  0  0
  189.0580  178.9450  137.8450 C   0  0  0  0  0  2  0  0  0  0  0  0
  186.8190  178.1810  137.2650 C   0  0  2  0  0  3  0  0  0  0  0  0
  186.2480  176.7760  137.2410 C   0  0  2  0  0  3  0  0  0  0  0  0
  184.9110  176.8840  135.2710 O   0  0  0  0  0  0  0  0  0  0  0  0
  187.1100  177.2430  136.1070 C   0  0  1  0  0  3  0  0  0  0  0  0
  184.8470  176.8070  136.6710 C   0  0  1  0  0  3  0  0  0  0  0  0
  186.1370  177.5020  134.9790 C   0  0  0  0  0  2  0  0  0  0  0  0
  184.0960  175.6220  137.0820 N   0  0  0  0  0  0  0  0  0  0  0  0
  184.6910  174.3030  136.8830 C   0  0  0  0  0  1  0  0  0  0  0  0
  182.8130  175.7570  137.7230 C   0  0  0  0  0  0  0  0  0  0  0  0
  180.4120  176.1390  137.5880 C   0  0  0  0  0  3  0  0  0  0  0  0
  181.4510  175.7730  139.7420 C   0  0  0  0  0  3  0  0  0  0  0  0
  180.3090  176.0220  138.9760 C   0  0  0  0  0  3  0  0  0  0  0  0
  182.6940  175.6420  139.1180 C   0  0  0  0  0  3  0  0  0  0  0  0
  181.6560  176.0070  136.9650 C   0  0  0  0  0  3  0  0  0  0  0  0
  186.7960  178.4660  145.2000 C   0  0  0  0  0  2  0  0  0  0  0  0
  190.3610  177.1890  145.1240 C   0  0  0  0  0  3  0  0  0  0  0  0
  190.5150  176.7270  146.4350 C   0  0  0  0  0  0  0  0  0  0  0  0
  188.2490  177.4100  146.9440 C   0  0  0  0  0  3  0  0  0  0  0  0
  189.1500  177.7620  144.7240 C   0  0  0  0  0  3  0  0  0  0  0  0
  188.0950  177.8770  145.6350 C   0  0  0  0  0  0  0  0  0  0  0  0
  189.4600  176.8380  147.3450 C   0  0  0  0  0  3  0  0  0  0  0  0
  192.3900  176.7560  148.2170 O   0  0  0  0  0  0  0  0  0  0  0  0
  192.0480  175.9980  146.9410 S   0  0  0  0  0  3  0  0  0  0  0  0
  1  8  1  0  0  0  0
  2 13  1  0  0  0  0
  2 12  1  0  0  0  0
  3 16  1  6  0  0  0
  3 14  1  0  0  0  0
  4 15  1  0  0  0  0
  5  9  1  0  0  0  0
  5  1  1  0  0  0  0
  6  1  1  0  0  0  0
  7 11  1  0  0  0  0
  7  4  2  0  0  0  0
  8  4  1  0  0  0  0
  9  7  1  0  0  0  0
 10  3  1  0  0  0  0
 10 11  1  0  0  0  0
 11  2  2  0  0  0  0
 13 35  1  1  0  0  0
 14 13  1  0  0  0  0
 15 12  2  0  0  0  0
 16 17  1  1  0  0  0
 18 16  1  0  0  0  0
 19 18  1  0  0  0  0
 20 19  2  0  0  0  0
 21 19  1  1  0  0  0
 22 21  1  0  0  0  0
 23 25  1  0  0  0  0
 24 22  1  0  0  0  0
 24 21  1  0  0  0  0
 25 27  1  0  0  0  0
 25 22  1  0  0  0  0
 26 23  1  0  0  0  0
 26 24  1  0  0  0  0
 27 29  1  0  0  0  0
 28 27  1  0  0  0  0
 29 33  1  0  0  0  0
 30 32  2  0  0  0  0
 32 31  1  0  0  0  0
 33 31  2  0  0  0  0
 34 30  1  0  0  0  0
 34 29  2  0  0  0  0
 35 40  1  0  0  0  0
 36 37  1  0  0  0  0
 37 43  1  0  0  0  0
 37 41  2  0  0  0  0
 38 41  1  0  0  0  0
 39 36  2  0  0  0  0
 39 40  1  0  0  0  0
 40 38  2  0  0  0  0
 43 42  2  0  0  0  0
M  END
>  <MODEL>
8

>  <REMARK>
 VINA RESULT:      -8.6      3.108      7.275
  Name = 
  9 active torsions:
  status: ('A' for Active; 'I' for Inactive)
    1  A    between atoms: C_1  and  C_34
    2  A    between atoms: C_1  and  C_35
    3  A    between atoms: C_2  and  O_6
    4  A    between atoms: C_2  and  C_13
    5  A    between atoms: C_3  and  C_12
    6  A    between atoms: O_6  and  C_12
    7  A    between atoms: C_11  and  N_14
    8  A    between atoms: N_14  and  C_22
    9  A    between atoms: C_19  and  S_37
                            x       y       z     vdW  Elec       q    Type
                         _______ _______ _______ _____ _____    ______ ____

>  <TORSDO>
F 9

$$$$
=
 OpenBabel11052416093D

 43 49  0  0  1  0  0  0  0  0999 V2000
  192.0610  176.6000  147.3450 N   0  0  0  0  0  0  0  0  0  0  0  0
  188.0640  177.7930  144.5300 C   0  0  0  0  0  0  0  0  0  0  0  0
  188.7420  177.7760  141.8460 C   0  0  2  0  0  3  0  0  0  0  0  0
  189.7890  177.1070  146.5980 C   0  0  0  0  0  0  0  0  0  0  0  0
  192.1760  175.6780  146.2190 C   0  0  0  0  0  2  0  0  0  0  0  0
  192.7790  175.9990  148.4540 C   0  0  0  0  0  1  0  0  0  0  0  0
  190.1830  176.8700  145.2660 C   0  0  0  0  0  0  0  0  0  0  0  0
  190.6560  176.6640  147.7420 C   0  0  0  0  0  2  0  0  0  0  0  0
  191.5510  176.3060  144.9750 C   0  0  0  0  0  2  0  0  0  0  0  0
  189.7050  177.0250  142.7780 C   0  0  0  0  0  2  0  0  0  0  0  0
  189.3240  177.2460  144.2200 C   0  0  0  0  0  0  0  0  0  0  0  0
  187.7180  178.0120  145.8290 N   0  0  0  0  0  0  0  0  0  0  0  0
  187.1700  178.2570  143.4010 C   0  0  1  0  0  3  0  0  0  0  0  0
  187.4160  177.5120  142.2300 O   0  0  0  0  0  0  0  0  0  0  0  0
  188.5400  177.6720  146.8550 C   0  0  0  0  0  3  0  0  0  0  0  0
  188.9440  177.3890  140.3860 C   0  0  1  0  0  3  0  0  0  0  0  0
  189.0580  178.6270  139.5100 C   0  0  0  0  0  1  0  0  0  0  0  0
  190.1000  176.5670  140.2410 O   0  0  0  0  0  0  0  0  0  0  0  0
  191.2500  176.9580  139.5400 C   0  0  0  0  0  0  0  0  0  0  0  0
  192.2940  177.5010  140.1620 C   0  0  0  0  0  2  0  0  0  0  0  0
  191.3250  176.7300  138.0640 C   0  0  2  0  0  3  0  0  0  0  0  0
  190.2730  175.7210  137.6420 C   0  0  2  0  0  3  0  0  0  0  0  0
  191.0750  175.1390  135.4750 O   0  0  0  0  0  0  0  0  0  0  0  0
  191.7030  175.2900  137.7650 C   0  0  1  0  0  3  0  0  0  0  0  0
  190.0480  175.8180  136.1490 C   0  0  1  0  0  3  0  0  0  0  0  0
  192.1830  175.1720  136.3360 C   0  0  0  0  0  2  0  0  0  0  0  0
  188.7460  175.2610  135.7870 N   0  0  0  0  0  0  0  0  0  0  0  0
  188.6960  174.0480  134.9760 C   0  0  0  0  0  1  0  0  0  0  0  0
  187.5320  175.8700  136.2690 C   0  0  0  0  0  0  0  0  0  0  0  0
  186.2890  177.8440  136.9670 C   0  0  0  0  0  3  0  0  0  0  0  0
  185.2130  175.6770  136.9880 C   0  0  0  0  0  3  0  0  0  0  0  0
  185.1620  177.0550  137.2110 C   0  0  0  0  0  3  0  0  0  0  0  0
  186.3910  175.0890  136.5200 C   0  0  0  0  0  3  0  0  0  0  0  0
  187.4660  177.2550  136.4990 C   0  0  0  0  0  3  0  0  0  0  0  0
  185.6980  178.1340  143.7790 C   0  0  0  0  0  2  0  0  0  0  0  0
  182.6200  178.6240  141.6250 C   0  0  0  0  0  3  0  0  0  0  0  0
  183.1890  179.0890  140.4350 C   0  0  0  0  0  0  0  0  0  0  0  0
  185.3920  178.9450  141.4300 C   0  0  0  0  0  3  0  0  0  0  0  0
  183.4380  178.3190  142.7170 C   0  0  0  0  0  3  0  0  0  0  0  0
  184.8240  178.4830  142.6220 C   0  0  0  0  0  0  0  0  0  0  0  0
  184.5740  179.2500  140.3380 C   0  0  0  0  0  3  0  0  0  0  0  0
  182.5330  180.9090  138.7180 O   0  0  0  0  0  0  0  0  0  0  0  0
  182.1530  179.4730  139.0510 S   0  0  0  0  0  3  0  0  0  0  0  0
  1  8  1  0  0  0  0
  1  6  1  0  0  0  0
  2 12  1  0  0  0  0
  3 16  1  6  0  0  0
  3 14  1  0  0  0  0
  3 10  1  0  0  0  0
  4 15  1  0  0  0  0
  4  8  1  0  0  0  0
  5  1  1  0  0  0  0
  7  4  2  0  0  0  0
  9  7  1  0  0  0  0
  9  5  1  0  0  0  0
 10 11  1  0  0  0  0
 11  2  2  0  0  0  0
 11  7  1  0  0  0  0
 12 15  2  0  0  0  0
 13 35  1  1  0  0  0
 13  2  1  0  0  0  0
 14 13  1  0  0  0  0
 16 17  1  6  0  0  0
 18 16  1  0  0  0  0
 19 20  2  0  0  0  0
 19 18  1  0  0  0  0
 21 19  1  1  0  0  0
 22 24  1  0  0  0  0
 22 21  1  0  0  0  0
 23 25  1  0  0  0  0
 23 26  1  0  0  0  0
 24 21  1  0  0  0  0
 25 22  1  0  0  0  0
 26 24  1  0  0  0  0
 27 25  1  0  0  0  0
 27 29  1  0  0  0  0
 28 27  1  0  0  0  0
 29 34  2  0  0  0  0
 29 33  1  0  0  0  0
 30 32  2  0  0  0  0
 31 32  1  0  0  0  0
 33 31  2  0  0  0  0
 34 30  1  0  0  0  0
 36 39  1  0  0  0  0
 37 36  2  0  0  0  0
 38 40  1  0  0  0  0
 40 39  2  0  0  0  0
 40 35  1  0  0  0  0
 41 37  1  0  0  0  0
 41 38  2  0  0  0  0
 42 43  2  0  0  0  0
 43 37  1  0  0  0  0
M  END
>  <MODEL>
9

>  <REMARK>
 VINA RESULT:      -8.5      2.667      6.054
  Name = 
  9 active torsions:
  status: ('A' for Active; 'I' for Inactive)
    1  A    between atoms: C_1  and  C_34
    2  A    between atoms: C_1  and  C_35
    3  A    between atoms: C_2  and  O_6
    4  A    between atoms: C_2  and  C_13
    5  A    between atoms: C_3  and  C_12
    6  A    between atoms: O_6  and  C_12
    7  A    between atoms: C_11  and  N_14
    8  A    between atoms: N_14  and  C_22
    9  A    between atoms: C_19  and  S_37
                            x       y       z     vdW  Elec       q    Type
                         _______ _______ _______ _____ _____    ______ ____

>  <TORSDO>
F 9

$$$$
