=
 OpenBabel11052413173D

 31 34  0  0  1  0  0  0  0  0999 V2000
  190.9980  177.0230  145.0260 C   0  0  1  0  0  3  0  0  0  0  0  0
  187.6070  177.5720  143.3080 C   0  0  0  0  0  0  0  0  0  0  0  0
  186.5450  177.9020  144.1840 C   0  0  0  0  0  0  0  0  0  0  0  0
  185.5360  177.8540  146.3970 C   0  0  0  0  0  3  0  0  0  0  0  0
  188.8210  176.8330  143.8340 C   0  0  2  0  0  3  0  0  0  0  0  0
  191.6810  176.6050  143.8700 O   0  0  0  0  0  0  0  0  0  0  0  0
  186.5830  177.5250  145.5350 C   0  0  0  0  0  3  0  0  0  0  0  0
  188.5800  177.5370  140.9380 C   0  0  1  0  0  3  0  0  0  0  0  0
  191.8220  177.8640  145.7730 O   0  0  0  0  0  1  0  0  0  0  0  0
  185.3700  178.9860  142.3500 C   0  0  0  0  0  3  0  0  0  0  0  0
  184.4350  178.5640  145.9180 C   0  0  0  0  0  3  0  0  0  0  0  0
  189.8880  177.0850  141.5830 C   0  0  0  0  0  2  0  0  0  0  0  0
  187.5400  177.9690  141.9490 C   0  0  0  0  0  0  0  0  0  0  0  0
  189.7270  177.7740  144.6340 C   0  0  0  0  0  2  0  0  0  0  0  0
  183.1660  179.7050  144.1170 C   0  0  0  0  0  1  0  0  0  0  0  0
  189.6050  176.1180  142.7230 C   0  0  1  0  0  3  0  0  0  0  0  0
  190.9170  175.5710  143.2960 C   0  0  0  0  0  2  0  0  0  0  0  0
  186.4100  178.6540  141.4870 C   0  0  0  0  0  3  0  0  0  0  0  0
  185.4230  178.6200  143.6990 C   0  0  0  0  0  0  0  0  0  0  0  0
  184.3680  178.9490  144.5770 C   0  0  0  0  0  0  0  0  0  0  0  0
  189.0090  179.4310  137.8280 O   0  0  0  0  0  0  0  0  0  0  0  0
  188.6290  178.5010  138.5890 C   0  0  0  0  0  0  0  0  0  0  0  0
  188.8610  178.6140  139.9950 N   0  0  0  0  0  2  0  0  0  0  0  0
  186.5590  177.5800  137.4940 C   0  0  0  0  0  1  0  0  0  0  0  0
  187.9700  177.2800  138.0120 C   0  0  1  0  0  3  0  0  0  0  0  0
  188.0730  176.1440  135.8810 C   0  0  0  0  0  1  0  0  0  0  0  0
  188.8410  176.6090  137.0310 N   0  0  0  0  0  0  0  0  0  0  0  0
  189.4510  175.4360  137.6480 C   0  0  0  0  0  2  0  0  0  0  0  0
  190.9550  175.4410  137.4310 C   0  0  2  0  0  3  0  0  0  0  0  0
  191.4590  174.1640  137.6750 O   0  0  0  0  0  1  0  0  0  0  0  0
  191.6140  176.4240  138.3760 C   0  0  0  0  0  1  0  0  0  0  0  0
  1  9  1  6  0  0  0
  2  5  1  0  0  0  0
  2  3  1  0  0  0  0
  3  7  1  0  0  0  0
  5 14  1  6  0  0  0
  6  1  1  0  0  0  0
  7  4  2  0  0  0  0
  8 23  1  6  0  0  0
  8 12  1  0  0  0  0
  8 13  1  0  0  0  0
 10 19  1  0  0  0  0
 11  4  1  0  0  0  0
 13  2  2  0  0  0  0
 14  1  1  0  0  0  0
 15 20  1  0  0  0  0
 16 12  1  6  0  0  0
 16 17  1  0  0  0  0
 16  5  1  0  0  0  0
 17  6  1  0  0  0  0
 18 13  1  0  0  0  0
 18 10  2  0  0  0  0
 19  3  2  0  0  0  0
 19 20  1  0  0  0  0
 20 11  2  0  0  0  0
 21 22  2  0  0  0  0
 22 23  1  0  0  0  0
 25 24  1  6  0  0  0
 25 22  1  0  0  0  0
 26 27  1  0  0  0  0
 27 28  1  0  0  0  0
 27 25  1  0  0  0  0
 29 28  1  0  0  0  0
 29 30  1  0  0  0  0
 29 31  1  1  0  0  0
M  END
>  <MODEL>
1

>  <REMARK>
 VINA RESULT:     -10.2      0.000      0.000
  Name = 
  5 active torsions:
  status: ('A' for Active; 'I' for Inactive)
    1  A    between atoms: C_1  and  C_24
    2  A    between atoms: C_9  and  C_22
    3  A    between atoms: C_15  and  N_23
    4  A    between atoms: N_19  and  C_22
    5  A    between atoms: N_19  and  C_24
                            x       y       z     vdW  Elec       q    Type
                         _______ _______ _______ _____ _____    ______ ____

>  <TORSDO>
F 5

$$$$
=
 OpenBabel11052413173D

 31 34  0  0  1  0  0  0  0  0999 V2000
  191.0280  177.1820  144.7020 C   0  0  1  0  0  3  0  0  0  0  0  0
  187.5750  177.6620  143.0910 C   0  0  0  0  0  0  0  0  0  0  0  0
  186.5300  177.9450  144.0020 C   0  0  0  0  0  0  0  0  0  0  0  0
  185.5860  177.8270  146.2410 C   0  0  0  0  0  3  0  0  0  0  0  0
  188.8240  176.9500  143.5680 C   0  0  2  0  0  3  0  0  0  0  0  0
  191.6890  176.8060  143.5190 O   0  0  0  0  0  0  0  0  0  0  0  0
  186.6180  177.5440  145.3450 C   0  0  0  0  0  3  0  0  0  0  0  0
  188.4800  177.7000  140.6940 C   0  0  1  0  0  3  0  0  0  0  0  0
  191.8490  178.0330  145.4410 O   0  0  0  0  0  1  0  0  0  0  0  0
  185.2720  179.0270  142.2230 C   0  0  0  0  0  3  0  0  0  0  0  0
  184.4520  178.5120  145.8080 C   0  0  0  0  0  3  0  0  0  0  0  0
  189.8180  177.2750  141.2930 C   0  0  0  0  0  2  0  0  0  0  0  0
  187.4570  178.0830  141.7420 C   0  0  0  0  0  0  0  0  0  0  0  0
  189.7260  177.9020  144.3600 C   0  0  0  0  0  2  0  0  0  0  0  0
  183.1000  179.6490  144.0650 C   0  0  0  0  0  1  0  0  0  0  0  0
  189.5970  176.2790  142.4210 C   0  0  1  0  0  3  0  0  0  0  0  0
  190.9400  175.7600  142.9470 C   0  0  0  0  0  2  0  0  0  0  0  0
  186.2950  178.7420  141.3250 C   0  0  0  0  0  3  0  0  0  0  0  0
  185.3740  178.6390  143.5630 C   0  0  0  0  0  0  0  0  0  0  0  0
  184.3360  178.9210  144.4770 C   0  0  0  0  0  0  0  0  0  0  0  0
  189.1370  179.6050  137.6310 O   0  0  0  0  0  0  0  0  0  0  0  0
  188.8280  178.6190  138.3520 C   0  0  0  0  0  0  0  0  0  0  0  0
  188.7030  178.8020  139.7640 N   0  0  0  0  0  2  0  0  0  0  0  0
  189.7160  176.2740  138.1430 C   0  0  0  0  0  1  0  0  0  0  0  0
  188.6250  177.2660  137.7290 C   0  0  1  0  0  3  0  0  0  0  0  0
  187.0460  175.4940  137.2720 C   0  0  0  0  0  1  0  0  0  0  0  0
  187.2520  176.7750  137.9400 N   0  0  0  0  0  0  0  0  0  0  0  0
  186.3040  177.7220  137.3640 C   0  0  0  0  0  2  0  0  0  0  0  0
  184.8820  177.2060  137.5060 C   0  0  2  0  0  3  0  0  0  0  0  0
  184.2500  177.2500  136.2640 O   0  0  0  0  0  1  0  0  0  0  0  0
  184.1110  178.0680  138.4850 C   0  0  0  0  0  1  0  0  0  0  0  0
  1  9  1  6  0  0  0
  2  5  1  0  0  0  0
  2  3  1  0  0  0  0
  3  7  1  0  0  0  0
  5 14  1  6  0  0  0
  6  1  1  0  0  0  0
  7  4  2  0  0  0  0
  8 23  1  6  0  0  0
  8 12  1  0  0  0  0
  8 13  1  0  0  0  0
 10 19  1  0  0  0  0
 11  4  1  0  0  0  0
 13  2  2  0  0  0  0
 14  1  1  0  0  0  0
 15 20  1  0  0  0  0
 16 12  1  6  0  0  0
 16 17  1  0  0  0  0
 16  5  1  0  0  0  0
 17  6  1  0  0  0  0
 18 13  1  0  0  0  0
 18 10  2  0  0  0  0
 19  3  2  0  0  0  0
 19 20  1  0  0  0  0
 20 11  2  0  0  0  0
 21 22  2  0  0  0  0
 22 23  1  0  0  0  0
 25 27  1  0  0  0  0
 25 24  1  1  0  0  0
 25 22  1  0  0  0  0
 26 27  1  0  0  0  0
 28 29  1  0  0  0  0
 28 27  1  0  0  0  0
 29 31  1  1  0  0  0
 30 29  1  0  0  0  0
M  END
>  <MODEL>
2

>  <REMARK>
 VINA RESULT:      -9.2      1.290      2.533
  Name = 
  5 active torsions:
  status: ('A' for Active; 'I' for Inactive)
    1  A    between atoms: C_1  and  C_24
    2  A    between atoms: C_9  and  C_22
    3  A    between atoms: C_15  and  N_23
    4  A    between atoms: N_19  and  C_22
    5  A    between atoms: N_19  and  C_24
                            x       y       z     vdW  Elec       q    Type
                         _______ _______ _______ _____ _____    ______ ____

>  <TORSDO>
F 5

$$$$
=
 OpenBabel11052413173D

 31 34  0  0  1  0  0  0  0  0999 V2000
  185.8130  179.0470  146.4530 C   0  0  1  0  0  3  0  0  0  0  0  0
  184.1970  178.3290  143.0440 C   0  0  0  0  0  0  0  0  0  0  0  0
  182.8020  178.5590  142.9880 C   0  0  0  0  0  0  0  0  0  0  0  0
  180.6420  178.7350  144.0940 C   0  0  0  0  0  3  0  0  0  0  0  0
  184.8680  178.0550  144.3740 C   0  0  2  0  0  3  0  0  0  0  0  0
  187.0930  178.5780  146.1090 O   0  0  0  0  0  0  0  0  0  0  0  0
  182.0170  178.5050  144.1510 C   0  0  0  0  0  3  0  0  0  0  0  0
  186.4320  178.0320  141.8250 C   0  0  1  0  0  3  0  0  0  0  0  0
  185.9340  180.2110  147.2110 O   0  0  0  0  0  1  0  0  0  0  0  0
  182.9500  178.8850  140.5820 C   0  0  0  0  0  3  0  0  0  0  0  0
  180.0310  179.0190  142.8730 C   0  0  0  0  0  3  0  0  0  0  0  0
  187.0820  178.0790  143.2060 C   0  0  0  0  0  2  0  0  0  0  0  0
  184.9620  178.3930  141.8520 C   0  0  0  0  0  0  0  0  0  0  0  0
  185.0140  179.3460  145.1870 C   0  0  0  0  0  2  0  0  0  0  0  0
  180.0830  179.3820  140.4190 C   0  0  0  0  0  1  0  0  0  0  0  0
  186.2200  177.3410  144.2190 C   0  0  1  0  0  3  0  0  0  0  0  0
  186.9250  177.2840  145.5780 C   0  0  0  0  0  2  0  0  0  0  0  0
  184.3200  178.6500  140.6350 C   0  0  0  0  0  3  0  0  0  0  0  0
  182.1770  178.8450  141.7480 C   0  0  0  0  0  0  0  0  0  0  0  0
  180.7870  179.0760  141.6990 C   0  0  0  0  0  0  0  0  0  0  0  0
  189.0620  179.4530  139.7030 O   0  0  0  0  0  0  0  0  0  0  0  0
  188.4430  178.5870  140.3780 C   0  0  0  0  0  0  0  0  0  0  0  0
  187.1640  178.9150  140.9240 N   0  0  0  0  0  2  0  0  0  0  0  0
  189.3230  176.4800  139.3200 C   0  0  0  0  0  1  0  0  0  0  0  0
  189.0650  177.2410  140.6250 C   0  0  1  0  0  3  0  0  0  0  0  0
  191.4790  177.2780  140.7330 C   0  0  0  0  0  1  0  0  0  0  0  0
  190.2420  177.3440  141.5050 N   0  0  0  0  0  0  0  0  0  0  0  0
  190.2510  176.2200  142.4350 C   0  0  0  0  0  2  0  0  0  0  0  0
  191.2220  176.4790  143.5740 C   0  0  2  0  0  3  0  0  0  0  0  0
  191.8670  175.2890  143.9090 O   0  0  0  0  0  1  0  0  0  0  0  0
  190.4760  176.9970  144.7870 C   0  0  0  0  0  1  0  0  0  0  0  0
  1  9  1  1  0  0  0
  2  5  1  0  0  0  0
  3  2  1  0  0  0  0
  3  7  1  0  0  0  0
  4  7  2  0  0  0  0
  5 14  1  6  0  0  0
  6  1  1  0  0  0  0
  8 23  1  6  0  0  0
  8 13  1  0  0  0  0
  8 12  1  0  0  0  0
 10 18  2  0  0  0  0
 10 19  1  0  0  0  0
 11  4  1  0  0  0  0
 13  2  2  0  0  0  0
 14  1  1  0  0  0  0
 15 20  1  0  0  0  0
 16 12  1  6  0  0  0
 16  5  1  0  0  0  0
 16 17  1  0  0  0  0
 17  6  1  0  0  0  0
 18 13  1  0  0  0  0
 19  3  2  0  0  0  0
 20 19  1  0  0  0  0
 20 11  2  0  0  0  0
 21 22  2  0  0  0  0
 22 25  1  0  0  0  0
 22 23  1  0  0  0  0
 25 24  1  6  0  0  0
 25 27  1  0  0  0  0
 26 27  1  0  0  0  0
 27 28  1  0  0  0  0
 28 29  1  0  0  0  0
 29 30  1  0  0  0  0
 29 31  1  1  0  0  0
M  END
>  <MODEL>
3

>  <REMARK>
 VINA RESULT:      -7.8      2.405      4.509
  Name = 
  5 active torsions:
  status: ('A' for Active; 'I' for Inactive)
    1  A    between atoms: C_1  and  C_24
    2  A    between atoms: C_9  and  C_22
    3  A    between atoms: C_15  and  N_23
    4  A    between atoms: N_19  and  C_22
    5  A    between atoms: N_19  and  C_24
                            x       y       z     vdW  Elec       q    Type
                         _______ _______ _______ _____ _____    ______ ____

>  <TORSDO>
F 5

$$$$
=
 OpenBabel11052413173D

 31 34  0  0  1  0  0  0  0  0999 V2000
  182.7350  177.9500  140.3410 C   0  0  1  0  0  3  0  0  0  0  0  0
  185.8910  178.4620  142.4680 C   0  0  0  0  0  0  0  0  0  0  0  0
  185.6800  178.4030  143.8670 C   0  0  0  0  0  0  0  0  0  0  0  0
  184.2150  178.6280  145.7960 C   0  0  0  0  0  3  0  0  0  0  0  0
  184.7420  178.8030  141.5420 C   0  0  2  0  0  3  0  0  0  0  0  0
  183.3490  178.2130  139.1040 O   0  0  0  0  0  0  0  0  0  0  0  0
  184.4210  178.6890  144.4170 C   0  0  0  0  0  3  0  0  0  0  0  0
  187.4960  178.3340  140.4740 C   0  0  1  0  0  3  0  0  0  0  0  0
  181.8560  176.8770  140.2040 O   0  0  0  0  0  1  0  0  0  0  0  0
  188.0100  177.7830  144.1930 C   0  0  0  0  0  3  0  0  0  0  0  0
  185.2660  178.2810  146.6440 C   0  0  0  0  0  3  0  0  0  0  0  0
  186.2500  178.3680  139.5920 C   0  0  0  0  0  2  0  0  0  0  0  0
  187.1740  178.1650  141.9440 C   0  0  0  0  0  0  0  0  0  0  0  0
  183.7970  177.6080  141.3840 C   0  0  0  0  0  2  0  0  0  0  0  0
  187.6210  177.6310  147.0780 C   0  0  0  0  0  1  0  0  0  0  0  0
  185.2170  179.3200  140.1750 C   0  0  1  0  0  3  0  0  0  0  0  0
  184.0160  179.4470  139.2330 C   0  0  0  0  0  2  0  0  0  0  0  0
  188.2200  177.8490  142.8190 C   0  0  0  0  0  3  0  0  0  0  0  0
  186.7480  178.0540  144.7320 C   0  0  0  0  0  0  0  0  0  0  0  0
  186.5310  177.9940  146.1250 C   0  0  0  0  0  0  0  0  0  0  0  0
  189.3200  176.0030  138.3110 O   0  0  0  0  0  0  0  0  0  0  0  0
  188.6420  177.0160  138.6310 C   0  0  0  0  0  0  0  0  0  0  0  0
  188.3780  177.2680  140.0130 N   0  0  0  0  0  2  0  0  0  0  0  0
  189.0550  179.0770  137.2460 C   0  0  0  0  0  1  0  0  0  0  0  0
  188.0970  177.9240  137.5640 C   0  0  1  0  0  3  0  0  0  0  0  0
  188.4640  177.5000  135.2130 C   0  0  0  0  0  1  0  0  0  0  0  0
  187.6570  177.1630  136.3810 N   0  0  0  0  0  0  0  0  0  0  0  0
  186.2750  177.5100  136.0680 C   0  0  0  0  0  2  0  0  0  0  0  0
  185.3210  176.4940  136.6720 C   0  0  2  0  0  3  0  0  0  0  0  0
  185.9540  175.2540  136.7430 O   0  0  0  0  0  1  0  0  0  0  0  0
  184.0800  176.3690  135.8110 C   0  0  0  0  0  1  0  0  0  0  0  0
  1  9  1  6  0  0  0
  1 14  1  0  0  0  0
  2  3  1  0  0  0  0
  3  7  2  0  0  0  0
  3 19  1  0  0  0  0
  4 11  2  0  0  0  0
  5 14  1  6  0  0  0
  5  2  1  0  0  0  0
  6 17  1  0  0  0  0
  6  1  1  0  0  0  0
  7  4  1  0  0  0  0
  8 23  1  6  0  0  0
  8 13  1  0  0  0  0
 10 19  1  0  0  0  0
 12 16  1  0  0  0  0
 12  8  1  0  0  0  0
 13  2  2  0  0  0  0
 13 18  1  0  0  0  0
 16 17  1  6  0  0  0
 16  5  1  0  0  0  0
 18 10  2  0  0  0  0
 19 20  2  0  0  0  0
 20 11  1  0  0  0  0
 20 15  1  0  0  0  0
 21 22  2  0  0  0  0
 22 23  1  0  0  0  0
 25 24  1  6  0  0  0
 25 22  1  0  0  0  0
 26 27  1  0  0  0  0
 27 25  1  0  0  0  0
 28 27  1  0  0  0  0
 28 29  1  0  0  0  0
 29 31  1  6  0  0  0
 29 30  1  0  0  0  0
M  END
>  <MODEL>
4

>  <REMARK>
 VINA RESULT:      -7.4      2.589      5.014
  Name = 
  5 active torsions:
  status: ('A' for Active; 'I' for Inactive)
    1  A    between atoms: C_1  and  C_24
    2  A    between atoms: C_9  and  C_22
    3  A    between atoms: C_15  and  N_23
    4  A    between atoms: N_19  and  C_22
    5  A    between atoms: N_19  and  C_24
                            x       y       z     vdW  Elec       q    Type
                         _______ _______ _______ _____ _____    ______ ____

>  <TORSDO>
F 5

$$$$
=
 OpenBabel11052413173D

 31 34  0  0  1  0  0  0  0  0999 V2000
  184.8230  179.3470  143.7650 C   0  0  1  0  0  3  0  0  0  0  0  0
  187.4050  177.9750  141.2750 C   0  0  0  0  0  0  0  0  0  0  0  0
  187.0530  178.1250  139.9130 C   0  0  0  0  0  0  0  0  0  0  0  0
  185.3640  178.3870  138.1810 C   0  0  0  0  0  3  0  0  0  0  0  0
  186.3280  177.9670  142.3400 C   0  0  2  0  0  3  0  0  0  0  0  0
  185.4780  178.8860  144.9220 O   0  0  0  0  0  0  0  0  0  0  0  0
  185.7080  178.2360  139.5250 C   0  0  0  0  0  3  0  0  0  0  0  0
  189.2050  177.5780  143.0560 C   0  0  1  0  0  3  0  0  0  0  0  0
  184.3250  180.6280  143.9940 O   0  0  0  0  0  1  0  0  0  0  0  0
  189.4040  178.0370  139.2940 C   0  0  0  0  0  3  0  0  0  0  0  0
  186.3600  178.4270  137.2050 C   0  0  0  0  0  3  0  0  0  0  0  0
  188.1220  177.8930  144.0840 C   0  0  0  0  0  2  0  0  0  0  0  0
  188.7720  177.8680  141.6340 C   0  0  0  0  0  0  0  0  0  0  0  0
  185.8040  179.3840  142.5960 C   0  0  0  0  0  2  0  0  0  0  0  0
  188.7310  178.3630  136.4770 C   0  0  0  0  0  1  0  0  0  0  0  0
  186.7900  177.3020  143.6450 C   0  0  1  0  0  3  0  0  0  0  0  0
  185.7290  177.5130  144.7300 C   0  0  0  0  0  2  0  0  0  0  0  0
  189.7500  177.8800  140.6330 C   0  0  0  0  0  3  0  0  0  0  0  0
  188.0630  178.1630  138.9180 C   0  0  0  0  0  0  0  0  0  0  0  0
  187.7060  178.3160  137.5610 C   0  0  0  0  0  0  0  0  0  0  0  0
  192.2630  178.6990  144.7380 O   0  0  0  0  0  0  0  0  0  0  0  0
  191.3070  177.9360  144.4330 C   0  0  0  0  0  0  0  0  0  0  0  0
  190.4120  178.3260  143.3900 N   0  0  0  0  0  2  0  0  0  0  0  0
  192.0030  175.5270  144.6550 C   0  0  0  0  0  1  0  0  0  0  0  0
  191.1040  176.6500  145.1840 C   0  0  1  0  0  3  0  0  0  0  0  0
  192.1300  175.9150  147.2460 C   0  0  0  0  0  1  0  0  0  0  0  0
  191.1920  176.8550  146.6410 N   0  0  0  0  0  0  0  0  0  0  0  0
  189.8860  176.6140  147.2440 C   0  0  0  0  0  2  0  0  0  0  0  0
  189.2310  177.9260  147.6410 C   0  0  2  0  0  3  0  0  0  0  0  0
  189.7770  178.3670  148.8450 O   0  0  0  0  0  1  0  0  0  0  0  0
  187.7380  177.7310  147.8140 C   0  0  0  0  0  1  0  0  0  0  0  0
  1  9  1  1  0  0  0
  1  6  1  0  0  0  0
  2 13  1  0  0  0  0
  2  5  1  0  0  0  0
  3  2  2  0  0  0  0
  4  7  2  0  0  0  0
  5 14  1  1  0  0  0
  5 16  1  0  0  0  0
  7  3  1  0  0  0  0
  8 23  1  1  0  0  0
  8 12  1  0  0  0  0
 10 18  1  0  0  0  0
 11 20  2  0  0  0  0
 11  4  1  0  0  0  0
 13  8  1  0  0  0  0
 14  1  1  0  0  0  0
 15 20  1  0  0  0  0
 16 12  1  1  0  0  0
 16 17  1  0  0  0  0
 17  6  1  0  0  0  0
 18 13  2  0  0  0  0
 19 10  2  0  0  0  0
 19  3  1  0  0  0  0
 20 19  1  0  0  0  0
 22 21  2  0  0  0  0
 22 25  1  0  0  0  0
 23 22  1  0  0  0  0
 25 24  1  6  0  0  0
 25 27  1  0  0  0  0
 27 28  1  0  0  0  0
 27 26  1  0  0  0  0
 28 29  1  0  0  0  0
 29 31  1  1  0  0  0
 29 30  1  0  0  0  0
M  END
>  <MODEL>
5

>  <REMARK>
 VINA RESULT:      -7.3      2.923      7.273
  Name = 
  5 active torsions:
  status: ('A' for Active; 'I' for Inactive)
    1  A    between atoms: C_1  and  C_24
    2  A    between atoms: C_9  and  C_22
    3  A    between atoms: C_15  and  N_23
    4  A    between atoms: N_19  and  C_22
    5  A    between atoms: N_19  and  C_24
                            x       y       z     vdW  Elec       q    Type
                         _______ _______ _______ _____ _____    ______ ____

>  <TORSDO>
F 5

$$$$
=
 OpenBabel11052413173D

 31 34  0  0  1  0  0  0  0  0999 V2000
  185.9930  178.8680  146.3710 C   0  0  1  0  0  3  0  0  0  0  0  0
  184.5240  178.3410  142.8620 C   0  0  0  0  0  0  0  0  0  0  0  0
  183.1350  178.5910  142.7570 C   0  0  0  0  0  0  0  0  0  0  0  0
  180.9290  178.7410  143.7740 C   0  0  0  0  0  3  0  0  0  0  0  0
  185.1310  177.9930  144.2050 C   0  0  2  0  0  3  0  0  0  0  0  0
  187.2820  178.4000  146.0600 O   0  0  0  0  0  0  0  0  0  0  0  0
  182.2980  178.4900  143.8800 C   0  0  0  0  0  3  0  0  0  0  0  0
  186.8070  178.0750  141.7300 C   0  0  1  0  0  3  0  0  0  0  0  0
  186.0930  179.9920  147.1900 O   0  0  0  0  0  1  0  0  0  0  0  0
  183.3930  179.0330  140.3790 C   0  0  0  0  0  3  0  0  0  0  0  0
  180.3770  179.0930  142.5430 C   0  0  0  0  0  3  0  0  0  0  0  0
  187.3960  178.0450  143.1380 C   0  0  0  0  0  2  0  0  0  0  0  0
  185.3410  178.4530  141.7090 C   0  0  0  0  0  0  0  0  0  0  0  0
  185.2550  179.2400  145.0870 C   0  0  0  0  0  2  0  0  0  0  0  0
  180.5420  179.5760  140.1150 C   0  0  0  0  0  1  0  0  0  0  0  0
  186.4810  177.2700  144.0740 C   0  0  1  0  0  3  0  0  0  0  0  0
  187.1240  177.1360  145.4590 C   0  0  0  0  0  2  0  0  0  0  0  0
  184.7570  178.7790  140.4800 C   0  0  0  0  0  3  0  0  0  0  0  0
  182.5690  178.9470  141.5060 C   0  0  0  0  0  0  0  0  0  0  0  0
  181.1840  179.1980  141.4080 C   0  0  0  0  0  0  0  0  0  0  0  0
  189.1470  179.3980  139.2370 O   0  0  0  0  0  0  0  0  0  0  0  0
  188.4120  178.5580  139.8230 C   0  0  0  0  0  0  0  0  0  0  0  0
  187.5880  178.9920  140.9060 N   0  0  0  0  0  2  0  0  0  0  0  0
  187.8480  176.9200  137.9970 C   0  0  0  0  0  1  0  0  0  0  0  0
  188.4350  177.1160  139.4000 C   0  0  1  0  0  3  0  0  0  0  0  0
  190.2840  176.7900  140.9210 C   0  0  0  0  0  1  0  0  0  0  0  0
  189.7700  176.5210  139.5820 N   0  0  0  0  0  0  0  0  0  0  0  0
  190.7020  177.1200  138.6320 C   0  0  0  0  0  2  0  0  0  0  0  0
  191.4170  176.0420  137.8350 C   0  0  2  0  0  3  0  0  0  0  0  0
  191.0350  174.7880  138.3110 O   0  0  0  0  0  1  0  0  0  0  0  0
  192.9170  176.1940  137.9830 C   0  0  0  0  0  1  0  0  0  0  0  0
  1  9  1  1  0  0  0
  2  5  1  0  0  0  0
  3  2  1  0  0  0  0
  3  7  1  0  0  0  0
  4  7  2  0  0  0  0
  5 14  1  1  0  0  0
  6  1  1  0  0  0  0
  8 23  1  6  0  0  0
  8 12  1  0  0  0  0
 10 18  2  0  0  0  0
 10 19  1  0  0  0  0
 11  4  1  0  0  0  0
 13  8  1  0  0  0  0
 13  2  2  0  0  0  0
 14  1  1  0  0  0  0
 15 20  1  0  0  0  0
 16 12  1  6  0  0  0
 16  5  1  0  0  0  0
 16 17  1  0  0  0  0
 17  6  1  0  0  0  0
 18 13  1  0  0  0  0
 19  3  2  0  0  0  0
 20 19  1  0  0  0  0
 20 11  2  0  0  0  0
 21 22  2  0  0  0  0
 22 23  1  0  0  0  0
 25 24  1  6  0  0  0
 25 27  1  0  0  0  0
 25 22  1  0  0  0  0
 27 26  1  0  0  0  0
 28 27  1  0  0  0  0
 29 31  1  1  0  0  0
 29 30  1  0  0  0  0
 29 28  1  0  0  0  0
M  END
>  <MODEL>
6

>  <REMARK>
 VINA RESULT:      -7.3      2.288      3.666
  Name = 
  5 active torsions:
  status: ('A' for Active; 'I' for Inactive)
    1  A    between atoms: C_1  and  C_24
    2  A    between atoms: C_9  and  C_22
    3  A    between atoms: C_15  and  N_23
    4  A    between atoms: N_19  and  C_22
    5  A    between atoms: N_19  and  C_24
                            x       y       z     vdW  Elec       q    Type
                         _______ _______ _______ _____ _____    ______ ____

>  <TORSDO>
F 5

$$$$
=
 OpenBabel11052413173D

 31 34  0  0  1  0  0  0  0  0999 V2000
  185.9020  179.3960  147.3420 C   0  0  1  0  0  3  0  0  0  0  0  0
  184.8900  178.1740  143.8450 C   0  0  0  0  0  0  0  0  0  0  0  0
  183.5840  178.5440  143.4430 C   0  0  0  0  0  0  0  0  0  0  0  0
  181.3040  179.1880  143.9940 C   0  0  0  0  0  3  0  0  0  0  0  0
  185.2380  178.1080  145.3180 C   0  0  2  0  0  3  0  0  0  0  0  0
  187.1370  178.7240  147.3790 O   0  0  0  0  0  0  0  0  0  0  0  0
  182.5890  178.8220  144.3940 C   0  0  0  0  0  3  0  0  0  0  0  0
  187.2450  177.3800  143.2240 C   0  0  1  0  0  3  0  0  0  0  0  0
  186.0520  180.6710  147.8870 O   0  0  0  0  0  1  0  0  0  0  0  0
  184.2450  178.3440  141.1100 C   0  0  0  0  0  3  0  0  0  0  0  0
  180.9940  179.2800  142.6370 C   0  0  0  0  0  3  0  0  0  0  0  0
  187.6140  177.6380  144.6830 C   0  0  0  0  0  2  0  0  0  0  0  0
  185.8720  177.9020  142.8600 C   0  0  0  0  0  0  0  0  0  0  0  0
  185.4210  179.5150  145.8980 C   0  0  0  0  0  2  0  0  0  0  0  0
  181.5770  179.1190  140.2310 C   0  0  0  0  0  1  0  0  0  0  0  0
  186.4680  177.2290  145.5960 C   0  0  1  0  0  3  0  0  0  0  0  0
  186.8770  177.3760  147.0650 C   0  0  0  0  0  2  0  0  0  0  0  0
  185.5270  177.9720  141.5050 C   0  0  0  0  0  3  0  0  0  0  0  0
  183.2640  178.6350  142.0640 C   0  0  0  0  0  0  0  0  0  0  0  0
  181.9620  179.0070  141.6690 C   0  0  0  0  0  0  0  0  0  0  0  0
  190.4870  178.3510  141.8140 O   0  0  0  0  0  0  0  0  0  0  0  0
  189.6630  177.7120  142.5220 C   0  0  0  0  0  0  0  0  0  0  0  0
  188.2660  177.9680  142.3630 N   0  0  0  0  0  2  0  0  0  0  0  0
  190.9770  175.5980  142.8930 C   0  0  0  0  0  1  0  0  0  0  0  0
  190.1550  176.7190  143.5380 C   0  0  1  0  0  3  0  0  0  0  0  0
  191.6890  178.4690  144.1920 C   0  0  0  0  0  1  0  0  0  0  0  0
  190.8290  177.3890  144.6640 N   0  0  0  0  0  0  0  0  0  0  0  0
  191.6800  176.4290  145.3590 C   0  0  0  0  0  2  0  0  0  0  0  0
  191.6510  176.6770  146.8570 C   0  0  2  0  0  3  0  0  0  0  0  0
  192.2980  175.6290  147.5100 O   0  0  0  0  0  1  0  0  0  0  0  0
  190.2180  176.7560  147.3440 C   0  0  0  0  0  1  0  0  0  0  0  0
  1  6  1  0  0  0  0
  1  9  1  6  0  0  0
  2  5  1  0  0  0  0
  3  2  1  0  0  0  0
  3  7  1  0  0  0  0
  4  7  2  0  0  0  0
  5 16  1  0  0  0  0
  5 14  1  6  0  0  0
  8 23  1  6  0  0  0
  8 12  1  0  0  0  0
 10 18  2  0  0  0  0
 10 19  1  0  0  0  0
 11  4  1  0  0  0  0
 13  8  1  0  0  0  0
 13  2  2  0  0  0  0
 14  1  1  0  0  0  0
 15 20  1  0  0  0  0
 16 12  1  6  0  0  0
 16 17  1  0  0  0  0
 17  6  1  0  0  0  0
 18 13  1  0  0  0  0
 19  3  2  0  0  0  0
 20 19  1  0  0  0  0
 20 11  2  0  0  0  0
 21 22  2  0  0  0  0
 22 25  1  0  0  0  0
 23 22  1  0  0  0  0
 25 24  1  6  0  0  0
 25 27  1  0  0  0  0
 26 27  1  0  0  0  0
 27 28  1  0  0  0  0
 28 29  1  0  0  0  0
 29 31  1  1  0  0  0
 29 30  1  0  0  0  0
M  END
>  <MODEL>
7

>  <REMARK>
 VINA RESULT:      -7.2      3.151      5.645
  Name = 
  5 active torsions:
  status: ('A' for Active; 'I' for Inactive)
    1  A    between atoms: C_1  and  C_24
    2  A    between atoms: C_9  and  C_22
    3  A    between atoms: C_15  and  N_23
    4  A    between atoms: N_19  and  C_22
    5  A    between atoms: N_19  and  C_24
                            x       y       z     vdW  Elec       q    Type
                         _______ _______ _______ _____ _____    ______ ____

>  <TORSDO>
F 5

$$$$
