=
 OpenBabel11052416463D

 32 37  0  0  1  0  0  0  0  0999 V2000
  186.8020  177.5010  142.9060 C   0  0  0  0  0  2  0  0  0  0  0  0
  190.9280  177.2810  139.4940 C   0  0  1  0  0  3  0  0  0  0  0  0
  186.7580  176.1800  136.9940 C   0  0  0  0  0  2  0  0  0  0  0  0
  187.5150  174.8810  136.7140 C   0  0  0  0  0  2  0  0  0  0  0  0
  193.1230  176.3830  138.6700 C   0  0  0  0  0  0  0  0  0  0  0  0
  193.7750  175.3830  137.8940 N   0  0  0  0  0  0  0  0  0  0  0  0
  189.7240  177.0930  141.6870 C   0  0  1  0  0  3  0  0  0  0  0  0
  188.8610  178.6850  139.9410 C   0  0  0  0  0  2  0  0  0  0  0  0
  193.8580  173.3130  136.9550 C   0  0  0  0  0  0  0  0  0  0  0  0
  187.6380  178.4870  142.0890 C   0  0  0  0  0  2  0  0  0  0  0  0
  187.4270  176.9350  138.1390 C   0  0  0  0  0  2  0  0  0  0  0  0
  189.7030  177.9790  138.8710 C   0  0  2  0  0  3  0  0  0  0  0  0
  188.9160  177.1280  137.8370 C   0  0  1  0  0  3  0  0  0  0  0  0
  191.0560  175.9270  137.3120 C   0  0  2  0  0  3  0  0  0  0  0  0
  195.1020  173.5440  137.6110 N   0  0  0  0  0  0  0  0  0  0  0  0
  188.9240  176.9140  144.0360 C   0  0  0  0  0  2  0  0  0  0  0  0
  188.4670  177.7250  141.0630 C   0  0  2  0  0  3  0  0  0  0  0  0
  195.0220  174.7260  138.1550 C   0  0  0  0  0  3  0  0  0  0  0  0
  189.3820  176.1280  142.8150 C   0  0  0  0  0  2  0  0  0  0  0  0
  187.4610  176.9940  144.1220 N   0  0  0  0  0  0  0  0  0  0  0  0
  188.9060  175.1720  136.3690 N   0  0  0  0  0  2  0  0  0  0  0  0
  189.5540  175.7640  137.5400 C   0  0  2  0  0  3  0  0  0  0  0  0
  191.7110  174.6150  136.9250 C   0  0  0  0  0  3  0  0  0  0  0  0
  190.5120  176.3390  140.6230 C   0  0  0  0  0  2  0  0  0  0  0  0
  193.7610  177.0580  139.5220 O   0  0  0  0  0  0  0  0  0  0  0  0
  193.5560  172.2500  136.3510 O   0  0  0  0  0  0  0  0  0  0  0  0
  191.7060  176.5530  138.4880 N   0  0  0  0  0  0  0  0  0  0  0  0
  193.0160  174.4640  137.1420 C   0  0  0  0  0  0  0  0  0  0  0  0
  187.1430  177.9160  145.2030 C   0  0  0  0  0  2  0  0  0  0  0  0
  188.2160  177.8580  146.2830 C   0  0  0  0  0  2  0  0  0  0  0  0
  188.6480  178.2220  148.7130 C   0  0  0  0  0  1  0  0  0  0  0  0
  187.6000  177.8730  147.6730 C   0  0  0  0  0  2  0  0  0  0  0  0
  1 20  1  0  0  0  0
  2 24  1  1  0  0  0
  3 11  1  0  0  0  0
  4  3  1  0  0  0  0
  5 25  2  0  0  0  0
  6 18  1  0  0  0  0
  6  5  1  0  0  0  0
  7 24  1  6  0  0  0
  7 19  1  0  0  0  0
  9 28  1  0  0  0  0
  9 15  1  0  0  0  0
 10  1  1  0  0  0  0
 12  2  1  0  0  0  0
 12  8  1  1  0  0  0
 13 11  1  1  0  0  0
 13 12  1  0  0  0  0
 14 23  1  1  0  0  0
 14 22  1  0  0  0  0
 14 27  1  0  0  0  0
 15 18  2  0  0  0  0
 16 20  1  0  0  0  0
 17  8  1  6  0  0  0
 17  7  1  0  0  0  0
 17 10  1  0  0  0  0
 19 16  1  0  0  0  0
 20 29  1  0  0  0  0
 21  4  1  0  0  0  0
 22 21  1  6  0  0  0
 22 13  1  0  0  0  0
 23 28  2  0  0  0  0
 26  9  2  0  0  0  0
 27  5  1  0  0  0  0
 27  2  1  0  0  0  0
 28  6  1  0  0  0  0
 29 30  1  0  0  0  0
 30 32  1  0  0  0  0
 32 31  1  0  0  0  0
M  END
>  <MODEL>
1

>  <REMARK>
 VINA RESULT:      -8.6      0.000      0.000
  Name = 
  3 active torsions:
  status: ('A' for Active; 'I' for Inactive)
    1  A    between atoms: C_1  and  C_10
    2  A    between atoms: C_1  and  C_20
    3  A    between atoms: C_10  and  N_24
                            x       y       z     vdW  Elec       q    Type
                         _______ _______ _______ _____ _____    ______ ____

>  <TORSDO>
F 3

$$$$
=
 OpenBabel11052416463D

 32 37  0  0  1  0  0  0  0  0999 V2000
  186.8980  177.5340  142.8850 C   0  0  0  0  0  2  0  0  0  0  0  0
  190.8740  177.2530  139.3020 C   0  0  1  0  0  3  0  0  0  0  0  0
  186.6190  175.9830  137.0360 C   0  0  0  0  0  2  0  0  0  0  0  0
  187.3880  174.6880  136.7720 C   0  0  0  0  0  2  0  0  0  0  0  0
  193.0470  176.3610  138.4160 C   0  0  0  0  0  0  0  0  0  0  0  0
  193.6830  175.3430  137.6500 N   0  0  0  0  0  0  0  0  0  0  0  0
  189.7720  177.1290  141.5530 C   0  0  1  0  0  3  0  0  0  0  0  0
  188.8020  178.6370  139.7880 C   0  0  0  0  0  2  0  0  0  0  0  0
  193.7640  173.2390  136.7880 C   0  0  0  0  0  0  0  0  0  0  0  0
  187.6790  178.5020  141.9940 C   0  0  0  0  0  2  0  0  0  0  0  0
  187.3230  176.7940  138.1190 C   0  0  0  0  0  2  0  0  0  0  0  0
  189.6100  177.9040  138.7090 C   0  0  2  0  0  3  0  0  0  0  0  0
  188.7940  177.0010  137.7440 C   0  0  1  0  0  3  0  0  0  0  0  0
  190.9310  175.8170  137.1700 C   0  0  2  0  0  3  0  0  0  0  0  0
  195.0310  173.5180  137.3780 N   0  0  0  0  0  0  0  0  0  0  0  0
  189.0790  177.0280  143.9400 C   0  0  0  0  0  2  0  0  0  0  0  0
  188.4760  177.7150  140.9620 C   0  0  2  0  0  3  0  0  0  0  0  0
  194.9520  174.7180  137.8800 C   0  0  0  0  0  3  0  0  0  0  0  0
  189.4980  176.2030  142.7310 C   0  0  0  0  0  2  0  0  0  0  0  0
  187.6200  177.0860  144.0890 N   0  0  0  0  0  0  0  0  0  0  0  0
  188.7570  174.9890  136.3530 N   0  0  0  0  0  2  0  0  0  0  0  0
  189.4440  175.6370  137.4700 C   0  0  2  0  0  3  0  0  0  0  0  0
  191.5930  174.5020  136.8050 C   0  0  0  0  0  3  0  0  0  0  0  0
  190.5260  176.3480  140.4840 C   0  0  0  0  0  2  0  0  0  0  0  0
  193.7090  177.0790  139.2120 O   0  0  0  0  0  0  0  0  0  0  0  0
  193.4550  172.1490  136.2390 O   0  0  0  0  0  0  0  0  0  0  0  0
  191.6200  176.5000  138.2910 N   0  0  0  0  0  0  0  0  0  0  0  0
  192.9090  174.3820  136.9680 C   0  0  0  0  0  0  0  0  0  0  0  0
  187.3320  178.0440  145.1470 C   0  0  0  0  0  2  0  0  0  0  0  0
  186.2290  177.5160  146.0540 C   0  0  0  0  0  2  0  0  0  0  0  0
  184.3220  178.8980  145.2290 C   0  0  0  0  0  1  0  0  0  0  0  0
  185.2350  178.6120  146.4070 C   0  0  0  0  0  2  0  0  0  0  0  0
  1 20  1  0  0  0  0
  2 24  1  1  0  0  0
  3 11  1  0  0  0  0
  4  3  1  0  0  0  0
  5 25  2  0  0  0  0
  6 18  1  0  0  0  0
  6  5  1  0  0  0  0
  7 24  1  6  0  0  0
  7 19  1  0  0  0  0
  9 28  1  0  0  0  0
  9 15  1  0  0  0  0
 10  1  1  0  0  0  0
 12  2  1  0  0  0  0
 12  8  1  1  0  0  0
 13 11  1  1  0  0  0
 13 12  1  0  0  0  0
 14 23  1  1  0  0  0
 14 22  1  0  0  0  0
 14 27  1  0  0  0  0
 15 18  2  0  0  0  0
 16 20  1  0  0  0  0
 17  8  1  6  0  0  0
 17  7  1  0  0  0  0
 17 10  1  0  0  0  0
 19 16  1  0  0  0  0
 20 29  1  0  0  0  0
 21  4  1  0  0  0  0
 22 21  1  6  0  0  0
 22 13  1  0  0  0  0
 23 28  2  0  0  0  0
 26  9  2  0  0  0  0
 27  5  1  0  0  0  0
 27  2  1  0  0  0  0
 28  6  1  0  0  0  0
 29 30  1  0  0  0  0
 30 32  1  0  0  0  0
 31 32  1  0  0  0  0
M  END
>  <MODEL>
2

>  <REMARK>
 VINA RESULT:      -8.6      0.818      1.178
  Name = 
  3 active torsions:
  status: ('A' for Active; 'I' for Inactive)
    1  A    between atoms: C_1  and  C_10
    2  A    between atoms: C_1  and  C_20
    3  A    between atoms: C_10  and  N_24
                            x       y       z     vdW  Elec       q    Type
                         _______ _______ _______ _____ _____    ______ ____

>  <TORSDO>
F 3

$$$$
=
 OpenBabel11052416463D

 32 37  0  0  1  0  0  0  0  0999 V2000
  187.6420  177.5160  142.5460 C   0  0  0  0  0  2  0  0  0  0  0  0
  190.9300  177.1950  138.3260 C   0  0  1  0  0  3  0  0  0  0  0  0
  186.3450  175.9110  136.8500 C   0  0  0  0  0  2  0  0  0  0  0  0
  187.0560  174.6120  136.4680 C   0  0  0  0  0  2  0  0  0  0  0  0
  192.9150  176.2910  137.0820 C   0  0  0  0  0  0  0  0  0  0  0  0
  193.4080  175.2640  136.2260 N   0  0  0  0  0  0  0  0  0  0  0  0
  190.2380  177.0940  140.7360 C   0  0  1  0  0  3  0  0  0  0  0  0
  188.9750  178.5870  139.1530 C   0  0  0  0  0  2  0  0  0  0  0  0
  193.3360  173.1530  135.3840 C   0  0  0  0  0  0  0  0  0  0  0  0
  188.2550  178.4740  141.5220 C   0  0  0  0  0  2  0  0  0  0  0  0
  187.2280  176.7310  137.7860 C   0  0  0  0  0  2  0  0  0  0  0  0
  189.5820  177.8430  137.9560 C   0  0  2  0  0  3  0  0  0  0  0  0
  188.6100  176.9320  137.1580 C   0  0  1  0  0  3  0  0  0  0  0  0
  190.6140  175.7390  136.2300 C   0  0  2  0  0  3  0  0  0  0  0  0
  194.6870  173.4350  135.7410 N   0  0  0  0  0  0  0  0  0  0  0  0
  189.9740  177.0160  143.2080 C   0  0  0  0  0  2  0  0  0  0  0  0
  188.8600  177.6760  140.3740 C   0  0  2  0  0  3  0  0  0  0  0  0
  194.6970  174.6400  136.2370 C   0  0  0  0  0  3  0  0  0  0  0  0
  190.1750  176.1800  141.9520 C   0  0  0  0  0  2  0  0  0  0  0  0
  188.5630  177.0780  143.6090 N   0  0  0  0  0  0  0  0  0  0  0  0
  188.3300  174.9070  135.8140 N   0  0  0  0  0  2  0  0  0  0  0  0
  189.2030  175.5640  136.7880 C   0  0  2  0  0  3  0  0  0  0  0  0
  191.2020  174.4200  135.7680 C   0  0  0  0  0  3  0  0  0  0  0  0
  190.7940  176.3010  139.5590 C   0  0  0  0  0  2  0  0  0  0  0  0
  193.7060  177.0160  137.7440 O   0  0  0  0  0  0  0  0  0  0  0  0
  192.9360  172.0580  134.9080 O   0  0  0  0  0  0  0  0  0  0  0  0
  191.4890  176.4310  137.2070 N   0  0  0  0  0  0  0  0  0  0  0  0
  192.5260  174.2990  135.7000 C   0  0  0  0  0  0  0  0  0  0  0  0
  188.4650  178.0460  144.6920 C   0  0  0  0  0  2  0  0  0  0  0  0
  188.6960  177.3660  146.0340 C   0  0  0  0  0  2  0  0  0  0  0  0
  186.2910  177.9950  146.2430 C   0  0  0  0  0  1  0  0  0  0  0  0
  187.5610  177.6560  147.0020 C   0  0  0  0  0  2  0  0  0  0  0  0
  1 20  1  0  0  0  0
  2 24  1  1  0  0  0
  3 11  1  0  0  0  0
  4  3  1  0  0  0  0
  5 27  1  0  0  0  0
  5 25  2  0  0  0  0
  6 18  1  0  0  0  0
  6  5  1  0  0  0  0
  7 24  1  6  0  0  0
  7 19  1  0  0  0  0
  9 28  1  0  0  0  0
  9 15  1  0  0  0  0
 10  1  1  0  0  0  0
 12  2  1  0  0  0  0
 12  8  1  1  0  0  0
 13 11  1  1  0  0  0
 13 12  1  0  0  0  0
 14 23  1  1  0  0  0
 14 22  1  0  0  0  0
 14 27  1  0  0  0  0
 15 18  2  0  0  0  0
 16 20  1  0  0  0  0
 17  8  1  6  0  0  0
 17  7  1  0  0  0  0
 17 10  1  0  0  0  0
 19 16  1  0  0  0  0
 20 29  1  0  0  0  0
 21  4  1  0  0  0  0
 22 21  1  6  0  0  0
 22 13  1  0  0  0  0
 26  9  2  0  0  0  0
 27  2  1  0  0  0  0
 28 23  2  0  0  0  0
 28  6  1  0  0  0  0
 29 30  1  0  0  0  0
 30 32  1  0  0  0  0
 31 32  1  0  0  0  0
M  END
>  <MODEL>
3

>  <REMARK>
 VINA RESULT:      -7.9      1.245      1.349
  Name = 
  3 active torsions:
  status: ('A' for Active; 'I' for Inactive)
    1  A    between atoms: C_1  and  C_10
    2  A    between atoms: C_1  and  C_20
    3  A    between atoms: C_10  and  N_24
                            x       y       z     vdW  Elec       q    Type
                         _______ _______ _______ _____ _____    ______ ____

>  <TORSDO>
F 3

$$$$
=
 OpenBabel11052416463D

 32 37  0  0  1  0  0  0  0  0999 V2000
  185.9090  177.9600  146.9480 C   0  0  0  0  0  2  0  0  0  0  0  0
  184.7710  179.0720  141.8310 C   0  0  1  0  0  3  0  0  0  0  0  0
  180.4840  178.6160  144.3330 C   0  0  0  0  0  2  0  0  0  0  0  0
  180.2350  177.5190  143.2970 C   0  0  0  0  0  2  0  0  0  0  0  0
  184.8040  178.6060  139.3640 C   0  0  0  0  0  0  0  0  0  0  0  0
  184.1650  177.9450  138.2760 N   0  0  0  0  0  0  0  0  0  0  0  0
  186.0600  178.1230  143.7630 C   0  0  1  0  0  3  0  0  0  0  0  0
  184.6070  180.1450  144.1250 C   0  0  0  0  0  2  0  0  0  0  0  0
  182.8480  176.2960  137.4290 C   0  0  0  0  0  0  0  0  0  0  0  0
  185.8450  179.2000  146.0550 C   0  0  0  0  0  2  0  0  0  0  0  0
  181.9610  178.9960  144.3440 C   0  0  0  0  0  2  0  0  0  0  0  0
  183.8790  179.8670  142.8040 C   0  0  2  0  0  3  0  0  0  0  0  0
  182.4180  179.3550  142.9270 C   0  0  1  0  0  3  0  0  0  0  0  0
  182.6010  178.5030  140.5730 C   0  0  2  0  0  3  0  0  0  0  0  0
  184.0240  176.3690  136.6280 N   0  0  0  0  0  0  0  0  0  0  0  0
  187.6630  177.1540  145.3990 C   0  0  0  0  0  2  0  0  0  0  0  0
  185.1340  178.8550  144.7520 C   0  0  2  0  0  3  0  0  0  0  0  0
  184.7680  177.3070  137.1440 C   0  0  0  0  0  3  0  0  0  0  0  0
  186.6140  176.8290  144.3450 C   0  0  0  0  0  2  0  0  0  0  0  0
  187.1070  177.1240  146.7580 N   0  0  0  0  0  0  0  0  0  0  0  0
  180.6370  177.9790  141.9680 N   0  0  0  0  0  2  0  0  0  0  0  0
  182.0840  178.1950  141.9770 C   0  0  2  0  0  3  0  0  0  0  0  0
  182.2130  177.4220  139.5820 C   0  0  0  0  0  3  0  0  0  0  0  0
  185.2990  177.7950  142.4830 C   0  0  0  0  0  2  0  0  0  0  0  0
  185.9970  179.0030  139.2680 O   0  0  0  0  0  0  0  0  0  0  0  0
  181.9130  175.4700  137.2530 O   0  0  0  0  0  0  0  0  0  0  0  0
  184.0630  178.7500  140.5890 N   0  0  0  0  0  0  0  0  0  0  0  0
  182.9390  177.2790  138.4760 C   0  0  0  0  0  0  0  0  0  0  0  0
  188.1350  177.6300  147.6560 C   0  0  0  0  0  2  0  0  0  0  0  0
  189.4450  177.8280  146.9040 C   0  0  0  0  0  2  0  0  0  0  0  0
  191.4930  176.5730  146.2310 C   0  0  0  0  0  1  0  0  0  0  0  0
  190.4900  176.8150  147.3440 C   0  0  0  0  0  2  0  0  0  0  0  0
  2 24  1  1  0  0  0
  2 12  1  0  0  0  0
  3 11  1  0  0  0  0
  4  3  1  0  0  0  0
  5 27  1  0  0  0  0
  6 28  1  0  0  0  0
  6  5  1  0  0  0  0
  7 24  1  6  0  0  0
  7 19  1  0  0  0  0
  7 17  1  0  0  0  0
  9 28  1  0  0  0  0
 10  1  1  0  0  0  0
 12 13  1  0  0  0  0
 12  8  1  1  0  0  0
 13 11  1  1  0  0  0
 14 23  1  6  0  0  0
 14 27  1  0  0  0  0
 14 22  1  0  0  0  0
 15 18  2  0  0  0  0
 15  9  1  0  0  0  0
 16 20  1  0  0  0  0
 17  8  1  6  0  0  0
 17 10  1  0  0  0  0
 18  6  1  0  0  0  0
 19 16  1  0  0  0  0
 20  1  1  0  0  0  0
 20 29  1  0  0  0  0
 21  4  1  0  0  0  0
 22 21  1  6  0  0  0
 22 13  1  0  0  0  0
 25  5  2  0  0  0  0
 26  9  2  0  0  0  0
 27  2  1  0  0  0  0
 28 23  2  0  0  0  0
 30 32  1  0  0  0  0
 30 29  1  0  0  0  0
 31 32  1  0  0  0  0
M  END
>  <MODEL>
4

>  <REMARK>
 VINA RESULT:      -6.9      5.977      7.861
  Name = 
  3 active torsions:
  status: ('A' for Active; 'I' for Inactive)
    1  A    between atoms: C_1  and  C_10
    2  A    between atoms: C_1  and  C_20
    3  A    between atoms: C_10  and  N_24
                            x       y       z     vdW  Elec       q    Type
                         _______ _______ _______ _____ _____    ______ ____

>  <TORSDO>
F 3

$$$$
=
 OpenBabel11052416463D

 32 37  0  0  1  0  0  0  0  0999 V2000
  185.6920  177.5560  144.8270 C   0  0  0  0  0  2  0  0  0  0  0  0
  186.7440  178.6960  139.6980 C   0  0  1  0  0  3  0  0  0  0  0  0
  182.1920  176.6840  139.9600 C   0  0  0  0  0  2  0  0  0  0  0  0
  182.8140  175.6610  139.0100 C   0  0  0  0  0  2  0  0  0  0  0  0
  188.0560  178.4830  137.5670 C   0  0  0  0  0  0  0  0  0  0  0  0
  188.2390  177.7530  136.3590 N   0  0  0  0  0  0  0  0  0  0  0  0
  187.2280  178.0390  142.0700 C   0  0  1  0  0  3  0  0  0  0  0  0
  185.2090  179.4550  141.5720 C   0  0  0  0  0  2  0  0  0  0  0  0
  188.0670  175.8520  135.1220 C   0  0  0  0  0  0  0  0  0  0  0  0
  185.6510  178.7860  143.9180 C   0  0  0  0  0  2  0  0  0  0  0  0
  183.2880  177.5110  140.6250 C   0  0  0  0  0  2  0  0  0  0  0  0
  185.3040  179.0780  140.0870 C   0  0  2  0  0  3  0  0  0  0  0  0
  184.2020  178.1200  139.5580 C   0  0  1  0  0  3  0  0  0  0  0  0
  185.7100  177.5810  137.6250 C   0  0  2  0  0  3  0  0  0  0  0  0
  189.3860  176.3660  134.9520 N   0  0  0  0  0  0  0  0  0  0  0  0
  188.1150  177.4880  144.3280 C   0  0  0  0  0  2  0  0  0  0  0  0
  185.7720  178.3490  142.4630 C   0  0  2  0  0  3  0  0  0  0  0  0
  189.4640  177.4410  135.6840 C   0  0  0  0  0  3  0  0  0  0  0  0
  187.8350  176.9420  142.9350 C   0  0  0  0  0  2  0  0  0  0  0  0
  187.0390  177.1640  145.2740 N   0  0  0  0  0  0  0  0  0  0  0  0
  183.6100  176.3400  137.9880 N   0  0  0  0  0  2  0  0  0  0  0  0
  184.7350  177.0030  138.6490 C   0  0  2  0  0  3  0  0  0  0  0  0
  186.1910  176.5240  136.6490 C   0  0  0  0  0  3  0  0  0  0  0  0
  187.2920  177.6010  140.6120 C   0  0  0  0  0  2  0  0  0  0  0  0
  188.9600  179.2450  138.0050 O   0  0  0  0  0  0  0  0  0  0  0  0
  187.6400  174.7910  134.5940 O   0  0  0  0  0  0  0  0  0  0  0  0
  186.8330  178.2770  138.2960 N   0  0  0  0  0  0  0  0  0  0  0  0
  187.3460  176.7170  136.0170 C   0  0  0  0  0  0  0  0  0  0  0  0
  187.3150  177.8890  146.5060 C   0  0  0  0  0  2  0  0  0  0  0  0
  188.1240  177.0220  147.4610 C   0  0  0  0  0  2  0  0  0  0  0  0
  190.5760  176.7970  147.0590 C   0  0  0  0  0  1  0  0  0  0  0  0
  189.4940  177.6250  147.7270 C   0  0  0  0  0  2  0  0  0  0  0  0
  1 20  1  0  0  0  0
  2 12  1  0  0  0  0
  2 24  1  1  0  0  0
  3 11  1  0  0  0  0
  4  3  1  0  0  0  0
  5 25  2  0  0  0  0
  5 27  1  0  0  0  0
  6  5  1  0  0  0  0
  7 24  1  6  0  0  0
  7 17  1  0  0  0  0
  7 19  1  0  0  0  0
  9 28  1  0  0  0  0
 10  1  1  0  0  0  0
 12  8  1  1  0  0  0
 13 12  1  0  0  0  0
 13 11  1  1  0  0  0
 14 23  1  1  0  0  0
 14 27  1  0  0  0  0
 14 22  1  0  0  0  0
 15  9  1  0  0  0  0
 15 18  2  0  0  0  0
 16 20  1  0  0  0  0
 17  8  1  6  0  0  0
 17 10  1  0  0  0  0
 18  6  1  0  0  0  0
 19 16  1  0  0  0  0
 20 29  1  0  0  0  0
 21  4  1  0  0  0  0
 22 21  1  6  0  0  0
 22 13  1  0  0  0  0
 26  9  2  0  0  0  0
 27  2  1  0  0  0  0
 28  6  1  0  0  0  0
 28 23  2  0  0  0  0
 29 30  1  0  0  0  0
 30 32  1  0  0  0  0
 31 32  1  0  0  0  0
M  END
>  <MODEL>
5

>  <REMARK>
 VINA RESULT:      -6.7      3.511      4.669
  Name = 
  3 active torsions:
  status: ('A' for Active; 'I' for Inactive)
    1  A    between atoms: C_1  and  C_10
    2  A    between atoms: C_1  and  C_20
    3  A    between atoms: C_10  and  N_24
                            x       y       z     vdW  Elec       q    Type
                         _______ _______ _______ _____ _____    ______ ____

>  <TORSDO>
F 3

$$$$
=
 OpenBabel11052416463D

 32 37  0  0  1  0  0  0  0  0999 V2000
  191.1870  173.7870  136.4960 C   0  0  0  0  0  2  0  0  0  0  0  0
  188.0100  177.7400  138.2290 C   0  0  1  0  0  3  0  0  0  0  0  0
  191.8010  177.2510  141.4280 C   0  0  0  0  0  2  0  0  0  0  0  0
  190.6630  177.0050  142.4190 C   0  0  0  0  0  2  0  0  0  0  0  0
  185.8320  178.6830  139.0470 C   0  0  0  0  0  0  0  0  0  0  0  0
  184.9960  178.9230  140.1740 N   0  0  0  0  0  0  0  0  0  0  0  0
  188.6170  175.5830  137.0990 C   0  0  1  0  0  3  0  0  0  0  0  0
  190.3400  177.4070  137.2780 C   0  0  0  0  0  2  0  0  0  0  0  0
  184.2860  178.4400  142.2800 C   0  0  0  0  0  0  0  0  0  0  0  0
  190.9700  175.2700  136.1900 C   0  0  0  0  0  2  0  0  0  0  0  0
  191.2820  177.1280  139.9990 C   0  0  0  0  0  2  0  0  0  0  0  0
  189.5020  178.1020  138.3590 C   0  0  2  0  0  3  0  0  0  0  0  0
  190.0710  178.0440  139.8030 C   0  0  1  0  0  3  0  0  0  0  0  0
  187.7680  178.5780  140.6480 C   0  0  2  0  0  3  0  0  0  0  0  0
  183.1330  178.5950  141.4560 N   0  0  0  0  0  0  0  0  0  0  0  0
  188.8350  173.4800  135.7890 C   0  0  0  0  0  2  0  0  0  0  0  0
  190.1130  175.8970  137.2830 C   0  0  2  0  0  3  0  0  0  0  0  0
  183.5670  178.8520  140.2540 C   0  0  0  0  0  3  0  0  0  0  0  0
  188.3400  174.0850  137.0950 C   0  0  0  0  0  2  0  0  0  0  0  0
  190.1700  172.8850  135.9280 N   0  0  0  0  0  0  0  0  0  0  0  0
  189.5860  177.9700  142.1990 N   0  0  0  0  0  2  0  0  0  0  0  0
  189.0160  177.7270  140.8740 C   0  0  2  0  0  3  0  0  0  0  0  0
  186.7360  178.3600  141.7380 C   0  0  0  0  0  3  0  0  0  0  0  0
  187.8090  176.2250  138.2210 C   0  0  0  0  0  2  0  0  0  0  0  0
  185.3630  178.7120  137.8770 O   0  0  0  0  0  0  0  0  0  0  0  0
  184.2550  178.1440  143.5040 O   0  0  0  0  0  0  0  0  0  0  0  0
  187.2100  178.3510  139.2930 N   0  0  0  0  0  0  0  0  0  0  0  0
  185.4610  178.6340  141.4730 C   0  0  0  0  0  0  0  0  0  0  0  0
  190.6180  172.5140  134.5940 C   0  0  0  0  0  2  0  0  0  0  0  0
  192.1090  172.2020  134.6020 C   0  0  0  0  0  2  0  0  0  0  0  0
  193.4090  170.4160  135.7610 C   0  0  0  0  0  1  0  0  0  0  0  0
  192.3580  170.7050  134.7060 C   0  0  0  0  0  2  0  0  0  0  0  0
  2 24  1  1  0  0  0
  2 12  1  0  0  0  0
  2 27  1  0  0  0  0
  3  4  1  0  0  0  0
  5 27  1  0  0  0  0
  5  6  1  0  0  0  0
  6 18  1  0  0  0  0
  6 28  1  0  0  0  0
  7 19  1  1  0  0  0
  7 17  1  0  0  0  0
  7 24  1  0  0  0  0
  8 17  1  0  0  0  0
  9 26  2  0  0  0  0
 10  1  1  0  0  0  0
 11  3  1  0  0  0  0
 12  8  1  6  0  0  0
 12 13  1  0  0  0  0
 13 11  1  6  0  0  0
 13 22  1  0  0  0  0
 14 22  1  0  0  0  0
 14 23  1  1  0  0  0
 15  9  1  0  0  0  0
 16 20  1  0  0  0  0
 16 19  1  0  0  0  0
 17 10  1  6  0  0  0
 18 15  2  0  0  0  0
 20  1  1  0  0  0  0
 21  4  1  0  0  0  0
 22 21  1  1  0  0  0
 25  5  2  0  0  0  0
 27 14  1  0  0  0  0
 28 23  2  0  0  0  0
 28  9  1  0  0  0  0
 29 30  1  0  0  0  0
 29 20  1  0  0  0  0
 30 32  1  0  0  0  0
 32 31  1  0  0  0  0
M  END
>  <MODEL>
6

>  <REMARK>
 VINA RESULT:      -6.2      3.755      8.870
  Name = 
  3 active torsions:
  status: ('A' for Active; 'I' for Inactive)
    1  A    between atoms: C_1  and  C_10
    2  A    between atoms: C_1  and  C_20
    3  A    between atoms: C_10  and  N_24
                            x       y       z     vdW  Elec       q    Type
                         _______ _______ _______ _____ _____    ______ ____

>  <TORSDO>
F 3

$$$$
=
 OpenBabel11052416463D

 32 37  0  0  1  0  0  0  0  0999 V2000
  184.9950  176.4130  134.6300 C   0  0  0  0  0  2  0  0  0  0  0  0
  187.9160  178.3270  138.6940 C   0  0  1  0  0  3  0  0  0  0  0  0
  190.9540  175.8880  135.5850 C   0  0  0  0  0  2  0  0  0  0  0  0
  191.2410  175.0640  136.8410 C   0  0  0  0  0  2  0  0  0  0  0  0
  188.5470  178.5260  141.1160 C   0  0  0  0  0  0  0  0  0  0  0  0
  189.3140  177.9860  142.1870 N   0  0  0  0  0  0  0  0  0  0  0  0
  185.8960  177.4030  137.5290 C   0  0  1  0  0  3  0  0  0  0  0  0
  187.6070  178.6810  136.2000 C   0  0  0  0  0  2  0  0  0  0  0  0
  190.3880  176.2620  143.2110 C   0  0  0  0  0  0  0  0  0  0  0  0
  185.6360  177.7450  135.0240 C   0  0  0  0  0  2  0  0  0  0  0  0
  189.6870  176.7150  135.7830 C   0  0  0  0  0  2  0  0  0  0  0  0
  188.6230  178.5190  137.3380 C   0  0  2  0  0  3  0  0  0  0  0  0
  189.8010  177.5440  137.0650 C   0  0  1  0  0  3  0  0  0  0  0  0
  190.1640  177.4120  139.5460 C   0  0  2  0  0  3  0  0  0  0  0  0
  189.5780  176.9130  144.1870 N   0  0  0  0  0  0  0  0  0  0  0  0
  183.6750  176.6360  136.7120 C   0  0  0  0  0  2  0  0  0  0  0  0
  186.6130  177.5220  136.1710 C   0  0  2  0  0  3  0  0  0  0  0  0
  188.9610  177.8820  143.5720 C   0  0  0  0  0  3  0  0  0  0  0  0
  184.8900  176.2590  137.5490 C   0  0  0  0  0  2  0  0  0  0  0  0
  183.7520  176.0890  135.3510 N   0  0  0  0  0  0  0  0  0  0  0  0
  191.4010  175.9460  137.9970 N   0  0  0  0  0  2  0  0  0  0  0  0
  190.1230  176.6140  138.2440 C   0  0  2  0  0  3  0  0  0  0  0  0
  190.5680  176.5460  140.7230 C   0  0  0  0  0  3  0  0  0  0  0  0
  186.9160  177.1730  138.6380 C   0  0  0  0  0  2  0  0  0  0  0  0
  187.5790  179.3020  141.3420 O   0  0  0  0  0  0  0  0  0  0  0  0
  191.1000  175.2470  143.4350 O   0  0  0  0  0  0  0  0  0  0  0  0
  188.8770  178.1110  139.7790 N   0  0  0  0  0  0  0  0  0  0  0  0
  190.2140  176.9280  141.9480 C   0  0  0  0  0  0  0  0  0  0  0  0
  182.6500  176.6630  134.5930 C   0  0  0  0  0  2  0  0  0  0  0  0
  181.8440  177.6150  135.4670 C   0  0  0  0  0  2  0  0  0  0  0  0
  180.7240  179.8410  135.5940 C   0  0  0  0  0  1  0  0  0  0  0  0
  181.3680  178.8220  134.6730 C   0  0  0  0  0  2  0  0  0  0  0  0
  1 10  1  0  0  0  0
  1 20  1  0  0  0  0
  2 24  1  6  0  0  0
  2 27  1  0  0  0  0
  3 11  1  0  0  0  0
  3  4  1  0  0  0  0
  4 21  1  0  0  0  0
  5 25  2  0  0  0  0
  5  6  1  0  0  0  0
  6 18  1  0  0  0  0
  7 19  1  6  0  0  0
  7 24  1  0  0  0  0
  9 26  2  0  0  0  0
  9 15  1  0  0  0  0
 12  8  1  6  0  0  0
 12  2  1  0  0  0  0
 13 11  1  6  0  0  0
 13 12  1  0  0  0  0
 13 22  1  0  0  0  0
 14 27  1  0  0  0  0
 14 23  1  1  0  0  0
 16 19  1  0  0  0  0
 17 10  1  6  0  0  0
 17  8  1  0  0  0  0
 17  7  1  0  0  0  0
 18 15  2  0  0  0  0
 20 16  1  0  0  0  0
 22 21  1  6  0  0  0
 22 14  1  0  0  0  0
 23 28  2  0  0  0  0
 27  5  1  0  0  0  0
 28  6  1  0  0  0  0
 28  9  1  0  0  0  0
 29 20  1  0  0  0  0
 29 30  1  0  0  0  0
 32 30  1  0  0  0  0
 32 31  1  0  0  0  0
M  END
>  <MODEL>
7

>  <REMARK>
 VINA RESULT:      -6.1      3.223      7.366
  Name = 
  3 active torsions:
  status: ('A' for Active; 'I' for Inactive)
    1  A    between atoms: C_1  and  C_10
    2  A    between atoms: C_1  and  C_20
    3  A    between atoms: C_10  and  N_24
                            x       y       z     vdW  Elec       q    Type
                         _______ _______ _______ _____ _____    ______ ____

>  <TORSDO>
F 3

$$$$
=
 OpenBabel11052416463D

 32 37  0  0  1  0  0  0  0  0999 V2000
  179.4240  182.2910  139.0570 C   0  0  0  0  0  2  0  0  0  0  0  0
  183.4780  178.7860  139.0180 C   0  0  1  0  0  3  0  0  0  0  0  0
  181.4780  178.8280  143.5840 C   0  0  0  0  0  2  0  0  0  0  0  0
  182.9010  179.2250  143.9790 C   0  0  0  0  0  2  0  0  0  0  0  0
  185.8860  178.1320  138.7430 C   0  0  0  0  0  0  0  0  0  0  0  0
  187.1590  178.0100  139.3710 N   0  0  0  0  0  0  0  0  0  0  0  0
  182.1840  180.8380  138.3760 C   0  0  1  0  0  3  0  0  0  0  0  0
  180.9470  178.8130  139.2130 C   0  0  0  0  0  2  0  0  0  0  0  0
  188.6690  178.5990  140.9650 C   0  0  0  0  0  0  0  0  0  0  0  0
  179.6550  180.8440  138.6180 C   0  0  0  0  0  2  0  0  0  0  0  0
  181.2880  179.0000  142.0800 C   0  0  0  0  0  2  0  0  0  0  0  0
  182.2540  178.2400  139.7780 C   0  0  2  0  0  3  0  0  0  0  0  0
  182.3840  178.2410  141.3250 C   0  0  1  0  0  3  0  0  0  0  0  0
  184.8670  178.0100  141.0380 C   0  0  2  0  0  3  0  0  0  0  0  0
  189.3450  178.5820  139.7100 N   0  0  0  0  0  0  0  0  0  0  0  0
  181.1620  182.8830  137.3980 C   0  0  0  0  0  2  0  0  0  0  0  0
  180.9740  180.3410  139.1880 C   0  0  2  0  0  3  0  0  0  0  0  0
  188.4540  178.2610  138.8140 C   0  0  0  0  0  3  0  0  0  0  0  0
  182.2530  182.3580  138.3200 C   0  0  0  0  0  2  0  0  0  0  0  0
  179.9690  183.3070  138.1410 N   0  0  0  0  0  0  0  0  0  0  0  0
  183.8720  178.4000  143.2600 N   0  0  0  0  0  2  0  0  0  0  0  0
  183.7600  178.7000  141.8330 C   0  0  2  0  0  3  0  0  0  0  0  0
  186.2430  178.3660  141.5680 C   0  0  0  0  0  3  0  0  0  0  0  0
  183.4760  180.3140  138.9920 C   0  0  0  0  0  2  0  0  0  0  0  0
  185.7860  178.1500  137.4860 O   0  0  0  0  0  0  0  0  0  0  0  0
  189.2070  178.9100  142.0610 O   0  0  0  0  0  0  0  0  0  0  0  0
  184.7340  178.2910  139.5890 N   0  0  0  0  0  0  0  0  0  0  0  0
  187.2900  178.2510  140.7540 C   0  0  0  0  0  0  0  0  0  0  0  0
  178.9350  183.6060  137.1610 C   0  0  0  0  0  2  0  0  0  0  0  0
  178.9740  185.0800  136.7810 C   0  0  0  0  0  2  0  0  0  0  0  0
  178.9330  186.0430  139.0830 C   0  0  0  0  0  1  0  0  0  0  0  0
  179.7450  185.8940  137.8090 C   0  0  0  0  0  2  0  0  0  0  0  0
  2 24  1  1  0  0  0
  2 27  1  0  0  0  0
  2 12  1  0  0  0  0
  3  4  1  0  0  0  0
  5  6  1  0  0  0  0
  5 27  1  0  0  0  0
  6 28  1  0  0  0  0
  7 19  1  1  0  0  0
  7 24  1  0  0  0  0
  7 17  1  0  0  0  0
  9 26  2  0  0  0  0
 10  1  1  0  0  0  0
 11  3  1  0  0  0  0
 12  8  1  1  0  0  0
 12 13  1  0  0  0  0
 13 22  1  0  0  0  0
 13 11  1  1  0  0  0
 14 23  1  1  0  0  0
 14 22  1  0  0  0  0
 15  9  1  0  0  0  0
 16 20  1  0  0  0  0
 16 19  1  0  0  0  0
 17 10  1  6  0  0  0
 17  8  1  0  0  0  0
 18  6  1  0  0  0  0
 18 15  2  0  0  0  0
 20  1  1  0  0  0  0
 21  4  1  0  0  0  0
 22 21  1  1  0  0  0
 25  5  2  0  0  0  0
 27 14  1  0  0  0  0
 28  9  1  0  0  0  0
 28 23  2  0  0  0  0
 29 20  1  0  0  0  0
 30 29  1  0  0  0  0
 30 32  1  0  0  0  0
 32 31  1  0  0  0  0
M  END
>  <MODEL>
8

>  <REMARK>
 VINA RESULT:      -6.1      6.837      9.584
  Name = 
  3 active torsions:
  status: ('A' for Active; 'I' for Inactive)
    1  A    between atoms: C_1  and  C_10
    2  A    between atoms: C_1  and  C_20
    3  A    between atoms: C_10  and  N_24
                            x       y       z     vdW  Elec       q    Type
                         _______ _______ _______ _____ _____    ______ ____

>  <TORSDO>
F 3

$$$$
=
 OpenBabel11052416463D

 32 37  0  0  1  0  0  0  0  0999 V2000
  184.0120  178.3280  143.8360 C   0  0  0  0  0  2  0  0  0  0  0  0
  185.6110  178.7560  138.7390 C   0  0  1  0  0  3  0  0  0  0  0  0
  181.4510  176.0130  138.8580 C   0  0  0  0  0  2  0  0  0  0  0  0
  182.3620  174.9760  138.2000 C   0  0  0  0  0  2  0  0  0  0  0  0
  187.2380  178.4310  136.8550 C   0  0  0  0  0  0  0  0  0  0  0  0
  187.7110  177.5530  135.8380 N   0  0  0  0  0  0  0  0  0  0  0  0
  185.8400  178.6110  141.2330 C   0  0  1  0  0  3  0  0  0  0  0  0
  183.7160  179.5250  140.2420 C   0  0  0  0  0  2  0  0  0  0  0  0
  188.0300  175.4720  134.9790 C   0  0  0  0  0  0  0  0  0  0  0  0
  183.9100  179.3560  142.7080 C   0  0  0  0  0  2  0  0  0  0  0  0
  182.2900  177.1290  139.4730 C   0  0  0  0  0  2  0  0  0  0  0  0
  184.0860  178.9260  138.8790 C   0  0  2  0  0  3  0  0  0  0  0  0
  183.2420  177.7060  138.4210 C   0  0  1  0  0  3  0  0  0  0  0  0
  185.0840  177.1350  136.8140 C   0  0  2  0  0  3  0  0  0  0  0  0
  189.2600  176.1830  134.8660 N   0  0  0  0  0  0  0  0  0  0  0  0
  186.4620  178.6240  143.6420 C   0  0  0  0  0  2  0  0  0  0  0  0
  184.3110  178.7100  141.3890 C   0  0  2  0  0  3  0  0  0  0  0  0
  189.0560  177.3630  135.3820 C   0  0  0  0  0  3  0  0  0  0  0  0
  186.4810  177.8070  142.3570 C   0  0  0  0  0  2  0  0  0  0  0  0
  185.3250  178.2720  144.5020 N   0  0  0  0  0  0  0  0  0  0  0  0
  183.1800  175.6080  137.1650 N   0  0  0  0  0  2  0  0  0  0  0  0
  184.0750  176.5680  137.8110 C   0  0  2  0  0  3  0  0  0  0  0  0
  185.8660  176.0350  136.1210 C   0  0  0  0  0  3  0  0  0  0  0  0
  186.1870  177.9520  139.9040 C   0  0  0  0  0  2  0  0  0  0  0  0
  187.9340  179.4100  137.2390 O   0  0  0  0  0  0  0  0  0  0  0  0
  187.8600  174.2760  134.6200 O   0  0  0  0  0  0  0  0  0  0  0  0
  185.9710  178.1290  137.4640 N   0  0  0  0  0  0  0  0  0  0  0  0
  187.0560  176.3280  135.6020 C   0  0  0  0  0  0  0  0  0  0  0  0
  185.2980  179.2330  145.5940 C   0  0  0  0  0  2  0  0  0  0  0  0
  185.6110  178.5430  146.9160 C   0  0  0  0  0  2  0  0  0  0  0  0
  187.5590  178.4660  148.4730 C   0  0  0  0  0  1  0  0  0  0  0  0
  187.0970  178.2480  147.0440 C   0  0  0  0  0  2  0  0  0  0  0  0
  1 20  1  0  0  0  0
  2 12  1  0  0  0  0
  2 24  1  1  0  0  0
  3 11  1  0  0  0  0
  4  3  1  0  0  0  0
  5 25  2  0  0  0  0
  5 27  1  0  0  0  0
  6  5  1  0  0  0  0
  7 24  1  6  0  0  0
  7 17  1  0  0  0  0
  7 19  1  0  0  0  0
  9 28  1  0  0  0  0
 10  1  1  0  0  0  0
 12  8  1  1  0  0  0
 13 12  1  0  0  0  0
 13 11  1  1  0  0  0
 14 23  1  1  0  0  0
 14 27  1  0  0  0  0
 14 22  1  0  0  0  0
 15  9  1  0  0  0  0
 15 18  2  0  0  0  0
 16 20  1  0  0  0  0
 17  8  1  6  0  0  0
 17 10  1  0  0  0  0
 18  6  1  0  0  0  0
 19 16  1  0  0  0  0
 20 29  1  0  0  0  0
 21  4  1  0  0  0  0
 22 21  1  6  0  0  0
 22 13  1  0  0  0  0
 26  9  2  0  0  0  0
 27  2  1  0  0  0  0
 28  6  1  0  0  0  0
 28 23  2  0  0  0  0
 29 30  1  0  0  0  0
 30 32  1  0  0  0  0
 32 31  1  0  0  0  0
M  END
>  <MODEL>
9

>  <REMARK>
 VINA RESULT:      -6.0      3.937      5.203
  Name = 
  3 active torsions:
  status: ('A' for Active; 'I' for Inactive)
    1  A    between atoms: C_1  and  C_10
    2  A    between atoms: C_1  and  C_20
    3  A    between atoms: C_10  and  N_24
                            x       y       z     vdW  Elec       q    Type
                         _______ _______ _______ _____ _____    ______ ____

>  <TORSDO>
F 3

$$$$
