=
 OpenBabel11052417003D

 32 37  0  0  1  0  0  0  0  0999 V2000
  186.0200  179.1120  141.3170 C   0  0  2  0  0  3  0  0  0  0  0  0
  183.7580  179.6080  144.3870 C   0  0  0  0  0  3  0  0  0  0  0  0
  182.5780  179.0520  143.8580 C   0  0  0  0  0  3  0  0  0  0  0  0
  185.8510  178.2310  138.9000 N   0  0  0  0  0  0  0  0  0  0  0  0
  185.0260  177.6590  137.9820 C   0  0  0  0  0  0  0  0  0  0  0  0
  183.2010  176.8030  137.0990 C   0  0  0  0  0  0  0  0  0  0  0  0
  184.9280  179.6650  143.6140 C   0  0  0  0  0  3  0  0  0  0  0  0
  184.8940  179.1560  142.3130 C   0  0  0  0  0  0  0  0  0  0  0  0
  183.9780  178.1890  140.4440 C   0  0  0  0  0  0  0  0  0  0  0  0
  184.2050  176.8010  136.1840 N   0  0  0  0  0  0  0  0  0  0  0  0
  185.3140  177.3200  136.7140 N   0  0  0  0  0  0  0  0  0  0  0  0
  182.5530  178.5470  142.5490 C   0  0  0  0  0  3  0  0  0  0  0  0
  183.7290  178.6130  141.8010 C   0  0  0  0  0  0  0  0  0  0  0  0
  183.0950  177.6050  139.5210 C   0  0  0  0  0  3  0  0  0  0  0  0
  187.2290  178.5650  138.5730 C   0  0  0  0  0  1  0  0  0  0  0  0
  181.8270  176.3000  136.8330 C   0  0  0  0  0  1  0  0  0  0  0  0
  185.3160  178.4850  140.1380 C   0  0  0  0  0  0  0  0  0  0  0  0
  183.6590  177.3400  138.2760 C   0  0  0  0  0  0  0  0  0  0  0  0
  190.4570  178.7260  143.6070 O   0  0  0  0  0  0  0  0  0  0  0  0
  188.2730  176.8480  143.2510 C   0  0  1  0  0  3  0  0  0  0  0  0
  188.3320  178.3460  141.4030 N   0  0  0  0  0  0  0  0  0  0  0  0
  190.5190  177.8860  142.4790 C   0  0  0  0  0  2  0  0  0  0  0  0
  187.1190  178.2270  141.8170 C   0  0  0  0  0  0  0  0  0  0  0  0
  190.0510  177.9630  144.7260 C   0  0  1  0  0  3  0  0  0  0  0  0
  189.1430  177.3520  142.0820 C   0  0  1  0  0  3  0  0  0  0  0  0
  188.5990  177.5140  144.5940 C   0  0  0  0  0  2  0  0  0  0  0  0
  186.9430  177.2840  142.8650 N   0  0  0  0  0  2  0  0  0  0  0  0
  190.9960  176.8100  145.0710 C   0  0  0  0  0  2  0  0  0  0  0  0
  191.6440  177.0660  146.3440 N   0  0  0  0  0  2  0  0  0  0  0  0
  190.7460  176.5770  147.3750 C   0  0  0  0  0  2  0  0  0  0  0  0
  190.1170  177.7440  148.1150 C   0  0  0  0  0  2  0  0  0  0  0  0
  188.6140  177.5690  148.1910 C   0  0  0  0  0  1  0  0  0  0  0  0
  1 23  1  1  0  0  0
  1  8  1  0  0  0  0
  3  2  1  0  0  0  0
  4 17  1  0  0  0  0
  5 18  1  0  0  0  0
  5  4  1  0  0  0  0
  6 18  1  0  0  0  0
  7  2  2  0  0  0  0
  8  7  1  0  0  0  0
  9 13  1  0  0  0  0
 10 11  1  0  0  0  0
 10  6  2  0  0  0  0
 11  5  2  0  0  0  0
 12  3  2  0  0  0  0
 13  8  2  0  0  0  0
 13 12  1  0  0  0  0
 14  9  1  0  0  0  0
 15  4  1  0  0  0  0
 16  6  1  0  0  0  0
 17  9  2  0  0  0  0
 17  1  1  0  0  0  0
 18 14  2  0  0  0  0
 19 24  1  0  0  0  0
 20 26  1  1  0  0  0
 21 23  2  0  0  0  0
 21 25  1  0  0  0  0
 22 19  1  0  0  0  0
 23 27  1  0  0  0  0
 24 28  1  6  0  0  0
 25 22  1  1  0  0  0
 25 20  1  0  0  0  0
 26 24  1  0  0  0  0
 27 20  1  0  0  0  0
 28 29  1  0  0  0  0
 29 30  1  0  0  0  0
 30 31  1  0  0  0  0
 31 32  1  0  0  0  0
M  END
>  <MODEL>
1

>  <REMARK>
 VINA RESULT:      -8.5      0.000      0.000
  Name = 
  5 active torsions:
  status: ('A' for Active; 'I' for Inactive)
    1  A    between atoms: C_1  and  C_20
    2  A    between atoms: C_3  and  C_14
    3  A    between atoms: N_10  and  C_20
    4  A    between atoms: N_10  and  C_24
    5  A    between atoms: C_19  and  C_24
                            x       y       z     vdW  Elec       q    Type
                         _______ _______ _______ _____ _____    ______ ____

>  <TORSDO>
F 5

$$$$
=
 OpenBabel11052417003D

 32 37  0  0  1  0  0  0  0  0999 V2000
  189.8010  177.8030  139.3640 C   0  0  2  0  0  3  0  0  0  0  0  0
  186.2970  177.6340  137.7900 C   0  0  0  0  0  3  0  0  0  0  0  0
  186.5790  176.7000  136.7750 C   0  0  0  0  0  3  0  0  0  0  0  0
  192.1560  176.8300  138.9770 N   0  0  0  0  0  0  0  0  0  0  0  0
  192.8950  175.9830  138.2080 C   0  0  0  0  0  0  0  0  0  0  0  0
  193.3940  174.5420  136.6230 C   0  0  0  0  0  0  0  0  0  0  0  0
  187.3030  178.0470  138.6780 C   0  0  0  0  0  3  0  0  0  0  0  0
  188.5830  177.5080  138.5320 C   0  0  0  0  0  0  0  0  0  0  0  0
  190.2460  176.2260  137.6050 C   0  0  0  0  0  0  0  0  0  0  0  0
  194.5040  174.8380  137.3480 N   0  0  0  0  0  0  0  0  0  0  0  0
  194.2070  175.7130  138.3090 N   0  0  0  0  0  0  0  0  0  0  0  0
  187.8700  176.1680  136.6350 C   0  0  0  0  0  3  0  0  0  0  0  0
  188.8520  176.5920  137.5300 C   0  0  0  0  0  0  0  0  0  0  0  0
  190.9770  175.3490  136.7860 C   0  0  0  0  0  3  0  0  0  0  0  0
  192.7610  177.5880  140.0610 C   0  0  0  0  0  1  0  0  0  0  0  0
  193.3760  173.6030  135.4700 C   0  0  0  0  0  1  0  0  0  0  0  0
  190.8230  176.9370  138.6700 C   0  0  0  0  0  0  0  0  0  0  0  0
  192.3250  175.2420  137.1210 C   0  0  0  0  0  0  0  0  0  0  0  0
  191.8080  176.4860  143.7610 O   0  0  0  0  0  0  0  0  0  0  0  0
  189.1850  177.4970  143.0350 C   0  0  1  0  0  3  0  0  0  0  0  0
  190.0760  176.2450  141.2180 N   0  0  0  0  0  0  0  0  0  0  0  0
  190.8130  175.5290  143.4760 C   0  0  0  0  0  2  0  0  0  0  0  0
  189.5850  177.3500  140.7750 C   0  0  0  0  0  0  0  0  0  0  0  0
  191.2460  177.5060  144.5630 C   0  0  1  0  0  3  0  0  0  0  0  0
  189.6920  176.1050  142.6110 C   0  0  1  0  0  3  0  0  0  0  0  0
  190.2350  178.3350  143.7780 C   0  0  0  0  0  2  0  0  0  0  0  0
  188.9400  178.1450  141.7590 N   0  0  0  0  0  2  0  0  0  0  0  0
  190.6940  177.0140  145.9020 C   0  0  0  0  0  2  0  0  0  0  0  0
  189.7010  177.9480  146.4000 N   0  0  0  0  0  2  0  0  0  0  0  0
  188.6740  177.1570  147.0550 C   0  0  0  0  0  2  0  0  0  0  0  0
  187.3510  177.9010  147.0340 C   0  0  0  0  0  2  0  0  0  0  0  0
  186.6210  177.6380  145.7320 C   0  0  0  0  0  1  0  0  0  0  0  0
  1 23  1  1  0  0  0
  2  7  1  0  0  0  0
  3  2  2  0  0  0  0
  4 15  1  0  0  0  0
  5 11  2  0  0  0  0
  5  4  1  0  0  0  0
  6 18  1  0  0  0  0
  6 10  2  0  0  0  0
  8  7  2  0  0  0  0
  8  1  1  0  0  0  0
  9 17  2  0  0  0  0
 10 11  1  0  0  0  0
 12  3  1  0  0  0  0
 12 13  2  0  0  0  0
 13  9  1  0  0  0  0
 13  8  1  0  0  0  0
 14 18  2  0  0  0  0
 14  9  1  0  0  0  0
 16  6  1  0  0  0  0
 17  4  1  0  0  0  0
 17  1  1  0  0  0  0
 18  5  1  0  0  0  0
 19 24  1  0  0  0  0
 20 26  1  6  0  0  0
 21 25  1  0  0  0  0
 22 19  1  0  0  0  0
 23 21  2  0  0  0  0
 23 27  1  0  0  0  0
 24 28  1  1  0  0  0
 25 20  1  0  0  0  0
 25 22  1  1  0  0  0
 26 24  1  0  0  0  0
 27 20  1  0  0  0  0
 28 29  1  0  0  0  0
 29 30  1  0  0  0  0
 31 30  1  0  0  0  0
 32 31  1  0  0  0  0
M  END
>  <MODEL>
2

>  <REMARK>
 VINA RESULT:      -8.5      3.864      6.195
  Name = 
  5 active torsions:
  status: ('A' for Active; 'I' for Inactive)
    1  A    between atoms: C_1  and  C_20
    2  A    between atoms: C_3  and  C_14
    3  A    between atoms: N_10  and  C_20
    4  A    between atoms: N_10  and  C_24
    5  A    between atoms: C_19  and  C_24
                            x       y       z     vdW  Elec       q    Type
                         _______ _______ _______ _____ _____    ______ ____

>  <TORSDO>
F 5

$$$$
=
 OpenBabel11052417003D

 32 37  0  0  1  0  0  0  0  0999 V2000
  187.8200  176.7480  143.1290 C   0  0  2  0  0  3  0  0  0  0  0  0
  184.5060  178.5730  143.8180 C   0  0  0  0  0  3  0  0  0  0  0  0
  184.8070  179.0550  145.1060 C   0  0  0  0  0  3  0  0  0  0  0  0
  190.0380  176.2240  144.3340 N   0  0  0  0  0  0  0  0  0  0  0  0
  190.7540  176.4190  145.4740 C   0  0  0  0  0  0  0  0  0  0  0  0
  191.2640  177.1240  147.4950 C   0  0  0  0  0  0  0  0  0  0  0  0
  185.4430  177.8080  143.1060 C   0  0  0  0  0  3  0  0  0  0  0  0
  186.6770  177.5390  143.7040 C   0  0  0  0  0  0  0  0  0  0  0  0
  188.2870  177.5720  145.3400 C   0  0  0  0  0  0  0  0  0  0  0  0
  192.2810  176.3760  146.9940 N   0  0  0  0  0  0  0  0  0  0  0  0
  191.9760  175.9450  145.7690 N   0  0  0  0  0  0  0  0  0  0  0  0
  186.0480  178.7750  145.6990 C   0  0  0  0  0  3  0  0  0  0  0  0
  186.9630  178.0140  144.9710 C   0  0  0  0  0  0  0  0  0  0  0  0
  188.9940  177.7890  146.5340 C   0  0  0  0  0  3  0  0  0  0  0  0
  190.5590  175.4170  143.2410 C   0  0  0  0  0  1  0  0  0  0  0  0
  191.2750  177.7540  148.8420 C   0  0  0  0  0  1  0  0  0  0  0  0
  188.8010  176.8170  144.2730 C   0  0  0  0  0  0  0  0  0  0  0  0
  190.2520  177.1930  146.5710 C   0  0  0  0  0  0  0  0  0  0  0  0
  189.3440  176.3980  138.3700 O   0  0  0  0  0  0  0  0  0  0  0  0
  188.3670  178.6300  139.9490 C   0  0  1  0  0  3  0  0  0  0  0  0
  189.4800  177.0840  141.3760 N   0  0  0  0  0  0  0  0  0  0  0  0
  190.3090  177.1750  139.0400 C   0  0  0  0  0  2  0  0  0  0  0  0
  188.3650  177.4360  141.9150 C   0  0  0  0  0  0  0  0  0  0  0  0
  188.3910  177.2610  137.7800 C   0  0  1  0  0  3  0  0  0  0  0  0
  189.7160  177.9370  140.2250 C   0  0  1  0  0  3  0  0  0  0  0  0
  187.5450  177.9610  138.8390 C   0  0  0  0  0  2  0  0  0  0  0  0
  187.6490  178.4300  141.1960 N   0  0  0  0  0  2  0  0  0  0  0  0
  188.9800  178.2330  136.7570 C   0  0  0  0  0  2  0  0  0  0  0  0
  189.1670  177.5590  135.4850 N   0  0  0  0  0  2  0  0  0  0  0  0
  187.9030  176.9230  135.1600 C   0  0  0  0  0  2  0  0  0  0  0  0
  186.9350  177.9460  134.5940 C   0  0  0  0  0  2  0  0  0  0  0  0
  185.5180  177.4110  134.6380 C   0  0  0  0  0  1  0  0  0  0  0  0
  1 23  1  6  0  0  0
  1  8  1  0  0  0  0
  1 17  1  0  0  0  0
  2  3  1  0  0  0  0
  3 12  2  0  0  0  0
  4  5  1  0  0  0  0
  5 11  2  0  0  0  0
  5 18  1  0  0  0  0
  6 16  1  0  0  0  0
  7  8  1  0  0  0  0
  7  2  2  0  0  0  0
  8 13  2  0  0  0  0
  9 14  1  0  0  0  0
 10  6  2  0  0  0  0
 11 10  1  0  0  0  0
 13  9  1  0  0  0  0
 13 12  1  0  0  0  0
 14 18  2  0  0  0  0
 15  4  1  0  0  0  0
 17  4  1  0  0  0  0
 17  9  2  0  0  0  0
 18  6  1  0  0  0  0
 19 22  1  0  0  0  0
 20 26  1  6  0  0  0
 20 25  1  0  0  0  0
 20 27  1  0  0  0  0
 21 23  2  0  0  0  0
 24 28  1  1  0  0  0
 24 19  1  0  0  0  0
 24 26  1  0  0  0  0
 25 22  1  6  0  0  0
 25 21  1  0  0  0  0
 27 23  1  0  0  0  0
 29 28  1  0  0  0  0
 30 29  1  0  0  0  0
 31 32  1  0  0  0  0
 31 30  1  0  0  0  0
M  END
>  <MODEL>
3

>  <REMARK>
 VINA RESULT:      -8.3      2.645      8.204
  Name = 
  5 active torsions:
  status: ('A' for Active; 'I' for Inactive)
    1  A    between atoms: C_1  and  C_20
    2  A    between atoms: C_3  and  C_14
    3  A    between atoms: N_10  and  C_20
    4  A    between atoms: N_10  and  C_24
    5  A    between atoms: C_19  and  C_24
                            x       y       z     vdW  Elec       q    Type
                         _______ _______ _______ _____ _____    ______ ____

>  <TORSDO>
F 5

$$$$
=
 OpenBabel11052417003D

 32 37  0  0  1  0  0  0  0  0999 V2000
  190.7960  177.4090  139.4170 C   0  0  2  0  0  3  0  0  0  0  0  0
  187.0800  178.2960  138.9790 C   0  0  0  0  0  3  0  0  0  0  0  0
  186.7490  177.3080  138.0320 C   0  0  0  0  0  3  0  0  0  0  0  0
  192.5280  175.7600  138.4550 N   0  0  0  0  0  0  0  0  0  0  0  0
  192.7130  174.7200  137.5960 C   0  0  0  0  0  0  0  0  0  0  0  0
  192.2550  173.1770  136.0970 C   0  0  0  0  0  0  0  0  0  0  0  0
  188.3880  178.3930  139.4800 C   0  0  0  0  0  3  0  0  0  0  0  0
  189.3470  177.4890  139.0200 C   0  0  0  0  0  0  0  0  0  0  0  0
  190.1950  175.7510  137.7830 C   0  0  0  0  0  0  0  0  0  0  0  0
  193.5730  173.1300  136.4240 N   0  0  0  0  0  0  0  0  0  0  0  0
  193.8560  174.0650  137.3320 N   0  0  0  0  0  0  0  0  0  0  0  0
  187.7220  176.4080  137.5720 C   0  0  0  0  0  3  0  0  0  0  0  0
  189.0140  176.5230  138.0870 C   0  0  0  0  0  0  0  0  0  0  0  0
  190.3490  174.6830  136.8820 C   0  0  0  0  0  3  0  0  0  0  0  0
  193.6330  176.3110  139.2240 C   0  0  0  0  0  1  0  0  0  0  0  0
  191.6070  172.2750  135.1080 C   0  0  0  0  0  1  0  0  0  0  0  0
  191.2550  176.2640  138.5480 C   0  0  0  0  0  0  0  0  0  0  0  0
  191.6430  174.1750  136.8130 C   0  0  0  0  0  0  0  0  0  0  0  0
  190.1970  178.8070  144.1890 O   0  0  0  0  0  0  0  0  0  0  0  0
  190.3280  176.2000  142.9200 C   0  0  1  0  0  3  0  0  0  0  0  0
  191.6420  177.7470  141.6780 N   0  0  0  0  0  0  0  0  0  0  0  0
  191.4660  178.2020  144.1100 C   0  0  0  0  0  2  0  0  0  0  0  0
  190.9150  177.0590  140.8690 C   0  0  0  0  0  0  0  0  0  0  0  0
  189.2480  177.8330  144.5770 C   0  0  1  0  0  3  0  0  0  0  0  0
  191.5360  177.1540  142.9990 C   0  0  1  0  0  3  0  0  0  0  0  0
  189.0300  176.8020  143.4750 C   0  0  0  0  0  2  0  0  0  0  0  0
  190.1500  176.0350  141.4880 N   0  0  0  0  0  2  0  0  0  0  0  0
  189.5300  177.1930  145.9370 C   0  0  0  0  0  2  0  0  0  0  0  0
  188.6450  177.7540  146.9410 N   0  0  0  0  0  2  0  0  0  0  0  0
  187.2880  177.4960  146.4920 C   0  0  0  0  0  2  0  0  0  0  0  0
  186.3690  178.6180  146.9400 C   0  0  0  0  0  2  0  0  0  0  0  0
  185.3210  178.8940  145.8800 C   0  0  0  0  0  1  0  0  0  0  0  0
  1 23  1  1  0  0  0
  2  7  1  0  0  0  0
  3  2  2  0  0  0  0
  4 17  1  0  0  0  0
  4 15  1  0  0  0  0
  5  4  1  0  0  0  0
  6 10  2  0  0  0  0
  6 18  1  0  0  0  0
  8  1  1  0  0  0  0
  8  7  2  0  0  0  0
  9 13  1  0  0  0  0
  9 17  2  0  0  0  0
 10 11  1  0  0  0  0
 11  5  2  0  0  0  0
 12  3  1  0  0  0  0
 12 13  2  0  0  0  0
 13  8  1  0  0  0  0
 14  9  1  0  0  0  0
 16  6  1  0  0  0  0
 17  1  1  0  0  0  0
 18 14  2  0  0  0  0
 18  5  1  0  0  0  0
 19 24  1  0  0  0  0
 20 25  1  0  0  0  0
 20 26  1  6  0  0  0
 21 25  1  0  0  0  0
 22 19  1  0  0  0  0
 23 27  1  0  0  0  0
 23 21  2  0  0  0  0
 24 28  1  1  0  0  0
 25 22  1  1  0  0  0
 26 24  1  0  0  0  0
 27 20  1  0  0  0  0
 28 29  1  0  0  0  0
 30 31  1  0  0  0  0
 30 29  1  0  0  0  0
 32 31  1  0  0  0  0
M  END
>  <MODEL>
4

>  <REMARK>
 VINA RESULT:      -8.3      4.225      6.155
  Name = 
  5 active torsions:
  status: ('A' for Active; 'I' for Inactive)
    1  A    between atoms: C_1  and  C_20
    2  A    between atoms: C_3  and  C_14
    3  A    between atoms: N_10  and  C_20
    4  A    between atoms: N_10  and  C_24
    5  A    between atoms: C_19  and  C_24
                            x       y       z     vdW  Elec       q    Type
                         _______ _______ _______ _____ _____    ______ ____

>  <TORSDO>
F 5

$$$$
=
 OpenBabel11052417003D

 32 37  0  0  1  0  0  0  0  0999 V2000
  187.7880  176.7240  143.1910 C   0  0  2  0  0  3  0  0  0  0  0  0
  184.4820  178.5470  143.9210 C   0  0  0  0  0  3  0  0  0  0  0  0
  184.8020  179.0350  145.2030 C   0  0  0  0  0  3  0  0  0  0  0  0
  190.0240  176.2080  144.3650 N   0  0  0  0  0  0  0  0  0  0  0  0
  190.7580  176.4090  145.4940 C   0  0  0  0  0  0  0  0  0  0  0  0
  191.2960  177.1240  147.5040 C   0  0  0  0  0  0  0  0  0  0  0  0
  185.4100  177.7800  143.1990 C   0  0  0  0  0  3  0  0  0  0  0  0
  186.6520  177.5160  143.7800 C   0  0  0  0  0  0  0  0  0  0  0  0
  188.2860  177.5580  145.3910 C   0  0  0  0  0  0  0  0  0  0  0  0
  192.3070  176.3750  146.9910 N   0  0  0  0  0  0  0  0  0  0  0  0
  191.9850  175.9380  145.7730 N   0  0  0  0  0  0  0  0  0  0  0  0
  186.0510  178.7600  145.7790 C   0  0  0  0  0  3  0  0  0  0  0  0
  186.9570  177.9970  145.0410 C   0  0  0  0  0  0  0  0  0  0  0  0
  189.0110  177.7810  146.5740 C   0  0  0  0  0  3  0  0  0  0  0  0
  190.5310  175.3970  143.2690 C   0  0  0  0  0  1  0  0  0  0  0  0
  191.3260  177.7590  148.8490 C   0  0  0  0  0  1  0  0  0  0  0  0
  188.7860  176.7990  144.3210 C   0  0  0  0  0  0  0  0  0  0  0  0
  190.2700  177.1870  146.5950 C   0  0  0  0  0  0  0  0  0  0  0  0
  189.0360  176.4050  138.3510 O   0  0  0  0  0  0  0  0  0  0  0  0
  188.2930  178.6520  140.0320 C   0  0  1  0  0  3  0  0  0  0  0  0
  189.3740  176.9980  141.3600 N   0  0  0  0  0  0  0  0  0  0  0  0
  190.0850  177.0980  138.9870 C   0  0  0  0  0  2  0  0  0  0  0  0
  188.3140  177.4080  141.9670 C   0  0  0  0  0  0  0  0  0  0  0  0
  188.1140  177.3440  137.8330 C   0  0  1  0  0  3  0  0  0  0  0  0
  189.6060  177.8650  140.2190 C   0  0  1  0  0  3  0  0  0  0  0  0
  187.3730  178.0680  138.9520 C   0  0  0  0  0  2  0  0  0  0  0  0
  187.6300  178.4660  141.3110 N   0  0  0  0  0  2  0  0  0  0  0  0
  188.7120  178.3030  136.8030 C   0  0  0  0  0  2  0  0  0  0  0  0
  188.3510  177.8780  135.4630 N   0  0  0  0  0  2  0  0  0  0  0  0
  189.5840  177.4970  134.7990 C   0  0  0  0  0  2  0  0  0  0  0  0
  189.7800  175.9940  134.8860 C   0  0  0  0  0  2  0  0  0  0  0  0
  191.1230  175.6750  135.5120 C   0  0  0  0  0  1  0  0  0  0  0  0
  1 23  1  6  0  0  0
  1  8  1  0  0  0  0
  1 17  1  0  0  0  0
  2  3  1  0  0  0  0
  3 12  2  0  0  0  0
  4  5  1  0  0  0  0
  5 11  2  0  0  0  0
  5 18  1  0  0  0  0
  6 16  1  0  0  0  0
  7  8  1  0  0  0  0
  7  2  2  0  0  0  0
  8 13  2  0  0  0  0
  9 14  1  0  0  0  0
 10  6  2  0  0  0  0
 11 10  1  0  0  0  0
 13  9  1  0  0  0  0
 13 12  1  0  0  0  0
 14 18  2  0  0  0  0
 15  4  1  0  0  0  0
 17  4  1  0  0  0  0
 17  9  2  0  0  0  0
 18  6  1  0  0  0  0
 19 22  1  0  0  0  0
 20 26  1  6  0  0  0
 20 25  1  0  0  0  0
 20 27  1  0  0  0  0
 21 23  2  0  0  0  0
 24 28  1  1  0  0  0
 24 19  1  0  0  0  0
 24 26  1  0  0  0  0
 25 22  1  6  0  0  0
 25 21  1  0  0  0  0
 27 23  1  0  0  0  0
 29 28  1  0  0  0  0
 30 31  1  0  0  0  0
 30 29  1  0  0  0  0
 31 32  1  0  0  0  0
M  END
>  <MODEL>
5

>  <REMARK>
 VINA RESULT:      -8.2      2.749      8.163
  Name = 
  5 active torsions:
  status: ('A' for Active; 'I' for Inactive)
    1  A    between atoms: C_1  and  C_20
    2  A    between atoms: C_3  and  C_14
    3  A    between atoms: N_10  and  C_20
    4  A    between atoms: N_10  and  C_24
    5  A    between atoms: C_19  and  C_24
                            x       y       z     vdW  Elec       q    Type
                         _______ _______ _______ _____ _____    ______ ____

>  <TORSDO>
F 5

$$$$
=
 OpenBabel11052417003D

 32 37  0  0  1  0  0  0  0  0999 V2000
  190.7180  177.4680  139.2020 C   0  0  2  0  0  3  0  0  0  0  0  0
  187.0360  178.2440  138.4070 C   0  0  0  0  0  3  0  0  0  0  0  0
  186.8440  177.2830  137.3950 C   0  0  0  0  0  3  0  0  0  0  0  0
  192.6020  175.9190  138.3690 N   0  0  0  0  0  0  0  0  0  0  0  0
  192.9150  174.9210  137.4990 C   0  0  0  0  0  0  0  0  0  0  0  0
  192.6750  173.4230  135.9050 C   0  0  0  0  0  0  0  0  0  0  0  0
  188.2800  178.3660  139.0460 C   0  0  0  0  0  3  0  0  0  0  0  0
  189.3160  177.5140  138.6570 C   0  0  0  0  0  0  0  0  0  0  0  0
  190.3540  175.8560  137.4550 C   0  0  0  0  0  0  0  0  0  0  0  0
  193.9520  173.4090  136.3670 N   0  0  0  0  0  0  0  0  0  0  0  0
  194.1030  174.3160  137.3330 N   0  0  0  0  0  0  0  0  0  0  0  0
  187.8930  176.4360  137.0090 C   0  0  0  0  0  3  0  0  0  0  0  0
  189.1190  176.5750  137.6600 C   0  0  0  0  0  0  0  0  0  0  0  0
  190.6410  174.8310  136.5390 C   0  0  0  0  0  3  0  0  0  0  0  0
  193.5990  176.4770  139.2700 C   0  0  0  0  0  1  0  0  0  0  0  0
  192.1690  172.5390  134.8210 C   0  0  0  0  0  1  0  0  0  0  0  0
  191.3080  176.3750  138.3450 C   0  0  0  0  0  0  0  0  0  0  0  0
  191.9550  174.3710  136.5870 C   0  0  0  0  0  0  0  0  0  0  0  0
  189.6210  178.6760  143.9380 O   0  0  0  0  0  0  0  0  0  0  0  0
  189.9260  176.1210  142.5940 C   0  0  1  0  0  3  0  0  0  0  0  0
  191.3280  177.7330  141.5470 N   0  0  0  0  0  0  0  0  0  0  0  0
  190.9030  178.0930  143.9640 C   0  0  0  0  0  2  0  0  0  0  0  0
  190.6980  177.0650  140.6440 C   0  0  0  0  0  0  0  0  0  0  0  0
  188.6570  177.6740  144.1930 C   0  0  1  0  0  3  0  0  0  0  0  0
  191.1020  177.0890  142.8280 C   0  0  1  0  0  3  0  0  0  0  0  0
  188.5680  176.6820  143.0380 C   0  0  0  0  0  2  0  0  0  0  0  0
  189.8940  176.0070  141.1470 N   0  0  0  0  0  2  0  0  0  0  0  0
  188.8150  176.9870  145.5510 C   0  0  0  0  0  2  0  0  0  0  0  0
  189.6470  177.7980  146.4210 N   0  0  0  0  0  2  0  0  0  0  0  0
  190.1750  176.9090  147.4410 C   0  0  0  0  0  2  0  0  0  0  0  0
  191.6830  176.7980  147.3040 C   0  0  0  0  0  2  0  0  0  0  0  0
  192.0650  175.4200  146.8010 C   0  0  0  0  0  1  0  0  0  0  0  0
  1 23  1  1  0  0  0
  2  7  1  0  0  0  0
  3  2  2  0  0  0  0
  4 15  1  0  0  0  0
  5  4  1  0  0  0  0
  6 10  2  0  0  0  0
  6 18  1  0  0  0  0
  8  7  2  0  0  0  0
  8  1  1  0  0  0  0
  9 13  1  0  0  0  0
  9 17  2  0  0  0  0
 10 11  1  0  0  0  0
 11  5  2  0  0  0  0
 12  3  1  0  0  0  0
 12 13  2  0  0  0  0
 13  8  1  0  0  0  0
 14 18  2  0  0  0  0
 14  9  1  0  0  0  0
 16  6  1  0  0  0  0
 17  4  1  0  0  0  0
 17  1  1  0  0  0  0
 18  5  1  0  0  0  0
 19 22  1  0  0  0  0
 19 24  1  0  0  0  0
 20 25  1  0  0  0  0
 20 26  1  6  0  0  0
 21 25  1  0  0  0  0
 23 27  1  0  0  0  0
 23 21  2  0  0  0  0
 24 28  1  1  0  0  0
 25 22  1  1  0  0  0
 26 24  1  0  0  0  0
 27 20  1  0  0  0  0
 28 29  1  0  0  0  0
 29 30  1  0  0  0  0
 31 30  1  0  0  0  0
 32 31  1  0  0  0  0
M  END
>  <MODEL>
6

>  <REMARK>
 VINA RESULT:      -6.9      4.206      6.254
  Name = 
  5 active torsions:
  status: ('A' for Active; 'I' for Inactive)
    1  A    between atoms: C_1  and  C_20
    2  A    between atoms: C_3  and  C_14
    3  A    between atoms: N_10  and  C_20
    4  A    between atoms: N_10  and  C_24
    5  A    between atoms: C_19  and  C_24
                            x       y       z     vdW  Elec       q    Type
                         _______ _______ _______ _____ _____    ______ ____

>  <TORSDO>
F 5

$$$$
=
 OpenBabel11052417003D

 32 37  0  0  1  0  0  0  0  0999 V2000
  189.6040  176.9100  136.5970 C   0  0  2  0  0  3  0  0  0  0  0  0
  193.1130  175.4980  135.9060 C   0  0  0  0  0  3  0  0  0  0  0  0
  193.6040  175.5270  137.2260 C   0  0  0  0  0  3  0  0  0  0  0  0
  188.2320  177.8260  138.5780 N   0  0  0  0  0  0  0  0  0  0  0  0
  188.2390  178.0630  139.9180 C   0  0  0  0  0  0  0  0  0  0  0  0
  188.9660  178.1540  141.9920 C   0  0  0  0  0  0  0  0  0  0  0  0
  191.8110  175.9370  135.6200 C   0  0  0  0  0  3  0  0  0  0  0  0
  191.0160  176.3980  136.6720 C   0  0  0  0  0  0  0  0  0  0  0  0
  190.4870  176.9620  138.8330 C   0  0  0  0  0  0  0  0  0  0  0  0
  187.7050  178.6540  141.9190 N   0  0  0  0  0  0  0  0  0  0  0  0
  187.2600  178.6020  140.6630 N   0  0  0  0  0  0  0  0  0  0  0  0
  192.7990  175.9960  138.2750 C   0  0  0  0  0  3  0  0  0  0  0  0
  191.5080  176.4250  137.9660 C   0  0  0  0  0  0  0  0  0  0  0  0
  190.5330  177.1980  140.2170 C   0  0  0  0  0  3  0  0  0  0  0  0
  187.0800  178.1650  137.7560 C   0  0  0  0  0  1  0  0  0  0  0  0
  189.7610  178.0700  143.2470 C   0  0  0  0  0  1  0  0  0  0  0  0
  189.3640  177.2630  138.0440 C   0  0  0  0  0  0  0  0  0  0  0  0
  189.3700  177.7550  140.7430 C   0  0  0  0  0  0  0  0  0  0  0  0
  185.6220  174.0400  137.5980 O   0  0  0  0  0  0  0  0  0  0  0  0
  186.8970  174.8120  135.1070 C   0  0  1  0  0  3  0  0  0  0  0  0
  188.5300  174.7340  136.8350 N   0  0  0  0  0  0  0  0  0  0  0  0
  186.6180  173.1780  137.0980 C   0  0  0  0  0  2  0  0  0  0  0  0
  188.6820  175.8160  136.1540 C   0  0  0  0  0  0  0  0  0  0  0  0
  184.7930  174.4500  136.5290 C   0  0  1  0  0  3  0  0  0  0  0  0
  187.5720  173.8920  136.1420 C   0  0  1  0  0  3  0  0  0  0  0  0
  185.5410  175.3660  135.5650 C   0  0  0  0  0  2  0  0  0  0  0  0
  187.8180  175.9320  135.0320 N   0  0  0  0  0  2  0  0  0  0  0  0
  184.0790  173.3000  135.8150 C   0  0  0  0  0  2  0  0  0  0  0  0
  182.7300  173.1610  136.3310 N   0  0  0  0  0  2  0  0  0  0  0  0
  182.5820  171.7770  136.7460 C   0  0  0  0  0  2  0  0  0  0  0  0
  183.8010  170.9750  136.3270 C   0  0  0  0  0  2  0  0  0  0  0  0
  183.3780  169.6400  135.7470 C   0  0  0  0  0  1  0  0  0  0  0  0
  1 23  1  1  0  0  0
  1  8  1  0  0  0  0
  1 17  1  0  0  0  0
  2  3  1  0  0  0  0
  3 12  2  0  0  0  0
  4  5  1  0  0  0  0
  5 11  2  0  0  0  0
  5 18  1  0  0  0  0
  6 16  1  0  0  0  0
  7  2  2  0  0  0  0
  7  8  1  0  0  0  0
  8 13  2  0  0  0  0
  9 14  1  0  0  0  0
 10  6  2  0  0  0  0
 11 10  1  0  0  0  0
 13 12  1  0  0  0  0
 13  9  1  0  0  0  0
 14 18  2  0  0  0  0
 15  4  1  0  0  0  0
 17  4  1  0  0  0  0
 17  9  2  0  0  0  0
 18  6  1  0  0  0  0
 20 26  1  1  0  0  0
 20 25  1  0  0  0  0
 22 19  1  0  0  0  0
 23 21  2  0  0  0  0
 24 28  1  6  0  0  0
 24 19  1  0  0  0  0
 25 21  1  0  0  0  0
 25 22  1  1  0  0  0
 26 24  1  0  0  0  0
 27 20  1  0  0  0  0
 27 23  1  0  0  0  0
 28 29  1  0  0  0  0
 29 30  1  0  0  0  0
 31 30  1  0  0  0  0
 32 31  1  0  0  0  0
M  END
>  <MODEL>
7

>  <REMARK>
 VINA RESULT:      -6.9      4.323      9.438
  Name = 
  5 active torsions:
  status: ('A' for Active; 'I' for Inactive)
    1  A    between atoms: C_1  and  C_20
    2  A    between atoms: C_3  and  C_14
    3  A    between atoms: N_10  and  C_20
    4  A    between atoms: N_10  and  C_24
    5  A    between atoms: C_19  and  C_24
                            x       y       z     vdW  Elec       q    Type
                         _______ _______ _______ _____ _____    ______ ____

>  <TORSDO>
F 5

$$$$
=
 OpenBabel11052417003D

 32 37  0  0  1  0  0  0  0  0999 V2000
  187.6750  178.2270  138.3530 C   0  0  2  0  0  3  0  0  0  0  0  0
  191.3530  177.1090  138.2740 C   0  0  0  0  0  3  0  0  0  0  0  0
  191.5190  176.8720  139.6520 C   0  0  0  0  0  3  0  0  0  0  0  0
  185.8090  178.6550  140.0790 N   0  0  0  0  0  0  0  0  0  0  0  0
  185.4860  178.6010  141.4000 C   0  0  0  0  0  0  0  0  0  0  0  0
  185.7010  178.2710  143.5650 C   0  0  0  0  0  0  0  0  0  0  0  0
  190.1210  177.5570  137.7710 C   0  0  0  0  0  3  0  0  0  0  0  0
  189.0690  177.7570  138.6680 C   0  0  0  0  0  0  0  0  0  0  0  0
  188.0070  177.8300  140.7010 C   0  0  0  0  0  0  0  0  0  0  0  0
  184.4540  178.7350  143.2870 N   0  0  0  0  0  0  0  0  0  0  0  0
  184.3190  178.9380  141.9760 N   0  0  0  0  0  0  0  0  0  0  0  0
  190.4570  177.0810  140.5440 C   0  0  0  0  0  3  0  0  0  0  0  0
  189.2420  177.5240  140.0200 C   0  0  0  0  0  0  0  0  0  0  0  0
  187.7110  177.7670  142.0730 C   0  0  0  0  0  3  0  0  0  0  0  0
  184.8560  179.1250  139.0860 C   0  0  0  0  0  1  0  0  0  0  0  0
  186.1860  177.9480  144.9330 C   0  0  0  0  0  1  0  0  0  0  0  0
  187.0770  178.2560  139.7380 C   0  0  0  0  0  0  0  0  0  0  0  0
  186.4160  178.1620  142.3990 C   0  0  0  0  0  0  0  0  0  0  0  0
  184.3220  174.5230  138.0030 O   0  0  0  0  0  0  0  0  0  0  0  0
  185.4060  176.3680  136.0410 C   0  0  1  0  0  3  0  0  0  0  0  0
  187.0380  175.9600  137.7240 N   0  0  0  0  0  0  0  0  0  0  0  0
  185.4600  174.0970  137.2900 C   0  0  0  0  0  2  0  0  0  0  0  0
  186.9750  177.2240  137.4890 C   0  0  0  0  0  0  0  0  0  0  0  0
  183.4210  175.1380  137.1040 C   0  0  1  0  0  3  0  0  0  0  0  0
  186.2520  175.2710  136.7160 C   0  0  1  0  0  3  0  0  0  0  0  0
  183.9730  176.4610  136.5840 C   0  0  0  0  0  2  0  0  0  0  0  0
  186.0950  177.5840  136.4330 N   0  0  0  0  0  2  0  0  0  0  0  0
  182.9340  174.2200  135.9810 C   0  0  0  0  0  2  0  0  0  0  0  0
  181.9490  173.2880  136.4980 N   0  0  0  0  0  2  0  0  0  0  0  0
  182.2060  172.0100  135.8580 C   0  0  0  0  0  2  0  0  0  0  0  0
  183.3660  171.3100  136.5410 C   0  0  0  0  0  2  0  0  0  0  0  0
  183.4350  169.8590  136.1060 C   0  0  0  0  0  1  0  0  0  0  0  0
  1 23  1  6  0  0  0
  1  8  1  0  0  0  0
  1 17  1  0  0  0  0
  2  3  1  0  0  0  0
  3 12  2  0  0  0  0
  4  5  1  0  0  0  0
  5 11  2  0  0  0  0
  5 18  1  0  0  0  0
  6 16  1  0  0  0  0
  7  2  2  0  0  0  0
  7  8  1  0  0  0  0
  8 13  2  0  0  0  0
  9 14  1  0  0  0  0
 10  6  2  0  0  0  0
 11 10  1  0  0  0  0
 13 12  1  0  0  0  0
 13  9  1  0  0  0  0
 14 18  2  0  0  0  0
 15  4  1  0  0  0  0
 17  4  1  0  0  0  0
 17  9  2  0  0  0  0
 18  6  1  0  0  0  0
 20 27  1  0  0  0  0
 20 26  1  1  0  0  0
 20 25  1  0  0  0  0
 22 19  1  0  0  0  0
 23 21  2  0  0  0  0
 24 28  1  6  0  0  0
 24 19  1  0  0  0  0
 25 22  1  1  0  0  0
 25 21  1  0  0  0  0
 26 24  1  0  0  0  0
 27 23  1  0  0  0  0
 28 29  1  0  0  0  0
 30 29  1  0  0  0  0
 30 31  1  0  0  0  0
 32 31  1  0  0  0  0
M  END
>  <MODEL>
8

>  <REMARK>
 VINA RESULT:      -6.8      3.314      8.493
  Name = 
  5 active torsions:
  status: ('A' for Active; 'I' for Inactive)
    1  A    between atoms: C_1  and  C_20
    2  A    between atoms: C_3  and  C_14
    3  A    between atoms: N_10  and  C_20
    4  A    between atoms: N_10  and  C_24
    5  A    between atoms: C_19  and  C_24
                            x       y       z     vdW  Elec       q    Type
                         _______ _______ _______ _____ _____    ______ ____

>  <TORSDO>
F 5

$$$$
=
 OpenBabel11052417003D

 32 37  0  0  1  0  0  0  0  0999 V2000
  183.1830  178.7500  139.6920 C   0  0  2  0  0  3  0  0  0  0  0  0
  179.7910  178.6480  141.5000 C   0  0  0  0  0  3  0  0  0  0  0  0
  179.4370  177.3210  141.1860 C   0  0  0  0  0  3  0  0  0  0  0  0
  184.6450  177.2270  138.2140 N   0  0  0  0  0  0  0  0  0  0  0  0
  184.7500  175.9900  137.6560 C   0  0  0  0  0  0  0  0  0  0  0  0
  184.2320  173.9200  137.1160 C   0  0  0  0  0  0  0  0  0  0  0  0
  181.0030  179.1890  141.0440 C   0  0  0  0  0  3  0  0  0  0  0  0
  181.8480  178.3820  140.2780 C   0  0  0  0  0  0  0  0  0  0  0  0
  182.5320  176.4970  139.1610 C   0  0  0  0  0  0  0  0  0  0  0  0
  185.4190  174.2650  136.5520 N   0  0  0  0  0  0  0  0  0  0  0  0
  185.7370  175.5190  136.8750 N   0  0  0  0  0  0  0  0  0  0  0  0
  180.2910  176.5210  140.4120 C   0  0  0  0  0  3  0  0  0  0  0  0
  181.4910  177.0800  139.9730 C   0  0  0  0  0  0  0  0  0  0  0  0
  182.6020  175.2120  138.5970 C   0  0  0  0  0  3  0  0  0  0  0  0
  185.6650  178.2420  137.9970 C   0  0  0  0  0  1  0  0  0  0  0  0
  183.5830  172.5920  136.9510 C   0  0  0  0  0  1  0  0  0  0  0  0
  183.5300  177.4680  138.9770 C   0  0  0  0  0  0  0  0  0  0  0  0
  183.7470  174.9810  137.8390 C   0  0  0  0  0  0  0  0  0  0  0  0
  186.1260  176.9710  143.3340 O   0  0  0  0  0  0  0  0  0  0  0  0
  186.1960  179.4290  141.7920 C   0  0  1  0  0  3  0  0  0  0  0  0
  183.9410  178.7000  142.0080 N   0  0  0  0  0  0  0  0  0  0  0  0
  185.4500  178.0820  143.8760 C   0  0  0  0  0  2  0  0  0  0  0  0
  184.1660  179.0360  140.7850 C   0  0  0  0  0  0  0  0  0  0  0  0
  187.3740  177.3980  142.8240 C   0  0  1  0  0  3  0  0  0  0  0  0
  185.0820  179.1100  142.8080 C   0  0  1  0  0  3  0  0  0  0  0  0
  187.1970  178.2830  141.5950 C   0  0  0  0  0  2  0  0  0  0  0  0
  185.4580  179.5760  140.5500 N   0  0  0  0  0  2  0  0  0  0  0  0
  188.2960  178.0210  143.8730 C   0  0  0  0  0  2  0  0  0  0  0  0
  188.8060  176.9890  144.7580 N   0  0  0  0  0  2  0  0  0  0  0  0
  189.0710  177.6280  146.0350 C   0  0  0  0  0  2  0  0  0  0  0  0
  187.8080  177.6510  146.8770 C   0  0  0  0  0  2  0  0  0  0  0  0
  188.1360  178.0380  148.3060 C   0  0  0  0  0  1  0  0  0  0  0  0
  1  8  1  0  0  0  0
  1 23  1  1  0  0  0
  3  2  1  0  0  0  0
  4 17  1  0  0  0  0
  5 18  1  0  0  0  0
  5  4  1  0  0  0  0
  6 18  1  0  0  0  0
  7  2  2  0  0  0  0
  8  7  1  0  0  0  0
  9 13  1  0  0  0  0
 10 11  1  0  0  0  0
 10  6  2  0  0  0  0
 11  5  2  0  0  0  0
 12  3  2  0  0  0  0
 13  8  2  0  0  0  0
 13 12  1  0  0  0  0
 14  9  1  0  0  0  0
 15  4  1  0  0  0  0
 16  6  1  0  0  0  0
 17  9  2  0  0  0  0
 17  1  1  0  0  0  0
 18 14  2  0  0  0  0
 19 22  1  0  0  0  0
 20 26  1  6  0  0  0
 20 25  1  0  0  0  0
 21 25  1  0  0  0  0
 23 21  2  0  0  0  0
 24 19  1  0  0  0  0
 24 28  1  1  0  0  0
 25 22  1  1  0  0  0
 26 24  1  0  0  0  0
 27 23  1  0  0  0  0
 27 20  1  0  0  0  0
 28 29  1  0  0  0  0
 29 30  1  0  0  0  0
 30 31  1  0  0  0  0
 31 32  1  0  0  0  0
M  END
>  <MODEL>
9

>  <REMARK>
 VINA RESULT:      -6.7      2.211      3.401
  Name = 
  5 active torsions:
  status: ('A' for Active; 'I' for Inactive)
    1  A    between atoms: C_1  and  C_20
    2  A    between atoms: C_3  and  C_14
    3  A    between atoms: N_10  and  C_20
    4  A    between atoms: N_10  and  C_24
    5  A    between atoms: C_19  and  C_24
                            x       y       z     vdW  Elec       q    Type
                         _______ _______ _______ _____ _____    ______ ____

>  <TORSDO>
F 5

$$$$
