=
 OpenBabel11052415393D

 34 40  0  0  0  0  0  0  0  0999 V2000
  186.6790  178.2150  143.8670 C   0  0  0  0  0  0  0  0  0  0  0  0
  188.2600  177.5180  147.2310 C   0  0  0  0  0  3  0  0  0  0  0  0
  186.0750  178.1460  146.6320 C   0  0  0  0  0  3  0  0  0  0  0  0
  185.5750  178.7140  141.5870 C   0  0  0  0  0  0  0  0  0  0  0  0
  186.8390  178.2930  142.3540 C   0  0  0  0  0  2  0  0  0  0  0  0
  184.3480  178.8480  143.6800 C   0  0  0  0  0  0  0  0  0  0  0  0
  183.3320  179.0390  144.6080 C   0  0  0  0  0  3  0  0  0  0  0  0
  184.4020  178.9620  142.2230 C   0  0  0  0  0  3  0  0  0  0  0  0
  185.1180  178.4760  145.6820 C   0  0  0  0  0  0  0  0  0  0  0  0
  185.4380  178.4990  144.3790 C   0  0  0  0  0  0  0  0  0  0  0  0
  183.8210  178.8050  145.8630 N   0  0  0  0  0  0  0  0  0  0  0  0
  189.6030  177.1760  147.2200 C   0  0  0  0  0  3  0  0  0  0  0  0
  190.4860  177.0580  146.1540 C   0  0  0  0  0  0  0  0  0  0  0  0
  190.1570  177.2220  144.8150 C   0  0  0  0  0  3  0  0  0  0  0  0
  187.3880  177.8370  146.1960 C   0  0  0  0  0  0  0  0  0  0  0  0
  188.9500  177.5770  144.2310 C   0  0  0  0  0  3  0  0  0  0  0  0
  187.7060  177.8690  144.7880 C   0  0  0  0  0  0  0  0  0  0  0  0
  191.8880  176.6190  146.4680 C   0  0  0  0  0  3  0  0  0  0  0  0
  192.0550  175.1270  146.2230 C   0  0  0  0  0  2  0  0  0  0  0  0
  191.9010  175.6420  147.6340 C   0  0  0  0  0  2  0  0  0  0  0  0
  185.6850  178.7950  140.1880 O   0  0  0  0  0  0  0  0  0  0  0  0
  187.5040  177.5610  137.2150 C   0  0  0  0  0  3  0  0  0  0  0  0
  188.0540  178.1820  139.8850 C   0  0  0  0  0  3  0  0  0  0  0  0
  190.8460  176.0780  137.5800 N   0  0  0  0  0  0  0  0  0  0  0  0
  191.5580  175.0390  136.8900 C   0  0  0  0  0  0  0  0  0  0  0  0
  189.9050  176.9270  136.8340 C   0  0  0  0  0  2  0  0  0  0  0  0
  192.4100  174.3390  137.5010 O   0  0  0  0  0  0  0  0  0  0  0  0
  188.7950  177.3960  137.7180 C   0  0  0  0  0  0  0  0  0  0  0  0
  191.3130  174.7650  135.4440 C   0  0  0  0  0  1  0  0  0  0  0  0
  190.4690  177.5700  139.5610 C   0  0  0  0  0  2  0  0  0  0  0  0
  189.0710  177.7070  139.0540 C   0  0  0  0  0  0  0  0  0  0  0  0
  191.1240  176.2990  139.0100 C   0  0  0  0  0  2  0  0  0  0  0  0
  186.7500  178.3470  139.3890 C   0  0  0  0  0  0  0  0  0  0  0  0
  186.4850  178.0300  138.0500 C   0  0  0  0  0  3  0  0  0  0  0  0
  1 10  1  0  0  0  0
  1 17  2  0  0  0  0
  4  8  2  0  0  0  0
  4  5  1  0  0  0  0
  5  1  1  0  0  0  0
  6 10  2  0  0  0  0
  6  7  1  0  0  0  0
  7 11  2  0  0  0  0
  8  6  1  0  0  0  0
  9 11  1  0  0  0  0
  9  3  2  0  0  0  0
 10  9  1  0  0  0  0
 12  2  1  0  0  0  0
 13 18  1  0  0  0  0
 13 12  2  0  0  0  0
 14 13  1  0  0  0  0
 15  3  1  0  0  0  0
 15  2  2  0  0  0  0
 16 17  1  0  0  0  0
 16 14  2  0  0  0  0
 17 15  1  0  0  0  0
 18 20  1  0  0  0  0
 19 18  1  0  0  0  0
 19 20  1  0  0  0  0
 21  4  1  0  0  0  0
 22 28  2  0  0  0  0
 22 34  1  0  0  0  0
 24 32  1  0  0  0  0
 25 27  2  0  0  0  0
 25 24  1  0  0  0  0
 26 24  1  0  0  0  0
 26 28  1  0  0  0  0
 28 31  1  0  0  0  0
 29 25  1  0  0  0  0
 31 30  1  0  0  0  0
 31 23  2  0  0  0  0
 32 30  1  0  0  0  0
 33 23  1  0  0  0  0
 33 21  1  0  0  0  0
 34 33  2  0  0  0  0
M  END
>  <MODEL>
1

>  <REMARK>
 VINA RESULT:     -12.4      0.000      0.000
  Name = 
  3 active torsions:
  status: ('A' for Active; 'I' for Inactive)
    1  A    between atoms: C_3  and  C_25
    2  A    between atoms: C_8  and  O_18
    3  A    between atoms: O_18  and  C_30
                            x       y       z     vdW  Elec       q    Type
                         _______ _______ _______ _____ _____    ______ ____

>  <TORSDO>
F 3

$$$$
=
 OpenBabel11052415393D

 34 40  0  0  0  0  0  0  0  0999 V2000
  187.4620  177.8100  145.0510 C   0  0  0  0  0  0  0  0  0  0  0  0
  190.8830  176.6730  143.9070 C   0  0  0  0  0  3  0  0  0  0  0  0
  190.0200  177.1210  146.0480 C   0  0  0  0  0  3  0  0  0  0  0  0
  185.1420  178.6020  145.8610 C   0  0  0  0  0  0  0  0  0  0  0  0
  186.0380  178.2030  144.6770 C   0  0  0  0  0  3  0  0  0  0  0  0
  186.9730  178.1630  147.3960 C   0  0  0  0  0  0  0  0  0  0  0  0
  187.7240  178.0370  148.5590 C   0  0  0  0  0  2  0  0  0  0  0  0
  185.5910  178.5670  147.1410 C   0  0  0  0  0  3  0  0  0  0  0  0
  188.9870  177.5070  146.8900 C   0  0  0  0  0  0  0  0  0  0  0  0
  187.7860  177.8260  146.3840 C   0  0  0  0  0  0  0  0  0  0  0  0
  188.9870  177.6250  148.2350 N   0  0  0  0  0  0  0  0  0  0  0  0
  191.0530  176.5140  142.5410 C   0  0  0  0  0  3  0  0  0  0  0  0
  190.1590  176.7230  141.4990 C   0  0  0  0  0  0  0  0  0  0  0  0
  188.8310  177.1020  141.6430 C   0  0  0  0  0  3  0  0  0  0  0  0
  189.7790  177.0750  144.6510 C   0  0  0  0  0  0  0  0  0  0  0  0
  188.1100  177.4090  142.7880 C   0  0  0  0  0  3  0  0  0  0  0  0
  188.4780  177.4230  144.1330 C   0  0  0  0  0  0  0  0  0  0  0  0
  190.6380  176.4140  140.1090 C   0  0  0  0  0  3  0  0  0  0  0  0
  191.6170  177.4740  139.6270 C   0  0  0  0  0  2  0  0  0  0  0  0
  190.1900  177.4890  139.1310 C   0  0  0  0  0  2  0  0  0  0  0  0
  183.8210  178.9690  145.5550 O   0  0  0  0  0  0  0  0  0  0  0  0
  181.0880  178.8460  143.0650 C   0  0  0  0  0  3  0  0  0  0  0  0
  183.8820  178.7140  143.1020 C   0  0  0  0  0  3  0  0  0  0  0  0
  181.7560  177.6670  139.6500 N   0  0  0  0  0  0  0  0  0  0  0  0
  180.9840  176.9520  138.6720 C   0  0  0  0  0  0  0  0  0  0  0  0
  181.0770  178.5970  140.5650 C   0  0  0  0  0  2  0  0  0  0  0  0
  181.5560  176.1950  137.8420 O   0  0  0  0  0  0  0  0  0  0  0  0
  181.7950  178.6730  141.8740 C   0  0  0  0  0  0  0  0  0  0  0  0
  179.5000  177.0880  138.6110 C   0  0  0  0  0  1  0  0  0  0  0  0
  183.9320  178.4720  140.6020 C   0  0  0  0  0  2  0  0  0  0  0  0
  183.1920  178.6080  141.8920 C   0  0  0  0  0  0  0  0  0  0  0  0
  183.2180  177.4890  139.6680 C   0  0  0  0  0  2  0  0  0  0  0  0
  183.1790  178.8840  144.3080 C   0  0  0  0  0  0  0  0  0  0  0  0
  181.7800  178.9450  144.2770 C   0  0  0  0  0  3  0  0  0  0  0  0
  1 10  1  0  0  0  0
  2 15  1  0  0  0  0
  3  9  1  0  0  0  0
  4  8  2  0  0  0  0
  5  1  2  0  0  0  0
  5  4  1  0  0  0  0
  6  7  1  0  0  0  0
  8  6  1  0  0  0  0
  9 11  2  0  0  0  0
 10  9  1  0  0  0  0
 10  6  2  0  0  0  0
 11  7  1  0  0  0  0
 12  2  2  0  0  0  0
 13 14  2  0  0  0  0
 13 12  1  0  0  0  0
 14 16  1  0  0  0  0
 15  3  2  0  0  0  0
 16 17  2  0  0  0  0
 17 15  1  0  0  0  0
 17  1  1  0  0  0  0
 18 13  1  0  0  0  0
 19 18  1  0  0  0  0
 20 19  1  0  0  0  0
 20 18  1  0  0  0  0
 21  4  1  0  0  0  0
 22 34  1  0  0  0  0
 23 33  1  0  0  0  0
 24 32  1  0  0  0  0
 24 26  1  0  0  0  0
 25 24  1  0  0  0  0
 26 28  1  0  0  0  0
 27 25  2  0  0  0  0
 28 31  1  0  0  0  0
 28 22  2  0  0  0  0
 29 25  1  0  0  0  0
 30 31  1  0  0  0  0
 31 23  2  0  0  0  0
 32 30  1  0  0  0  0
 33 21  1  0  0  0  0
 34 33  2  0  0  0  0
M  END
>  <MODEL>
2

>  <REMARK>
 VINA RESULT:     -12.0      3.400      6.604
  Name = 
  3 active torsions:
  status: ('A' for Active; 'I' for Inactive)
    1  A    between atoms: C_3  and  C_25
    2  A    between atoms: C_8  and  O_18
    3  A    between atoms: O_18  and  C_30
                            x       y       z     vdW  Elec       q    Type
                         _______ _______ _______ _____ _____    ______ ____

>  <TORSDO>
F 3

$$$$
=
 OpenBabel11052415393D

 34 40  0  0  0  0  0  0  0  0999 V2000
  187.5910  177.7980  145.1850 C   0  0  0  0  0  0  0  0  0  0  0  0
  191.0330  176.7390  144.0310 C   0  0  0  0  0  3  0  0  0  0  0  0
  190.1790  177.2110  146.1690 C   0  0  0  0  0  3  0  0  0  0  0  0
  185.2560  178.5370  146.0020 C   0  0  0  0  0  0  0  0  0  0  0  0
  186.1520  178.1390  144.8180 C   0  0  0  0  0  3  0  0  0  0  0  0
  187.1150  178.1900  147.5270 C   0  0  0  0  0  0  0  0  0  0  0  0
  187.8820  178.1140  148.6840 C   0  0  0  0  0  2  0  0  0  0  0  0
  185.7190  178.5460  147.2770 C   0  0  0  0  0  3  0  0  0  0  0  0
  189.1430  177.5840  147.0140 C   0  0  0  0  0  0  0  0  0  0  0  0
  187.9280  177.8550  146.5140 C   0  0  0  0  0  0  0  0  0  0  0  0
  189.1530  177.7330  148.3550 N   0  0  0  0  0  0  0  0  0  0  0  0
  191.1950  176.5550  142.6660 C   0  0  0  0  0  3  0  0  0  0  0  0
  190.2840  176.7110  141.6300 C   0  0  0  0  0  0  0  0  0  0  0  0
  188.9460  177.0540  141.7800 C   0  0  0  0  0  3  0  0  0  0  0  0
  189.9260  177.1250  144.7770 C   0  0  0  0  0  0  0  0  0  0  0  0
  188.2280  177.3650  142.9250 C   0  0  0  0  0  3  0  0  0  0  0  0
  188.6090  177.4210  144.2660 C   0  0  0  0  0  0  0  0  0  0  0  0
  190.7580  176.3850  140.2420 C   0  0  0  0  0  3  0  0  0  0  0  0
  191.7030  177.4610  139.7280 C   0  0  0  0  0  2  0  0  0  0  0  0
  190.2720  177.4270  139.2450 C   0  0  0  0  0  2  0  0  0  0  0  0
  183.9220  178.8580  145.7020 O   0  0  0  0  0  0  0  0  0  0  0  0
  183.5360  178.6510  142.0290 C   0  0  0  0  0  3  0  0  0  0  0  0
  181.9060  178.9430  144.2830 C   0  0  0  0  0  3  0  0  0  0  0  0
  180.3640  179.6230  140.4500 N   0  0  0  0  0  0  0  0  0  0  0  0
  180.0180  180.2240  139.1920 C   0  0  0  0  0  0  0  0  0  0  0  0
  181.5240  178.7240  140.5260 C   0  0  0  0  0  2  0  0  0  0  0  0
  178.9930  180.9520  139.0960 O   0  0  0  0  0  0  0  0  0  0  0  0
  182.1540  178.7800  141.8800 C   0  0  0  0  0  0  0  0  0  0  0  0
  180.8520  180.0000  137.9750 C   0  0  0  0  0  1  0  0  0  0  0  0
  179.8580  179.0120  142.8300 C   0  0  0  0  0  2  0  0  0  0  0  0
  181.3380  178.9250  143.0070 C   0  0  0  0  0  0  0  0  0  0  0  0
  179.5070  179.8850  141.6200 C   0  0  0  0  0  2  0  0  0  0  0  0
  183.2970  178.8190  144.4440 C   0  0  0  0  0  0  0  0  0  0  0  0
  184.1030  178.6770  143.3080 C   0  0  0  0  0  3  0  0  0  0  0  0
  1 10  1  0  0  0  0
  2 15  1  0  0  0  0
  3  9  1  0  0  0  0
  4  8  2  0  0  0  0
  5  1  2  0  0  0  0
  5  4  1  0  0  0  0
  6  7  1  0  0  0  0
  8  6  1  0  0  0  0
  9 11  2  0  0  0  0
 10  9  1  0  0  0  0
 10  6  2  0  0  0  0
 11  7  1  0  0  0  0
 12  2  2  0  0  0  0
 13 14  2  0  0  0  0
 13 12  1  0  0  0  0
 14 16  1  0  0  0  0
 15  3  2  0  0  0  0
 16 17  2  0  0  0  0
 17 15  1  0  0  0  0
 17  1  1  0  0  0  0
 18 13  1  0  0  0  0
 19 18  1  0  0  0  0
 20 19  1  0  0  0  0
 20 18  1  0  0  0  0
 21  4  1  0  0  0  0
 22 34  1  0  0  0  0
 23 33  1  0  0  0  0
 24 26  1  0  0  0  0
 24 32  1  0  0  0  0
 25 24  1  0  0  0  0
 26 28  1  0  0  0  0
 27 25  2  0  0  0  0
 28 22  2  0  0  0  0
 28 31  1  0  0  0  0
 29 25  1  0  0  0  0
 30 31  1  0  0  0  0
 31 23  2  0  0  0  0
 32 30  1  0  0  0  0
 33 21  1  0  0  0  0
 34 33  2  0  0  0  0
M  END
>  <MODEL>
3

>  <REMARK>
 VINA RESULT:     -11.9      3.752      7.330
  Name = 
  3 active torsions:
  status: ('A' for Active; 'I' for Inactive)
    1  A    between atoms: C_3  and  C_25
    2  A    between atoms: C_8  and  O_18
    3  A    between atoms: O_18  and  C_30
                            x       y       z     vdW  Elec       q    Type
                         _______ _______ _______ _____ _____    ______ ____

>  <TORSDO>
F 3

$$$$
=
 OpenBabel11052415393D

 34 40  0  0  0  0  0  0  0  0999 V2000
  188.6620  177.5200  144.2100 C   0  0  0  0  0  0  0  0  0  0  0  0
  185.8020  178.2520  146.5740 C   0  0  0  0  0  3  0  0  0  0  0  0
  187.9970  177.5050  146.9620 C   0  0  0  0  0  3  0  0  0  0  0  0
  190.6280  176.9960  142.6210 C   0  0  0  0  0  0  0  0  0  0  0  0
  189.1770  177.4780  142.7770 C   0  0  0  0  0  3  0  0  0  0  0  0
  190.8080  176.7530  145.0310 C   0  0  0  0  0  0  0  0  0  0  0  0
  191.3050  176.4840  146.3010 C   0  0  0  0  0  2  0  0  0  0  0  0
  191.3920  176.6680  143.6930 C   0  0  0  0  0  3  0  0  0  0  0  0
  189.2570  177.1340  146.5120 C   0  0  0  0  0  0  0  0  0  0  0  0
  189.5390  177.1530  145.2000 C   0  0  0  0  0  0  0  0  0  0  0  0
  190.3270  176.7260  147.2260 N   0  0  0  0  0  0  0  0  0  0  0  0
  184.6160  178.6730  145.9920 C   0  0  0  0  0  3  0  0  0  0  0  0
  184.2950  178.8620  144.6550 C   0  0  0  0  0  0  0  0  0  0  0  0
  185.1700  178.7030  143.5870 C   0  0  0  0  0  3  0  0  0  0  0  0
  187.0230  177.8990  146.0100 C   0  0  0  0  0  0  0  0  0  0  0  0
  186.4920  178.2860  143.5730 C   0  0  0  0  0  3  0  0  0  0  0  0
  187.3530  177.9110  144.6050 C   0  0  0  0  0  0  0  0  0  0  0  0
  182.9190  179.3780  144.3440 C   0  0  0  0  0  3  0  0  0  0  0  0
  181.9530  178.2280  144.1000 C   0  0  0  0  0  2  0  0  0  0  0  0
  182.5070  179.0030  142.9280 C   0  0  0  0  0  2  0  0  0  0  0  0
  191.1380  176.9460  141.3120 O   0  0  0  0  0  0  0  0  0  0  0  0
  188.7360  178.2260  138.8080 C   0  0  0  0  0  3  0  0  0  0  0  0
  190.5640  176.1240  139.0590 C   0  0  0  0  0  3  0  0  0  0  0  0
  187.7550  176.1310  135.9540 N   0  0  0  0  0  0  0  0  0  0  0  0
  186.5470  175.9880  135.1900 C   0  0  0  0  0  0  0  0  0  0  0  0
  188.1090  177.4480  136.5030 C   0  0  0  0  0  2  0  0  0  0  0  0
  186.2570  174.8790  134.6640 O   0  0  0  0  0  0  0  0  0  0  0  0
  188.8870  177.3040  137.7710 C   0  0  0  0  0  0  0  0  0  0  0  0
  185.6150  177.1370  134.9970 C   0  0  0  0  0  1  0  0  0  0  0  0
  189.9840  175.3060  136.7560 C   0  0  0  0  0  2  0  0  0  0  0  0
  189.8020  176.2530  137.8960 C   0  0  0  0  0  0  0  0  0  0  0  0
  188.6340  174.9600  136.1170 C   0  0  0  0  0  2  0  0  0  0  0  0
  190.4160  177.0450  140.1110 C   0  0  0  0  0  0  0  0  0  0  0  0
  189.4960  178.0920  139.9750 C   0  0  0  0  0  3  0  0  0  0  0  0
  1 17  1  0  0  0  0
  1 10  1  0  0  0  0
  4  5  1  0  0  0  0
  4  8  2  0  0  0  0
  5  1  2  0  0  0  0
  6 10  2  0  0  0  0
  6  7  1  0  0  0  0
  7 11  1  0  0  0  0
  8  6  1  0  0  0  0
  9  3  1  0  0  0  0
  9 11  2  0  0  0  0
 10  9  1  0  0  0  0
 12  2  2  0  0  0  0
 13 12  1  0  0  0  0
 14 13  2  0  0  0  0
 15  2  1  0  0  0  0
 15  3  2  0  0  0  0
 16 14  1  0  0  0  0
 16 17  2  0  0  0  0
 17 15  1  0  0  0  0
 18 13  1  0  0  0  0
 19 18  1  0  0  0  0
 20 19  1  0  0  0  0
 20 18  1  0  0  0  0
 21  4  1  0  0  0  0
 22 34  1  0  0  0  0
 23 33  1  0  0  0  0
 24 32  1  0  0  0  0
 24 26  1  0  0  0  0
 25 24  1  0  0  0  0
 26 28  1  0  0  0  0
 27 25  2  0  0  0  0
 28 31  1  0  0  0  0
 28 22  2  0  0  0  0
 29 25  1  0  0  0  0
 30 31  1  0  0  0  0
 31 23  2  0  0  0  0
 32 30  1  0  0  0  0
 33 21  1  0  0  0  0
 34 33  2  0  0  0  0
M  END
>  <MODEL>
4

>  <REMARK>
 VINA RESULT:     -11.6      2.312      5.413
  Name = 
  3 active torsions:
  status: ('A' for Active; 'I' for Inactive)
    1  A    between atoms: C_3  and  C_25
    2  A    between atoms: C_8  and  O_18
    3  A    between atoms: O_18  and  C_30
                            x       y       z     vdW  Elec       q    Type
                         _______ _______ _______ _____ _____    ______ ____

>  <TORSDO>
F 3

$$$$
=
 OpenBabel11052415393D

 34 40  0  0  0  0  0  0  0  0999 V2000
  186.4670  178.3810  143.4280 C   0  0  0  0  0  0  0  0  0  0  0  0
  188.1020  177.4810  146.7170 C   0  0  0  0  0  3  0  0  0  0  0  0
  185.8930  178.0830  146.1840 C   0  0  0  0  0  3  0  0  0  0  0  0
  185.3260  179.0170  141.2010 C   0  0  0  0  0  0  0  0  0  0  0  0
  186.6100  178.5790  141.9240 C   0  0  0  0  0  2  0  0  0  0  0  0
  184.1160  178.9520  143.3070 C   0  0  0  0  0  0  0  0  0  0  0  0
  183.1040  179.0400  144.2550 C   0  0  0  0  0  3  0  0  0  0  0  0
  184.1520  179.1780  141.8630 C   0  0  0  0  0  3  0  0  0  0  0  0
  184.9170  178.4540  145.2700 C   0  0  0  0  0  0  0  0  0  0  0  0
  185.2230  178.5860  143.9700 C   0  0  0  0  0  0  0  0  0  0  0  0
  183.6130  178.7260  145.4850 N   0  0  0  0  0  0  0  0  0  0  0  0
  189.4560  177.1830  146.6700 C   0  0  0  0  0  3  0  0  0  0  0  0
  190.3310  177.1760  145.5920 C   0  0  0  0  0  0  0  0  0  0  0  0
  189.9840  177.4300  144.2710 C   0  0  0  0  0  3  0  0  0  0  0  0
  187.2110  177.8500  145.7160 C   0  0  0  0  0  0  0  0  0  0  0  0
  188.7610  177.7910  143.7250 C   0  0  0  0  0  3  0  0  0  0  0  0
  187.5130  177.9990  144.3120 C   0  0  0  0  0  0  0  0  0  0  0  0
  191.7490  176.7590  145.8610 C   0  0  0  0  0  3  0  0  0  0  0  0
  191.8770  175.2430  145.8550 C   0  0  0  0  0  2  0  0  0  0  0  0
  191.8480  175.9880  147.1690 C   0  0  0  0  0  2  0  0  0  0  0  0
  185.4190  179.2080  139.8120 O   0  0  0  0  0  0  0  0  0  0  0  0
  184.6940  176.5740  137.3190 C   0  0  0  0  0  3  0  0  0  0  0  0
  186.9280  177.8690  138.3930 C   0  0  0  0  0  3  0  0  0  0  0  0
  187.3900  174.4000  136.0950 N   0  0  0  0  0  0  0  0  0  0  0  0
  187.4510  173.0300  135.6670 C   0  0  0  0  0  0  0  0  0  0  0  0
  186.1710  175.1820  135.8400 C   0  0  0  0  0  2  0  0  0  0  0  0
  188.5080  172.3610  135.8260 O   0  0  0  0  0  0  0  0  0  0  0  0
  185.9760  176.2220  136.8950 C   0  0  0  0  0  0  0  0  0  0  0  0
  186.2780  172.3690  135.0250 C   0  0  0  0  0  1  0  0  0  0  0  0
  188.4540  176.5120  136.9300 C   0  0  0  0  0  2  0  0  0  0  0  0
  187.0940  176.8690  137.4320 C   0  0  0  0  0  0  0  0  0  0  0  0
  188.5780  174.9980  136.7290 C   0  0  0  0  0  2  0  0  0  0  0  0
  185.6410  178.2290  138.8290 C   0  0  0  0  0  0  0  0  0  0  0  0
  184.5300  177.5710  138.2870 C   0  0  0  0  0  3  0  0  0  0  0  0
  1 10  1  0  0  0  0
  1 17  2  0  0  0  0
  4  8  2  0  0  0  0
  4  5  1  0  0  0  0
  5  1  1  0  0  0  0
  6 10  2  0  0  0  0
  6  7  1  0  0  0  0
  7 11  2  0  0  0  0
  8  6  1  0  0  0  0
  9 11  1  0  0  0  0
  9  3  2  0  0  0  0
 10  9  1  0  0  0  0
 12  2  1  0  0  0  0
 13 18  1  0  0  0  0
 13 12  2  0  0  0  0
 14 13  1  0  0  0  0
 15  3  1  0  0  0  0
 15  2  2  0  0  0  0
 16 14  2  0  0  0  0
 16 17  1  0  0  0  0
 17 15  1  0  0  0  0
 18 20  1  0  0  0  0
 19 18  1  0  0  0  0
 19 20  1  0  0  0  0
 21  4  1  0  0  0  0
 22 34  1  0  0  0  0
 23 33  1  0  0  0  0
 24 32  1  0  0  0  0
 25 27  2  0  0  0  0
 25 24  1  0  0  0  0
 26 24  1  0  0  0  0
 26 28  1  0  0  0  0
 28 22  2  0  0  0  0
 28 31  1  0  0  0  0
 29 25  1  0  0  0  0
 30 31  1  0  0  0  0
 31 23  2  0  0  0  0
 32 30  1  0  0  0  0
 33 21  1  0  0  0  0
 34 33  2  0  0  0  0
M  END
>  <MODEL>
5

>  <REMARK>
 VINA RESULT:     -11.5      1.932      2.284
  Name = 
  3 active torsions:
  status: ('A' for Active; 'I' for Inactive)
    1  A    between atoms: C_3  and  C_25
    2  A    between atoms: C_8  and  O_18
    3  A    between atoms: O_18  and  C_30
                            x       y       z     vdW  Elec       q    Type
                         _______ _______ _______ _____ _____    ______ ____

>  <TORSDO>
F 3

$$$$
=
 OpenBabel11052415393D

 34 40  0  0  0  0  0  0  0  0999 V2000
  187.1080  177.8910  144.5290 C   0  0  0  0  0  0  0  0  0  0  0  0
  183.5880  178.9150  145.4570 C   0  0  0  0  0  3  0  0  0  0  0  0
  185.4810  178.4600  146.7750 C   0  0  0  0  0  3  0  0  0  0  0  0
  189.5140  177.1750  143.9280 C   0  0  0  0  0  0  0  0  0  0  0  0
  188.1110  177.5610  143.4310 C   0  0  0  0  0  3  0  0  0  0  0  0
  188.7960  177.5130  146.2230 C   0  0  0  0  0  0  0  0  0  0  0  0
  188.7910  177.5880  147.6120 C   0  0  0  0  0  2  0  0  0  0  0  0
  189.8290  177.1680  145.2470 C   0  0  0  0  0  3  0  0  0  0  0  0
  186.8140  178.0990  146.9100 C   0  0  0  0  0  0  0  0  0  0  0  0
  187.5580  177.8370  145.8240 C   0  0  0  0  0  0  0  0  0  0  0  0
  187.5450  177.9560  148.0360 N   0  0  0  0  0  0  0  0  0  0  0  0
  182.7010  179.0920  144.4060 C   0  0  0  0  0  3  0  0  0  0  0  0
  182.8940  178.9380  143.0400 C   0  0  0  0  0  0  0  0  0  0  0  0
  184.0970  178.6080  142.4300 C   0  0  0  0  0  3  0  0  0  0  0  0
  184.9270  178.5420  145.4720 C   0  0  0  0  0  0  0  0  0  0  0  0
  185.3290  178.3090  142.9920 C   0  0  0  0  0  3  0  0  0  0  0  0
  185.7480  178.2550  144.3210 C   0  0  0  0  0  0  0  0  0  0  0  0
  181.7320  179.2540  142.1420 C   0  0  0  0  0  3  0  0  0  0  0  0
  180.8580  178.0260  141.9370 C   0  0  0  0  0  2  0  0  0  0  0  0
  181.8140  178.4550  140.8490 C   0  0  0  0  0  2  0  0  0  0  0  0
  190.4670  176.8660  142.9430 O   0  0  0  0  0  0  0  0  0  0  0  0
  188.9110  177.5710  139.6630 C   0  0  0  0  0  3  0  0  0  0  0  0
  191.4040  176.7910  140.6620 C   0  0  0  0  0  3  0  0  0  0  0  0
  190.5880  176.5330  136.5630 N   0  0  0  0  0  0  0  0  0  0  0  0
  190.1250  176.0930  135.2770 C   0  0  0  0  0  0  0  0  0  0  0  0
  189.8010  177.5220  137.3140 C   0  0  0  0  0  2  0  0  0  0  0  0
  190.8160  175.2890  134.5940 O   0  0  0  0  0  0  0  0  0  0  0  0
  189.9700  177.3300  138.7870 C   0  0  0  0  0  0  0  0  0  0  0  0
  188.8290  176.5750  134.7170 C   0  0  0  0  0  1  0  0  0  0  0  0
  192.3510  176.7340  138.3360 C   0  0  0  0  0  2  0  0  0  0  0  0
  191.2170  176.9400  139.2860 C   0  0  0  0  0  0  0  0  0  0  0  0
  191.8730  176.0180  137.0680 C   0  0  0  0  0  2  0  0  0  0  0  0
  190.3420  177.0270  141.5530 C   0  0  0  0  0  0  0  0  0  0  0  0
  189.0970  177.4140  141.0400 C   0  0  0  0  0  3  0  0  0  0  0  0
  1 10  1  0  0  0  0
  2 15  1  0  0  0  0
  3  9  1  0  0  0  0
  4  8  2  0  0  0  0
  5  4  1  0  0  0  0
  5  1  2  0  0  0  0
  6  7  1  0  0  0  0
  7 11  1  0  0  0  0
  8  6  1  0  0  0  0
  9 11  2  0  0  0  0
 10  6  2  0  0  0  0
 10  9  1  0  0  0  0
 12  2  2  0  0  0  0
 13 12  1  0  0  0  0
 14 16  1  0  0  0  0
 14 13  2  0  0  0  0
 15  3  2  0  0  0  0
 16 17  2  0  0  0  0
 17  1  1  0  0  0  0
 17 15  1  0  0  0  0
 18 13  1  0  0  0  0
 19 18  1  0  0  0  0
 20 19  1  0  0  0  0
 20 18  1  0  0  0  0
 21  4  1  0  0  0  0
 22 34  1  0  0  0  0
 23 33  1  0  0  0  0
 24 32  1  0  0  0  0
 24 26  1  0  0  0  0
 25 24  1  0  0  0  0
 26 28  1  0  0  0  0
 27 25  2  0  0  0  0
 28 31  1  0  0  0  0
 28 22  2  0  0  0  0
 29 25  1  0  0  0  0
 30 31  1  0  0  0  0
 31 23  2  0  0  0  0
 32 30  1  0  0  0  0
 33 21  1  0  0  0  0
 34 33  2  0  0  0  0
M  END
>  <MODEL>
6

>  <REMARK>
 VINA RESULT:     -11.5      2.003      5.349
  Name = 
  3 active torsions:
  status: ('A' for Active; 'I' for Inactive)
    1  A    between atoms: C_3  and  C_25
    2  A    between atoms: C_8  and  O_18
    3  A    between atoms: O_18  and  C_30
                            x       y       z     vdW  Elec       q    Type
                         _______ _______ _______ _____ _____    ______ ____

>  <TORSDO>
F 3

$$$$
=
 OpenBabel11052415393D

 34 40  0  0  0  0  0  0  0  0999 V2000
  186.7240  178.3080  144.0510 C   0  0  0  0  0  0  0  0  0  0  0  0
  188.4410  177.1970  147.2320 C   0  0  0  0  0  3  0  0  0  0  0  0
  186.2340  177.8870  146.8070 C   0  0  0  0  0  3  0  0  0  0  0  0
  185.5290  179.0870  141.8990 C   0  0  0  0  0  0  0  0  0  0  0  0
  186.8230  178.5770  142.5540 C   0  0  0  0  0  2  0  0  0  0  0  0
  184.3890  178.9490  144.0400 C   0  0  0  0  0  0  0  0  0  0  0  0
  183.4120  179.0170  145.0260 C   0  0  0  0  0  3  0  0  0  0  0  0
  184.3830  179.2470  142.6080 C   0  0  0  0  0  3  0  0  0  0  0  0
  185.2400  178.3310  145.9460 C   0  0  0  0  0  0  0  0  0  0  0  0
  185.5060  178.5200  144.6450 C   0  0  0  0  0  0  0  0  0  0  0  0
  183.9510  178.6280  146.2200 N   0  0  0  0  0  0  0  0  0  0  0  0
  189.7830  176.8660  147.1230 C   0  0  0  0  0  3  0  0  0  0  0  0
  190.6210  176.8880  146.0170 C   0  0  0  0  0  0  0  0  0  0  0  0
  190.2380  177.2180  144.7230 C   0  0  0  0  0  3  0  0  0  0  0  0
  187.5290  177.6410  146.2820 C   0  0  0  0  0  0  0  0  0  0  0  0
  189.0090  177.6400  144.2380 C   0  0  0  0  0  3  0  0  0  0  0  0
  187.7880  177.8520  144.8780 C   0  0  0  0  0  0  0  0  0  0  0  0
  192.0350  176.4190  146.2150 C   0  0  0  0  0  3  0  0  0  0  0  0
  192.1090  174.8990  146.1870 C   0  0  0  0  0  2  0  0  0  0  0  0
  192.1660  175.6280  147.5090 C   0  0  0  0  0  2  0  0  0  0  0  0
  185.5810  179.3450  140.5190 O   0  0  0  0  0  0  0  0  0  0  0  0
  183.3000  177.1330  138.6260 C   0  0  0  0  0  3  0  0  0  0  0  0
  185.8450  178.2510  138.3240 C   0  0  0  0  0  3  0  0  0  0  0  0
  184.5600  175.1870  135.7760 N   0  0  0  0  0  0  0  0  0  0  0  0
  184.2350  173.9020  135.2230 C   0  0  0  0  0  0  0  0  0  0  0  0
  183.4990  175.9950  136.3950 C   0  0  0  0  0  2  0  0  0  0  0  0
  185.1190  173.2200  134.6380 O   0  0  0  0  0  0  0  0  0  0  0  0
  184.0530  176.8560  137.4850 C   0  0  0  0  0  0  0  0  0  0  0  0
  182.8530  173.3460  135.3220 C   0  0  0  0  0  1  0  0  0  0  0  0
  186.0970  177.1460  136.0820 C   0  0  0  0  0  2  0  0  0  0  0  0
  185.3260  177.4150  137.3330 C   0  0  0  0  0  0  0  0  0  0  0  0
  185.9420  175.6820  135.6550 C   0  0  0  0  0  2  0  0  0  0  0  0
  185.0960  178.5330  139.4800 C   0  0  0  0  0  0  0  0  0  0  0  0
  183.8240  177.9650  139.6220 C   0  0  0  0  0  3  0  0  0  0  0  0
  1 10  1  0  0  0  0
  1 17  2  0  0  0  0
  4  5  1  0  0  0  0
  4  8  2  0  0  0  0
  5  1  1  0  0  0  0
  6 10  2  0  0  0  0
  6  7  1  0  0  0  0
  7 11  2  0  0  0  0
  8  6  1  0  0  0  0
  9 11  1  0  0  0  0
  9  3  2  0  0  0  0
 10  9  1  0  0  0  0
 12  2  1  0  0  0  0
 13 18  1  0  0  0  0
 13 12  2  0  0  0  0
 14 13  1  0  0  0  0
 15  3  1  0  0  0  0
 15  2  2  0  0  0  0
 16 14  2  0  0  0  0
 16 17  1  0  0  0  0
 17 15  1  0  0  0  0
 18 20  1  0  0  0  0
 19 18  1  0  0  0  0
 19 20  1  0  0  0  0
 21  4  1  0  0  0  0
 22 34  1  0  0  0  0
 23 33  1  0  0  0  0
 24 26  1  0  0  0  0
 25 29  1  0  0  0  0
 25 24  1  0  0  0  0
 26 28  1  0  0  0  0
 27 25  2  0  0  0  0
 28 22  2  0  0  0  0
 30 31  1  0  0  0  0
 31 28  1  0  0  0  0
 31 23  2  0  0  0  0
 32 24  1  0  0  0  0
 32 30  1  0  0  0  0
 33 34  2  0  0  0  0
 33 21  1  0  0  0  0
M  END
>  <MODEL>
7

>  <REMARK>
 VINA RESULT:     -11.5      2.853      3.562
  Name = 
  3 active torsions:
  status: ('A' for Active; 'I' for Inactive)
    1  A    between atoms: C_3  and  C_25
    2  A    between atoms: C_8  and  O_18
    3  A    between atoms: O_18  and  C_30
                            x       y       z     vdW  Elec       q    Type
                         _______ _______ _______ _____ _____    ______ ____

>  <TORSDO>
F 3

$$$$
=
 OpenBabel11052415393D

 34 40  0  0  0  0  0  0  0  0999 V2000
  186.6870  178.2550  143.8600 C   0  0  0  0  0  0  0  0  0  0  0  0
  188.2880  177.4930  147.2000 C   0  0  0  0  0  3  0  0  0  0  0  0
  186.0900  178.0950  146.6220 C   0  0  0  0  0  3  0  0  0  0  0  0
  185.5700  178.7970  141.5960 C   0  0  0  0  0  0  0  0  0  0  0  0
  186.8440  178.3780  142.3490 C   0  0  0  0  0  2  0  0  0  0  0  0
  184.3450  178.8470  143.6930 C   0  0  0  0  0  0  0  0  0  0  0  0
  183.3270  178.9920  144.6280 C   0  0  0  0  0  3  0  0  0  0  0  0
  184.3940  179.0030  142.2400 C   0  0  0  0  0  3  0  0  0  0  0  0
  185.1250  178.4340  145.6830 C   0  0  0  0  0  0  0  0  0  0  0  0
  185.4420  178.5000  144.3810 C   0  0  0  0  0  0  0  0  0  0  0  0
  183.8230  178.7320  145.8750 N   0  0  0  0  0  0  0  0  0  0  0  0
  189.6380  177.1770  147.1780 C   0  0  0  0  0  3  0  0  0  0  0  0
  190.5200  177.1070  146.1090 C   0  0  0  0  0  0  0  0  0  0  0  0
  190.1860  177.3020  144.7750 C   0  0  0  0  0  3  0  0  0  0  0  0
  187.4090  177.8240  146.1760 C   0  0  0  0  0  0  0  0  0  0  0  0
  188.9720  177.6510  144.2020 C   0  0  0  0  0  3  0  0  0  0  0  0
  187.7230  177.9020  144.7690 C   0  0  0  0  0  0  0  0  0  0  0  0
  191.9310  176.6870  146.4080 C   0  0  0  0  0  3  0  0  0  0  0  0
  192.0550  175.1700  146.4050 C   0  0  0  0  0  2  0  0  0  0  0  0
  192.0000  175.9150  147.7180 C   0  0  0  0  0  2  0  0  0  0  0  0
  185.6760  178.9200  140.2000 O   0  0  0  0  0  0  0  0  0  0  0  0
  182.5270  179.1730  138.2770 C   0  0  0  0  0  3  0  0  0  0  0  0
  184.8030  177.5500  138.3440 C   0  0  0  0  0  3  0  0  0  0  0  0
  181.4280  176.3800  136.1590 N   0  0  0  0  0  0  0  0  0  0  0  0
  180.1450  175.8560  135.7850 C   0  0  0  0  0  0  0  0  0  0  0  0
  181.5820  177.8250  136.3800 C   0  0  0  0  0  2  0  0  0  0  0  0
  180.0080  174.6270  135.5360 O   0  0  0  0  0  0  0  0  0  0  0  0
  182.6450  178.0990  137.3940 C   0  0  0  0  0  0  0  0  0  0  0  0
  178.9510  176.7440  135.6770 C   0  0  0  0  0  1  0  0  0  0  0  0
  183.9120  176.1720  136.4420 C   0  0  0  0  0  2  0  0  0  0  0  0
  183.7830  177.2870  137.4270 C   0  0  0  0  0  0  0  0  0  0  0  0
  182.5710  175.4540  136.2560 C   0  0  0  0  0  2  0  0  0  0  0  0
  184.6930  178.6270  139.2400 C   0  0  0  0  0  0  0  0  0  0  0  0
  183.5470  179.4320  139.2000 C   0  0  0  0  0  3  0  0  0  0  0  0
  1 10  1  0  0  0  0
  1 17  2  0  0  0  0
  4  8  2  0  0  0  0
  4  5  1  0  0  0  0
  5  1  1  0  0  0  0
  6 10  2  0  0  0  0
  6  7  1  0  0  0  0
  7 11  2  0  0  0  0
  8  6  1  0  0  0  0
  9 11  1  0  0  0  0
  9  3  2  0  0  0  0
 10  9  1  0  0  0  0
 12  2  1  0  0  0  0
 13 18  1  0  0  0  0
 13 12  2  0  0  0  0
 14 13  1  0  0  0  0
 15  3  1  0  0  0  0
 15  2  2  0  0  0  0
 16 17  1  0  0  0  0
 16 14  2  0  0  0  0
 17 15  1  0  0  0  0
 18 20  1  0  0  0  0
 19 18  1  0  0  0  0
 19 20  1  0  0  0  0
 21  4  1  0  0  0  0
 22 34  1  0  0  0  0
 23 33  1  0  0  0  0
 24 32  1  0  0  0  0
 24 26  1  0  0  0  0
 25 24  1  0  0  0  0
 26 28  1  0  0  0  0
 27 25  2  0  0  0  0
 28 31  1  0  0  0  0
 28 22  2  0  0  0  0
 29 25  1  0  0  0  0
 30 31  1  0  0  0  0
 31 23  2  0  0  0  0
 32 30  1  0  0  0  0
 33 21  1  0  0  0  0
 34 33  2  0  0  0  0
M  END
>  <MODEL>
8

>  <REMARK>
 VINA RESULT:     -11.5      3.499      5.063
  Name = 
  3 active torsions:
  status: ('A' for Active; 'I' for Inactive)
    1  A    between atoms: C_3  and  C_25
    2  A    between atoms: C_8  and  O_18
    3  A    between atoms: O_18  and  C_30
                            x       y       z     vdW  Elec       q    Type
                         _______ _______ _______ _____ _____    ______ ____

>  <TORSDO>
F 3

$$$$
=
 OpenBabel11052415393D

 34 40  0  0  0  0  0  0  0  0999 V2000
  188.3420  177.6560  144.3460 C   0  0  0  0  0  0  0  0  0  0  0  0
  191.5500  176.9560  142.4700 C   0  0  0  0  0  3  0  0  0  0  0  0
  191.0690  177.0260  144.7700 C   0  0  0  0  0  3  0  0  0  0  0  0
  186.1710  178.1460  145.6560 C   0  0  0  0  0  0  0  0  0  0  0  0
  186.8560  177.9910  144.2880 C   0  0  0  0  0  3  0  0  0  0  0  0
  188.2690  177.6310  146.7670 C   0  0  0  0  0  0  0  0  0  0  0  0
  189.2240  177.3960  147.7500 C   0  0  0  0  0  2  0  0  0  0  0  0
  186.8460  177.9630  146.8180 C   0  0  0  0  0  3  0  0  0  0  0  0
  190.1870  177.2080  145.8270 C   0  0  0  0  0  0  0  0  0  0  0  0
  188.9000  177.5050  145.5900 C   0  0  0  0  0  0  0  0  0  0  0  0
  190.4250  177.1320  147.1540 N   0  0  0  0  0  0  0  0  0  0  0  0
  191.4770  177.0080  141.0870 C   0  0  0  0  0  3  0  0  0  0  0  0
  190.4000  177.2960  140.2600 C   0  0  0  0  0  0  0  0  0  0  0  0
  189.1030  177.5500  140.6870 C   0  0  0  0  0  3  0  0  0  0  0  0
  190.5810  177.1630  143.4460 C   0  0  0  0  0  0  0  0  0  0  0  0
  188.5880  177.6340  141.9710 C   0  0  0  0  0  3  0  0  0  0  0  0
  189.1920  177.4820  143.2190 C   0  0  0  0  0  0  0  0  0  0  0  0
  190.6340  177.2260  138.7770 C   0  0  0  0  0  3  0  0  0  0  0  0
  190.7930  175.7830  138.3220 C   0  0  0  0  0  2  0  0  0  0  0  0
  192.0130  176.6600  138.4720 C   0  0  0  0  0  2  0  0  0  0  0  0
  184.8000  178.4540  145.6410 O   0  0  0  0  0  0  0  0  0  0  0  0
  183.7700  178.6660  142.0950 C   0  0  0  0  0  3  0  0  0  0  0  0
  182.5770  178.7750  144.6220 C   0  0  0  0  0  3  0  0  0  0  0  0
  180.4350  179.9320  141.2160 N   0  0  0  0  0  0  0  0  0  0  0  0
  179.9120  180.6790  140.1070 C   0  0  0  0  0  0  0  0  0  0  0  0
  181.5350  178.9830  140.9910 C   0  0  0  0  0  2  0  0  0  0  0  0
  178.9310  181.4550  140.2700 O   0  0  0  0  0  0  0  0  0  0  0  0
  182.3930  178.8650  142.2100 C   0  0  0  0  0  0  0  0  0  0  0  0
  180.5070  180.5570  138.7440 C   0  0  0  0  0  1  0  0  0  0  0  0
  180.3150  179.0850  143.5740 C   0  0  0  0  0  2  0  0  0  0  0  0
  181.7960  178.9200  143.4730 C   0  0  0  0  0  0  0  0  0  0  0  0
  179.8120  180.0980  142.5400 C   0  0  0  0  0  2  0  0  0  0  0  0
  183.9650  178.5780  144.5180 C   0  0  0  0  0  0  0  0  0  0  0  0
  184.5520  178.5280  143.2470 C   0  0  0  0  0  3  0  0  0  0  0  0
  1 10  1  0  0  0  0
  2 15  1  0  0  0  0
  3  9  1  0  0  0  0
  4  8  2  0  0  0  0
  5  1  2  0  0  0  0
  5  4  1  0  0  0  0
  6  8  1  0  0  0  0
  6  7  1  0  0  0  0
  9 11  2  0  0  0  0
 10  9  1  0  0  0  0
 10  6  2  0  0  0  0
 11  7  1  0  0  0  0
 12  2  2  0  0  0  0
 13 14  2  0  0  0  0
 13 12  1  0  0  0  0
 14 16  1  0  0  0  0
 15  3  2  0  0  0  0
 16 17  2  0  0  0  0
 17 15  1  0  0  0  0
 17  1  1  0  0  0  0
 18 13  1  0  0  0  0
 19 20  1  0  0  0  0
 19 18  1  0  0  0  0
 20 18  1  0  0  0  0
 21  4  1  0  0  0  0
 22 28  2  0  0  0  0
 22 34  1  0  0  0  0
 24 32  1  0  0  0  0
 25 27  2  0  0  0  0
 25 24  1  0  0  0  0
 26 24  1  0  0  0  0
 26 28  1  0  0  0  0
 28 31  1  0  0  0  0
 29 25  1  0  0  0  0
 31 30  1  0  0  0  0
 31 23  2  0  0  0  0
 32 30  1  0  0  0  0
 33 23  1  0  0  0  0
 33 21  1  0  0  0  0
 34 33  2  0  0  0  0
M  END
>  <MODEL>
9

>  <REMARK>
 VINA RESULT:     -11.5      3.415      7.709
  Name = 
  3 active torsions:
  status: ('A' for Active; 'I' for Inactive)
    1  A    between atoms: C_3  and  C_25
    2  A    between atoms: C_8  and  O_18
    3  A    between atoms: O_18  and  C_30
                            x       y       z     vdW  Elec       q    Type
                         _______ _______ _______ _____ _____    ______ ____

>  <TORSDO>
F 3

$$$$
