=
 OpenBabel11052416293D

 43 49  0  0  1  0  0  0  0  0999 V2000
  190.7890  176.7530  139.5940 C   0  0  0  0  0  2  0  0  0  0  0  0
  185.2560  178.3700  144.3810 C   0  0  0  0  0  0  0  0  0  0  0  0
  189.0180  177.3380  141.2200 C   0  0  0  0  0  0  0  0  0  0  0  0
  187.2970  177.5220  143.3890 C   0  0  0  0  0  0  0  0  0  0  0  0
  184.9430  179.0330  143.1880 C   0  0  0  0  0  3  0  0  0  0  0  0
  184.4190  178.4590  145.4420 F   0  0  0  0  0  0  0  0  0  0  0  0
  186.9760  178.1960  142.1810 C   0  0  0  0  0  0  0  0  0  0  0  0
  186.4300  177.6160  144.4800 C   0  0  0  0  0  3  0  0  0  0  0  0
  185.8010  178.9480  142.0870 C   0  0  0  0  0  3  0  0  0  0  0  0
  187.7390  178.6570  139.8150 N   0  0  0  0  0  0  0  0  0  0  0  0
  187.8650  178.0810  141.1110 C   0  0  0  0  0  0  0  0  0  0  0  0
  189.3560  176.6590  142.3910 C   0  0  0  0  0  3  0  0  0  0  0  0
  189.6860  177.4250  139.9320 C   0  0  0  0  0  0  0  0  0  0  0  0
  188.8900  178.2850  139.1000 N   0  0  0  0  0  0  0  0  0  0  0  0
  188.4790  176.7600  143.4860 C   0  0  0  0  0  3  0  0  0  0  0  0
  188.1440  177.6720  136.8010 C   0  0  1  0  0  3  0  0  0  0  0  0
  187.8220  179.0010  137.1330 O   0  0  0  0  0  0  0  0  0  0  0  0
  189.0360  178.5210  137.6620 C   0  0  1  0  0  3  0  0  0  0  0  0
  185.5780  176.7600  134.7830 O   0  0  0  0  0  1  0  0  0  0  0  0
  185.5570  176.0090  135.9620 C   0  0  2  0  0  0  0  0  0  0  0  0
  187.2040  176.7060  137.5500 C   0  0  1  0  0  3  0  0  0  0  0  0
  188.8210  174.8450  136.8480 C   0  0  0  0  0  1  0  0  0  0  0  0
  185.7640  176.9170  137.1650 C   0  0  1  0  0  3  0  0  0  0  0  0
  186.6040  175.0610  135.9270 O   0  0  0  0  0  0  0  0  0  0  0  0
  185.4370  178.2420  136.9130 F   0  0  0  0  0  0  0  0  0  0  0  0
  187.3780  175.2690  137.0810 C   0  0  2  0  0  3  0  0  0  0  0  0
  184.2990  175.3480  136.0940 O   0  0  0  0  0  0  0  0  0  0  0  0
  183.7530  174.9310  137.3140 C   0  0  0  0  0  0  0  0  0  0  0  0
  184.3160  174.0020  137.9500 O   0  0  0  0  0  0  0  0  0  0  0  0
  182.5180  175.5670  137.8780 C   0  0  2  0  0  3  0  0  0  0  0  0
  180.2660  175.2530  138.5340 C   0  0  0  0  0  2  0  0  0  0  0  0
  181.4720  176.6390  139.8400 C   0  0  0  0  0  2  0  0  0  0  0  0
  180.5430  175.5840  139.8740 O   0  0  0  0  0  0  0  0  0  0  0  0
  182.7970  176.1530  139.2600 C   0  0  0  0  0  2  0  0  0  0  0  0
  181.4280  174.5940  137.9370 N   0  0  0  0  0  2  0  0  0  0  0  0
  191.3640  176.8260  138.2920 N   0  0  0  0  0  2  0  0  0  0  0  0
  194.5190  174.7360  137.9520 C   0  0  0  0  0  2  0  0  0  0  0  0
  192.6210  174.4540  135.7060 C   0  0  0  0  0  2  0  0  0  0  0  0
  194.1290  174.3350  135.4640 C   0  0  0  0  0  2  0  0  0  0  0  0
  193.6120  175.8890  138.3620 C   0  0  0  0  0  2  0  0  0  0  0  0
  192.2030  175.7550  137.7840 C   0  0  0  0  0  3  0  0  0  0  0  0
  195.0250  174.9660  136.5360 C   0  0  0  0  0  2  0  0  0  0  0  0
  192.2090  175.8090  136.2620 C   0  0  0  0  0  2  0  0  0  0  0  0
  1 13  1  0  0  0  0
  2  8  1  0  0  0  0
  2  6  1  0  0  0  0
  3 12  1  0  0  0  0
  4 15  1  0  0  0  0
  4  8  2  0  0  0  0
  5  2  2  0  0  0  0
  7  4  1  0  0  0  0
  9  7  2  0  0  0  0
  9  5  1  0  0  0  0
 10 11  2  0  0  0  0
 11  3  1  0  0  0  0
 11  7  1  0  0  0  0
 12 15  2  0  0  0  0
 13  3  2  0  0  0  0
 14 10  1  0  0  0  0
 14 13  1  0  0  0  0
 16 17  1  1  0  0  0
 16 18  1  0  0  0  0
 17 18  1  0  0  0  0
 18 14  1  1  0  0  0
 20 19  1  6  0  0  0
 20 27  1  0  0  0  0
 20 23  1  0  0  0  0
 21 16  1  6  0  0  0
 23 25  1  6  0  0  0
 23 21  1  0  0  0  0
 24 20  1  0  0  0  0
 24 26  1  0  0  0  0
 26 22  1  6  0  0  0
 26 21  1  0  0  0  0
 27 28  1  0  0  0  0
 28 29  2  0  0  0  0
 30 28  1  1  0  0  0
 30 35  1  0  0  0  0
 30 34  1  0  0  0  0
 31 33  1  0  0  0  0
 32 33  1  0  0  0  0
 34 32  1  0  0  0  0
 35 31  1  0  0  0  0
 36  1  1  0  0  0  0
 37 40  1  0  0  0  0
 38 43  1  0  0  0  0
 39 38  1  0  0  0  0
 39 42  1  0  0  0  0
 41 36  1  0  0  0  0
 41 40  1  0  0  0  0
 42 37  1  0  0  0  0
 43 41  1  0  0  0  0
M  END
>  <MODEL>
1

>  <REMARK>
 VINA RESULT:      -9.1      0.000      0.000
  Name = 
  7 active torsions:
  status: ('A' for Active; 'I' for Inactive)
    1  A    between atoms: C_1  and  N_28
    2  A    between atoms: C_2  and  C_6
    3  A    between atoms: C_4  and  O_22
    4  A    between atoms: C_11  and  C_14
    5  A    between atoms: C_13  and  N_38
    6  A    between atoms: C_14  and  O_22
    7  A    between atoms: N_28  and  C_35
                            x       y       z     vdW  Elec       q    Type
                         _______ _______ _______ _____ _____    ______ ____

>  <TORSDO>
F 7

$$$$
=
 OpenBabel11052416293D

 43 49  0  0  1  0  0  0  0  0999 V2000
  191.1960  176.6600  139.3220 C   0  0  0  0  0  3  0  0  0  0  0  0
  185.9470  177.9920  144.5010 C   0  0  0  0  0  0  0  0  0  0  0  0
  189.5200  177.1520  141.0760 C   0  0  0  0  0  0  0  0  0  0  0  0
  187.9410  177.2290  143.3560 C   0  0  0  0  0  0  0  0  0  0  0  0
  185.5390  178.6770  143.3500 C   0  0  0  0  0  3  0  0  0  0  0  0
  185.1790  178.0290  145.6160 F   0  0  0  0  0  0  0  0  0  0  0  0
  187.5240  177.9250  142.1900 C   0  0  0  0  0  0  0  0  0  0  0  0
  187.1450  177.2700  144.5030 C   0  0  0  0  0  3  0  0  0  0  0  0
  186.3250  178.6450  142.1940 C   0  0  0  0  0  3  0  0  0  0  0  0
  188.1170  178.4690  139.7930 N   0  0  0  0  0  0  0  0  0  0  0  0
  188.3430  177.8640  141.0630 C   0  0  0  0  0  0  0  0  0  0  0  0
  189.9530  176.4530  142.2020 C   0  0  0  0  0  3  0  0  0  0  0  0
  190.0990  177.2910  139.7500 C   0  0  0  0  0  0  0  0  0  0  0  0
  189.2280  178.1490  138.9950 N   0  0  0  0  0  0  0  0  0  0  0  0
  189.1470  176.5000  143.3540 C   0  0  0  0  0  3  0  0  0  0  0  0
  188.3530  177.5720  136.7330 C   0  0  1  0  0  3  0  0  0  0  0  0
  188.0130  178.8800  137.1220 O   0  0  0  0  0  0  0  0  0  0  0  0
  189.2730  178.4260  137.5580 C   0  0  1  0  0  3  0  0  0  0  0  0
  185.7910  176.4940  134.7940 O   0  0  0  0  0  1  0  0  0  0  0  0
  185.8490  175.7510  135.9770 C   0  0  2  0  0  0  0  0  0  0  0  0
  187.4950  176.5560  137.5130 C   0  0  1  0  0  3  0  0  0  0  0  0
  189.2000  174.7900  136.7750 C   0  0  0  0  0  1  0  0  0  0  0  0
  186.0340  176.6780  137.1690 C   0  0  1  0  0  3  0  0  0  0  0  0
  186.9490  174.8670  135.9170 O   0  0  0  0  0  0  0  0  0  0  0  0
  185.6220  177.9790  136.9190 F   0  0  0  0  0  0  0  0  0  0  0  0
  187.7420  175.1290  137.0480 C   0  0  2  0  0  3  0  0  0  0  0  0
  184.6370  175.0160  136.1490 O   0  0  0  0  0  0  0  0  0  0  0  0
  184.5670  173.7290  136.6950 C   0  0  0  0  0  0  0  0  0  0  0  0
  184.6850  173.5870  137.9400 O   0  0  0  0  0  0  0  0  0  0  0  0
  184.3540  172.5210  135.8320 C   0  0  2  0  0  3  0  0  0  0  0  0
  185.3200  170.5720  134.9010 C   0  0  0  0  0  2  0  0  0  0  0  0
  183.1760  170.3680  135.5660 C   0  0  0  0  0  2  0  0  0  0  0  0
  184.4270  169.7250  135.5830 O   0  0  0  0  0  0  0  0  0  0  0  0
  183.2330  171.6490  136.3940 C   0  0  0  0  0  2  0  0  0  0  0  0
  185.5960  171.7570  135.7120 N   0  0  0  0  0  2  0  0  0  0  0  0
  191.6830  176.7840  137.9880 N   0  0  0  0  0  0  0  0  0  0  0  0
  194.5670  175.9320  135.6660 C   0  0  0  0  0  2  0  0  0  0  0  0
  194.1410  173.9870  137.8470 C   0  0  0  0  0  2  0  0  0  0  0  0
  194.6740  173.5210  136.4880 C   0  0  0  0  0  2  0  0  0  0  0  0
  193.2310  176.4980  136.1290 C   0  0  0  0  0  2  0  0  0  0  0  0
  192.9150  176.1330  137.5790 C   0  0  0  0  0  3  0  0  0  0  0  0
  194.3990  174.4620  135.3100 C   0  0  0  0  0  2  0  0  0  0  0  0
  192.7650  174.6280  137.7620 C   0  0  0  0  0  2  0  0  0  0  0  0
  1 13  1  0  0  0  0
  2  8  1  0  0  0  0
  2  6  1  0  0  0  0
  3 12  1  0  0  0  0
  4  8  2  0  0  0  0
  5  2  2  0  0  0  0
  7  9  2  0  0  0  0
  7  4  1  0  0  0  0
  9  5  1  0  0  0  0
 10 11  2  0  0  0  0
 11  3  1  0  0  0  0
 11  7  1  0  0  0  0
 12 15  2  0  0  0  0
 13  3  2  0  0  0  0
 14 13  1  0  0  0  0
 14 10  1  0  0  0  0
 15  4  1  0  0  0  0
 16 17  1  1  0  0  0
 16 18  1  0  0  0  0
 17 18  1  0  0  0  0
 18 14  1  1  0  0  0
 20 19  1  6  0  0  0
 20 27  1  0  0  0  0
 20 23  1  0  0  0  0
 21 16  1  6  0  0  0
 23 25  1  6  0  0  0
 23 21  1  0  0  0  0
 24 20  1  0  0  0  0
 24 26  1  0  0  0  0
 26 22  1  6  0  0  0
 26 21  1  0  0  0  0
 27 28  1  0  0  0  0
 28 29  2  0  0  0  0
 30 34  1  0  0  0  0
 30 28  1  1  0  0  0
 31 33  1  0  0  0  0
 31 35  1  0  0  0  0
 32 33  1  0  0  0  0
 32 34  1  0  0  0  0
 35 30  1  0  0  0  0
 36  1  2  0  0  0  0
 37 40  1  0  0  0  0
 39 38  1  0  0  0  0
 40 41  1  0  0  0  0
 41 43  1  0  0  0  0
 41 36  1  0  0  0  0
 42 37  1  0  0  0  0
 42 39  1  0  0  0  0
 43 38  1  0  0  0  0
M  END
>  <MODEL>
2

>  <REMARK>
 VINA RESULT:      -8.7      1.876      2.657
  Name = 
  7 active torsions:
  status: ('A' for Active; 'I' for Inactive)
    1  A    between atoms: C_1  and  N_28
    2  A    between atoms: C_2  and  C_6
    3  A    between atoms: C_4  and  O_22
    4  A    between atoms: C_11  and  C_14
    5  A    between atoms: C_13  and  N_38
    6  A    between atoms: C_14  and  O_22
    7  A    between atoms: N_28  and  C_35
                            x       y       z     vdW  Elec       q    Type
                         _______ _______ _______ _____ _____    ______ ____

>  <TORSDO>
F 7

$$$$
=
 OpenBabel11052416293D

 43 49  0  0  1  0  0  0  0  0999 V2000
  185.9520  178.5720  141.6630 C   0  0  0  0  0  2  0  0  0  0  0  0
  190.9540  176.6680  146.9080 C   0  0  0  0  0  0  0  0  0  0  0  0
  187.5750  177.8590  143.3900 C   0  0  0  0  0  0  0  0  0  0  0  0
  188.8940  177.1390  145.7230 C   0  0  0  0  0  0  0  0  0  0  0  0
  191.6900  176.9240  145.7450 C   0  0  0  0  0  3  0  0  0  0  0  0
  191.5940  176.3150  148.0480 F   0  0  0  0  0  0  0  0  0  0  0  0
  189.6440  177.3990  144.5460 C   0  0  0  0  0  0  0  0  0  0  0  0
  189.5590  176.7750  146.8960 C   0  0  0  0  0  3  0  0  0  0  0  0
  191.0380  177.2900  144.5630 C   0  0  0  0  0  3  0  0  0  0  0  0
  189.4920  178.0720  142.1130 N   0  0  0  0  0  0  0  0  0  0  0  0
  188.9470  177.7580  143.3910 C   0  0  0  0  0  0  0  0  0  0  0  0
  186.8120  177.6180  144.5320 C   0  0  0  0  0  3  0  0  0  0  0  0
  187.1940  178.2630  142.0470 C   0  0  0  0  0  0  0  0  0  0  0  0
  188.4000  178.3430  141.2710 N   0  0  0  0  0  0  0  0  0  0  0  0
  187.4890  177.2510  145.7100 C   0  0  0  0  0  3  0  0  0  0  0  0
  189.2860  177.9960  138.9660 C   0  0  1  0  0  3  0  0  0  0  0  0
  187.8830  178.0870  138.9930 O   0  0  0  0  0  0  0  0  0  0  0  0
  188.5610  178.8970  139.9250 C   0  0  1  0  0  3  0  0  0  0  0  0
  190.6270  176.1090  136.4900 O   0  0  0  0  0  1  0  0  0  0  0  0
  190.8130  175.4870  137.7280 C   0  0  2  0  0  0  0  0  0  0  0  0
  189.7310  176.6310  139.5280 C   0  0  1  0  0  3  0  0  0  0  0  0
  191.9000  177.8040  140.2260 C   0  0  0  0  0  1  0  0  0  0  0  0
  189.5210  175.5220  138.5310 C   0  0  1  0  0  3  0  0  0  0  0  0
  191.8120  176.1770  138.4490 O   0  0  0  0  0  0  0  0  0  0  0  0
  188.3900  175.6810  137.7420 F   0  0  0  0  0  0  0  0  0  0  0  0
  191.2420  176.5450  139.6810 C   0  0  2  0  0  3  0  0  0  0  0  0
  191.1980  174.1260  137.5350 O   0  0  0  0  0  0  0  0  0  0  0  0
  191.9090  173.6590  136.4220 C   0  0  0  0  0  0  0  0  0  0  0  0
  191.2820  173.0860  135.4930 O   0  0  0  0  0  0  0  0  0  0  0  0
  193.3950  173.8290  136.3140 C   0  0  2  0  0  3  0  0  0  0  0  0
  195.1710  175.2520  135.6680 C   0  0  0  0  0  2  0  0  0  0  0  0
  195.5330  174.0330  137.5300 C   0  0  0  0  0  2  0  0  0  0  0  0
  195.6800  175.3190  136.9780 O   0  0  0  0  0  0  0  0  0  0  0  0
  194.0540  173.6950  137.6850 C   0  0  0  0  0  2  0  0  0  0  0  0
  193.7150  175.1210  135.7080 N   0  0  0  0  0  2  0  0  0  0  0  0
  185.6470  179.0250  140.3470 N   0  0  0  0  0  2  0  0  0  0  0  0
  182.4670  179.4030  138.3020 C   0  0  0  0  0  2  0  0  0  0  0  0
  182.6220  176.9010  139.8640 C   0  0  0  0  0  2  0  0  0  0  0  0
  181.2670  177.5690  139.6050 C   0  0  0  0  0  2  0  0  0  0  0  0
  183.6900  179.7980  139.1190 C   0  0  0  0  0  2  0  0  0  0  0  0
  184.4410  178.5850  139.6670 C   0  0  0  0  0  3  0  0  0  0  0  0
  181.3200  179.0560  139.2410 C   0  0  0  0  0  2  0  0  0  0  0  0
  183.5860  177.7850  140.6410 C   0  0  0  0  0  2  0  0  0  0  0  0
  1 13  1  0  0  0  0
  2  6  1  0  0  0  0
  3 11  1  0  0  0  0
  3 12  1  0  0  0  0
  4  8  2  0  0  0  0
  5  2  2  0  0  0  0
  7  9  2  0  0  0  0
  7  4  1  0  0  0  0
  8  2  1  0  0  0  0
  9  5  1  0  0  0  0
 10 11  2  0  0  0  0
 11  7  1  0  0  0  0
 12 15  2  0  0  0  0
 13  3  2  0  0  0  0
 14 13  1  0  0  0  0
 14 10  1  0  0  0  0
 15  4  1  0  0  0  0
 16 17  1  6  0  0  0
 16 18  1  0  0  0  0
 17 18  1  0  0  0  0
 18 14  1  1  0  0  0
 20 19  1  6  0  0  0
 20 24  1  0  0  0  0
 20 23  1  0  0  0  0
 21 16  1  6  0  0  0
 21 26  1  0  0  0  0
 23 25  1  6  0  0  0
 23 21  1  0  0  0  0
 24 26  1  0  0  0  0
 26 22  1  6  0  0  0
 27 20  1  0  0  0  0
 28 27  1  0  0  0  0
 29 28  2  0  0  0  0
 30 28  1  1  0  0  0
 30 34  1  0  0  0  0
 31 35  1  0  0  0  0
 31 33  1  0  0  0  0
 32 34  1  0  0  0  0
 33 32  1  0  0  0  0
 35 30  1  0  0  0  0
 36  1  1  0  0  0  0
 37 40  1  0  0  0  0
 37 42  1  0  0  0  0
 38 43  1  0  0  0  0
 39 38  1  0  0  0  0
 40 41  1  0  0  0  0
 41 36  1  0  0  0  0
 41 43  1  0  0  0  0
 42 39  1  0  0  0  0
M  END
>  <MODEL>
3

>  <REMARK>
 VINA RESULT:      -8.5      3.167      8.098
  Name = 
  7 active torsions:
  status: ('A' for Active; 'I' for Inactive)
    1  A    between atoms: C_1  and  N_28
    2  A    between atoms: C_2  and  C_6
    3  A    between atoms: C_4  and  O_22
    4  A    between atoms: C_11  and  C_14
    5  A    between atoms: C_13  and  N_38
    6  A    between atoms: C_14  and  O_22
    7  A    between atoms: N_28  and  C_35
                            x       y       z     vdW  Elec       q    Type
                         _______ _______ _______ _____ _____    ______ ____

>  <TORSDO>
F 7

$$$$
=
 OpenBabel11052416293D

 43 49  0  0  1  0  0  0  0  0999 V2000
  188.0760  178.2530  138.2190 C   0  0  0  0  0  2  0  0  0  0  0  0
  183.6710  178.8700  144.2490 C   0  0  0  0  0  0  0  0  0  0  0  0
  186.5810  178.3820  140.1870 C   0  0  0  0  0  0  0  0  0  0  0  0
  184.4990  178.7960  141.9730 C   0  0  0  0  0  0  0  0  0  0  0  0
  184.9420  178.5300  144.7300 C   0  0  0  0  0  3  0  0  0  0  0  0
  182.6530  179.0710  145.1180 F   0  0  0  0  0  0  0  0  0  0  0  0
  185.7860  178.4510  142.4650 C   0  0  0  0  0  0  0  0  0  0  0  0
  183.4510  179.0030  142.8740 C   0  0  0  0  0  3  0  0  0  0  0  0
  186.0000  178.3200  143.8400 C   0  0  0  0  0  3  0  0  0  0  0  0
  188.1660  177.9140  141.8040 N   0  0  0  0  0  0  0  0  0  0  0  0
  186.8090  178.2500  141.5370 C   0  0  0  0  0  0  0  0  0  0  0  0
  185.3300  178.7260  139.6750 C   0  0  0  0  0  3  0  0  0  0  0  0
  187.8510  178.1220  139.5290 C   0  0  0  0  0  0  0  0  0  0  0  0
  188.8000  177.7920  140.5560 N   0  0  0  0  0  0  0  0  0  0  0  0
  184.2800  178.9310  140.5870 C   0  0  0  0  0  3  0  0  0  0  0  0
  190.9850  177.5030  141.7210 C   0  0  1  0  0  3  0  0  0  0  0  0
  190.6530  176.3950  140.9210 O   0  0  0  0  0  0  0  0  0  0  0  0
  190.2510  177.6470  140.4180 C   0  0  1  0  0  3  0  0  0  0  0  0
  192.4310  175.5980  144.1230 O   0  0  0  0  0  1  0  0  0  0  0  0
  191.3320  176.2860  144.6460 C   0  0  2  0  0  0  0  0  0  0  0  0
  190.1120  177.5090  142.9920 C   0  0  1  0  0  3  0  0  0  0  0  0
  191.2880  179.7050  143.5960 C   0  0  0  0  0  1  0  0  0  0  0  0
  190.1470  176.1790  143.6980 C   0  0  1  0  0  3  0  0  0  0  0  0
  191.6680  177.6490  144.7980 O   0  0  0  0  0  0  0  0  0  0  0  0
  190.2270  175.0890  142.8430 F   0  0  0  0  0  0  0  0  0  0  0  0
  190.7060  178.3860  144.0840 C   0  0  2  0  0  3  0  0  0  0  0  0
  190.9650  175.7270  145.9080 O   0  0  0  0  0  0  0  0  0  0  0  0
  190.8170  176.4700  147.0850 C   0  0  0  0  0  0  0  0  0  0  0  0
  191.8480  176.8750  147.6850 O   0  0  0  0  0  0  0  0  0  0  0  0
  189.4650  176.7940  147.6440 C   0  0  2  0  0  3  0  0  0  0  0  0
  188.1960  178.2540  149.0070 C   0  0  0  0  0  2  0  0  0  0  0  0
  187.1560  177.5150  147.1480 C   0  0  0  0  0  2  0  0  0  0  0  0
  187.3870  178.6610  147.9300 O   0  0  0  0  0  0  0  0  0  0  0  0
  188.4610  177.0380  146.5180 C   0  0  0  0  0  2  0  0  0  0  0  0
  189.5450  177.9570  148.5280 N   0  0  0  0  0  2  0  0  0  0  0  0
  189.3610  178.0480  137.6370 N   0  0  0  0  0  2  0  0  0  0  0  0
  188.7850  174.5400  136.2940 C   0  0  0  0  0  2  0  0  0  0  0  0
  191.5570  175.5170  136.0040 C   0  0  0  0  0  2  0  0  0  0  0  0
  191.2810  174.0270  136.2260 C   0  0  0  0  0  2  0  0  0  0  0  0
  188.6110  175.7780  137.1640 C   0  0  0  0  0  2  0  0  0  0  0  0
  189.6420  176.8610  136.8480 C   0  0  0  0  0  3  0  0  0  0  0  0
  189.9200  173.6890  136.8430 C   0  0  0  0  0  2  0  0  0  0  0  0
  191.0620  176.3940  137.1440 C   0  0  0  0  0  2  0  0  0  0  0  0
  1 13  1  0  0  0  0
  2  5  1  0  0  0  0
  2  6  1  0  0  0  0
  3 11  1  0  0  0  0
  4  7  2  0  0  0  0
  4  8  1  0  0  0  0
  7  9  1  0  0  0  0
  8  2  2  0  0  0  0
  9  5  2  0  0  0  0
 11 10  2  0  0  0  0
 11  7  1  0  0  0  0
 12  3  1  0  0  0  0
 12 15  2  0  0  0  0
 13  3  2  0  0  0  0
 13 14  1  0  0  0  0
 14 10  1  0  0  0  0
 15  4  1  0  0  0  0
 16 17  1  6  0  0  0
 18 14  1  1  0  0  0
 18 17  1  0  0  0  0
 18 16  1  0  0  0  0
 20 19  1  6  0  0  0
 20 24  1  0  0  0  0
 20 27  1  0  0  0  0
 21 16  1  6  0  0  0
 21 23  1  0  0  0  0
 21 26  1  0  0  0  0
 23 25  1  6  0  0  0
 23 20  1  0  0  0  0
 26 22  1  6  0  0  0
 26 24  1  0  0  0  0
 27 28  1  0  0  0  0
 28 29  2  0  0  0  0
 30 28  1  6  0  0  0
 30 35  1  0  0  0  0
 32 33  1  0  0  0  0
 33 31  1  0  0  0  0
 34 32  1  0  0  0  0
 34 30  1  0  0  0  0
 35 31  1  0  0  0  0
 36  1  1  0  0  0  0
 37 42  1  0  0  0  0
 37 40  1  0  0  0  0
 38 39  1  0  0  0  0
 38 43  1  0  0  0  0
 39 42  1  0  0  0  0
 41 43  1  0  0  0  0
 41 40  1  0  0  0  0
 41 36  1  0  0  0  0
M  END
>  <MODEL>
4

>  <REMARK>
 VINA RESULT:      -8.4      4.398      7.228
  Name = 
  7 active torsions:
  status: ('A' for Active; 'I' for Inactive)
    1  A    between atoms: C_1  and  N_28
    2  A    between atoms: C_2  and  C_6
    3  A    between atoms: C_4  and  O_22
    4  A    between atoms: C_11  and  C_14
    5  A    between atoms: C_13  and  N_38
    6  A    between atoms: C_14  and  O_22
    7  A    between atoms: N_28  and  C_35
                            x       y       z     vdW  Elec       q    Type
                         _______ _______ _______ _____ _____    ______ ____

>  <TORSDO>
F 7

$$$$
=
 OpenBabel11052416293D

 43 49  0  0  1  0  0  0  0  0999 V2000
  186.2120  176.8670  137.2150 C   0  0  0  0  0  2  0  0  0  0  0  0
  179.9070  172.8410  137.6540 C   0  0  0  0  0  0  0  0  0  0  0  0
  184.1700  175.4830  137.4160 C   0  0  0  0  0  0  0  0  0  0  0  0
  182.1710  173.5710  137.1940 C   0  0  0  0  0  0  0  0  0  0  0  0
  179.6520  174.0370  138.3350 C   0  0  0  0  0  3  0  0  0  0  0  0
  178.9340  171.9060  137.5450 F   0  0  0  0  0  0  0  0  0  0  0  0
  181.9080  174.7830  137.8860 C   0  0  0  0  0  0  0  0  0  0  0  0
  181.1640  172.6100  137.0850 C   0  0  0  0  0  3  0  0  0  0  0  0
  180.6500  175.0090  138.4530 C   0  0  0  0  0  3  0  0  0  0  0  0
  182.8930  176.9970  138.6090 N   0  0  0  0  0  0  0  0  0  0  0  0
  182.9370  175.7210  137.9780 C   0  0  0  0  0  0  0  0  0  0  0  0
  184.4560  174.3060  136.7250 C   0  0  0  0  0  3  0  0  0  0  0  0
  184.9790  176.6600  137.6860 C   0  0  0  0  0  0  0  0  0  0  0  0
  184.1720  177.5590  138.4640 N   0  0  0  0  0  0  0  0  0  0  0  0
  183.4380  173.3410  136.6200 C   0  0  0  0  0  3  0  0  0  0  0  0
  184.3590  179.2610  140.2770 C   0  0  1  0  0  3  0  0  0  0  0  0
  185.5940  179.0020  139.6540 O   0  0  0  0  0  0  0  0  0  0  0  0
  184.4670  178.9510  138.8110 C   0  0  1  0  0  3  0  0  0  0  0  0
  185.0470  180.0270  143.5060 O   0  0  0  0  0  1  0  0  0  0  0  0
  184.3440  178.8210  143.4330 C   0  0  2  0  0  0  0  0  0  0  0  0
  183.9790  178.0780  141.1900 C   0  0  1  0  0  3  0  0  0  0  0  0
  181.5970  179.0230  141.1530 C   0  0  0  0  0  1  0  0  0  0  0  0
  184.9330  177.9350  142.3450 C   0  0  1  0  0  3  0  0  0  0  0  0
  182.9940  179.0880  143.1160 O   0  0  0  0  0  0  0  0  0  0  0  0
  186.2470  178.2540  142.0330 F   0  0  0  0  0  0  0  0  0  0  0  0
  182.6950  178.3460  141.9600 C   0  0  2  0  0  3  0  0  0  0  0  0
  184.4280  178.1340  144.6820 O   0  0  0  0  0  0  0  0  0  0  0  0
  185.3460  178.4470  145.6920 C   0  0  0  0  0  0  0  0  0  0  0  0
  185.1100  179.4240  146.4500 O   0  0  0  0  0  0  0  0  0  0  0  0
  186.5970  177.6450  145.8910 C   0  0  2  0  0  3  0  0  0  0  0  0
  188.7720  177.1610  145.0940 C   0  0  0  0  0  2  0  0  0  0  0  0
  188.5490  177.2090  147.3370 C   0  0  0  0  0  2  0  0  0  0  0  0
  189.3780  177.6210  146.2780 O   0  0  0  0  0  0  0  0  0  0  0  0
  187.2060  177.9280  147.2630 C   0  0  0  0  0  2  0  0  0  0  0  0
  187.5580  177.9330  144.8270 N   0  0  0  0  0  2  0  0  0  0  0  0
  186.9340  178.0710  137.4590 N   0  0  0  0  0  2  0  0  0  0  0  0
  190.6150  177.1340  137.3470 C   0  0  0  0  0  2  0  0  0  0  0  0
  189.6530  177.9830  140.0070 C   0  0  0  0  0  2  0  0  0  0  0  0
  190.7650  176.9360  139.8850 C   0  0  0  0  0  2  0  0  0  0  0  0
  189.1340  177.1340  136.9900 C   0  0  0  0  0  2  0  0  0  0  0  0
  188.3140  178.0360  137.9120 C   0  0  0  0  0  3  0  0  0  0  0  0
  190.8500  176.2140  138.5360 C   0  0  0  0  0  2  0  0  0  0  0  0
  188.3480  177.5490  139.3560 C   0  0  0  0  0  2  0  0  0  0  0  0
  1 36  1  0  0  0  0
  1 13  1  0  0  0  0
  2  5  1  0  0  0  0
  3 13  2  0  0  0  0
  3 11  1  0  0  0  0
  4  7  2  0  0  0  0
  5  9  2  0  0  0  0
  6  2  1  0  0  0  0
  7 11  1  0  0  0  0
  7  9  1  0  0  0  0
  8  4  1  0  0  0  0
  8  2  2  0  0  0  0
 11 10  2  0  0  0  0
 12  3  1  0  0  0  0
 13 14  1  0  0  0  0
 14 10  1  0  0  0  0
 15 12  2  0  0  0  0
 15  4  1  0  0  0  0
 16 17  1  1  0  0  0
 18 14  1  1  0  0  0
 18 17  1  0  0  0  0
 18 16  1  0  0  0  0
 20 19  1  1  0  0  0
 20 27  1  0  0  0  0
 21 16  1  6  0  0  0
 21 26  1  0  0  0  0
 21 23  1  0  0  0  0
 23 25  1  6  0  0  0
 23 20  1  0  0  0  0
 24 20  1  0  0  0  0
 26 22  1  6  0  0  0
 26 24  1  0  0  0  0
 27 28  1  0  0  0  0
 28 29  2  0  0  0  0
 30 28  1  6  0  0  0
 30 34  1  0  0  0  0
 31 33  1  0  0  0  0
 33 32  1  0  0  0  0
 34 32  1  0  0  0  0
 35 31  1  0  0  0  0
 35 30  1  0  0  0  0
 36 41  1  0  0  0  0
 37 42  1  0  0  0  0
 39 38  1  0  0  0  0
 40 37  1  0  0  0  0
 40 41  1  0  0  0  0
 41 43  1  0  0  0  0
 42 39  1  0  0  0  0
 43 38  1  0  0  0  0
M  END
>  <MODEL>
5

>  <REMARK>
 VINA RESULT:      -8.2      3.607      7.728
  Name = 
  7 active torsions:
  status: ('A' for Active; 'I' for Inactive)
    1  A    between atoms: C_1  and  N_28
    2  A    between atoms: C_2  and  C_6
    3  A    between atoms: C_4  and  O_22
    4  A    between atoms: C_11  and  C_14
    5  A    between atoms: C_13  and  N_38
    6  A    between atoms: C_14  and  O_22
    7  A    between atoms: N_28  and  C_35
                            x       y       z     vdW  Elec       q    Type
                         _______ _______ _______ _____ _____    ______ ____

>  <TORSDO>
F 7

$$$$
=
 OpenBabel11052416293D

 43 49  0  0  1  0  0  0  0  0999 V2000
  183.7390  178.6000  141.3880 C   0  0  0  0  0  2  0  0  0  0  0  0
  190.4770  177.6900  144.5370 C   0  0  0  0  0  0  0  0  0  0  0  0
  185.9450  178.2140  142.4410 C   0  0  0  0  0  0  0  0  0  0  0  0
  188.0890  177.8700  144.1680 C   0  0  0  0  0  0  0  0  0  0  0  0
  190.7090  177.8600  143.1670 C   0  0  0  0  0  3  0  0  0  0  0  0
  191.5210  177.5200  145.3820 F   0  0  0  0  0  0  0  0  0  0  0  0
  188.3290  178.0420  142.7790 C   0  0  0  0  0  0  0  0  0  0  0  0
  189.1700  177.6950  145.0360 C   0  0  0  0  0  3  0  0  0  0  0  0
  189.6380  178.0370  142.2860 C   0  0  0  0  0  3  0  0  0  0  0  0
  187.2330  178.4130  140.5300 N   0  0  0  0  0  0  0  0  0  0  0  0
  187.2270  178.2120  141.9410 C   0  0  0  0  0  0  0  0  0  0  0  0
  185.6790  178.0540  143.8010 C   0  0  0  0  0  3  0  0  0  0  0  0
  185.0610  178.4290  141.3070 C   0  0  0  0  0  0  0  0  0  0  0  0
  185.8880  178.5030  140.1340 N   0  0  0  0  0  0  0  0  0  0  0  0
  186.7720  177.8780  144.6680 C   0  0  0  0  0  3  0  0  0  0  0  0
  186.3450  178.3360  137.6890 C   0  0  1  0  0  3  0  0  0  0  0  0
  185.1070  177.7700  138.0430 O   0  0  0  0  0  0  0  0  0  0  0  0
  185.4890  178.9060  138.7840 C   0  0  1  0  0  3  0  0  0  0  0  0
  187.3760  176.4210  135.0890 O   0  0  0  0  0  1  0  0  0  0  0  0
  188.2340  176.2580  136.1810 C   0  0  2  0  0  0  0  0  0  0  0  0
  187.4900  177.4080  138.1420 C   0  0  1  0  0  3  0  0  0  0  0  0
  189.0550  179.3890  137.7010 C   0  0  0  0  0  1  0  0  0  0  0  0
  187.4270  176.0680  137.4570 C   0  0  1  0  0  3  0  0  0  0  0  0
  189.0340  177.4130  136.3200 O   0  0  0  0  0  0  0  0  0  0  0  0
  186.1360  175.6150  137.2260 F   0  0  0  0  0  0  0  0  0  0  0  0
  188.8420  177.8840  137.6310 C   0  0  2  0  0  3  0  0  0  0  0  0
  189.0590  175.1100  135.9830 O   0  0  0  0  0  0  0  0  0  0  0  0
  190.0750  174.7090  136.8590 C   0  0  0  0  0  0  0  0  0  0  0  0
  189.8860  173.7040  137.5930 O   0  0  0  0  0  0  0  0  0  0  0  0
  191.3770  175.4470  136.9400 C   0  0  2  0  0  3  0  0  0  0  0  0
  192.9330  176.5460  138.3440 C   0  0  0  0  0  2  0  0  0  0  0  0
  193.8280  175.3240  136.6740 C   0  0  0  0  0  2  0  0  0  0  0  0
  193.9540  175.6240  138.0420 O   0  0  0  0  0  0  0  0  0  0  0  0
  192.5210  174.5800  136.4180 C   0  0  0  0  0  2  0  0  0  0  0  0
  191.6350  175.8730  138.3150 N   0  0  0  0  0  2  0  0  0  0  0  0
  182.9300  178.8730  140.2470 N   0  0  0  0  0  2  0  0  0  0  0  0
  179.4600  177.3430  140.4930 C   0  0  0  0  0  2  0  0  0  0  0  0
  181.4090  175.7100  138.9910 C   0  0  0  0  0  2  0  0  0  0  0  0
  180.2970  175.0360  139.8010 C   0  0  0  0  0  2  0  0  0  0  0  0
  180.6860  178.1610  140.8770 C   0  0  0  0  0  2  0  0  0  0  0  0
  181.8330  177.9930  139.8810 C   0  0  0  0  0  3  0  0  0  0  0  0
  179.6690  175.8930  140.9050 C   0  0  0  0  0  2  0  0  0  0  0  0
  182.3420  176.5570  139.8440 C   0  0  0  0  0  2  0  0  0  0  0  0
  2  8  1  0  0  0  0
  2  6  1  0  0  0  0
  3 12  1  0  0  0  0
  4 15  1  0  0  0  0
  4  8  2  0  0  0  0
  5  2  2  0  0  0  0
  7  4  1  0  0  0  0
  9  7  2  0  0  0  0
  9  5  1  0  0  0  0
 10 11  2  0  0  0  0
 11  3  1  0  0  0  0
 11  7  1  0  0  0  0
 12 15  2  0  0  0  0
 13  1  1  0  0  0  0
 13  3  2  0  0  0  0
 14 10  1  0  0  0  0
 14 13  1  0  0  0  0
 16 17  1  6  0  0  0
 16 18  1  0  0  0  0
 17 18  1  0  0  0  0
 18 14  1  1  0  0  0
 20 19  1  6  0  0  0
 20 24  1  0  0  0  0
 20 23  1  0  0  0  0
 21 16  1  6  0  0  0
 23 25  1  6  0  0  0
 23 21  1  0  0  0  0
 24 26  1  0  0  0  0
 26 22  1  6  0  0  0
 26 21  1  0  0  0  0
 27 20  1  0  0  0  0
 27 28  1  0  0  0  0
 28 29  2  0  0  0  0
 30 28  1  1  0  0  0
 30 35  1  0  0  0  0
 32 33  1  0  0  0  0
 33 31  1  0  0  0  0
 34 32  1  0  0  0  0
 34 30  1  0  0  0  0
 35 31  1  0  0  0  0
 36  1  1  0  0  0  0
 37 40  1  0  0  0  0
 37 42  1  0  0  0  0
 38 39  1  0  0  0  0
 38 43  1  0  0  0  0
 39 42  1  0  0  0  0
 41 36  1  0  0  0  0
 41 40  1  0  0  0  0
 43 41  1  0  0  0  0
M  END
>  <MODEL>
6

>  <REMARK>
 VINA RESULT:      -8.1      2.376      7.754
  Name = 
  7 active torsions:
  status: ('A' for Active; 'I' for Inactive)
    1  A    between atoms: C_1  and  N_28
    2  A    between atoms: C_2  and  C_6
    3  A    between atoms: C_4  and  O_22
    4  A    between atoms: C_11  and  C_14
    5  A    between atoms: C_13  and  N_38
    6  A    between atoms: C_14  and  O_22
    7  A    between atoms: N_28  and  C_35
                            x       y       z     vdW  Elec       q    Type
                         _______ _______ _______ _____ _____    ______ ____

>  <TORSDO>
F 7

$$$$
=
 OpenBabel11052416293D

 43 49  0  0  1  0  0  0  0  0999 V2000
  180.2870  178.7990  138.2130 C   0  0  0  0  0  2  0  0  0  0  0  0
  183.8410  172.3000  137.0780 C   0  0  0  0  0  0  0  0  0  0  0  0
  181.4420  176.6590  137.7520 C   0  0  0  0  0  0  0  0  0  0  0  0
  182.1430  174.0150  137.2810 C   0  0  0  0  0  0  0  0  0  0  0  0
  184.8380  173.2450  137.3520 C   0  0  0  0  0  3  0  0  0  0  0  0
  184.1800  171.0100  136.8460 F   0  0  0  0  0  0  0  0  0  0  0  0
  183.1560  174.9700  137.5590 C   0  0  0  0  0  0  0  0  0  0  0  0
  182.4970  172.6850  137.0430 C   0  0  0  0  0  3  0  0  0  0  0  0
  184.4980  174.5790  137.5930 C   0  0  0  0  0  3  0  0  0  0  0  0
  183.6050  177.4000  138.0970 N   0  0  0  0  0  0  0  0  0  0  0  0
  182.7670  176.2900  137.7910 C   0  0  0  0  0  0  0  0  0  0  0  0
  180.4230  175.7420  137.4890 C   0  0  0  0  0  3  0  0  0  0  0  0
  181.4020  178.0800  138.0500 C   0  0  0  0  0  0  0  0  0  0  0  0
  182.7610  178.5170  138.2150 N   0  0  0  0  0  0  0  0  0  0  0  0
  180.7880  174.4050  137.2480 C   0  0  0  0  0  3  0  0  0  0  0  0
  183.6470  179.7980  140.1620 C   0  0  1  0  0  3  0  0  0  0  0  0
  184.5780  179.7070  139.1120 O   0  0  0  0  0  0  0  0  0  0  0  0
  183.2300  179.8100  138.7190 C   0  0  1  0  0  3  0  0  0  0  0  0
  185.1000  179.9990  143.2170 O   0  0  0  0  0  1  0  0  0  0  0  0
  184.4350  178.7770  143.0760 C   0  0  2  0  0  0  0  0  0  0  0  0
  183.5400  178.4400  140.8840 C   0  0  1  0  0  3  0  0  0  0  0  0
  181.1990  179.1910  141.6100 C   0  0  0  0  0  1  0  0  0  0  0  0
  184.7570  178.1580  141.7240 C   0  0  1  0  0  3  0  0  0  0  0  0
  183.0420  178.9950  143.1520 O   0  0  0  0  0  0  0  0  0  0  0  0
  185.9410  178.6290  141.1760 F   0  0  0  0  0  0  0  0  0  0  0  0
  182.4830  178.4610  141.9780 C   0  0  2  0  0  3  0  0  0  0  0  0
  184.8480  177.8780  144.1050 O   0  0  0  0  0  0  0  0  0  0  0  0
  185.3390  178.2810  145.3530 C   0  0  0  0  0  0  0  0  0  0  0  0
  184.5270  178.6750  146.2300 O   0  0  0  0  0  0  0  0  0  0  0  0
  186.8050  178.2530  145.6650 C   0  0  2  0  0  3  0  0  0  0  0  0
  188.4620  177.8130  147.2960 C   0  0  0  0  0  2  0  0  0  0  0  0
  188.9870  177.1980  145.1910 C   0  0  0  0  0  2  0  0  0  0  0  0
  189.0310  176.7770  146.5320 O   0  0  0  0  0  0  0  0  0  0  0  0
  187.5390  177.3010  144.7210 C   0  0  0  0  0  2  0  0  0  0  0  0
  187.0200  177.8680  147.0600 N   0  0  0  0  0  2  0  0  0  0  0  0
  180.3090  180.1780  138.5700 N   0  0  0  0  0  2  0  0  0  0  0  0
  179.7070  181.6440  135.1160 C   0  0  0  0  0  2  0  0  0  0  0  0
  180.2170  183.6520  137.2210 C   0  0  0  0  0  2  0  0  0  0  0  0
  180.6660  183.9110  135.7800 C   0  0  0  0  0  2  0  0  0  0  0  0
  180.1410  180.6500  136.1850 C   0  0  0  0  0  2  0  0  0  0  0  0
  179.9750  181.2060  137.5990 C   0  0  0  0  0  3  0  0  0  0  0  0
  180.8110  182.6680  134.8960 C   0  0  0  0  0  2  0  0  0  0  0  0
  180.8640  182.4200  137.8370 C   0  0  0  0  0  2  0  0  0  0  0  0
  1 36  1  0  0  0  0
  2  5  1  0  0  0  0
  3 11  1  0  0  0  0
  3 13  2  0  0  0  0
  4  7  2  0  0  0  0
  5  9  2  0  0  0  0
  6  2  1  0  0  0  0
  7  9  1  0  0  0  0
  7 11  1  0  0  0  0
  8  2  2  0  0  0  0
  8  4  1  0  0  0  0
 10 14  1  0  0  0  0
 11 10  2  0  0  0  0
 12  3  1  0  0  0  0
 13  1  1  0  0  0  0
 13 14  1  0  0  0  0
 15  4  1  0  0  0  0
 15 12  2  0  0  0  0
 16 17  1  6  0  0  0
 18 14  1  1  0  0  0
 18 17  1  0  0  0  0
 18 16  1  0  0  0  0
 20 24  1  0  0  0  0
 20 19  1  1  0  0  0
 20 27  1  0  0  0  0
 21 16  1  1  0  0  0
 21 23  1  0  0  0  0
 21 26  1  0  0  0  0
 23 25  1  6  0  0  0
 23 20  1  0  0  0  0
 26 22  1  6  0  0  0
 26 24  1  0  0  0  0
 27 28  1  0  0  0  0
 28 29  2  0  0  0  0
 30 28  1  6  0  0  0
 30 35  1  0  0  0  0
 32 33  1  0  0  0  0
 33 31  1  0  0  0  0
 34 32  1  0  0  0  0
 34 30  1  0  0  0  0
 35 31  1  0  0  0  0
 37 40  1  0  0  0  0
 38 43  1  0  0  0  0
 39 38  1  0  0  0  0
 40 41  1  0  0  0  0
 41 43  1  0  0  0  0
 41 36  1  0  0  0  0
 42 37  1  0  0  0  0
 42 39  1  0  0  0  0
M  END
>  <MODEL>
7

>  <REMARK>
 VINA RESULT:      -8.0      5.076      9.953
  Name = 
  7 active torsions:
  status: ('A' for Active; 'I' for Inactive)
    1  A    between atoms: C_1  and  N_28
    2  A    between atoms: C_2  and  C_6
    3  A    between atoms: C_4  and  O_22
    4  A    between atoms: C_11  and  C_14
    5  A    between atoms: C_13  and  N_38
    6  A    between atoms: C_14  and  O_22
    7  A    between atoms: N_28  and  C_35
                            x       y       z     vdW  Elec       q    Type
                         _______ _______ _______ _____ _____    ______ ____

>  <TORSDO>
F 7

$$$$
=
 OpenBabel11052416293D

 43 49  0  0  1  0  0  0  0  0999 V2000
  185.9480  178.5980  140.3000 C   0  0  0  0  0  2  0  0  0  0  0  0
  190.7650  176.9480  145.7970 C   0  0  0  0  0  0  0  0  0  0  0  0
  187.5110  177.9690  142.1130 C   0  0  0  0  0  0  0  0  0  0  0  0
  188.7470  177.3540  144.5200 C   0  0  0  0  0  0  0  0  0  0  0  0
  191.5420  177.1650  144.6530 C   0  0  0  0  0  3  0  0  0  0  0  0
  191.3660  176.6460  146.9730 F   0  0  0  0  0  0  0  0  0  0  0  0
  189.5380  177.5730  143.3610 C   0  0  0  0  0  0  0  0  0  0  0  0
  189.3710  177.0430  145.7300 C   0  0  0  0  0  3  0  0  0  0  0  0
  190.9320  177.4770  143.4340 C   0  0  0  0  0  3  0  0  0  0  0  0
  189.4710  178.1480  140.9000 N   0  0  0  0  0  0  0  0  0  0  0  0
  188.8820  177.8800  142.1690 C   0  0  0  0  0  0  0  0  0  0  0  0
  186.7070  177.7660  143.2350 C   0  0  0  0  0  3  0  0  0  0  0  0
  187.1760  178.3160  140.7420 C   0  0  0  0  0  0  0  0  0  0  0  0
  188.4100  178.3750  140.0080 N   0  0  0  0  0  0  0  0  0  0  0  0
  187.3430  177.4520  144.4500 C   0  0  0  0  0  3  0  0  0  0  0  0
  188.8570  177.8060  137.6220 C   0  0  1  0  0  3  0  0  0  0  0  0
  187.5950  178.3990  137.8040 O   0  0  0  0  0  0  0  0  0  0  0  0
  188.6170  178.8770  138.6470 C   0  0  1  0  0  3  0  0  0  0  0  0
  188.6260  175.6490  135.0180 O   0  0  0  0  0  1  0  0  0  0  0  0
  188.8520  174.9500  136.2080 C   0  0  2  0  0  0  0  0  0  0  0  0
  188.8320  176.3550  138.1430 C   0  0  1  0  0  3  0  0  0  0  0  0
  191.3910  176.4990  138.1940 C   0  0  0  0  0  1  0  0  0  0  0  0
  187.9400  175.4780  137.3060 C   0  0  1  0  0  3  0  0  0  0  0  0
  190.1930  175.1340  136.6080 O   0  0  0  0  0  0  0  0  0  0  0  0
  186.8130  176.1230  136.8170 F   0  0  0  0  0  0  0  0  0  0  0  0
  190.1600  175.6480  137.9160 C   0  0  2  0  0  3  0  0  0  0  0  0
  188.5830  173.5610  136.0130 O   0  0  0  0  0  0  0  0  0  0  0  0
  187.6450  172.8300  136.7520 C   0  0  0  0  0  0  0  0  0  0  0  0
  188.0330  172.1840  137.7610 O   0  0  0  0  0  0  0  0  0  0  0  0
  186.1960  172.8000  136.3690 C   0  0  2  0  0  3  0  0  0  0  0  0
  184.4620  171.5770  135.3210 C   0  0  0  0  0  2  0  0  0  0  0  0
  183.8620  172.7230  137.1670 C   0  0  0  0  0  2  0  0  0  0  0  0
  183.7190  171.4860  136.5130 O   0  0  0  0  0  0  0  0  0  0  0  0
  185.3100  172.9190  137.6070 C   0  0  0  0  0  2  0  0  0  0  0  0
  185.8920  171.5750  135.6290 N   0  0  0  0  0  2  0  0  0  0  0  0
  185.6870  178.9960  138.9570 N   0  0  0  0  0  2  0  0  0  0  0  0
  181.9730  179.6890  138.5580 C   0  0  0  0  0  2  0  0  0  0  0  0
  182.8760  177.1490  137.3510 C   0  0  0  0  0  2  0  0  0  0  0  0
  181.4660  177.2690  137.9370 C   0  0  0  0  0  2  0  0  0  0  0  0
  183.3670  179.7050  139.1720 C   0  0  0  0  0  2  0  0  0  0  0  0
  184.3620  178.8580  138.3800 C   0  0  0  0  0  3  0  0  0  0  0  0
  181.2610  178.4020  138.9480 C   0  0  0  0  0  2  0  0  0  0  0  0
  183.9730  177.3840  138.3790 C   0  0  0  0  0  2  0  0  0  0  0  0
  1 13  1  0  0  0  0
  2  6  1  0  0  0  0
  3 11  1  0  0  0  0
  3 12  1  0  0  0  0
  4  8  2  0  0  0  0
  5  2  2  0  0  0  0
  7  9  2  0  0  0  0
  7  4  1  0  0  0  0
  8  2  1  0  0  0  0
  9  5  1  0  0  0  0
 10 11  2  0  0  0  0
 11  7  1  0  0  0  0
 12 15  2  0  0  0  0
 13  3  2  0  0  0  0
 14 13  1  0  0  0  0
 14 10  1  0  0  0  0
 15  4  1  0  0  0  0
 16 17  1  6  0  0  0
 16 18  1  0  0  0  0
 17 18  1  0  0  0  0
 18 14  1  1  0  0  0
 20 19  1  6  0  0  0
 20 24  1  0  0  0  0
 20 23  1  0  0  0  0
 21 16  1  6  0  0  0
 23 25  1  6  0  0  0
 23 21  1  0  0  0  0
 24 26  1  0  0  0  0
 26 21  1  0  0  0  0
 26 22  1  6  0  0  0
 27 20  1  0  0  0  0
 27 28  1  0  0  0  0
 28 29  2  0  0  0  0
 30 28  1  1  0  0  0
 30 34  1  0  0  0  0
 31 35  1  0  0  0  0
 31 33  1  0  0  0  0
 32 34  1  0  0  0  0
 33 32  1  0  0  0  0
 35 30  1  0  0  0  0
 36  1  1  0  0  0  0
 37 42  1  0  0  0  0
 37 40  1  0  0  0  0
 38 39  1  0  0  0  0
 38 43  1  0  0  0  0
 39 42  1  0  0  0  0
 41 36  1  0  0  0  0
 41 40  1  0  0  0  0
 43 41  1  0  0  0  0
M  END
>  <MODEL>
8

>  <REMARK>
 VINA RESULT:      -8.0      2.755      5.985
  Name = 
  7 active torsions:
  status: ('A' for Active; 'I' for Inactive)
    1  A    between atoms: C_1  and  N_28
    2  A    between atoms: C_2  and  C_6
    3  A    between atoms: C_4  and  O_22
    4  A    between atoms: C_11  and  C_14
    5  A    between atoms: C_13  and  N_38
    6  A    between atoms: C_14  and  O_22
    7  A    between atoms: N_28  and  C_35
                            x       y       z     vdW  Elec       q    Type
                         _______ _______ _______ _____ _____    ______ ____

>  <TORSDO>
F 7

$$$$
=
 OpenBabel11052416293D

 43 49  0  0  1  0  0  0  0  0999 V2000
  191.3990  176.7490  138.1250 C   0  0  0  0  0  3  0  0  0  0  0  0
  184.5060  178.9950  140.0170 C   0  0  0  0  0  0  0  0  0  0  0  0
  189.0950  177.4060  138.7430 C   0  0  0  0  0  0  0  0  0  0  0  0
  186.4230  178.1520  138.7990 C   0  0  0  0  0  0  0  0  0  0  0  0
  185.2780  179.0900  141.1810 C   0  0  0  0  0  3  0  0  0  0  0  0
  183.2010  179.3560  140.0410 F   0  0  0  0  0  0  0  0  0  0  0  0
  187.2030  178.2510  139.9820 C   0  0  0  0  0  0  0  0  0  0  0  0
  185.0770  178.5270  138.8290 C   0  0  0  0  0  3  0  0  0  0  0  0
  186.6260  178.7200  141.1660 C   0  0  0  0  0  3  0  0  0  0  0  0
  189.5040  177.8950  140.9670 N   0  0  0  0  0  0  0  0  0  0  0  0
  188.5430  177.8670  139.9160 C   0  0  0  0  0  0  0  0  0  0  0  0
  188.3560  177.3050  137.5640 C   0  0  0  0  0  3  0  0  0  0  0  0
  190.4900  177.1180  139.0310 C   0  0  0  0  0  0  0  0  0  0  0  0
  190.6990  177.3890  140.4270 N   0  0  0  0  0  0  0  0  0  0  0  0
  187.0020  177.6830  137.6030 C   0  0  0  0  0  3  0  0  0  0  0  0
  191.8410  177.6350  142.6300 C   0  0  1  0  0  3  0  0  0  0  0  0
  192.0540  176.3690  142.0540 O   0  0  0  0  0  0  0  0  0  0  0  0
  191.9740  177.4430  141.1460 C   0  0  1  0  0  3  0  0  0  0  0  0
  191.6920  176.2960  145.7390 O   0  0  0  0  0  1  0  0  0  0  0  0
  190.4810  176.9180  145.4220 C   0  0  2  0  0  0  0  0  0  0  0  0
  190.4010  177.7260  143.1720 C   0  0  1  0  0  3  0  0  0  0  0  0
  190.9940  180.1120  143.8960 C   0  0  0  0  0  1  0  0  0  0  0  0
  190.0460  176.5300  144.0160 C   0  0  1  0  0  3  0  0  0  0  0  0
  190.6520  178.3190  145.4710 O   0  0  0  0  0  0  0  0  0  0  0  0
  190.6130  175.3430  143.5760 F   0  0  0  0  0  0  0  0  0  0  0  0
  190.2560  178.8200  144.2180 C   0  0  2  0  0  3  0  0  0  0  0  0
  189.4700  176.5140  146.3450 O   0  0  0  0  0  0  0  0  0  0  0  0
  188.5630  177.3900  146.9530 C   0  0  0  0  0  0  0  0  0  0  0  0
  188.9630  178.1310  147.8880 O   0  0  0  0  0  0  0  0  0  0  0  0
  187.1310  177.4650  146.5140 C   0  0  2  0  0  3  0  0  0  0  0  0
  184.9810  178.3480  146.9570 C   0  0  0  0  0  2  0  0  0  0  0  0
  185.5520  178.2320  144.7790 C   0  0  0  0  0  2  0  0  0  0  0  0
  184.9540  179.0620  145.7440 O   0  0  0  0  0  0  0  0  0  0  0  0
  187.0300  178.0350  145.1010 C   0  0  0  0  0  2  0  0  0  0  0  0
  186.3540  178.2710  147.4550 N   0  0  0  0  0  2  0  0  0  0  0  0
  192.7700  176.5420  138.4540 N   0  0  0  0  0  0  0  0  0  0  0  0
  194.0050  175.6340  134.9780 C   0  0  0  0  0  2  0  0  0  0  0  0
  195.5260  174.3810  137.1780 C   0  0  0  0  0  2  0  0  0  0  0  0
  195.3510  173.6490  135.8430 C   0  0  0  0  0  2  0  0  0  0  0  0
  193.0410  176.0320  136.0870 C   0  0  0  0  0  2  0  0  0  0  0  0
  193.7130  176.0590  137.4600 C   0  0  0  0  0  3  0  0  0  0  0  0
  194.1800  174.1220  134.9760 C   0  0  0  0  0  2  0  0  0  0  0  0
  194.2060  174.6780  137.8740 C   0  0  0  0  0  2  0  0  0  0  0  0
  1 36  2  0  0  0  0
  1 13  1  0  0  0  0
  2  6  1  0  0  0  0
  2  5  1  0  0  0  0
  3 13  2  0  0  0  0
  3 11  1  0  0  0  0
  4  8  1  0  0  0  0
  4  7  2  0  0  0  0
  7  9  1  0  0  0  0
  8  2  2  0  0  0  0
  9  5  2  0  0  0  0
 11  7  1  0  0  0  0
 11 10  2  0  0  0  0
 12 15  2  0  0  0  0
 12  3  1  0  0  0  0
 13 14  1  0  0  0  0
 14 10  1  0  0  0  0
 15  4  1  0  0  0  0
 16 17  1  1  0  0  0
 18 14  1  6  0  0  0
 18 17  1  0  0  0  0
 18 16  1  0  0  0  0
 20 24  1  0  0  0  0
 20 19  1  1  0  0  0
 20 27  1  0  0  0  0
 21 16  1  1  0  0  0
 21 23  1  0  0  0  0
 21 26  1  0  0  0  0
 23 25  1  6  0  0  0
 23 20  1  0  0  0  0
 26 22  1  6  0  0  0
 26 24  1  0  0  0  0
 27 28  1  0  0  0  0
 28 29  2  0  0  0  0
 30 28  1  1  0  0  0
 30 35  1  0  0  0  0
 31 35  1  0  0  0  0
 32 34  1  0  0  0  0
 32 33  1  0  0  0  0
 33 31  1  0  0  0  0
 34 30  1  0  0  0  0
 37 40  1  0  0  0  0
 38 43  1  0  0  0  0
 39 38  1  0  0  0  0
 40 41  1  0  0  0  0
 41 43  1  0  0  0  0
 41 36  1  0  0  0  0
 42 37  1  0  0  0  0
 42 39  1  0  0  0  0
M  END
>  <MODEL>
9

>  <REMARK>
 VINA RESULT:      -7.7      4.177      6.799
  Name = 
  7 active torsions:
  status: ('A' for Active; 'I' for Inactive)
    1  A    between atoms: C_1  and  N_28
    2  A    between atoms: C_2  and  C_6
    3  A    between atoms: C_4  and  O_22
    4  A    between atoms: C_11  and  C_14
    5  A    between atoms: C_13  and  N_38
    6  A    between atoms: C_14  and  O_22
    7  A    between atoms: N_28  and  C_35
                            x       y       z     vdW  Elec       q    Type
                         _______ _______ _______ _____ _____    ______ ____

>  <TORSDO>
F 7

$$$$
