=
 OpenBabel11052412523D

 25 29  0  0  1  0  0  0  0  0999 V2000
  185.6010  178.3550  144.6720 N   0  0  0  0  0  0  0  0  0  0  0  0
  187.0070  178.1140  145.0150 C   0  0  1  0  0  3  0  0  0  0  0  0
  184.9800  178.6700  146.9660 N   0  0  0  0  0  2  0  0  0  0  0  0
  184.9880  178.4490  143.4820 C   0  0  0  0  0  0  0  0  0  0  0  0
  183.3140  178.7290  141.2940 C   0  0  0  0  0  3  0  0  0  0  0  0
  186.3370  178.7880  147.3260 N   0  0  0  0  0  2  0  0  0  0  0  0
  183.6530  178.7230  143.6670 C   0  0  0  0  0  0  0  0  0  0  0  0
  182.7820  178.8690  142.5890 C   0  0  0  0  0  3  0  0  0  0  0  0
  184.6850  178.4520  141.1060 C   0  0  0  0  0  3  0  0  0  0  0  0
  184.6500  178.6080  145.5850 C   0  0  0  0  0  0  0  0  0  0  0  0
  183.3950  178.8330  145.0250 C   0  0  0  0  0  3  0  0  0  0  0  0
  185.5440  178.3100  142.2090 C   0  0  0  0  0  3  0  0  0  0  0  0
  187.1380  177.8370  146.5370 C   0  0  2  0  0  3  0  0  0  0  0  0
  188.5930  177.9220  146.9790 C   0  0  1  0  0  3  0  0  0  0  0  0
  188.6800  177.8880  148.4370 C   0  0  0  0  0  2  0  0  0  0  0  0
  188.9670  176.6740  147.6620 N   0  0  0  0  0  2  0  0  0  0  0  0
  187.5390  176.9220  144.2220 C   0  0  0  0  0  2  0  0  0  0  0  0
  190.8860  176.7230  143.1450 C   0  0  1  0  0  0  0  0  0  0  0  0
  188.5940  177.3610  143.2160 C   0  0  1  0  0  3  0  0  0  0  0  0
  191.6470  175.7600  143.7790 F   0  0  0  0  0  0  0  0  0  0  0  0
  191.5460  177.1420  141.8380 C   0  0  0  0  0  1  0  0  0  0  0  0
  189.3500  178.4230  143.7520 O   0  0  0  0  0  0  0  0  0  0  0  0
  191.6300  178.9130  144.0170 N   0  0  0  0  0  1  0  0  0  0  0  0
  189.5140  176.2030  142.8610 C   0  0  0  0  0  2  0  0  0  0  0  0
  190.6040  177.8840  144.0790 C   0  0  2  0  0  3  0  0  0  0  0  0
  1  2  1  0  0  0  0
  1 10  1  0  0  0  0
  2 17  1  6  0  0  0
  2 13  1  0  0  0  0
  3  6  1  0  0  0  0
  4  7  1  0  0  0  0
  4  1  1  0  0  0  0
  5  8  1  0  0  0  0
  7 11  1  0  0  0  0
  8  7  2  0  0  0  0
  9  5  2  0  0  0  0
  9 12  1  0  0  0  0
 10  3  1  0  0  0  0
 11 10  2  0  0  0  0
 12  4  2  0  0  0  0
 13 14  1  0  0  0  0
 13  6  1  1  0  0  0
 14 16  1  0  0  0  0
 14 15  1  1  0  0  0
 16 15  1  0  0  0  0
 18 21  1  6  0  0  0
 18 20  1  0  0  0  0
 18 25  1  0  0  0  0
 19 22  1  0  0  0  0
 19 17  1  1  0  0  0
 22 25  1  0  0  0  0
 24 18  1  0  0  0  0
 24 19  1  0  0  0  0
 25 23  1  6  0  0  0
M  END
>  <MODEL>
1

>  <REMARK>
 VINA RESULT:      -9.7      0.000      0.000
  Name = 
  3 active torsions:
  status: ('A' for Active; 'I' for Inactive)
    1  A    between atoms: C_3  and  C_16
    2  A    between atoms: C_6  and  C_16
    3  A    between atoms: C_13  and  C_24
                            x       y       z     vdW  Elec       q    Type
                         _______ _______ _______ _____ _____    ______ ____

>  <TORSDO>
F 3

$$$$
=
 OpenBabel11052412523D

 25 29  0  0  1  0  0  0  0  0999 V2000
  186.1340  178.2170  143.8610 N   0  0  0  0  0  0  0  0  0  0  0  0
  186.0420  178.1090  142.4010 C   0  0  1  0  0  3  0  0  0  0  0  0
  183.9030  179.0750  144.0490 N   0  0  0  0  0  2  0  0  0  0  0  0
  187.1050  177.8520  144.7130 C   0  0  0  0  0  0  0  0  0  0  0  0
  188.8020  177.2670  146.8210 C   0  0  0  0  0  3  0  0  0  0  0  0
  183.6310  178.6830  142.7240 N   0  0  0  0  0  2  0  0  0  0  0  0
  186.7180  178.1220  146.0040 C   0  0  0  0  0  0  0  0  0  0  0  0
  187.5460  177.8420  147.0880 C   0  0  0  0  0  3  0  0  0  0  0  0
  189.1960  176.9860  145.4950 C   0  0  0  0  0  3  0  0  0  0  0  0
  185.1360  178.6750  144.6330 C   0  0  0  0  0  0  0  0  0  0  0  0
  185.4390  178.6600  145.9920 C   0  0  0  0  0  3  0  0  0  0  0  0
  188.3420  177.2770  144.4180 C   0  0  0  0  0  3  0  0  0  0  0  0
  184.8210  178.9190  141.8880 C   0  0  2  0  0  3  0  0  0  0  0  0
  184.4980  178.5560  140.4450 C   0  0  1  0  0  3  0  0  0  0  0  0
  183.2640  179.2150  140.0240 C   0  0  0  0  0  2  0  0  0  0  0  0
  184.5610  179.7690  139.6140 N   0  0  0  0  0  2  0  0  0  0  0  0
  187.3230  178.6370  141.7590 C   0  0  0  0  0  2  0  0  0  0  0  0
  189.9600  177.5590  139.6880 C   0  0  1  0  0  0  0  0  0  0  0  0
  187.7760  177.7340  140.6200 C   0  0  1  0  0  3  0  0  0  0  0  0
  191.2130  178.0100  140.0570 F   0  0  0  0  0  0  0  0  0  0  0  0
  190.0820  176.3540  138.7640 C   0  0  0  0  0  1  0  0  0  0  0  0
  187.7850  178.4590  139.4120 O   0  0  0  0  0  0  0  0  0  0  0  0
  189.3100  178.8220  137.6650 N   0  0  0  0  0  1  0  0  0  0  0  0
  189.1650  177.1770  140.8950 C   0  0  0  0  0  2  0  0  0  0  0  0
  189.1340  178.6880  139.1030 C   0  0  2  0  0  3  0  0  0  0  0  0
  1 10  1  0  0  0  0
  1  4  1  0  0  0  0
  2 17  1  6  0  0  0
  2  1  1  0  0  0  0
  3 10  1  0  0  0  0
  4  7  1  0  0  0  0
  5  8  1  0  0  0  0
  6  3  1  0  0  0  0
  7  8  2  0  0  0  0
  9  5  2  0  0  0  0
 10 11  2  0  0  0  0
 11  7  1  0  0  0  0
 12  4  2  0  0  0  0
 12  9  1  0  0  0  0
 13  2  1  0  0  0  0
 13  6  1  1  0  0  0
 14 15  1  1  0  0  0
 14 13  1  0  0  0  0
 16 15  1  0  0  0  0
 16 14  1  0  0  0  0
 18 21  1  6  0  0  0
 18 20  1  0  0  0  0
 18 24  1  0  0  0  0
 19 24  1  0  0  0  0
 19 17  1  1  0  0  0
 22 19  1  0  0  0  0
 25 23  1  6  0  0  0
 25 22  1  0  0  0  0
 25 18  1  0  0  0  0
M  END
>  <MODEL>
2

>  <REMARK>
 VINA RESULT:      -9.3      2.756      5.223
  Name = 
  3 active torsions:
  status: ('A' for Active; 'I' for Inactive)
    1  A    between atoms: C_3  and  C_16
    2  A    between atoms: C_6  and  C_16
    3  A    between atoms: C_13  and  C_24
                            x       y       z     vdW  Elec       q    Type
                         _______ _______ _______ _____ _____    ______ ____

>  <TORSDO>
F 3

$$$$
=
 OpenBabel11052412523D

 25 29  0  0  1  0  0  0  0  0999 V2000
  188.1000  177.5240  144.8990 N   0  0  0  0  0  0  0  0  0  0  0  0
  187.4790  177.5650  143.5710 C   0  0  1  0  0  3  0  0  0  0  0  0
  186.0790  178.2160  145.9870 N   0  0  0  0  0  2  0  0  0  0  0  0
  189.3240  177.1330  145.2890 C   0  0  0  0  0  0  0  0  0  0  0  0
  191.6890  176.4380  146.5490 C   0  0  0  0  0  3  0  0  0  0  0  0
  185.3460  177.9490  144.8150 N   0  0  0  0  0  2  0  0  0  0  0  0
  189.4340  177.2420  146.6560 C   0  0  0  0  0  0  0  0  0  0  0  0
  190.6090  176.9020  147.3220 C   0  0  0  0  0  3  0  0  0  0  0  0
  191.5730  176.3230  145.1470 C   0  0  0  0  0  3  0  0  0  0  0  0
  187.4480  177.8360  146.0310 C   0  0  0  0  0  0  0  0  0  0  0  0
  188.2300  177.6970  147.1740 C   0  0  0  0  0  3  0  0  0  0  0  0
  190.3770  176.6720  144.4980 C   0  0  0  0  0  3  0  0  0  0  0  0
  186.1390  178.3460  143.6390 C   0  0  2  0  0  3  0  0  0  0  0  0
  185.3150  178.1170  142.3790 C   0  0  1  0  0  3  0  0  0  0  0  0
  184.0360  178.8150  142.4800 C   0  0  0  0  0  2  0  0  0  0  0  0
  185.1240  179.4000  141.6840 N   0  0  0  0  0  2  0  0  0  0  0  0
  188.4240  178.2370  142.5760 C   0  0  0  0  0  2  0  0  0  0  0  0
  190.2030  177.4430  139.6420 C   0  0  1  0  0  0  0  0  0  0  0  0
  188.4520  177.4820  141.2540 C   0  0  1  0  0  3  0  0  0  0  0  0
  191.5200  177.8600  139.6280 F   0  0  0  0  0  0  0  0  0  0  0  0
  189.9800  176.3600  138.5950 C   0  0  0  0  0  1  0  0  0  0  0  0
  188.0850  178.3470  140.2030 O   0  0  0  0  0  0  0  0  0  0  0  0
  188.9640  178.9340  138.1070 N   0  0  0  0  0  1  0  0  0  0  0  0
  189.8370  176.9110  140.9900 C   0  0  0  0  0  2  0  0  0  0  0  0
  189.2650  178.6260  139.4970 C   0  0  2  0  0  3  0  0  0  0  0  0
  1  4  1  0  0  0  0
  1 10  1  0  0  0  0
  2 17  1  6  0  0  0
  2 13  1  0  0  0  0
  2  1  1  0  0  0  0
  3 10  1  0  0  0  0
  4  7  1  0  0  0  0
  5  8  1  0  0  0  0
  6  3  1  0  0  0  0
  7 11  1  0  0  0  0
  7  8  2  0  0  0  0
  9  5  2  0  0  0  0
 10 11  2  0  0  0  0
 12  9  1  0  0  0  0
 12  4  2  0  0  0  0
 13  6  1  1  0  0  0
 14 15  1  1  0  0  0
 14 13  1  0  0  0  0
 16 14  1  0  0  0  0
 16 15  1  0  0  0  0
 18 21  1  6  0  0  0
 18 24  1  0  0  0  0
 19 17  1  1  0  0  0
 20 18  1  0  0  0  0
 22 19  1  0  0  0  0
 24 19  1  0  0  0  0
 25 23  1  6  0  0  0
 25 18  1  0  0  0  0
 25 22  1  0  0  0  0
M  END
>  <MODEL>
3

>  <REMARK>
 VINA RESULT:      -9.2      2.604      5.348
  Name = 
  3 active torsions:
  status: ('A' for Active; 'I' for Inactive)
    1  A    between atoms: C_3  and  C_16
    2  A    between atoms: C_6  and  C_16
    3  A    between atoms: C_13  and  C_24
                            x       y       z     vdW  Elec       q    Type
                         _______ _______ _______ _____ _____    ______ ____

>  <TORSDO>
F 3

$$$$
=
 OpenBabel11052412523D

 25 29  0  0  1  0  0  0  0  0999 V2000
  187.0360  178.0190  144.9020 N   0  0  0  0  0  0  0  0  0  0  0  0
  188.3820  177.9330  144.3250 C   0  0  1  0  0  3  0  0  0  0  0  0
  187.8280  177.5030  147.1060 N   0  0  0  0  0  2  0  0  0  0  0  0
  185.8610  178.3640  144.3520 C   0  0  0  0  0  0  0  0  0  0  0  0
  183.2530  179.0030  143.6730 C   0  0  0  0  0  3  0  0  0  0  0  0
  189.1530  177.7390  146.6940 N   0  0  0  0  0  2  0  0  0  0  0  0
  184.8720  178.3300  145.3080 C   0  0  0  0  0  0  0  0  0  0  0  0
  183.5500  178.6450  145.0020 C   0  0  0  0  0  3  0  0  0  0  0  0
  184.2700  179.0410  142.6950 C   0  0  0  0  0  3  0  0  0  0  0  0
  186.7740  177.8100  146.2020 C   0  0  0  0  0  0  0  0  0  0  0  0
  185.4290  177.9730  146.5270 C   0  0  0  0  0  3  0  0  0  0  0  0
  185.5970  178.7210  143.0290 C   0  0  0  0  0  3  0  0  0  0  0  0
  189.3410  177.2310  145.3240 C   0  0  2  0  0  3  0  0  0  0  0  0
  190.7930  177.4300  144.9110 C   0  0  1  0  0  3  0  0  0  0  0  0
  191.6810  176.7410  145.8430 C   0  0  0  0  0  2  0  0  0  0  0  0
  191.3750  176.1300  144.5430 N   0  0  0  0  0  2  0  0  0  0  0  0
  188.3360  177.1540  143.0120 C   0  0  0  0  0  2  0  0  0  0  0  0
  188.9190  177.4470  139.5510 C   0  0  1  0  0  0  0  0  0  0  0  0
  188.9470  177.9610  141.8760 C   0  0  1  0  0  3  0  0  0  0  0  0
  188.2420  176.5330  138.7670 F   0  0  0  0  0  0  0  0  0  0  0  0
  189.3830  178.6270  138.7080 C   0  0  0  0  0  1  0  0  0  0  0  0
  190.2090  177.4330  141.5390 O   0  0  0  0  0  0  0  0  0  0  0  0
  191.2930  176.7550  139.5710 N   0  0  0  0  0  1  0  0  0  0  0  0
  188.0400  177.9420  140.6540 C   0  0  0  0  0  2  0  0  0  0  0  0
  190.0420  176.7700  140.3140 C   0  0  2  0  0  3  0  0  0  0  0  0
  1 10  1  0  0  0  0
  2 17  1  6  0  0  0
  2  1  1  0  0  0  0
  2 13  1  0  0  0  0
  4  1  1  0  0  0  0
  4  7  1  0  0  0  0
  5  8  1  0  0  0  0
  6  3  1  0  0  0  0
  7 11  1  0  0  0  0
  8  7  2  0  0  0  0
  9 12  1  0  0  0  0
  9  5  2  0  0  0  0
 10 11  2  0  0  0  0
 10  3  1  0  0  0  0
 12  4  2  0  0  0  0
 13  6  1  1  0  0  0
 14 13  1  0  0  0  0
 14 15  1  1  0  0  0
 16 14  1  0  0  0  0
 16 15  1  0  0  0  0
 18 21  1  6  0  0  0
 18 25  1  0  0  0  0
 18 24  1  0  0  0  0
 19 17  1  1  0  0  0
 20 18  1  0  0  0  0
 22 19  1  0  0  0  0
 24 19  1  0  0  0  0
 25 23  1  6  0  0  0
 25 22  1  0  0  0  0
M  END
>  <MODEL>
4

>  <REMARK>
 VINA RESULT:      -9.2      2.403      3.097
  Name = 
  3 active torsions:
  status: ('A' for Active; 'I' for Inactive)
    1  A    between atoms: C_3  and  C_16
    2  A    between atoms: C_6  and  C_16
    3  A    between atoms: C_13  and  C_24
                            x       y       z     vdW  Elec       q    Type
                         _______ _______ _______ _____ _____    ______ ____

>  <TORSDO>
F 3

$$$$
=
 OpenBabel11052412523D

 25 29  0  0  1  0  0  0  0  0999 V2000
  189.5510  177.4320  144.1620 N   0  0  0  0  0  0  0  0  0  0  0  0
  188.9580  177.7860  142.8680 C   0  0  1  0  0  3  0  0  0  0  0  0
  191.6620  176.8800  143.1680 N   0  0  0  0  0  2  0  0  0  0  0  0
  189.0600  177.5130  145.4090 C   0  0  0  0  0  0  0  0  0  0  0  0
  188.4900  177.5020  148.1180 C   0  0  0  0  0  3  0  0  0  0  0  0
  191.2750  177.5160  141.9720 N   0  0  0  0  0  2  0  0  0  0  0  0
  190.0100  177.0950  146.3110 C   0  0  0  0  0  0  0  0  0  0  0  0
  189.7570  177.0760  147.6800 C   0  0  0  0  0  3  0  0  0  0  0  0
  187.5180  177.9350  147.1910 C   0  0  0  0  0  3  0  0  0  0  0  0
  190.8150  177.0010  144.3030 C   0  0  0  0  0  0  0  0  0  0  0  0
  191.1680  176.7530  145.6270 C   0  0  0  0  0  3  0  0  0  0  0  0
  187.7970  177.9460  145.8140 C   0  0  0  0  0  3  0  0  0  0  0  0
  189.8490  177.2510  141.7140 C   0  0  2  0  0  3  0  0  0  0  0  0
  189.4550  177.8850  140.3870 C   0  0  1  0  0  3  0  0  0  0  0  0
  190.3880  177.4800  139.3390 C   0  0  0  0  0  2  0  0  0  0  0  0
  189.0760  176.8270  139.4380 N   0  0  0  0  0  2  0  0  0  0  0  0
  187.5550  177.1930  142.7590 C   0  0  0  0  0  2  0  0  0  0  0  0
  184.3010  178.2160  141.8820 C   0  0  1  0  0  0  0  0  0  0  0  0
  186.4940  178.2840  142.8050 C   0  0  1  0  0  3  0  0  0  0  0  0
  183.5000  177.2230  141.3520 F   0  0  0  0  0  0  0  0  0  0  0  0
  183.4470  179.3780  142.3750 C   0  0  0  0  0  1  0  0  0  0  0  0
  186.5130  179.0190  141.6030 O   0  0  0  0  0  0  0  0  0  0  0  0
  184.9310  179.7050  140.0120 N   0  0  0  0  0  1  0  0  0  0  0  0
  185.1130  177.6830  143.0190 C   0  0  0  0  0  2  0  0  0  0  0  0
  185.3700  178.6310  140.8890 C   0  0  2  0  0  3  0  0  0  0  0  0
  1 10  1  0  0  0  0
  1  4  1  0  0  0  0
  2 17  1  1  0  0  0
  2  1  1  0  0  0  0
  3 10  1  0  0  0  0
  4 12  2  0  0  0  0
  4  7  1  0  0  0  0
  6  3  1  0  0  0  0
  7  8  2  0  0  0  0
  8  5  1  0  0  0  0
  9  5  2  0  0  0  0
 10 11  2  0  0  0  0
 11  7  1  0  0  0  0
 12  9  1  0  0  0  0
 13  6  1  1  0  0  0
 13  2  1  0  0  0  0
 14 15  1  6  0  0  0
 14 13  1  0  0  0  0
 15 16  1  0  0  0  0
 16 14  1  0  0  0  0
 18 21  1  1  0  0  0
 18 24  1  0  0  0  0
 19 17  1  6  0  0  0
 19 24  1  0  0  0  0
 20 18  1  0  0  0  0
 22 19  1  0  0  0  0
 25 23  1  1  0  0  0
 25 22  1  0  0  0  0
 25 18  1  0  0  0  0
M  END
>  <MODEL>
5

>  <REMARK>
 VINA RESULT:      -8.8      2.901      6.633
  Name = 
  3 active torsions:
  status: ('A' for Active; 'I' for Inactive)
    1  A    between atoms: C_3  and  C_16
    2  A    between atoms: C_6  and  C_16
    3  A    between atoms: C_13  and  C_24
                            x       y       z     vdW  Elec       q    Type
                         _______ _______ _______ _____ _____    ______ ____

>  <TORSDO>
F 3

$$$$
=
 OpenBabel11052412523D

 25 29  0  0  1  0  0  0  0  0999 V2000
  186.9160  178.1590  142.1990 N   0  0  0  0  0  0  0  0  0  0  0  0
  188.2200  177.5160  142.3980 C   0  0  1  0  0  3  0  0  0  0  0  0
  187.2930  178.4480  139.8490 N   0  0  0  0  0  2  0  0  0  0  0  0
  185.9010  178.3750  143.0500 C   0  0  0  0  0  0  0  0  0  0  0  0
  183.5800  179.0220  144.4140 C   0  0  0  0  0  3  0  0  0  0  0  0
  188.3790  177.5540  139.9040 N   0  0  0  0  0  2  0  0  0  0  0  0
  184.8610  178.9860  142.3890 C   0  0  0  0  0  0  0  0  0  0  0  0
  183.6800  179.3260  143.0430 C   0  0  0  0  0  3  0  0  0  0  0  0
  184.6470  178.3920  145.0900 C   0  0  0  0  0  3  0  0  0  0  0  0
  186.4840  178.6020  141.0080 C   0  0  0  0  0  0  0  0  0  0  0  0
  185.2050  179.1500  141.0550 C   0  0  0  0  0  3  0  0  0  0  0  0
  185.8280  178.0580  144.4070 C   0  0  0  0  0  3  0  0  0  0  0  0
  189.1230  177.7610  141.1580 C   0  0  2  0  0  3  0  0  0  0  0  0
  190.3340  176.8370  141.1800 C   0  0  1  0  0  3  0  0  0  0  0  0
  191.1630  177.0660  140.0000 C   0  0  0  0  0  2  0  0  0  0  0  0
  191.5580  177.6450  141.2910 N   0  0  0  0  0  2  0  0  0  0  0  0
  188.8910  178.0780  143.6490 C   0  0  0  0  0  2  0  0  0  0  0  0
  189.6890  177.2590  146.9800 C   0  0  1  0  0  0  0  0  0  0  0  0
  189.1180  176.9860  144.6850 C   0  0  1  0  0  3  0  0  0  0  0  0
  189.7270  178.3300  147.8510 F   0  0  0  0  0  0  0  0  0  0  0  0
  189.5520  175.9530  147.7530 C   0  0  0  0  0  1  0  0  0  0  0  0
  190.4970  176.7310  144.8160 O   0  0  0  0  0  0  0  0  0  0  0  0
  192.0310  176.5730  146.5850 N   0  0  0  0  0  1  0  0  0  0  0  0
  188.5410  177.3950  146.0320 C   0  0  0  0  0  2  0  0  0  0  0  0
  190.8830  177.2850  146.0460 C   0  0  2  0  0  3  0  0  0  0  0  0
  1  2  1  0  0  0  0
  1  4  1  0  0  0  0
  2 17  1  1  0  0  0
  3  6  1  0  0  0  0
  3 10  1  0  0  0  0
  4 12  1  0  0  0  0
  5  9  1  0  0  0  0
  7  8  1  0  0  0  0
  7  4  2  0  0  0  0
  8  5  2  0  0  0  0
 10 11  2  0  0  0  0
 10  1  1  0  0  0  0
 11  7  1  0  0  0  0
 12  9  2  0  0  0  0
 13  6  1  6  0  0  0
 13 14  1  0  0  0  0
 13  2  1  0  0  0  0
 14 15  1  6  0  0  0
 14 16  1  0  0  0  0
 15 16  1  0  0  0  0
 18 21  1  1  0  0  0
 18 20  1  0  0  0  0
 19 17  1  6  0  0  0
 19 22  1  0  0  0  0
 19 24  1  0  0  0  0
 22 25  1  0  0  0  0
 24 18  1  0  0  0  0
 25 23  1  1  0  0  0
 25 18  1  0  0  0  0
M  END
>  <MODEL>
6

>  <REMARK>
 VINA RESULT:      -8.7      2.448      4.622
  Name = 
  3 active torsions:
  status: ('A' for Active; 'I' for Inactive)
    1  A    between atoms: C_3  and  C_16
    2  A    between atoms: C_6  and  C_16
    3  A    between atoms: C_13  and  C_24
                            x       y       z     vdW  Elec       q    Type
                         _______ _______ _______ _____ _____    ______ ____

>  <TORSDO>
F 3

$$$$
=
 OpenBabel11052412523D

 25 29  0  0  1  0  0  0  0  0999 V2000
  185.9890  178.4610  142.5310 N   0  0  0  0  0  0  0  0  0  0  0  0
  187.1150  178.0010  141.7100 C   0  0  1  0  0  3  0  0  0  0  0  0
  184.7990  179.3000  140.6260 N   0  0  0  0  0  2  0  0  0  0  0  0
  185.7440  178.3300  143.8440 C   0  0  0  0  0  0  0  0  0  0  0  0
  184.8170  178.3030  146.4530 C   0  0  0  0  0  3  0  0  0  0  0  0
  185.6620  178.5940  139.7650 N   0  0  0  0  0  2  0  0  0  0  0  0
  184.5290  178.8990  144.1500 C   0  0  0  0  0  0  0  0  0  0  0  0
  184.0330  178.9040  145.4510 C   0  0  0  0  0  3  0  0  0  0  0  0
  186.0610  177.7160  146.1370 C   0  0  0  0  0  3  0  0  0  0  0  0
  184.9080  179.0760  142.0250 C   0  0  0  0  0  0  0  0  0  0  0  0
  183.9550  179.3960  142.9890 C   0  0  0  0  0  3  0  0  0  0  0  0
  186.5400  177.7230  144.8160 C   0  0  0  0  0  3  0  0  0  0  0  0
  187.0350  178.6410  140.2980 C   0  0  2  0  0  3  0  0  0  0  0  0
  187.9720  177.9330  139.3290 C   0  0  1  0  0  3  0  0  0  0  0  0
  187.6260  178.2760  137.9520 C   0  0  0  0  0  2  0  0  0  0  0  0
  188.7660  178.9360  138.6020 N   0  0  0  0  0  2  0  0  0  0  0  0
  188.4340  178.3790  142.3790 C   0  0  0  0  0  2  0  0  0  0  0  0
  191.3840  177.0230  143.7450 C   0  0  1  0  0  0  0  0  0  0  0  0
  189.3310  177.1610  142.5470 C   0  0  1  0  0  3  0  0  0  0  0  0
  192.0450  177.8460  144.6370 F   0  0  0  0  0  0  0  0  0  0  0  0
  191.8380  175.5800  143.9200 C   0  0  0  0  0  1  0  0  0  0  0  0
  190.3800  177.2070  141.6070 O   0  0  0  0  0  0  0  0  0  0  0  0
  192.7170  177.0040  141.6630 N   0  0  0  0  0  1  0  0  0  0  0  0
  189.9060  177.1050  143.9550 C   0  0  0  0  0  2  0  0  0  0  0  0
  191.5370  177.5370  142.3270 C   0  0  2  0  0  3  0  0  0  0  0  0
  1  4  1  0  0  0  0
  2 17  1  1  0  0  0
  2  1  1  0  0  0  0
  3 10  1  0  0  0  0
  4  7  2  0  0  0  0
  4 12  1  0  0  0  0
  6  3  1  0  0  0  0
  7  8  1  0  0  0  0
  8  5  2  0  0  0  0
  9  5  1  0  0  0  0
 10  1  1  0  0  0  0
 10 11  2  0  0  0  0
 11  7  1  0  0  0  0
 12  9  2  0  0  0  0
 13  6  1  6  0  0  0
 13  2  1  0  0  0  0
 14 15  1  6  0  0  0
 14 13  1  0  0  0  0
 15 16  1  0  0  0  0
 16 14  1  0  0  0  0
 18 21  1  1  0  0  0
 18 24  1  0  0  0  0
 18 20  1  0  0  0  0
 19 17  1  1  0  0  0
 19 24  1  0  0  0  0
 22 25  1  0  0  0  0
 22 19  1  0  0  0  0
 25 23  1  6  0  0  0
 25 18  1  0  0  0  0
M  END
>  <MODEL>
7

>  <REMARK>
 VINA RESULT:      -8.4      2.555      4.686
  Name = 
  3 active torsions:
  status: ('A' for Active; 'I' for Inactive)
    1  A    between atoms: C_3  and  C_16
    2  A    between atoms: C_6  and  C_16
    3  A    between atoms: C_13  and  C_24
                            x       y       z     vdW  Elec       q    Type
                         _______ _______ _______ _____ _____    ______ ____

>  <TORSDO>
F 3

$$$$
=
 OpenBabel11052412523D

 25 29  0  0  1  0  0  0  0  0999 V2000
  187.5060  177.8890  145.7520 N   0  0  0  0  0  0  0  0  0  0  0  0
  188.9020  177.5130  145.5020 C   0  0  1  0  0  3  0  0  0  0  0  0
  187.8620  178.0680  148.1170 N   0  0  0  0  0  2  0  0  0  0  0  0
  186.4920  178.1250  144.9050 C   0  0  0  0  0  0  0  0  0  0  0  0
  184.1370  178.7060  143.5700 C   0  0  0  0  0  3  0  0  0  0  0  0
  189.2560  178.0510  147.9170 N   0  0  0  0  0  2  0  0  0  0  0  0
  185.3690  178.4850  145.6140 C   0  0  0  0  0  0  0  0  0  0  0  0
  184.1680  178.7840  144.9750 C   0  0  0  0  0  3  0  0  0  0  0  0
  185.2910  178.3400  142.8450 C   0  0  0  0  0  3  0  0  0  0  0  0
  187.0160  178.1420  146.9760 C   0  0  0  0  0  0  0  0  0  0  0  0
  185.6730  178.5070  146.9670 C   0  0  0  0  0  3  0  0  0  0  0  0
  186.4920  178.0440  143.5120 C   0  0  0  0  0  3  0  0  0  0  0  0
  189.5860  177.1070  146.8360 C   0  0  2  0  0  3  0  0  0  0  0  0
  191.0990  177.0440  146.6710 C   0  0  1  0  0  3  0  0  0  0  0  0
  191.7330  176.7530  147.9540 C   0  0  0  0  0  2  0  0  0  0  0  0
  191.5630  175.6790  146.9660 N   0  0  0  0  0  2  0  0  0  0  0  0
  188.9580  176.3500  144.5130 C   0  0  0  0  0  2  0  0  0  0  0  0
  190.4720  177.8780  141.7240 C   0  0  1  0  0  0  0  0  0  0  0  0
  190.1810  176.4570  143.6130 C   0  0  1  0  0  3  0  0  0  0  0  0
  189.7810  178.9540  141.2030 F   0  0  0  0  0  0  0  0  0  0  0  0
  191.9220  177.9030  141.2580 C   0  0  0  0  0  1  0  0  0  0  0  0
  189.9910  175.6750  142.4560 O   0  0  0  0  0  0  0  0  0  0  0  0
  190.1800  176.0030  140.1390 N   0  0  0  0  0  1  0  0  0  0  0  0
  190.4330  177.9050  143.2190 C   0  0  0  0  0  2  0  0  0  0  0  0
  189.7580  176.5780  141.4070 C   0  0  2  0  0  3  0  0  0  0  0  0
  1 10  1  0  0  0  0
  2 17  1  6  0  0  0
  2  1  1  0  0  0  0
  2 13  1  0  0  0  0
  4  7  1  0  0  0  0
  4  1  1  0  0  0  0
  5  8  1  0  0  0  0
  6  3  1  0  0  0  0
  7 11  1  0  0  0  0
  8  7  2  0  0  0  0
  9 12  1  0  0  0  0
  9  5  2  0  0  0  0
 10  3  1  0  0  0  0
 11 10  2  0  0  0  0
 12  4  2  0  0  0  0
 13  6  1  1  0  0  0
 14 13  1  0  0  0  0
 14 16  1  0  0  0  0
 14 15  1  1  0  0  0
 16 15  1  0  0  0  0
 18 21  1  6  0  0  0
 18 24  1  0  0  0  0
 19 17  1  1  0  0  0
 20 18  1  0  0  0  0
 22 19  1  0  0  0  0
 24 19  1  0  0  0  0
 25 23  1  6  0  0  0
 25 18  1  0  0  0  0
 25 22  1  0  0  0  0
M  END
>  <MODEL>
8

>  <REMARK>
 VINA RESULT:      -8.2      2.123      2.746
  Name = 
  3 active torsions:
  status: ('A' for Active; 'I' for Inactive)
    1  A    between atoms: C_3  and  C_16
    2  A    between atoms: C_6  and  C_16
    3  A    between atoms: C_13  and  C_24
                            x       y       z     vdW  Elec       q    Type
                         _______ _______ _______ _____ _____    ______ ____

>  <TORSDO>
F 3

$$$$
=
 OpenBabel11052412523D

 25 29  0  0  1  0  0  0  0  0999 V2000
  186.3230  178.2720  143.0370 N   0  0  0  0  0  0  0  0  0  0  0  0
  185.3140  178.6910  142.0580 C   0  0  1  0  0  3  0  0  0  0  0  0
  187.9800  177.9110  141.3420 N   0  0  0  0  0  2  0  0  0  0  0  0
  186.2850  178.2300  144.3790 C   0  0  0  0  0  0  0  0  0  0  0  0
  186.6760  177.9820  147.1090 C   0  0  0  0  0  3  0  0  0  0  0  0
  187.1920  178.6150  140.4110 N   0  0  0  0  0  2  0  0  0  0  0  0
  187.4970  177.7960  144.8650 C   0  0  0  0  0  0  0  0  0  0  0  0
  187.7280  177.6590  146.2310 C   0  0  0  0  0  3  0  0  0  0  0  0
  185.4350  178.4320  146.6080 C   0  0  0  0  0  3  0  0  0  0  0  0
  187.5680  177.8990  142.7030 C   0  0  0  0  0  0  0  0  0  0  0  0
  188.3590  177.5700  143.8010 C   0  0  0  0  0  3  0  0  0  0  0  0
  185.2270  178.5630  145.2250 C   0  0  0  0  0  3  0  0  0  0  0  0
  185.7710  178.2950  140.6280 C   0  0  2  0  0  3  0  0  0  0  0  0
  184.9310  179.0060  139.5750 C   0  0  1  0  0  3  0  0  0  0  0  0
  185.3760  178.6280  138.2370 C   0  0  0  0  0  2  0  0  0  0  0  0
  184.1710  178.0090  138.8050 N   0  0  0  0  0  2  0  0  0  0  0  0
  183.9740  178.0330  142.3780 C   0  0  0  0  0  2  0  0  0  0  0  0
  180.6290  178.7910  143.1810 C   0  0  1  0  0  0  0  0  0  0  0  0
  182.8430  179.0520  142.3450 C   0  0  1  0  0  3  0  0  0  0  0  0
  179.9970  177.8600  143.9830 F   0  0  0  0  0  0  0  0  0  0  0  0
  179.8820  180.1170  143.2190 C   0  0  0  0  0  1  0  0  0  0  0  0
  181.9990  178.7940  141.2470 O   0  0  0  0  0  0  0  0  0  0  0  0
  179.6910  178.5320  140.9080 N   0  0  0  0  0  1  0  0  0  0  0  0
  182.0370  179.0030  143.6350 C   0  0  0  0  0  2  0  0  0  0  0  0
  180.8220  178.2470  141.7780 C   0  0  2  0  0  3  0  0  0  0  0  0
  1  4  1  0  0  0  0
  2 17  1  1  0  0  0
  2  1  1  0  0  0  0
  3 10  1  0  0  0  0
  4  7  2  0  0  0  0
  4 12  1  0  0  0  0
  6  3  1  0  0  0  0
  7  8  1  0  0  0  0
  8  5  2  0  0  0  0
  9  5  1  0  0  0  0
 10  1  1  0  0  0  0
 10 11  2  0  0  0  0
 11  7  1  0  0  0  0
 12  9  2  0  0  0  0
 13  6  1  6  0  0  0
 13  2  1  0  0  0  0
 14 15  1  6  0  0  0
 14 13  1  0  0  0  0
 15 16  1  0  0  0  0
 16 14  1  0  0  0  0
 18 21  1  6  0  0  0
 18 24  1  0  0  0  0
 18 20  1  0  0  0  0
 19 17  1  1  0  0  0
 19 24  1  0  0  0  0
 22 25  1  0  0  0  0
 22 19  1  0  0  0  0
 25 23  1  6  0  0  0
 25 18  1  0  0  0  0
M  END
>  <MODEL>
9

>  <REMARK>
 VINA RESULT:      -7.9      3.852      7.612
  Name = 
  3 active torsions:
  status: ('A' for Active; 'I' for Inactive)
    1  A    between atoms: C_3  and  C_16
    2  A    between atoms: C_6  and  C_16
    3  A    between atoms: C_13  and  C_24
                            x       y       z     vdW  Elec       q    Type
                         _______ _______ _______ _____ _____    ______ ____

>  <TORSDO>
F 3

$$$$
