=
 OpenBabel11052415513D

 34 37  0  0  1  0  0  0  0  0999 V2000
  184.3720  178.2640  138.4100 C   0  0  2  0  0  3  0  0  0  0  0  0
  186.1950  175.6930  136.2780 C   0  0  0  0  0  3  0  0  0  0  0  0
  184.2290  177.0300  135.7260 C   0  0  0  0  0  2  0  0  0  0  0  0
  182.0220  178.9380  137.8610 C   0  0  0  0  0  0  0  0  0  0  0  0
  182.0940  180.0480  138.8640 C   0  0  0  0  0  1  0  0  0  0  0  0
  182.9640  177.0570  136.5610 C   0  0  0  0  0  2  0  0  0  0  0  0
  183.0780  178.1270  137.6150 C   0  0  0  0  0  0  0  0  0  0  0  0
  180.7390  178.8040  137.0980 C   0  0  0  0  0  1  0  0  0  0  0  0
  187.2880  175.2380  137.2030 C   0  0  0  0  0  2  0  0  0  0  0  0
  188.3740  176.2620  137.4400 C   0  0  0  0  0  0  0  0  0  0  0  0
  188.1400  177.5460  137.7820 C   0  0  0  0  0  3  0  0  0  0  0  0
  185.3670  176.6820  136.6220 C   0  0  0  0  0  0  0  0  0  0  0  0
  186.8210  178.2890  137.8340 C   0  0  0  0  0  2  0  0  0  0  0  0
  185.5700  177.4150  137.9270 C   0  0  1  0  0  3  0  0  0  0  0  0
  189.7640  175.7660  137.4210 C   0  0  0  0  0  0  0  0  0  0  0  0
  190.4220  175.4920  138.6160 O   0  0  0  0  0  1  0  0  0  0  0  0
  190.3700  175.5860  136.3390 O   0  0  0  0  0  0  0  0  0  0  0  0
  184.7030  178.7500  140.8700 C   0  0  0  0  0  0  0  0  0  0  0  0
  184.1270  177.9740  139.8160 N   0  0  0  0  0  2  0  0  0  0  0  0
  185.4160  179.7510  140.6140 O   0  0  0  0  0  0  0  0  0  0  0  0
  184.4840  178.3470  142.2820 C   0  0  0  0  0  2  0  0  0  0  0  0
  185.5640  178.7640  143.0670 O   0  0  0  0  0  0  0  0  0  0  0  0
  187.4850  177.3600  143.3010 C   0  0  0  0  0  2  0  0  0  0  0  0
  186.0350  177.7900  145.2000 C   0  0  0  0  0  2  0  0  0  0  0  0
  190.1320  177.4890  146.0890 C   0  0  1  0  0  3  0  0  0  0  0  0
  189.5380  176.9860  144.7600 C   0  0  0  0  0  2  0  0  0  0  0  0
  188.2110  177.6870  144.5780 C   0  0  2  0  0  3  0  0  0  0  0  0
  187.7590  177.9770  146.8550 C   0  0  0  0  0  2  0  0  0  0  0  0
  187.3180  177.2930  145.6480 N   0  0  1  0  0  0  0  0  0  0  0  0
  189.1260  177.4090  147.2560 C   0  0  0  0  0  2  0  0  0  0  0  0
  186.0290  177.5990  143.6790 C   0  0  1  0  0  3  0  0  0  0  0  0
  191.3840  176.7410  146.4260 C   0  0  0  0  0  0  0  0  0  0  0  0
  191.9730  176.0440  145.5560 O   0  0  0  0  0  0  0  0  0  0  0  0
  191.9080  176.8260  147.7070 O   0  0  0  0  0  1  0  0  0  0  0  0
  1 19  1  1  0  0  0
  2 12  2  0  0  0  0
  2  9  1  0  0  0  0
  3  6  1  0  0  0  0
  3 12  1  0  0  0  0
  4  5  1  0  0  0  0
  6  7  1  0  0  0  0
  7  4  2  0  0  0  0
  7  1  1  0  0  0  0
  8  4  1  0  0  0  0
  9 10  1  0  0  0  0
 10 11  2  0  0  0  0
 11 13  1  0  0  0  0
 12 14  1  0  0  0  0
 14 13  1  6  0  0  0
 14  1  1  0  0  0  0
 15 10  1  0  0  0  0
 15 16  1  0  0  0  0
 17 15  2  0  0  0  0
 18 21  1  0  0  0  0
 19 18  1  0  0  0  0
 20 18  2  0  0  0  0
 21 22  1  0  0  0  0
 23 31  1  0  0  0  0
 25 32  1  1  0  0  0
 25 30  1  0  0  0  0
 26 25  1  0  0  0  0
 27 23  1  6  0  0  0
 27 26  1  0  0  0  0
 27 29  1  0  0  0  0
 28 30  1  0  0  0  0
 29 24  1  6  0  0  0
 29 28  1  0  0  0  0
 31 22  1  6  0  0  0
 31 24  1  0  0  0  0
 32 34  1  0  0  0  0
 33 32  2  0  0  0  0
M  END
>  <MODEL>
1

>  <REMARK>
 VINA RESULT:      -8.5      0.000      0.000
  Name = 
  6 active torsions:
  status: ('A' for Active; 'I' for Inactive)
    1  A    between atoms: C_1  and  N_9
    2  A    between atoms: C_3  and  C_25
    3  A    between atoms: C_7  and  C_11
    4  A    between atoms: C_8  and  C_18
    5  A    between atoms: C_18  and  O_30
    6  A    between atoms: O_30  and  C_31
                            x       y       z     vdW  Elec       q    Type
                         _______ _______ _______ _____ _____    ______ ____

>  <TORSDO>
F 6

$$$$
=
 OpenBabel11052415513D

 34 37  0  0  1  0  0  0  0  0999 V2000
  185.3790  178.1290  143.1670 C   0  0  2  0  0  3  0  0  0  0  0  0
  185.6170  179.1060  146.8360 C   0  0  0  0  0  3  0  0  0  0  0  0
  183.6300  178.6750  145.4880 C   0  0  0  0  0  2  0  0  0  0  0  0
  183.2390  178.4460  141.9010 C   0  0  0  0  0  0  0  0  0  0  0  0
  183.7930  177.6670  140.7470 C   0  0  0  0  0  1  0  0  0  0  0  0
  183.3210  179.3880  144.1860 C   0  0  0  0  0  2  0  0  0  0  0  0
  183.9470  178.6380  143.0400 C   0  0  0  0  0  0  0  0  0  0  0  0
  181.8360  178.9540  141.7580 C   0  0  0  0  0  1  0  0  0  0  0  0
  187.1020  179.2300  147.0310 C   0  0  0  0  0  2  0  0  0  0  0  0
  187.8480  177.9160  147.0160 C   0  0  0  0  0  0  0  0  0  0  0  0
  187.6990  176.9730  146.0630 C   0  0  0  0  0  3  0  0  0  0  0  0
  185.1070  178.6800  145.6790 C   0  0  0  0  0  0  0  0  0  0  0  0
  186.6850  176.9120  144.9390 C   0  0  0  0  0  2  0  0  0  0  0  0
  186.0270  178.2410  144.5660 C   0  0  1  0  0  3  0  0  0  0  0  0
  188.8920  177.7370  148.0450 C   0  0  0  0  0  0  0  0  0  0  0  0
  190.0160  176.9650  147.7700 O   0  0  0  0  0  0  0  0  0  0  0  0
  188.7850  178.2740  149.1720 O   0  0  0  0  0  1  0  0  0  0  0  0
  187.4370  178.2100  141.6990 C   0  0  0  0  0  0  0  0  0  0  0  0
  186.2340  178.8010  142.1980 N   0  0  0  0  0  2  0  0  0  0  0  0
  187.7790  177.0540  142.0530 O   0  0  0  0  0  0  0  0  0  0  0  0
  188.3090  178.9830  140.7800 C   0  0  0  0  0  2  0  0  0  0  0  0
  188.0090  178.6570  139.4540 O   0  0  0  0  0  0  0  0  0  0  0  0
  190.0940  177.4900  139.3650 C   0  0  0  0  0  2  0  0  0  0  0  0
  189.0370  178.2800  137.3270 C   0  0  0  0  0  2  0  0  0  0  0  0
  191.0400  174.5990  137.0110 C   0  0  1  0  0  3  0  0  0  0  0  0
  191.2740  175.5660  138.1860 C   0  0  0  0  0  2  0  0  0  0  0  0
  190.0770  176.4880  138.2420 C   0  0  2  0  0  3  0  0  0  0  0  0
  189.5650  176.3820  135.9620 C   0  0  0  0  0  2  0  0  0  0  0  0
  190.0230  177.2670  137.0230 N   0  0  1  0  0  0  0  0  0  0  0  0
  190.6530  175.3310  135.7080 C   0  0  0  0  0  2  0  0  0  0  0  0
  189.2440  178.6240  138.8060 C   0  0  1  0  0  3  0  0  0  0  0  0
  192.2440  173.7370  136.7870 C   0  0  0  0  0  0  0  0  0  0  0  0
  193.3290  173.9770  137.3830 O   0  0  0  0  0  1  0  0  0  0  0  0
  192.1600  172.6560  135.9220 O   0  0  0  0  0  0  0  0  0  0  0  0
  1 19  1  6  0  0  0
  1 14  1  0  0  0  0
  2  9  1  0  0  0  0
  3 12  1  0  0  0  0
  4  7  2  0  0  0  0
  5  4  1  0  0  0  0
  6  3  1  0  0  0  0
  7  1  1  0  0  0  0
  7  6  1  0  0  0  0
  8  4  1  0  0  0  0
 10  9  1  0  0  0  0
 10 15  1  0  0  0  0
 11 10  2  0  0  0  0
 12  2  2  0  0  0  0
 13 11  1  0  0  0  0
 14 13  1  1  0  0  0
 14 12  1  0  0  0  0
 15 17  1  0  0  0  0
 16 15  2  0  0  0  0
 18 20  2  0  0  0  0
 18 19  1  0  0  0  0
 21 18  1  0  0  0  0
 22 21  1  0  0  0  0
 24 31  1  0  0  0  0
 25 32  1  6  0  0  0
 25 26  1  0  0  0  0
 27 26  1  6  0  0  0
 27 23  1  0  0  0  0
 29 28  1  6  0  0  0
 29 24  1  0  0  0  0
 29 27  1  0  0  0  0
 30 28  1  0  0  0  0
 30 25  1  0  0  0  0
 31 23  1  0  0  0  0
 31 22  1  1  0  0  0
 32 33  1  0  0  0  0
 34 32  2  0  0  0  0
M  END
>  <MODEL>
2

>  <REMARK>
 VINA RESULT:      -8.5      2.868      8.212
  Name = 
  6 active torsions:
  status: ('A' for Active; 'I' for Inactive)
    1  A    between atoms: C_1  and  N_9
    2  A    between atoms: C_3  and  C_25
    3  A    between atoms: C_7  and  C_11
    4  A    between atoms: C_8  and  C_18
    5  A    between atoms: C_18  and  O_30
    6  A    between atoms: O_30  and  C_31
                            x       y       z     vdW  Elec       q    Type
                         _______ _______ _______ _____ _____    ______ ____

>  <TORSDO>
F 6

$$$$
=
 OpenBabel11052415513D

 34 37  0  0  1  0  0  0  0  0999 V2000
  190.8190  176.6910  138.0630 C   0  0  2  0  0  3  0  0  0  0  0  0
  192.3380  173.9740  135.8760 C   0  0  0  0  0  3  0  0  0  0  0  0
  190.9660  175.8820  135.2220 C   0  0  0  0  0  2  0  0  0  0  0  0
  188.9110  178.0830  137.2250 C   0  0  0  0  0  0  0  0  0  0  0  0
  189.0430  178.9950  138.4050 C   0  0  0  0  0  1  0  0  0  0  0  0
  189.5980  176.1780  135.8050 C   0  0  0  0  0  2  0  0  0  0  0  0
  189.7470  177.0340  137.0350 C   0  0  0  0  0  0  0  0  0  0  0  0
  187.8430  178.4210  136.2290 C   0  0  0  0  0  1  0  0  0  0  0  0
  193.0380  173.1120  136.8890 C   0  0  0  0  0  2  0  0  0  0  0  0
  194.2720  173.7380  137.4980 C   0  0  0  0  0  0  0  0  0  0  0  0
  194.3100  174.9840  138.0140 C   0  0  0  0  0  3  0  0  0  0  0  0
  191.7420  175.1120  136.2350 C   0  0  0  0  0  0  0  0  0  0  0  0
  193.2540  176.0680  137.9570 C   0  0  0  0  0  2  0  0  0  0  0  0
  191.8310  175.5920  137.6630 C   0  0  1  0  0  3  0  0  0  0  0  0
  195.4520  172.8630  137.6450 C   0  0  0  0  0  0  0  0  0  0  0  0
  195.7220  171.8910  136.6880 O   0  0  0  0  0  0  0  0  0  0  0  0
  196.2240  172.9810  138.6260 O   0  0  0  0  0  1  0  0  0  0  0  0
  190.6930  176.7750  140.5890 C   0  0  0  0  0  0  0  0  0  0  0  0
  190.1970  176.3190  139.3270 N   0  0  0  0  0  2  0  0  0  0  0  0
  191.6710  177.5600  140.6470 O   0  0  0  0  0  0  0  0  0  0  0  0
  190.0670  176.2880  141.8430 C   0  0  0  0  0  2  0  0  0  0  0  0
  190.9860  176.3660  142.8940 O   0  0  0  0  0  0  0  0  0  0  0  0
  189.1730  177.8490  143.3710 C   0  0  0  0  0  2  0  0  0  0  0  0
  190.8080  177.3120  145.0830 C   0  0  0  0  0  2  0  0  0  0  0  0
  186.8570  177.7760  146.4410 C   0  0  1  0  0  3  0  0  0  0  0  0
  187.3200  178.2820  145.0630 C   0  0  0  0  0  2  0  0  0  0  0  0
  188.5830  177.5270  144.7170 C   0  0  2  0  0  3  0  0  0  0  0  0
  189.2770  177.1650  146.9220 C   0  0  0  0  0  2  0  0  0  0  0  0
  189.6100  177.8550  145.6840 N   0  0  1  0  0  0  0  0  0  0  0  0
  187.9930  177.7840  147.4870 C   0  0  0  0  0  2  0  0  0  0  0  0
  190.6500  177.5360  143.5760 C   0  0  1  0  0  3  0  0  0  0  0  0
  185.6890  178.5720  146.9330 C   0  0  0  0  0  0  0  0  0  0  0  0
  184.5110  178.1510  146.7770 O   0  0  0  0  0  0  0  0  0  0  0  0
  185.9060  179.7810  147.5770 O   0  0  0  0  0  1  0  0  0  0  0  0
  1 19  1  1  0  0  0
  2 12  2  0  0  0  0
  2  9  1  0  0  0  0
  3  6  1  0  0  0  0
  3 12  1  0  0  0  0
  4  5  1  0  0  0  0
  6  7  1  0  0  0  0
  7  4  2  0  0  0  0
  7  1  1  0  0  0  0
  8  4  1  0  0  0  0
  9 10  1  0  0  0  0
 10 15  1  0  0  0  0
 10 11  2  0  0  0  0
 12 14  1  0  0  0  0
 13 11  1  0  0  0  0
 14 13  1  6  0  0  0
 14  1  1  0  0  0  0
 15 17  1  0  0  0  0
 16 15  2  0  0  0  0
 18 20  2  0  0  0  0
 18 21  1  0  0  0  0
 19 18  1  0  0  0  0
 21 22  1  0  0  0  0
 23 31  1  0  0  0  0
 25 32  1  1  0  0  0
 25 30  1  0  0  0  0
 26 25  1  0  0  0  0
 27 23  1  6  0  0  0
 27 26  1  0  0  0  0
 27 29  1  0  0  0  0
 28 30  1  0  0  0  0
 29 24  1  6  0  0  0
 29 28  1  0  0  0  0
 31 22  1  6  0  0  0
 31 24  1  0  0  0  0
 32 34  1  0  0  0  0
 33 32  2  0  0  0  0
M  END
>  <MODEL>
3

>  <REMARK>
 VINA RESULT:      -8.4      3.770      5.873
  Name = 
  6 active torsions:
  status: ('A' for Active; 'I' for Inactive)
    1  A    between atoms: C_1  and  N_9
    2  A    between atoms: C_3  and  C_25
    3  A    between atoms: C_7  and  C_11
    4  A    between atoms: C_8  and  C_18
    5  A    between atoms: C_18  and  O_30
    6  A    between atoms: O_30  and  C_31
                            x       y       z     vdW  Elec       q    Type
                         _______ _______ _______ _____ _____    ______ ____

>  <TORSDO>
F 6

$$$$
=
 OpenBabel11052415513D

 34 37  0  0  1  0  0  0  0  0999 V2000
  182.9360  177.6380  139.6770 C   0  0  2  0  0  3  0  0  0  0  0  0
  183.5160  174.5730  137.5010 C   0  0  0  0  0  3  0  0  0  0  0  0
  181.4080  175.5360  138.2650 C   0  0  0  0  0  2  0  0  0  0  0  0
  180.7510  177.9650  140.8610 C   0  0  0  0  0  0  0  0  0  0  0  0
  181.1510  179.3590  141.2380 C   0  0  0  0  0  1  0  0  0  0  0  0
  181.0760  175.7950  139.7210 C   0  0  0  0  0  2  0  0  0  0  0  0
  181.5500  177.1700  140.1100 C   0  0  0  0  0  0  0  0  0  0  0  0
  179.3940  177.5110  141.3060 C   0  0  0  0  0  1  0  0  0  0  0  0
  185.0150  174.5230  137.4230 C   0  0  0  0  0  2  0  0  0  0  0  0
  185.6360  175.6150  136.5830 C   0  0  0  0  0  0  0  0  0  0  0  0
  185.3360  176.9250  136.7050 C   0  0  0  0  0  3  0  0  0  0  0  0
  182.8900  175.5790  138.1140 C   0  0  0  0  0  0  0  0  0  0  0  0
  184.2450  177.5760  137.5300 C   0  0  0  0  0  2  0  0  0  0  0  0
  183.6870  176.7310  138.6760 C   0  0  1  0  0  3  0  0  0  0  0  0
  186.7280  175.2110  135.6760 C   0  0  0  0  0  0  0  0  0  0  0  0
  187.9390  175.8960  135.6940 O   0  0  0  0  0  1  0  0  0  0  0  0
  186.5850  174.2520  134.8820 O   0  0  0  0  0  0  0  0  0  0  0  0
  184.7250  178.9180  140.9270 C   0  0  0  0  0  0  0  0  0  0  0  0
  183.7790  177.8480  140.8460 N   0  0  0  0  0  2  0  0  0  0  0  0
  184.8290  179.7530  139.9940 O   0  0  0  0  0  0  0  0  0  0  0  0
  185.6160  179.0240  142.1090 C   0  0  0  0  0  2  0  0  0  0  0  0
  186.9250  178.6920  141.7480 O   0  0  0  0  0  0  0  0  0  0  0  0
  188.7150  177.3380  142.5710 C   0  0  0  0  0  2  0  0  0  0  0  0
  186.7150  177.6800  143.9050 C   0  0  0  0  0  2  0  0  0  0  0  0
  190.3130  177.4730  146.0670 C   0  0  1  0  0  3  0  0  0  0  0  0
  190.1980  176.9860  144.6110 C   0  0  0  0  0  2  0  0  0  0  0  0
  188.9770  177.6540  144.0190 C   0  0  2  0  0  3  0  0  0  0  0  0
  187.8040  177.8740  146.0310 C   0  0  0  0  0  2  0  0  0  0  0  0
  187.8010  177.2090  144.7360 N   0  0  1  0  0  0  0  0  0  0  0  0
  188.9870  177.3360  146.8450 C   0  0  0  0  0  2  0  0  0  0  0  0
  187.2070  177.5270  142.4610 C   0  0  1  0  0  3  0  0  0  0  0  0
  191.4140  176.7530  146.7810 C   0  0  0  0  0  0  0  0  0  0  0  0
  192.0550  175.8290  146.2110 O   0  0  0  0  0  0  0  0  0  0  0  0
  191.7400  177.1140  148.0800 O   0  0  0  0  0  1  0  0  0  0  0  0
  1  7  1  0  0  0  0
  1 19  1  1  0  0  0
  2 12  2  0  0  0  0
  3  6  1  0  0  0  0
  4  5  1  0  0  0  0
  4  8  1  0  0  0  0
  6  7  1  0  0  0  0
  7  4  2  0  0  0  0
  9  2  1  0  0  0  0
 10 11  2  0  0  0  0
 10  9  1  0  0  0  0
 11 13  1  0  0  0  0
 12  3  1  0  0  0  0
 12 14  1  0  0  0  0
 14 13  1  6  0  0  0
 14  1  1  0  0  0  0
 15 16  1  0  0  0  0
 15 10  1  0  0  0  0
 17 15  2  0  0  0  0
 18 21  1  0  0  0  0
 19 18  1  0  0  0  0
 20 18  2  0  0  0  0
 22 21  1  0  0  0  0
 25 32  1  1  0  0  0
 25 30  1  0  0  0  0
 26 25  1  0  0  0  0
 27 23  1  6  0  0  0
 27 26  1  0  0  0  0
 27 29  1  0  0  0  0
 28 30  1  0  0  0  0
 29 24  1  6  0  0  0
 29 28  1  0  0  0  0
 31 22  1  6  0  0  0
 31 23  1  0  0  0  0
 31 24  1  0  0  0  0
 32 34  1  0  0  0  0
 33 32  2  0  0  0  0
M  END
>  <MODEL>
4

>  <REMARK>
 VINA RESULT:      -8.2      1.970      2.452
  Name = 
  6 active torsions:
  status: ('A' for Active; 'I' for Inactive)
    1  A    between atoms: C_1  and  N_9
    2  A    between atoms: C_3  and  C_25
    3  A    between atoms: C_7  and  C_11
    4  A    between atoms: C_8  and  C_18
    5  A    between atoms: C_18  and  O_30
    6  A    between atoms: O_30  and  C_31
                            x       y       z     vdW  Elec       q    Type
                         _______ _______ _______ _____ _____    ______ ____

>  <TORSDO>
F 6

$$$$
=
 OpenBabel11052415513D

 34 37  0  0  1  0  0  0  0  0999 V2000
  183.9800  177.8870  137.5710 C   0  0  2  0  0  3  0  0  0  0  0  0
  186.2630  175.2070  136.1280 C   0  0  0  0  0  3  0  0  0  0  0  0
  184.2910  176.2440  135.1320 C   0  0  0  0  0  2  0  0  0  0  0  0
  181.6790  178.2350  136.6420 C   0  0  0  0  0  0  0  0  0  0  0  0
  181.5310  179.4890  137.4480 C   0  0  0  0  0  1  0  0  0  0  0  0
  182.9280  176.2770  135.7940 C   0  0  0  0  0  2  0  0  0  0  0  0
  182.8180  177.5030  136.6620 C   0  0  0  0  0  0  0  0  0  0  0  0
  180.5230  177.8600  135.7650 C   0  0  0  0  0  1  0  0  0  0  0  0
  187.2550  175.0100  137.2390 C   0  0  0  0  0  2  0  0  0  0  0  0
  188.2180  176.1590  137.4300 C   0  0  0  0  0  0  0  0  0  0  0  0
  187.8420  177.4520  137.5230 C   0  0  0  0  0  3  0  0  0  0  0  0
  185.3230  176.1520  136.2030 C   0  0  0  0  0  0  0  0  0  0  0  0
  186.4750  178.0620  137.2940 C   0  0  0  0  0  2  0  0  0  0  0  0
  185.2940  177.0940  137.3820 C   0  0  1  0  0  3  0  0  0  0  0  0
  189.6320  175.8050  137.6600 C   0  0  0  0  0  0  0  0  0  0  0  0
  190.1310  174.5910  137.1970 O   0  0  0  0  0  0  0  0  0  0  0  0
  190.4010  176.5840  138.2700 O   0  0  0  0  0  1  0  0  0  0  0  0
  183.8930  178.8070  139.9260 C   0  0  0  0  0  0  0  0  0  0  0  0
  183.5730  177.7960  138.9660 N   0  0  0  0  0  2  0  0  0  0  0  0
  184.5070  179.8470  139.5810 O   0  0  0  0  0  0  0  0  0  0  0  0
  183.5240  178.6110  141.3500 C   0  0  0  0  0  2  0  0  0  0  0  0
  184.4440  177.7560  141.9650 O   0  0  0  0  0  0  0  0  0  0  0  0
  185.1900  178.6170  144.0670 C   0  0  0  0  0  2  0  0  0  0  0  0
  186.7900  178.0470  142.3320 C   0  0  0  0  0  2  0  0  0  0  0  0
  188.0300  177.2400  146.2660 C   0  0  1  0  0  3  0  0  0  0  0  0
  186.8460  178.1720  145.9500 C   0  0  0  0  0  2  0  0  0  0  0  0
  186.3830  177.8370  144.5500 C   0  0  2  0  0  3  0  0  0  0  0  0
  188.4580  177.0940  143.7650 C   0  0  0  0  0  2  0  0  0  0  0  0
  187.4490  178.1330  143.6160 N   0  0  1  0  0  0  0  0  0  0  0  0
  189.0980  177.2400  145.1510 C   0  0  0  0  0  2  0  0  0  0  0  0
  185.3810  178.6060  142.5550 C   0  0  1  0  0  3  0  0  0  0  0  0
  188.6490  177.5980  147.5810 C   0  0  0  0  0  0  0  0  0  0  0  0
  189.8190  177.2220  147.8660 O   0  0  0  0  0  0  0  0  0  0  0  0
  187.9320  178.3600  148.4910 O   0  0  0  0  0  1  0  0  0  0  0  0
  1 19  1  1  0  0  0
  2 12  2  0  0  0  0
  2  9  1  0  0  0  0
  3  6  1  0  0  0  0
  3 12  1  0  0  0  0
  4  7  2  0  0  0  0
  4  5  1  0  0  0  0
  6  7  1  0  0  0  0
  7  1  1  0  0  0  0
  8  4  1  0  0  0  0
  9 10  1  0  0  0  0
 10 11  2  0  0  0  0
 10 15  1  0  0  0  0
 12 14  1  0  0  0  0
 13 11  1  0  0  0  0
 14 13  1  6  0  0  0
 14  1  1  0  0  0  0
 15 17  1  0  0  0  0
 16 15  2  0  0  0  0
 18 21  1  0  0  0  0
 19 18  1  0  0  0  0
 20 18  2  0  0  0  0
 21 22  1  0  0  0  0
 24 31  1  0  0  0  0
 25 32  1  1  0  0  0
 26 25  1  0  0  0  0
 27 23  1  6  0  0  0
 27 26  1  0  0  0  0
 28 30  1  0  0  0  0
 29 24  1  6  0  0  0
 29 28  1  0  0  0  0
 29 27  1  0  0  0  0
 30 25  1  0  0  0  0
 31 22  1  6  0  0  0
 31 23  1  0  0  0  0
 32 33  2  0  0  0  0
 32 34  1  0  0  0  0
M  END
>  <MODEL>
5

>  <REMARK>
 VINA RESULT:      -7.9      1.334      1.942
  Name = 
  6 active torsions:
  status: ('A' for Active; 'I' for Inactive)
    1  A    between atoms: C_1  and  N_9
    2  A    between atoms: C_3  and  C_25
    3  A    between atoms: C_7  and  C_11
    4  A    between atoms: C_8  and  C_18
    5  A    between atoms: C_18  and  O_30
    6  A    between atoms: O_30  and  C_31
                            x       y       z     vdW  Elec       q    Type
                         _______ _______ _______ _____ _____    ______ ____

>  <TORSDO>
F 6

$$$$
=
 OpenBabel11052415513D

 34 37  0  0  1  0  0  0  0  0999 V2000
  189.8920  175.5820  137.3800 C   0  0  2  0  0  3  0  0  0  0  0  0
  192.6230  173.1190  136.4050 C   0  0  0  0  0  3  0  0  0  0  0  0
  190.3590  173.3310  135.5200 C   0  0  0  0  0  2  0  0  0  0  0  0
  187.4950  175.1130  136.8210 C   0  0  0  0  0  0  0  0  0  0  0  0
  187.1150  176.5020  137.2340 C   0  0  0  0  0  1  0  0  0  0  0  0
  189.1090  173.2940  136.3780 C   0  0  0  0  0  2  0  0  0  0  0  0
  188.7790  174.6850  136.8500 C   0  0  0  0  0  0  0  0  0  0  0  0
  186.3890  174.2360  136.3170 C   0  0  0  0  0  1  0  0  0  0  0  0
  193.7420  173.5120  137.3270 C   0  0  0  0  0  2  0  0  0  0  0  0
  194.3920  174.8360  136.9940 C   0  0  0  0  0  0  0  0  0  0  0  0
  193.7090  175.9770  136.7680 C   0  0  0  0  0  3  0  0  0  0  0  0
  191.4860  173.8160  136.3660 C   0  0  0  0  0  0  0  0  0  0  0  0
  192.2150  176.1760  136.6200 C   0  0  0  0  0  2  0  0  0  0  0  0
  191.3380  175.0660  137.2000 C   0  0  1  0  0  3  0  0  0  0  0  0
  195.8660  174.8820  137.0600 C   0  0  0  0  0  0  0  0  0  0  0  0
  196.6150  174.9320  135.8880 O   0  0  0  0  0  0  0  0  0  0  0  0
  196.4640  174.8780  138.1620 O   0  0  0  0  0  1  0  0  0  0  0  0
  189.6830  177.2050  139.3100 C   0  0  0  0  0  0  0  0  0  0  0  0
  189.6690  175.8720  138.7900 N   0  0  0  0  0  2  0  0  0  0  0  0
  189.8470  178.1890  138.5470 O   0  0  0  0  0  0  0  0  0  0  0  0
  189.5370  177.4260  140.7700 C   0  0  0  0  0  2  0  0  0  0  0  0
  190.6740  176.9600  141.4370 O   0  0  0  0  0  0  0  0  0  0  0  0
  190.8520  176.5380  143.7830 C   0  0  0  0  0  2  0  0  0  0  0  0
  188.6910  176.4620  142.6790 C   0  0  0  0  0  2  0  0  0  0  0  0
  188.6690  178.0190  146.5830 C   0  0  1  0  0  3  0  0  0  0  0  0
  189.8500  177.2010  146.0290 C   0  0  0  0  0  2  0  0  0  0  0  0
  189.7490  177.2490  144.5200 C   0  0  2  0  0  3  0  0  0  0  0  0
  187.4260  177.5050  144.4270 C   0  0  0  0  0  2  0  0  0  0  0  0
  188.5210  176.6010  144.1080 N   0  0  1  0  0  0  0  0  0  0  0  0
  187.3190  177.6130  145.9530 C   0  0  0  0  0  2  0  0  0  0  0  0
  190.1790  176.1610  142.4690 C   0  0  1  0  0  3  0  0  0  0  0  0
  188.6030  177.9090  148.0740 C   0  0  0  0  0  0  0  0  0  0  0  0
  187.5560  177.4990  148.6450 O   0  0  0  0  0  0  0  0  0  0  0  0
  189.7100  178.2530  148.8360 O   0  0  0  0  0  1  0  0  0  0  0  0
  1 19  1  1  0  0  0
  2  9  1  0  0  0  0
  3 12  1  0  0  0  0
  3  6  1  0  0  0  0
  4  7  2  0  0  0  0
  4  5  1  0  0  0  0
  6  7  1  0  0  0  0
  7  1  1  0  0  0  0
  8  4  1  0  0  0  0
 10 15  1  0  0  0  0
 10  9  1  0  0  0  0
 11 10  2  0  0  0  0
 12  2  2  0  0  0  0
 12 14  1  0  0  0  0
 13 11  1  0  0  0  0
 14 13  1  6  0  0  0
 14  1  1  0  0  0  0
 15 17  1  0  0  0  0
 16 15  2  0  0  0  0
 18 21  1  0  0  0  0
 19 18  1  0  0  0  0
 20 18  2  0  0  0  0
 21 22  1  0  0  0  0
 25 32  1  1  0  0  0
 26 25  1  0  0  0  0
 27 23  1  6  0  0  0
 27 26  1  0  0  0  0
 28 30  1  0  0  0  0
 29 24  1  6  0  0  0
 29 28  1  0  0  0  0
 29 27  1  0  0  0  0
 30 25  1  0  0  0  0
 31 22  1  6  0  0  0
 31 24  1  0  0  0  0
 31 23  1  0  0  0  0
 32 33  2  0  0  0  0
 32 34  1  0  0  0  0
M  END
>  <MODEL>
6

>  <REMARK>
 VINA RESULT:      -7.9      3.384      5.455
  Name = 
  6 active torsions:
  status: ('A' for Active; 'I' for Inactive)
    1  A    between atoms: C_1  and  N_9
    2  A    between atoms: C_3  and  C_25
    3  A    between atoms: C_7  and  C_11
    4  A    between atoms: C_8  and  C_18
    5  A    between atoms: C_18  and  O_30
    6  A    between atoms: O_30  and  C_31
                            x       y       z     vdW  Elec       q    Type
                         _______ _______ _______ _____ _____    ______ ____

>  <TORSDO>
F 6

$$$$
=
 OpenBabel11052415513D

 34 37  0  0  1  0  0  0  0  0999 V2000
  188.3900  176.1890  136.8240 C   0  0  2  0  0  3  0  0  0  0  0  0
  191.0370  173.5030  136.3160 C   0  0  0  0  0  3  0  0  0  0  0  0
  188.9020  173.7910  135.1700 C   0  0  0  0  0  2  0  0  0  0  0  0
  186.0410  175.8290  136.0270 C   0  0  0  0  0  0  0  0  0  0  0  0
  185.7140  177.2630  136.3090 C   0  0  0  0  0  1  0  0  0  0  0  0
  187.5670  173.8880  135.8820 C   0  0  0  0  0  2  0  0  0  0  0  0
  187.2830  175.3260  136.2270 C   0  0  0  0  0  0  0  0  0  0  0  0
  184.9400  174.9870  135.4570 C   0  0  0  0  0  1  0  0  0  0  0  0
  192.0730  173.8900  137.3320 C   0  0  0  0  0  2  0  0  0  0  0  0
  192.8440  175.1450  136.9940 C   0  0  0  0  0  0  0  0  0  0  0  0
  192.2690  176.3080  136.6230 C   0  0  0  0  0  3  0  0  0  0  0  0
  189.9600  174.2630  136.1060 C   0  0  0  0  0  0  0  0  0  0  0  0
  190.8170  176.5860  136.2940 C   0  0  0  0  0  2  0  0  0  0  0  0
  189.8080  175.5740  136.8390 C   0  0  1  0  0  3  0  0  0  0  0  0
  194.3020  175.1060  137.2220 C   0  0  0  0  0  0  0  0  0  0  0  0
  195.1610  174.7570  136.1850 O   0  0  0  0  0  0  0  0  0  0  0  0
  194.7870  175.3860  138.3440 O   0  0  0  0  0  1  0  0  0  0  0  0
  188.1340  177.9420  138.6290 C   0  0  0  0  0  0  0  0  0  0  0  0
  188.0360  176.5880  138.1790 N   0  0  0  0  0  2  0  0  0  0  0  0
  188.4940  178.8540  137.8440 O   0  0  0  0  0  0  0  0  0  0  0  0
  187.8420  178.2670  140.0480 C   0  0  0  0  0  2  0  0  0  0  0  0
  189.0310  178.2940  140.7830 O   0  0  0  0  0  0  0  0  0  0  0  0
  190.3560  176.7930  142.0900 C   0  0  0  0  0  2  0  0  0  0  0  0
  188.1850  177.5310  142.8870 C   0  0  0  0  0  2  0  0  0  0  0  0
  191.1260  177.0450  145.8500 C   0  0  1  0  0  3  0  0  0  0  0  0
  191.2680  176.4400  144.4410 C   0  0  0  0  0  2  0  0  0  0  0  0
  190.3310  177.2080  143.5360 C   0  0  2  0  0  3  0  0  0  0  0  0
  188.7830  177.7790  145.1950 C   0  0  0  0  0  2  0  0  0  0  0  0
  188.9680  176.9990  143.9800 N   0  0  1  0  0  0  0  0  0  0  0  0
  189.6530  177.1660  146.2980 C   0  0  0  0  0  2  0  0  0  0  0  0
  188.9600  177.1750  141.6140 C   0  0  1  0  0  3  0  0  0  0  0  0
  191.9120  176.2530  146.8480 C   0  0  0  0  0  0  0  0  0  0  0  0
  192.1100  176.6970  148.0110 O   0  0  0  0  0  1  0  0  0  0  0  0
  192.4180  175.0120  146.4920 O   0  0  0  0  0  0  0  0  0  0  0  0
  1 14  1  0  0  0  0
  1 19  1  1  0  0  0
  2  9  1  0  0  0  0
  3  6  1  0  0  0  0
  3 12  1  0  0  0  0
  4  7  2  0  0  0  0
  4  5  1  0  0  0  0
  6  7  1  0  0  0  0
  7  1  1  0  0  0  0
  8  4  1  0  0  0  0
 10 15  1  0  0  0  0
 10  9  1  0  0  0  0
 11 10  2  0  0  0  0
 12  2  2  0  0  0  0
 12 14  1  0  0  0  0
 13 11  1  0  0  0  0
 14 13  1  6  0  0  0
 15 17  1  0  0  0  0
 16 15  2  0  0  0  0
 18 21  1  0  0  0  0
 19 18  1  0  0  0  0
 20 18  2  0  0  0  0
 21 22  1  0  0  0  0
 25 30  1  0  0  0  0
 25 32  1  1  0  0  0
 26 25  1  0  0  0  0
 27 23  1  6  0  0  0
 27 29  1  0  0  0  0
 27 26  1  0  0  0  0
 28 30  1  0  0  0  0
 29 24  1  6  0  0  0
 29 28  1  0  0  0  0
 31 22  1  6  0  0  0
 31 23  1  0  0  0  0
 31 24  1  0  0  0  0
 32 33  1  0  0  0  0
 34 32  2  0  0  0  0
M  END
>  <MODEL>
7

>  <REMARK>
 VINA RESULT:      -7.8      2.699      4.203
  Name = 
  6 active torsions:
  status: ('A' for Active; 'I' for Inactive)
    1  A    between atoms: C_1  and  N_9
    2  A    between atoms: C_3  and  C_25
    3  A    between atoms: C_7  and  C_11
    4  A    between atoms: C_8  and  C_18
    5  A    between atoms: C_18  and  O_30
    6  A    between atoms: O_30  and  C_31
                            x       y       z     vdW  Elec       q    Type
                         _______ _______ _______ _____ _____    ______ ____

>  <TORSDO>
F 6

$$$$
=
 OpenBabel11052415513D

 34 37  0  0  1  0  0  0  0  0999 V2000
  183.3900  178.4900  141.3770 C   0  0  2  0  0  3  0  0  0  0  0  0
  182.3860  177.0170  138.0150 C   0  0  0  0  0  3  0  0  0  0  0  0
  181.0040  178.1820  139.6550 C   0  0  0  0  0  2  0  0  0  0  0  0
  181.6580  178.9810  143.1200 C   0  0  0  0  0  0  0  0  0  0  0  0
  182.6770  179.7060  143.9440 C   0  0  0  0  0  1  0  0  0  0  0  0
  180.8870  177.7670  141.1080 C   0  0  0  0  0  2  0  0  0  0  0  0
  181.9640  178.4430  141.9150 C   0  0  0  0  0  0  0  0  0  0  0  0
  180.2640  178.9280  143.6680 C   0  0  0  0  0  1  0  0  0  0  0  0
  183.6840  176.4400  137.5260 C   0  0  0  0  0  2  0  0  0  0  0  0
  184.7110  177.4690  137.1140 C   0  0  0  0  0  0  0  0  0  0  0  0
  185.0630  178.5300  137.8690 C   0  0  0  0  0  3  0  0  0  0  0  0
  182.3270  177.7200  139.1480 C   0  0  0  0  0  0  0  0  0  0  0  0
  184.4360  179.0310  139.1540 C   0  0  0  0  0  2  0  0  0  0  0  0
  183.5910  178.0130  139.9200 C   0  0  1  0  0  3  0  0  0  0  0  0
  185.4520  177.1990  135.8660 C   0  0  0  0  0  0  0  0  0  0  0  0
  186.8340  177.3610  135.8270 O   0  0  0  0  0  1  0  0  0  0  0  0
  184.8550  176.8230  134.8300 O   0  0  0  0  0  0  0  0  0  0  0  0
  185.5760  178.2010  142.6150 C   0  0  0  0  0  0  0  0  0  0  0  0
  184.2760  177.7300  142.2470 N   0  0  0  0  0  2  0  0  0  0  0  0
  185.9850  179.3240  142.2290 O   0  0  0  0  0  0  0  0  0  0  0  0
  186.4650  177.3380  143.4340 C   0  0  0  0  0  2  0  0  0  0  0  0
  186.1490  177.4830  144.7880 O   0  0  0  0  0  0  0  0  0  0  0  0
  187.6510  177.6480  146.6420 C   0  0  0  0  0  2  0  0  0  0  0  0
  188.4100  178.1560  144.3930 C   0  0  0  0  0  2  0  0  0  0  0  0
  191.2300  176.2570  146.8650 C   0  0  1  0  0  3  0  0  0  0  0  0
  189.9660  176.9350  147.4260 C   0  0  0  0  0  2  0  0  0  0  0  0
  188.9820  177.0460  146.2830 C   0  0  2  0  0  3  0  0  0  0  0  0
  190.5810  177.1560  144.5780 C   0  0  0  0  0  2  0  0  0  0  0  0
  189.5390  177.9090  145.2620 N   0  0  1  0  0  0  0  0  0  0  0  0
  191.7310  176.9210  145.5650 C   0  0  0  0  0  2  0  0  0  0  0  0
  187.1920  178.2450  145.3170 C   0  0  1  0  0  3  0  0  0  0  0  0
  192.3180  176.2330  147.8920 C   0  0  0  0  0  0  0  0  0  0  0  0
  193.1380  175.2770  147.9400 O   0  0  0  0  0  0  0  0  0  0  0  0
  192.4320  177.2810  148.7940 O   0  0  0  0  0  1  0  0  0  0  0  0
  1  7  1  0  0  0  0
  1 19  1  1  0  0  0
  2 12  2  0  0  0  0
  3  6  1  0  0  0  0
  4  8  1  0  0  0  0
  4  5  1  0  0  0  0
  6  7  1  0  0  0  0
  7  4  2  0  0  0  0
  9  2  1  0  0  0  0
 10  9  1  0  0  0  0
 10 11  2  0  0  0  0
 11 13  1  0  0  0  0
 12  3  1  0  0  0  0
 12 14  1  0  0  0  0
 14 13  1  6  0  0  0
 14  1  1  0  0  0  0
 15 10  1  0  0  0  0
 16 15  1  0  0  0  0
 17 15  2  0  0  0  0
 18 21  1  0  0  0  0
 19 18  1  0  0  0  0
 20 18  2  0  0  0  0
 21 22  1  0  0  0  0
 24 31  1  0  0  0  0
 25 26  1  0  0  0  0
 25 32  1  1  0  0  0
 27 23  1  1  0  0  0
 27 26  1  0  0  0  0
 28 29  1  0  0  0  0
 28 30  1  0  0  0  0
 29 24  1  6  0  0  0
 29 27  1  0  0  0  0
 30 25  1  0  0  0  0
 31 22  1  6  0  0  0
 31 23  1  0  0  0  0
 32 33  2  0  0  0  0
 32 34  1  0  0  0  0
M  END
>  <MODEL>
8

>  <REMARK>
 VINA RESULT:      -7.6      2.173      3.663
  Name = 
  6 active torsions:
  status: ('A' for Active; 'I' for Inactive)
    1  A    between atoms: C_1  and  N_9
    2  A    between atoms: C_3  and  C_25
    3  A    between atoms: C_7  and  C_11
    4  A    between atoms: C_8  and  C_18
    5  A    between atoms: C_18  and  O_30
    6  A    between atoms: O_30  and  C_31
                            x       y       z     vdW  Elec       q    Type
                         _______ _______ _______ _____ _____    ______ ____

>  <TORSDO>
F 6

$$$$
=
 OpenBabel11052415513D

 34 37  0  0  1  0  0  0  0  0999 V2000
  190.7730  174.8040  137.2550 C   0  0  2  0  0  3  0  0  0  0  0  0
  187.6000  175.7540  135.3840 C   0  0  0  0  0  3  0  0  0  0  0  0
  189.9080  175.7610  134.5940 C   0  0  0  0  0  2  0  0  0  0  0  0
  193.0130  175.5730  136.4360 C   0  0  0  0  0  0  0  0  0  0  0  0
  193.6950  174.6740  137.4220 C   0  0  0  0  0  1  0  0  0  0  0  0
  191.0350  176.5050  135.2820 C   0  0  0  0  0  2  0  0  0  0  0  0
  191.6640  175.6180  136.3230 C   0  0  0  0  0  0  0  0  0  0  0  0
  193.9000  176.3810  135.5380 C   0  0  0  0  0  1  0  0  0  0  0  0
  186.5440  175.5450  136.4320 C   0  0  0  0  0  2  0  0  0  0  0  0
  186.2760  174.0970  136.7710 C   0  0  0  0  0  0  0  0  0  0  0  0
  187.2390  173.1980  137.0620 C   0  0  0  0  0  3  0  0  0  0  0  0
  188.8750  175.4370  135.6170 C   0  0  0  0  0  0  0  0  0  0  0  0
  188.7430  173.3490  136.9540 C   0  0  0  0  0  2  0  0  0  0  0  0
  189.2640  174.7870  136.9230 C   0  0  1  0  0  3  0  0  0  0  0  0
  184.8600  173.7040  136.9160 C   0  0  0  0  0  0  0  0  0  0  0  0
  183.8640  174.4440  136.2890 O   0  0  0  0  0  0  0  0  0  0  0  0
  184.5360  172.7050  137.6010 O   0  0  0  0  0  1  0  0  0  0  0  0
  190.5140  176.5410  139.0760 C   0  0  0  0  0  0  0  0  0  0  0  0
  190.9470  175.2520  138.6300 N   0  0  0  0  0  2  0  0  0  0  0  0
  189.9190  177.3230  138.2940 O   0  0  0  0  0  0  0  0  0  0  0  0
  190.8000  176.9710  140.4670 C   0  0  0  0  0  2  0  0  0  0  0  0
  189.7340  176.6190  141.3010 O   0  0  0  0  0  0  0  0  0  0  0  0
  188.0290  178.0550  142.1640 C   0  0  0  0  0  2  0  0  0  0  0  0
  189.9290  177.4320  143.5420 C   0  0  0  0  0  2  0  0  0  0  0  0
  186.2650  177.7810  145.5710 C   0  0  1  0  0  3  0  0  0  0  0  0
  186.4880  178.3720  144.1670 C   0  0  0  0  0  2  0  0  0  0  0  0
  187.6750  177.6490  143.5690 C   0  0  2  0  0  3  0  0  0  0  0  0
  188.7300  177.1650  145.6000 C   0  0  0  0  0  2  0  0  0  0  0  0
  188.8500  177.9290  144.3670 N   0  0  1  0  0  0  0  0  0  0  0  0
  187.5600  177.7380  146.4090 C   0  0  0  0  0  2  0  0  0  0  0  0
  189.5190  177.7430  142.0980 C   0  0  1  0  0  3  0  0  0  0  0  0
  185.1970  178.5370  146.2990 C   0  0  0  0  0  0  0  0  0  0  0  0
  185.4380  179.0850  147.4090 O   0  0  0  0  0  1  0  0  0  0  0  0
  183.9320  178.6440  145.7410 O   0  0  0  0  0  0  0  0  0  0  0  0
  1 19  1  1  0  0  0
  2 12  2  0  0  0  0
  2  9  1  0  0  0  0
  3  6  1  0  0  0  0
  3 12  1  0  0  0  0
  4  5  1  0  0  0  0
  6  7  1  0  0  0  0
  7  4  2  0  0  0  0
  7  1  1  0  0  0  0
  8  4  1  0  0  0  0
  9 10  1  0  0  0  0
 10 15  1  0  0  0  0
 10 11  2  0  0  0  0
 12 14  1  0  0  0  0
 13 11  1  0  0  0  0
 14 13  1  6  0  0  0
 14  1  1  0  0  0  0
 15 17  1  0  0  0  0
 16 15  2  0  0  0  0
 18 21  1  0  0  0  0
 19 18  1  0  0  0  0
 20 18  2  0  0  0  0
 21 22  1  0  0  0  0
 25 32  1  1  0  0  0
 25 30  1  0  0  0  0
 26 25  1  0  0  0  0
 27 23  1  6  0  0  0
 27 26  1  0  0  0  0
 27 29  1  0  0  0  0
 28 30  1  0  0  0  0
 29 24  1  6  0  0  0
 29 28  1  0  0  0  0
 31 22  1  6  0  0  0
 31 23  1  0  0  0  0
 31 24  1  0  0  0  0
 32 33  1  0  0  0  0
 34 32  2  0  0  0  0
M  END
>  <MODEL>
9

>  <REMARK>
 VINA RESULT:      -7.5      3.515      6.373
  Name = 
  6 active torsions:
  status: ('A' for Active; 'I' for Inactive)
    1  A    between atoms: C_1  and  N_9
    2  A    between atoms: C_3  and  C_25
    3  A    between atoms: C_7  and  C_11
    4  A    between atoms: C_8  and  C_18
    5  A    between atoms: C_18  and  O_30
    6  A    between atoms: O_30  and  C_31
                            x       y       z     vdW  Elec       q    Type
                         _______ _______ _______ _____ _____    ______ ____

>  <TORSDO>
F 6

$$$$
