=
 OpenBabel11052414083D

 34 38  0  0  1  0  0  0  0  0999 V2000
  187.5980  176.2570  136.8060 C   0  0  0  0  0  0  0  0  0  0  0  0
  187.7370  177.8100  138.6770 C   0  0  0  0  0  0  0  0  0  0  0  0
  189.6870  176.1360  138.1730 C   0  0  2  0  0  3  0  0  0  0  0  0
  191.8600  176.9440  139.0370 C   0  0  0  0  0  0  0  0  0  0  0  0
  185.7270  177.7030  137.3250 C   0  0  0  0  0  3  0  0  0  0  0  0
  186.4440  178.2530  138.3850 C   0  0  0  0  0  3  0  0  0  0  0  0
  190.1750  176.8380  140.6020 N   0  0  0  0  0  0  0  0  0  0  0  0
  188.3260  176.7760  137.9060 C   0  0  0  0  0  0  0  0  0  0  0  0
  191.2430  177.3380  142.7080 C   0  0  0  0  0  2  0  0  0  0  0  0
  192.7990  177.5030  140.4590 S   0  0  0  0  0  0  0  0  0  0  0  0
  186.3090  176.7190  136.5300 C   0  0  0  0  0  3  0  0  0  0  0  0
  189.6020  174.8080  136.2730 C   0  0  0  0  0  2  0  0  0  0  0  0
  188.2240  175.3000  135.8250 C   0  0  0  0  0  2  0  0  0  0  0  0
  188.3960  178.4420  139.6730 F   0  0  0  0  0  0  0  0  0  0  0  0
  192.4860  176.4380  137.8670 N   0  0  0  0  0  2  0  0  0  0  0  0
  191.7720  175.4820  137.0240 C   0  0  1  0  0  3  0  0  0  0  0  0
  191.2970  177.2180  141.3860 C   0  0  0  0  0  0  0  0  0  0  0  0
  190.5670  176.7520  139.2390 C   0  0  0  0  0  0  0  0  0  0  0  0
  190.3620  175.9020  136.8760 N   0  0  2  0  0  0  0  0  0  0  0  0
  193.8170  173.0560  136.8430 C   0  0  0  0  0  2  0  0  0  0  0  0
  195.0100  173.7680  136.2170 C   0  0  0  0  0  2  0  0  0  0  0  0
  192.4790  175.3790  135.6480 C   0  0  2  0  0  3  0  0  0  0  0  0
  194.8980  175.2550  136.5120 C   0  0  0  0  0  2  0  0  0  0  0  0
  192.4420  173.9870  134.9990 C   0  0  0  0  0  2  0  0  0  0  0  0
  193.9030  175.9510  135.5860 C   0  0  0  0  0  2  0  0  0  0  0  0
  192.6910  172.8670  135.9190 N   0  0  0  0  0  2  0  0  0  0  0  0
  190.0330  177.0950  143.4180 N   0  0  0  0  0  0  0  0  0  0  0  0
  189.7730  177.7560  144.4960 C   0  0  0  0  0  3  0  0  0  0  0  0
  188.5070  177.5030  145.2370 C   0  0  0  0  0  2  0  0  0  0  0  0
  190.0670  176.9330  147.1100 C   0  0  0  0  0  1  0  0  0  0  0  0
  188.7720  177.4250  146.6650 N   0  0  0  0  0  0  0  0  0  0  0  0
  188.0410  177.8350  148.8480 O   0  0  0  0  0  1  0  0  0  0  0  0
  186.5710  178.3670  147.1780 O   0  0  0  0  0  0  0  0  0  0  0  0
  187.7970  177.8780  147.6130 C   0  0  0  0  0  0  0  0  0  0  0  0
  1  8  1  0  0  0  0
  2 14  1  0  0  0  0
  3  8  1  6  0  0  0
  3 18  1  0  0  0  0
  4 18  2  0  0  0  0
  4 10  1  0  0  0  0
  5  6  2  0  0  0  0
  6  2  1  0  0  0  0
  7 17  2  0  0  0  0
  8  2  2  0  0  0  0
  9 27  1  0  0  0  0
 10 17  1  0  0  0  0
 11  1  2  0  0  0  0
 11  5  1  0  0  0  0
 13 12  1  0  0  0  0
 13  1  1  0  0  0  0
 15  4  1  0  0  0  0
 16 15  1  1  0  0  0
 17  9  1  0  0  0  0
 18  7  1  0  0  0  0
 19 12  1  1  0  0  0
 19 16  1  0  0  0  0
 19  3  1  0  0  0  0
 21 23  1  0  0  0  0
 21 20  1  0  0  0  0
 22 24  1  1  0  0  0
 22 16  1  0  0  0  0
 24 26  1  0  0  0  0
 25 22  1  0  0  0  0
 25 23  1  0  0  0  0
 26 20  1  0  0  0  0
 27 28  2  0  0  0  0
 28 29  1  0  0  0  0
 29 31  1  0  0  0  0
 31 30  1  0  0  0  0
 31 34  1  0  0  0  0
 33 34  2  0  0  0  0
 34 32  1  0  0  0  0
M  END
>  <MODEL>
1

>  <REMARK>
 VINA RESULT:      -7.8      0.000      0.000
  Name = 
  4 active torsions:
  status: ('A' for Active; 'I' for Inactive)
    1  A    between atoms: N_3  and  C_17
    2  A    between atoms: C_12  and  C_28
    3  A    between atoms: C_13  and  C_33
    4  A    between atoms: N_14  and  C_33
                            x       y       z     vdW  Elec       q    Type
                         _______ _______ _______ _____ _____    ______ ____

>  <TORSDO>
F 4

$$$$
=
 OpenBabel11052414083D

 34 38  0  0  1  0  0  0  0  0999 V2000
  188.7730  177.7840  143.8130 C   0  0  0  0  0  0  0  0  0  0  0  0
  190.7100  177.8590  142.3380 C   0  0  0  0  0  0  0  0  0  0  0  0
  188.3060  177.4640  141.3790 C   0  0  2  0  0  3  0  0  0  0  0  0
  188.1150  178.1630  139.0130 C   0  0  0  0  0  0  0  0  0  0  0  0
  190.9970  178.0220  144.7400 C   0  0  0  0  0  3  0  0  0  0  0  0
  191.5370  177.9990  143.4560 C   0  0  0  0  0  3  0  0  0  0  0  0
  189.8090  176.6660  139.4460 N   0  0  0  0  0  0  0  0  0  0  0  0
  189.3090  177.7170  142.5020 C   0  0  0  0  0  0  0  0  0  0  0  0
  190.6930  176.0760  137.2800 C   0  0  0  0  0  2  0  0  0  0  0  0
  188.7370  177.9920  137.3400 S   0  0  0  0  0  0  0  0  0  0  0  0
  189.6180  177.9300  144.9160 C   0  0  0  0  0  3  0  0  0  0  0  0
  186.4680  177.5890  142.7890 C   0  0  0  0  0  2  0  0  0  0  0  0
  187.2880  177.8360  144.0570 C   0  0  0  0  0  2  0  0  0  0  0  0
  191.2990  177.9180  141.1230 F   0  0  0  0  0  0  0  0  0  0  0  0
  186.8170  178.6660  139.2920 N   0  0  0  0  0  2  0  0  0  0  0  0
  186.1320  178.2560  140.5160 C   0  0  1  0  0  3  0  0  0  0  0  0
  189.8700  176.7960  138.0340 C   0  0  0  0  0  0  0  0  0  0  0  0
  188.8020  177.5320  139.9520 C   0  0  0  0  0  0  0  0  0  0  0  0
  187.0860  178.2600  141.6460 N   0  0  2  0  0  0  0  0  0  0  0  0
  183.3170  176.9570  139.8150 C   0  0  0  0  0  2  0  0  0  0  0  0
  182.6910  178.1030  139.0310 C   0  0  0  0  0  2  0  0  0  0  0  0
  184.9370  179.2070  140.7810 C   0  0  2  0  0  3  0  0  0  0  0  0
  183.8030  178.9840  138.4840 C   0  0  0  0  0  2  0  0  0  0  0  0
  183.7950  178.6020  141.6110 C   0  0  0  0  0  2  0  0  0  0  0  0
  184.3680  179.9230  139.5470 C   0  0  0  0  0  2  0  0  0  0  0  0
  183.4330  177.2210  141.2550 N   0  0  0  0  0  2  0  0  0  0  0  0
  191.5790  175.1250  137.8630 N   0  0  0  0  0  0  0  0  0  0  0  0
  192.6920  174.8340  137.2770 C   0  0  0  0  0  3  0  0  0  0  0  0
  193.6180  173.8410  137.8870 C   0  0  0  0  0  2  0  0  0  0  0  0
  195.2400  173.7090  135.9850 C   0  0  0  0  0  1  0  0  0  0  0  0
  194.9650  174.0350  137.3760 N   0  0  0  0  0  0  0  0  0  0  0  0
  197.1480  174.7850  137.7590 O   0  0  0  0  0  0  0  0  0  0  0  0
  195.7110  174.9190  139.5340 O   0  0  0  0  0  1  0  0  0  0  0  0
  195.9880  174.5910  138.2130 C   0  0  0  0  0  0  0  0  0  0  0  0
  1 13  1  0  0  0  0
  1 11  1  0  0  0  0
  2  8  1  0  0  0  0
  2  6  2  0  0  0  0
  3 18  1  6  0  0  0
  3 19  1  0  0  0  0
  3  8  1  0  0  0  0
  4 15  1  0  0  0  0
  4 18  2  0  0  0  0
  5 11  2  0  0  0  0
  6  5  1  0  0  0  0
  7 18  1  0  0  0  0
  8  1  2  0  0  0  0
  9 27  1  0  0  0  0
  9 17  1  0  0  0  0
 10 17  1  0  0  0  0
 10  4  1  0  0  0  0
 12 13  1  0  0  0  0
 14  2  1  0  0  0  0
 16 15  1  6  0  0  0
 16 22  1  0  0  0  0
 16 19  1  0  0  0  0
 17  7  2  0  0  0  0
 19 12  1  1  0  0  0
 20 26  1  0  0  0  0
 21 20  1  0  0  0  0
 22 25  1  6  0  0  0
 22 24  1  0  0  0  0
 23 21  1  0  0  0  0
 23 25  1  0  0  0  0
 26 24  1  0  0  0  0
 28 27  2  0  0  0  0
 28 29  1  0  0  0  0
 30 31  1  0  0  0  0
 31 29  1  0  0  0  0
 31 34  1  0  0  0  0
 32 34  2  0  0  0  0
 34 33  1  0  0  0  0
M  END
>  <MODEL>
2

>  <REMARK>
 VINA RESULT:      -7.3      4.223      8.873
  Name = 
  4 active torsions:
  status: ('A' for Active; 'I' for Inactive)
    1  A    between atoms: N_3  and  C_17
    2  A    between atoms: C_12  and  C_28
    3  A    between atoms: C_13  and  C_33
    4  A    between atoms: N_14  and  C_33
                            x       y       z     vdW  Elec       q    Type
                         _______ _______ _______ _____ _____    ______ ____

>  <TORSDO>
F 4

$$$$
=
 OpenBabel11052414083D

 34 38  0  0  1  0  0  0  0  0999 V2000
  191.6730  177.5750  141.4970 C   0  0  0  0  0  0  0  0  0  0  0  0
  189.2630  177.2210  141.4950 C   0  0  0  0  0  0  0  0  0  0  0  0
  190.6610  176.9560  139.2970 C   0  0  2  0  0  3  0  0  0  0  0  0
  189.5670  175.4490  137.6680 C   0  0  0  0  0  0  0  0  0  0  0  0
  190.3890  177.9520  143.5140 C   0  0  0  0  0  3  0  0  0  0  0  0
  189.2240  177.5870  142.8430 C   0  0  0  0  0  3  0  0  0  0  0  0
  188.2600  177.1970  138.3980 N   0  0  0  0  0  0  0  0  0  0  0  0
  190.4920  177.2400  140.7880 C   0  0  0  0  0  0  0  0  0  0  0  0
  186.2590  177.0880  137.0540 C   0  0  0  0  0  2  0  0  0  0  0  0
  188.1020  175.0930  136.6980 S   0  0  0  0  0  0  0  0  0  0  0  0
  191.6100  177.9320  142.8460 C   0  0  0  0  0  3  0  0  0  0  0  0
  192.9740  177.1130  139.3780 C   0  0  0  0  0  2  0  0  0  0  0  0
  193.0360  177.4320  140.8720 C   0  0  0  0  0  2  0  0  0  0  0  0
  188.1050  176.8090  140.9330 F   0  0  0  0  0  0  0  0  0  0  0  0
  190.8430  174.9220  137.3340 N   0  0  0  0  0  2  0  0  0  0  0  0
  192.0480  175.6510  137.7250 C   0  0  1  0  0  3  0  0  0  0  0  0
  187.4330  176.5850  137.4200 C   0  0  0  0  0  0  0  0  0  0  0  0
  189.4610  176.4490  138.5280 C   0  0  0  0  0  0  0  0  0  0  0  0
  191.8970  176.1630  139.1040 N   0  0  2  0  0  0  0  0  0  0  0  0
  193.6100  175.9970  134.9790 C   0  0  0  0  0  2  0  0  0  0  0  0
  193.7860  174.5340  134.5940 C   0  0  0  0  0  2  0  0  0  0  0  0
  193.2790  174.7170  137.6000 C   0  0  2  0  0  3  0  0  0  0  0  0
  192.7170  173.7140  135.2990 C   0  0  0  0  0  2  0  0  0  0  0  0
  194.5850  175.4120  137.1850 C   0  0  0  0  0  2  0  0  0  0  0  0
  193.0700  173.4470  136.7610 C   0  0  0  0  0  2  0  0  0  0  0  0
  194.4430  176.4120  136.1160 N   0  0  0  0  0  2  0  0  0  0  0  0
  185.7570  178.2830  137.6430 N   0  0  0  0  0  0  0  0  0  0  0  0
  184.7750  178.2290  138.4780 C   0  0  0  0  0  3  0  0  0  0  0  0
  184.2520  179.4800  139.0940 C   0  0  0  0  0  2  0  0  0  0  0  0
  182.2260  178.9090  140.4510 C   0  0  0  0  0  1  0  0  0  0  0  0
  183.6530  179.1860  140.3870 N   0  0  0  0  0  0  0  0  0  0  0  0
  183.9480  178.8340  142.6800 O   0  0  0  0  0  1  0  0  0  0  0  0
  185.8300  179.3620  141.4930 O   0  0  0  0  0  0  0  0  0  0  0  0
  184.4650  179.1160  141.5660 C   0  0  0  0  0  0  0  0  0  0  0  0
  1 11  1  0  0  0  0
  2  6  2  0  0  0  0
  3 18  1  1  0  0  0
  3  8  1  0  0  0  0
  4 18  2  0  0  0  0
  6  5  1  0  0  0  0
  7 18  1  0  0  0  0
  8  2  1  0  0  0  0
  8  1  2  0  0  0  0
  9 17  1  0  0  0  0
  9 27  1  0  0  0  0
 10 17  1  0  0  0  0
 10  4  1  0  0  0  0
 11  5  2  0  0  0  0
 12 13  1  0  0  0  0
 13  1  1  0  0  0  0
 14  2  1  0  0  0  0
 15  4  1  0  0  0  0
 16 15  1  1  0  0  0
 16 19  1  0  0  0  0
 17  7  2  0  0  0  0
 19  3  1  0  0  0  0
 19 12  1  6  0  0  0
 20 26  1  0  0  0  0
 21 20  1  0  0  0  0
 21 23  1  0  0  0  0
 22 25  1  6  0  0  0
 22 16  1  0  0  0  0
 23 25  1  0  0  0  0
 24 22  1  0  0  0  0
 26 24  1  0  0  0  0
 27 28  2  0  0  0  0
 28 29  1  0  0  0  0
 29 31  1  0  0  0  0
 31 30  1  0  0  0  0
 31 34  1  0  0  0  0
 33 34  2  0  0  0  0
 34 32  1  0  0  0  0
M  END
>  <MODEL>
3

>  <REMARK>
 VINA RESULT:      -7.0      3.028      5.501
  Name = 
  4 active torsions:
  status: ('A' for Active; 'I' for Inactive)
    1  A    between atoms: N_3  and  C_17
    2  A    between atoms: C_12  and  C_28
    3  A    between atoms: C_13  and  C_33
    4  A    between atoms: N_14  and  C_33
                            x       y       z     vdW  Elec       q    Type
                         _______ _______ _______ _____ _____    ______ ____

>  <TORSDO>
F 4

$$$$
=
 OpenBabel11052414083D

 34 38  0  0  1  0  0  0  0  0999 V2000
  185.1500  178.9420  142.7730 C   0  0  0  0  0  0  0  0  0  0  0  0
  182.8190  178.6600  142.1240 C   0  0  0  0  0  0  0  0  0  0  0  0
  184.6940  178.9260  140.3160 C   0  0  2  0  0  3  0  0  0  0  0  0
  184.0590  177.9080  138.1520 C   0  0  0  0  0  0  0  0  0  0  0  0
  183.4240  178.8270  144.4660 C   0  0  0  0  0  3  0  0  0  0  0  0
  182.4580  178.6730  143.4740 C   0  0  0  0  0  3  0  0  0  0  0  0
  182.5570  179.4460  138.9760 N   0  0  0  0  0  0  0  0  0  0  0  0
  184.1760  178.8270  141.7490 C   0  0  0  0  0  0  0  0  0  0  0  0
  180.9240  179.7310  137.2220 C   0  0  0  0  0  2  0  0  0  0  0  0
  182.8700  177.8460  136.8110 S   0  0  0  0  0  0  0  0  0  0  0  0
  184.7660  178.9460  144.1160 C   0  0  0  0  0  3  0  0  0  0  0  0
  186.9200  179.0000  140.9660 C   0  0  0  0  0  2  0  0  0  0  0  0
  186.6250  178.9280  142.4650 C   0  0  0  0  0  2  0  0  0  0  0  0
  181.8370  178.4320  141.2240 F   0  0  0  0  0  0  0  0  0  0  0  0
  185.3950  177.4520  138.0010 N   0  0  0  0  0  2  0  0  0  0  0  0
  186.4510  178.0280  138.8310 C   0  0  1  0  0  3  0  0  0  0  0  0
  182.0000  179.1220  137.7110 C   0  0  0  0  0  0  0  0  0  0  0  0
  183.7220  178.6600  139.1870 C   0  0  0  0  0  0  0  0  0  0  0  0
  185.9690  178.1770  140.2200 N   0  0  2  0  0  0  0  0  0  0  0  0
  188.6800  179.1330  136.8520 C   0  0  0  0  0  2  0  0  0  0  0  0
  189.0170  177.8520  136.0990 C   0  0  0  0  0  2  0  0  0  0  0  0
  187.7100  177.1260  138.7620 C   0  0  2  0  0  3  0  0  0  0  0  0
  187.8350  176.9020  136.2030 C   0  0  0  0  0  2  0  0  0  0  0  0
  189.0470  177.8590  138.9500 C   0  0  0  0  0  2  0  0  0  0  0  0
  187.7910  176.1850  137.5510 C   0  0  0  0  0  2  0  0  0  0  0  0
  189.1550  179.1440  138.2420 N   0  0  0  0  0  2  0  0  0  0  0  0
  180.2590  180.7500  137.9610 N   0  0  0  0  0  0  0  0  0  0  0  0
  180.2990  181.9740  137.5520 C   0  0  0  0  0  3  0  0  0  0  0  0
  179.6020  183.0390  138.3250 C   0  0  0  0  0  2  0  0  0  0  0  0
  179.6130  184.1170  136.0650 C   0  0  0  0  0  1  0  0  0  0  0  0
  179.4530  184.2330  137.5070 N   0  0  0  0  0  0  0  0  0  0  0  0
  178.9460  186.5130  137.3900 O   0  0  0  0  0  0  0  0  0  0  0  0
  178.9310  185.5840  139.4800 O   0  0  0  0  0  1  0  0  0  0  0  0
  179.1020  185.4870  138.1050 C   0  0  0  0  0  0  0  0  0  0  0  0
  1 11  1  0  0  0  0
  2  6  2  0  0  0  0
  3 18  1  6  0  0  0
  3  8  1  0  0  0  0
  4 18  2  0  0  0  0
  6  5  1  0  0  0  0
  7 18  1  0  0  0  0
  8  2  1  0  0  0  0
  8  1  2  0  0  0  0
  9 17  1  0  0  0  0
  9 27  1  0  0  0  0
 10 17  1  0  0  0  0
 10  4  1  0  0  0  0
 11  5  2  0  0  0  0
 12 13  1  0  0  0  0
 13  1  1  0  0  0  0
 14  2  1  0  0  0  0
 15  4  1  0  0  0  0
 16 15  1  6  0  0  0
 16 19  1  0  0  0  0
 17  7  2  0  0  0  0
 19  3  1  0  0  0  0
 19 12  1  1  0  0  0
 20 26  1  0  0  0  0
 21 23  1  0  0  0  0
 21 20  1  0  0  0  0
 22 25  1  6  0  0  0
 22 16  1  0  0  0  0
 22 24  1  0  0  0  0
 23 25  1  0  0  0  0
 26 24  1  0  0  0  0
 28 27  2  0  0  0  0
 28 29  1  0  0  0  0
 30 31  1  0  0  0  0
 31 34  1  0  0  0  0
 31 29  1  0  0  0  0
 32 34  2  0  0  0  0
 34 33  1  0  0  0  0
M  END
>  <MODEL>
4

>  <REMARK>
 VINA RESULT:      -6.8      6.691      9.578
  Name = 
  4 active torsions:
  status: ('A' for Active; 'I' for Inactive)
    1  A    between atoms: N_3  and  C_17
    2  A    between atoms: C_12  and  C_28
    3  A    between atoms: C_13  and  C_33
    4  A    between atoms: N_14  and  C_33
                            x       y       z     vdW  Elec       q    Type
                         _______ _______ _______ _____ _____    ______ ____

>  <TORSDO>
F 4

$$$$
=
 OpenBabel11052414083D

 34 38  0  0  1  0  0  0  0  0999 V2000
  183.1900  178.4880  141.7300 C   0  0  0  0  0  0  0  0  0  0  0  0
  184.8680  179.1550  143.3650 C   0  0  0  0  0  0  0  0  0  0  0  0
  185.5570  177.9250  141.1580 C   0  0  2  0  0  3  0  0  0  0  0  0
  187.8910  178.4170  140.5020 C   0  0  0  0  0  0  0  0  0  0  0  0
  182.5120  179.5070  143.8190 C   0  0  0  0  0  3  0  0  0  0  0  0
  183.8480  179.6140  144.2020 C   0  0  0  0  0  3  0  0  0  0  0  0
  187.6380  177.6050  142.6410 N   0  0  0  0  0  0  0  0  0  0  0  0
  184.5510  178.5520  142.1220 C   0  0  0  0  0  0  0  0  0  0  0  0
  189.8850  177.2600  143.4510 C   0  0  0  0  0  2  0  0  0  0  0  0
  189.6210  178.3970  140.9720 S   0  0  0  0  0  0  0  0  0  0  0  0
  182.1870  178.9590  142.5810 C   0  0  0  0  0  3  0  0  0  0  0  0
  183.9550  177.4780  139.5410 C   0  0  0  0  0  2  0  0  0  0  0  0
  182.7850  178.0420  140.3500 C   0  0  0  0  0  2  0  0  0  0  0  0
  186.1400  179.3590  143.7720 F   0  0  0  0  0  0  0  0  0  0  0  0
  187.4750  178.4590  139.1450 N   0  0  0  0  0  2  0  0  0  0  0  0
  186.1810  177.8930  138.7700 C   0  0  1  0  0  3  0  0  0  0  0  0
  189.0490  177.6890  142.5110 C   0  0  0  0  0  0  0  0  0  0  0  0
  187.0300  178.0980  141.4550 C   0  0  0  0  0  0  0  0  0  0  0  0
  185.1620  178.2690  139.7730 N   0  0  2  0  0  0  0  0  0  0  0  0
  186.8160  175.7820  136.4790 C   0  0  0  0  0  2  0  0  0  0  0  0
  187.4890  176.6960  135.4630 C   0  0  0  0  0  2  0  0  0  0  0  0
  185.7920  178.3920  137.3540 C   0  0  2  0  0  3  0  0  0  0  0  0
  188.0360  177.9140  136.1910 C   0  0  0  0  0  2  0  0  0  0  0  0
  184.9440  177.4110  136.5290 C   0  0  0  0  0  2  0  0  0  0  0  0
  186.9450  178.9370  136.4990 C   0  0  0  0  0  2  0  0  0  0  0  0
  185.3690  176.0050  136.6060 N   0  0  0  0  0  2  0  0  0  0  0  0
  189.3970  176.6920  144.6620 N   0  0  0  0  0  0  0  0  0  0  0  0
  189.4460  177.3720  145.7590 C   0  0  0  0  0  3  0  0  0  0  0  0
  188.9350  176.7780  147.0260 C   0  0  0  0  0  2  0  0  0  0  0  0
  188.2760  178.3750  148.8380 C   0  0  0  0  0  1  0  0  0  0  0  0
  187.9380  177.6550  147.6200 N   0  0  0  0  0  0  0  0  0  0  0  0
  185.8160  178.6290  147.4880 O   0  0  0  0  0  1  0  0  0  0  0  0
  186.3600  177.1710  145.8110 O   0  0  0  0  0  0  0  0  0  0  0  0
  186.6670  177.8470  146.9860 C   0  0  0  0  0  0  0  0  0  0  0  0
  1  8  2  0  0  0  0
  1 11  1  0  0  0  0
  2 14  1  0  0  0  0
  2  6  2  0  0  0  0
  3 18  1  1  0  0  0
  3  8  1  0  0  0  0
  4 10  1  0  0  0  0
  4 18  2  0  0  0  0
  5  6  1  0  0  0  0
  8  2  1  0  0  0  0
  9 27  1  0  0  0  0
 10 17  1  0  0  0  0
 11  5  2  0  0  0  0
 12 13  1  0  0  0  0
 13  1  1  0  0  0  0
 15  4  1  0  0  0  0
 16 15  1  1  0  0  0
 16 19  1  0  0  0  0
 17  7  2  0  0  0  0
 17  9  1  0  0  0  0
 18  7  1  0  0  0  0
 19 12  1  6  0  0  0
 19  3  1  0  0  0  0
 20 26  1  0  0  0  0
 21 23  1  0  0  0  0
 21 20  1  0  0  0  0
 22 25  1  6  0  0  0
 22 16  1  0  0  0  0
 23 25  1  0  0  0  0
 24 26  1  0  0  0  0
 24 22  1  0  0  0  0
 27 28  2  0  0  0  0
 28 29  1  0  0  0  0
 29 31  1  0  0  0  0
 31 30  1  0  0  0  0
 33 34  2  0  0  0  0
 34 32  1  0  0  0  0
 34 31  1  0  0  0  0
M  END
>  <MODEL>
5

>  <REMARK>
 VINA RESULT:      -6.8      3.990      5.611
  Name = 
  4 active torsions:
  status: ('A' for Active; 'I' for Inactive)
    1  A    between atoms: N_3  and  C_17
    2  A    between atoms: C_12  and  C_28
    3  A    between atoms: C_13  and  C_33
    4  A    between atoms: N_14  and  C_33
                            x       y       z     vdW  Elec       q    Type
                         _______ _______ _______ _____ _____    ______ ____

>  <TORSDO>
F 4

$$$$
=
 OpenBabel11052414083D

 34 38  0  0  1  0  0  0  0  0999 V2000
  189.6870  173.9150  135.3740 C   0  0  0  0  0  0  0  0  0  0  0  0
  188.9100  175.8630  136.6120 C   0  0  0  0  0  0  0  0  0  0  0  0
  191.1730  174.6970  137.2250 C   0  0  2  0  0  3  0  0  0  0  0  0
  192.7480  176.2420  138.3460 C   0  0  0  0  0  0  0  0  0  0  0  0
  187.5310  174.8930  134.8690 C   0  0  0  0  0  3  0  0  0  0  0  0
  187.7380  175.8590  135.8510 C   0  0  0  0  0  3  0  0  0  0  0  0
  190.6770  176.0850  139.3370 N   0  0  0  0  0  0  0  0  0  0  0  0
  189.8960  174.8650  136.4050 C   0  0  0  0  0  0  0  0  0  0  0  0
  190.8600  177.3570  141.3800 C   0  0  0  0  0  2  0  0  0  0  0  0
  193.0350  177.3650  139.7130 S   0  0  0  0  0  0  0  0  0  0  0  0
  188.5100  173.9340  134.6230 C   0  0  0  0  0  3  0  0  0  0  0  0
  191.9710  172.9660  135.9040 C   0  0  0  0  0  2  0  0  0  0  0  0
  190.7660  172.9470  134.9630 C   0  0  0  0  0  2  0  0  0  0  0  0
  189.0710  176.8740  137.4940 F   0  0  0  0  0  0  0  0  0  0  0  0
  193.8120  175.6470  137.6180 N   0  0  0  0  0  2  0  0  0  0  0  0
  193.6040  174.3570  136.9640 C   0  0  1  0  0  3  0  0  0  0  0  0
  191.3810  176.9310  140.2340 C   0  0  0  0  0  0  0  0  0  0  0  0
  191.5170  175.7700  138.2350 C   0  0  0  0  0  0  0  0  0  0  0  0
  192.2800  174.3360  136.3090 N   0  0  2  0  0  0  0  0  0  0  0  0
  195.7850  172.2880  137.9980 C   0  0  0  0  0  2  0  0  0  0  0  0
  197.0550  173.0450  137.6330 C   0  0  0  0  0  2  0  0  0  0  0  0
  194.7440  174.1080  135.9420 C   0  0  2  0  0  3  0  0  0  0  0  0
  196.7250  174.5250  137.5280 C   0  0  0  0  0  2  0  0  0  0  0  0
  195.0470  172.6300  135.6530 C   0  0  0  0  0  2  0  0  0  0  0  0
  196.0510  174.8710  136.2020 C   0  0  0  0  0  2  0  0  0  0  0  0
  195.0610  171.7550  136.8360 N   0  0  0  0  0  2  0  0  0  0  0  0
  189.5420  176.9860  141.7690 N   0  0  0  0  0  0  0  0  0  0  0  0
  189.2090  177.0000  143.0160 C   0  0  0  0  0  3  0  0  0  0  0  0
  187.8300  176.6130  143.4230 C   0  0  0  0  0  2  0  0  0  0  0  0
  188.3350  177.4090  145.7420 C   0  0  0  0  0  1  0  0  0  0  0  0
  187.4300  177.3610  144.6040 N   0  0  0  0  0  0  0  0  0  0  0  0
  185.8610  178.7520  145.6390 O   0  0  0  0  0  1  0  0  0  0  0  0
  185.3420  178.0480  143.5260 O   0  0  0  0  0  0  0  0  0  0  0  0
  186.1910  178.0820  144.6250 C   0  0  0  0  0  0  0  0  0  0  0  0
  1  8  1  0  0  0  0
  2 14  1  0  0  0  0
  3  8  1  6  0  0  0
  3 18  1  0  0  0  0
  4 10  1  0  0  0  0
  5  6  2  0  0  0  0
  6  2  1  0  0  0  0
  7 17  2  0  0  0  0
  8  2  2  0  0  0  0
  9 27  1  0  0  0  0
 10 17  1  0  0  0  0
 11  5  1  0  0  0  0
 11  1  2  0  0  0  0
 13  1  1  0  0  0  0
 13 12  1  0  0  0  0
 15  4  1  0  0  0  0
 16 15  1  6  0  0  0
 17  9  1  0  0  0  0
 18  4  2  0  0  0  0
 18  7  1  0  0  0  0
 19 12  1  1  0  0  0
 19 16  1  0  0  0  0
 19  3  1  0  0  0  0
 21 20  1  0  0  0  0
 22 24  1  1  0  0  0
 22 25  1  0  0  0  0
 22 16  1  0  0  0  0
 23 21  1  0  0  0  0
 24 26  1  0  0  0  0
 25 23  1  0  0  0  0
 26 20  1  0  0  0  0
 27 28  2  0  0  0  0
 28 29  1  0  0  0  0
 29 31  1  0  0  0  0
 31 34  1  0  0  0  0
 31 30  1  0  0  0  0
 33 34  2  0  0  0  0
 34 32  1  0  0  0  0
M  END
>  <MODEL>
6

>  <REMARK>
 VINA RESULT:      -6.7      1.924      2.698
  Name = 
  4 active torsions:
  status: ('A' for Active; 'I' for Inactive)
    1  A    between atoms: N_3  and  C_17
    2  A    between atoms: C_12  and  C_28
    3  A    between atoms: C_13  and  C_33
    4  A    between atoms: N_14  and  C_33
                            x       y       z     vdW  Elec       q    Type
                         _______ _______ _______ _____ _____    ______ ____

>  <TORSDO>
F 4

$$$$
=
 OpenBabel11052414083D

 34 38  0  0  1  0  0  0  0  0999 V2000
  179.9610  177.1090  140.8330 C   0  0  0  0  0  0  0  0  0  0  0  0
  181.5180  178.8730  140.2040 C   0  0  0  0  0  0  0  0  0  0  0  0
  181.7230  176.4730  139.1790 C   0  0  2  0  0  3  0  0  0  0  0  0
  182.8540  176.4880  136.9790 C   0  0  0  0  0  0  0  0  0  0  0  0
  179.8270  179.2810  141.8930 C   0  0  0  0  0  3  0  0  0  0  0  0
  180.8970  179.7270  141.1200 C   0  0  0  0  0  3  0  0  0  0  0  0
  184.0380  177.4850  138.6820 N   0  0  0  0  0  0  0  0  0  0  0  0
  181.0770  177.5330  140.0680 C   0  0  0  0  0  0  0  0  0  0  0  0
  186.1960  177.9980  137.7300 C   0  0  0  0  0  2  0  0  0  0  0  0
  184.3160  176.9380  136.0420 S   0  0  0  0  0  0  0  0  0  0  0  0
  179.3530  177.9810  141.7380 C   0  0  0  0  0  3  0  0  0  0  0  0
  180.1100  174.8750  139.6560 C   0  0  0  0  0  2  0  0  0  0  0  0
  179.3130  175.7680  140.6080 C   0  0  0  0  0  2  0  0  0  0  0  0
  182.5000  179.3980  139.4390 F   0  0  0  0  0  0  0  0  0  0  0  0
  181.9430  175.4950  136.5300 N   0  0  0  0  0  2  0  0  0  0  0  0
  181.1550  174.7470  137.5070 C   0  0  1  0  0  3  0  0  0  0  0  0
  184.9540  177.5440  137.5980 C   0  0  0  0  0  0  0  0  0  0  0  0
  182.8200  176.9090  138.2320 C   0  0  0  0  0  0  0  0  0  0  0  0
  180.6520  175.6650  138.5510 N   0  0  2  0  0  0  0  0  0  0  0  0
  181.7900  171.7030  136.8500 C   0  0  0  0  0  2  0  0  0  0  0  0
  181.3240  171.6470  135.4010 C   0  0  0  0  0  2  0  0  0  0  0  0
  179.9910  174.0220  136.7830 C   0  0  2  0  0  3  0  0  0  0  0  0
  181.3520  173.0550  134.8270 C   0  0  0  0  0  2  0  0  0  0  0  0
  179.5750  172.6790  137.4020 C   0  0  0  0  0  2  0  0  0  0  0  0
  180.1400  173.8760  135.2610 C   0  0  0  0  0  2  0  0  0  0  0  0
  180.6910  171.8160  137.8190 N   0  0  0  0  0  2  0  0  0  0  0  0
  186.6760  178.4660  138.9860 N   0  0  0  0  0  0  0  0  0  0  0  0
  187.8100  178.0470  139.4400 C   0  0  0  0  0  3  0  0  0  0  0  0
  188.3120  178.5380  140.7530 C   0  0  0  0  0  2  0  0  0  0  0  0
  190.1390  176.8820  141.1900 C   0  0  0  0  0  1  0  0  0  0  0  0
  188.8340  177.4270  141.5340 N   0  0  0  0  0  0  0  0  0  0  0  0
  188.5690  175.9720  143.3450 O   0  0  0  0  0  1  0  0  0  0  0  0
  186.8650  177.4560  142.9880 O   0  0  0  0  0  0  0  0  0  0  0  0
  188.1010  176.9160  142.6540 C   0  0  0  0  0  0  0  0  0  0  0  0
  1 11  1  0  0  0  0
  2  6  2  0  0  0  0
  3 18  1  6  0  0  0
  3  8  1  0  0  0  0
  4 18  2  0  0  0  0
  6  5  1  0  0  0  0
  8  2  1  0  0  0  0
  8  1  2  0  0  0  0
  9 27  1  0  0  0  0
 10  4  1  0  0  0  0
 10 17  1  0  0  0  0
 11  5  2  0  0  0  0
 12 13  1  0  0  0  0
 13  1  1  0  0  0  0
 14  2  1  0  0  0  0
 15  4  1  0  0  0  0
 16 15  1  6  0  0  0
 16 19  1  0  0  0  0
 17  9  1  0  0  0  0
 17  7  2  0  0  0  0
 18  7  1  0  0  0  0
 19  3  1  0  0  0  0
 19 12  1  1  0  0  0
 20 26  1  0  0  0  0
 21 20  1  0  0  0  0
 22 25  1  6  0  0  0
 22 24  1  0  0  0  0
 22 16  1  0  0  0  0
 23 25  1  0  0  0  0
 23 21  1  0  0  0  0
 24 26  1  0  0  0  0
 27 28  2  0  0  0  0
 28 29  1  0  0  0  0
 29 31  1  0  0  0  0
 30 31  1  0  0  0  0
 31 34  1  0  0  0  0
 34 33  2  0  0  0  0
 34 32  1  0  0  0  0
M  END
>  <MODEL>
7

>  <REMARK>
 VINA RESULT:      -6.5      6.071      9.064
  Name = 
  4 active torsions:
  status: ('A' for Active; 'I' for Inactive)
    1  A    between atoms: N_3  and  C_17
    2  A    between atoms: C_12  and  C_28
    3  A    between atoms: C_13  and  C_33
    4  A    between atoms: N_14  and  C_33
                            x       y       z     vdW  Elec       q    Type
                         _______ _______ _______ _____ _____    ______ ____

>  <TORSDO>
F 4

$$$$
=
 OpenBabel11052414083D

 34 38  0  0  1  0  0  0  0  0999 V2000
  182.7000  178.6180  142.6430 C   0  0  0  0  0  0  0  0  0  0  0  0
  185.0410  179.2810  142.5300 C   0  0  0  0  0  0  0  0  0  0  0  0
  183.8810  178.0970  140.5030 C   0  0  2  0  0  3  0  0  0  0  0  0
  184.9820  178.6320  138.3520 C   0  0  0  0  0  0  0  0  0  0  0  0
  183.7790  179.5930  144.5770 C   0  0  0  0  0  3  0  0  0  0  0  0
  184.9660  179.7130  143.8570 C   0  0  0  0  0  3  0  0  0  0  0  0
  186.3810  177.7820  139.9700 N   0  0  0  0  0  0  0  0  0  0  0  0
  183.9100  178.6940  141.9080 C   0  0  0  0  0  0  0  0  0  0  0  0
  188.4990  177.4550  138.8590 C   0  0  0  0  0  2  0  0  0  0  0  0
  186.5000  178.6280  137.3990 S   0  0  0  0  0  0  0  0  0  0  0  0
  182.6470  179.0610  143.9660 C   0  0  0  0  0  3  0  0  0  0  0  0
  181.6060  177.6540  140.5760 C   0  0  0  0  0  2  0  0  0  0  0  0
  181.4090  178.1890  141.9950 C   0  0  0  0  0  2  0  0  0  0  0  0
  186.2030  179.4970  141.8750 F   0  0  0  0  0  0  0  0  0  0  0  0
  183.7020  178.6900  137.7390 N   0  0  0  0  0  2  0  0  0  0  0  0
  182.5480  178.1130  138.4250 C   0  0  1  0  0  3  0  0  0  0  0  0
  187.2420  177.8870  138.8460 C   0  0  0  0  0  0  0  0  0  0  0  0
  185.0980  178.2860  139.6240 C   0  0  0  0  0  0  0  0  0  0  0  0
  182.5960  178.4580  139.8610 N   0  0  2  0  0  0  0  0  0  0  0  0
  181.2380  176.0110  136.4320 C   0  0  0  0  0  2  0  0  0  0  0  0
  180.9500  176.9230  135.2460 C   0  0  0  0  0  2  0  0  0  0  0  0
  181.2450  178.6290  137.7620 C   0  0  2  0  0  3  0  0  0  0  0  0
  181.8760  178.1250  135.3210 C   0  0  0  0  0  2  0  0  0  0  0  0
  180.0480  177.6690  137.8460 C   0  0  0  0  0  2  0  0  0  0  0  0
  181.3910  179.1630  136.3300 C   0  0  0  0  0  2  0  0  0  0  0  0
  180.3670  176.2550  137.5900 N   0  0  0  0  0  2  0  0  0  0  0  0
  189.0580  176.8610  140.0270 N   0  0  0  0  0  0  0  0  0  0  0  0
  189.8340  177.5510  140.7940 C   0  0  0  0  0  3  0  0  0  0  0  0
  190.4170  176.9300  142.0150 C   0  0  0  0  0  2  0  0  0  0  0  0
  190.5570  178.7090  143.7710 C   0  0  0  0  0  1  0  0  0  0  0  0
  189.8680  177.5600  143.2050 N   0  0  0  0  0  0  0  0  0  0  0  0
  188.1520  177.6550  144.7920 O   0  0  0  0  0  1  0  0  0  0  0  0
  187.9770  176.0030  143.2180 O   0  0  0  0  0  0  0  0  0  0  0  0
  188.6400  177.0900  143.7770 C   0  0  0  0  0  0  0  0  0  0  0  0
  1 11  1  0  0  0  0
  2  6  2  0  0  0  0
  3 18  1  6  0  0  0
  3  8  1  0  0  0  0
  4 18  2  0  0  0  0
  6  5  1  0  0  0  0
  8  2  1  0  0  0  0
  8  1  2  0  0  0  0
  9 27  1  0  0  0  0
 10  4  1  0  0  0  0
 10 17  1  0  0  0  0
 11  5  2  0  0  0  0
 12 13  1  0  0  0  0
 13  1  1  0  0  0  0
 14  2  1  0  0  0  0
 15  4  1  0  0  0  0
 16 15  1  6  0  0  0
 16 19  1  0  0  0  0
 17  9  1  0  0  0  0
 17  7  2  0  0  0  0
 18  7  1  0  0  0  0
 19  3  1  0  0  0  0
 19 12  1  1  0  0  0
 20 26  1  0  0  0  0
 21 23  1  0  0  0  0
 21 20  1  0  0  0  0
 22 25  1  6  0  0  0
 22 24  1  0  0  0  0
 22 16  1  0  0  0  0
 23 25  1  0  0  0  0
 26 24  1  0  0  0  0
 27 28  2  0  0  0  0
 28 29  1  0  0  0  0
 29 31  1  0  0  0  0
 31 30  1  0  0  0  0
 31 34  1  0  0  0  0
 33 34  2  0  0  0  0
 34 32  1  0  0  0  0
M  END
>  <MODEL>
8

>  <REMARK>
 VINA RESULT:      -6.4      4.635      8.240
  Name = 
  4 active torsions:
  status: ('A' for Active; 'I' for Inactive)
    1  A    between atoms: N_3  and  C_17
    2  A    between atoms: C_12  and  C_28
    3  A    between atoms: C_13  and  C_33
    4  A    between atoms: N_14  and  C_33
                            x       y       z     vdW  Elec       q    Type
                         _______ _______ _______ _____ _____    ______ ____

>  <TORSDO>
F 4

$$$$
=
 OpenBabel11052414083D

 34 38  0  0  1  0  0  0  0  0999 V2000
  189.6250  177.1700  137.4530 C   0  0  0  0  0  0  0  0  0  0  0  0
  187.5250  178.3650  137.1460 C   0  0  0  0  0  0  0  0  0  0  0  0
  188.2410  177.4920  139.5090 C   0  0  2  0  0  3  0  0  0  0  0  0
  187.2020  178.7900  141.3410 C   0  0  0  0  0  0  0  0  0  0  0  0
  188.9290  177.8520  135.2370 C   0  0  0  0  0  3  0  0  0  0  0  0
  187.7750  178.4210  135.7730 C   0  0  0  0  0  3  0  0  0  0  0  0
  185.7190  177.9100  139.8160 N   0  0  0  0  0  0  0  0  0  0  0  0
  188.4370  177.7070  138.0100 C   0  0  0  0  0  0  0  0  0  0  0  0
  183.5330  178.3730  140.7280 C   0  0  0  0  0  2  0  0  0  0  0  0
  185.6840  179.3780  142.0940 S   0  0  0  0  0  0  0  0  0  0  0  0
  189.8570  177.2430  136.0770 C   0  0  0  0  0  3  0  0  0  0  0  0
  190.3320  176.5290  139.7950 C   0  0  0  0  0  2  0  0  0  0  0  0
  190.7300  176.6300  138.3220 C   0  0  0  0  0  2  0  0  0  0  0  0
  186.4230  179.0020  137.6000 F   0  0  0  0  0  0  0  0  0  0  0  0
  188.4210  178.7010  142.0630 N   0  0  0  0  0  2  0  0  0  0  0  0
  189.4260  177.7180  141.6630 C   0  0  1  0  0  3  0  0  0  0  0  0
  184.8550  178.4910  140.7820 C   0  0  0  0  0  0  0  0  0  0  0  0
  187.0670  178.1720  140.1790 C   0  0  0  0  0  0  0  0  0  0  0  0
  189.5410  177.6930  140.1900 N   0  0  2  0  0  0  0  0  0  0  0  0
  190.0090  176.0120  144.2810 C   0  0  0  0  0  2  0  0  0  0  0  0
  190.4660  177.1220  145.2180 C   0  0  0  0  0  2  0  0  0  0  0  0
  190.7810  178.0670  142.3310 C   0  0  2  0  0  3  0  0  0  0  0  0
  189.9030  178.4430  144.7180 C   0  0  0  0  0  2  0  0  0  0  0  0
  191.6780  176.8610  142.6510 C   0  0  0  0  0  2  0  0  0  0  0  0
  190.7050  179.0030  143.5460 C   0  0  0  0  0  2  0  0  0  0  0  0
  190.9760  175.6990  143.2200 N   0  0  0  0  0  2  0  0  0  0  0  0
  182.9030  177.6520  139.6730 N   0  0  0  0  0  0  0  0  0  0  0  0
  182.6800  176.3870  139.7990 C   0  0  0  0  0  3  0  0  0  0  0  0
  182.0210  175.6340  138.6960 C   0  0  0  0  0  2  0  0  0  0  0  0
  183.9740  174.5000  137.6150 C   0  0  0  0  0  1  0  0  0  0  0  0
  182.9280  175.5100  137.5660 N   0  0  0  0  0  0  0  0  0  0  0  0
  183.5280  176.2010  135.4140 O   0  0  0  0  0  0  0  0  0  0  0  0
  181.7430  177.2780  136.3560 O   0  0  0  0  0  1  0  0  0  0  0  0
  182.7580  176.3300  136.4030 C   0  0  0  0  0  0  0  0  0  0  0  0
  1  8  1  0  0  0  0
  1 13  1  0  0  0  0
  2 14  1  0  0  0  0
  2  8  2  0  0  0  0
  3  8  1  6  0  0  0
  3 18  1  0  0  0  0
  3 19  1  0  0  0  0
  4 15  1  0  0  0  0
  4 10  1  0  0  0  0
  5  6  2  0  0  0  0
  5 11  1  0  0  0  0
  6  2  1  0  0  0  0
  7 18  1  0  0  0  0
  7 17  2  0  0  0  0
  9 17  1  0  0  0  0
 11  1  2  0  0  0  0
 13 12  1  0  0  0  0
 16 15  1  6  0  0  0
 16 22  1  0  0  0  0
 17 10  1  0  0  0  0
 18  4  2  0  0  0  0
 19 12  1  1  0  0  0
 19 16  1  0  0  0  0
 20 21  1  0  0  0  0
 22 24  1  1  0  0  0
 22 25  1  0  0  0  0
 23 21  1  0  0  0  0
 24 26  1  0  0  0  0
 25 23  1  0  0  0  0
 26 20  1  0  0  0  0
 27 28  2  0  0  0  0
 27  9  1  0  0  0  0
 29 28  1  0  0  0  0
 31 30  1  0  0  0  0
 31 29  1  0  0  0  0
 32 34  2  0  0  0  0
 33 34  1  0  0  0  0
 34 31  1  0  0  0  0
M  END
>  <MODEL>
9

>  <REMARK>
 VINA RESULT:      -6.3      4.518      7.575
  Name = 
  4 active torsions:
  status: ('A' for Active; 'I' for Inactive)
    1  A    between atoms: N_3  and  C_17
    2  A    between atoms: C_12  and  C_28
    3  A    between atoms: C_13  and  C_33
    4  A    between atoms: N_14  and  C_33
                            x       y       z     vdW  Elec       q    Type
                         _______ _______ _______ _____ _____    ______ ____

>  <TORSDO>
F 4

$$$$
