=
 OpenBabel11052416403D

 43 48  0  0  1  0  0  0  0  0999 V2000
  181.1980  178.4800  140.1940 C   0  0  2  0  0  3  0  0  0  0  0  0
  186.6060  178.0000  145.8350 C   0  0  0  0  0  0  0  0  0  0  0  0
  182.8100  178.7110  142.5080 C   0  0  0  0  0  0  0  0  0  0  0  0
  184.7030  177.8670  140.9720 C   0  0  0  0  0  3  0  0  0  0  0  0
  184.6050  178.7860  144.7060 C   0  0  0  0  0  0  0  0  0  0  0  0
  186.9730  177.2620  144.6050 C   0  0  0  0  0  3  0  0  0  0  0  0
  187.4260  177.8990  146.9880 N   0  0  0  0  0  1  0  0  0  0  0  0
  185.2430  178.5090  143.3530 C   0  0  1  0  0  3  0  0  0  0  0  0
  185.4620  178.6890  145.8970 C   0  0  0  0  0  3  0  0  0  0  0  0
  186.3120  177.4530  143.4570 C   0  0  0  0  0  3  0  0  0  0  0  0
  183.8420  177.7330  139.7770 N   0  0  0  0  0  0  0  0  0  0  0  0
  184.2530  178.2860  142.2340 C   0  0  0  0  0  0  0  0  0  0  0  0
  182.3820  179.1150  143.6960 C   0  0  0  0  0  3  0  0  0  0  0  0
  182.0220  178.5800  141.3220 C   0  0  0  0  0  0  0  0  0  0  0  0
  182.5400  178.1250  140.1000 C   0  0  0  0  0  0  0  0  0  0  0  0
  183.3140  179.1190  144.8400 C   0  0  0  0  0  3  0  0  0  0  0  0
  181.7610  181.7350  138.2940 C   0  0  0  0  0  3  0  0  0  0  0  0
  180.4720  182.2770  138.2800 C   0  0  0  0  0  0  0  0  0  0  0  0
  179.6590  180.3680  139.5370 C   0  0  0  0  0  3  0  0  0  0  0  0
  182.0000  180.5100  138.9300 C   0  0  0  0  0  3  0  0  0  0  0  0
  180.9530  179.8250  139.5690 C   0  0  0  0  0  0  0  0  0  0  0  0
  179.4180  181.5880  138.8980 C   0  0  0  0  0  3  0  0  0  0  0  0
  181.5300  184.2320  137.2050 C   0  0  0  0  0  1  0  0  0  0  0  0
  180.2130  183.5660  137.5770 C   0  0  0  0  0  2  0  0  0  0  0  0
  184.2720  177.3260  138.4460 C   0  0  1  0  0  3  0  0  0  0  0  0
  183.1460  177.4770  137.4350 C   0  0  0  0  0  1  0  0  0  0  0  0
  185.5400  179.3500  138.3630 F   0  0  0  0  0  0  0  0  0  0  0  0
  185.5780  178.0110  138.0110 C   0  0  2  0  0  0  0  0  0  0  0  0
  185.6800  177.9350  136.4950 C   0  0  0  0  0  1  0  0  0  0  0  0
  186.8320  177.3570  138.6000 C   0  0  0  0  0  2  0  0  0  0  0  0
  187.5660  178.2510  139.5970 C   0  0  0  0  0  2  0  0  0  0  0  0
  189.0320  178.4850  139.2060 C   0  0  2  0  0  3  0  0  0  0  0  0
  189.2850  178.4490  137.6940 C   0  0  0  0  0  2  0  0  0  0  0  0
  188.8680  179.6490  137.1140 O   0  0  0  0  0  1  0  0  0  0  0  0
  189.9920  177.7100  140.0230 N   0  0  0  0  0  0  0  0  0  0  0  0
  190.8610  176.9070  139.1710 C   0  0  0  0  0  1  0  0  0  0  0  0
  189.4150  176.9080  141.1250 C   0  0  0  0  0  2  0  0  0  0  0  0
  190.0410  177.1240  142.4750 C   0  0  0  0  0  0  0  0  0  0  0  0
  191.3180  176.3110  144.3710 C   0  0  0  0  0  3  0  0  0  0  0  0
  190.5840  178.6160  144.3170 C   0  0  0  0  0  3  0  0  0  0  0  0
  191.2470  177.5750  144.9700 C   0  0  0  0  0  3  0  0  0  0  0  0
  189.9870  178.3920  143.0710 C   0  0  0  0  0  3  0  0  0  0  0  0
  190.7200  176.0880  143.1250 C   0  0  0  0  0  3  0  0  0  0  0  0
  1 21  1  6  0  0  0
  1 14  1  0  0  0  0
  2  9  2  0  0  0  0
  2  7  1  0  0  0  0
  3 13  2  0  0  0  0
  4 12  2  0  0  0  0
  5 16  2  0  0  0  0
  5  9  1  0  0  0  0
  6  2  1  0  0  0  0
  8 10  1  1  0  0  0
  8  5  1  0  0  0  0
 10  6  2  0  0  0  0
 11 15  1  0  0  0  0
 11  4  1  0  0  0  0
 12  3  1  0  0  0  0
 12  8  1  0  0  0  0
 13 16  1  0  0  0  0
 14  3  1  0  0  0  0
 15  1  1  0  0  0  0
 15 14  2  0  0  0  0
 17 20  1  0  0  0  0
 18 17  2  0  0  0  0
 18 22  1  0  0  0  0
 19 21  1  0  0  0  0
 20 21  2  0  0  0  0
 22 19  2  0  0  0  0
 23 24  1  0  0  0  0
 24 18  1  0  0  0  0
 25 26  1  6  0  0  0
 25 11  1  0  0  0  0
 28 29  1  6  0  0  0
 28 27  1  0  0  0  0
 28 25  1  0  0  0  0
 28 30  1  0  0  0  0
 30 31  1  0  0  0  0
 32 33  1  6  0  0  0
 32 31  1  0  0  0  0
 32 35  1  0  0  0  0
 34 33  1  0  0  0  0
 35 37  1  0  0  0  0
 36 35  1  0  0  0  0
 37 38  1  0  0  0  0
 38 42  2  0  0  0  0
 38 43  1  0  0  0  0
 39 41  1  0  0  0  0
 40 41  2  0  0  0  0
 42 40  1  0  0  0  0
 43 39  2  0  0  0  0
M  END
>  <MODEL>
1

>  <REMARK>
 VINA RESULT:      -9.1      0.000      0.000
  Name = 
  11 active torsions:
  status: ('A' for Active; 'I' for Inactive)
    1  A    between atoms: C_1  and  C_35
    2  A    between atoms: C_2  and  C_12
    3  A    between atoms: C_2  and  N_27
    4  A    between atoms: C_4  and  C_6
    5  A    between atoms: C_4  and  C_15
    6  A    between atoms: C_6  and  C_12
    7  A    between atoms: C_10  and  C_15
    8  A    between atoms: C_11  and  C_14
    9  A    between atoms: C_14  and  N_22
   10  A    between atoms: C_15  and  N_22
   11  A    between atoms: C_19  and  C_37
                            x       y       z     vdW  Elec       q    Type
                         _______ _______ _______ _____ _____    ______ ____

>  <TORSDO>
F 11

$$$$
=
 OpenBabel11052416403D

 43 48  0  0  1  0  0  0  0  0999 V2000
  191.8200  177.4950  139.0040 C   0  0  2  0  0  3  0  0  0  0  0  0
  188.1930  177.3220  145.9400 C   0  0  0  0  0  0  0  0  0  0  0  0
  190.9600  177.0740  141.6660 C   0  0  0  0  0  0  0  0  0  0  0  0
  188.6260  177.6740  140.7470 C   0  0  0  0  0  3  0  0  0  0  0  0
  189.8760  176.7850  144.2740 C   0  0  0  0  0  0  0  0  0  0  0  0
  187.4100  178.0050  144.8860 C   0  0  0  0  0  3  0  0  0  0  0  0
  187.7230  177.3250  147.2790 N   0  0  0  0  0  1  0  0  0  0  0  0
  188.8560  176.9780  143.1620 C   0  0  1  0  0  3  0  0  0  0  0  0
  189.3820  176.7800  145.6600 C   0  0  0  0  0  3  0  0  0  0  0  0
  187.7410  177.8940  143.5940 C   0  0  0  0  0  3  0  0  0  0  0  0
  189.0950  177.9100  139.3640 N   0  0  0  0  0  0  0  0  0  0  0  0
  189.4590  177.3170  141.8190 C   0  0  0  0  0  0  0  0  0  0  0  0
  191.7490  176.7290  142.6750 C   0  0  0  0  0  3  0  0  0  0  0  0
  191.3620  177.2970  140.3130 C   0  0  0  0  0  0  0  0  0  0  0  0
  190.4720  177.6810  139.2980 C   0  0  0  0  0  0  0  0  0  0  0  0
  191.1830  176.6140  144.0330 C   0  0  0  0  0  3  0  0  0  0  0  0
  191.1460  174.1330  137.3430 C   0  0  0  0  0  3  0  0  0  0  0  0
  192.4120  173.8080  136.8450 C   0  0  0  0  0  0  0  0  0  0  0  0
  193.3020  175.8640  137.7770 C   0  0  0  0  0  3  0  0  0  0  0  0
  190.9570  175.3210  138.0580 C   0  0  0  0  0  3  0  0  0  0  0  0
  192.0370  176.1890  138.2930 C   0  0  0  0  0  0  0  0  0  0  0  0
  193.4900  174.6800  137.0580 C   0  0  0  0  0  3  0  0  0  0  0  0
  191.6790  172.5490  134.8500 C   0  0  0  0  0  1  0  0  0  0  0  0
  192.6050  172.5570  136.0580 C   0  0  0  0  0  2  0  0  0  0  0  0
  188.2630  178.2570  138.2190 C   0  0  1  0  0  3  0  0  0  0  0  0
  189.0300  179.1140  137.2240 C   0  0  0  0  0  1  0  0  0  0  0  0
  187.9070  175.8960  138.3120 F   0  0  0  0  0  0  0  0  0  0  0  0
  187.5950  177.0290  137.5790 C   0  0  2  0  0  0  0  0  0  0  0  0
  188.1650  176.8450  136.1800 C   0  0  0  0  0  1  0  0  0  0  0  0
  186.0740  177.1620  137.4540 C   0  0  0  0  0  2  0  0  0  0  0  0
  185.4850  178.2240  138.3800 C   0  0  0  0  0  2  0  0  0  0  0  0
  183.9490  178.2160  138.3790 C   0  0  2  0  0  3  0  0  0  0  0  0
  183.3210  179.6140  138.4130 C   0  0  0  0  0  2  0  0  0  0  0  0
  184.1900  180.5110  139.0380 O   0  0  0  0  0  1  0  0  0  0  0  0
  183.3640  177.2400  139.3260 N   0  0  0  0  0  0  0  0  0  0  0  0
  183.0330  175.9950  138.6430 C   0  0  0  0  0  1  0  0  0  0  0  0
  182.2360  177.7270  140.1530 C   0  0  0  0  0  2  0  0  0  0  0  0
  182.6130  178.2550  141.5090 C   0  0  0  0  0  0  0  0  0  0  0  0
  181.9980  179.1770  143.6680 C   0  0  0  0  0  3  0  0  0  0  0  0
  184.3230  178.7170  143.1760 C   0  0  0  0  0  3  0  0  0  0  0  0
  183.3430  179.1850  144.0550 C   0  0  0  0  0  3  0  0  0  0  0  0
  183.9560  178.2490  141.9080 C   0  0  0  0  0  3  0  0  0  0  0  0
  181.6340  178.7090  142.3990 C   0  0  0  0  0  3  0  0  0  0  0  0
  1 21  1  6  0  0  0
  1 15  1  0  0  0  0
  1 14  1  0  0  0  0
  2  7  1  0  0  0  0
  3 12  1  0  0  0  0
  3 13  2  0  0  0  0
  4 12  2  0  0  0  0
  5  9  1  0  0  0  0
  6  2  1  0  0  0  0
  8 10  1  1  0  0  0
  8  5  1  0  0  0  0
  9  2  2  0  0  0  0
 10  6  2  0  0  0  0
 11  4  1  0  0  0  0
 12  8  1  0  0  0  0
 13 16  1  0  0  0  0
 14  3  1  0  0  0  0
 15 11  1  0  0  0  0
 15 14  2  0  0  0  0
 16  5  2  0  0  0  0
 17 20  1  0  0  0  0
 18 22  1  0  0  0  0
 18 17  2  0  0  0  0
 19 21  1  0  0  0  0
 20 21  2  0  0  0  0
 22 19  2  0  0  0  0
 23 24  1  0  0  0  0
 24 18  1  0  0  0  0
 25 26  1  6  0  0  0
 25 11  1  0  0  0  0
 28 29  1  6  0  0  0
 28 25  1  0  0  0  0
 28 27  1  0  0  0  0
 30 28  1  0  0  0  0
 30 31  1  0  0  0  0
 32 31  1  1  0  0  0
 32 33  1  0  0  0  0
 32 35  1  0  0  0  0
 33 34  1  0  0  0  0
 35 37  1  0  0  0  0
 36 35  1  0  0  0  0
 37 38  1  0  0  0  0
 38 42  2  0  0  0  0
 38 43  1  0  0  0  0
 39 41  1  0  0  0  0
 40 41  2  0  0  0  0
 42 40  1  0  0  0  0
 43 39  2  0  0  0  0
M  END
>  <MODEL>
2

>  <REMARK>
 VINA RESULT:      -8.7      2.276      8.305
  Name = 
  11 active torsions:
  status: ('A' for Active; 'I' for Inactive)
    1  A    between atoms: C_1  and  C_35
    2  A    between atoms: C_2  and  C_12
    3  A    between atoms: C_2  and  N_27
    4  A    between atoms: C_4  and  C_6
    5  A    between atoms: C_4  and  C_15
    6  A    between atoms: C_6  and  C_12
    7  A    between atoms: C_10  and  C_15
    8  A    between atoms: C_11  and  C_14
    9  A    between atoms: C_14  and  N_22
   10  A    between atoms: C_15  and  N_22
   11  A    between atoms: C_19  and  C_37
                            x       y       z     vdW  Elec       q    Type
                         _______ _______ _______ _____ _____    ______ ____

>  <TORSDO>
F 11

$$$$
=
 OpenBabel11052416403D

 43 48  0  0  1  0  0  0  0  0999 V2000
  187.8140  178.6570  137.4350 C   0  0  2  0  0  3  0  0  0  0  0  0
  194.4090  174.5080  136.6690 C   0  0  0  0  0  0  0  0  0  0  0  0
  189.9310  176.9440  136.6680 C   0  0  0  0  0  0  0  0  0  0  0  0
  190.5730  177.0250  139.1660 C   0  0  0  0  0  3  0  0  0  0  0  0
  192.1740  175.2890  136.1300 C   0  0  0  0  0  0  0  0  0  0  0  0
  194.3240  175.2430  137.9510 C   0  0  0  0  0  3  0  0  0  0  0  0
  195.6010  173.8170  136.3320 N   0  0  0  0  0  1  0  0  0  0  0  0
  191.8940  175.5480  137.6020 C   0  0  0  0  0  0  0  0  0  0  0  0
  193.4070  174.5640  135.7860 C   0  0  0  0  0  2  0  0  0  0  0  0
  193.1690  175.7760  138.3700 C   0  0  0  0  0  3  0  0  0  0  0  0
  189.4720  177.9370  139.5460 N   0  0  0  0  0  0  0  0  0  0  0  0
  190.8190  176.5780  137.8570 C   0  0  0  0  0  0  0  0  0  0  0  0
  190.1560  176.5170  135.4320 C   0  0  0  0  0  3  0  0  0  0  0  0
  188.8750  177.8110  137.0880 C   0  0  0  0  0  0  0  0  0  0  0  0
  188.7100  178.2380  138.4140 C   0  0  0  0  0  0  0  0  0  0  0  0
  191.3420  175.6850  135.1570 C   0  0  0  0  0  3  0  0  0  0  0  0
  185.1940  175.9150  137.0630 C   0  0  0  0  0  3  0  0  0  0  0  0
  184.1460  176.4230  137.8380 C   0  0  0  0  0  0  0  0  0  0  0  0
  185.4670  178.3980  138.3250 C   0  0  0  0  0  3  0  0  0  0  0  0
  186.3780  176.6470  136.9190 C   0  0  0  0  0  3  0  0  0  0  0  0
  186.5180  177.9020  137.5370 C   0  0  0  0  0  0  0  0  0  0  0  0
  184.2870  177.6650  138.4740 C   0  0  0  0  0  3  0  0  0  0  0  0
  182.2660  175.9380  139.3650 C   0  0  0  0  0  1  0  0  0  0  0  0
  182.8970  175.6280  138.0150 C   0  0  0  0  0  2  0  0  0  0  0  0
  189.1670  178.4050  140.8910 C   0  0  1  0  0  3  0  0  0  0  0  0
  187.6660  178.4200  141.1400 C   0  0  0  0  0  1  0  0  0  0  0  0
  191.3010  177.6350  141.6420 F   0  0  0  0  0  0  0  0  0  0  0  0
  189.9570  177.6510  141.9740 C   0  0  2  0  0  0  0  0  0  0  0  0
  189.4730  176.2090  142.0060 C   0  0  0  0  0  1  0  0  0  0  0  0
  189.7770  178.2390  143.3770 C   0  0  0  0  0  2  0  0  0  0  0  0
  189.5130  177.1800  144.4450 C   0  0  0  0  0  2  0  0  0  0  0  0
  189.7250  177.7160  145.8680 C   0  0  2  0  0  3  0  0  0  0  0  0
  190.7310  176.9050  146.6930 C   0  0  0  0  0  2  0  0  0  0  0  0
  191.9820  176.9260  146.0720 O   0  0  0  0  0  1  0  0  0  0  0  0
  188.4640  178.0520  146.5660 N   0  0  0  0  0  0  0  0  0  0  0  0
  188.6980  178.2250  147.9950 C   0  0  0  0  0  1  0  0  0  0  0  0
  187.3140  177.1580  146.3050 C   0  0  0  0  0  2  0  0  0  0  0  0
  186.1440  177.7980  145.6100 C   0  0  0  0  0  0  0  0  0  0  0  0
  184.9570  178.3970  143.5800 C   0  0  0  0  0  3  0  0  0  0  0  0
  183.9920  178.9220  145.7360 C   0  0  0  0  0  3  0  0  0  0  0  0
  183.9220  178.9530  144.3420 C   0  0  0  0  0  3  0  0  0  0  0  0
  185.0980  178.3420  146.3670 C   0  0  0  0  0  3  0  0  0  0  0  0
  186.0640  177.8170  144.2130 C   0  0  0  0  0  3  0  0  0  0  0  0
  1 21  1  1  0  0  0
  1 15  1  0  0  0  0
  2  6  2  0  0  0  0
  3 14  1  0  0  0  0
  3 12  1  0  0  0  0
  4 11  1  0  0  0  0
  5  8  1  0  0  0  0
  6 10  1  0  0  0  0
  7  2  1  0  0  0  0
  8 12  1  0  0  0  0
  8 10  2  0  0  0  0
  9  5  1  0  0  0  0
  9  2  1  0  0  0  0
 11 25  1  0  0  0  0
 12  4  2  0  0  0  0
 13  3  2  0  0  0  0
 14  1  1  0  0  0  0
 14 15  2  0  0  0  0
 15 11  1  0  0  0  0
 16 13  1  0  0  0  0
 16  5  2  0  0  0  0
 17 18  1  0  0  0  0
 18 24  1  0  0  0  0
 18 22  2  0  0  0  0
 19 22  1  0  0  0  0
 20 17  2  0  0  0  0
 20 21  1  0  0  0  0
 21 19  2  0  0  0  0
 24 23  1  0  0  0  0
 25 26  1  1  0  0  0
 25 28  1  0  0  0  0
 27 28  1  0  0  0  0
 28 29  1  1  0  0  0
 28 30  1  0  0  0  0
 30 31  1  0  0  0  0
 32 31  1  6  0  0  0
 32 35  1  0  0  0  0
 32 33  1  0  0  0  0
 34 33  1  0  0  0  0
 35 36  1  0  0  0  0
 37 35  1  0  0  0  0
 38 37  1  0  0  0  0
 38 42  1  0  0  0  0
 39 43  1  0  0  0  0
 39 41  2  0  0  0  0
 40 42  2  0  0  0  0
 41 40  1  0  0  0  0
 43 38  2  0  0  0  0
M  END
>  <MODEL>
3

>  <REMARK>
 VINA RESULT:      -8.2      3.426      8.218
  Name = 
  11 active torsions:
  status: ('A' for Active; 'I' for Inactive)
    1  A    between atoms: C_1  and  C_35
    2  A    between atoms: C_2  and  C_12
    3  A    between atoms: C_2  and  N_27
    4  A    between atoms: C_4  and  C_6
    5  A    between atoms: C_4  and  C_15
    6  A    between atoms: C_6  and  C_12
    7  A    between atoms: C_10  and  C_15
    8  A    between atoms: C_11  and  C_14
    9  A    between atoms: C_14  and  N_22
   10  A    between atoms: C_15  and  N_22
   11  A    between atoms: C_19  and  C_37
                            x       y       z     vdW  Elec       q    Type
                         _______ _______ _______ _____ _____    ______ ____

>  <TORSDO>
F 11

$$$$
=
 OpenBabel11052416403D

 43 48  0  0  1  0  0  0  0  0999 V2000
  188.5500  176.1320  135.1620 C   0  0  2  0  0  3  0  0  0  0  0  0
  195.4290  173.2390  137.5280 C   0  0  0  0  0  0  0  0  0  0  0  0
  190.8510  174.5910  135.7400 C   0  0  0  0  0  0  0  0  0  0  0  0
  191.1480  176.2260  137.7130 C   0  0  0  0  0  3  0  0  0  0  0  0
  193.2430  173.2480  136.4720 C   0  0  0  0  0  0  0  0  0  0  0  0
  195.1290  174.5740  138.0910 C   0  0  0  0  0  3  0  0  0  0  0  0
  196.6960  172.6450  137.7620 N   0  0  0  0  0  1  0  0  0  0  0  0
  192.7540  174.2940  137.4620 C   0  0  0  0  0  0  0  0  0  0  0  0
  194.5520  172.6280  136.7250 C   0  0  0  0  0  2  0  0  0  0  0  0
  193.8990  175.0970  138.0210 C   0  0  0  0  0  3  0  0  0  0  0  0
  189.9530  177.0330  137.3860 N   0  0  0  0  0  0  0  0  0  0  0  0
  191.5930  175.1240  136.9650 C   0  0  0  0  0  0  0  0  0  0  0  0
  191.2640  173.5460  135.0350 C   0  0  0  0  0  3  0  0  0  0  0  0
  189.6970  175.3910  135.4740 C   0  0  0  0  0  0  0  0  0  0  0  0
  189.3310  176.4990  136.2530 C   0  0  0  0  0  0  0  0  0  0  0  0
  192.5250  172.8750  135.4040 C   0  0  0  0  0  3  0  0  0  0  0  0
  186.0660  173.3630  135.9890 C   0  0  0  0  0  3  0  0  0  0  0  0
  185.0230  174.0890  136.5750 C   0  0  0  0  0  0  0  0  0  0  0  0
  186.2570  176.1470  136.2140 C   0  0  0  0  0  3  0  0  0  0  0  0
  187.2030  174.0280  135.5160 C   0  0  0  0  0  3  0  0  0  0  0  0
  187.3010  175.4270  135.6110 C   0  0  0  0  0  0  0  0  0  0  0  0
  185.1230  175.4830  136.6930 C   0  0  0  0  0  3  0  0  0  0  0  0
  183.9450  171.8830  136.8420 C   0  0  0  0  0  1  0  0  0  0  0  0
  183.8260  173.3770  137.1060 C   0  0  0  0  0  2  0  0  0  0  0  0
  189.4430  178.1660  138.1470 C   0  0  1  0  0  3  0  0  0  0  0  0
  189.0340  179.3060  137.2260 C   0  0  0  0  0  1  0  0  0  0  0  0
  188.1830  176.3880  139.1260 F   0  0  0  0  0  0  0  0  0  0  0  0
  188.3450  177.7630  139.1440 C   0  0  2  0  0  0  0  0  0  0  0  0
  187.0330  178.3890  138.6950 C   0  0  0  0  0  1  0  0  0  0  0  0
  188.6240  178.2330  140.5750 C   0  0  0  0  0  2  0  0  0  0  0  0
  188.9200  177.0850  141.5390 C   0  0  0  0  0  2  0  0  0  0  0  0
  189.7890  177.5250  142.7260 C   0  0  2  0  0  3  0  0  0  0  0  0
  191.0150  176.6350  142.9610 C   0  0  0  0  0  2  0  0  0  0  0  0
  190.6440  175.2900  142.9020 O   0  0  0  0  0  1  0  0  0  0  0  0
  189.0080  177.8540  143.9390 N   0  0  0  0  0  0  0  0  0  0  0  0
  189.8900  178.0350  145.0850 C   0  0  0  0  0  1  0  0  0  0  0  0
  187.8800  176.9490  144.2560 C   0  0  0  0  0  2  0  0  0  0  0  0
  186.5840  177.6310  144.5990 C   0  0  0  0  0  0  0  0  0  0  0  0
  185.0550  178.5740  146.2300 C   0  0  0  0  0  3  0  0  0  0  0  0
  184.5150  178.6840  143.8730 C   0  0  0  0  0  3  0  0  0  0  0  0
  184.1830  178.9540  145.2020 C   0  0  0  0  0  3  0  0  0  0  0  0
  185.7160  178.0280  143.5730 C   0  0  0  0  0  3  0  0  0  0  0  0
  186.2550  177.9180  145.9280 C   0  0  0  0  0  3  0  0  0  0  0  0
  1 14  1  0  0  0  0
  1 21  1  1  0  0  0
  1 15  1  0  0  0  0
  2  7  1  0  0  0  0
  2  6  2  0  0  0  0
  3 12  1  0  0  0  0
  5  9  1  0  0  0  0
  5  8  1  0  0  0  0
  8 10  2  0  0  0  0
  9  2  1  0  0  0  0
 10  6  1  0  0  0  0
 11  4  1  0  0  0  0
 11 25  1  0  0  0  0
 12  8  1  0  0  0  0
 12  4  2  0  0  0  0
 13 16  1  0  0  0  0
 13  3  2  0  0  0  0
 14  3  1  0  0  0  0
 14 15  2  0  0  0  0
 15 11  1  0  0  0  0
 16  5  2  0  0  0  0
 17 18  1  0  0  0  0
 18 22  2  0  0  0  0
 18 24  1  0  0  0  0
 19 22  1  0  0  0  0
 20 21  1  0  0  0  0
 20 17  2  0  0  0  0
 21 19  2  0  0  0  0
 23 24  1  0  0  0  0
 25 26  1  6  0  0  0
 25 28  1  0  0  0  0
 27 28  1  0  0  0  0
 28 29  1  6  0  0  0
 28 30  1  0  0  0  0
 30 31  1  0  0  0  0
 32 31  1  6  0  0  0
 32 33  1  0  0  0  0
 32 35  1  0  0  0  0
 34 33  1  0  0  0  0
 35 37  1  0  0  0  0
 35 36  1  0  0  0  0
 37 38  1  0  0  0  0
 38 43  1  0  0  0  0
 40 41  2  0  0  0  0
 41 39  1  0  0  0  0
 42 40  1  0  0  0  0
 42 38  2  0  0  0  0
 43 39  2  0  0  0  0
M  END
>  <MODEL>
4

>  <REMARK>
 VINA RESULT:      -7.9      3.904      8.731
  Name = 
  11 active torsions:
  status: ('A' for Active; 'I' for Inactive)
    1  A    between atoms: C_1  and  C_35
    2  A    between atoms: C_2  and  C_12
    3  A    between atoms: C_2  and  N_27
    4  A    between atoms: C_4  and  C_6
    5  A    between atoms: C_4  and  C_15
    6  A    between atoms: C_6  and  C_12
    7  A    between atoms: C_10  and  C_15
    8  A    between atoms: C_11  and  C_14
    9  A    between atoms: C_14  and  N_22
   10  A    between atoms: C_15  and  N_22
   11  A    between atoms: C_19  and  C_37
                            x       y       z     vdW  Elec       q    Type
                         _______ _______ _______ _____ _____    ______ ____

>  <TORSDO>
F 11

$$$$
=
 OpenBabel11052416403D

 43 48  0  0  1  0  0  0  0  0999 V2000
  188.6150  178.5690  139.5820 C   0  0  2  0  0  3  0  0  0  0  0  0
  187.8060  177.5940  147.3080 C   0  0  0  0  0  0  0  0  0  0  0  0
  188.8330  177.9120  142.3260 C   0  0  0  0  0  0  0  0  0  0  0  0
  186.2760  178.2490  142.3570 C   0  0  0  0  0  3  0  0  0  0  0  0
  188.8110  177.3600  145.1100 C   0  0  0  0  0  0  0  0  0  0  0  0
  186.6260  178.2200  146.6690 C   0  0  0  0  0  3  0  0  0  0  0  0
  187.8580  177.4720  148.7200 N   0  0  0  0  0  1  0  0  0  0  0  0
  187.4410  177.4720  144.4570 C   0  0  1  0  0  3  0  0  0  0  0  0
  188.8600  177.2240  146.5740 C   0  0  0  0  0  3  0  0  0  0  0  0
  186.4730  178.2150  145.3390 C   0  0  0  0  0  3  0  0  0  0  0  0
  186.1820  178.6100  140.9250 N   0  0  0  0  0  0  0  0  0  0  0  0
  187.4750  177.9520  143.0250 C   0  0  0  0  0  0  0  0  0  0  0  0
  189.9670  177.6240  142.9510 C   0  0  0  0  0  3  0  0  0  0  0  0
  188.6890  178.2500  140.9440 C   0  0  0  0  0  0  0  0  0  0  0  0
  187.4560  178.5650  140.3530 C   0  0  0  0  0  0  0  0  0  0  0  0
  189.9500  177.3710  144.4040 C   0  0  0  0  0  3  0  0  0  0  0  0
  187.6780  175.8320  137.1010 C   0  0  0  0  0  3  0  0  0  0  0  0
  188.8750  175.1140  137.0130 C   0  0  0  0  0  0  0  0  0  0  0  0
  189.8940  176.6200  138.6180 C   0  0  0  0  0  3  0  0  0  0  0  0
  187.5890  176.9440  137.9480 C   0  0  0  0  0  3  0  0  0  0  0  0
  188.6920  177.3370  138.7240 C   0  0  0  0  0  0  0  0  0  0  0  0
  189.9870  175.5130  137.7690 C   0  0  0  0  0  3  0  0  0  0  0  0
  188.7110  174.3900  134.6570 C   0  0  0  0  0  1  0  0  0  0  0  0
  188.9780  173.9480  136.0890 C   0  0  0  0  0  2  0  0  0  0  0  0
  184.9590  178.9010  140.1890 C   0  0  1  0  0  3  0  0  0  0  0  0
  185.1260  178.5990  138.7070 C   0  0  0  0  0  1  0  0  0  0  0  0
  184.1090  177.4230  141.8630 F   0  0  0  0  0  0  0  0  0  0  0  0
  183.7210  178.2360  140.8110 C   0  0  2  0  0  0  0  0  0  0  0  0
  183.0700  177.3510  139.7600 C   0  0  0  0  0  1  0  0  0  0  0  0
  182.6710  179.2420  141.2950 C   0  0  0  0  0  2  0  0  0  0  0  0
  181.2610  178.9240  140.8020 C   0  0  0  0  0  2  0  0  0  0  0  0
  180.4540  180.1900  140.4770 C   0  0  2  0  0  3  0  0  0  0  0  0
  179.2960  180.4530  141.4460 C   0  0  0  0  0  2  0  0  0  0  0  0
  179.7960  180.8290  142.6950 O   0  0  0  0  0  1  0  0  0  0  0  0
  180.1170  180.3230  139.0420 N   0  0  0  0  0  0  0  0  0  0  0  0
  179.8880  179.0140  138.4440 C   0  0  0  0  0  1  0  0  0  0  0  0
  181.0410  181.1430  138.2260 C   0  0  0  0  0  2  0  0  0  0  0  0
  180.6160  182.5680  138.0070 C   0  0  0  0  0  0  0  0  0  0  0  0
  181.0130  184.7790  137.0890 C   0  0  0  0  0  3  0  0  0  0  0  0
  178.9430  184.3160  138.2550 C   0  0  0  0  0  3  0  0  0  0  0  0
  179.7690  185.2080  137.5670 C   0  0  0  0  0  3  0  0  0  0  0  0
  179.3650  182.9980  138.4690 C   0  0  0  0  0  3  0  0  0  0  0  0
  181.4330  183.4610  137.3050 C   0  0  0  0  0  3  0  0  0  0  0  0
  1 21  1  6  0  0  0
  1 15  1  0  0  0  0
  1 14  1  0  0  0  0
  2  7  1  0  0  0  0
  3 13  2  0  0  0  0
  3 12  1  0  0  0  0
  4 12  2  0  0  0  0
  5  9  1  0  0  0  0
  6  2  1  0  0  0  0
  8  5  1  0  0  0  0
  8 10  1  1  0  0  0
  9  2  2  0  0  0  0
 10  6  2  0  0  0  0
 11  4  1  0  0  0  0
 12  8  1  0  0  0  0
 13 16  1  0  0  0  0
 14  3  1  0  0  0  0
 15 11  1  0  0  0  0
 15 14  2  0  0  0  0
 16  5  2  0  0  0  0
 17 20  1  0  0  0  0
 18 17  2  0  0  0  0
 18 22  1  0  0  0  0
 19 21  1  0  0  0  0
 20 21  2  0  0  0  0
 22 19  2  0  0  0  0
 23 24  1  0  0  0  0
 24 18  1  0  0  0  0
 25 26  1  6  0  0  0
 25 28  1  0  0  0  0
 25 11  1  0  0  0  0
 28 29  1  6  0  0  0
 28 30  1  0  0  0  0
 28 27  1  0  0  0  0
 31 30  1  0  0  0  0
 32 31  1  6  0  0  0
 32 33  1  0  0  0  0
 33 34  1  0  0  0  0
 35 32  1  0  0  0  0
 36 35  1  0  0  0  0
 37 35  1  0  0  0  0
 38 37  1  0  0  0  0
 38 42  1  0  0  0  0
 39 43  1  0  0  0  0
 39 41  2  0  0  0  0
 40 42  2  0  0  0  0
 41 40  1  0  0  0  0
 43 38  2  0  0  0  0
M  END
>  <MODEL>
5

>  <REMARK>
 VINA RESULT:      -7.8      2.589      8.585
  Name = 
  11 active torsions:
  status: ('A' for Active; 'I' for Inactive)
    1  A    between atoms: C_1  and  C_35
    2  A    between atoms: C_2  and  C_12
    3  A    between atoms: C_2  and  N_27
    4  A    between atoms: C_4  and  C_6
    5  A    between atoms: C_4  and  C_15
    6  A    between atoms: C_6  and  C_12
    7  A    between atoms: C_10  and  C_15
    8  A    between atoms: C_11  and  C_14
    9  A    between atoms: C_14  and  N_22
   10  A    between atoms: C_15  and  N_22
   11  A    between atoms: C_19  and  C_37
                            x       y       z     vdW  Elec       q    Type
                         _______ _______ _______ _____ _____    ______ ____

>  <TORSDO>
F 11

$$$$
=
 OpenBabel11052416403D

 43 48  0  0  1  0  0  0  0  0999 V2000
  182.9440  177.4550  135.9080 C   0  0  2  0  0  3  0  0  0  0  0  0
  190.4940  176.8270  137.8810 C   0  0  0  0  0  0  0  0  0  0  0  0
  185.6690  176.7700  136.2400 C   0  0  0  0  0  0  0  0  0  0  0  0
  185.4330  177.9480  138.5220 C   0  0  0  0  0  3  0  0  0  0  0  0
  188.4120  176.2640  136.7660 C   0  0  0  0  0  0  0  0  0  0  0  0
  189.7530  177.8130  138.7000 C   0  0  0  0  0  3  0  0  0  0  0  0
  191.8990  176.6980  138.0350 N   0  0  0  0  0  1  0  0  0  0  0  0
  187.6180  176.8290  137.9340 C   0  0  0  0  0  0  0  0  0  0  0  0
  189.8660  176.1220  136.9350 C   0  0  0  0  0  2  0  0  0  0  0  0
  188.4160  177.8570  138.6920 C   0  0  0  0  0  3  0  0  0  0  0  0
  184.0140  178.3160  138.3240 N   0  0  0  0  0  0  0  0  0  0  0  0
  186.2160  177.2660  137.5770 C   0  0  0  0  0  0  0  0  0  0  0  0
  186.4030  176.1170  135.3480 C   0  0  0  0  0  3  0  0  0  0  0  0
  184.2930  177.1330  136.1020 C   0  0  0  0  0  0  0  0  0  0  0  0
  183.5830  177.8430  137.0820 C   0  0  0  0  0  0  0  0  0  0  0  0
  187.8360  175.8890  135.6160 C   0  0  0  0  0  3  0  0  0  0  0  0
  180.5560  175.0190  137.6060 C   0  0  0  0  0  3  0  0  0  0  0  0
  180.2830  174.1240  136.5660 C   0  0  0  0  0  0  0  0  0  0  0  0
  181.7630  175.3750  135.1060 C   0  0  0  0  0  3  0  0  0  0  0  0
  181.4320  176.0900  137.3970 C   0  0  0  0  0  3  0  0  0  0  0  0
  182.0550  176.2670  136.1500 C   0  0  0  0  0  0  0  0  0  0  0  0
  180.8840  174.3080  135.3120 C   0  0  0  0  0  3  0  0  0  0  0  0
  179.9700  171.9220  137.6400 C   0  0  0  0  0  1  0  0  0  0  0  0
  179.3260  173.0010  136.7800 C   0  0  0  0  0  2  0  0  0  0  0  0
  183.1600  179.0010  139.2850 C   0  0  1  0  0  3  0  0  0  0  0  0
  182.0150  179.7190  138.5870 C   0  0  0  0  0  1  0  0  0  0  0  0
  183.1170  176.7850  140.1780 F   0  0  0  0  0  0  0  0  0  0  0  0
  182.6970  178.0810  140.4270 C   0  0  2  0  0  0  0  0  0  0  0  0
  181.1760  178.0760  140.4550 C   0  0  0  0  0  1  0  0  0  0  0  0
  183.1910  178.5300  141.8060 C   0  0  0  0  0  2  0  0  0  0  0  0
  184.6480  178.1570  142.0740 C   0  0  0  0  0  2  0  0  0  0  0  0
  185.0220  178.2850  143.5570 C   0  0  2  0  0  3  0  0  0  0  0  0
  184.3370  179.4550  144.2730 C   0  0  0  0  0  2  0  0  0  0  0  0
  183.8660  179.0390  145.5200 O   0  0  0  0  0  1  0  0  0  0  0  0
  186.4740  178.1550  143.8130 N   0  0  0  0  0  0  0  0  0  0  0  0
  187.2200  178.1640  142.5610 C   0  0  0  0  0  1  0  0  0  0  0  0
  186.8870  177.0340  144.6870 C   0  0  0  0  0  2  0  0  0  0  0  0
  187.5770  177.4320  145.9630 C   0  0  0  0  0  0  0  0  0  0  0  0
  189.5600  177.5180  147.3590 C   0  0  0  0  0  3  0  0  0  0  0  0
  187.5120  178.5630  148.1140 C   0  0  0  0  0  3  0  0  0  0  0  0
  188.8520  178.2360  148.3300 C   0  0  0  0  0  3  0  0  0  0  0  0
  186.8780  178.1650  146.9310 C   0  0  0  0  0  3  0  0  0  0  0  0
  188.9250  177.1200  146.1760 C   0  0  0  0  0  3  0  0  0  0  0  0
  1 14  1  0  0  0  0
  1 21  1  1  0  0  0
  1 15  1  0  0  0  0
  2  7  1  0  0  0  0
  2  6  2  0  0  0  0
  3 12  1  0  0  0  0
  5  9  1  0  0  0  0
  5  8  1  0  0  0  0
  8 10  2  0  0  0  0
  9  2  1  0  0  0  0
 10  6  1  0  0  0  0
 11  4  1  0  0  0  0
 11 25  1  0  0  0  0
 12  8  1  0  0  0  0
 12  4  2  0  0  0  0
 13 16  1  0  0  0  0
 13  3  2  0  0  0  0
 14  3  1  0  0  0  0
 14 15  2  0  0  0  0
 15 11  1  0  0  0  0
 16  5  2  0  0  0  0
 18 24  1  0  0  0  0
 18 17  2  0  0  0  0
 19 22  2  0  0  0  0
 19 21  1  0  0  0  0
 20 17  1  0  0  0  0
 21 20  2  0  0  0  0
 22 18  1  0  0  0  0
 24 23  1  0  0  0  0
 25 26  1  6  0  0  0
 25 28  1  0  0  0  0
 27 28  1  0  0  0  0
 28 29  1  1  0  0  0
 28 30  1  0  0  0  0
 30 31  1  0  0  0  0
 32 31  1  6  0  0  0
 32 35  1  0  0  0  0
 32 33  1  0  0  0  0
 33 34  1  0  0  0  0
 35 37  1  0  0  0  0
 36 35  1  0  0  0  0
 37 38  1  0  0  0  0
 38 43  2  0  0  0  0
 38 42  1  0  0  0  0
 39 41  2  0  0  0  0
 40 41  1  0  0  0  0
 42 40  2  0  0  0  0
 43 39  1  0  0  0  0
M  END
>  <MODEL>
6

>  <REMARK>
 VINA RESULT:      -7.7      2.920      6.637
  Name = 
  11 active torsions:
  status: ('A' for Active; 'I' for Inactive)
    1  A    between atoms: C_1  and  C_35
    2  A    between atoms: C_2  and  C_12
    3  A    between atoms: C_2  and  N_27
    4  A    between atoms: C_4  and  C_6
    5  A    between atoms: C_4  and  C_15
    6  A    between atoms: C_6  and  C_12
    7  A    between atoms: C_10  and  C_15
    8  A    between atoms: C_11  and  C_14
    9  A    between atoms: C_14  and  N_22
   10  A    between atoms: C_15  and  N_22
   11  A    between atoms: C_19  and  C_37
                            x       y       z     vdW  Elec       q    Type
                         _______ _______ _______ _____ _____    ______ ____

>  <TORSDO>
F 11

$$$$
=
 OpenBabel11052416403D

 43 48  0  0  1  0  0  0  0  0999 V2000
  181.2500  178.3370  138.6400 C   0  0  2  0  0  3  0  0  0  0  0  0
  185.4010  178.4340  145.2770 C   0  0  0  0  0  0  0  0  0  0  0  0
  182.2900  178.6890  141.2470 C   0  0  0  0  0  0  0  0  0  0  0  0
  184.5780  178.3050  140.1200 C   0  0  0  0  0  3  0  0  0  0  0  0
  183.5580  178.9280  143.7760 C   0  0  0  0  0  0  0  0  0  0  0  0
  186.1420  177.8610  144.1300 C   0  0  0  0  0  3  0  0  0  0  0  0
  185.9770  178.4000  146.5730 N   0  0  0  0  0  1  0  0  0  0  0  0
  184.4960  178.8650  142.5810 C   0  0  1  0  0  3  0  0  0  0  0  0
  184.1600  178.9020  145.1180 C   0  0  0  0  0  3  0  0  0  0  0  0
  185.7010  178.0120  142.8750 C   0  0  0  0  0  3  0  0  0  0  0  0
  184.0170  178.1040  138.7670 N   0  0  0  0  0  0  0  0  0  0  0  0
  183.8110  178.5480  141.2710 C   0  0  0  0  0  0  0  0  0  0  0  0
  181.5630  178.9270  142.3310 C   0  0  0  0  0  3  0  0  0  0  0  0
  181.7960  178.5040  139.9190 C   0  0  0  0  0  0  0  0  0  0  0  0
  182.6260  178.2350  138.8200 C   0  0  0  0  0  0  0  0  0  0  0  0
  182.2270  179.0160  143.6450 C   0  0  0  0  0  3  0  0  0  0  0  0
  180.7780  182.0870  138.1470 C   0  0  0  0  0  3  0  0  0  0  0  0
  180.3410  182.1410  136.8200 C   0  0  0  0  0  0  0  0  0  0  0  0
  180.4620  179.7220  136.6830 C   0  0  0  0  0  3  0  0  0  0  0  0
  181.0570  180.8510  138.7430 C   0  0  0  0  0  3  0  0  0  0  0  0
  180.8870  179.6580  138.0200 C   0  0  0  0  0  0  0  0  0  0  0  0
  180.1890  180.9560  136.0850 C   0  0  0  0  0  3  0  0  0  0  0  0
  181.1730  184.4490  136.5320 C   0  0  0  0  0  1  0  0  0  0  0  0
  180.0720  183.4590  136.1770 C   0  0  0  0  0  2  0  0  0  0  0  0
  184.7750  177.8750  137.5450 C   0  0  1  0  0  3  0  0  0  0  0  0
  186.1200  178.5840  137.5920 C   0  0  0  0  0  1  0  0  0  0  0  0
  184.6170  176.2080  135.8390 F   0  0  0  0  0  0  0  0  0  0  0  0
  184.8840  176.3830  137.1870 C   0  0  2  0  0  0  0  0  0  0  0  0
  183.8240  175.6220  137.9700 C   0  0  0  0  0  1  0  0  0  0  0  0
  186.2480  175.7750  137.5280 C   0  0  0  0  0  2  0  0  0  0  0  0
  187.0030  175.2640  136.3030 C   0  0  0  0  0  2  0  0  0  0  0  0
  188.5250  175.3940  136.4550 C   0  0  2  0  0  3  0  0  0  0  0  0
  189.1770  174.2180  137.1920 C   0  0  0  0  0  2  0  0  0  0  0  0
  188.6050  173.0160  136.7700 O   0  0  0  0  0  1  0  0  0  0  0  0
  188.9610  176.7350  136.9020 N   0  0  0  0  0  0  0  0  0  0  0  0
  189.1160  177.6320  135.7630 C   0  0  0  0  0  1  0  0  0  0  0  0
  190.1420  176.7760  137.7940 C   0  0  0  0  0  2  0  0  0  0  0  0
  189.8590  177.1580  139.2210 C   0  0  0  0  0  0  0  0  0  0  0  0
  190.4530  177.1480  141.5730 C   0  0  0  0  0  3  0  0  0  0  0  0
  188.4800  178.3410  140.8380 C   0  0  0  0  0  3  0  0  0  0  0  0
  189.3320  177.9330  141.8660 C   0  0  0  0  0  3  0  0  0  0  0  0
  188.7470  177.9570  139.5180 C   0  0  0  0  0  3  0  0  0  0  0  0
  190.7180  176.7650  140.2520 C   0  0  0  0  0  3  0  0  0  0  0  0
  1 21  1  6  0  0  0
  1 15  1  0  0  0  0
  1 14  1  0  0  0  0
  2  7  1  0  0  0  0
  3 12  1  0  0  0  0
  3 13  2  0  0  0  0
  4 12  2  0  0  0  0
  5  9  1  0  0  0  0
  6  2  1  0  0  0  0
  8 10  1  1  0  0  0
  8  5  1  0  0  0  0
  9  2  2  0  0  0  0
 10  6  2  0  0  0  0
 11 15  1  0  0  0  0
 11  4  1  0  0  0  0
 12  8  1  0  0  0  0
 13 16  1  0  0  0  0
 14  3  1  0  0  0  0
 15 14  2  0  0  0  0
 16  5  2  0  0  0  0
 17 20  1  0  0  0  0
 18 17  2  0  0  0  0
 19 21  1  0  0  0  0
 21 20  2  0  0  0  0
 22 19  2  0  0  0  0
 22 18  1  0  0  0  0
 24 23  1  0  0  0  0
 24 18  1  0  0  0  0
 25 26  1  1  0  0  0
 25 11  1  0  0  0  0
 27 28  1  0  0  0  0
 28 30  1  0  0  0  0
 28 25  1  0  0  0  0
 28 29  1  1  0  0  0
 31 30  1  0  0  0  0
 32 31  1  1  0  0  0
 32 35  1  0  0  0  0
 32 33  1  0  0  0  0
 34 33  1  0  0  0  0
 35 37  1  0  0  0  0
 36 35  1  0  0  0  0
 37 38  1  0  0  0  0
 38 42  2  0  0  0  0
 38 43  1  0  0  0  0
 39 41  1  0  0  0  0
 40 41  2  0  0  0  0
 42 40  1  0  0  0  0
 43 39  2  0  0  0  0
M  END
>  <MODEL>
7

>  <REMARK>
 VINA RESULT:      -7.5      2.002      2.707
  Name = 
  11 active torsions:
  status: ('A' for Active; 'I' for Inactive)
    1  A    between atoms: C_1  and  C_35
    2  A    between atoms: C_2  and  C_12
    3  A    between atoms: C_2  and  N_27
    4  A    between atoms: C_4  and  C_6
    5  A    between atoms: C_4  and  C_15
    6  A    between atoms: C_6  and  C_12
    7  A    between atoms: C_10  and  C_15
    8  A    between atoms: C_11  and  C_14
    9  A    between atoms: C_14  and  N_22
   10  A    between atoms: C_15  and  N_22
   11  A    between atoms: C_19  and  C_37
                            x       y       z     vdW  Elec       q    Type
                         _______ _______ _______ _____ _____    ______ ____

>  <TORSDO>
F 11

$$$$
=
 OpenBabel11052416403D

 43 48  0  0  1  0  0  0  0  0999 V2000
  188.5800  178.6280  139.7030 C   0  0  2  0  0  3  0  0  0  0  0  0
  187.8640  177.6080  147.4320 C   0  0  0  0  0  0  0  0  0  0  0  0
  188.8300  177.9520  142.4390 C   0  0  0  0  0  0  0  0  0  0  0  0
  186.2750  178.3050  142.5050 C   0  0  0  0  0  3  0  0  0  0  0  0
  188.8390  177.3820  145.2200 C   0  0  0  0  0  0  0  0  0  0  0  0
  186.6810  178.2460  146.8120 C   0  0  0  0  0  3  0  0  0  0  0  0
  187.9340  177.4760  148.8430 N   0  0  0  0  0  1  0  0  0  0  0  0
  187.4620  177.5070  144.5850 C   0  0  1  0  0  3  0  0  0  0  0  0
  188.9060  177.2360  146.6820 C   0  0  0  0  0  3  0  0  0  0  0  0
  186.5100  178.2500  145.4850 C   0  0  0  0  0  3  0  0  0  0  0  0
  186.1650  178.6750  141.0780 N   0  0  0  0  0  0  0  0  0  0  0  0
  187.4810  177.9960  143.1560 C   0  0  0  0  0  0  0  0  0  0  0  0
  189.9690  177.6520  143.0480 C   0  0  0  0  0  3  0  0  0  0  0  0
  188.6700  178.3000  141.0620 C   0  0  0  0  0  0  0  0  0  0  0  0
  187.4310  178.6260  140.4880 C   0  0  0  0  0  0  0  0  0  0  0  0
  189.9690  177.3900  144.5000 C   0  0  0  0  0  3  0  0  0  0  0  0
  187.6140  175.9410  137.1790 C   0  0  0  0  0  3  0  0  0  0  0  0
  188.7900  175.1870  137.1100 C   0  0  0  0  0  0  0  0  0  0  0  0
  189.8200  176.6490  138.7490 C   0  0  0  0  0  3  0  0  0  0  0  0
  187.5400  177.0480  138.0330 C   0  0  0  0  0  3  0  0  0  0  0  0
  188.6380  177.4010  138.8360 C   0  0  0  0  0  0  0  0  0  0  0  0
  189.8970  175.5470  137.8930 C   0  0  0  0  0  3  0  0  0  0  0  0
  187.6900  174.0290  135.2250 C   0  0  0  0  0  1  0  0  0  0  0  0
  188.8770  174.0270  136.1780 C   0  0  0  0  0  2  0  0  0  0  0  0
  184.9350  178.9790  140.3590 C   0  0  1  0  0  3  0  0  0  0  0  0
  185.0990  178.7410  138.8660 C   0  0  0  0  0  1  0  0  0  0  0  0
  183.9880  177.8780  142.2570 F   0  0  0  0  0  0  0  0  0  0  0  0
  183.7080  178.2720  140.9590 C   0  0  2  0  0  0  0  0  0  0  0  0
  183.4310  177.0170  140.1450 C   0  0  0  0  0  1  0  0  0  0  0  0
  182.4420  179.1340  140.9410 C   0  0  0  0  0  2  0  0  0  0  0  0
  181.3350  178.5610  140.0580 C   0  0  0  0  0  2  0  0  0  0  0  0
  180.9020  179.5350  138.9540 C   0  0  2  0  0  3  0  0  0  0  0  0
  179.6380  180.3340  139.2910 C   0  0  0  0  0  2  0  0  0  0  0  0
  179.9880  181.6030  139.7570 O   0  0  0  0  0  1  0  0  0  0  0  0
  180.9280  178.9410  137.5990 N   0  0  0  0  0  0  0  0  0  0  0  0
  179.9710  179.6090  136.7250 C   0  0  0  0  0  1  0  0  0  0  0  0
  180.7950  177.4680  137.5280 C   0  0  0  0  0  2  0  0  0  0  0  0
  181.9740  176.7420  136.9410 C   0  0  0  0  0  0  0  0  0  0  0  0
  184.1130  176.7580  135.7950 C   0  0  0  0  0  3  0  0  0  0  0  0
  183.1630  174.6590  136.5380 C   0  0  0  0  0  3  0  0  0  0  0  0
  184.1880  175.3640  135.9020 C   0  0  0  0  0  3  0  0  0  0  0  0
  182.0620  175.3490  137.0600 C   0  0  0  0  0  3  0  0  0  0  0  0
  183.0110  177.4460  136.3170 C   0  0  0  0  0  3  0  0  0  0  0  0
  1 21  1  6  0  0  0
  1 15  1  0  0  0  0
  1 14  1  0  0  0  0
  2  7  1  0  0  0  0
  3 13  2  0  0  0  0
  3 12  1  0  0  0  0
  4 12  2  0  0  0  0
  5  9  1  0  0  0  0
  6  2  1  0  0  0  0
  8  5  1  0  0  0  0
  8 10  1  1  0  0  0
  9  2  2  0  0  0  0
 10  6  2  0  0  0  0
 11  4  1  0  0  0  0
 12  8  1  0  0  0  0
 13 16  1  0  0  0  0
 14  3  1  0  0  0  0
 15 14  2  0  0  0  0
 15 11  1  0  0  0  0
 16  5  2  0  0  0  0
 17 20  1  0  0  0  0
 18 17  2  0  0  0  0
 18 22  1  0  0  0  0
 19 21  1  0  0  0  0
 20 21  2  0  0  0  0
 22 19  2  0  0  0  0
 23 24  1  0  0  0  0
 24 18  1  0  0  0  0
 25 26  1  6  0  0  0
 25 28  1  0  0  0  0
 25 11  1  0  0  0  0
 28 29  1  6  0  0  0
 28 27  1  0  0  0  0
 30 28  1  0  0  0  0
 31 30  1  0  0  0  0
 32 33  1  1  0  0  0
 32 31  1  0  0  0  0
 33 34  1  0  0  0  0
 35 32  1  0  0  0  0
 36 35  1  0  0  0  0
 37 35  1  0  0  0  0
 38 42  1  0  0  0  0
 38 37  1  0  0  0  0
 39 41  2  0  0  0  0
 39 43  1  0  0  0  0
 40 42  2  0  0  0  0
 41 40  1  0  0  0  0
 43 38  2  0  0  0  0
M  END
>  <MODEL>
8

>  <REMARK>
 VINA RESULT:      -7.5      2.557      7.827
  Name = 
  11 active torsions:
  status: ('A' for Active; 'I' for Inactive)
    1  A    between atoms: C_1  and  C_35
    2  A    between atoms: C_2  and  C_12
    3  A    between atoms: C_2  and  N_27
    4  A    between atoms: C_4  and  C_6
    5  A    between atoms: C_4  and  C_15
    6  A    between atoms: C_6  and  C_12
    7  A    between atoms: C_10  and  C_15
    8  A    between atoms: C_11  and  C_14
    9  A    between atoms: C_14  and  N_22
   10  A    between atoms: C_15  and  N_22
   11  A    between atoms: C_19  and  C_37
                            x       y       z     vdW  Elec       q    Type
                         _______ _______ _______ _____ _____    ______ ____

>  <TORSDO>
F 11

$$$$
=
 OpenBabel11052416403D

 43 48  0  0  1  0  0  0  0  0999 V2000
  188.1420  178.7260  139.4550 C   0  0  2  0  0  3  0  0  0  0  0  0
  190.9010  176.7550  146.5120 C   0  0  0  0  0  0  0  0  0  0  0  0
  189.5630  177.7340  141.6920 C   0  0  0  0  0  0  0  0  0  0  0  0
  187.3100  177.9840  142.9230 C   0  0  0  0  0  3  0  0  0  0  0  0
  190.7910  176.8330  144.0880 C   0  0  0  0  0  0  0  0  0  0  0  0
  189.5790  177.4200  146.5630 C   0  0  0  0  0  3  0  0  0  0  0  0
  191.5850  176.4560  147.7180 N   0  0  0  0  0  1  0  0  0  0  0  0
  189.2780  176.9840  144.1480 C   0  0  1  0  0  3  0  0  0  0  0  0
  191.4950  176.5140  145.3390 C   0  0  0  0  0  3  0  0  0  0  0  0
  188.8390  177.5780  145.4600 C   0  0  0  0  0  3  0  0  0  0  0  0
  186.5870  178.5200  141.7500 N   0  0  0  0  0  0  0  0  0  0  0  0
  188.6720  177.6420  142.9300 C   0  0  0  0  0  0  0  0  0  0  0  0
  190.8480  177.4040  141.6920 C   0  0  0  0  0  3  0  0  0  0  0  0
  188.8180  178.2400  140.5820 C   0  0  0  0  0  0  0  0  0  0  0  0
  187.4600  178.5880  140.6610 C   0  0  0  0  0  0  0  0  0  0  0  0
  191.4850  176.9690  142.9500 C   0  0  0  0  0  3  0  0  0  0  0  0
  188.3550  175.5260  137.3980 C   0  0  0  0  0  3  0  0  0  0  0  0
  187.0720  175.4650  136.8430 C   0  0  0  0  0  0  0  0  0  0  0  0
  186.4940  177.5400  137.9590 C   0  0  0  0  0  3  0  0  0  0  0  0
  188.7070  176.5930  138.2330 C   0  0  0  0  0  3  0  0  0  0  0  0
  187.7840  177.6160  138.5070 C   0  0  0  0  0  0  0  0  0  0  0  0
  186.1390  176.4710  137.1300 C   0  0  0  0  0  3  0  0  0  0  0  0
  187.7160  173.1970  136.1050 C   0  0  0  0  0  1  0  0  0  0  0  0
  186.6890  174.3130  135.9780 C   0  0  0  0  0  2  0  0  0  0  0  0
  185.1730  178.8640  141.6920 C   0  0  1  0  0  3  0  0  0  0  0  0
  184.3740  177.7840  140.9790 C   0  0  0  0  0  1  0  0  0  0  0  0
  185.4090  180.1910  143.6660 F   0  0  0  0  0  0  0  0  0  0  0  0
  184.5990  179.2400  143.0680 C   0  0  2  0  0  0  0  0  0  0  0  0
  184.6140  178.0010  143.9510 C   0  0  0  0  0  1  0  0  0  0  0  0
  183.1570  179.7540  143.0040 C   0  0  0  0  0  2  0  0  0  0  0  0
  182.1590  178.8390  143.7120 C   0  0  0  0  0  2  0  0  0  0  0  0
  180.7140  179.3430  143.5910 C   0  0  2  0  0  3  0  0  0  0  0  0
  179.6920  178.4840  144.3440 C   0  0  0  0  0  2  0  0  0  0  0  0
  180.0580  177.1380  144.2720 O   0  0  0  0  0  1  0  0  0  0  0  0
  180.3310  179.7110  142.2100 N   0  0  0  0  0  0  0  0  0  0  0  0
  179.3190  180.7610  142.2190 C   0  0  0  0  0  1  0  0  0  0  0  0
  179.9510  178.5940  141.3160 C   0  0  0  0  0  2  0  0  0  0  0  0
  180.8230  178.4130  140.1040 C   0  0  0  0  0  0  0  0  0  0  0  0
  181.8210  176.9970  138.4060 C   0  0  0  0  0  3  0  0  0  0  0  0
  182.1970  179.3870  138.3490 C   0  0  0  0  0  3  0  0  0  0  0  0
  182.4100  178.1170  137.8080 C   0  0  0  0  0  3  0  0  0  0  0  0
  181.4010  179.5330  139.4920 C   0  0  0  0  0  3  0  0  0  0  0  0
  181.0250  177.1450  139.5490 C   0  0  0  0  0  3  0  0  0  0  0  0
  1 21  1  6  0  0  0
  1 14  1  0  0  0  0
  1 15  1  0  0  0  0
  2  6  1  0  0  0  0
  2  7  1  0  0  0  0
  3 12  1  0  0  0  0
  4 12  2  0  0  0  0
  5  8  1  0  0  0  0
  5  9  1  0  0  0  0
  8 10  1  1  0  0  0
  9  2  2  0  0  0  0
 10  6  2  0  0  0  0
 11  4  1  0  0  0  0
 12  8  1  0  0  0  0
 13  3  2  0  0  0  0
 13 16  1  0  0  0  0
 14 15  2  0  0  0  0
 14  3  1  0  0  0  0
 15 11  1  0  0  0  0
 16  5  2  0  0  0  0
 17 20  1  0  0  0  0
 18 22  1  0  0  0  0
 18 17  2  0  0  0  0
 19 21  1  0  0  0  0
 20 21  2  0  0  0  0
 22 19  2  0  0  0  0
 24 23  1  0  0  0  0
 24 18  1  0  0  0  0
 25 26  1  1  0  0  0
 25 11  1  0  0  0  0
 25 28  1  0  0  0  0
 28 27  1  0  0  0  0
 28 29  1  1  0  0  0
 30 28  1  0  0  0  0
 30 31  1  0  0  0  0
 32 31  1  6  0  0  0
 32 33  1  0  0  0  0
 34 33  1  0  0  0  0
 35 36  1  0  0  0  0
 35 32  1  0  0  0  0
 37 35  1  0  0  0  0
 38 37  1  0  0  0  0
 39 43  2  0  0  0  0
 40 42  1  0  0  0  0
 41 40  2  0  0  0  0
 41 39  1  0  0  0  0
 42 38  2  0  0  0  0
 43 38  1  0  0  0  0
M  END
>  <MODEL>
9

>  <REMARK>
 VINA RESULT:      -7.4      2.848      8.112
  Name = 
  11 active torsions:
  status: ('A' for Active; 'I' for Inactive)
    1  A    between atoms: C_1  and  C_35
    2  A    between atoms: C_2  and  C_12
    3  A    between atoms: C_2  and  N_27
    4  A    between atoms: C_4  and  C_6
    5  A    between atoms: C_4  and  C_15
    6  A    between atoms: C_6  and  C_12
    7  A    between atoms: C_10  and  C_15
    8  A    between atoms: C_11  and  C_14
    9  A    between atoms: C_14  and  N_22
   10  A    between atoms: C_15  and  N_22
   11  A    between atoms: C_19  and  C_37
                            x       y       z     vdW  Elec       q    Type
                         _______ _______ _______ _____ _____    ______ ____

>  <TORSDO>
F 11

$$$$
