=
 OpenBabel11052414553D

 55 58  0  0  1  0  0  0  0  0999 V2000
  186.1170  177.5200  145.2360 C   0  0  1  0  0  3  0  0  0  0  0  0
  186.1300  177.2380  143.7400 C   0  0  0  0  0  2  0  0  0  0  0  0
  187.3470  177.8760  143.0900 C   0  0  0  0  0  2  0  0  0  0  0  0
  186.9440  178.8560  141.9950 C   0  0  0  0  0  2  0  0  0  0  0  0
  187.8640  178.8080  140.7780 C   0  0  0  0  0  2  0  0  0  0  0  0
  188.4750  177.4270  140.6000 C   0  0  0  0  0  2  0  0  0  0  0  0
  189.9930  177.5050  140.5090 C   0  0  1  0  0  3  0  0  0  0  0  0
  190.6310  177.3680  141.8170 N   0  0  0  0  0  0  0  0  0  0  0  0
  191.4940  176.5640  143.6730 C   0  0  0  0  0  0  0  0  0  0  0  0
  191.1760  178.3950  142.4970 C   0  0  0  0  0  3  0  0  0  0  0  0
  191.7280  177.9280  143.6770 C   0  0  0  0  0  3  0  0  0  0  0  0
  190.8180  176.2320  142.5140 C   0  0  0  0  0  3  0  0  0  0  0  0
  191.9430  176.0130  145.9280 O   0  0  0  0  0  1  0  0  0  0  0  0
  192.2280  174.3170  144.4220 O   0  0  0  0  0  0  0  0  0  0  0  0
  191.8960  175.6290  144.7300 C   0  0  0  0  0  0  0  0  0  0  0  0
  190.5020  176.4500  139.5300 C   0  0  0  0  0  2  0  0  0  0  0  0
  190.5400  176.6740  135.7140 C   0  0  0  0  0  3  0  0  0  0  0  0
  189.3510  177.3640  135.4780 C   0  0  0  0  0  3  0  0  0  0  0  0
  190.1300  176.7680  138.1100 C   0  0  0  0  0  0  0  0  0  0  0  0
  188.9260  177.4410  137.8570 C   0  0  0  0  0  3  0  0  0  0  0  0
  188.5410  177.7430  136.5480 C   0  0  0  0  0  3  0  0  0  0  0  0
  190.9380  176.3600  137.0200 C   0  0  0  0  0  0  0  0  0  0  0  0
  193.4130  176.4890  137.3120 C   0  0  0  0  0  1  0  0  0  0  0  0
  192.2090  175.5740  137.1780 C   0  0  2  0  0  3  0  0  0  0  0  0
  192.3940  174.5630  136.0580 C   0  0  0  0  0  2  0  0  0  0  0  0
  193.7420  174.2280  135.9330 O   0  0  0  0  0  0  0  0  0  0  0  0
  193.0110  172.1110  136.3360 O   0  0  0  0  0  1  0  0  0  0  0  0
  193.7270  172.9180  135.4550 C   0  0  0  0  0  2  0  0  0  0  0  0
  187.3310  178.0810  145.6540 O   0  0  0  0  0  0  0  0  0  0  0  0
  187.1980  178.2530  147.0340 C   0  0  0  0  0  2  0  0  0  0  0  0
  188.5330  177.8970  148.9720 O   0  0  0  0  0  1  0  0  0  0  0  0
  188.1550  177.3260  147.7570 C   0  0  0  0  0  2  0  0  0  0  0  0
  184.9260  178.4130  145.5980 C   0  0  0  0  0  2  0  0  0  0  0  0
  184.3250  179.1810  144.4220 C   0  0  0  0  0  2  0  0  0  0  0  0
  182.9700  178.6300  143.9900 C   0  0  0  0  0  2  0  0  0  0  0  0
  182.3200  179.5360  143.1470 O   0  0  0  0  0  0  0  0  0  0  0  0
  180.9760  179.1510  143.1650 C   0  0  0  0  0  2  0  0  0  0  0  0
  180.5070  178.8520  141.7530 C   0  0  0  0  0  2  0  0  0  0  0  0
  181.3200  179.5100  140.8230 O   0  0  0  0  0  0  0  0  0  0  0  0
  181.0100  178.9360  139.5860 C   0  0  0  0  0  2  0  0  0  0  0  0
  181.7620  177.1820  137.9770 C   0  0  2  0  0  3  0  0  0  0  0  0
  181.0700  175.2020  139.2990 O   0  0  0  0  0  1  0  0  0  0  0  0
  181.6830  177.5750  139.4510 C   0  0  2  0  0  3  0  0  0  0  0  0
  179.2940  176.8110  138.6120 C   0  0  0  0  0  1  0  0  0  0  0  0
  180.7560  176.5030  138.8970 C   0  0  1  0  0  0  0  0  0  0  0  0
  185.0280  174.9690  136.2530 C   0  0  1  0  0  3  0  0  0  0  0  0
  183.8120  174.3920  137.0010 C   0  0  0  0  0  2  0  0  0  0  0  0
  185.0970  177.6290  138.2440 C   0  0  0  0  0  1  0  0  0  0  0  0
  182.7100  175.2560  136.9080 O   0  0  0  0  0  0  0  0  0  0  0  0
  184.8950  176.4820  136.0240 C   0  0  0  0  0  2  0  0  0  0  0  0
  183.0130  176.3430  137.7440 C   0  0  1  0  0  3  0  0  0  0  0  0
  184.1370  177.2070  137.1480 C   0  0  1  0  0  3  0  0  0  0  0  0
  186.3110  174.6610  137.0100 C   0  0  0  0  0  2  0  0  0  0  0  0
  188.5910  173.6990  136.8520 C   0  0  0  0  0  1  0  0  0  0  0  0
  187.3790  174.1480  136.0610 C   0  0  0  0  0  2  0  0  0  0  0  0
  1  2  1  6  0  0  0
  1 33  1  0  0  0  0
  1 29  1  0  0  0  0
  3  2  1  0  0  0  0
  4  3  1  0  0  0  0
  5  4  1  0  0  0  0
  6  5  1  0  0  0  0
  7 16  1  6  0  0  0
  7  6  1  0  0  0  0
  7  8  1  0  0  0  0
  8 10  1  0  0  0  0
  8 12  1  0  0  0  0
  9 11  1  0  0  0  0
  9 15  1  0  0  0  0
 10 11  2  0  0  0  0
 12  9  2  0  0  0  0
 14 15  2  0  0  0  0
 15 13  1  0  0  0  0
 17 22  1  0  0  0  0
 18 17  2  0  0  0  0
 18 21  1  0  0  0  0
 19 16  1  0  0  0  0
 20 19  1  0  0  0  0
 21 20  2  0  0  0  0
 22 24  1  0  0  0  0
 22 19  2  0  0  0  0
 24 23  1  6  0  0  0
 25 24  1  0  0  0  0
 26 25  1  0  0  0  0
 28 26  1  0  0  0  0
 28 27  1  0  0  0  0
 29 30  1  0  0  0  0
 30 32  1  0  0  0  0
 32 31  1  0  0  0  0
 34 33  1  0  0  0  0
 35 34  1  0  0  0  0
 36 37  1  0  0  0  0
 36 35  1  0  0  0  0
 38 37  1  0  0  0  0
 39 38  1  0  0  0  0
 40 39  1  0  0  0  0
 41 51  1  1  0  0  0
 41 45  1  0  0  0  0
 41 43  1  0  0  0  0
 43 40  1  6  0  0  0
 45 44  1  6  0  0  0
 45 42  1  0  0  0  0
 45 43  1  0  0  0  0
 46 47  1  0  0  0  0
 46 53  1  1  0  0  0
 49 47  1  0  0  0  0
 50 46  1  0  0  0  0
 50 52  1  0  0  0  0
 51 49  1  6  0  0  0
 52 51  1  0  0  0  0
 52 48  1  1  0  0  0
 55 54  1  0  0  0  0
 55 53  1  0  0  0  0
M  END
>  <MODEL>
1

>  <REMARK>
 VINA RESULT:      -5.3      0.000      0.000
  Name = 
  29 active torsions:
  status: ('A' for Active; 'I' for Inactive)
    1  A    between atoms: C_1  and  C_46
    2  A    between atoms: C_2  and  C_44
    3  A    between atoms: C_2  and  C_49
    4  A    between atoms: C_3  and  C_25
    5  A    between atoms: C_5  and  O_40
    6  A    between atoms: C_5  and  C_45
    7  A    between atoms: C_8  and  O_20
    8  A    between atoms: C_8  and  C_22
    9  A    between atoms: C_12  and  C_42
   10  A    between atoms: N_13  and  C_52
   11  A    between atoms: C_16  and  C_36
   12  A    between atoms: O_20  and  C_42
   13  A    between atoms: C_22  and  O_43
   14  A    between atoms: C_25  and  C_38
   15  A    between atoms: C_26  and  C_45
   16  A    between atoms: C_27  and  C_31
   17  A    between atoms: C_27  and  C_49
   18  A    between atoms: C_27  and  O_54
   19  A    between atoms: C_28  and  C_33
   20  A    between atoms: C_28  and  C_44
   21  A    between atoms: C_31  and  C_35
   22  A    between atoms: C_32  and  C_47
   23  A    between atoms: C_33  and  C_52
   24  A    between atoms: C_35  and  C_51
   25  A    between atoms: C_36  and  C_52
   26  A    between atoms: C_37  and  O_40
   27  A    between atoms: C_41  and  C_55
   28  A    between atoms: O_43  and  C_51
   29  A    between atoms: O_54  and  C_55
                            x       y       z     vdW  Elec       q    Type
                         _______ _______ _______ _____ _____    ______ ____

>  <TORSDO>
F 29

$$$$
=
 OpenBabel11052414553D

 55 58  0  0  1  0  0  0  0  0999 V2000
  189.7890  176.2820  138.0870 C   0  0  1  0  0  3  0  0  0  0  0  0
  189.1060  175.6650  136.8750 C   0  0  0  0  0  2  0  0  0  0  0  0
  187.6010  175.8620  136.9550 C   0  0  0  0  0  2  0  0  0  0  0  0
  186.9640  175.8550  135.5710 C   0  0  0  0  0  2  0  0  0  0  0  0
  185.6070  175.1570  135.5380 C   0  0  0  0  0  2  0  0  0  0  0  0
  184.9970  175.0680  136.9280 C   0  0  0  0  0  2  0  0  0  0  0  0
  183.5310  175.4780  136.9120 C   0  0  1  0  0  3  0  0  0  0  0  0
  182.6760  174.4450  136.3280 N   0  0  0  0  0  0  0  0  0  0  0  0
  181.6130  172.5640  135.9210 C   0  0  0  0  0  0  0  0  0  0  0  0
  181.8330  174.6620  135.2990 C   0  0  0  0  0  3  0  0  0  0  0  0
  181.1460  173.4960  135.0110 C   0  0  0  0  0  3  0  0  0  0  0  0
  182.5560  173.1670  136.7320 C   0  0  0  0  0  3  0  0  0  0  0  0
  181.9570  170.2390  135.6610 O   0  0  0  0  0  0  0  0  0  0  0  0
  179.9050  170.8500  136.4630 O   0  0  0  0  0  1  0  0  0  0  0  0
  181.1770  171.1650  136.0050 C   0  0  0  0  0  0  0  0  0  0  0  0
  183.0820  175.8340  138.3270 C   0  0  0  0  0  2  0  0  0  0  0  0
  182.1090  179.5300  138.4200 C   0  0  0  0  0  3  0  0  0  0  0  0
  183.1990  180.0720  139.1020 C   0  0  0  0  0  3  0  0  0  0  0  0
  183.1050  177.3150  138.5730 C   0  0  0  0  0  0  0  0  0  0  0  0
  184.1830  177.8710  139.2770 C   0  0  0  0  0  3  0  0  0  0  0  0
  184.2330  179.2430  139.5350 C   0  0  0  0  0  3  0  0  0  0  0  0
  182.0430  178.1550  138.1570 C   0  0  0  0  0  0  0  0  0  0  0  0
  180.0840  178.7710  136.7390 C   0  0  0  0  0  1  0  0  0  0  0  0
  180.8120  177.6500  137.4600 C   0  0  2  0  0  3  0  0  0  0  0  0
  179.8890  176.9030  138.4090 C   0  0  0  0  0  2  0  0  0  0  0  0
  179.9580  177.4630  139.6850 O   0  0  0  0  0  0  0  0  0  0  0  0
  180.1110  175.2510  140.1990 O   0  0  0  0  0  1  0  0  0  0  0  0
  179.4920  176.4550  140.5280 C   0  0  0  0  0  2  0  0  0  0  0  0
  191.1190  175.8520  138.1900 O   0  0  0  0  0  0  0  0  0  0  0  0
  191.7390  176.2980  137.0200 C   0  0  0  0  0  2  0  0  0  0  0  0
  193.4280  176.6540  138.6580 O   0  0  0  0  0  1  0  0  0  0  0  0
  193.2120  176.5400  137.2850 C   0  0  0  0  0  2  0  0  0  0  0  0
  189.6900  177.8090  138.0330 C   0  0  0  0  0  2  0  0  0  0  0  0
  188.9320  178.4400  139.2010 C   0  0  0  0  0  2  0  0  0  0  0  0
  188.6380  177.4430  140.3170 C   0  0  0  0  0  2  0  0  0  0  0  0
  189.3960  177.7410  141.4530 O   0  0  0  0  0  0  0  0  0  0  0  0
  189.6470  176.5070  142.0590 C   0  0  0  0  0  2  0  0  0  0  0  0
  189.1610  176.5310  143.4970 C   0  0  0  0  0  2  0  0  0  0  0  0
  190.1600  177.0340  144.3370 O   0  0  0  0  0  0  0  0  0  0  0  0
  189.4930  177.8360  145.2690 C   0  0  0  0  0  2  0  0  0  0  0  0
  187.1770  178.6520  145.7180 C   0  0  2  0  0  3  0  0  0  0  0  0
  186.3930  176.7100  147.0440 O   0  0  0  0  0  1  0  0  0  0  0  0
  188.0260  177.4340  145.3580 C   0  0  2  0  0  3  0  0  0  0  0  0
  188.3370  178.0010  147.9230 C   0  0  0  0  0  1  0  0  0  0  0  0
  187.4520  177.5760  146.7600 C   0  0  1  0  0  0  0  0  0  0  0  0
  183.3050  179.3780  143.9810 C   0  0  1  0  0  3  0  0  0  0  0  0
  183.5990  178.7690  145.3640 C   0  0  0  0  0  2  0  0  0  0  0  0
  185.9640  177.8830  142.6620 C   0  0  0  0  0  1  0  0  0  0  0  0
  184.8460  179.1980  145.8460 O   0  0  0  0  0  0  0  0  0  0  0  0
  184.5830  179.8790  143.2910 C   0  0  0  0  0  2  0  0  0  0  0  0
  185.8020  178.5170  145.0750 C   0  0  1  0  0  3  0  0  0  0  0  0
  185.8290  179.0440  143.6300 C   0  0  1  0  0  3  0  0  0  0  0  0
  182.5910  178.3670  143.0970 C   0  0  0  0  0  2  0  0  0  0  0  0
  180.3740  179.4690  143.2460 C   0  0  0  0  0  1  0  0  0  0  0  0
  181.4830  179.0400  142.3060 C   0  0  0  0  0  2  0  0  0  0  0  0
  1  2  1  6  0  0  0
  1 29  1  0  0  0  0
  2  3  1  0  0  0  0
  4  3  1  0  0  0  0
  5  4  1  0  0  0  0
  5  6  1  0  0  0  0
  7  6  1  1  0  0  0
  7 16  1  0  0  0  0
  8 12  1  0  0  0  0
  8  7  1  0  0  0  0
  9 15  1  0  0  0  0
  9 12  2  0  0  0  0
 10  8  1  0  0  0  0
 11 10  2  0  0  0  0
 11  9  1  0  0  0  0
 13 15  2  0  0  0  0
 15 14  1  0  0  0  0
 16 19  1  0  0  0  0
 17 18  1  0  0  0  0
 18 21  2  0  0  0  0
 19 20  2  0  0  0  0
 20 21  1  0  0  0  0
 22 17  2  0  0  0  0
 22 19  1  0  0  0  0
 24 23  1  1  0  0  0
 24 22  1  0  0  0  0
 24 25  1  0  0  0  0
 25 26  1  0  0  0  0
 26 28  1  0  0  0  0
 27 28  1  0  0  0  0
 30 32  1  0  0  0  0
 30 29  1  0  0  0  0
 32 31  1  0  0  0  0
 33  1  1  0  0  0  0
 33 34  1  0  0  0  0
 34 35  1  0  0  0  0
 35 36  1  0  0  0  0
 36 37  1  0  0  0  0
 37 38  1  0  0  0  0
 38 39  1  0  0  0  0
 39 40  1  0  0  0  0
 41 51  1  6  0  0  0
 41 45  1  0  0  0  0
 43 40  1  1  0  0  0
 43 41  1  0  0  0  0
 43 45  1  0  0  0  0
 45 42  1  0  0  0  0
 45 44  1  1  0  0  0
 46 53  1  6  0  0  0
 46 47  1  0  0  0  0
 47 49  1  0  0  0  0
 50 52  1  0  0  0  0
 50 46  1  0  0  0  0
 51 49  1  1  0  0  0
 52 48  1  6  0  0  0
 52 51  1  0  0  0  0
 55 53  1  0  0  0  0
 55 54  1  0  0  0  0
M  END
>  <MODEL>
2

>  <REMARK>
 VINA RESULT:      -5.2      2.576     10.158
  Name = 
  29 active torsions:
  status: ('A' for Active; 'I' for Inactive)
    1  A    between atoms: C_1  and  C_46
    2  A    between atoms: C_2  and  C_44
    3  A    between atoms: C_2  and  C_49
    4  A    between atoms: C_3  and  C_25
    5  A    between atoms: C_5  and  O_40
    6  A    between atoms: C_5  and  C_45
    7  A    between atoms: C_8  and  O_20
    8  A    between atoms: C_8  and  C_22
    9  A    between atoms: C_12  and  C_42
   10  A    between atoms: N_13  and  C_52
   11  A    between atoms: C_16  and  C_36
   12  A    between atoms: O_20  and  C_42
   13  A    between atoms: C_22  and  O_43
   14  A    between atoms: C_25  and  C_38
   15  A    between atoms: C_26  and  C_45
   16  A    between atoms: C_27  and  C_31
   17  A    between atoms: C_27  and  C_49
   18  A    between atoms: C_27  and  O_54
   19  A    between atoms: C_28  and  C_33
   20  A    between atoms: C_28  and  C_44
   21  A    between atoms: C_31  and  C_35
   22  A    between atoms: C_32  and  C_47
   23  A    between atoms: C_33  and  C_52
   24  A    between atoms: C_35  and  C_51
   25  A    between atoms: C_36  and  C_52
   26  A    between atoms: C_37  and  O_40
   27  A    between atoms: C_41  and  C_55
   28  A    between atoms: O_43  and  C_51
   29  A    between atoms: O_54  and  C_55
                            x       y       z     vdW  Elec       q    Type
                         _______ _______ _______ _____ _____    ______ ____

>  <TORSDO>
F 29

$$$$
=
 OpenBabel11052414553D

 55 58  0  0  1  0  0  0  0  0999 V2000
  182.7740  178.3330  143.2290 C   0  0  1  0  0  3  0  0  0  0  0  0
  183.3940  179.7080  143.4360 C   0  0  0  0  0  2  0  0  0  0  0  0
  184.7780  179.5800  144.0520 C   0  0  0  0  0  2  0  0  0  0  0  0
  185.7280  178.8180  143.1350 C   0  0  0  0  0  2  0  0  0  0  0  0
  186.8910  178.1710  143.8800 C   0  0  0  0  0  2  0  0  0  0  0  0
  187.3750  176.9160  143.1690 C   0  0  0  0  0  2  0  0  0  0  0  0
  188.8960  176.8400  143.1630 C   0  0  1  0  0  3  0  0  0  0  0  0
  189.4560  177.1260  141.8430 N   0  0  0  0  0  0  0  0  0  0  0  0
  189.7280  177.7640  139.7560 C   0  0  0  0  0  0  0  0  0  0  0  0
  190.7580  176.9760  141.5320 C   0  0  0  0  0  3  0  0  0  0  0  0
  190.9680  177.3650  140.2210 C   0  0  0  0  0  3  0  0  0  0  0  0
  188.8030  177.6150  140.7730 C   0  0  0  0  0  3  0  0  0  0  0  0
  188.9080  179.3870  138.2460 O   0  0  0  0  0  1  0  0  0  0  0  0
  189.7670  177.4960  137.2920 O   0  0  0  0  0  0  0  0  0  0  0  0
  189.4450  178.2600  138.4050 C   0  0  0  0  0  0  0  0  0  0  0  0
  189.4610  177.7820  144.2220 C   0  0  0  0  0  2  0  0  0  0  0  0
  190.9550  176.4390  147.4750 C   0  0  0  0  0  3  0  0  0  0  0  0
  192.0110  175.6710  146.9820 C   0  0  0  0  0  3  0  0  0  0  0  0
  190.3420  177.0660  145.2050 C   0  0  0  0  0  0  0  0  0  0  0  0
  191.3930  176.2720  144.7240 C   0  0  0  0  0  3  0  0  0  0  0  0
  192.2270  175.5830  145.6080 C   0  0  0  0  0  3  0  0  0  0  0  0
  190.1080  177.1330  146.6010 C   0  0  0  0  0  0  0  0  0  0  0  0
  189.3940  178.5950  148.4940 C   0  0  0  0  0  1  0  0  0  0  0  0
  188.9690  177.8970  147.2140 C   0  0  2  0  0  3  0  0  0  0  0  0
  187.7500  177.0150  147.4360 C   0  0  0  0  0  2  0  0  0  0  0  0
  186.6950  177.4440  146.6290 O   0  0  0  0  0  0  0  0  0  0  0  0
  184.7590  178.5080  147.1750 O   0  0  0  0  0  1  0  0  0  0  0  0
  186.1430  178.5170  147.3280 C   0  0  0  0  0  2  0  0  0  0  0  0
  181.3830  178.3790  143.3840 O   0  0  0  0  0  0  0  0  0  0  0  0
  181.0500  179.7340  143.3060 C   0  0  0  0  0  2  0  0  0  0  0  0
  178.9590  178.6440  142.9850 O   0  0  0  0  0  1  0  0  0  0  0  0
  179.6010  179.8790  142.8860 C   0  0  0  0  0  2  0  0  0  0  0  0
  183.1730  177.7710  141.8610 C   0  0  0  0  0  2  0  0  0  0  0  0
  183.0860  178.7730  140.7100 C   0  0  0  0  0  2  0  0  0  0  0  0
  183.8460  178.3120  139.4710 C   0  0  0  0  0  2  0  0  0  0  0  0
  183.0890  178.5430  138.3190 O   0  0  0  0  0  0  0  0  0  0  0  0
  182.0850  177.5700  138.3400 C   0  0  0  0  0  2  0  0  0  0  0  0
  181.2160  177.7000  137.1030 C   0  0  0  0  0  2  0  0  0  0  0  0
  181.0790  176.4580  136.4750 O   0  0  0  0  0  0  0  0  0  0  0  0
  182.1910  176.3410  135.6350 C   0  0  0  0  0  2  0  0  0  0  0  0
  184.1060  174.8380  135.0840 C   0  0  2  0  0  3  0  0  0  0  0  0
  183.3840  172.8780  136.4190 O   0  0  0  0  0  1  0  0  0  0  0  0
  183.1690  175.3140  136.1920 C   0  0  2  0  0  3  0  0  0  0  0  0
  181.8730  173.6540  134.5940 C   0  0  0  0  0  1  0  0  0  0  0  0
  182.9920  173.9300  135.5870 C   0  0  1  0  0  0  0  0  0  0  0  0
  188.2760  173.9720  135.7220 C   0  0  1  0  0  3  0  0  0  0  0  0
  187.1030  172.9780  135.7940 C   0  0  0  0  0  2  0  0  0  0  0  0
  186.4040  176.4040  136.9990 C   0  0  0  0  0  1  0  0  0  0  0  0
  186.0300  173.4090  134.9970 O   0  0  0  0  0  0  0  0  0  0  0  0
  187.8260  175.3540  135.2220 C   0  0  0  0  0  2  0  0  0  0  0  0
  185.4660  174.4970  135.6830 C   0  0  1  0  0  3  0  0  0  0  0  0
  186.3950  175.7220  135.6440 C   0  0  1  0  0  3  0  0  0  0  0  0
  188.9490  174.0970  137.0800 C   0  0  0  0  0  2  0  0  0  0  0  0
  190.8510  173.1570  135.7970 C   0  0  0  0  0  1  0  0  0  0  0  0
  190.4600  174.0860  136.9280 C   0  0  0  0  0  2  0  0  0  0  0  0
  1 33  1  6  0  0  0
  1 29  1  0  0  0  0
  1  2  1  0  0  0  0
  2  3  1  0  0  0  0
  4  5  1  0  0  0  0
  4  3  1  0  0  0  0
  6  5  1  0  0  0  0
  7  6  1  6  0  0  0
  7 16  1  0  0  0  0
  8  7  1  0  0  0  0
  9 11  1  0  0  0  0
  9 12  2  0  0  0  0
 10  8  1  0  0  0  0
 11 10  2  0  0  0  0
 12  8  1  0  0  0  0
 13 15  1  0  0  0  0
 14 15  2  0  0  0  0
 15  9  1  0  0  0  0
 16 19  1  0  0  0  0
 18 17  1  0  0  0  0
 19 22  1  0  0  0  0
 20 19  2  0  0  0  0
 20 21  1  0  0  0  0
 21 18  2  0  0  0  0
 22 24  1  0  0  0  0
 22 17  2  0  0  0  0
 24 25  1  0  0  0  0
 24 23  1  1  0  0  0
 26 28  1  0  0  0  0
 26 25  1  0  0  0  0
 27 28  1  0  0  0  0
 30 29  1  0  0  0  0
 32 31  1  0  0  0  0
 32 30  1  0  0  0  0
 34 33  1  0  0  0  0
 35 34  1  0  0  0  0
 36 37  1  0  0  0  0
 36 35  1  0  0  0  0
 38 37  1  0  0  0  0
 39 38  1  0  0  0  0
 40 39  1  0  0  0  0
 41 45  1  0  0  0  0
 41 51  1  1  0  0  0
 41 43  1  0  0  0  0
 43 40  1  6  0  0  0
 45 44  1  6  0  0  0
 45 43  1  0  0  0  0
 45 42  1  0  0  0  0
 46 47  1  0  0  0  0
 46 53  1  1  0  0  0
 49 47  1  0  0  0  0
 50 52  1  0  0  0  0
 50 46  1  0  0  0  0
 51 49  1  6  0  0  0
 52 51  1  0  0  0  0
 52 48  1  1  0  0  0
 54 55  1  0  0  0  0
 55 53  1  0  0  0  0
M  END
>  <MODEL>
3

>  <REMARK>
 VINA RESULT:      -5.1      2.384      7.002
  Name = 
  29 active torsions:
  status: ('A' for Active; 'I' for Inactive)
    1  A    between atoms: C_1  and  C_46
    2  A    between atoms: C_2  and  C_44
    3  A    between atoms: C_2  and  C_49
    4  A    between atoms: C_3  and  C_25
    5  A    between atoms: C_5  and  O_40
    6  A    between atoms: C_5  and  C_45
    7  A    between atoms: C_8  and  O_20
    8  A    between atoms: C_8  and  C_22
    9  A    between atoms: C_12  and  C_42
   10  A    between atoms: N_13  and  C_52
   11  A    between atoms: C_16  and  C_36
   12  A    between atoms: O_20  and  C_42
   13  A    between atoms: C_22  and  O_43
   14  A    between atoms: C_25  and  C_38
   15  A    between atoms: C_26  and  C_45
   16  A    between atoms: C_27  and  C_31
   17  A    between atoms: C_27  and  C_49
   18  A    between atoms: C_27  and  O_54
   19  A    between atoms: C_28  and  C_33
   20  A    between atoms: C_28  and  C_44
   21  A    between atoms: C_31  and  C_35
   22  A    between atoms: C_32  and  C_47
   23  A    between atoms: C_33  and  C_52
   24  A    between atoms: C_35  and  C_51
   25  A    between atoms: C_36  and  C_52
   26  A    between atoms: C_37  and  O_40
   27  A    between atoms: C_41  and  C_55
   28  A    between atoms: O_43  and  C_51
   29  A    between atoms: O_54  and  C_55
                            x       y       z     vdW  Elec       q    Type
                         _______ _______ _______ _____ _____    ______ ____

>  <TORSDO>
F 29

$$$$
=
 OpenBabel11052414553D

 55 58  0  0  1  0  0  0  0  0999 V2000
  189.3600  177.1820  144.4310 C   0  0  1  0  0  3  0  0  0  0  0  0
  189.0660  176.4950  143.1050 C   0  0  0  0  0  2  0  0  0  0  0  0
  189.3310  177.4420  141.9460 C   0  0  0  0  0  2  0  0  0  0  0  0
  190.0460  176.7340  140.8010 C   0  0  0  0  0  2  0  0  0  0  0  0
  189.9120  177.4640  139.4670 C   0  0  0  0  0  2  0  0  0  0  0  0
  189.8300  176.4850  138.3060 C   0  0  0  0  0  2  0  0  0  0  0  0
  190.6460  176.9720  137.1170 C   0  0  1  0  0  3  0  0  0  0  0  0
  191.9060  176.2440  136.9790 N   0  0  0  0  0  0  0  0  0  0  0  0
  193.7900  175.1840  137.3860 C   0  0  0  0  0  0  0  0  0  0  0  0
  192.3810  175.7800  135.8060 C   0  0  0  0  0  3  0  0  0  0  0  0
  193.5710  175.1080  136.0220 C   0  0  0  0  0  3  0  0  0  0  0  0
  192.7490  175.8860  137.9660 C   0  0  0  0  0  3  0  0  0  0  0  0
  195.5050  173.5790  137.6540 O   0  0  0  0  0  0  0  0  0  0  0  0
  195.4170  175.2070  139.2570 O   0  0  0  0  0  1  0  0  0  0  0  0
  194.9410  174.6140  138.0960 C   0  0  0  0  0  0  0  0  0  0  0  0
  189.8080  176.8770  135.8450 C   0  0  0  0  0  2  0  0  0  0  0  0
  186.0310  176.3030  135.9900 C   0  0  0  0  0  3  0  0  0  0  0  0
  185.6190  177.4330  136.6970 C   0  0  0  0  0  3  0  0  0  0  0  0
  188.3420  177.0540  136.1180 C   0  0  0  0  0  0  0  0  0  0  0  0
  187.9160  178.1730  136.8480 C   0  0  0  0  0  3  0  0  0  0  0  0
  186.5610  178.3650  137.1300 C   0  0  0  0  0  3  0  0  0  0  0  0
  187.3860  176.0940  135.7010 C   0  0  0  0  0  0  0  0  0  0  0  0
  186.5070  174.0270  134.6130 C   0  0  0  0  0  1  0  0  0  0  0  0
  187.7450  174.8280  134.9770 C   0  0  2  0  0  3  0  0  0  0  0  0
  188.7430  173.9900  135.7610 C   0  0  0  0  0  2  0  0  0  0  0  0
  189.8850  173.7630  134.9930 O   0  0  0  0  0  0  0  0  0  0  0  0
  189.6210  171.5030  134.9680 O   0  0  0  0  0  1  0  0  0  0  0  0
  190.3860  172.5530  135.4710 C   0  0  0  0  0  2  0  0  0  0  0  0
  190.4560  178.0480  144.3190 O   0  0  0  0  0  0  0  0  0  0  0  0
  191.5690  177.2760  144.6600 C   0  0  0  0  0  2  0  0  0  0  0  0
  192.1920  175.7340  146.3630 O   0  0  0  0  0  1  0  0  0  0  0  0
  191.5180  176.9340  146.1370 C   0  0  0  0  0  2  0  0  0  0  0  0
  188.1130  177.9110  144.9400 C   0  0  0  0  0  2  0  0  0  0  0  0
  186.7880  177.2600  144.5430 C   0  0  0  0  0  2  0  0  0  0  0  0
  185.5800  178.1200  144.8980 C   0  0  0  0  0  2  0  0  0  0  0  0
  185.5500  179.2730  144.1080 O   0  0  0  0  0  0  0  0  0  0  0  0
  184.1980  179.6100  144.0050 C   0  0  0  0  0  2  0  0  0  0  0  0
  183.3780  178.7470  144.9470 C   0  0  0  0  0  2  0  0  0  0  0  0
  182.0240  178.8030  144.6000 O   0  0  0  0  0  0  0  0  0  0  0  0
  181.9880  179.4110  143.3410 C   0  0  0  0  0  2  0  0  0  0  0  0
  180.7620  179.1600  141.1810 C   0  0  2  0  0  3  0  0  0  0  0  0
  179.5150  177.0930  141.7460 O   0  0  0  0  0  1  0  0  0  0  0  0
  181.5110  178.4200  142.2870 C   0  0  2  0  0  3  0  0  0  0  0  0
  179.1100  179.1100  143.1560 C   0  0  0  0  0  1  0  0  0  0  0  0
  179.9950  178.3260  142.1980 C   0  0  1  0  0  0  0  0  0  0  0  0
  180.9560  178.0630  137.0220 C   0  0  1  0  0  3  0  0  0  0  0  0
  179.9720  177.5240  138.0760 C   0  0  0  0  0  2  0  0  0  0  0  0
  183.3950  178.2530  139.2720 C   0  0  0  0  0  1  0  0  0  0  0  0
  179.7820  178.4570  139.1090 O   0  0  0  0  0  0  0  0  0  0  0  0
  181.8180  179.2100  137.5750 C   0  0  0  0  0  2  0  0  0  0  0  0
  180.9710  178.4360  139.8560 C   0  0  1  0  0  3  0  0  0  0  0  0
  182.1330  179.0710  139.0730 C   0  0  1  0  0  3  0  0  0  0  0  0
  181.8430  176.9420  136.5020 C   0  0  0  0  0  2  0  0  0  0  0  0
  182.8770  174.9970  137.6400 C   0  0  0  0  0  1  0  0  0  0  0  0
  181.5660  175.6520  137.2550 C   0  0  0  0  0  2  0  0  0  0  0  0
  1  2  1  6  0  0  0
  1 33  1  0  0  0  0
  3  2  1  0  0  0  0
  4  3  1  0  0  0  0
  5  4  1  0  0  0  0
  6  5  1  0  0  0  0
  7 16  1  6  0  0  0
  7  6  1  0  0  0  0
  8  7  1  0  0  0  0
  8 12  1  0  0  0  0
  9 12  2  0  0  0  0
  9 15  1  0  0  0  0
 10 11  2  0  0  0  0
 10  8  1  0  0  0  0
 11  9  1  0  0  0  0
 13 15  2  0  0  0  0
 15 14  1  0  0  0  0
 16 19  1  0  0  0  0
 17 18  1  0  0  0  0
 18 21  2  0  0  0  0
 19 20  2  0  0  0  0
 20 21  1  0  0  0  0
 22 17  2  0  0  0  0
 22 19  1  0  0  0  0
 24 23  1  1  0  0  0
 24 22  1  0  0  0  0
 24 25  1  0  0  0  0
 26 28  1  0  0  0  0
 26 25  1  0  0  0  0
 27 28  1  0  0  0  0
 29  1  1  0  0  0  0
 29 30  1  0  0  0  0
 30 32  1  0  0  0  0
 32 31  1  0  0  0  0
 34 35  1  0  0  0  0
 34 33  1  0  0  0  0
 36 35  1  0  0  0  0
 37 36  1  0  0  0  0
 37 38  1  0  0  0  0
 39 38  1  0  0  0  0
 40 39  1  0  0  0  0
 41 51  1  6  0  0  0
 41 45  1  0  0  0  0
 41 43  1  0  0  0  0
 42 45  1  0  0  0  0
 43 40  1  1  0  0  0
 45 43  1  0  0  0  0
 45 44  1  1  0  0  0
 46 53  1  1  0  0  0
 46 50  1  0  0  0  0
 46 47  1  0  0  0  0
 47 49  1  0  0  0  0
 50 52  1  0  0  0  0
 51 49  1  6  0  0  0
 52 48  1  6  0  0  0
 52 51  1  0  0  0  0
 53 55  1  0  0  0  0
 55 54  1  0  0  0  0
M  END
>  <MODEL>
4

>  <REMARK>
 VINA RESULT:      -4.8      2.001      4.601
  Name = 
  29 active torsions:
  status: ('A' for Active; 'I' for Inactive)
    1  A    between atoms: C_1  and  C_46
    2  A    between atoms: C_2  and  C_44
    3  A    between atoms: C_2  and  C_49
    4  A    between atoms: C_3  and  C_25
    5  A    between atoms: C_5  and  O_40
    6  A    between atoms: C_5  and  C_45
    7  A    between atoms: C_8  and  O_20
    8  A    between atoms: C_8  and  C_22
    9  A    between atoms: C_12  and  C_42
   10  A    between atoms: N_13  and  C_52
   11  A    between atoms: C_16  and  C_36
   12  A    between atoms: O_20  and  C_42
   13  A    between atoms: C_22  and  O_43
   14  A    between atoms: C_25  and  C_38
   15  A    between atoms: C_26  and  C_45
   16  A    between atoms: C_27  and  C_31
   17  A    between atoms: C_27  and  C_49
   18  A    between atoms: C_27  and  O_54
   19  A    between atoms: C_28  and  C_33
   20  A    between atoms: C_28  and  C_44
   21  A    between atoms: C_31  and  C_35
   22  A    between atoms: C_32  and  C_47
   23  A    between atoms: C_33  and  C_52
   24  A    between atoms: C_35  and  C_51
   25  A    between atoms: C_36  and  C_52
   26  A    between atoms: C_37  and  O_40
   27  A    between atoms: C_41  and  C_55
   28  A    between atoms: O_43  and  C_51
   29  A    between atoms: O_54  and  C_55
                            x       y       z     vdW  Elec       q    Type
                         _______ _______ _______ _____ _____    ______ ____

>  <TORSDO>
F 29

$$$$
=
 OpenBabel11052414553D

 55 58  0  0  1  0  0  0  0  0999 V2000
  189.8650  176.1230  138.2460 C   0  0  1  0  0  3  0  0  0  0  0  0
  189.1910  175.5600  137.0020 C   0  0  0  0  0  2  0  0  0  0  0  0
  187.6860  175.7640  137.0760 C   0  0  0  0  0  2  0  0  0  0  0  0
  187.1500  176.4160  135.8070 C   0  0  0  0  0  2  0  0  0  0  0  0
  185.8120  177.1190  136.0120 C   0  0  0  0  0  2  0  0  0  0  0  0
  185.4620  177.2240  137.4890 C   0  0  0  0  0  2  0  0  0  0  0  0
  184.1140  176.5810  137.7820 C   0  0  1  0  0  3  0  0  0  0  0  0
  183.1730  177.5240  138.3830 N   0  0  0  0  0  0  0  0  0  0  0  0
  181.8730  179.2560  138.7680 C   0  0  0  0  0  0  0  0  0  0  0  0
  182.4840  177.2800  139.5150 C   0  0  0  0  0  3  0  0  0  0  0  0
  181.6550  178.3520  139.7930 C   0  0  0  0  0  3  0  0  0  0  0  0
  182.8110  178.7280  137.9000 C   0  0  0  0  0  3  0  0  0  0  0  0
  180.6390  181.0840  139.6190 O   0  0  0  0  0  1  0  0  0  0  0  0
  181.2220  181.2280  137.4130 O   0  0  0  0  0  0  0  0  0  0  0  0
  181.2150  180.5610  138.6300 C   0  0  0  0  0  0  0  0  0  0  0  0
  183.5490  175.9690  136.5030 C   0  0  0  0  0  2  0  0  0  0  0  0
  182.2330  172.4510  137.2100 C   0  0  0  0  0  3  0  0  0  0  0  0
  183.2680  171.6730  136.6900 C   0  0  0  0  0  3  0  0  0  0  0  0
  183.4330  174.4750  136.5920 C   0  0  0  0  0  0  0  0  0  0  0  0
  184.4550  173.6800  136.0520 C   0  0  0  0  0  3  0  0  0  0  0  0
  184.3760  172.2870  136.1060 C   0  0  0  0  0  3  0  0  0  0  0  0
  182.2950  173.8490  137.1600 C   0  0  0  0  0  0  0  0  0  0  0  0
  180.2500  173.7270  138.5850 C   0  0  0  0  0  1  0  0  0  0  0  0
  181.1170  174.6070  137.7010 C   0  0  2  0  0  3  0  0  0  0  0  0
  180.3060  175.2600  136.5930 C   0  0  0  0  0  2  0  0  0  0  0  0
  180.1550  176.6230  136.8490 O   0  0  0  0  0  0  0  0  0  0  0  0
  180.0700  176.3310  134.5940 O   0  0  0  0  0  1  0  0  0  0  0  0
  180.3730  177.2300  135.6130 C   0  0  0  0  0  2  0  0  0  0  0  0
  191.1770  175.6480  138.3660 O   0  0  0  0  0  0  0  0  0  0  0  0
  191.9810  176.7910  138.3660 C   0  0  0  0  0  2  0  0  0  0  0  0
  193.7780  175.2850  137.9550 O   0  0  0  0  0  1  0  0  0  0  0  0
  193.4110  176.4080  138.6970 C   0  0  0  0  0  2  0  0  0  0  0  0
  189.8160  177.6540  138.2300 C   0  0  0  0  0  2  0  0  0  0  0  0
  188.9430  178.2740  139.3200 C   0  0  0  0  0  2  0  0  0  0  0  0
  188.5740  177.2790  140.4150 C   0  0  0  0  0  2  0  0  0  0  0  0
  189.3780  177.4710  141.5420 O   0  0  0  0  0  0  0  0  0  0  0  0
  189.8000  176.1910  141.9120 C   0  0  0  0  0  2  0  0  0  0  0  0
  190.1930  176.1820  143.3790 C   0  0  0  0  0  2  0  0  0  0  0  0
  191.1420  177.1780  143.6320 O   0  0  0  0  0  0  0  0  0  0  0  0
  190.8320  177.6720  144.9030 C   0  0  0  0  0  2  0  0  0  0  0  0
  188.7640  178.2460  146.1760 C   0  0  2  0  0  3  0  0  0  0  0  0
  188.4250  176.0450  147.2660 O   0  0  0  0  0  1  0  0  0  0  0  0
  189.4630  177.1710  145.3460 C   0  0  2  0  0  3  0  0  0  0  0  0
  190.5420  177.2640  147.7590 C   0  0  0  0  0  1  0  0  0  0  0  0
  189.3450  177.0120  146.8550 C   0  0  1  0  0  0  0  0  0  0  0  0
  184.5500  179.0550  145.8200 C   0  0  1  0  0  3  0  0  0  0  0  0
  185.2470  178.2510  146.9330 C   0  0  0  0  0  2  0  0  0  0  0  0
  186.6800  177.9090  143.5410 C   0  0  0  0  0  1  0  0  0  0  0  0
  186.5820  178.6570  147.0840 O   0  0  0  0  0  0  0  0  0  0  0  0
  185.5610  179.7150  144.8700 C   0  0  0  0  0  2  0  0  0  0  0  0
  187.2570  178.1500  145.9610 C   0  0  1  0  0  3  0  0  0  0  0  0
  186.8480  178.8960  144.6800 C   0  0  1  0  0  3  0  0  0  0  0  0
  183.5980  178.1620  145.0380 C   0  0  0  0  0  2  0  0  0  0  0  0
  181.9030  178.5250  143.2650 C   0  0  0  0  0  1  0  0  0  0  0  0
  183.3540  178.7300  143.6510 C   0  0  0  0  0  2  0  0  0  0  0  0
  1  2  1  6  0  0  0
  1 29  1  0  0  0  0
  2  3  1  0  0  0  0
  4  5  1  0  0  0  0
  4  3  1  0  0  0  0
  5  6  1  0  0  0  0
  6  7  1  0  0  0  0
  7 16  1  6  0  0  0
  7  8  1  0  0  0  0
  8 10  1  0  0  0  0
  9 11  1  0  0  0  0
 10 11  2  0  0  0  0
 12  8  1  0  0  0  0
 12  9  2  0  0  0  0
 14 15  2  0  0  0  0
 15  9  1  0  0  0  0
 15 13  1  0  0  0  0
 16 19  1  0  0  0  0
 18 17  2  0  0  0  0
 19 22  2  0  0  0  0
 20 21  2  0  0  0  0
 20 19  1  0  0  0  0
 21 18  1  0  0  0  0
 22 17  1  0  0  0  0
 22 24  1  0  0  0  0
 24 23  1  6  0  0  0
 25 26  1  0  0  0  0
 25 24  1  0  0  0  0
 27 28  1  0  0  0  0
 28 26  1  0  0  0  0
 29 30  1  0  0  0  0
 30 32  1  0  0  0  0
 31 32  1  0  0  0  0
 33  1  1  0  0  0  0
 33 34  1  0  0  0  0
 34 35  1  0  0  0  0
 35 36  1  0  0  0  0
 36 37  1  0  0  0  0
 37 38  1  0  0  0  0
 38 39  1  0  0  0  0
 39 40  1  0  0  0  0
 41 51  1  6  0  0  0
 41 45  1  0  0  0  0
 43 40  1  1  0  0  0
 43 41  1  0  0  0  0
 43 45  1  0  0  0  0
 45 42  1  0  0  0  0
 45 44  1  1  0  0  0
 46 53  1  6  0  0  0
 46 47  1  0  0  0  0
 47 49  1  0  0  0  0
 50 46  1  0  0  0  0
 51 49  1  1  0  0  0
 52 48  1  6  0  0  0
 52 50  1  0  0  0  0
 52 51  1  0  0  0  0
 54 55  1  0  0  0  0
 55 53  1  0  0  0  0
M  END
>  <MODEL>
5

>  <REMARK>
 VINA RESULT:      -4.5      2.291     10.029
  Name = 
  29 active torsions:
  status: ('A' for Active; 'I' for Inactive)
    1  A    between atoms: C_1  and  C_46
    2  A    between atoms: C_2  and  C_44
    3  A    between atoms: C_2  and  C_49
    4  A    between atoms: C_3  and  C_25
    5  A    between atoms: C_5  and  O_40
    6  A    between atoms: C_5  and  C_45
    7  A    between atoms: C_8  and  O_20
    8  A    between atoms: C_8  and  C_22
    9  A    between atoms: C_12  and  C_42
   10  A    between atoms: N_13  and  C_52
   11  A    between atoms: C_16  and  C_36
   12  A    between atoms: O_20  and  C_42
   13  A    between atoms: C_22  and  O_43
   14  A    between atoms: C_25  and  C_38
   15  A    between atoms: C_26  and  C_45
   16  A    between atoms: C_27  and  C_31
   17  A    between atoms: C_27  and  C_49
   18  A    between atoms: C_27  and  O_54
   19  A    between atoms: C_28  and  C_33
   20  A    between atoms: C_28  and  C_44
   21  A    between atoms: C_31  and  C_35
   22  A    between atoms: C_32  and  C_47
   23  A    between atoms: C_33  and  C_52
   24  A    between atoms: C_35  and  C_51
   25  A    between atoms: C_36  and  C_52
   26  A    between atoms: C_37  and  O_40
   27  A    between atoms: C_41  and  C_55
   28  A    between atoms: O_43  and  C_51
   29  A    between atoms: O_54  and  C_55
                            x       y       z     vdW  Elec       q    Type
                         _______ _______ _______ _____ _____    ______ ____

>  <TORSDO>
F 29

$$$$
=
 OpenBabel11052414553D

 55 58  0  0  1  0  0  0  0  0999 V2000
  186.9740  175.0270  135.7590 C   0  0  1  0  0  3  0  0  0  0  0  0
  186.9570  176.3900  135.0810 C   0  0  0  0  0  2  0  0  0  0  0  0
  185.6940  177.1510  135.4500 C   0  0  0  0  0  2  0  0  0  0  0  0
  185.1700  176.7300  136.8190 C   0  0  0  0  0  2  0  0  0  0  0  0
  183.6880  177.0350  137.0140 C   0  0  0  0  0  2  0  0  0  0  0  0
  183.4810  178.1660  138.0100 C   0  0  0  0  0  2  0  0  0  0  0  0
  182.9290  177.6430  139.3290 C   0  0  1  0  0  3  0  0  0  0  0  0
  183.6350  178.2000  140.4820 N   0  0  0  0  0  0  0  0  0  0  0  0
  184.1780  178.8700  142.5040 C   0  0  0  0  0  0  0  0  0  0  0  0
  184.9130  178.6240  140.4470 C   0  0  0  0  0  3  0  0  0  0  0  0
  185.2920  179.0580  141.7050 C   0  0  0  0  0  3  0  0  0  0  0  0
  183.1620  178.3340  141.7350 C   0  0  0  0  0  3  0  0  0  0  0  0
  185.0560  179.7640  144.5090 O   0  0  0  0  0  0  0  0  0  0  0  0
  182.9580  178.8670  144.6630 O   0  0  0  0  0  1  0  0  0  0  0  0
  184.0940  179.1910  143.9340 C   0  0  0  0  0  0  0  0  0  0  0  0
  181.4310  177.9250  139.4050 C   0  0  0  0  0  2  0  0  0  0  0  0
  179.5950  178.9800  136.2230 C   0  0  0  0  0  3  0  0  0  0  0  0
  180.0470  180.2920  136.0800 C   0  0  0  0  0  3  0  0  0  0  0  0
  180.9440  178.7250  138.2310 C   0  0  0  0  0  0  0  0  0  0  0  0
  181.3730  180.0520  138.0880 C   0  0  0  0  0  3  0  0  0  0  0  0
  180.9320  180.8300  137.0140 C   0  0  0  0  0  3  0  0  0  0  0  0
  180.0250  178.1880  137.2950 C   0  0  0  0  0  0  0  0  0  0  0  0
  179.0470  176.4760  138.8240 C   0  0  0  0  0  1  0  0  0  0  0  0
  179.4510  176.8040  137.3980 C   0  0  2  0  0  3  0  0  0  0  0  0
  180.3930  175.7560  136.8270 C   0  0  0  0  0  2  0  0  0  0  0  0
  180.7960  174.8760  137.8310 O   0  0  0  0  0  0  0  0  0  0  0  0
  179.4050  173.0860  137.6340 O   0  0  0  0  0  1  0  0  0  0  0  0
  180.6400  173.6120  137.2630 C   0  0  0  0  0  2  0  0  0  0  0  0
  186.6250  174.0120  134.8590 O   0  0  0  0  0  0  0  0  0  0  0  0
  186.1460  172.9670  135.6540 C   0  0  0  0  0  2  0  0  0  0  0  0
  187.0110  170.7600  135.4480 O   0  0  0  0  0  1  0  0  0  0  0  0
  186.1460  171.6790  134.8540 C   0  0  0  0  0  2  0  0  0  0  0  0
  188.3410  174.7700  136.4000 C   0  0  0  0  0  2  0  0  0  0  0  0
  189.5300  174.9480  135.4560 C   0  0  0  0  0  2  0  0  0  0  0  0
  190.7360  174.1080  135.8660 C   0  0  0  0  0  2  0  0  0  0  0  0
  191.9220  174.8110  135.6370 O   0  0  0  0  0  0  0  0  0  0  0  0
  191.8750  175.9010  136.5100 C   0  0  0  0  0  2  0  0  0  0  0  0
  192.3270  175.4730  137.8940 C   0  0  0  0  0  2  0  0  0  0  0  0
  192.1580  176.5210  138.8050 O   0  0  0  0  0  0  0  0  0  0  0  0
  190.9330  177.1080  138.4730 C   0  0  0  0  0  2  0  0  0  0  0  0
  189.3150  176.9520  140.3680 C   0  0  2  0  0  3  0  0  0  0  0  0
  188.4360  179.2670  140.2440 O   0  0  0  0  0  1  0  0  0  0  0  0
  190.3510  177.8370  139.6780 C   0  0  2  0  0  3  0  0  0  0  0  0
  188.1270  177.8040  138.2480 C   0  0  0  0  0  1  0  0  0  0  0  0
  188.8680  178.1440  139.5320 C   0  0  1  0  0  0  0  0  0  0  0  0
  189.0740  176.6960  144.6590 C   0  0  1  0  0  3  0  0  0  0  0  0
  188.0720  177.3860  143.7160 C   0  0  0  0  0  2  0  0  0  0  0  0
  191.6320  177.5940  142.7380 C   0  0  0  0  0  1  0  0  0  0  0  0
  188.1090  176.8100  142.4360 O   0  0  0  0  0  0  0  0  0  0  0  0
  190.1540  175.9250  143.8840 C   0  0  0  0  0  2  0  0  0  0  0  0
  189.3170  177.2440  141.8640 C   0  0  1  0  0  3  0  0  0  0  0  0
  190.5250  176.5760  142.5420 C   0  0  1  0  0  3  0  0  0  0  0  0
  189.7170  177.7150  145.5870 C   0  0  0  0  0  2  0  0  0  0  0  0
  188.6380  177.1660  147.7510 C   0  0  0  0  0  1  0  0  0  0  0  0
  188.7210  178.1850  146.6330 C   0  0  0  0  0  2  0  0  0  0  0  0
  1  2  1  6  0  0  0
  1 33  1  0  0  0  0
  2  3  1  0  0  0  0
  3  4  1  0  0  0  0
  4  5  1  0  0  0  0
  5  6  1  0  0  0  0
  7  6  1  6  0  0  0
  7 16  1  0  0  0  0
  7  8  1  0  0  0  0
  8 12  1  0  0  0  0
  9 15  1  0  0  0  0
 10  8  1  0  0  0  0
 10 11  2  0  0  0  0
 11  9  1  0  0  0  0
 12  9  2  0  0  0  0
 15 13  2  0  0  0  0
 15 14  1  0  0  0  0
 17 22  1  0  0  0  0
 18 17  2  0  0  0  0
 18 21  1  0  0  0  0
 19 16  1  0  0  0  0
 20 19  1  0  0  0  0
 21 20  2  0  0  0  0
 22 24  1  0  0  0  0
 22 19  2  0  0  0  0
 24 23  1  1  0  0  0
 25 24  1  0  0  0  0
 25 26  1  0  0  0  0
 28 27  1  0  0  0  0
 28 26  1  0  0  0  0
 29 30  1  0  0  0  0
 29  1  1  0  0  0  0
 32 31  1  0  0  0  0
 32 30  1  0  0  0  0
 34 35  1  0  0  0  0
 34 33  1  0  0  0  0
 36 35  1  0  0  0  0
 36 37  1  0  0  0  0
 37 38  1  0  0  0  0
 38 39  1  0  0  0  0
 40 39  1  0  0  0  0
 41 51  1  1  0  0  0
 43 40  1  6  0  0  0
 43 41  1  0  0  0  0
 45 44  1  6  0  0  0
 45 43  1  0  0  0  0
 45 42  1  0  0  0  0
 45 41  1  0  0  0  0
 46 53  1  6  0  0  0
 47 46  1  0  0  0  0
 49 47  1  0  0  0  0
 50 46  1  0  0  0  0
 51 49  1  1  0  0  0
 51 52  1  0  0  0  0
 52 48  1  1  0  0  0
 52 50  1  0  0  0  0
 53 55  1  0  0  0  0
 55 54  1  0  0  0  0
M  END
>  <MODEL>
6

>  <REMARK>
 VINA RESULT:      -4.5      2.502     10.156
  Name = 
  29 active torsions:
  status: ('A' for Active; 'I' for Inactive)
    1  A    between atoms: C_1  and  C_46
    2  A    between atoms: C_2  and  C_44
    3  A    between atoms: C_2  and  C_49
    4  A    between atoms: C_3  and  C_25
    5  A    between atoms: C_5  and  O_40
    6  A    between atoms: C_5  and  C_45
    7  A    between atoms: C_8  and  O_20
    8  A    between atoms: C_8  and  C_22
    9  A    between atoms: C_12  and  C_42
   10  A    between atoms: N_13  and  C_52
   11  A    between atoms: C_16  and  C_36
   12  A    between atoms: O_20  and  C_42
   13  A    between atoms: C_22  and  O_43
   14  A    between atoms: C_25  and  C_38
   15  A    between atoms: C_26  and  C_45
   16  A    between atoms: C_27  and  C_31
   17  A    between atoms: C_27  and  C_49
   18  A    between atoms: C_27  and  O_54
   19  A    between atoms: C_28  and  C_33
   20  A    between atoms: C_28  and  C_44
   21  A    between atoms: C_31  and  C_35
   22  A    between atoms: C_32  and  C_47
   23  A    between atoms: C_33  and  C_52
   24  A    between atoms: C_35  and  C_51
   25  A    between atoms: C_36  and  C_52
   26  A    between atoms: C_37  and  O_40
   27  A    between atoms: C_41  and  C_55
   28  A    between atoms: O_43  and  C_51
   29  A    between atoms: O_54  and  C_55
                            x       y       z     vdW  Elec       q    Type
                         _______ _______ _______ _____ _____    ______ ____

>  <TORSDO>
F 29

$$$$
=
 OpenBabel11052414553D

 55 58  0  0  1  0  0  0  0  0999 V2000
  187.1620  178.0250  145.1950 C   0  0  1  0  0  3  0  0  0  0  0  0
  186.5190  177.4880  143.9240 C   0  0  0  0  0  2  0  0  0  0  0  0
  185.9010  178.6210  143.1210 C   0  0  0  0  0  2  0  0  0  0  0  0
  184.3930  178.4480  142.9820 C   0  0  0  0  0  2  0  0  0  0  0  0
  183.9850  177.7660  141.6800 C   0  0  0  0  0  2  0  0  0  0  0  0
  183.2840  178.7370  140.7420 C   0  0  0  0  0  2  0  0  0  0  0  0
  182.0450  178.1050  140.1220 C   0  0  1  0  0  3  0  0  0  0  0  0
  181.2270  179.0840  139.4080 N   0  0  0  0  0  0  0  0  0  0  0  0
  180.5310  180.8600  138.3150 C   0  0  0  0  0  0  0  0  0  0  0  0
  179.9460  178.8710  139.0480 C   0  0  0  0  0  3  0  0  0  0  0  0
  179.4700  179.9730  138.3580 C   0  0  0  0  0  3  0  0  0  0  0  0
  181.6120  180.2950  138.9650 C   0  0  0  0  0  3  0  0  0  0  0  0
  181.4950  182.9550  137.7930 O   0  0  0  0  0  1  0  0  0  0  0  0
  179.3940  182.6000  136.9630 O   0  0  0  0  0  0  0  0  0  0  0  0
  180.5050  182.1850  137.6840 C   0  0  0  0  0  0  0  0  0  0  0  0
  182.4590  176.9550  139.2080 C   0  0  0  0  0  2  0  0  0  0  0  0
  180.1830  174.1340  137.9930 C   0  0  0  0  0  3  0  0  0  0  0  0
  179.5100  173.8120  139.1720 C   0  0  0  0  0  3  0  0  0  0  0  0
  181.4270  175.8650  139.1660 C   0  0  0  0  0  0  0  0  0  0  0  0
  180.7590  175.5150  140.3490 C   0  0  0  0  0  3  0  0  0  0  0  0
  179.8010  174.4980  140.3510 C   0  0  0  0  0  3  0  0  0  0  0  0
  181.1490  175.1490  137.9760 C   0  0  0  0  0  0  0  0  0  0  0  0
  181.2930  176.6100  135.9580 C   0  0  0  0  0  1  0  0  0  0  0  0
  181.8580  175.3970  136.6750 C   0  0  2  0  0  3  0  0  0  0  0  0
  181.8530  174.1660  135.7830 C   0  0  0  0  0  2  0  0  0  0  0  0
  183.0720  173.4960  135.8830 O   0  0  0  0  0  0  0  0  0  0  0  0
  181.4270  172.0050  135.3830 O   0  0  0  0  0  1  0  0  0  0  0  0
  182.7250  172.1460  135.8700 C   0  0  0  0  0  2  0  0  0  0  0  0
  186.5640  177.4720  146.3340 O   0  0  0  0  0  0  0  0  0  0  0  0
  185.7100  178.4660  146.8180 C   0  0  0  0  0  2  0  0  0  0  0  0
  185.9370  180.4990  148.0350 O   0  0  0  0  0  1  0  0  0  0  0  0
  186.3610  179.1700  147.9930 C   0  0  0  0  0  2  0  0  0  0  0  0
  188.6740  177.7780  145.1710 C   0  0  0  0  0  2  0  0  0  0  0  0
  189.2540  177.2570  146.4860 C   0  0  0  0  0  2  0  0  0  0  0  0
  190.5610  176.4960  146.2910 C   0  0  0  0  0  2  0  0  0  0  0  0
  191.4440  177.2340  145.4990 O   0  0  0  0  0  0  0  0  0  0  0  0
  191.7720  176.3910  144.4340 C   0  0  0  0  0  2  0  0  0  0  0  0
  191.5580  177.1160  143.1180 C   0  0  0  0  0  2  0  0  0  0  0  0
  190.3700  176.6880  142.5160 O   0  0  0  0  0  0  0  0  0  0  0  0
  190.5540  176.8890  141.1450 C   0  0  0  0  0  2  0  0  0  0  0  0
  189.2450  177.7610  139.2060 C   0  0  2  0  0  3  0  0  0  0  0  0
  187.0710  178.0280  140.3680 O   0  0  0  0  0  1  0  0  0  0  0  0
  189.2160  176.8320  140.4180 C   0  0  2  0  0  3  0  0  0  0  0  0
  189.0090  179.3410  141.2260 C   0  0  0  0  0  1  0  0  0  0  0  0
  188.4600  178.1520  140.4520 C   0  0  1  0  0  0  0  0  0  0  0  0
  187.1600  176.9880  135.5200 C   0  0  1  0  0  3  0  0  0  0  0  0
  186.5520  177.5120  136.8340 C   0  0  0  0  0  2  0  0  0  0  0  0
  189.3020  175.0630  137.1780 C   0  0  0  0  0  1  0  0  0  0  0  0
  187.5170  178.1870  137.5980 O   0  0  0  0  0  0  0  0  0  0  0  0
  188.6920  176.9040  135.5890 C   0  0  0  0  0  2  0  0  0  0  0  0
  188.3620  177.1850  138.1060 C   0  0  1  0  0  3  0  0  0  0  0  0
  189.2240  176.5670  136.9920 C   0  0  1  0  0  3  0  0  0  0  0  0
  186.5730  175.6290  135.1690 C   0  0  0  0  0  2  0  0  0  0  0  0
  184.7330  177.2290  134.7160 C   0  0  0  0  0  1  0  0  0  0  0  0
  185.1760  175.7850  134.5940 C   0  0  0  0  0  2  0  0  0  0  0  0
  1  2  1  6  0  0  0
  1 29  1  0  0  0  0
  3  2  1  0  0  0  0
  4  3  1  0  0  0  0
  5  4  1  0  0  0  0
  6  5  1  0  0  0  0
  7 16  1  6  0  0  0
  7  6  1  0  0  0  0
  8  7  1  0  0  0  0
  9 11  1  0  0  0  0
  9 12  2  0  0  0  0
 10  8  1  0  0  0  0
 11 10  2  0  0  0  0
 12  8  1  0  0  0  0
 14 15  2  0  0  0  0
 15 13  1  0  0  0  0
 15  9  1  0  0  0  0
 17 18  1  0  0  0  0
 18 21  2  0  0  0  0
 19 16  1  0  0  0  0
 19 20  2  0  0  0  0
 20 21  1  0  0  0  0
 22 17  2  0  0  0  0
 22 19  1  0  0  0  0
 24 23  1  6  0  0  0
 24 22  1  0  0  0  0
 25 26  1  0  0  0  0
 25 24  1  0  0  0  0
 27 28  1  0  0  0  0
 28 26  1  0  0  0  0
 29 30  1  0  0  0  0
 30 32  1  0  0  0  0
 32 31  1  0  0  0  0
 33  1  1  0  0  0  0
 33 34  1  0  0  0  0
 35 34  1  0  0  0  0
 36 35  1  0  0  0  0
 37 36  1  0  0  0  0
 38 37  1  0  0  0  0
 39 38  1  0  0  0  0
 40 39  1  0  0  0  0
 41 51  1  6  0  0  0
 41 43  1  0  0  0  0
 41 45  1  0  0  0  0
 42 45  1  0  0  0  0
 43 45  1  0  0  0  0
 43 40  1  1  0  0  0
 45 44  1  1  0  0  0
 46 53  1  1  0  0  0
 46 50  1  0  0  0  0
 46 47  1  0  0  0  0
 47 49  1  0  0  0  0
 50 52  1  0  0  0  0
 51 49  1  6  0  0  0
 52 48  1  1  0  0  0
 52 51  1  0  0  0  0
 55 54  1  0  0  0  0
 55 53  1  0  0  0  0
M  END
>  <MODEL>
7

>  <REMARK>
 VINA RESULT:      -4.1      2.980      8.703
  Name = 
  29 active torsions:
  status: ('A' for Active; 'I' for Inactive)
    1  A    between atoms: C_1  and  C_46
    2  A    between atoms: C_2  and  C_44
    3  A    between atoms: C_2  and  C_49
    4  A    between atoms: C_3  and  C_25
    5  A    between atoms: C_5  and  O_40
    6  A    between atoms: C_5  and  C_45
    7  A    between atoms: C_8  and  O_20
    8  A    between atoms: C_8  and  C_22
    9  A    between atoms: C_12  and  C_42
   10  A    between atoms: N_13  and  C_52
   11  A    between atoms: C_16  and  C_36
   12  A    between atoms: O_20  and  C_42
   13  A    between atoms: C_22  and  O_43
   14  A    between atoms: C_25  and  C_38
   15  A    between atoms: C_26  and  C_45
   16  A    between atoms: C_27  and  C_31
   17  A    between atoms: C_27  and  C_49
   18  A    between atoms: C_27  and  O_54
   19  A    between atoms: C_28  and  C_33
   20  A    between atoms: C_28  and  C_44
   21  A    between atoms: C_31  and  C_35
   22  A    between atoms: C_32  and  C_47
   23  A    between atoms: C_33  and  C_52
   24  A    between atoms: C_35  and  C_51
   25  A    between atoms: C_36  and  C_52
   26  A    between atoms: C_37  and  O_40
   27  A    between atoms: C_41  and  C_55
   28  A    between atoms: O_43  and  C_51
   29  A    between atoms: O_54  and  C_55
                            x       y       z     vdW  Elec       q    Type
                         _______ _______ _______ _____ _____    ______ ____

>  <TORSDO>
F 29

$$$$
=
 OpenBabel11052414553D

 55 58  0  0  1  0  0  0  0  0999 V2000
  191.1900  176.5980  138.4270 C   0  0  1  0  0  3  0  0  0  0  0  0
  190.2170  177.7020  138.0370 C   0  0  0  0  0  2  0  0  0  0  0  0
  189.0390  177.1260  137.2690 C   0  0  0  0  0  2  0  0  0  0  0  0
  188.3370  178.1960  136.4410 C   0  0  0  0  0  2  0  0  0  0  0  0
  186.8150  178.1070  136.5130 C   0  0  0  0  0  2  0  0  0  0  0  0
  186.3340  177.9860  137.9510 C   0  0  0  0  0  2  0  0  0  0  0  0
  184.9540  177.3470  138.0170 C   0  0  1  0  0  3  0  0  0  0  0  0
  183.9170  178.3110  138.3820 N   0  0  0  0  0  0  0  0  0  0  0  0
  181.9930  179.2740  138.8360 C   0  0  0  0  0  0  0  0  0  0  0  0
  184.1730  179.5600  138.8190 C   0  0  0  0  0  3  0  0  0  0  0  0
  182.9830  180.2000  139.1130 C   0  0  0  0  0  3  0  0  0  0  0  0
  182.5870  178.1080  138.3890 C   0  0  0  0  0  3  0  0  0  0  0  0
  179.9340  178.9850  139.9610 O   0  0  0  0  0  1  0  0  0  0  0  0
  179.8560  180.2740  138.0740 O   0  0  0  0  0  0  0  0  0  0  0  0
  180.5510  179.4980  138.9910 C   0  0  0  0  0  0  0  0  0  0  0  0
  184.6380  176.6700  136.6860 C   0  0  0  0  0  2  0  0  0  0  0  0
  184.0400  172.8990  136.4840 C   0  0  0  0  0  3  0  0  0  0  0  0
  185.2980  172.4130  136.8410 C   0  0  0  0  0  3  0  0  0  0  0  0
  184.8390  175.1830  136.7450 C   0  0  0  0  0  0  0  0  0  0  0  0
  186.1050  174.6800  137.0800 C   0  0  0  0  0  3  0  0  0  0  0  0
  186.3320  173.3020  137.1330 C   0  0  0  0  0  3  0  0  0  0  0  0
  183.7970  174.2780  136.4220 C   0  0  0  0  0  0  0  0  0  0  0  0
  182.4770  176.0400  135.2470 C   0  0  0  0  0  1  0  0  0  0  0  0
  182.4280  174.7130  135.9840 C   0  0  2  0  0  3  0  0  0  0  0  0
  181.4470  174.7530  137.1450 C   0  0  0  0  0  2  0  0  0  0  0  0
  180.2840  175.4240  136.7670 O   0  0  0  0  0  0  0  0  0  0  0  0
  179.5460  174.9370  138.8640 O   0  0  0  0  0  1  0  0  0  0  0  0
  179.7970  175.9640  137.9560 C   0  0  0  0  0  2  0  0  0  0  0  0
  191.9090  176.1440  137.3140 O   0  0  0  0  0  0  0  0  0  0  0  0
  191.7700  174.7540  137.3300 C   0  0  0  0  0  2  0  0  0  0  0  0
  190.9090  174.9640  135.1210 O   0  0  0  0  0  1  0  0  0  0  0  0
  191.7910  174.2240  135.9100 C   0  0  0  0  0  2  0  0  0  0  0  0
  192.1200  177.0790  139.5450 C   0  0  0  0  0  2  0  0  0  0  0  0
  191.4060  177.5130  140.8250 C   0  0  0  0  0  2  0  0  0  0  0  0
  189.9330  177.1150  140.8400 C   0  0  0  0  0  2  0  0  0  0  0  0
  189.4190  177.1910  142.1370 O   0  0  0  0  0  0  0  0  0  0  0  0
  189.8410  176.0170  142.7670 C   0  0  0  0  0  2  0  0  0  0  0  0
  189.9760  176.2540  144.2600 C   0  0  0  0  0  2  0  0  0  0  0  0
  190.2260  177.6070  144.5150 O   0  0  0  0  0  0  0  0  0  0  0  0
  189.7270  177.8420  145.8000 C   0  0  0  0  0  2  0  0  0  0  0  0
  187.3940  178.6410  146.1900 C   0  0  2  0  0  3  0  0  0  0  0  0
  186.6170  176.7350  147.5710 O   0  0  0  0  0  1  0  0  0  0  0  0
  188.2640  177.4230  145.8830 C   0  0  2  0  0  3  0  0  0  0  0  0
  188.5320  178.0810  148.4310 C   0  0  0  0  0  1  0  0  0  0  0  0
  187.6690  177.6050  147.2720 C   0  0  1  0  0  0  0  0  0  0  0  0
  183.5100  179.2510  144.4350 C   0  0  1  0  0  3  0  0  0  0  0  0
  183.8170  178.6280  145.8090 C   0  0  0  0  0  2  0  0  0  0  0  0
  186.2340  177.8820  143.1120 C   0  0  0  0  0  1  0  0  0  0  0  0
  185.0430  179.0960  146.3090 O   0  0  0  0  0  0  0  0  0  0  0  0
  184.7730  179.8120  143.7640 C   0  0  0  0  0  2  0  0  0  0  0  0
  186.0290  178.4660  145.5330 C   0  0  1  0  0  3  0  0  0  0  0  0
  186.0470  179.0190  144.0980 C   0  0  1  0  0  3  0  0  0  0  0  0
  182.8410  178.2290  143.5280 C   0  0  0  0  0  2  0  0  0  0  0  0
  180.9390  179.7920  143.2310 C   0  0  0  0  0  1  0  0  0  0  0  0
  181.3310  178.3720  143.5880 C   0  0  0  0  0  2  0  0  0  0  0  0
  1  2  1  6  0  0  0
  1 33  1  0  0  0  0
  3  2  1  0  0  0  0
  4  5  1  0  0  0  0
  4  3  1  0  0  0  0
  5  6  1  0  0  0  0
  6  7  1  0  0  0  0
  7 16  1  6  0  0  0
  7  8  1  0  0  0  0
  8 12  1  0  0  0  0
  8 10  1  0  0  0  0
  9 15  1  0  0  0  0
  9 11  1  0  0  0  0
 10 11  2  0  0  0  0
 12  9  2  0  0  0  0
 14 15  2  0  0  0  0
 15 13  1  0  0  0  0
 16 19  1  0  0  0  0
 17 18  1  0  0  0  0
 18 21  2  0  0  0  0
 19 20  2  0  0  0  0
 20 21  1  0  0  0  0
 22 17  2  0  0  0  0
 22 19  1  0  0  0  0
 24 23  1  1  0  0  0
 24 22  1  0  0  0  0
 24 25  1  0  0  0  0
 26 25  1  0  0  0  0
 26 28  1  0  0  0  0
 28 27  1  0  0  0  0
 29 30  1  0  0  0  0
 29  1  1  0  0  0  0
 31 32  1  0  0  0  0
 32 30  1  0  0  0  0
 33 34  1  0  0  0  0
 34 35  1  0  0  0  0
 35 36  1  0  0  0  0
 36 37  1  0  0  0  0
 37 38  1  0  0  0  0
 38 39  1  0  0  0  0
 39 40  1  0  0  0  0
 41 51  1  6  0  0  0
 41 45  1  0  0  0  0
 43 40  1  1  0  0  0
 43 41  1  0  0  0  0
 43 45  1  0  0  0  0
 45 42  1  0  0  0  0
 45 44  1  1  0  0  0
 46 53  1  6  0  0  0
 46 47  1  0  0  0  0
 47 49  1  0  0  0  0
 50 52  1  0  0  0  0
 50 46  1  0  0  0  0
 51 49  1  1  0  0  0
 52 48  1  6  0  0  0
 52 51  1  0  0  0  0
 53 55  1  0  0  0  0
 54 55  1  0  0  0  0
M  END
>  <MODEL>
8

>  <REMARK>
 VINA RESULT:      -4.1      2.056      9.702
  Name = 
  29 active torsions:
  status: ('A' for Active; 'I' for Inactive)
    1  A    between atoms: C_1  and  C_46
    2  A    between atoms: C_2  and  C_44
    3  A    between atoms: C_2  and  C_49
    4  A    between atoms: C_3  and  C_25
    5  A    between atoms: C_5  and  O_40
    6  A    between atoms: C_5  and  C_45
    7  A    between atoms: C_8  and  O_20
    8  A    between atoms: C_8  and  C_22
    9  A    between atoms: C_12  and  C_42
   10  A    between atoms: N_13  and  C_52
   11  A    between atoms: C_16  and  C_36
   12  A    between atoms: O_20  and  C_42
   13  A    between atoms: C_22  and  O_43
   14  A    between atoms: C_25  and  C_38
   15  A    between atoms: C_26  and  C_45
   16  A    between atoms: C_27  and  C_31
   17  A    between atoms: C_27  and  C_49
   18  A    between atoms: C_27  and  O_54
   19  A    between atoms: C_28  and  C_33
   20  A    between atoms: C_28  and  C_44
   21  A    between atoms: C_31  and  C_35
   22  A    between atoms: C_32  and  C_47
   23  A    between atoms: C_33  and  C_52
   24  A    between atoms: C_35  and  C_51
   25  A    between atoms: C_36  and  C_52
   26  A    between atoms: C_37  and  O_40
   27  A    between atoms: C_41  and  C_55
   28  A    between atoms: O_43  and  C_51
   29  A    between atoms: O_54  and  C_55
                            x       y       z     vdW  Elec       q    Type
                         _______ _______ _______ _____ _____    ______ ____

>  <TORSDO>
F 29

$$$$
=
 OpenBabel11052414553D

 55 58  0  0  1  0  0  0  0  0999 V2000
  189.7220  174.6870  136.1230 C   0  0  1  0  0  3  0  0  0  0  0  0
  189.3070  176.1370  136.3320 C   0  0  0  0  0  2  0  0  0  0  0  0
  187.7940  176.2490  136.4220 C   0  0  0  0  0  2  0  0  0  0  0  0
  187.1670  174.9470  136.9050 C   0  0  0  0  0  2  0  0  0  0  0  0
  185.6450  175.0090  136.9900 C   0  0  0  0  0  2  0  0  0  0  0  0
  185.1380  176.4340  136.8220 C   0  0  0  0  0  2  0  0  0  0  0  0
  183.6390  176.4570  136.5570 C   0  0  1  0  0  3  0  0  0  0  0  0
  183.1250  175.1390  136.1880 N   0  0  0  0  0  0  0  0  0  0  0  0
  182.0840  173.2020  136.1870 C   0  0  0  0  0  0  0  0  0  0  0  0
  183.3050  174.5740  134.9780 C   0  0  0  0  0  3  0  0  0  0  0  0
  182.6650  173.3480  134.9390 C   0  0  0  0  0  3  0  0  0  0  0  0
  182.3730  174.3200  136.9470 C   0  0  0  0  0  3  0  0  0  0  0  0
  180.8290  172.0060  137.7950 O   0  0  0  0  0  1  0  0  0  0  0  0
  181.0500  170.9890  135.7590 O   0  0  0  0  0  0  0  0  0  0  0  0
  181.2930  172.0460  136.6250 C   0  0  0  0  0  0  0  0  0  0  0  0
  182.9120  177.0140  137.7780 C   0  0  0  0  0  2  0  0  0  0  0  0
  179.8180  179.2530  137.9400 C   0  0  0  0  0  3  0  0  0  0  0  0
  179.7470  179.7020  136.6210 C   0  0  0  0  0  3  0  0  0  0  0  0
  181.7920  177.9400  137.3970 C   0  0  0  0  0  0  0  0  0  0  0  0
  181.7230  178.4170  136.0800 C   0  0  0  0  0  3  0  0  0  0  0  0
  180.7030  179.2890  135.6920 C   0  0  0  0  0  3  0  0  0  0  0  0
  180.8370  178.3820  138.3460 C   0  0  0  0  0  0  0  0  0  0  0  0
  179.6090  177.2250  140.1850 C   0  0  0  0  0  1  0  0  0  0  0  0
  180.8640  177.9860  139.7950 C   0  0  2  0  0  3  0  0  0  0  0  0
  181.1000  179.1820  140.7040 C   0  0  0  0  0  2  0  0  0  0  0  0
  181.3200  178.7520  142.0130 O   0  0  0  0  0  0  0  0  0  0  0  0
  179.9120  177.9140  143.5920 O   0  0  0  0  0  1  0  0  0  0  0  0
  180.0870  178.9170  142.6400 C   0  0  0  0  0  2  0  0  0  0  0  0
  190.1890  174.4790  134.8190 O   0  0  0  0  0  0  0  0  0  0  0  0
  191.4350  173.8640  134.9710 C   0  0  0  0  0  2  0  0  0  0  0  0
  192.4250  171.7040  135.1060 O   0  0  0  0  0  1  0  0  0  0  0  0
  191.3290  172.3990  134.5940 C   0  0  0  0  0  2  0  0  0  0  0  0
  190.7610  174.2750  137.1700 C   0  0  0  0  0  2  0  0  0  0  0  0
  191.7130  175.3930  137.5960 C   0  0  0  0  0  2  0  0  0  0  0  0
  190.9940  176.5420  138.2960 C   0  0  0  0  0  2  0  0  0  0  0  0
  190.5510  176.1440  139.5610 O   0  0  0  0  0  0  0  0  0  0  0  0
  190.0520  177.3060  140.1550 C   0  0  0  0  0  2  0  0  0  0  0  0
  189.6170  178.2880  139.0820 C   0  0  0  0  0  2  0  0  0  0  0  0
  188.6100  179.1260  139.5730 O   0  0  0  0  0  0  0  0  0  0  0  0
  187.6760  178.2750  140.1720 C   0  0  0  0  0  2  0  0  0  0  0  0
  186.3830  177.8500  142.2640 C   0  0  2  0  0  3  0  0  0  0  0  0
  185.0620  179.9480  142.2680 O   0  0  0  0  0  1  0  0  0  0  0  0
  187.1280  178.9040  141.4470 C   0  0  2  0  0  3  0  0  0  0  0  0
  184.7840  178.4110  140.3260 C   0  0  0  0  0  1  0  0  0  0  0  0
  185.6070  178.9160  141.5010 C   0  0  1  0  0  0  0  0  0  0  0  0
  186.1750  177.8290  146.5650 C   0  0  1  0  0  3  0  0  0  0  0  0
  185.4560  178.7970  145.6090 C   0  0  0  0  0  2  0  0  0  0  0  0
  188.8370  177.7110  144.5780 C   0  0  0  0  0  1  0  0  0  0  0  0
  185.2560  178.2060  144.3510 O   0  0  0  0  0  0  0  0  0  0  0  0
  186.8970  176.7040  145.8060 C   0  0  0  0  0  2  0  0  0  0  0  0
  186.5240  178.1690  143.7480 C   0  0  1  0  0  3  0  0  0  0  0  0
  187.4390  177.1410  144.4350 C   0  0  1  0  0  3  0  0  0  0  0  0
  187.1580  178.5860  147.4450 C   0  0  0  0  0  2  0  0  0  0  0  0
  189.4490  178.0140  148.2040 C   0  0  0  0  0  1  0  0  0  0  0  0
  187.9880  177.6180  148.2700 C   0  0  0  0  0  2  0  0  0  0  0  0
  1  2  1  6  0  0  0
  1 33  1  0  0  0  0
  2  3  1  0  0  0  0
  3  4  1  0  0  0  0
  4  5  1  0  0  0  0
  6  5  1  0  0  0  0
  7  6  1  1  0  0  0
  7 16  1  0  0  0  0
  8  7  1  0  0  0  0
  8 12  1  0  0  0  0
  9 15  1  0  0  0  0
  9 12  2  0  0  0  0
 10  8  1  0  0  0  0
 11 10  2  0  0  0  0
 11  9  1  0  0  0  0
 14 15  2  0  0  0  0
 15 13  1  0  0  0  0
 17 22  1  0  0  0  0
 18 17  2  0  0  0  0
 19 16  1  0  0  0  0
 19 22  2  0  0  0  0
 20 19  1  0  0  0  0
 21 20  2  0  0  0  0
 21 18  1  0  0  0  0
 22 24  1  0  0  0  0
 24 23  1  1  0  0  0
 24 25  1  0  0  0  0
 25 26  1  0  0  0  0
 26 28  1  0  0  0  0
 28 27  1  0  0  0  0
 29 30  1  0  0  0  0
 29  1  1  0  0  0  0
 32 30  1  0  0  0  0
 32 31  1  0  0  0  0
 33 34  1  0  0  0  0
 34 35  1  0  0  0  0
 35 36  1  0  0  0  0
 36 37  1  0  0  0  0
 38 39  1  0  0  0  0
 38 37  1  0  0  0  0
 39 40  1  0  0  0  0
 41 51  1  1  0  0  0
 43 40  1  6  0  0  0
 43 45  1  0  0  0  0
 43 41  1  0  0  0  0
 45 44  1  6  0  0  0
 45 41  1  0  0  0  0
 45 42  1  0  0  0  0
 46 53  1  6  0  0  0
 47 46  1  0  0  0  0
 49 47  1  0  0  0  0
 50 46  1  0  0  0  0
 51 49  1  1  0  0  0
 51 52  1  0  0  0  0
 52 48  1  1  0  0  0
 52 50  1  0  0  0  0
 53 55  1  0  0  0  0
 54 55  1  0  0  0  0
M  END
>  <MODEL>
9

>  <REMARK>
 VINA RESULT:      -4.0      2.575     10.587
  Name = 
  29 active torsions:
  status: ('A' for Active; 'I' for Inactive)
    1  A    between atoms: C_1  and  C_46
    2  A    between atoms: C_2  and  C_44
    3  A    between atoms: C_2  and  C_49
    4  A    between atoms: C_3  and  C_25
    5  A    between atoms: C_5  and  O_40
    6  A    between atoms: C_5  and  C_45
    7  A    between atoms: C_8  and  O_20
    8  A    between atoms: C_8  and  C_22
    9  A    between atoms: C_12  and  C_42
   10  A    between atoms: N_13  and  C_52
   11  A    between atoms: C_16  and  C_36
   12  A    between atoms: O_20  and  C_42
   13  A    between atoms: C_22  and  O_43
   14  A    between atoms: C_25  and  C_38
   15  A    between atoms: C_26  and  C_45
   16  A    between atoms: C_27  and  C_31
   17  A    between atoms: C_27  and  C_49
   18  A    between atoms: C_27  and  O_54
   19  A    between atoms: C_28  and  C_33
   20  A    between atoms: C_28  and  C_44
   21  A    between atoms: C_31  and  C_35
   22  A    between atoms: C_32  and  C_47
   23  A    between atoms: C_33  and  C_52
   24  A    between atoms: C_35  and  C_51
   25  A    between atoms: C_36  and  C_52
   26  A    between atoms: C_37  and  O_40
   27  A    between atoms: C_41  and  C_55
   28  A    between atoms: O_43  and  C_51
   29  A    between atoms: O_54  and  C_55
                            x       y       z     vdW  Elec       q    Type
                         _______ _______ _______ _____ _____    ______ ____

>  <TORSDO>
F 29

$$$$
