=
 OpenBabel11052417023D

 32 36  0  0  1  0  0  0  0  0999 V2000
  181.5760  178.7060  142.1950 C   0  0  0  0  0  0  0  0  0  0  0  0
  186.3910  178.1450  143.7100 C   0  0  2  0  0  3  0  0  0  0  0  0
  187.9310  177.4040  145.5680 C   0  0  0  0  0  0  0  0  0  0  0  0
  189.2940  177.0800  146.0280 C   0  0  0  0  0  0  0  0  0  0  0  0
  183.9920  178.8520  143.6140 C   0  0  0  0  0  0  0  0  0  0  0  0
  185.2000  178.2690  141.5850 O   0  0  0  0  0  0  0  0  0  0  0  0
  191.8940  176.5460  146.9350 C   0  0  0  0  0  3  0  0  0  0  0  0
  182.7880  178.4570  141.5450 C   0  0  0  0  0  3  0  0  0  0  0  0
  186.4660  178.4810  142.2110 C   0  0  2  0  0  3  0  0  0  0  0  0
  187.5400  177.6480  141.4960 C   0  0  2  0  0  3  0  0  0  0  0  0
  188.9280  178.4650  143.4740 C   0  0  2  0  0  3  0  0  0  0  0  0
  190.7930  176.0210  147.6180 C   0  0  0  0  0  3  0  0  0  0  0  0
  181.5790  179.0380  143.5610 C   0  0  0  0  0  3  0  0  0  0  0  0
  183.9950  178.5360  142.2450 C   0  0  0  0  0  0  0  0  0  0  0  0
  189.4970  176.2890  147.1680 C   0  0  0  0  0  3  0  0  0  0  0  0
  182.7840  179.1140  144.2650 C   0  0  0  0  0  3  0  0  0  0  0  0
  188.8350  177.4650  142.3090 C   0  0  1  0  0  3  0  0  0  0  0  0
  190.2160  178.3800  144.1590 N   0  0  0  0  0  2  0  0  0  0  0  0
  185.2840  178.9720  144.3670 C   0  0  0  0  0  2  0  0  0  0  0  0
  186.9360  176.9140  146.1690 O   0  0  0  0  0  0  0  0  0  0  0  0
  191.6990  177.3320  145.7960 C   0  0  0  0  0  3  0  0  0  0  0  0
  187.7230  178.3940  144.4430 C   0  0  1  0  0  3  0  0  0  0  0  0
  190.4040  177.5920  145.3360 C   0  0  0  0  0  0  0  0  0  0  0  0
  188.9040  177.4780  139.7600 C   0  0  0  0  0  1  0  0  0  0  0  0
  187.8400  178.2290  140.2620 O   0  0  0  0  0  0  0  0  0  0  0  0
  190.2380  175.5340  142.4880 O   0  0  0  0  0  1  0  0  0  0  0  0
  188.9610  176.0190  142.7750 C   0  0  0  0  0  2  0  0  0  0  0  0
  180.3870  178.6200  141.4660 O   0  0  0  0  0  0  0  0  0  0  0  0
  180.2160  179.2460  140.2000 C   0  0  0  0  0  2  0  0  0  0  0  0
  180.0040  180.7050  140.3900 C   0  0  0  0  0  0  0  0  0  0  0  0
  180.3030  181.5090  139.4700 O   0  0  0  0  0  0  0  0  0  0  0  0
  179.5150  181.1820  141.5980 O   0  0  0  0  0  1  0  0  0  0  0  0
  1 13  1  0  0  0  0
  2 19  1  1  0  0  0
  2 22  1  0  0  0  0
  3  4  1  0  0  0  0
  3 20  2  0  0  0  0
  4 15  1  0  0  0  0
  5 16  1  0  0  0  0
  5 19  1  0  0  0  0
  6 14  1  0  0  0  0
  7 12  1  0  0  0  0
  8  1  2  0  0  0  0
  8 14  1  0  0  0  0
  9  6  1  6  0  0  0
  9  2  1  0  0  0  0
 10 25  1  6  0  0  0
 10  9  1  0  0  0  0
 10 17  1  0  0  0  0
 11 18  1  1  0  0  0
 11 22  1  0  0  0  0
 13 16  2  0  0  0  0
 14  5  2  0  0  0  0
 15 12  2  0  0  0  0
 17 27  1  1  0  0  0
 17 11  1  0  0  0  0
 18 23  1  0  0  0  0
 21  7  2  0  0  0  0
 22  3  1  1  0  0  0
 23 21  1  0  0  0  0
 23  4  2  0  0  0  0
 24 25  1  0  0  0  0
 26 27  1  0  0  0  0
 28  1  1  0  0  0  0
 29 30  1  0  0  0  0
 29 28  1  0  0  0  0
 30 32  1  0  0  0  0
 31 30  2  0  0  0  0
M  END
>  <MODEL>
1

>  <REMARK>
 VINA RESULT:      -8.4      0.000      0.000
  Name = 
  5 active torsions:
  status: ('A' for Active; 'I' for Inactive)
    1  A    between atoms: C_1  and  C_10
    2  A    between atoms: C_2  and  O_24
    3  A    between atoms: C_10  and  O_24
    4  A    between atoms: O_13  and  C_15
    5  A    between atoms: C_25  and  C_26
                            x       y       z     vdW  Elec       q    Type
                         _______ _______ _______ _____ _____    ______ ____

>  <TORSDO>
F 5

$$$$
=
 OpenBabel11052417023D

 32 36  0  0  1  0  0  0  0  0999 V2000
  181.5500  178.7140  141.8460 C   0  0  0  0  0  0  0  0  0  0  0  0
  186.3140  178.1980  143.5300 C   0  0  2  0  0  3  0  0  0  0  0  0
  187.7940  177.4830  145.4460 C   0  0  0  0  0  0  0  0  0  0  0  0
  189.1430  177.1710  145.9550 C   0  0  0  0  0  0  0  0  0  0  0  0
  183.9160  178.8880  143.3450 C   0  0  0  0  0  0  0  0  0  0  0  0
  185.1960  178.2960  141.3640 O   0  0  0  0  0  0  0  0  0  0  0  0
  191.7130  176.6630  146.9550 C   0  0  0  0  0  3  0  0  0  0  0  0
  182.7860  178.4670  141.2400 C   0  0  0  0  0  3  0  0  0  0  0  0
  186.4390  178.5210  142.0310 C   0  0  2  0  0  3  0  0  0  0  0  0
  187.5410  177.6890  141.3610 C   0  0  2  0  0  3  0  0  0  0  0  0
  188.8560  178.5320  143.3770 C   0  0  2  0  0  3  0  0  0  0  0  0
  190.5930  176.1360  147.6050 C   0  0  0  0  0  3  0  0  0  0  0  0
  181.5050  179.0580  143.2080 C   0  0  0  0  0  3  0  0  0  0  0  0
  183.9680  178.5600  141.9800 C   0  0  0  0  0  0  0  0  0  0  0  0
  189.3110  176.3920  147.1090 C   0  0  0  0  0  3  0  0  0  0  0  0
  182.6840  179.1470  143.9530 C   0  0  0  0  0  3  0  0  0  0  0  0
  188.8090  177.5210  142.2190 C   0  0  1  0  0  3  0  0  0  0  0  0
  190.1200  178.4620  144.1080 N   0  0  0  0  0  2  0  0  0  0  0  0
  185.1800  179.0230  144.1410 C   0  0  0  0  0  2  0  0  0  0  0  0
  186.7820  176.9910  146.0170 O   0  0  0  0  0  0  0  0  0  0  0  0
  191.5520  177.4380  145.8030 C   0  0  0  0  0  3  0  0  0  0  0  0
  187.6190  178.4620  144.3060 C   0  0  1  0  0  3  0  0  0  0  0  0
  190.2720  177.6850  145.2970 C   0  0  0  0  0  0  0  0  0  0  0  0
  188.8690  177.4280  139.6080 C   0  0  0  0  0  1  0  0  0  0  0  0
  187.8800  178.2620  140.1330 O   0  0  0  0  0  0  0  0  0  0  0  0
  190.2060  175.5900  142.4310 O   0  0  0  0  0  1  0  0  0  0  0  0
  188.9280  176.0810  142.7020 C   0  0  0  0  0  2  0  0  0  0  0  0
  180.3880  178.6140  141.0770 O   0  0  0  0  0  0  0  0  0  0  0  0
  179.2990  177.7720  141.4370 C   0  0  0  0  0  2  0  0  0  0  0  0
  179.5010  176.4210  140.8520 C   0  0  0  0  0  0  0  0  0  0  0  0
  180.1140  176.2930  139.7610 O   0  0  0  0  0  0  0  0  0  0  0  0
  178.9760  175.3050  141.4880 O   0  0  0  0  0  1  0  0  0  0  0  0
  1 13  1  0  0  0  0
  2 19  1  1  0  0  0
  2 22  1  0  0  0  0
  3  4  1  0  0  0  0
  3 20  2  0  0  0  0
  4 15  1  0  0  0  0
  5 16  1  0  0  0  0
  5 19  1  0  0  0  0
  6 14  1  0  0  0  0
  7 12  1  0  0  0  0
  8  1  2  0  0  0  0
  8 14  1  0  0  0  0
  9  6  1  6  0  0  0
  9  2  1  0  0  0  0
 10 25  1  6  0  0  0
 10  9  1  0  0  0  0
 10 17  1  0  0  0  0
 11 18  1  1  0  0  0
 11 22  1  0  0  0  0
 13 16  2  0  0  0  0
 14  5  2  0  0  0  0
 15 12  2  0  0  0  0
 17 27  1  1  0  0  0
 17 11  1  0  0  0  0
 18 23  1  0  0  0  0
 21  7  2  0  0  0  0
 22  3  1  1  0  0  0
 23 21  1  0  0  0  0
 23  4  2  0  0  0  0
 24 25  1  0  0  0  0
 26 27  1  0  0  0  0
 28 29  1  0  0  0  0
 28  1  1  0  0  0  0
 30 29  1  0  0  0  0
 30 32  1  0  0  0  0
 31 30  2  0  0  0  0
M  END
>  <MODEL>
2

>  <REMARK>
 VINA RESULT:      -8.3      1.065      1.649
  Name = 
  5 active torsions:
  status: ('A' for Active; 'I' for Inactive)
    1  A    between atoms: C_1  and  C_10
    2  A    between atoms: C_2  and  O_24
    3  A    between atoms: C_10  and  O_24
    4  A    between atoms: O_13  and  C_15
    5  A    between atoms: C_25  and  C_26
                            x       y       z     vdW  Elec       q    Type
                         _______ _______ _______ _____ _____    ______ ____

>  <TORSDO>
F 5

$$$$
=
 OpenBabel11052417023D

 32 36  0  0  1  0  0  0  0  0999 V2000
  187.5700  177.5410  144.5180 C   0  0  0  0  0  0  0  0  0  0  0  0
  184.1860  178.5130  140.8580 C   0  0  2  0  0  3  0  0  0  0  0  0
  183.5570  178.1660  138.4380 C   0  0  0  0  0  0  0  0  0  0  0  0
  182.5570  178.2830  137.3600 C   0  0  0  0  0  0  0  0  0  0  0  0
  186.3300  178.3650  142.1390 C   0  0  0  0  0  0  0  0  0  0  0  0
  184.1910  178.4290  143.2960 O   0  0  0  0  0  0  0  0  0  0  0  0
  180.6920  178.5840  135.2880 C   0  0  0  0  0  3  0  0  0  0  0  0
  186.1930  177.7850  144.4920 C   0  0  0  0  0  3  0  0  0  0  0  0
  183.5330  178.9990  142.1640 C   0  0  2  0  0  3  0  0  0  0  0  0
  182.0370  178.6560  142.2110 C   0  0  2  0  0  3  0  0  0  0  0  0
  182.1260  179.7010  139.8870 C   0  0  2  0  0  3  0  0  0  0  0  0
  181.7260  177.6510  135.1680 C   0  0  0  0  0  3  0  0  0  0  0  0
  188.3260  177.7190  143.3470 C   0  0  0  0  0  3  0  0  0  0  0  0
  185.5720  178.2030  143.3120 C   0  0  0  0  0  0  0  0  0  0  0  0
  182.6570  177.5020  136.2000 C   0  0  0  0  0  3  0  0  0  0  0  0
  187.7080  178.1330  142.1640 C   0  0  0  0  0  3  0  0  0  0  0  0
  181.3070  178.8480  140.8700 C   0  0  1  0  0  3  0  0  0  0  0  0
  181.3760  179.9960  138.6670 N   0  0  0  0  0  2  0  0  0  0  0  0
  185.6790  178.8440  140.8760 C   0  0  0  0  0  2  0  0  0  0  0  0
  184.4790  177.3090  138.3430 O   0  0  0  0  0  0  0  0  0  0  0  0
  180.5840  179.3630  136.4430 C   0  0  0  0  0  3  0  0  0  0  0  0
  183.5370  179.1300  139.6030 C   0  0  1  0  0  3  0  0  0  0  0  0
  181.5070  179.2080  137.4820 C   0  0  0  0  0  0  0  0  0  0  0  0
  180.4920  178.5570  143.7950 C   0  0  0  0  0  1  0  0  0  0  0  0
  181.4120  179.4220  143.1980 O   0  0  0  0  0  0  0  0  0  0  0  0
  179.5990  177.1950  140.5940 O   0  0  0  0  0  1  0  0  0  0  0  0
  180.9250  177.4950  140.2820 C   0  0  0  0  0  2  0  0  0  0  0  0
  188.1600  177.1250  145.7140 O   0  0  0  0  0  0  0  0  0  0  0  0
  187.6840  177.5390  146.9890 C   0  0  0  0  0  2  0  0  0  0  0  0
  188.8260  177.6510  147.9350 C   0  0  0  0  0  0  0  0  0  0  0  0
  188.6790  178.2530  149.0300 O   0  0  0  0  0  1  0  0  0  0  0  0
  190.0650  177.1280  147.5900 O   0  0  0  0  0  0  0  0  0  0  0  0
  1 28  1  0  0  0  0
  2 19  1  1  0  0  0
  2  9  1  0  0  0  0
  4 23  1  0  0  0  0
  4  3  1  0  0  0  0
  5 16  2  0  0  0  0
  5 14  1  0  0  0  0
  6 14  1  0  0  0  0
  7 21  1  0  0  0  0
  8  1  1  0  0  0  0
  9 10  1  0  0  0  0
  9  6  1  1  0  0  0
 10 25  1  1  0  0  0
 11 18  1  6  0  0  0
 11 17  1  0  0  0  0
 12  7  2  0  0  0  0
 12 15  1  0  0  0  0
 13  1  2  0  0  0  0
 14  8  2  0  0  0  0
 15  4  2  0  0  0  0
 16 13  1  0  0  0  0
 17 27  1  6  0  0  0
 17 10  1  0  0  0  0
 19  5  1  0  0  0  0
 20  3  2  0  0  0  0
 21 23  2  0  0  0  0
 22  3  1  6  0  0  0
 22 11  1  0  0  0  0
 22  2  1  0  0  0  0
 23 18  1  0  0  0  0
 25 24  1  0  0  0  0
 27 26  1  0  0  0  0
 28 29  1  0  0  0  0
 29 30  1  0  0  0  0
 30 31  1  0  0  0  0
 32 30  2  0  0  0  0
M  END
>  <MODEL>
3

>  <REMARK>
 VINA RESULT:      -7.6      3.159      9.330
  Name = 
  5 active torsions:
  status: ('A' for Active; 'I' for Inactive)
    1  A    between atoms: C_1  and  C_10
    2  A    between atoms: C_2  and  O_24
    3  A    between atoms: C_10  and  O_24
    4  A    between atoms: O_13  and  C_15
    5  A    between atoms: C_25  and  C_26
                            x       y       z     vdW  Elec       q    Type
                         _______ _______ _______ _____ _____    ______ ____

>  <TORSDO>
F 5

$$$$
=
 OpenBabel11052417023D

 32 36  0  0  1  0  0  0  0  0999 V2000
  188.1100  177.2950  145.8290 C   0  0  0  0  0  0  0  0  0  0  0  0
  188.8520  177.5190  140.8100 C   0  0  2  0  0  3  0  0  0  0  0  0
  190.1190  176.5880  138.8340 C   0  0  0  0  0  0  0  0  0  0  0  0
  190.2920  176.4920  137.3730 C   0  0  0  0  0  0  0  0  0  0  0  0
  189.2540  177.5490  143.2790 C   0  0  0  0  0  0  0  0  0  0  0  0
  187.0640  178.0880  142.3680 O   0  0  0  0  0  0  0  0  0  0  0  0
  190.6820  176.3750  134.5980 C   0  0  0  0  0  3  0  0  0  0  0  0
  187.3110  177.6310  144.7310 C   0  0  0  0  0  3  0  0  0  0  0  0
  187.6100  178.3850  141.0820 C   0  0  2  0  0  3  0  0  0  0  0  0
  186.5320  178.1860  140.0060 C   0  0  2  0  0  3  0  0  0  0  0  0
  188.5430  178.5630  138.4830 C   0  0  2  0  0  3  0  0  0  0  0  0
  191.1920  175.3650  135.4190 C   0  0  0  0  0  3  0  0  0  0  0  0
  189.4880  177.0950  145.6450 C   0  0  0  0  0  3  0  0  0  0  0  0
  187.8770  177.7660  143.4600 C   0  0  0  0  0  0  0  0  0  0  0  0
  191.0000  175.4240  136.8030 C   0  0  0  0  0  3  0  0  0  0  0  0
  190.0580  177.2250  144.3750 C   0  0  0  0  0  3  0  0  0  0  0  0
  187.0890  178.0690  138.5760 C   0  0  1  0  0  3  0  0  0  0  0  0
  189.0240  178.5790  137.1030 N   0  0  0  0  0  2  0  0  0  0  0  0
  189.8770  177.7240  141.9260 C   0  0  0  0  0  2  0  0  0  0  0  0
  190.5590  175.6670  139.5770 O   0  0  0  0  0  0  0  0  0  0  0  0
  189.9720  177.4400  135.1590 C   0  0  0  0  0  3  0  0  0  0  0  0
  189.5050  177.8270  139.4480 C   0  0  1  0  0  3  0  0  0  0  0  0
  189.7680  177.4960  136.5420 C   0  0  0  0  0  0  0  0  0  0  0  0
  184.3630  178.6120  140.1250 C   0  0  0  0  0  1  0  0  0  0  0  0
  185.6110  179.2340  140.0670 O   0  0  0  0  0  0  0  0  0  0  0  0
  186.5030  176.6560  136.7360 O   0  0  0  0  0  1  0  0  0  0  0  0
  186.9280  176.6430  138.0650 C   0  0  0  0  0  2  0  0  0  0  0  0
  187.5120  177.1690  147.0860 O   0  0  0  0  0  0  0  0  0  0  0  0
  187.3750  178.2640  147.9840 C   0  0  0  0  0  2  0  0  0  0  0  0
  186.1270  179.0100  147.6710 C   0  0  0  0  0  0  0  0  0  0  0  0
  186.1190  180.2670  147.7150 O   0  0  0  0  0  1  0  0  0  0  0  0
  184.9620  178.3170  147.3710 O   0  0  0  0  0  0  0  0  0  0  0  0
  1 28  1  0  0  0  0
  2  9  1  0  0  0  0
  2 19  1  1  0  0  0
  3 20  2  0  0  0  0
  4  3  1  0  0  0  0
  5 14  2  0  0  0  0
  5 16  1  0  0  0  0
  6 14  1  0  0  0  0
  7 21  2  0  0  0  0
  7 12  1  0  0  0  0
  8  1  2  0  0  0  0
  9  6  1  1  0  0  0
 10 25  1  6  0  0  0
 10  9  1  0  0  0  0
 11 18  1  6  0  0  0
 11 17  1  0  0  0  0
 11 22  1  0  0  0  0
 12 15  2  0  0  0  0
 13  1  1  0  0  0  0
 14  8  1  0  0  0  0
 15  4  1  0  0  0  0
 16 13  2  0  0  0  0
 17 27  1  1  0  0  0
 17 10  1  0  0  0  0
 19  5  1  0  0  0  0
 21 23  1  0  0  0  0
 22  3  1  6  0  0  0
 22  2  1  0  0  0  0
 23 18  1  0  0  0  0
 23  4  2  0  0  0  0
 25 24  1  0  0  0  0
 26 27  1  0  0  0  0
 28 29  1  0  0  0  0
 30 31  1  0  0  0  0
 30 29  1  0  0  0  0
 32 30  2  0  0  0  0
M  END
>  <MODEL>
4

>  <REMARK>
 VINA RESULT:      -7.6      3.220      7.499
  Name = 
  5 active torsions:
  status: ('A' for Active; 'I' for Inactive)
    1  A    between atoms: C_1  and  C_10
    2  A    between atoms: C_2  and  O_24
    3  A    between atoms: C_10  and  O_24
    4  A    between atoms: O_13  and  C_15
    5  A    between atoms: C_25  and  C_26
                            x       y       z     vdW  Elec       q    Type
                         _______ _______ _______ _____ _____    ______ ____

>  <TORSDO>
F 5

$$$$
=
 OpenBabel11052417023D

 32 36  0  0  1  0  0  0  0  0999 V2000
  185.4890  177.5600  136.9040 C   0  0  0  0  0  0  0  0  0  0  0  0
  187.9380  177.7910  141.3460 C   0  0  2  0  0  3  0  0  0  0  0  0
  187.7380  177.6650  143.8600 C   0  0  0  0  0  0  0  0  0  0  0  0
  188.3920  177.5790  145.1790 C   0  0  0  0  0  0  0  0  0  0  0  0
  186.3240  178.2530  139.4910 C   0  0  0  0  0  0  0  0  0  0  0  0
  188.5060  177.2830  139.0280 O   0  0  0  0  0  0  0  0  0  0  0  0
  189.6300  177.5030  147.6940 C   0  0  0  0  0  3  0  0  0  0  0  0
  186.7860  177.2560  137.3270 C   0  0  0  0  0  3  0  0  0  0  0  0
  189.0370  177.7470  140.2710 C   0  0  2  0  0  3  0  0  0  0  0  0
  190.2110  176.8530  140.6950 C   0  0  2  0  0  3  0  0  0  0  0  0
  189.9930  178.2480  142.8190 C   0  0  2  0  0  3  0  0  0  0  0  0
  188.3060  177.0770  147.5530 C   0  0  0  0  0  3  0  0  0  0  0  0
  184.6120  178.2210  137.7800 C   0  0  0  0  0  3  0  0  0  0  0  0
  187.2100  177.6060  138.6130 C   0  0  0  0  0  0  0  0  0  0  0  0
  187.6880  177.1170  146.3000 C   0  0  0  0  0  3  0  0  0  0  0  0
  185.0300  178.5690  139.0680 C   0  0  0  0  0  3  0  0  0  0  0  0
  190.5950  176.9850  142.1800 C   0  0  1  0  0  3  0  0  0  0  0  0
  190.4670  178.4430  144.1870 N   0  0  0  0  0  2  0  0  0  0  0  0
  186.7780  178.6620  140.8600 C   0  0  0  0  0  2  0  0  0  0  0  0
  186.5500  177.2600  143.7240 O   0  0  0  0  0  0  0  0  0  0  0  0
  190.3390  177.9610  146.5800 C   0  0  0  0  0  3  0  0  0  0  0  0
  188.4510  178.3230  142.6990 C   0  0  1  0  0  3  0  0  0  0  0  0
  189.7270  177.9910  145.3230 C   0  0  0  0  0  0  0  0  0  0  0  0
  192.3260  177.5030  140.7960 C   0  0  0  0  0  1  0  0  0  0  0  0
  191.3240  177.1310  139.8980 O   0  0  0  0  0  0  0  0  0  0  0  0
  191.3260  175.2060  143.6040 O   0  0  0  0  0  1  0  0  0  0  0  0
  190.2140  175.7170  142.9350 C   0  0  0  0  0  2  0  0  0  0  0  0
  185.0980  177.1980  135.6120 O   0  0  0  0  0  0  0  0  0  0  0  0
  183.8850  176.5050  135.3430 C   0  0  0  0  0  2  0  0  0  0  0  0
  184.0180  175.0860  135.7670 C   0  0  0  0  0  0  0  0  0  0  0  0
  184.9890  174.3970  135.3620 O   0  0  0  0  0  0  0  0  0  0  0  0
  183.0480  174.5110  136.5770 O   0  0  0  0  0  1  0  0  0  0  0  0
  1  8  2  0  0  0  0
  1 13  1  0  0  0  0
  2 19  1  6  0  0  0
  2 22  1  0  0  0  0
  3  4  1  0  0  0  0
  4 23  2  0  0  0  0
  4 15  1  0  0  0  0
  5 19  1  0  0  0  0
  8 14  1  0  0  0  0
  9  6  1  6  0  0  0
  9 10  1  0  0  0  0
  9  2  1  0  0  0  0
 10 25  1  6  0  0  0
 10 17  1  0  0  0  0
 11 18  1  1  0  0  0
 12  7  1  0  0  0  0
 13 16  2  0  0  0  0
 14  6  1  0  0  0  0
 14  5  2  0  0  0  0
 15 12  2  0  0  0  0
 16  5  1  0  0  0  0
 17 11  1  0  0  0  0
 17 27  1  1  0  0  0
 18 23  1  0  0  0  0
 20  3  2  0  0  0  0
 21  7  2  0  0  0  0
 22 11  1  0  0  0  0
 22  3  1  1  0  0  0
 23 21  1  0  0  0  0
 25 24  1  0  0  0  0
 27 26  1  0  0  0  0
 28  1  1  0  0  0  0
 29 28  1  0  0  0  0
 29 30  1  0  0  0  0
 30 32  1  0  0  0  0
 31 30  2  0  0  0  0
M  END
>  <MODEL>
5

>  <REMARK>
 VINA RESULT:      -7.3      3.517      4.607
  Name = 
  5 active torsions:
  status: ('A' for Active; 'I' for Inactive)
    1  A    between atoms: C_1  and  C_10
    2  A    between atoms: C_2  and  O_24
    3  A    between atoms: C_10  and  O_24
    4  A    between atoms: O_13  and  C_15
    5  A    between atoms: C_25  and  C_26
                            x       y       z     vdW  Elec       q    Type
                         _______ _______ _______ _____ _____    ______ ____

>  <TORSDO>
F 5

$$$$
=
 OpenBabel11052417023D

 32 36  0  0  1  0  0  0  0  0999 V2000
  183.5990  178.5180  138.0570 C   0  0  0  0  0  0  0  0  0  0  0  0
  186.9800  178.2440  141.8370 C   0  0  2  0  0  3  0  0  0  0  0  0
  187.3340  177.8840  144.3100 C   0  0  0  0  0  0  0  0  0  0  0  0
  188.2580  177.6510  145.4360 C   0  0  0  0  0  0  0  0  0  0  0  0
  185.0210  178.9320  140.4400 C   0  0  0  0  0  0  0  0  0  0  0  0
  186.9930  177.9420  139.4160 O   0  0  0  0  0  0  0  0  0  0  0  0
  190.0160  177.2940  147.5920 C   0  0  0  0  0  3  0  0  0  0  0  0
  184.9400  178.1330  138.1500 C   0  0  0  0  0  3  0  0  0  0  0  0
  187.8100  178.2680  140.5420 C   0  0  2  0  0  3  0  0  0  0  0  0
  189.0000  177.3000  140.6120 C   0  0  2  0  0  3  0  0  0  0  0  0
  189.3300  178.4910  142.8430 C   0  0  2  0  0  3  0  0  0  0  0  0
  188.6730  176.9260  147.7160 C   0  0  0  0  0  3  0  0  0  0  0  0
  182.9740  179.1190  139.1620 C   0  0  0  0  0  3  0  0  0  0  0  0
  185.6560  178.3450  139.3320 C   0  0  0  0  0  0  0  0  0  0  0  0
  187.7960  177.1060  146.6430 C   0  0  0  0  0  3  0  0  0  0  0  0
  183.6850  179.3280  140.3470 C   0  0  0  0  0  3  0  0  0  0  0  0
  189.7080  177.2760  141.9790 C   0  0  1  0  0  3  0  0  0  0  0  0
  190.1050  178.5390  144.0810 N   0  0  0  0  0  2  0  0  0  0  0  0
  185.7890  179.1940  141.7010 C   0  0  0  0  0  2  0  0  0  0  0  0
  186.1260  177.5320  144.4110 O   0  0  0  0  0  0  0  0  0  0  0  0
  190.4840  177.8350  146.3910 C   0  0  0  0  0  3  0  0  0  0  0  0
  187.8060  178.6270  143.0800 C   0  0  1  0  0  3  0  0  0  0  0  0
  189.6120  178.0040  145.3110 C   0  0  0  0  0  0  0  0  0  0  0  0
  190.5190  176.4010  139.2760 C   0  0  0  0  0  1  0  0  0  0  0  0
  189.9210  177.6170  139.6120 O   0  0  0  0  0  0  0  0  0  0  0  0
  190.6300  175.2490  142.8540 O   0  0  0  0  0  1  0  0  0  0  0  0
  189.4380  175.9550  142.6880 C   0  0  0  0  0  2  0  0  0  0  0  0
  182.9140  178.2930  136.8600 O   0  0  0  0  0  0  0  0  0  0  0  0
  182.0320  177.1920  136.6750 C   0  0  0  0  0  2  0  0  0  0  0  0
  180.6250  177.6710  136.7040 C   0  0  0  0  0  0  0  0  0  0  0  0
  179.6790  176.8420  136.6990 O   0  0  0  0  0  1  0  0  0  0  0  0
  180.3560  179.0330  136.6940 O   0  0  0  0  0  0  0  0  0  0  0  0
  1  8  2  0  0  0  0
  1 13  1  0  0  0  0
  2 19  1  6  0  0  0
  2 22  1  0  0  0  0
  3 20  2  0  0  0  0
  3  4  1  0  0  0  0
  4 15  1  0  0  0  0
  5 19  1  0  0  0  0
  7 12  1  0  0  0  0
  8 14  1  0  0  0  0
  9  6  1  6  0  0  0
  9 10  1  0  0  0  0
  9  2  1  0  0  0  0
 10 25  1  6  0  0  0
 10 17  1  0  0  0  0
 11 22  1  0  0  0  0
 11 18  1  1  0  0  0
 13 16  2  0  0  0  0
 14  6  1  0  0  0  0
 14  5  2  0  0  0  0
 15 12  2  0  0  0  0
 16  5  1  0  0  0  0
 17 27  1  1  0  0  0
 17 11  1  0  0  0  0
 18 23  1  0  0  0  0
 21  7  2  0  0  0  0
 22  3  1  1  0  0  0
 23  4  2  0  0  0  0
 23 21  1  0  0  0  0
 24 25  1  0  0  0  0
 27 26  1  0  0  0  0
 28  1  1  0  0  0  0
 29 30  1  0  0  0  0
 29 28  1  0  0  0  0
 31 30  1  0  0  0  0
 32 30  2  0  0  0  0
M  END
>  <MODEL>
6

>  <REMARK>
 VINA RESULT:      -7.1      2.367      3.022
  Name = 
  5 active torsions:
  status: ('A' for Active; 'I' for Inactive)
    1  A    between atoms: C_1  and  C_10
    2  A    between atoms: C_2  and  O_24
    3  A    between atoms: C_10  and  O_24
    4  A    between atoms: O_13  and  C_15
    5  A    between atoms: C_25  and  C_26
                            x       y       z     vdW  Elec       q    Type
                         _______ _______ _______ _____ _____    ______ ____

>  <TORSDO>
F 5

$$$$
=
 OpenBabel11052417023D

 32 36  0  0  1  0  0  0  0  0999 V2000
  190.5570  177.3120  142.1220 C   0  0  0  0  0  0  0  0  0  0  0  0
  186.1310  178.1150  139.7640 C   0  0  2  0  0  3  0  0  0  0  0  0
  184.6780  177.5420  137.7810 C   0  0  0  0  0  0  0  0  0  0  0  0
  183.3660  177.6110  137.1110 C   0  0  0  0  0  0  0  0  0  0  0  0
  188.5840  177.9500  140.2320 C   0  0  0  0  0  0  0  0  0  0  0  0
  186.9940  178.3100  142.0380 O   0  0  0  0  0  0  0  0  0  0  0  0
  180.9000  177.8140  135.7910 C   0  0  0  0  0  3  0  0  0  0  0  0
  189.2680  177.6560  142.5410 C   0  0  0  0  0  3  0  0  0  0  0  0
  185.9960  178.7940  141.1370 C   0  0  2  0  0  3  0  0  0  0  0  0
  184.6040  178.5740  141.7460 C   0  0  2  0  0  3  0  0  0  0  0  0
  183.8990  179.3370  139.4160 C   0  0  2  0  0  3  0  0  0  0  0  0
  181.7950  176.7970  135.4470 C   0  0  0  0  0  3  0  0  0  0  0  0
  190.8560  177.2970  140.7490 C   0  0  0  0  0  3  0  0  0  0  0  0
  188.2840  177.9820  141.6040 C   0  0  0  0  0  0  0  0  0  0  0  0
  183.0260  176.6970  136.1030 C   0  0  0  0  0  3  0  0  0  0  0  0
  189.8730  177.6190  139.8090 C   0  0  0  0  0  3  0  0  0  0  0  0
  183.4530  178.6670  140.7260 C   0  0  1  0  0  3  0  0  0  0  0  0
  182.7770  179.5470  138.5040 N   0  0  0  0  0  2  0  0  0  0  0  0
  187.5440  178.3310  139.2200 C   0  0  0  0  0  2  0  0  0  0  0  0
  185.4800  176.6110  137.4880 O   0  0  0  0  0  0  0  0  0  0  0  0
  181.2310  178.7260  136.7970 C   0  0  0  0  0  3  0  0  0  0  0  0
  185.1010  178.6310  138.7410 C   0  0  1  0  0  3  0  0  0  0  0  0
  182.4560  178.6210  137.4630 C   0  0  0  0  0  0  0  0  0  0  0  0
  183.8710  178.7390  143.8290 C   0  0  0  0  0  1  0  0  0  0  0  0
  184.3920  179.4940  142.7750 O   0  0  0  0  0  0  0  0  0  0  0  0
  181.4560  177.3550  140.5930 O   0  0  0  0  0  1  0  0  0  0  0  0
  182.8470  177.2880  140.4940 C   0  0  0  0  0  2  0  0  0  0  0  0
  191.5180  176.9920  143.0840 O   0  0  0  0  0  0  0  0  0  0  0  0
  191.6800  177.7380  144.2850 C   0  0  0  0  0  2  0  0  0  0  0  0
  191.2160  176.9260  145.4410 C   0  0  0  0  0  0  0  0  0  0  0  0
  190.0790  177.1310  145.9380 O   0  0  0  0  0  0  0  0  0  0  0  0
  192.0550  175.9700  145.9970 O   0  0  0  0  0  1  0  0  0  0  0  0
  1  8  1  0  0  0  0
  1 28  1  0  0  0  0
  2 19  1  6  0  0  0
  2  9  1  0  0  0  0
  4 23  1  0  0  0  0
  4  3  1  0  0  0  0
  5 14  1  0  0  0  0
  7 21  1  0  0  0  0
  9 10  1  0  0  0  0
  9  6  1  1  0  0  0
 10 25  1  1  0  0  0
 11 18  1  6  0  0  0
 11 17  1  0  0  0  0
 12  7  2  0  0  0  0
 12 15  1  0  0  0  0
 13  1  2  0  0  0  0
 14  6  1  0  0  0  0
 14  8  2  0  0  0  0
 15  4  2  0  0  0  0
 16  5  2  0  0  0  0
 16 13  1  0  0  0  0
 17 27  1  6  0  0  0
 17 10  1  0  0  0  0
 19  5  1  0  0  0  0
 20  3  2  0  0  0  0
 21 23  2  0  0  0  0
 22  3  1  1  0  0  0
 22 11  1  0  0  0  0
 22  2  1  0  0  0  0
 23 18  1  0  0  0  0
 25 24  1  0  0  0  0
 27 26  1  0  0  0  0
 28 29  1  0  0  0  0
 29 30  1  0  0  0  0
 30 31  2  0  0  0  0
 30 32  1  0  0  0  0
M  END
>  <MODEL>
7

>  <REMARK>
 VINA RESULT:      -7.1      3.265      9.410
  Name = 
  5 active torsions:
  status: ('A' for Active; 'I' for Inactive)
    1  A    between atoms: C_1  and  C_10
    2  A    between atoms: C_2  and  O_24
    3  A    between atoms: C_10  and  O_24
    4  A    between atoms: O_13  and  C_15
    5  A    between atoms: C_25  and  C_26
                            x       y       z     vdW  Elec       q    Type
                         _______ _______ _______ _____ _____    ______ ____

>  <TORSDO>
F 5

$$$$
=
 OpenBabel11052417023D

 32 36  0  0  1  0  0  0  0  0999 V2000
  182.9300  179.0050  143.1940 C   0  0  0  0  0  0  0  0  0  0  0  0
  186.4790  178.0330  139.6950 C   0  0  2  0  0  3  0  0  0  0  0  0
  188.8270  177.2110  139.2610 C   0  0  0  0  0  0  0  0  0  0  0  0
  189.8580  176.7720  138.3030 C   0  0  0  0  0  0  0  0  0  0  0  0
  185.3020  178.9660  141.6950 C   0  0  0  0  0  0  0  0  0  0  0  0
  184.0460  178.1970  139.7590 O   0  0  0  0  0  0  0  0  0  0  0  0
  191.8500  176.0210  136.4770 C   0  0  0  0  0  3  0  0  0  0  0  0
  182.9050  178.6170  141.8510 C   0  0  0  0  0  3  0  0  0  0  0  0
  185.1870  178.3070  138.9060 C   0  0  2  0  0  3  0  0  0  0  0  0
  185.0340  177.3480  137.7160 C   0  0  2  0  0  3  0  0  0  0  0  0
  187.4390  178.0960  137.3130 C   0  0  2  0  0  3  0  0  0  0  0  0
  191.9440  175.6290  137.8160 C   0  0  0  0  0  3  0  0  0  0  0  0
  184.1480  179.3830  143.7820 C   0  0  0  0  0  3  0  0  0  0  0  0
  184.0830  178.6020  141.0980 C   0  0  0  0  0  0  0  0  0  0  0  0
  190.9530  176.0060  138.7270 C   0  0  0  0  0  3  0  0  0  0  0  0
  185.3290  179.3660  143.0340 C   0  0  0  0  0  3  0  0  0  0  0  0
  186.3480  177.0690  136.9640 C   0  0  1  0  0  3  0  0  0  0  0  0
  188.6390  177.9110  136.4990 N   0  0  0  0  0  2  0  0  0  0  0  0
  186.5650  178.9860  140.8880 C   0  0  0  0  0  2  0  0  0  0  0  0
  188.8970  176.8410  140.4660 O   0  0  0  0  0  0  0  0  0  0  0  0
  190.7590  176.7820  136.0470 C   0  0  0  0  0  3  0  0  0  0  0  0
  187.7460  178.1770  138.8290 C   0  0  1  0  0  3  0  0  0  0  0  0
  189.7600  177.1490  136.9530 C   0  0  0  0  0  0  0  0  0  0  0  0
  183.0610  176.9040  136.8140 C   0  0  0  0  0  1  0  0  0  0  0  0
  184.0840  177.8540  136.8260 O   0  0  0  0  0  0  0  0  0  0  0  0
  185.7060  174.7720  137.1610 O   0  0  0  0  0  1  0  0  0  0  0  0
  186.8010  175.6360  137.2140 C   0  0  0  0  0  2  0  0  0  0  0  0
  181.7340  179.0100  143.9180 O   0  0  0  0  0  0  0  0  0  0  0  0
  180.5190  178.4880  143.3950 C   0  0  0  0  0  2  0  0  0  0  0  0
  179.8450  179.5270  142.5720 C   0  0  0  0  0  0  0  0  0  0  0  0
  179.1160  179.1880  141.6040 O   0  0  0  0  0  0  0  0  0  0  0  0
  180.0550  180.8720  142.8450 O   0  0  0  0  0  1  0  0  0  0  0  0
  1 13  1  0  0  0  0
  1 28  1  0  0  0  0
  2 19  1  1  0  0  0
  3 20  2  0  0  0  0
  4 15  1  0  0  0  0
  4  3  1  0  0  0  0
  5 16  1  0  0  0  0
  6 14  1  0  0  0  0
  7 12  1  0  0  0  0
  8  1  2  0  0  0  0
  9  2  1  0  0  0  0
  9  6  1  1  0  0  0
 10 25  1  6  0  0  0
 10  9  1  0  0  0  0
 11 18  1  6  0  0  0
 11 22  1  0  0  0  0
 12 15  2  0  0  0  0
 14  5  2  0  0  0  0
 14  8  1  0  0  0  0
 16 13  2  0  0  0  0
 17 27  1  1  0  0  0
 17 11  1  0  0  0  0
 17 10  1  0  0  0  0
 18 23  1  0  0  0  0
 19  5  1  0  0  0  0
 21  7  2  0  0  0  0
 21 23  1  0  0  0  0
 22  3  1  1  0  0  0
 22  2  1  0  0  0  0
 23  4  2  0  0  0  0
 24 25  1  0  0  0  0
 26 27  1  0  0  0  0
 29 28  1  0  0  0  0
 30 32  1  0  0  0  0
 30 29  1  0  0  0  0
 31 30  2  0  0  0  0
M  END
>  <MODEL>
8

>  <REMARK>
 VINA RESULT:      -6.2      3.975      5.696
  Name = 
  5 active torsions:
  status: ('A' for Active; 'I' for Inactive)
    1  A    between atoms: C_1  and  C_10
    2  A    between atoms: C_2  and  O_24
    3  A    between atoms: C_10  and  O_24
    4  A    between atoms: O_13  and  C_15
    5  A    between atoms: C_25  and  C_26
                            x       y       z     vdW  Elec       q    Type
                         _______ _______ _______ _____ _____    ______ ____

>  <TORSDO>
F 5

$$$$
=
 OpenBabel11052417023D

 32 36  0  0  1  0  0  0  0  0999 V2000
  190.6280  177.4780  140.1100 C   0  0  0  0  0  0  0  0  0  0  0  0
  186.2090  176.7160  137.7260 C   0  0  2  0  0  3  0  0  0  0  0  0
  184.7110  175.0440  136.5710 C   0  0  0  0  0  0  0  0  0  0  0  0
  183.3950  174.7080  135.9960 C   0  0  0  0  0  0  0  0  0  0  0  0
  188.6580  176.8050  138.2280 C   0  0  0  0  0  0  0  0  0  0  0  0
  187.1060  178.3130  139.3380 O   0  0  0  0  0  0  0  0  0  0  0  0
  180.9230  174.0950  134.8220 C   0  0  0  0  0  3  0  0  0  0  0  0
  189.3580  178.0600  140.1830 C   0  0  0  0  0  3  0  0  0  0  0  0
  186.1170  178.1310  138.3220 C   0  0  2  0  0  3  0  0  0  0  0  0
  184.7240  178.4120  138.9040 C   0  0  2  0  0  3  0  0  0  0  0  0
  184.0220  177.4990  136.6280 C   0  0  2  0  0  3  0  0  0  0  0  0
  181.7740  173.0670  135.2380 C   0  0  0  0  0  3  0  0  0  0  0  0
  190.9100  176.5620  139.0830 C   0  0  0  0  0  3  0  0  0  0  0  0
  188.3760  177.7340  139.2440 C   0  0  0  0  0  0  0  0  0  0  0  0
  183.0070  173.3720  135.8210 C   0  0  0  0  0  3  0  0  0  0  0  0
  189.9290  176.2290  138.1440 C   0  0  0  0  0  3  0  0  0  0  0  0
  183.5660  177.8610  138.0520 C   0  0  1  0  0  3  0  0  0  0  0  0
  182.8980  177.1050  135.7820 N   0  0  0  0  0  2  0  0  0  0  0  0
  187.6230  176.4720  137.1960 C   0  0  0  0  0  2  0  0  0  0  0  0
  185.4720  174.1180  136.9680 O   0  0  0  0  0  0  0  0  0  0  0  0
  181.3010  175.4290  134.9960 C   0  0  0  0  0  3  0  0  0  0  0  0
  185.1870  176.4790  136.5960 C   0  0  1  0  0  3  0  0  0  0  0  0
  182.5290  175.7380  135.5900 C   0  0  0  0  0  0  0  0  0  0  0  0
  183.1780  179.9870  139.0910 C   0  0  0  0  0  1  0  0  0  0  0  0
  184.5600  179.7870  139.0830 O   0  0  0  0  0  0  0  0  0  0  0  0
  181.5330  176.9190  138.8920 O   0  0  0  0  0  1  0  0  0  0  0  0
  182.9030  176.6880  138.7640 C   0  0  0  0  0  2  0  0  0  0  0  0
  191.5870  177.8280  141.0640 O   0  0  0  0  0  0  0  0  0  0  0  0
  191.6800  177.1850  142.3300 C   0  0  0  0  0  2  0  0  0  0  0  0
  191.0490  178.0390  143.3690 C   0  0  0  0  0  0  0  0  0  0  0  0
  191.7150  178.9510  143.9240 O   0  0  0  0  0  1  0  0  0  0  0  0
  189.7370  177.8040  143.7570 O   0  0  0  0  0  0  0  0  0  0  0  0
  1  8  1  0  0  0  0
  1 28  1  0  0  0  0
  2 19  1  6  0  0  0
  2  9  1  0  0  0  0
  3 20  2  0  0  0  0
  4  3  1  0  0  0  0
  5 14  1  0  0  0  0
  7 21  2  0  0  0  0
  7 12  1  0  0  0  0
  9 10  1  0  0  0  0
  9  6  1  1  0  0  0
 10 25  1  6  0  0  0
 11 18  1  6  0  0  0
 11 17  1  0  0  0  0
 12 15  2  0  0  0  0
 13  1  2  0  0  0  0
 14  6  1  0  0  0  0
 14  8  2  0  0  0  0
 15  4  1  0  0  0  0
 16  5  2  0  0  0  0
 16 13  1  0  0  0  0
 17 27  1  1  0  0  0
 17 10  1  0  0  0  0
 19  5  1  0  0  0  0
 21 23  1  0  0  0  0
 22  3  1  1  0  0  0
 22 11  1  0  0  0  0
 22  2  1  0  0  0  0
 23 18  1  0  0  0  0
 23  4  2  0  0  0  0
 25 24  1  0  0  0  0
 27 26  1  0  0  0  0
 28 29  1  0  0  0  0
 29 30  1  0  0  0  0
 30 32  2  0  0  0  0
 30 31  1  0  0  0  0
M  END
>  <MODEL>
9

>  <REMARK>
 VINA RESULT:      -6.1      4.707      9.967
  Name = 
  5 active torsions:
  status: ('A' for Active; 'I' for Inactive)
    1  A    between atoms: C_1  and  C_10
    2  A    between atoms: C_2  and  O_24
    3  A    between atoms: C_10  and  O_24
    4  A    between atoms: O_13  and  C_15
    5  A    between atoms: C_25  and  C_26
                            x       y       z     vdW  Elec       q    Type
                         _______ _______ _______ _____ _____    ______ ____

>  <TORSDO>
F 5

$$$$
