=
 OpenBabel11052413113D

 31 35  0  0  1  0  0  0  0  0999 V2000
  188.7680  177.4140  143.9750 C   0  0  0  0  0  0  0  0  0  0  0  0
  189.3270  177.3300  145.2730 C   0  0  2  0  0  3  0  0  0  0  0  0
  189.1420  177.5860  147.6660 C   0  0  0  0  0  0  0  0  0  0  0  0
  187.5050  177.8190  143.7280 C   0  0  0  0  0  0  0  0  0  0  0  0
  185.4710  178.5220  143.9850 C   0  0  0  0  0  0  0  0  0  0  0  0
  188.6290  177.6500  146.3280 N   0  0  0  0  0  0  0  0  0  0  0  0
  189.0400  177.1200  141.4650 C   0  0  0  0  0  0  0  0  0  0  0  0
  191.4050  176.5540  144.2940 C   0  0  0  0  0  3  0  0  0  0  0  0
  188.2710  177.9710  148.8070 C   0  0  0  0  0  1  0  0  0  0  0  0
  187.7770  177.5290  141.2700 C   0  0  0  0  0  3  0  0  0  0  0  0
  189.5750  177.0530  142.8590 C   0  0  0  0  0  0  0  0  0  0  0  0
  186.5290  178.2220  144.6750 N   0  0  0  0  0  0  0  0  0  0  0  0
  190.3910  177.1860  147.8970 C   0  0  0  0  0  3  0  0  0  0  0  0
  187.0020  177.8810  142.4130 N   0  0  0  0  0  0  0  0  0  0  0  0
  185.6330  178.3460  142.4910 C   0  0  0  0  0  2  0  0  0  0  0  0
  190.8550  176.6390  143.0570 N   0  0  0  0  0  0  0  0  0  0  0  0
  190.6610  176.8950  145.4210 C   0  0  0  0  0  0  0  0  0  0  0  0
  191.3080  176.7870  146.7760 C   0  0  0  0  0  3  0  0  0  0  0  0
  189.5030  178.5600  138.9450 O   0  0  0  0  0  0  0  0  0  0  0  0
  190.0990  177.4680  139.1440 C   0  0  0  0  0  0  0  0  0  0  0  0
  189.8890  176.7470  140.3680 N   0  0  0  0  0  2  0  0  0  0  0  0
  192.6500  175.8350  136.0890 C   0  0  0  0  0  0  0  0  0  0  0  0
  190.4760  176.5110  136.8930 C   0  0  0  0  0  3  0  0  0  0  0  0
  193.2500  177.2150  139.8060 Cl  0  0  0  0  0  0  0  0  0  0  0  0
  193.6590  175.1670  134.8250 Cl  0  0  0  0  0  0  0  0  0  0  0  0
  191.2780  175.9780  135.8840 C   0  0  0  0  0  3  0  0  0  0  0  0
  192.4220  176.7610  138.3230 C   0  0  0  0  0  0  0  0  0  0  0  0
  191.0240  176.9110  138.1230 C   0  0  0  0  0  0  0  0  0  0  0  0
  193.2150  176.2250  137.3030 C   0  0  0  0  0  3  0  0  0  0  0  0
  184.2730  178.9750  144.6180 N   0  0  0  0  0  0  0  0  0  0  0  0
  183.1290  178.9560  144.0150 C   0  0  0  0  0  2  0  0  0  0  0  0
  2  1  1  6  0  0  0
  2 17  1  0  0  0  0
  2  6  1  0  0  0  0
  3 13  1  0  0  0  0
  3  9  1  0  0  0  0
  4  1  2  0  0  0  0
  4 12  1  0  0  0  0
  5 30  1  0  0  0  0
  5 12  2  0  0  0  0
  6  3  2  0  0  0  0
  7 11  1  0  0  0  0
  8 17  2  0  0  0  0
 10  7  2  0  0  0  0
 10 14  1  0  0  0  0
 11 16  2  0  0  0  0
 11  1  1  0  0  0  0
 14 15  1  0  0  0  0
 14  4  1  0  0  0  0
 15  5  1  0  0  0  0
 16  8  1  0  0  0  0
 17 18  1  0  0  0  0
 18 13  2  0  0  0  0
 19 20  2  0  0  0  0
 20 21  1  0  0  0  0
 21  7  1  0  0  0  0
 22 29  1  0  0  0  0
 23 28  2  0  0  0  0
 25 22  1  0  0  0  0
 26 22  2  0  0  0  0
 26 23  1  0  0  0  0
 27 24  1  0  0  0  0
 28 27  1  0  0  0  0
 28 20  1  0  0  0  0
 29 27  2  0  0  0  0
 31 30  2  0  0  0  0
M  END
>  <MODEL>
1

>  <REMARK>
 VINA RESULT:      -9.6      0.000      0.000
  Name = 
  3 active torsions:
  status: ('A' for Active; 'I' for Inactive)
    1  A    between atoms: N_2  and  C_13
    2  A    between atoms: C_9  and  C_22
    3  A    between atoms: C_15  and  N_23
                            x       y       z     vdW  Elec       q    Type
                         _______ _______ _______ _____ _____    ______ ____

>  <TORSDO>
F 3

$$$$
=
 OpenBabel11052413113D

 31 35  0  0  0  0  0  0  0  0999 V2000
  187.2220  178.2260  139.4690 C   0  0  0  0  0  0  0  0  0  0  0  0
  187.8260  178.0050  138.2070 C   0  0  0  0  0  0  0  0  0  0  0  0
  187.7080  177.9540  135.7970 C   0  0  0  0  0  0  0  0  0  0  0  0
  185.9370  178.6070  139.6290 C   0  0  0  0  0  0  0  0  0  0  0  0
  183.8900  179.1930  139.2300 C   0  0  0  0  0  0  0  0  0  0  0  0
  187.1500  178.1630  137.1020 N   0  0  0  0  0  0  0  0  0  0  0  0
  187.4230  178.2550  142.0030 C   0  0  0  0  0  0  0  0  0  0  0  0
  189.8960  177.4370  139.3330 C   0  0  0  0  0  3  0  0  0  0  0  0
  186.8610  178.1600  134.5940 C   0  0  0  0  0  1  0  0  0  0  0  0
  186.1410  178.6340  142.1100 C   0  0  0  0  0  3  0  0  0  0  0  0
  188.0050  178.0370  140.6430 C   0  0  0  0  0  0  0  0  0  0  0  0
  184.9800  178.8520  138.6120 N   0  0  0  0  0  0  0  0  0  0  0  0
  188.9780  177.5760  135.6530 C   0  0  0  0  0  3  0  0  0  0  0  0
  185.3900  178.8120  140.9110 N   0  0  0  0  0  0  0  0  0  0  0  0
  184.0100  179.2110  140.7380 C   0  0  0  0  0  2  0  0  0  0  0  0
  189.3050  177.6530  140.5350 N   0  0  0  0  0  0  0  0  0  0  0  0
  189.1780  177.6060  138.1520 C   0  0  0  0  0  0  0  0  0  0  0  0
  189.8710  177.3560  136.8400 C   0  0  0  0  0  2  0  0  0  0  0  0
  188.2420  175.7180  143.2410 O   0  0  0  0  0  0  0  0  0  0  0  0
  188.6360  176.8010  143.7490 C   0  0  0  0  0  0  0  0  0  0  0  0
  188.2480  178.0540  143.1610 N   0  0  0  0  0  2  0  0  0  0  0  0
  191.2710  176.7680  147.1490 C   0  0  0  0  0  0  0  0  0  0  0  0
  190.8620  176.4910  144.7860 C   0  0  0  0  0  3  0  0  0  0  0  0
  187.3640  177.5130  146.6310 Cl  0  0  0  0  0  0  0  0  0  0  0  0
  192.3690  176.7460  148.5110 Cl  0  0  0  0  0  0  0  0  0  0  0  0
  191.7400  176.4730  145.8700 C   0  0  0  0  0  3  0  0  0  0  0  0
  189.0350  177.1030  146.2630 C   0  0  0  0  0  0  0  0  0  0  0  0
  189.5020  176.8040  144.9560 C   0  0  0  0  0  0  0  0  0  0  0  0
  189.9250  177.0810  147.3410 C   0  0  0  0  0  3  0  0  0  0  0  0
  182.6970  179.5170  138.5120 N   0  0  0  0  0  0  0  0  0  0  0  0
  182.1400  180.6810  138.5970 C   0  0  0  0  0  2  0  0  0  0  0  0
  1  4  2  0  0  0  0
  1 11  1  0  0  0  0
  2  1  1  0  0  0  0
  3  6  1  0  0  0  0
  4 14  1  0  0  0  0
  5 15  1  0  0  0  0
  6  2  2  0  0  0  0
  7 10  2  0  0  0  0
  7 21  1  0  0  0  0
  8 16  1  0  0  0  0
  9  3  1  0  0  0  0
 11  7  1  0  0  0  0
 12  5  2  0  0  0  0
 12  4  1  0  0  0  0
 13  3  2  0  0  0  0
 13 18  1  0  0  0  0
 14 10  1  0  0  0  0
 15 14  1  0  0  0  0
 16 11  2  0  0  0  0
 17  2  1  0  0  0  0
 17  8  2  0  0  0  0
 18 17  1  0  0  0  0
 19 20  2  0  0  0  0
 20 28  1  0  0  0  0
 21 20  1  0  0  0  0
 22 29  1  0  0  0  0
 22 25  1  0  0  0  0
 23 28  2  0  0  0  0
 23 26  1  0  0  0  0
 26 22  2  0  0  0  0
 27 24  1  0  0  0  0
 27 29  2  0  0  0  0
 28 27  1  0  0  0  0
 30 31  2  0  0  0  0
 30  5  1  0  0  0  0
M  END
>  <MODEL>
2

>  <REMARK>
 VINA RESULT:      -9.3      3.614      7.839
  Name = 
  3 active torsions:
  status: ('A' for Active; 'I' for Inactive)
    1  A    between atoms: N_2  and  C_13
    2  A    between atoms: C_9  and  C_22
    3  A    between atoms: C_15  and  N_23
                            x       y       z     vdW  Elec       q    Type
                         _______ _______ _______ _____ _____    ______ ____

>  <TORSDO>
F 3

$$$$
=
 OpenBabel11052413113D

 31 35  0  0  1  0  0  0  0  0999 V2000
  186.6820  178.2770  142.9810 C   0  0  0  0  0  0  0  0  0  0  0  0
  186.4080  178.2420  144.3700 C   0  0  2  0  0  3  0  0  0  0  0  0
  187.0870  177.7760  146.6380 C   0  0  0  0  0  0  0  0  0  0  0  0
  187.8600  177.9020  142.4400 C   0  0  0  0  0  0  0  0  0  0  0  0
  189.8930  177.1910  142.2020 C   0  0  0  0  0  0  0  0  0  0  0  0
  187.3080  177.8340  145.2220 N   0  0  0  0  0  0  0  0  0  0  0  0
  185.8940  178.7890  140.6190 C   0  0  0  0  0  0  0  0  0  0  0  0
  184.1820  179.0890  143.9200 C   0  0  0  0  0  3  0  0  0  0  0  0
  188.1730  177.2980  147.5330 C   0  0  0  0  0  1  0  0  0  0  0  0
  187.0820  178.4070  140.1290 C   0  0  0  0  0  3  0  0  0  0  0  0
  185.6640  178.7300  142.0950 C   0  0  0  0  0  0  0  0  0  0  0  0
  189.0070  177.4220  143.1220 N   0  0  0  0  0  0  0  0  0  0  0  0
  185.9190  178.1480  147.1600 C   0  0  0  0  0  3  0  0  0  0  0  0
  188.0760  177.9590  141.0480 N   0  0  0  0  0  0  0  0  0  0  0  0
  189.4240  177.4970  140.7970 C   0  0  0  0  0  2  0  0  0  0  0  0
  184.4590  179.1180  142.5920 N   0  0  0  0  0  0  0  0  0  0  0  0
  185.1410  178.6550  144.8320 C   0  0  0  0  0  0  0  0  0  0  0  0
  184.7930  178.6390  146.2960 C   0  0  0  0  0  3  0  0  0  0  0  0
  183.4060  177.4110  139.8780 O   0  0  0  0  0  0  0  0  0  0  0  0
  183.6300  178.5610  139.4140 C   0  0  0  0  0  0  0  0  0  0  0  0
  184.8390  179.2530  139.7620 N   0  0  0  0  0  2  0  0  0  0  0  0
  180.8150  180.5920  136.8730 C   0  0  0  0  0  0  0  0  0  0  0  0
  182.2660  180.5330  138.8020 C   0  0  0  0  0  3  0  0  0  0  0  0
  182.4900  176.9480  136.8580 Cl  0  0  0  0  0  0  0  0  0  0  0  0
  179.6720  181.4460  135.8600 Cl  0  0  0  0  0  0  0  0  0  0  0  0
  181.3550  181.2160  137.9960 C   0  0  0  0  0  3  0  0  0  0  0  0
  182.0990  178.5880  137.3580 C   0  0  0  0  0  0  0  0  0  0  0  0
  182.6550  179.2160  138.5040 C   0  0  0  0  0  0  0  0  0  0  0  0
  181.1870  179.2850  136.5590 C   0  0  0  0  0  3  0  0  0  0  0  0
  191.1910  176.6900  142.5270 N   0  0  0  0  0  0  0  0  0  0  0  0
  191.4520  176.1540  143.6750 C   0  0  0  0  0  2  0  0  0  0  0  0
  2  1  1  6  0  0  0
  2 17  1  0  0  0  0
  2  6  1  0  0  0  0
  3 13  1  0  0  0  0
  3  9  1  0  0  0  0
  4  1  2  0  0  0  0
  4 12  1  0  0  0  0
  5 30  1  0  0  0  0
  5 12  2  0  0  0  0
  6  3  2  0  0  0  0
  7 11  1  0  0  0  0
  8 17  2  0  0  0  0
 10  7  2  0  0  0  0
 10 14  1  0  0  0  0
 11 16  2  0  0  0  0
 11  1  1  0  0  0  0
 14  4  1  0  0  0  0
 15 14  1  0  0  0  0
 15  5  1  0  0  0  0
 16  8  1  0  0  0  0
 17 18  1  0  0  0  0
 18 13  2  0  0  0  0
 20 21  1  0  0  0  0
 20 19  2  0  0  0  0
 21  7  1  0  0  0  0
 22 26  1  0  0  0  0
 24 27  1  0  0  0  0
 25 22  1  0  0  0  0
 26 23  2  0  0  0  0
 27 28  2  0  0  0  0
 28 23  1  0  0  0  0
 28 20  1  0  0  0  0
 29 22  2  0  0  0  0
 29 27  1  0  0  0  0
 30 31  2  0  0  0  0
M  END
>  <MODEL>
3

>  <REMARK>
 VINA RESULT:      -9.3      4.785      7.311
  Name = 
  3 active torsions:
  status: ('A' for Active; 'I' for Inactive)
    1  A    between atoms: N_2  and  C_13
    2  A    between atoms: C_9  and  C_22
    3  A    between atoms: C_15  and  N_23
                            x       y       z     vdW  Elec       q    Type
                         _______ _______ _______ _____ _____    ______ ____

>  <TORSDO>
F 3

$$$$
=
 OpenBabel11052413113D

 31 35  0  0  1  0  0  0  0  0999 V2000
  189.0960  177.5930  142.6790 C   0  0  0  0  0  0  0  0  0  0  0  0
  189.4550  177.4010  144.0350 C   0  0  2  0  0  3  0  0  0  0  0  0
  188.9150  177.4720  146.3860 C   0  0  0  0  0  0  0  0  0  0  0  0
  187.8840  178.0330  142.2800 C   0  0  0  0  0  0  0  0  0  0  0  0
  185.8360  178.7400  142.2860 C   0  0  0  0  0  0  0  0  0  0  0  0
  188.6080  177.6470  144.9960 N   0  0  0  0  0  0  0  0  0  0  0  0
  189.7390  177.4930  140.2220 C   0  0  0  0  0  0  0  0  0  0  0  0
  191.6540  176.6770  143.3170 C   0  0  0  0  0  3  0  0  0  0  0  0
  187.8840  177.7770  147.4120 C   0  0  0  0  0  1  0  0  0  0  0  0
  188.5200  177.9320  139.8750 C   0  0  0  0  0  3  0  0  0  0  0  0
  190.0600  177.3100  141.6700 C   0  0  0  0  0  0  0  0  0  0  0  0
  186.7790  178.3730  143.1000 N   0  0  0  0  0  0  0  0  0  0  0  0
  190.1150  177.0380  146.7680 C   0  0  0  0  0  3  0  0  0  0  0  0
  187.5830  178.2040  140.9130 N   0  0  0  0  0  0  0  0  0  0  0  0
  186.2190  178.6800  140.8240 C   0  0  0  0  0  2  0  0  0  0  0  0
  191.2960  176.8650  142.0220 N   0  0  0  0  0  0  0  0  0  0  0  0
  190.7510  176.9380  144.3440 C   0  0  0  0  0  0  0  0  0  0  0  0
  191.1890  176.7160  145.7670 C   0  0  0  0  0  3  0  0  0  0  0  0
  189.8160  175.2560  138.3170 O   0  0  0  0  0  0  0  0  0  0  0  0
  190.7570  176.0940  138.3140 C   0  0  0  0  0  0  0  0  0  0  0  0
  190.7410  177.1950  139.2370 N   0  0  0  0  0  2  0  0  0  0  0  0
  194.1440  175.6770  135.6960 C   0  0  0  0  0  0  0  0  0  0  0  0
  193.1650  175.7010  137.9030 C   0  0  0  0  0  3  0  0  0  0  0  0
  190.2380  176.3960  135.1410 Cl  0  0  0  0  0  0  0  0  0  0  0  0
  195.5430  175.5010  134.6590 Cl  0  0  0  0  0  0  0  0  0  0  0  0
  194.2820  175.5600  137.0780 C   0  0  0  0  0  3  0  0  0  0  0  0
  191.7630  176.0760  135.9570 C   0  0  0  0  0  0  0  0  0  0  0  0
  191.8930  175.9590  137.3660 C   0  0  0  0  0  0  0  0  0  0  0  0
  192.8900  175.9330  135.1410 C   0  0  0  0  0  3  0  0  0  0  0  0
  184.5570  179.1580  142.7680 N   0  0  0  0  0  0  0  0  0  0  0  0
  184.3540  179.4470  144.0120 C   0  0  0  0  0  2  0  0  0  0  0  0
  2  1  1  1  0  0  0
  2 17  1  0  0  0  0
  2  6  1  0  0  0  0
  3 13  1  0  0  0  0
  3  9  1  0  0  0  0
  4  1  2  0  0  0  0
  4 12  1  0  0  0  0
  5 30  1  0  0  0  0
  5 12  2  0  0  0  0
  6  3  2  0  0  0  0
  7 11  1  0  0  0  0
  8 17  2  0  0  0  0
 10  7  2  0  0  0  0
 10 14  1  0  0  0  0
 11 16  2  0  0  0  0
 11  1  1  0  0  0  0
 14  4  1  0  0  0  0
 15 14  1  0  0  0  0
 15  5  1  0  0  0  0
 16  8  1  0  0  0  0
 17 18  1  0  0  0  0
 18 13  2  0  0  0  0
 20 19  2  0  0  0  0
 20 21  1  0  0  0  0
 21  7  1  0  0  0  0
 22 26  1  0  0  0  0
 24 27  1  0  0  0  0
 25 22  1  0  0  0  0
 26 23  2  0  0  0  0
 27 28  2  0  0  0  0
 28 23  1  0  0  0  0
 28 20  1  0  0  0  0
 29 22  2  0  0  0  0
 29 27  1  0  0  0  0
 30 31  2  0  0  0  0
M  END
>  <MODEL>
4

>  <REMARK>
 VINA RESULT:      -9.2      1.658      2.032
  Name = 
  3 active torsions:
  status: ('A' for Active; 'I' for Inactive)
    1  A    between atoms: N_2  and  C_13
    2  A    between atoms: C_9  and  C_22
    3  A    between atoms: C_15  and  N_23
                            x       y       z     vdW  Elec       q    Type
                         _______ _______ _______ _____ _____    ______ ____

>  <TORSDO>
F 3

$$$$
=
 OpenBabel11052413113D

 31 35  0  0  1  0  0  0  0  0999 V2000
  185.9950  178.4500  140.2950 C   0  0  0  0  0  0  0  0  0  0  0  0
  184.5910  178.6280  140.3580 C   0  0  2  0  0  3  0  0  0  0  0  0
  182.4620  178.9770  139.2760 C   0  0  0  0  0  0  0  0  0  0  0  0
  186.6970  178.4360  139.1420 C   0  0  0  0  0  0  0  0  0  0  0  0
  187.2250  178.5060  137.0420 C   0  0  0  0  0  0  0  0  0  0  0  0
  183.8850  178.7920  139.2740 N   0  0  0  0  0  0  0  0  0  0  0  0
  188.1990  178.0840  141.5060 C   0  0  0  0  0  0  0  0  0  0  0  0
  184.7100  178.4540  142.7730 C   0  0  0  0  0  3  0  0  0  0  0  0
  181.7410  179.1550  137.9890 C   0  0  0  0  0  1  0  0  0  0  0  0
  188.8530  178.0770  140.3350 C   0  0  0  0  0  3  0  0  0  0  0  0
  186.7170  178.2760  141.5090 C   0  0  0  0  0  0  0  0  0  0  0  0
  186.1930  178.5880  137.8260 N   0  0  0  0  0  0  0  0  0  0  0  0
  181.7810  178.9900  140.4210 C   0  0  0  0  0  3  0  0  0  0  0  0
  188.0950  178.2540  139.1410 N   0  0  0  0  0  0  0  0  0  0  0  0
  188.5370  178.2870  137.7630 C   0  0  0  0  0  2  0  0  0  0  0  0
  186.0540  178.2840  142.6970 N   0  0  0  0  0  0  0  0  0  0  0  0
  183.9540  178.6280  141.6170 C   0  0  0  0  0  0  0  0  0  0  0  0
  182.4660  178.8130  141.7460 C   0  0  0  0  0  3  0  0  0  0  0  0
  188.3040  175.6970  143.2170 O   0  0  0  0  0  0  0  0  0  0  0  0
  188.9250  176.7330  143.5740 C   0  0  0  0  0  0  0  0  0  0  0  0
  188.8890  177.9120  142.7540 N   0  0  0  0  0  2  0  0  0  0  0  0
  191.3040  176.7460  147.1590 C   0  0  0  0  0  0  0  0  0  0  0  0
  191.0550  176.3830  144.7850 C   0  0  0  0  0  3  0  0  0  0  0  0
  187.4790  177.6170  146.3240 Cl  0  0  0  0  0  0  0  0  0  0  0  0
  192.2990  176.7410  148.5980 Cl  0  0  0  0  0  0  0  0  0  0  0  0
  191.8510  176.3780  145.9300 C   0  0  0  0  0  3  0  0  0  0  0  0
  189.1530  177.1280  146.0970 C   0  0  0  0  0  0  0  0  0  0  0  0
  189.7010  176.7550  144.8410 C   0  0  0  0  0  0  0  0  0  0  0  0
  189.9620  177.1180  147.2380 C   0  0  0  0  0  3  0  0  0  0  0  0
  187.0940  178.6170  135.6230 N   0  0  0  0  0  0  0  0  0  0  0  0
  186.8950  177.5850  134.8700 C   0  0  0  0  0  2  0  0  0  0  0  0
  1  2  1  0  0  0  0
  1 11  1  0  0  0  0
  2  6  1  1  0  0  0
  2 17  1  0  0  0  0
  3 13  1  0  0  0  0
  4  1  2  0  0  0  0
  5 15  1  0  0  0  0
  5 12  2  0  0  0  0
  6  3  2  0  0  0  0
  7 11  1  0  0  0  0
  7 21  1  0  0  0  0
  9  3  1  0  0  0  0
 10  7  2  0  0  0  0
 11 16  2  0  0  0  0
 12  4  1  0  0  0  0
 13 18  2  0  0  0  0
 14  4  1  0  0  0  0
 14 10  1  0  0  0  0
 15 14  1  0  0  0  0
 16  8  1  0  0  0  0
 17 18  1  0  0  0  0
 17  8  2  0  0  0  0
 19 20  2  0  0  0  0
 20 28  1  0  0  0  0
 21 20  1  0  0  0  0
 22 29  1  0  0  0  0
 22 25  1  0  0  0  0
 23 28  2  0  0  0  0
 23 26  1  0  0  0  0
 26 22  2  0  0  0  0
 27 24  1  0  0  0  0
 27 29  2  0  0  0  0
 28 27  1  0  0  0  0
 30  5  1  0  0  0  0
 31 30  2  0  0  0  0
M  END
>  <MODEL>
5

>  <REMARK>
 VINA RESULT:      -9.1      3.801      8.061
  Name = 
  3 active torsions:
  status: ('A' for Active; 'I' for Inactive)
    1  A    between atoms: N_2  and  C_13
    2  A    between atoms: C_9  and  C_22
    3  A    between atoms: C_15  and  N_23
                            x       y       z     vdW  Elec       q    Type
                         _______ _______ _______ _____ _____    ______ ____

>  <TORSDO>
F 3

$$$$
=
 OpenBabel11052413113D

 31 35  0  0  0  0  0  0  0  0999 V2000
  187.4140  178.1950  139.4400 C   0  0  0  0  0  0  0  0  0  0  0  0
  187.9370  177.9790  138.1410 C   0  0  0  0  0  0  0  0  0  0  0  0
  187.6770  177.9700  135.7420 C   0  0  0  0  0  0  0  0  0  0  0  0
  186.1530  178.6080  139.6810 C   0  0  0  0  0  0  0  0  0  0  0  0
  184.1020  179.2560  139.4120 C   0  0  0  0  0  0  0  0  0  0  0  0
  187.2030  178.1730  137.0810 N   0  0  0  0  0  0  0  0  0  0  0  0
  187.7650  178.1780  141.9570 C   0  0  0  0  0  0  0  0  0  0  0  0
  190.0530  177.3370  139.1340 C   0  0  0  0  0  3  0  0  0  0  0  0
  186.7670  178.2180  134.5940 C   0  0  0  0  0  1  0  0  0  0  0  0
  186.5020  178.5900  142.1460 C   0  0  0  0  0  3  0  0  0  0  0  0
  188.2600  177.9670  140.5630 C   0  0  0  0  0  0  0  0  0  0  0  0
  185.1440  178.8950  138.7260 N   0  0  0  0  0  0  0  0  0  0  0  0
  188.9250  177.5610  135.5170 C   0  0  0  0  0  3  0  0  0  0  0  0
  185.6880  178.8070  140.9960 N   0  0  0  0  0  0  0  0  0  0  0  0
  184.3110  179.2460  140.9100 C   0  0  0  0  0  2  0  0  0  0  0  0
  189.5400  177.5500  140.3720 N   0  0  0  0  0  0  0  0  0  0  0  0
  189.2720  177.5450  138.0010 C   0  0  0  0  0  0  0  0  0  0  0  0
  189.8800  177.2980  136.6460 C   0  0  0  0  0  2  0  0  0  0  0  0
  187.3810  176.3680  144.2410 O   0  0  0  0  0  0  0  0  0  0  0  0
  188.4420  177.0450  144.1680 C   0  0  0  0  0  0  0  0  0  0  0  0
  188.6510  177.9360  143.0620 N   0  0  0  0  0  2  0  0  0  0  0  0
  191.3560  176.7700  147.3200 C   0  0  0  0  0  0  0  0  0  0  0  0
  189.1140  177.2180  146.5440 C   0  0  0  0  0  3  0  0  0  0  0  0
  191.4450  176.1790  143.3540 Cl  0  0  0  0  0  0  0  0  0  0  0  0
  192.5170  176.6670  148.6260 Cl  0  0  0  0  0  0  0  0  0  0  0  0
  190.0380  177.1370  147.5860 C   0  0  0  0  0  3  0  0  0  0  0  0
  190.8320  176.5620  144.9580 C   0  0  0  0  0  0  0  0  0  0  0  0
  189.4870  176.9340  145.2180 C   0  0  0  0  0  0  0  0  0  0  0  0
  191.7480  176.4850  146.0120 C   0  0  0  0  0  3  0  0  0  0  0  0
  182.8790  179.6230  138.7710 N   0  0  0  0  0  0  0  0  0  0  0  0
  181.7270  179.2640  139.2350 C   0  0  0  0  0  2  0  0  0  0  0  0
  1  4  2  0  0  0  0
  1 11  1  0  0  0  0
  2  1  1  0  0  0  0
  3  6  1  0  0  0  0
  4 14  1  0  0  0  0
  5 15  1  0  0  0  0
  6  2  2  0  0  0  0
  7 10  2  0  0  0  0
  7 21  1  0  0  0  0
  8 16  1  0  0  0  0
  9  3  1  0  0  0  0
 11  7  1  0  0  0  0
 12  5  2  0  0  0  0
 12  4  1  0  0  0  0
 13  3  2  0  0  0  0
 13 18  1  0  0  0  0
 14 10  1  0  0  0  0
 15 14  1  0  0  0  0
 16 11  2  0  0  0  0
 17  2  1  0  0  0  0
 17  8  2  0  0  0  0
 18 17  1  0  0  0  0
 20 19  2  0  0  0  0
 20 28  1  0  0  0  0
 21 20  1  0  0  0  0
 22 26  1  0  0  0  0
 22 25  1  0  0  0  0
 23 26  2  0  0  0  0
 24 27  1  0  0  0  0
 27 28  2  0  0  0  0
 27 29  1  0  0  0  0
 28 23  1  0  0  0  0
 29 22  2  0  0  0  0
 30 31  2  0  0  0  0
 30  5  1  0  0  0  0
M  END
>  <MODEL>
6

>  <REMARK>
 VINA RESULT:      -8.9      3.211      7.752
  Name = 
  3 active torsions:
  status: ('A' for Active; 'I' for Inactive)
    1  A    between atoms: N_2  and  C_13
    2  A    between atoms: C_9  and  C_22
    3  A    between atoms: C_15  and  N_23
                            x       y       z     vdW  Elec       q    Type
                         _______ _______ _______ _____ _____    ______ ____

>  <TORSDO>
F 3

$$$$
=
 OpenBabel11052413113D

 31 35  0  0  1  0  0  0  0  0999 V2000
  188.1640  177.8180  142.9750 C   0  0  0  0  0  0  0  0  0  0  0  0
  188.3940  177.6110  144.3570 C   0  0  2  0  0  3  0  0  0  0  0  0
  189.8760  177.0920  146.1890 C   0  0  0  0  0  0  0  0  0  0  0  0
  189.1260  177.7260  142.0330 C   0  0  0  0  0  0  0  0  0  0  0  0
  191.0360  177.4440  141.0490 C   0  0  0  0  0  0  0  0  0  0  0  0
  189.5830  177.3130  144.8030 N   0  0  0  0  0  0  0  0  0  0  0  0
  186.5420  178.3710  141.0980 C   0  0  0  0  0  0  0  0  0  0  0  0
  186.0480  178.0490  144.7810 C   0  0  0  0  0  3  0  0  0  0  0  0
  191.2630  176.7560  146.6040 C   0  0  0  0  0  1  0  0  0  0  0  0
  187.5320  178.2690  140.1990 C   0  0  0  0  0  3  0  0  0  0  0  0
  186.8460  178.1410  142.5430 C   0  0  0  0  0  0  0  0  0  0  0  0
  190.4960  177.4200  142.2300 N   0  0  0  0  0  0  0  0  0  0  0  0
  188.9170  177.1840  147.1100 C   0  0  0  0  0  3  0  0  0  0  0  0
  188.8370  177.9440  140.6700 N   0  0  0  0  0  0  0  0  0  0  0  0
  190.0700  177.7740  139.9320 C   0  0  0  0  0  2  0  0  0  0  0  0
  185.8420  178.2450  143.4540 N   0  0  0  0  0  0  0  0  0  0  0  0
  187.3160  177.7300  145.2590 C   0  0  0  0  0  0  0  0  0  0  0  0
  187.5010  177.5210  146.7380 C   0  0  0  0  0  3  0  0  0  0  0  0
  185.4900  178.8170  138.3890 O   0  0  0  0  0  0  0  0  0  0  0  0
  184.7070  178.9080  139.3720 C   0  0  0  0  0  0  0  0  0  0  0  0
  185.1990  178.6950  140.7050 N   0  0  0  0  0  2  0  0  0  0  0  0
  180.5960  180.0140  138.7570 C   0  0  0  0  0  0  0  0  0  0  0  0
  182.9490  180.5530  138.7990 C   0  0  0  0  0  3  0  0  0  0  0  0
  182.4660  176.6230  139.8000 Cl  0  0  0  0  0  0  0  0  0  0  0  0
  178.9340  180.4960  138.4980 Cl  0  0  0  0  0  0  0  0  0  0  0  0
  181.6250  180.9400  138.5920 C   0  0  0  0  0  3  0  0  0  0  0  0
  182.2170  178.3010  139.3370 C   0  0  0  0  0  0  0  0  0  0  0  0
  183.2720  179.2370  139.1720 C   0  0  0  0  0  0  0  0  0  0  0  0
  180.8940  178.7030  139.1270 C   0  0  0  0  0  3  0  0  0  0  0  0
  192.4270  177.1770  140.8590 N   0  0  0  0  0  0  0  0  0  0  0  0
  193.0100  177.3540  139.7190 C   0  0  0  0  0  2  0  0  0  0  0  0
  2  1  1  6  0  0  0
  2  6  1  0  0  0  0
  2 17  1  0  0  0  0
  3  9  1  0  0  0  0
  3 13  1  0  0  0  0
  4 12  1  0  0  0  0
  4  1  2  0  0  0  0
  5 12  2  0  0  0  0
  6  3  2  0  0  0  0
  7 11  1  0  0  0  0
  8 17  2  0  0  0  0
 10 14  1  0  0  0  0
 10  7  2  0  0  0  0
 11  1  1  0  0  0  0
 11 16  2  0  0  0  0
 14  4  1  0  0  0  0
 15 14  1  0  0  0  0
 15  5  1  0  0  0  0
 16  8  1  0  0  0  0
 17 18  1  0  0  0  0
 18 13  2  0  0  0  0
 19 20  2  0  0  0  0
 20 21  1  0  0  0  0
 21  7  1  0  0  0  0
 22 29  1  0  0  0  0
 23 28  2  0  0  0  0
 25 22  1  0  0  0  0
 26 22  2  0  0  0  0
 26 23  1  0  0  0  0
 27 24  1  0  0  0  0
 28 27  1  0  0  0  0
 28 20  1  0  0  0  0
 29 27  2  0  0  0  0
 30  5  1  0  0  0  0
 31 30  2  0  0  0  0
M  END
>  <MODEL>
7

>  <REMARK>
 VINA RESULT:      -8.9      4.300      7.167
  Name = 
  3 active torsions:
  status: ('A' for Active; 'I' for Inactive)
    1  A    between atoms: N_2  and  C_13
    2  A    between atoms: C_9  and  C_22
    3  A    between atoms: C_15  and  N_23
                            x       y       z     vdW  Elec       q    Type
                         _______ _______ _______ _____ _____    ______ ____

>  <TORSDO>
F 3

$$$$
=
 OpenBabel11052413113D

 31 35  0  0  0  0  0  0  0  0999 V2000
  187.2710  178.2070  142.1010 C   0  0  0  0  0  0  0  0  0  0  0  0
  188.6000  177.8390  141.7780 C   0  0  0  0  0  0  0  0  0  0  0  0
  190.7940  177.0820  142.4400 C   0  0  0  0  0  0  0  0  0  0  0  0
  186.7760  178.2040  143.3560 C   0  0  0  0  0  0  0  0  0  0  0  0
  186.5900  177.9920  145.5040 C   0  0  0  0  0  0  0  0  0  0  0  0
  189.4380  177.4660  142.7060 N   0  0  0  0  0  0  0  0  0  0  0  0
  184.9860  179.0070  141.3270 C   0  0  0  0  0  0  0  0  0  0  0  0
  188.1220  178.2770  139.4430 C   0  0  0  0  0  3  0  0  0  0  0  0
  191.6760  176.6710  143.5630 C   0  0  0  0  0  1  0  0  0  0  0  0
  184.5400  178.9870  142.5920 C   0  0  0  0  0  3  0  0  0  0  0  0
  186.3990  178.6060  141.0480 C   0  0  0  0  0  0  0  0  0  0  0  0
  187.4560  177.8460  144.5480 N   0  0  0  0  0  0  0  0  0  0  0  0
  191.2720  177.0910  141.1960 C   0  0  0  0  0  3  0  0  0  0  0  0
  185.4430  178.5810  143.6160 N   0  0  0  0  0  0  0  0  0  0  0  0
  185.2300  178.4680  145.0430 C   0  0  0  0  0  2  0  0  0  0  0  0
  186.8510  178.6270  139.7660 N   0  0  0  0  0  0  0  0  0  0  0  0
  189.0170  177.8790  140.4310 C   0  0  0  0  0  0  0  0  0  0  0  0
  190.4170  177.4990  140.0300 C   0  0  0  0  0  2  0  0  0  0  0  0
  182.5920  177.6520  140.2910 O   0  0  0  0  0  0  0  0  0  0  0  0
  182.9720  178.7230  139.7470 C   0  0  0  0  0  0  0  0  0  0  0  0
  184.1400  179.4030  140.2360 N   0  0  0  0  0  2  0  0  0  0  0  0
  180.8060  180.5310  136.5000 C   0  0  0  0  0  0  0  0  0  0  0  0
  181.8330  180.6450  138.6820 C   0  0  0  0  0  3  0  0  0  0  0  0
  182.3160  176.8780  137.1780 Cl  0  0  0  0  0  0  0  0  0  0  0  0
  179.9240  181.2970  135.1970 Cl  0  0  0  0  0  0  0  0  0  0  0  0
  181.1300  181.2580  137.6450 C   0  0  0  0  0  3  0  0  0  0  0  0
  181.8920  178.5670  137.4280 C   0  0  0  0  0  0  0  0  0  0  0  0
  182.2260  179.2980  138.5980 C   0  0  0  0  0  0  0  0  0  0  0  0
  181.1860  179.1930  136.3950 C   0  0  0  0  0  3  0  0  0  0  0  0
  186.9300  177.7190  146.8650 N   0  0  0  0  0  0  0  0  0  0  0  0
  188.1510  177.5170  147.2400 C   0  0  0  0  0  2  0  0  0  0  0  0
  1  4  2  0  0  0  0
  2  1  1  0  0  0  0
  2  6  2  0  0  0  0
  3  6  1  0  0  0  0
  3  9  1  0  0  0  0
  4 14  1  0  0  0  0
  4 12  1  0  0  0  0
  5 30  1  0  0  0  0
  7 10  2  0  0  0  0
  8 16  1  0  0  0  0
  8 17  2  0  0  0  0
 10 14  1  0  0  0  0
 11  7  1  0  0  0  0
 11  1  1  0  0  0  0
 12  5  2  0  0  0  0
 13  3  2  0  0  0  0
 14 15  1  0  0  0  0
 15  5  1  0  0  0  0
 16 11  2  0  0  0  0
 17  2  1  0  0  0  0
 18 17  1  0  0  0  0
 18 13  1  0  0  0  0
 20 21  1  0  0  0  0
 20 19  2  0  0  0  0
 21  7  1  0  0  0  0
 22 26  1  0  0  0  0
 24 27  1  0  0  0  0
 25 22  1  0  0  0  0
 26 23  2  0  0  0  0
 27 28  2  0  0  0  0
 28 23  1  0  0  0  0
 28 20  1  0  0  0  0
 29 22  2  0  0  0  0
 29 27  1  0  0  0  0
 30 31  2  0  0  0  0
M  END
>  <MODEL>
8

>  <REMARK>
 VINA RESULT:      -8.7      4.889      7.300
  Name = 
  3 active torsions:
  status: ('A' for Active; 'I' for Inactive)
    1  A    between atoms: N_2  and  C_13
    2  A    between atoms: C_9  and  C_22
    3  A    between atoms: C_15  and  N_23
                            x       y       z     vdW  Elec       q    Type
                         _______ _______ _______ _____ _____    ______ ____

>  <TORSDO>
F 3

$$$$
=
 OpenBabel11052413113D

 31 35  0  0  1  0  0  0  0  0999 V2000
  188.5910  177.2940  144.6720 C   0  0  0  0  0  0  0  0  0  0  0  0
  187.7590  177.7710  145.7140 C   0  0  1  0  0  3  0  0  0  0  0  0
  187.3710  178.2400  148.0490 C   0  0  0  0  0  0  0  0  0  0  0  0
  189.8360  176.8120  144.8670 C   0  0  0  0  0  0  0  0  0  0  0  0
  191.6870  176.1840  145.8030 C   0  0  0  0  0  0  0  0  0  0  0  0
  188.1680  177.7700  146.9530 N   0  0  0  0  0  0  0  0  0  0  0  0
  188.9250  176.8270  142.1960 C   0  0  0  0  0  0  0  0  0  0  0  0
  186.0370  178.2530  144.0770 C   0  0  0  0  0  3  0  0  0  0  0  0
  187.9210  178.2000  149.4290 C   0  0  0  0  0  1  0  0  0  0  0  0
  190.1580  176.3580  142.4400 C   0  0  0  0  0  3  0  0  0  0  0  0
  188.0940  177.3180  143.3370 C   0  0  0  0  0  0  0  0  0  0  0  0
  190.5300  176.6950  146.0980 N   0  0  0  0  0  0  0  0  0  0  0  0
  186.1420  178.7120  147.8430 C   0  0  0  0  0  3  0  0  0  0  0  0
  190.6180  176.3500  143.7890 N   0  0  0  0  0  0  0  0  0  0  0  0
  191.8860  175.9070  144.3290 C   0  0  0  0  0  2  0  0  0  0  0  0
  186.8450  177.7930  143.0890 N   0  0  0  0  0  0  0  0  0  0  0  0
  186.4710  178.2530  145.4000 C   0  0  0  0  0  0  0  0  0  0  0  0
  185.5440  178.7720  146.4670 C   0  0  0  0  0  3  0  0  0  0  0  0
  188.8290  179.1030  140.3380 O   0  0  0  0  0  0  0  0  0  0  0  0
  188.3500  177.9960  139.9740 C   0  0  0  0  0  0  0  0  0  0  0  0
  188.3860  176.8690  140.8650 N   0  0  0  0  0  2  0  0  0  0  0  0
  186.4500  177.5680  136.1390 C   0  0  0  0  0  0  0  0  0  0  0  0
  186.3580  178.0330  138.5060 C   0  0  0  0  0  3  0  0  0  0  0  0
  190.2210  177.2180  137.4580 Cl  0  0  0  0  0  0  0  0  0  0  0  0
  185.6450  177.4020  134.5940 Cl  0  0  0  0  0  0  0  0  0  0  0  0
  185.7150  177.9020  137.2750 C   0  0  0  0  0  3  0  0  0  0  0  0
  188.4840  177.4960  137.4630 C   0  0  0  0  0  0  0  0  0  0  0  0
  187.7440  177.8360  138.6270 C   0  0  0  0  0  0  0  0  0  0  0  0
  187.8260  177.3670  136.2360 C   0  0  0  0  0  3  0  0  0  0  0  0
  192.6640  175.9210  146.8120 N   0  0  0  0  0  0  0  0  0  0  0  0
  192.3860  175.9970  148.0730 C   0  0  0  0  0  2  0  0  0  0  0  0
  1  4  2  0  0  0  0
  2  1  1  6  0  0  0
  2  6  1  0  0  0  0
  3  9  1  0  0  0  0
  4 12  1  0  0  0  0
  5 12  2  0  0  0  0
  5 30  1  0  0  0  0
  6  3  2  0  0  0  0
  7 10  2  0  0  0  0
  7 11  1  0  0  0  0
  8 17  2  0  0  0  0
 10 14  1  0  0  0  0
 11  1  1  0  0  0  0
 13  3  1  0  0  0  0
 14 15  1  0  0  0  0
 14  4  1  0  0  0  0
 15  5  1  0  0  0  0
 16 11  2  0  0  0  0
 16  8  1  0  0  0  0
 17  2  1  0  0  0  0
 17 18  1  0  0  0  0
 18 13  2  0  0  0  0
 20 19  2  0  0  0  0
 20 21  1  0  0  0  0
 21  7  1  0  0  0  0
 22 29  2  0  0  0  0
 22 26  1  0  0  0  0
 23 28  1  0  0  0  0
 24 27  1  0  0  0  0
 25 22  1  0  0  0  0
 26 23  2  0  0  0  0
 27 28  2  0  0  0  0
 28 20  1  0  0  0  0
 29 27  1  0  0  0  0
 30 31  2  0  0  0  0
M  END
>  <MODEL>
9

>  <REMARK>
 VINA RESULT:      -8.7      2.621      4.872
  Name = 
  3 active torsions:
  status: ('A' for Active; 'I' for Inactive)
    1  A    between atoms: N_2  and  C_13
    2  A    between atoms: C_9  and  C_22
    3  A    between atoms: C_15  and  N_23
                            x       y       z     vdW  Elec       q    Type
                         _______ _______ _______ _____ _____    ______ ____

>  <TORSDO>
F 3

$$$$
