=
 OpenBabel11052413423D

 27 30  0  0  1  0  0  0  0  0999 V2000
  182.7200  180.3100  138.9350 C   0  0  0  0  0  2  0  0  0  0  0  0
  184.2980  178.9770  140.5330 C   0  0  0  0  0  0  0  0  0  0  0  0
  182.1380  178.9840  141.6200 O   0  0  0  0  0  0  0  0  0  0  0  0
  186.3670  178.4480  144.1020 C   0  0  0  0  0  3  0  0  0  0  0  0
  186.4690  178.1460  146.5780 C   0  0  0  0  0  1  0  0  0  0  0  0
  185.6520  178.8920  140.5930 N   0  0  0  0  0  0  0  0  0  0  0  0
  183.5810  178.5790  144.1790 C   0  0  0  0  0  3  0  0  0  0  0  0
  180.0360  180.9300  141.8590 N   0  0  0  0  0  2  0  0  0  0  0  0
  184.3050  178.4010  145.3600 C   0  0  0  0  0  3  0  0  0  0  0  0
  178.9310  181.2980  140.9820 C   0  0  0  0  0  2  0  0  0  0  0  0
  183.5380  178.8800  141.7190 C   0  0  0  0  0  0  0  0  0  0  0  0
  183.6770  179.1210  139.1680 C   0  0  1  0  0  3  0  0  0  0  0  0
  185.6980  178.3360  145.3220 C   0  0  0  0  0  0  0  0  0  0  0  0
  185.6440  178.6260  142.9190 C   0  0  0  0  0  0  0  0  0  0  0  0
  181.2510  179.9470  139.0510 C   0  0  0  0  0  2  0  0  0  0  0  0
  184.2330  178.6970  142.9420 C   0  0  0  0  0  0  0  0  0  0  0  0
  179.8800  179.5330  142.2350 C   0  0  0  0  0  2  0  0  0  0  0  0
  186.3040  178.7270  141.7410 N   0  0  0  0  0  0  0  0  0  0  0  0
  179.1350  180.7570  139.5690 C   0  0  0  0  0  2  0  0  0  0  0  0
  180.4370  181.1490  139.0500 N   0  0  0  0  0  2  0  0  0  0  0  0
  181.2160  178.9870  142.7030 C   0  0  0  0  0  2  0  0  0  0  0  0
  183.7640  175.0300  137.9260 C   0  0  0  0  0  2  0  0  0  0  0  0
  183.4010  177.8400  138.4940 N   0  0  0  0  0  0  0  0  0  0  0  0
  183.0280  176.8280  139.4870 C   0  0  0  0  0  2  0  0  0  0  0  0
  182.6130  175.5370  138.7870 C   0  0  0  0  0  2  0  0  0  0  0  0
  184.2130  176.1150  136.9530 C   0  0  0  0  0  2  0  0  0  0  0  0
  184.5640  177.3820  137.7280 C   0  0  0  0  0  2  0  0  0  0  0  0
  1 15  1  0  0  0  0
  1 12  1  0  0  0  0
  2  6  2  0  0  0  0
  2 11  1  0  0  0  0
  3 11  1  0  0  0  0
  3 21  1  0  0  0  0
  4 13  2  0  0  0  0
  6 18  1  0  0  0  0
  7  9  2  0  0  0  0
  8 17  1  0  0  0  0
 10  8  1  0  0  0  0
 11 16  2  0  0  0  0
 12 23  1  1  0  0  0
 12  2  1  0  0  0  0
 13  9  1  0  0  0  0
 13  5  1  0  0  0  0
 14 16  1  0  0  0  0
 14  4  1  0  0  0  0
 16  7  1  0  0  0  0
 17 21  1  0  0  0  0
 18 14  2  0  0  0  0
 19 10  1  0  0  0  0
 20 15  1  0  0  0  0
 20 19  1  0  0  0  0
 22 25  1  0  0  0  0
 23 24  1  0  0  0  0
 25 24  1  0  0  0  0
 26 27  1  0  0  0  0
 26 22  1  0  0  0  0
 27 23  1  0  0  0  0
M  END
>  <MODEL>
1

>  <REMARK>
 VINA RESULT:      -8.1      0.000      0.000
  Name = 
  1 active torsions:
  status: ('A' for Active; 'I' for Inactive)
    1  A    between atoms: N_9  and  C_15
                            x       y       z     vdW  Elec       q    Type
                         _______ _______ _______ _____ _____    ______ ____

>  <TORSDO>
F 1

$$$$
=
 OpenBabel11052413423D

 27 30  0  0  1  0  0  0  0  0999 V2000
  182.2460  180.3040  138.9910 C   0  0  0  0  0  2  0  0  0  0  0  0
  184.2130  178.9320  140.0260 C   0  0  0  0  0  0  0  0  0  0  0  0
  182.4100  178.7820  141.6300 O   0  0  0  0  0  0  0  0  0  0  0  0
  187.1500  178.2530  142.8920 C   0  0  0  0  0  3  0  0  0  0  0  0
  187.8980  177.7920  145.2290 C   0  0  0  0  0  1  0  0  0  0  0  0
  185.5380  178.8980  139.7280 N   0  0  0  0  0  0  0  0  0  0  0  0
  184.4760  178.2670  143.6930 C   0  0  0  0  0  3  0  0  0  0  0  0
  180.4010  180.6220  142.5460 N   0  0  0  0  0  2  0  0  0  0  0  0
  185.4860  178.0400  144.6320 C   0  0  0  0  0  3  0  0  0  0  0  0
  179.0980  181.0040  142.0130 C   0  0  0  0  0  2  0  0  0  0  0  0
  183.7900  178.7280  141.3570 C   0  0  0  0  0  0  0  0  0  0  0  0
  183.2570  179.1420  138.8810 C   0  0  1  0  0  3  0  0  0  0  0  0
  186.8230  178.0340  144.2320 C   0  0  0  0  0  0  0  0  0  0  0  0
  186.1410  178.4790  141.9520 C   0  0  0  0  0  0  0  0  0  0  0  0
  180.8660  179.8760  139.4550 C   0  0  0  0  0  2  0  0  0  0  0  0
  184.7830  178.4920  142.3420 C   0  0  0  0  0  0  0  0  0  0  0  0
  180.3780  179.1990  142.8440 C   0  0  0  0  0  2  0  0  0  0  0  0
  186.4700  178.6840  140.6550 N   0  0  0  0  0  0  0  0  0  0  0  0
  178.9410  180.5650  140.5580 C   0  0  0  0  0  2  0  0  0  0  0  0
  180.0540  181.0420  139.7520 N   0  0  0  0  0  2  0  0  0  0  0  0
  181.8020  178.6760  142.9100 C   0  0  0  0  0  2  0  0  0  0  0  0
  182.9860  175.8010  136.2240 C   0  0  0  0  0  2  0  0  0  0  0  0
  182.8430  177.8980  138.2080 N   0  0  0  0  0  0  0  0  0  0  0  0
  183.9460  176.9320  138.2270 C   0  0  0  0  0  2  0  0  0  0  0  0
  183.4820  175.5980  137.6520 C   0  0  0  0  0  2  0  0  0  0  0  0
  181.8990  176.8710  136.1920 C   0  0  0  0  0  2  0  0  0  0  0  0
  182.4280  178.1540  136.8260 C   0  0  0  0  0  2  0  0  0  0  0  0
  1 15  1  0  0  0  0
  2 11  1  0  0  0  0
  3 21  1  0  0  0  0
  4 13  2  0  0  0  0
  6  2  2  0  0  0  0
  6 18  1  0  0  0  0
  7  9  2  0  0  0  0
  8 17  1  0  0  0  0
 10  8  1  0  0  0  0
 11  3  1  0  0  0  0
 11 16  2  0  0  0  0
 12 23  1  1  0  0  0
 12  1  1  0  0  0  0
 12  2  1  0  0  0  0
 13  9  1  0  0  0  0
 13  5  1  0  0  0  0
 14 16  1  0  0  0  0
 14  4  1  0  0  0  0
 15 20  1  0  0  0  0
 16  7  1  0  0  0  0
 17 21  1  0  0  0  0
 18 14  2  0  0  0  0
 19 10  1  0  0  0  0
 20 19  1  0  0  0  0
 22 25  1  0  0  0  0
 23 24  1  0  0  0  0
 25 24  1  0  0  0  0
 26 22  1  0  0  0  0
 26 27  1  0  0  0  0
 27 23  1  0  0  0  0
M  END
>  <MODEL>
2

>  <REMARK>
 VINA RESULT:      -7.7      1.113      1.267
  Name = 
  1 active torsions:
  status: ('A' for Active; 'I' for Inactive)
    1  A    between atoms: N_9  and  C_15
                            x       y       z     vdW  Elec       q    Type
                         _______ _______ _______ _____ _____    ______ ____

>  <TORSDO>
F 1

$$$$
=
 OpenBabel11052413423D

 27 30  0  0  1  0  0  0  0  0999 V2000
  184.6590  179.7420  143.1280 C   0  0  0  0  0  2  0  0  0  0  0  0
  186.0300  178.6520  141.1910 C   0  0  0  0  0  0  0  0  0  0  0  0
  186.6920  177.4680  143.1920 O   0  0  0  0  0  0  0  0  0  0  0  0
  189.5750  177.7720  139.2010 C   0  0  0  0  0  3  0  0  0  0  0  0
  191.8300  176.7100  139.0600 C   0  0  0  0  0  1  0  0  0  0  0  0
  186.2880  179.0740  139.9260 N   0  0  0  0  0  0  0  0  0  0  0  0
  189.2190  176.8000  141.7920 C   0  0  0  0  0  3  0  0  0  0  0  0
  187.1420  178.2620  145.9180 N   0  0  0  0  0  2  0  0  0  0  0  0
  190.3980  176.5200  141.0960 C   0  0  0  0  0  3  0  0  0  0  0  0
  186.2420  178.4570  147.0480 C   0  0  0  0  0  2  0  0  0  0  0  0
  186.9890  177.8780  141.8790 C   0  0  0  0  0  0  0  0  0  0  0  0
  184.6850  179.0040  141.7720 C   0  0  1  0  0  3  0  0  0  0  0  0
  190.5770  177.0070  139.8010 C   0  0  0  0  0  0  0  0  0  0  0  0
  188.3940  178.0520  139.8950 C   0  0  0  0  0  0  0  0  0  0  0  0
  184.4150  178.8320  144.3180 C   0  0  0  0  0  2  0  0  0  0  0  0
  188.2010  177.5700  141.2080 C   0  0  0  0  0  0  0  0  0  0  0  0
  187.0550  176.8740  145.4930 C   0  0  0  0  0  2  0  0  0  0  0  0
  187.4280  178.7910  139.3000 N   0  0  0  0  0  0  0  0  0  0  0  0
  184.7870  178.5490  146.5930 C   0  0  0  0  0  2  0  0  0  0  0  0
  184.6340  179.5570  145.5560 N   0  0  0  0  0  2  0  0  0  0  0  0
  187.5560  176.7530  144.0660 C   0  0  0  0  0  2  0  0  0  0  0  0
  181.3780  176.9400  140.0150 C   0  0  0  0  0  2  0  0  0  0  0  0
  183.6260  178.0260  141.4710 N   0  0  0  0  0  0  0  0  0  0  0  0
  183.8040  177.5030  140.1130 C   0  0  0  0  0  2  0  0  0  0  0  0
  182.7910  176.3940  139.8430 C   0  0  0  0  0  2  0  0  0  0  0  0
  181.2190  177.5650  141.3970 C   0  0  0  0  0  2  0  0  0  0  0  0
  182.2950  178.6270  141.6030 C   0  0  0  0  0  2  0  0  0  0  0  0
  1 15  1  0  0  0  0
  2 12  1  0  0  0  0
  2 11  1  0  0  0  0
  3 21  1  0  0  0  0
  4 13  2  0  0  0  0
  4 14  1  0  0  0  0
  5 13  1  0  0  0  0
  6  2  2  0  0  0  0
  8 10  1  0  0  0  0
  9  7  2  0  0  0  0
 11  3  1  0  0  0  0
 12 23  1  1  0  0  0
 12  1  1  0  0  0  0
 13  9  1  0  0  0  0
 14 16  1  0  0  0  0
 15 20  1  0  0  0  0
 16  7  1  0  0  0  0
 16 11  2  0  0  0  0
 17  8  1  0  0  0  0
 18 14  2  0  0  0  0
 18  6  1  0  0  0  0
 19 10  1  0  0  0  0
 20 19  1  0  0  0  0
 21 17  1  0  0  0  0
 22 26  1  0  0  0  0
 23 27  1  0  0  0  0
 24 23  1  0  0  0  0
 25 22  1  0  0  0  0
 25 24  1  0  0  0  0
 26 27  1  0  0  0  0
M  END
>  <MODEL>
3

>  <REMARK>
 VINA RESULT:      -7.3      3.305      5.929
  Name = 
  1 active torsions:
  status: ('A' for Active; 'I' for Inactive)
    1  A    between atoms: N_9  and  C_15
                            x       y       z     vdW  Elec       q    Type
                         _______ _______ _______ _____ _____    ______ ____

>  <TORSDO>
F 1

$$$$
=
 OpenBabel11052413423D

 27 30  0  0  1  0  0  0  0  0999 V2000
  192.1470  177.4360  139.0950 C   0  0  0  0  0  2  0  0  0  0  0  0
  189.5380  177.5210  139.1800 C   0  0  0  0  0  0  0  0  0  0  0  0
  190.0770  175.4640  138.0300 O   0  0  0  0  0  0  0  0  0  0  0  0
  185.7820  177.8110  137.4160 C   0  0  0  0  0  3  0  0  0  0  0  0
  183.9730  176.9780  135.9110 C   0  0  0  0  0  1  0  0  0  0  0  0
  188.6810  178.5430  139.4380 N   0  0  0  0  0  0  0  0  0  0  0  0
  187.3950  175.6260  136.7760 C   0  0  0  0  0  3  0  0  0  0  0  0
  192.1110  174.7130  136.1420 N   0  0  0  0  0  2  0  0  0  0  0  0
  186.1280  175.7510  136.2010 C   0  0  0  0  0  3  0  0  0  0  0  0
  193.4960  174.2880  136.3040 C   0  0  0  0  0  2  0  0  0  0  0  0
  189.1590  176.5000  138.2820 C   0  0  0  0  0  0  0  0  0  0  0  0
  190.8470  177.5180  139.9250 C   0  0  1  0  0  3  0  0  0  0  0  0
  185.3210  176.8440  136.5210 C   0  0  0  0  0  0  0  0  0  0  0  0
  187.0490  177.6870  137.9930 C   0  0  0  0  0  0  0  0  0  0  0  0
  192.7300  176.0390  139.0030 C   0  0  0  0  0  2  0  0  0  0  0  0
  187.8790  176.5880  137.6760 C   0  0  0  0  0  0  0  0  0  0  0  0
  191.2520  173.7530  136.8170 C   0  0  0  0  0  2  0  0  0  0  0  0
  187.4820  178.6280  138.8640 N   0  0  0  0  0  0  0  0  0  0  0  0
  194.0170  174.6050  137.7040 C   0  0  0  0  0  2  0  0  0  0  0  0
  193.8040  176.0080  138.0280 N   0  0  0  0  0  2  0  0  0  0  0  0
  189.9080  174.3970  137.1060 C   0  0  0  0  0  2  0  0  0  0  0  0
  190.2610  176.6230  144.0660 C   0  0  0  0  0  2  0  0  0  0  0  0
  190.7920  176.8420  141.2330 N   0  0  0  0  0  0  0  0  0  0  0  0
  189.4130  176.8360  141.7320 C   0  0  0  0  0  2  0  0  0  0  0  0
  189.3270  176.0240  143.0200 C   0  0  0  0  0  2  0  0  0  0  0  0
  191.6800  176.7120  143.5150 C   0  0  0  0  0  2  0  0  0  0  0  0
  191.6710  177.4980  142.2060 C   0  0  0  0  0  2  0  0  0  0  0  0
  2  6  1  0  0  0  0
  2 12  1  0  0  0  0
  3 11  1  0  0  0  0
  4 14  1  0  0  0  0
  5 13  1  0  0  0  0
  7 16  1  0  0  0  0
  8 10  1  0  0  0  0
  8 17  1  0  0  0  0
  9 13  1  0  0  0  0
  9  7  2  0  0  0  0
 10 19  1  0  0  0  0
 11  2  2  0  0  0  0
 12  1  1  6  0  0  0
 12 23  1  0  0  0  0
 13  4  2  0  0  0  0
 14 18  1  0  0  0  0
 15  1  1  0  0  0  0
 16 14  2  0  0  0  0
 16 11  1  0  0  0  0
 17 21  1  0  0  0  0
 18  6  2  0  0  0  0
 19 20  1  0  0  0  0
 20 15  1  0  0  0  0
 21  3  1  0  0  0  0
 23 24  1  0  0  0  0
 23 27  1  0  0  0  0
 24 25  1  0  0  0  0
 25 22  1  0  0  0  0
 26 22  1  0  0  0  0
 27 26  1  0  0  0  0
M  END
>  <MODEL>
4

>  <REMARK>
 VINA RESULT:      -7.1      5.877      9.987
  Name = 
  1 active torsions:
  status: ('A' for Active; 'I' for Inactive)
    1  A    between atoms: N_9  and  C_15
                            x       y       z     vdW  Elec       q    Type
                         _______ _______ _______ _____ _____    ______ ____

>  <TORSDO>
F 1

$$$$
=
 OpenBabel11052413423D

 27 30  0  0  1  0  0  0  0  0999 V2000
  180.7850  178.0280  138.8190 C   0  0  0  0  0  2  0  0  0  0  0  0
  181.5620  179.0040  141.1130 C   0  0  0  0  0  0  0  0  0  0  0  0
  183.5830  178.7220  139.8160 O   0  0  0  0  0  0  0  0  0  0  0  0
  183.5700  178.7690  144.7490 C   0  0  0  0  0  3  0  0  0  0  0  0
  185.6390  178.5210  146.1230 C   0  0  0  0  0  1  0  0  0  0  0  0
  180.9290  179.0950  142.3110 N   0  0  0  0  0  0  0  0  0  0  0  0
  185.0490  178.5780  142.3900 C   0  0  0  0  0  3  0  0  0  0  0  0
  184.4870  176.7370  137.9440 N   0  0  0  0  0  2  0  0  0  0  0  0
  185.6940  178.5050  143.6270 C   0  0  0  0  0  3  0  0  0  0  0  0
  184.2560  176.5520  136.5160 C   0  0  0  0  0  2  0  0  0  0  0  0
  182.9620  178.8250  141.0750 C   0  0  0  0  0  0  0  0  0  0  0  0
  180.7170  179.1530  139.8750 C   0  0  1  0  0  3  0  0  0  0  0  0
  184.9540  178.5990  144.8070 C   0  0  0  0  0  0  0  0  0  0  0  0
  182.9230  178.8430  143.5120 C   0  0  0  0  0  0  0  0  0  0  0  0
  181.7130  178.3320  137.6570 C   0  0  0  0  0  2  0  0  0  0  0  0
  183.6570  178.7460  142.3090 C   0  0  0  0  0  0  0  0  0  0  0  0
  185.1550  178.0140  138.1410 C   0  0  0  0  0  2  0  0  0  0  0  0
  181.5810  179.0140  143.4690 N   0  0  0  0  0  0  0  0  0  0  0  0
  183.0790  177.3940  136.0280 C   0  0  0  0  0  2  0  0  0  0  0  0
  181.8960  177.1470  136.8400 N   0  0  0  0  0  2  0  0  0  0  0  0
  184.9620  178.4660  139.5770 C   0  0  0  0  0  2  0  0  0  0  0  0
  180.0620  182.6570  137.5130 C   0  0  0  0  0  2  0  0  0  0  0  0
  180.5510  180.5450  139.4250 N   0  0  0  0  0  0  0  0  0  0  0  0
  179.2180  180.7220  138.8400 C   0  0  0  0  0  2  0  0  0  0  0  0
  178.9900  182.1900  138.4930 C   0  0  0  0  0  2  0  0  0  0  0  0
  181.4500  182.3910  138.0860 C   0  0  0  0  0  2  0  0  0  0  0  0
  181.5780  180.9140  138.4470 C   0  0  0  0  0  2  0  0  0  0  0  0
  2  6  1  0  0  0  0
  3 11  1  0  0  0  0
  4 13  1  0  0  0  0
  6 18  2  0  0  0  0
  7  9  1  0  0  0  0
  8 17  1  0  0  0  0
  9 13  2  0  0  0  0
 10  8  1  0  0  0  0
 11  2  2  0  0  0  0
 11 16  1  0  0  0  0
 12  1  1  6  0  0  0
 12  2  1  0  0  0  0
 13  5  1  0  0  0  0
 14  4  2  0  0  0  0
 15  1  1  0  0  0  0
 16  7  2  0  0  0  0
 16 14  1  0  0  0  0
 17 21  1  0  0  0  0
 18 14  1  0  0  0  0
 19 10  1  0  0  0  0
 19 20  1  0  0  0  0
 20 15  1  0  0  0  0
 21  3  1  0  0  0  0
 22 26  1  0  0  0  0
 22 25  1  0  0  0  0
 23 12  1  0  0  0  0
 24 23  1  0  0  0  0
 25 24  1  0  0  0  0
 26 27  1  0  0  0  0
 27 23  1  0  0  0  0
M  END
>  <MODEL>
5

>  <REMARK>
 VINA RESULT:      -7.1      1.863      4.791
  Name = 
  1 active torsions:
  status: ('A' for Active; 'I' for Inactive)
    1  A    between atoms: N_9  and  C_15
                            x       y       z     vdW  Elec       q    Type
                         _______ _______ _______ _____ _____    ______ ____

>  <TORSDO>
F 1

$$$$
=
 OpenBabel11052413423D

 27 30  0  0  1  0  0  0  0  0999 V2000
  190.5870  177.8480  139.0120 C   0  0  0  0  0  2  0  0  0  0  0  0
  187.9800  177.6970  138.9300 C   0  0  0  0  0  0  0  0  0  0  0  0
  188.7760  175.7420  137.7500 O   0  0  0  0  0  0  0  0  0  0  0  0
  184.3300  177.7190  136.9370 C   0  0  0  0  0  3  0  0  0  0  0  0
  182.7010  176.7880  135.2900 C   0  0  0  0  0  1  0  0  0  0  0  0
  187.0190  178.6270  139.1650 N   0  0  0  0  0  0  0  0  0  0  0  0
  186.1730  175.7130  136.3300 C   0  0  0  0  0  3  0  0  0  0  0  0
  190.9820  175.2490  135.9750 N   0  0  0  0  0  2  0  0  0  0  0  0
  184.9370  175.7470  135.6790 C   0  0  0  0  0  3  0  0  0  0  0  0
  192.3880  174.9430  136.2120 C   0  0  0  0  0  2  0  0  0  0  0  0
  187.7530  176.6820  137.9760 C   0  0  0  0  0  0  0  0  0  0  0  0
  189.2360  177.7810  139.7590 C   0  0  1  0  0  3  0  0  0  0  0  0
  184.0150  176.7510  135.9820 C   0  0  0  0  0  0  0  0  0  0  0  0
  185.5650  177.6860  137.5900 C   0  0  0  0  0  0  0  0  0  0  0  0
  191.3000  176.5120  138.9120 C   0  0  0  0  0  2  0  0  0  0  0  0
  186.5100  176.6790  137.2920 C   0  0  0  0  0  0  0  0  0  0  0  0
  190.1740  174.1910  136.5610 C   0  0  0  0  0  2  0  0  0  0  0  0
  185.8560  178.6280  138.5180 N   0  0  0  0  0  0  0  0  0  0  0  0
  192.7900  175.2510  137.6530 C   0  0  0  0  0  2  0  0  0  0  0  0
  192.4310  176.6150  138.0090 N   0  0  0  0  0  2  0  0  0  0  0  0
  188.7620  174.7010  136.7820 C   0  0  0  0  0  2  0  0  0  0  0  0
  189.2790  176.7530  143.9090 C   0  0  0  0  0  2  0  0  0  0  0  0
  189.1620  177.0530  141.0370 N   0  0  0  0  0  0  0  0  0  0  0  0
  188.1270  177.6480  141.8880 C   0  0  0  0  0  2  0  0  0  0  0  0
  187.9550  176.8200  143.1570 C   0  0  0  0  0  2  0  0  0  0  0  0
  190.3770  176.2180  142.9960 C   0  0  0  0  0  2  0  0  0  0  0  0
  190.4520  177.0720  141.7340 C   0  0  0  0  0  2  0  0  0  0  0  0
  2  6  1  0  0  0  0
  2 12  1  0  0  0  0
  3 11  1  0  0  0  0
  4 14  1  0  0  0  0
  5 13  1  0  0  0  0
  7 16  1  0  0  0  0
  8 10  1  0  0  0  0
  8 17  1  0  0  0  0
  9 13  1  0  0  0  0
  9  7  2  0  0  0  0
 10 19  1  0  0  0  0
 11  2  2  0  0  0  0
 12  1  1  6  0  0  0
 12 23  1  0  0  0  0
 13  4  2  0  0  0  0
 14 18  1  0  0  0  0
 15  1  1  0  0  0  0
 16 14  2  0  0  0  0
 16 11  1  0  0  0  0
 17 21  1  0  0  0  0
 18  6  2  0  0  0  0
 19 20  1  0  0  0  0
 20 15  1  0  0  0  0
 21  3  1  0  0  0  0
 23 27  1  0  0  0  0
 23 24  1  0  0  0  0
 24 25  1  0  0  0  0
 25 22  1  0  0  0  0
 26 22  1  0  0  0  0
 27 26  1  0  0  0  0
M  END
>  <MODEL>
6

>  <REMARK>
 VINA RESULT:      -6.9      4.856      9.236
  Name = 
  1 active torsions:
  status: ('A' for Active; 'I' for Inactive)
    1  A    between atoms: N_9  and  C_15
                            x       y       z     vdW  Elec       q    Type
                         _______ _______ _______ _____ _____    ______ ____

>  <TORSDO>
F 1

$$$$
=
 OpenBabel11052413423D

 27 30  0  0  1  0  0  0  0  0999 V2000
  189.4290  178.3140  139.1720 C   0  0  0  0  0  2  0  0  0  0  0  0
  186.8740  178.4360  139.6990 C   0  0  0  0  0  0  0  0  0  0  0  0
  187.1080  176.6830  138.0500 O   0  0  0  0  0  0  0  0  0  0  0  0
  182.9150  179.2030  138.6810 C   0  0  0  0  0  3  0  0  0  0  0  0
  180.8500  178.7760  137.3450 C   0  0  0  0  0  1  0  0  0  0  0  0
  186.1280  179.3910  140.3120 N   0  0  0  0  0  0  0  0  0  0  0  0
  184.2790  177.1860  137.3180 C   0  0  0  0  0  3  0  0  0  0  0  0
  188.7790  176.3360  135.7360 N   0  0  0  0  0  2  0  0  0  0  0  0
  182.9480  177.4670  137.0010 C   0  0  0  0  0  3  0  0  0  0  0  0
  190.1450  175.8540  135.5710 C   0  0  0  0  0  2  0  0  0  0  0  0
  186.3020  177.6550  138.6710 C   0  0  0  0  0  0  0  0  0  0  0  0
  188.2800  178.2330  140.2000 C   0  0  1  0  0  3  0  0  0  0  0  0
  182.2650  178.4760  137.6810 C   0  0  0  0  0  0  0  0  0  0  0  0
  184.2460  178.9230  139.0000 C   0  0  0  0  0  0  0  0  0  0  0  0
  189.9080  176.9610  138.6790 C   0  0  0  0  0  2  0  0  0  0  0  0
  184.9510  177.9070  138.3170 C   0  0  0  0  0  0  0  0  0  0  0  0
  187.9790  175.2660  136.3140 C   0  0  0  0  0  2  0  0  0  0  0  0
  184.8630  179.6310  139.9750 N   0  0  0  0  0  0  0  0  0  0  0  0
  190.8930  175.8320  136.9030 C   0  0  0  0  0  2  0  0  0  0  0  0
  190.8160  177.1290  137.5590 N   0  0  0  0  0  2  0  0  0  0  0  0
  186.7360  175.8580  136.9530 C   0  0  0  0  0  2  0  0  0  0  0  0
  189.0290  176.4290  144.0050 C   0  0  0  0  0  2  0  0  0  0  0  0
  188.3880  177.2790  141.3180 N   0  0  0  0  0  0  0  0  0  0  0  0
  187.5950  177.7560  142.4550 C   0  0  0  0  0  2  0  0  0  0  0  0
  187.5950  176.7100  143.5660 C   0  0  0  0  0  2  0  0  0  0  0  0
  189.8760  176.0190  142.8040 C   0  0  0  0  0  2  0  0  0  0  0  0
  189.7840  177.0950  141.7250 C   0  0  0  0  0  2  0  0  0  0  0  0
  2 12  1  0  0  0  0
  2  6  1  0  0  0  0
  3 11  1  0  0  0  0
  4 14  1  0  0  0  0
  5 13  1  0  0  0  0
  7 16  1  0  0  0  0
  8 17  1  0  0  0  0
  9  7  2  0  0  0  0
  9 13  1  0  0  0  0
 10  8  1  0  0  0  0
 10 19  1  0  0  0  0
 11  2  2  0  0  0  0
 12  1  1  6  0  0  0
 12 23  1  0  0  0  0
 13  4  2  0  0  0  0
 14 18  1  0  0  0  0
 15  1  1  0  0  0  0
 16 11  1  0  0  0  0
 16 14  2  0  0  0  0
 17 21  1  0  0  0  0
 18  6  2  0  0  0  0
 19 20  1  0  0  0  0
 20 15  1  0  0  0  0
 21  3  1  0  0  0  0
 23 27  1  0  0  0  0
 23 24  1  0  0  0  0
 24 25  1  0  0  0  0
 25 22  1  0  0  0  0
 26 22  1  0  0  0  0
 27 26  1  0  0  0  0
M  END
>  <MODEL>
7

>  <REMARK>
 VINA RESULT:      -6.8      3.790      7.980
  Name = 
  1 active torsions:
  status: ('A' for Active; 'I' for Inactive)
    1  A    between atoms: N_9  and  C_15
                            x       y       z     vdW  Elec       q    Type
                         _______ _______ _______ _____ _____    ______ ____

>  <TORSDO>
F 1

$$$$
=
 OpenBabel11052413423D

 27 30  0  0  1  0  0  0  0  0999 V2000
  188.1480  178.9660  140.0060 C   0  0  0  0  0  2  0  0  0  0  0  0
  189.8250  177.7330  141.5840 C   0  0  0  0  0  0  0  0  0  0  0  0
  187.6370  177.3220  142.5250 O   0  0  0  0  0  0  0  0  0  0  0  0
  191.7650  177.1790  145.2210 C   0  0  0  0  0  3  0  0  0  0  0  0
  191.7840  176.6640  147.6640 C   0  0  0  0  0  1  0  0  0  0  0  0
  191.1720  177.8420  141.7240 N   0  0  0  0  0  0  0  0  0  0  0  0
  188.9900  176.8940  145.1280 C   0  0  0  0  0  3  0  0  0  0  0  0
  185.2550  178.9100  142.7930 N   0  0  0  0  0  2  0  0  0  0  0  0
  189.6720  176.7130  146.3350 C   0  0  0  0  0  3  0  0  0  0  0  0
  184.1530  179.1940  141.8810 C   0  0  0  0  0  2  0  0  0  0  0  0
  189.0290  177.4150  142.7050 C   0  0  0  0  0  0  0  0  0  0  0  0
  189.2610  177.9130  140.1980 C   0  0  1  0  0  3  0  0  0  0  0  0
  191.0590  176.8560  146.3820 C   0  0  0  0  0  0  0  0  0  0  0  0
  191.0850  177.3600  144.0130 C   0  0  0  0  0  0  0  0  0  0  0  0
  186.7470  178.3830  139.9960 C   0  0  0  0  0  2  0  0  0  0  0  0
  189.6810  177.2220  143.9510 C   0  0  0  0  0  0  0  0  0  0  0  0
  185.2930  177.4760  143.0370 C   0  0  0  0  0  2  0  0  0  0  0  0
  191.7820  177.6670  142.8940 N   0  0  0  0  0  0  0  0  0  0  0  0
  184.5100  178.8230  140.4420 C   0  0  0  0  0  2  0  0  0  0  0  0
  185.7620  179.4480  140.0440 N   0  0  0  0  0  2  0  0  0  0  0  0
  186.6710  177.0890  143.5420 C   0  0  0  0  0  2  0  0  0  0  0  0
  189.5500  175.0500  137.0340 C   0  0  0  0  0  2  0  0  0  0  0  0
  189.2170  176.6740  139.4020 N   0  0  0  0  0  0  0  0  0  0  0  0
  190.5590  176.3580  138.9020 C   0  0  0  0  0  2  0  0  0  0  0  0
  190.5450  175.0090  138.1890 C   0  0  0  0  0  2  0  0  0  0  0  0
  188.1730  175.4670  137.5410 C   0  0  0  0  0  2  0  0  0  0  0  0
  188.2830  176.7980  138.2790 C   0  0  0  0  0  2  0  0  0  0  0  0
  1 12  1  0  0  0  0
  2  6  2  0  0  0  0
  2 11  1  0  0  0  0
  3 11  1  0  0  0  0
  3 21  1  0  0  0  0
  4 13  2  0  0  0  0
  6 18  1  0  0  0  0
  7  9  2  0  0  0  0
  8 17  1  0  0  0  0
  9 13  1  0  0  0  0
 10  8  1  0  0  0  0
 11 16  2  0  0  0  0
 12 23  1  1  0  0  0
 12  2  1  0  0  0  0
 13  5  1  0  0  0  0
 14  4  1  0  0  0  0
 15  1  1  0  0  0  0
 15 20  1  0  0  0  0
 16 14  1  0  0  0  0
 16  7  1  0  0  0  0
 17 21  1  0  0  0  0
 18 14  2  0  0  0  0
 19 10  1  0  0  0  0
 20 19  1  0  0  0  0
 22 26  1  0  0  0  0
 22 25  1  0  0  0  0
 24 23  1  0  0  0  0
 25 24  1  0  0  0  0
 26 27  1  0  0  0  0
 27 23  1  0  0  0  0
M  END
>  <MODEL>
8

>  <REMARK>
 VINA RESULT:      -6.2      4.179      5.813
  Name = 
  1 active torsions:
  status: ('A' for Active; 'I' for Inactive)
    1  A    between atoms: N_9  and  C_15
                            x       y       z     vdW  Elec       q    Type
                         _______ _______ _______ _____ _____    ______ ____

>  <TORSDO>
F 1

$$$$
=
 OpenBabel11052413423D

 27 30  0  0  1  0  0  0  0  0999 V2000
  188.3290  178.4490  138.4190 C   0  0  0  0  0  2  0  0  0  0  0  0
  189.7960  177.3720  140.2930 C   0  0  0  0  0  0  0  0  0  0  0  0
  187.5530  177.4430  141.1930 O   0  0  0  0  0  0  0  0  0  0  0  0
  191.5700  177.3500  144.0550 C   0  0  0  0  0  3  0  0  0  0  0  0
  191.4710  177.3560  146.5490 C   0  0  0  0  0  1  0  0  0  0  0  0
  191.1420  177.3380  140.4710 N   0  0  0  0  0  0  0  0  0  0  0  0
  188.7840  177.4010  143.8900 C   0  0  0  0  0  3  0  0  0  0  0  0
  185.3970  179.3360  141.0180 N   0  0  0  0  0  2  0  0  0  0  0  0
  189.4110  177.3910  145.1390 C   0  0  0  0  0  3  0  0  0  0  0  0
  184.3610  179.5600  140.0150 C   0  0  0  0  0  2  0  0  0  0  0  0
  188.9420  177.3970  141.4160 C   0  0  0  0  0  0  0  0  0  0  0  0
  189.2890  177.3280  138.8750 C   0  0  1  0  0  3  0  0  0  0  0  0
  190.8040  177.3660  145.2220 C   0  0  0  0  0  0  0  0  0  0  0  0
  190.9450  177.3590  142.8050 C   0  0  0  0  0  0  0  0  0  0  0  0
  186.8640  178.0570  138.4610 C   0  0  0  0  0  2  0  0  0  0  0  0
  189.5360  177.3870  142.7050 C   0  0  0  0  0  0  0  0  0  0  0  0
  185.2400  177.9910  141.5510 C   0  0  0  0  0  2  0  0  0  0  0  0
  191.6990  177.3360  141.6800 N   0  0  0  0  0  0  0  0  0  0  0  0
  184.6960  178.8560  138.7020 C   0  0  0  0  0  2  0  0  0  0  0  0
  186.0270  179.2230  138.2440 N   0  0  0  0  0  2  0  0  0  0  0  0
  186.5440  177.5490  142.1890 C   0  0  0  0  0  2  0  0  0  0  0  0
  188.9820  173.9240  136.3040 C   0  0  0  0  0  2  0  0  0  0  0  0
  189.0990  175.9670  138.3460 N   0  0  0  0  0  0  0  0  0  0  0  0
  190.3220  175.5190  137.6730 C   0  0  0  0  0  2  0  0  0  0  0  0
  190.1780  174.0640  137.2400 C   0  0  0  0  0  2  0  0  0  0  0  0
  187.7250  174.4720  136.9720 C   0  0  0  0  0  2  0  0  0  0  0  0
  187.9690  175.9130  137.4140 C   0  0  0  0  0  2  0  0  0  0  0  0
  1 15  1  0  0  0  0
  1 12  1  0  0  0  0
  2  6  2  0  0  0  0
  2 11  1  0  0  0  0
  3 11  1  0  0  0  0
  3 21  1  0  0  0  0
  4 13  2  0  0  0  0
  6 18  1  0  0  0  0
  7  9  2  0  0  0  0
  8 17  1  0  0  0  0
  9 13  1  0  0  0  0
 10  8  1  0  0  0  0
 11 16  2  0  0  0  0
 12 23  1  1  0  0  0
 12  2  1  0  0  0  0
 13  5  1  0  0  0  0
 14  4  1  0  0  0  0
 16 14  1  0  0  0  0
 16  7  1  0  0  0  0
 17 21  1  0  0  0  0
 18 14  2  0  0  0  0
 19 10  1  0  0  0  0
 20 15  1  0  0  0  0
 20 19  1  0  0  0  0
 22 26  1  0  0  0  0
 22 25  1  0  0  0  0
 24 23  1  0  0  0  0
 25 24  1  0  0  0  0
 26 27  1  0  0  0  0
 27 23  1  0  0  0  0
M  END
>  <MODEL>
9

>  <REMARK>
 VINA RESULT:      -6.2      4.209      5.696
  Name = 
  1 active torsions:
  status: ('A' for Active; 'I' for Inactive)
    1  A    between atoms: N_9  and  C_15
                            x       y       z     vdW  Elec       q    Type
                         _______ _______ _______ _____ _____    ______ ____

>  <TORSDO>
F 1

$$$$
