=
 OpenBabel11052417023D

 32 38  0  0  1  0  0  0  0  0999 V2000
  190.0620  176.7610  145.5500 C   0  0  0  0  0  0  0  0  0  0  0  0
  190.4110  177.4310  141.0320 C   0  0  2  0  0  3  0  0  0  0  0  0
  186.6860  178.3790  142.0300 C   0  0  0  0  0  2  0  0  0  0  0  0
  190.4200  176.4440  138.7030 C   0  0  0  0  0  0  0  0  0  0  0  0
  189.9870  176.4260  137.2940 C   0  0  0  0  0  0  0  0  0  0  0  0
  191.5160  177.6000  143.1720 C   0  0  1  0  0  3  0  0  0  0  0  0
  189.6520  179.1540  142.7120 O   0  0  0  0  0  0  0  0  0  0  0  0
  189.2420  176.4750  134.5940 C   0  0  0  0  0  3  0  0  0  0  0  0
  189.2200  177.5180  144.5520 C   0  0  0  0  0  2  0  0  0  0  0  0
  187.5910  178.7720  140.8980 C   0  0  1  0  0  3  0  0  0  0  0  0
  189.3900  177.9450  142.0190 C   0  0  1  0  0  0  0  0  0  0  0  0
  187.9440  177.5770  141.7730 C   0  0  1  0  0  3  0  0  0  0  0  0
  189.0620  178.5670  139.0010 C   0  0  2  0  0  3  0  0  0  0  0  0
  189.8660  175.3440  135.1260 C   0  0  0  0  0  3  0  0  0  0  0  0
  191.2240  176.1830  145.1940 C   0  0  0  0  0  3  0  0  0  0  0  0
  190.0360  177.9480  143.3330 C   0  0  2  0  0  0  0  0  0  0  0  0
  190.2400  175.3180  136.4730 C   0  0  0  0  0  3  0  0  0  0  0  0
  191.7470  176.2230  143.7850 C   0  0  0  0  0  2  0  0  0  0  0  0
  187.6640  178.1560  139.5240 C   0  0  2  0  0  3  0  0  0  0  0  0
  189.0660  178.6560  137.5740 O   0  0  0  0  0  0  0  0  0  0  0  0
  191.7850  177.5690  141.6640 C   0  0  0  0  0  2  0  0  0  0  0  0
  190.9770  175.4290  139.2030 O   0  0  0  0  0  0  0  0  0  0  0  0
  188.9830  177.5810  135.4100 C   0  0  0  0  0  3  0  0  0  0  0  0
  190.2720  177.7120  139.5120 C   0  0  1  0  0  3  0  0  0  0  0  0
  189.3440  177.5540  136.7610 C   0  0  0  0  0  0  0  0  0  0  0  0
  185.9560  177.6110  138.2280 C   0  0  0  0  0  1  0  0  0  0  0  0
  186.6600  178.7090  138.7250 O   0  0  0  0  0  0  0  0  0  0  0  0
  189.5890  176.6770  146.8640 O   0  0  0  0  0  0  0  0  0  0  0  0
  189.3960  177.8150  147.6950 C   0  0  0  0  0  2  0  0  0  0  0  0
  187.9770  177.8760  148.1350 C   0  0  0  0  0  0  0  0  0  0  0  0
  187.6700  177.5590  149.3140 O   0  0  0  0  0  0  0  0  0  0  0  0
  186.9610  178.2510  147.2130 N   0  0  0  0  0  1  0  0  0  0  0  0
  1 28  1  0  0  0  0
  2 21  1  1  0  0  0
  2 11  1  0  0  0  0
  4 22  2  0  0  0  0
  5  4  1  0  0  0  0
  6 21  1  6  0  0  0
  6 16  1  0  0  0  0
  6 18  1  0  0  0  0
  7 16  1  0  0  0  0
  8 14  2  0  0  0  0
  8 23  1  0  0  0  0
  9  1  1  0  0  0  0
 10 12  1  0  0  0  0
 10  3  1  1  0  0  0
 11  7  1  6  0  0  0
 11 16  1  0  0  0  0
 12 11  1  0  0  0  0
 12  3  1  1  0  0  0
 13 20  1  6  0  0  0
 13 24  1  0  0  0  0
 13 19  1  0  0  0  0
 14 17  1  0  0  0  0
 15  1  2  0  0  0  0
 16  9  1  1  0  0  0
 17  5  2  0  0  0  0
 18 15  1  0  0  0  0
 19 27  1  6  0  0  0
 19 10  1  0  0  0  0
 23 25  2  0  0  0  0
 24  4  1  6  0  0  0
 24  2  1  0  0  0  0
 25  5  1  0  0  0  0
 25 20  1  0  0  0  0
 26 27  1  0  0  0  0
 28 29  1  0  0  0  0
 29 30  1  0  0  0  0
 30 31  2  0  0  0  0
 32 30  1  0  0  0  0
M  END
>  <MODEL>
1

>  <REMARK>
 VINA RESULT:      -8.3      0.000      0.000
  Name = 
  4 active torsions:
  status: ('A' for Active; 'I' for Inactive)
    1  A    between atoms: C_1  and  C_10
    2  A    between atoms: C_2  and  O_24
    3  A    between atoms: C_10  and  O_24
    4  A    between atoms: O_25  and  C_26
                            x       y       z     vdW  Elec       q    Type
                         _______ _______ _______ _____ _____    ______ ____

>  <TORSDO>
F 4

$$$$
=
 OpenBabel11052417023D

 32 38  0  0  1  0  0  0  0  0999 V2000
  188.4430  177.2190  143.3800 C   0  0  0  0  0  0  0  0  0  0  0  0
  185.7420  178.3540  139.8590 C   0  0  2  0  0  3  0  0  0  0  0  0
  183.4790  178.5200  143.1180 C   0  0  0  0  0  2  0  0  0  0  0  0
  184.3250  177.6030  137.9020 C   0  0  0  0  0  0  0  0  0  0  0  0
  183.0890  177.6370  137.1010 C   0  0  0  0  0  0  0  0  0  0  0  0
  187.9480  178.5220  140.8240 C   0  0  1  0  0  3  0  0  0  0  0  0
  186.1120  179.7490  141.9280 O   0  0  0  0  0  0  0  0  0  0  0  0
  180.7770  177.8000  135.5260 C   0  0  0  0  0  3  0  0  0  0  0  0
  187.1000  177.9010  143.2890 C   0  0  0  0  0  2  0  0  0  0  0  0
  183.4060  179.1710  141.7670 C   0  0  1  0  0  3  0  0  0  0  0  0
  185.5620  178.5830  141.3400 C   0  0  1  0  0  0  0  0  0  0  0  0
  184.3340  177.9840  141.9880 C   0  0  1  0  0  3  0  0  0  0  0  0
  183.3170  179.4100  139.3710 C   0  0  2  0  0  3  0  0  0  0  0  0
  181.6840  176.7550  135.3300 C   0  0  0  0  0  3  0  0  0  0  0  0
  189.1430  176.8950  142.2760 C   0  0  0  0  0  3  0  0  0  0  0  0
  186.9000  178.5810  141.9340 C   0  0  2  0  0  0  0  0  0  0  0  0
  182.8400  176.6740  136.1130 C   0  0  0  0  0  3  0  0  0  0  0  0
  188.6290  177.1590  140.8880 C   0  0  0  0  0  2  0  0  0  0  0  0
  182.6240  178.7080  140.5640 C   0  0  2  0  0  3  0  0  0  0  0  0
  182.3930  179.6300  138.3020 O   0  0  0  0  0  0  0  0  0  0  0  0
  187.1830  178.6790  139.5060 C   0  0  0  0  0  2  0  0  0  0  0  0
  185.1520  176.6630  137.7450 O   0  0  0  0  0  0  0  0  0  0  0  0
  181.0190  178.7610  136.5130 C   0  0  0  0  0  3  0  0  0  0  0  0
  184.6330  178.7440  138.8440 C   0  0  1  0  0  3  0  0  0  0  0  0
  182.1660  178.6760  137.3070 C   0  0  0  0  0  0  0  0  0  0  0  0
  180.5530  177.9700  140.8100 C   0  0  0  0  0  1  0  0  0  0  0  0
  181.3020  179.1420  140.6880 O   0  0  0  0  0  0  0  0  0  0  0  0
  188.9380  176.9310  144.6560 O   0  0  0  0  0  0  0  0  0  0  0  0
  189.9060  177.7380  145.3150 C   0  0  0  0  0  2  0  0  0  0  0  0
  191.1510  176.9520  145.5240 C   0  0  0  0  0  0  0  0  0  0  0  0
  191.6670  176.3210  144.5640 O   0  0  0  0  0  0  0  0  0  0  0  0
  191.7370  176.8790  146.8180 N   0  0  0  0  0  1  0  0  0  0  0  0
  1 28  1  0  0  0  0
  2 21  1  6  0  0  0
  2 11  1  0  0  0  0
  5 25  1  0  0  0  0
  5  4  1  0  0  0  0
  6 21  1  6  0  0  0
  6 18  1  0  0  0  0
  6 16  1  0  0  0  0
  7 16  1  0  0  0  0
  8 23  1  0  0  0  0
  9  1  1  0  0  0  0
 10 12  1  0  0  0  0
 10  3  1  1  0  0  0
 11  7  1  1  0  0  0
 11 16  1  0  0  0  0
 11 12  1  0  0  0  0
 12  3  1  1  0  0  0
 13 20  1  6  0  0  0
 13 19  1  0  0  0  0
 14  8  2  0  0  0  0
 14 17  1  0  0  0  0
 15  1  2  0  0  0  0
 16  9  1  1  0  0  0
 17  5  2  0  0  0  0
 18 15  1  0  0  0  0
 19 27  1  1  0  0  0
 19 10  1  0  0  0  0
 22  4  2  0  0  0  0
 23 25  2  0  0  0  0
 24  4  1  1  0  0  0
 24 13  1  0  0  0  0
 24  2  1  0  0  0  0
 25 20  1  0  0  0  0
 27 26  1  0  0  0  0
 28 29  1  0  0  0  0
 29 30  1  0  0  0  0
 30 32  1  0  0  0  0
 31 30  2  0  0  0  0
M  END
>  <MODEL>
2

>  <REMARK>
 VINA RESULT:      -6.9      3.337      5.444
  Name = 
  4 active torsions:
  status: ('A' for Active; 'I' for Inactive)
    1  A    between atoms: C_1  and  C_10
    2  A    between atoms: C_2  and  O_24
    3  A    between atoms: C_10  and  O_24
    4  A    between atoms: O_25  and  C_26
                            x       y       z     vdW  Elec       q    Type
                         _______ _______ _______ _____ _____    ______ ____

>  <TORSDO>
F 4

$$$$
=
 OpenBabel11052417023D

 32 38  0  0  1  0  0  0  0  0999 V2000
  186.1120  177.1010  137.2600 C   0  0  0  0  0  0  0  0  0  0  0  0
  187.5010  178.2380  141.4740 C   0  0  2  0  0  3  0  0  0  0  0  0
  190.5680  176.4170  139.7270 C   0  0  0  0  0  2  0  0  0  0  0  0
  187.5260  177.7140  143.9490 C   0  0  0  0  0  0  0  0  0  0  0  0
  188.2210  177.5430  145.2370 C   0  0  0  0  0  0  0  0  0  0  0  0
  186.2030  178.8970  139.5490 C   0  0  1  0  0  3  0  0  0  0  0  0
  188.6620  178.8810  139.3270 O   0  0  0  0  0  0  0  0  0  0  0  0
  189.5410  177.3350  147.6990 C   0  0  0  0  0  3  0  0  0  0  0  0
  187.4730  177.2060  137.9030 C   0  0  0  0  0  2  0  0  0  0  0  0
  190.4480  177.4070  140.8500 C   0  0  1  0  0  3  0  0  0  0  0  0
  188.3020  177.8660  140.2490 C   0  0  1  0  0  0  0  0  0  0  0  0
  189.2130  176.6640  140.3590 C   0  0  1  0  0  3  0  0  0  0  0  0
  189.7530  178.3880  142.9370 C   0  0  2  0  0  3  0  0  0  0  0  0
  188.2390  176.8480  147.5610 C   0  0  0  0  0  3  0  0  0  0  0  0
  184.9940  177.4620  137.9180 C   0  0  0  0  0  3  0  0  0  0  0  0
  187.4670  178.1730  139.0880 C   0  0  2  0  0  0  0  0  0  0  0  0
  187.5770  176.9530  146.3340 C   0  0  0  0  0  3  0  0  0  0  0  0
  185.0170  177.9610  139.3350 C   0  0  0  0  0  2  0  0  0  0  0  0
  190.3930  177.1170  142.3280 C   0  0  2  0  0  3  0  0  0  0  0  0
  190.1960  178.5870  144.2830 O   0  0  0  0  0  0  0  0  0  0  0  0
  186.3960  179.1860  141.0400 C   0  0  0  0  0  2  0  0  0  0  0  0
  186.3520  177.2730  143.8030 O   0  0  0  0  0  0  0  0  0  0  0  0
  190.1890  177.9210  146.6070 C   0  0  0  0  0  3  0  0  0  0  0  0
  188.1930  178.4950  142.8400 C   0  0  1  0  0  3  0  0  0  0  0  0
  189.5360  178.0160  145.3740 C   0  0  0  0  0  0  0  0  0  0  0  0
  191.6460  175.7650  143.5510 C   0  0  0  0  0  1  0  0  0  0  0  0
  191.6940  176.9450  142.8060 O   0  0  0  0  0  0  0  0  0  0  0  0
  186.0500  176.6100  135.9520 O   0  0  0  0  0  0  0  0  0  0  0  0
  186.5220  175.3190  135.5830 C   0  0  0  0  0  2  0  0  0  0  0  0
  185.7260  174.2780  136.2860 C   0  0  0  0  0  0  0  0  0  0  0  0
  184.5040  174.1340  136.0210 O   0  0  0  0  0  0  0  0  0  0  0  0
  186.3350  173.4720  137.2870 N   0  0  0  0  0  1  0  0  0  0  0  0
  1  9  1  0  0  0  0
  1 15  2  0  0  0  0
  2 21  1  6  0  0  0
  2 24  1  0  0  0  0
  4  5  1  0  0  0  0
  5 25  2  0  0  0  0
  5 17  1  0  0  0  0
  6 18  1  1  0  0  0
  6 21  1  0  0  0  0
 10  3  1  6  0  0  0
 10 19  1  0  0  0  0
 11  7  1  6  0  0  0
 11 12  1  0  0  0  0
 11  2  1  0  0  0  0
 12  3  1  6  0  0  0
 12 10  1  0  0  0  0
 13 20  1  1  0  0  0
 14  8  1  0  0  0  0
 15 18  1  0  0  0  0
 16  9  1  6  0  0  0
 16  7  1  0  0  0  0
 16  6  1  0  0  0  0
 16 11  1  0  0  0  0
 17 14  2  0  0  0  0
 19 27  1  1  0  0  0
 19 13  1  0  0  0  0
 20 25  1  0  0  0  0
 22  4  2  0  0  0  0
 23  8  2  0  0  0  0
 24 13  1  0  0  0  0
 24  4  1  1  0  0  0
 25 23  1  0  0  0  0
 27 26  1  0  0  0  0
 28  1  1  0  0  0  0
 29 28  1  0  0  0  0
 29 30  1  0  0  0  0
 30 32  1  0  0  0  0
 31 30  2  0  0  0  0
M  END
>  <MODEL>
3

>  <REMARK>
 VINA RESULT:      -6.8      2.891      8.338
  Name = 
  4 active torsions:
  status: ('A' for Active; 'I' for Inactive)
    1  A    between atoms: C_1  and  C_10
    2  A    between atoms: C_2  and  O_24
    3  A    between atoms: C_10  and  O_24
    4  A    between atoms: O_25  and  C_26
                            x       y       z     vdW  Elec       q    Type
                         _______ _______ _______ _____ _____    ______ ____

>  <TORSDO>
F 4

$$$$
=
 OpenBabel11052417023D

 32 38  0  0  1  0  0  0  0  0999 V2000
  191.0350  176.4100  136.7940 C   0  0  0  0  0  0  0  0  0  0  0  0
  186.8620  177.9210  137.9290 C   0  0  2  0  0  3  0  0  0  0  0  0
  189.0210  177.9520  141.2620 C   0  0  0  0  0  2  0  0  0  0  0  0
  184.4580  177.3820  138.5020 C   0  0  0  0  0  0  0  0  0  0  0  0
  183.2540  177.5310  139.3380 C   0  0  0  0  0  0  0  0  0  0  0  0
  188.6030  177.9170  136.2560 C   0  0  1  0  0  3  0  0  0  0  0  0
  189.0280  179.1440  138.3570 O   0  0  0  0  0  0  0  0  0  0  0  0
  180.9400  177.9140  140.8710 C   0  0  0  0  0  3  0  0  0  0  0  0
  190.5000  177.1570  137.9910 C   0  0  0  0  0  2  0  0  0  0  0  0
  187.8040  178.7030  140.8040 C   0  0  1  0  0  3  0  0  0  0  0  0
  188.1790  178.0490  138.6580 C   0  0  1  0  0  0  0  0  0  0  0  0
  188.2580  177.4620  140.0490 C   0  0  1  0  0  3  0  0  0  0  0  0
  185.5830  179.1200  139.9680 C   0  0  2  0  0  3  0  0  0  0  0  0
  181.0140  176.8460  139.9730 C   0  0  0  0  0  3  0  0  0  0  0  0
  190.2560  176.1360  135.7300 C   0  0  0  0  0  3  0  0  0  0  0  0
  189.2330  177.9420  137.6490 C   0  0  2  0  0  0  0  0  0  0  0  0
  182.1670  176.6550  139.2050 C   0  0  0  0  0  3  0  0  0  0  0  0
  188.8040  176.5230  135.6720 C   0  0  0  0  0  2  0  0  0  0  0  0
  186.3590  178.3660  141.0750 C   0  0  2  0  0  3  0  0  0  0  0  0
  184.2660  179.4600  140.4120 O   0  0  0  0  0  0  0  0  0  0  0  0
  187.1120  178.2050  136.4580 C   0  0  0  0  0  2  0  0  0  0  0  0
  184.5470  176.4190  137.6920 O   0  0  0  0  0  0  0  0  0  0  0  0
  182.0230  178.7890  141.0100 C   0  0  0  0  0  3  0  0  0  0  0  0
  185.5400  178.4350  138.5610 C   0  0  1  0  0  3  0  0  0  0  0  0
  183.1830  178.5930  140.2540 C   0  0  0  0  0  0  0  0  0  0  0  0
  185.9620  177.7170  143.1520 C   0  0  0  0  0  1  0  0  0  0  0  0
  186.0090  178.8500  142.3370 O   0  0  0  0  0  0  0  0  0  0  0  0
  192.3730  176.0060  136.8280 O   0  0  0  0  0  0  0  0  0  0  0  0
  193.1720  176.0620  138.0030 C   0  0  0  0  0  2  0  0  0  0  0  0
  194.1120  174.9100  138.0240 C   0  0  0  0  0  0  0  0  0  0  0  0
  193.8110  173.8420  137.4290 O   0  0  0  0  0  0  0  0  0  0  0  0
  195.3310  174.9980  138.7500 N   0  0  0  0  0  1  0  0  0  0  0  0
  1 28  1  0  0  0  0
  1  9  1  0  0  0  0
  2 21  1  6  0  0  0
  2 24  1  0  0  0  0
  2 11  1  0  0  0  0
  4  5  1  0  0  0  0
  5 25  1  0  0  0  0
  6 18  1  1  0  0  0
  6 21  1  0  0  0  0
  6 16  1  0  0  0  0
  8 23  1  0  0  0  0
 10 19  1  0  0  0  0
 10  3  1  1  0  0  0
 11  7  1  1  0  0  0
 11 12  1  0  0  0  0
 12 10  1  0  0  0  0
 12  3  1  1  0  0  0
 13 20  1  1  0  0  0
 13 19  1  0  0  0  0
 14  8  2  0  0  0  0
 15  1  2  0  0  0  0
 16  9  1  1  0  0  0
 16  7  1  0  0  0  0
 16 11  1  0  0  0  0
 17  5  2  0  0  0  0
 17 14  1  0  0  0  0
 18 15  1  0  0  0  0
 19 27  1  1  0  0  0
 22  4  2  0  0  0  0
 24  4  1  1  0  0  0
 24 13  1  0  0  0  0
 25 20  1  0  0  0  0
 25 23  2  0  0  0  0
 27 26  1  0  0  0  0
 28 29  1  0  0  0  0
 29 30  1  0  0  0  0
 30 32  1  0  0  0  0
 31 30  2  0  0  0  0
M  END
>  <MODEL>
4

>  <REMARK>
 VINA RESULT:      -6.8      3.741      7.641
  Name = 
  4 active torsions:
  status: ('A' for Active; 'I' for Inactive)
    1  A    between atoms: C_1  and  C_10
    2  A    between atoms: C_2  and  O_24
    3  A    between atoms: C_10  and  O_24
    4  A    between atoms: O_25  and  C_26
                            x       y       z     vdW  Elec       q    Type
                         _______ _______ _______ _____ _____    ______ ____

>  <TORSDO>
F 4

$$$$
=
 OpenBabel11052417023D

 32 38  0  0  1  0  0  0  0  0999 V2000
  191.1230  176.2870  146.4680 C   0  0  0  0  0  0  0  0  0  0  0  0
  188.9840  178.0650  142.8290 C   0  0  2  0  0  3  0  0  0  0  0  0
  186.1560  177.1280  145.4550 C   0  0  0  0  0  2  0  0  0  0  0  0
  188.0820  177.7370  140.4880 C   0  0  0  0  0  0  0  0  0  0  0  0
  187.0250  177.8670  139.4690 C   0  0  0  0  0  0  0  0  0  0  0  0
  190.9210  178.1770  144.2630 C   0  0  1  0  0  3  0  0  0  0  0  0
  188.7500  178.8790  145.2060 O   0  0  0  0  0  0  0  0  0  0  0  0
  185.0480  178.2260  137.5170 C   0  0  0  0  0  3  0  0  0  0  0  0
  189.7330  176.8360  146.2560 C   0  0  0  0  0  2  0  0  0  0  0  0
  186.2380  178.1090  144.3220 C   0  0  1  0  0  3  0  0  0  0  0  0
  188.4990  177.8670  144.2460 C   0  0  1  0  0  0  0  0  0  0  0  0
  187.2750  177.0010  144.4430 C   0  0  1  0  0  3  0  0  0  0  0  0
  186.5610  178.9750  142.0970 C   0  0  2  0  0  3  0  0  0  0  0  0
  186.1220  177.3650  137.2740 C   0  0  0  0  0  3  0  0  0  0  0  0
  192.0560  176.3420  145.4990 C   0  0  0  0  0  3  0  0  0  0  0  0
  189.6880  177.8330  145.0980 C   0  0  2  0  0  0  0  0  0  0  0  0
  187.1110  177.1860  138.2460 C   0  0  0  0  0  3  0  0  0  0  0  0
  191.7740  176.9190  144.1400 C   0  0  0  0  0  2  0  0  0  0  0  0
  185.7710  177.9150  142.9010 C   0  0  2  0  0  3  0  0  0  0  0  0
  185.8280  179.3860  140.9390 O   0  0  0  0  0  0  0  0  0  0  0  0
  190.4000  178.6090  142.8900 C   0  0  0  0  0  2  0  0  0  0  0  0
  189.0550  176.9580  140.2900 O   0  0  0  0  0  0  0  0  0  0  0  0
  184.9570  178.9040  138.7360 C   0  0  0  0  0  3  0  0  0  0  0  0
  188.0360  178.6060  141.7240 C   0  0  1  0  0  3  0  0  0  0  0  0
  185.9360  178.7180  139.7160 C   0  0  0  0  0  0  0  0  0  0  0  0
  184.1940  179.2370  143.7130 C   0  0  0  0  0  1  0  0  0  0  0  0
  184.3990  178.1700  142.8360 O   0  0  0  0  0  0  0  0  0  0  0  0
  191.4090  175.7140  147.7120 O   0  0  0  0  0  0  0  0  0  0  0  0
  192.7100  175.7180  148.2880 C   0  0  0  0  0  2  0  0  0  0  0  0
  192.8840  176.9390  149.1180 C   0  0  0  0  0  0  0  0  0  0  0  0
  192.0480  177.8780  149.0410 O   0  0  0  0  0  0  0  0  0  0  0  0
  194.0170  177.0660  149.9680 N   0  0  0  0  0  1  0  0  0  0  0  0
  1 28  1  0  0  0  0
  2 21  1  1  0  0  0
  2 11  1  0  0  0  0
  5 25  1  0  0  0  0
  5  4  1  0  0  0  0
  6 21  1  6  0  0  0
  6 16  1  0  0  0  0
  8 23  1  0  0  0  0
  9  1  1  0  0  0  0
 10 12  1  0  0  0  0
 10  3  1  1  0  0  0
 11 12  1  0  0  0  0
 11 16  1  0  0  0  0
 11  7  1  1  0  0  0
 12  3  1  1  0  0  0
 13 20  1  6  0  0  0
 13 19  1  0  0  0  0
 14  8  2  0  0  0  0
 14 17  1  0  0  0  0
 15  1  2  0  0  0  0
 16  7  1  0  0  0  0
 16  9  1  1  0  0  0
 17  5  2  0  0  0  0
 18  6  1  0  0  0  0
 18 15  1  0  0  0  0
 19 27  1  1  0  0  0
 19 10  1  0  0  0  0
 22  4  2  0  0  0  0
 23 25  2  0  0  0  0
 24  4  1  6  0  0  0
 24 13  1  0  0  0  0
 24  2  1  0  0  0  0
 25 20  1  0  0  0  0
 27 26  1  0  0  0  0
 28 29  1  0  0  0  0
 29 30  1  0  0  0  0
 30 32  1  0  0  0  0
 31 30  2  0  0  0  0
M  END
>  <MODEL>
5

>  <REMARK>
 VINA RESULT:      -6.7      2.778      3.833
  Name = 
  4 active torsions:
  status: ('A' for Active; 'I' for Inactive)
    1  A    between atoms: C_1  and  C_10
    2  A    between atoms: C_2  and  O_24
    3  A    between atoms: C_10  and  O_24
    4  A    between atoms: O_25  and  C_26
                            x       y       z     vdW  Elec       q    Type
                         _______ _______ _______ _____ _____    ______ ____

>  <TORSDO>
F 4

$$$$
=
 OpenBabel11052417023D

 32 38  0  0  1  0  0  0  0  0999 V2000
  186.4430  177.5260  145.1390 C   0  0  0  0  0  0  0  0  0  0  0  0
  184.2260  178.6420  141.2900 C   0  0  2  0  0  3  0  0  0  0  0  0
  181.5310  178.7110  144.2070 C   0  0  0  0  0  2  0  0  0  0  0  0
  183.1110  177.8840  139.1490 C   0  0  0  0  0  0  0  0  0  0  0  0
  181.9970  177.8990  138.1850 C   0  0  0  0  0  0  0  0  0  0  0  0
  186.2730  178.8500  142.5530 C   0  0  1  0  0  3  0  0  0  0  0  0
  184.2710  180.0190  143.4040 O   0  0  0  0  0  0  0  0  0  0  0  0
  179.9210  178.0280  136.3080 C   0  0  0  0  0  3  0  0  0  0  0  0
  185.1080  178.1760  144.8710 C   0  0  0  0  0  2  0  0  0  0  0  0
  181.6290  179.3780  142.8650 C   0  0  1  0  0  3  0  0  0  0  0  0
  183.8370  178.8470  142.7350 C   0  0  1  0  0  0  0  0  0  0  0  0
  182.5470  178.2110  143.2010 C   0  0  1  0  0  3  0  0  0  0  0  0
  181.8650  179.6470  140.4830 C   0  0  2  0  0  3  0  0  0  0  0  0
  180.8730  177.0070  136.2290 C   0  0  0  0  0  3  0  0  0  0  0  0
  187.2970  177.2330  144.1400 C   0  0  0  0  0  3  0  0  0  0  0  0
  185.0800  178.8690  143.5080 C   0  0  2  0  0  0  0  0  0  0  0  0
  181.9110  176.9430  137.1630 C   0  0  0  0  0  3  0  0  0  0  0  0
  186.9720  177.5020  142.6970 C   0  0  0  0  0  2  0  0  0  0  0  0
  181.0320  178.9130  141.5610 C   0  0  2  0  0  3  0  0  0  0  0  0
  181.0920  179.8590  139.2980 O   0  0  0  0  0  0  0  0  0  0  0  0
  185.6930  179.0050  141.1430 C   0  0  0  0  0  2  0  0  0  0  0  0
  183.9760  176.9660  139.0980 O   0  0  0  0  0  0  0  0  0  0  0  0
  180.0010  178.9810  137.3280 C   0  0  0  0  0  3  0  0  0  0  0  0
  183.2580  179.0190  140.1360 C   0  0  1  0  0  3  0  0  0  0  0  0
  181.0290  178.9120  138.2720 C   0  0  0  0  0  0  0  0  0  0  0  0
  178.9740  178.1280  141.3550 C   0  0  0  0  0  1  0  0  0  0  0  0
  179.6950  179.3140  141.5060 O   0  0  0  0  0  0  0  0  0  0  0  0
  186.7650  177.2320  146.4690 O   0  0  0  0  0  0  0  0  0  0  0  0
  187.3660  178.1730  147.3490 C   0  0  0  0  0  2  0  0  0  0  0  0
  188.7200  177.6990  147.7370 C   0  0  0  0  0  0  0  0  0  0  0  0
  189.2580  176.7490  147.1100 O   0  0  0  0  0  0  0  0  0  0  0  0
  189.3910  178.2890  148.8440 N   0  0  0  0  0  1  0  0  0  0  0  0
  1 28  1  0  0  0  0
  2 21  1  6  0  0  0
  2 11  1  0  0  0  0
  5 25  1  0  0  0  0
  5  4  1  0  0  0  0
  6 21  1  6  0  0  0
  6 18  1  0  0  0  0
  6 16  1  0  0  0  0
  7 16  1  0  0  0  0
  8 23  1  0  0  0  0
  9  1  1  0  0  0  0
 10 12  1  0  0  0  0
 10  3  1  1  0  0  0
 11 12  1  0  0  0  0
 11  7  1  1  0  0  0
 11 16  1  0  0  0  0
 12  3  1  1  0  0  0
 13 20  1  6  0  0  0
 13 19  1  0  0  0  0
 14  8  2  0  0  0  0
 14 17  1  0  0  0  0
 15  1  2  0  0  0  0
 16  9  1  1  0  0  0
 17  5  2  0  0  0  0
 18 15  1  0  0  0  0
 19 27  1  1  0  0  0
 19 10  1  0  0  0  0
 22  4  2  0  0  0  0
 23 25  2  0  0  0  0
 24  4  1  1  0  0  0
 24 13  1  0  0  0  0
 24  2  1  0  0  0  0
 25 20  1  0  0  0  0
 26 27  1  0  0  0  0
 28 29  1  0  0  0  0
 29 30  1  0  0  0  0
 30 32  1  0  0  0  0
 31 30  2  0  0  0  0
M  END
>  <MODEL>
6

>  <REMARK>
 VINA RESULT:      -6.5      4.494      6.436
  Name = 
  4 active torsions:
  status: ('A' for Active; 'I' for Inactive)
    1  A    between atoms: C_1  and  C_10
    2  A    between atoms: C_2  and  O_24
    3  A    between atoms: C_10  and  O_24
    4  A    between atoms: O_25  and  C_26
                            x       y       z     vdW  Elec       q    Type
                         _______ _______ _______ _____ _____    ______ ____

>  <TORSDO>
F 4

$$$$
=
 OpenBabel11052417023D

 32 38  0  0  1  0  0  0  0  0999 V2000
  183.5180  178.4500  143.0290 C   0  0  0  0  0  0  0  0  0  0  0  0
  186.9250  178.3090  139.9710 C   0  0  2  0  0  3  0  0  0  0  0  0
  183.5620  177.7070  137.9450 C   0  0  0  0  0  2  0  0  0  0  0  0
  188.7930  176.9920  138.8870 C   0  0  0  0  0  0  0  0  0  0  0  0
  189.5330  176.5110  137.7060 C   0  0  0  0  0  0  0  0  0  0  0  0
  186.0730  179.3580  141.9710 C   0  0  1  0  0  3  0  0  0  0  0  0
  184.9060  179.8170  139.8440 O   0  0  0  0  0  0  0  0  0  0  0  0
  190.9950  175.7020  135.4580 C   0  0  0  0  0  3  0  0  0  0  0  0
  183.5560  178.5510  141.5240 C   0  0  0  0  0  2  0  0  0  0  0  0
  184.9210  178.2270  137.5740 C   0  0  1  0  0  3  0  0  0  0  0  0
  185.4410  178.5070  139.7710 C   0  0  1  0  0  0  0  0  0  0  0  0
  184.7210  177.5030  138.8980 C   0  0  1  0  0  3  0  0  0  0  0  0
  187.3140  178.3200  137.3100 C   0  0  2  0  0  3  0  0  0  0  0  0
  191.2140  175.0850  136.6920 C   0  0  0  0  0  3  0  0  0  0  0  0
  184.6480  178.3810  143.7590 C   0  0  0  0  0  3  0  0  0  0  0  0
  184.9140  179.0470  141.0240 C   0  0  2  0  0  0  0  0  0  0  0  0
  190.4870  175.4900  137.8160 C   0  0  0  0  0  3  0  0  0  0  0  0
  186.0130  178.3700  143.1310 C   0  0  0  0  0  2  0  0  0  0  0  0
  186.0740  177.4500  136.9900 C   0  0  2  0  0  3  0  0  0  0  0  0
  188.3410  178.1220  136.3330 O   0  0  0  0  0  0  0  0  0  0  0  0
  187.3540  179.1540  141.1570 C   0  0  0  0  0  2  0  0  0  0  0  0
  188.9710  176.4420  140.0080 O   0  0  0  0  0  0  0  0  0  0  0  0
  190.0420  176.7190  135.3420 C   0  0  0  0  0  3  0  0  0  0  0  0
  187.8910  178.1980  138.7600 C   0  0  1  0  0  3  0  0  0  0  0  0
  189.3030  177.1170  136.4600 C   0  0  0  0  0  0  0  0  0  0  0  0
  185.7280  175.9740  135.3790 C   0  0  0  0  0  1  0  0  0  0  0  0
  185.8940  177.3410  135.6090 O   0  0  0  0  0  0  0  0  0  0  0  0
  182.2620  178.4250  143.6440 O   0  0  0  0  0  0  0  0  0  0  0  0
  181.1670  179.2230  143.2090 C   0  0  0  0  0  2  0  0  0  0  0  0
  179.9060  178.4450  143.3260 C   0  0  0  0  0  0  0  0  0  0  0  0
  179.3400  178.3280  144.4450 O   0  0  0  0  0  0  0  0  0  0  0  0
  179.3600  177.7970  142.1840 N   0  0  0  0  0  1  0  0  0  0  0  0
  1 28  1  0  0  0  0
  1 15  2  0  0  0  0
  2 21  1  1  0  0  0
  4 22  2  0  0  0  0
  5 17  1  0  0  0  0
  5  4  1  0  0  0  0
  6 21  1  6  0  0  0
  6 18  1  0  0  0  0
  7 16  1  0  0  0  0
  8 14  1  0  0  0  0
  9  1  1  0  0  0  0
 10  3  1  6  0  0  0
 10 12  1  0  0  0  0
 11  7  1  6  0  0  0
 11  2  1  0  0  0  0
 11 16  1  0  0  0  0
 12  3  1  1  0  0  0
 12 11  1  0  0  0  0
 13 20  1  6  0  0  0
 13 24  1  0  0  0  0
 14 17  2  0  0  0  0
 16  9  1  1  0  0  0
 16  6  1  0  0  0  0
 18 15  1  0  0  0  0
 19 27  1  6  0  0  0
 19 13  1  0  0  0  0
 19 10  1  0  0  0  0
 20 25  1  0  0  0  0
 23  8  2  0  0  0  0
 23 25  1  0  0  0  0
 24  4  1  6  0  0  0
 24  2  1  0  0  0  0
 25  5  2  0  0  0  0
 26 27  1  0  0  0  0
 29 30  1  0  0  0  0
 29 28  1  0  0  0  0
 30 31  2  0  0  0  0
 32 30  1  0  0  0  0
M  END
>  <MODEL>
7

>  <REMARK>
 VINA RESULT:      -6.5      3.865      5.284
  Name = 
  4 active torsions:
  status: ('A' for Active; 'I' for Inactive)
    1  A    between atoms: C_1  and  C_10
    2  A    between atoms: C_2  and  O_24
    3  A    between atoms: C_10  and  O_24
    4  A    between atoms: O_25  and  C_26
                            x       y       z     vdW  Elec       q    Type
                         _______ _______ _______ _____ _____    ______ ____

>  <TORSDO>
F 4

$$$$
=
 OpenBabel11052417023D

 32 38  0  0  1  0  0  0  0  0999 V2000
  182.2240  178.6280  142.3460 C   0  0  0  0  0  0  0  0  0  0  0  0
  186.2600  178.6390  144.5100 C   0  0  2  0  0  3  0  0  0  0  0  0
  187.0220  177.8020  140.7040 C   0  0  0  0  0  2  0  0  0  0  0  0
  187.9210  177.4190  145.9770 C   0  0  0  0  0  0  0  0  0  0  0  0
  189.2850  176.9640  146.3000 C   0  0  0  0  0  0  0  0  0  0  0  0
  184.0850  179.6700  144.3260 C   0  0  1  0  0  3  0  0  0  0  0  0
  185.6850  180.0210  142.4780 O   0  0  0  0  0  0  0  0  0  0  0  0
  191.9010  176.2060  146.9570 C   0  0  0  0  0  3  0  0  0  0  0  0
  183.6510  178.7060  141.8630 C   0  0  0  0  0  2  0  0  0  0  0  0
  187.8320  178.3950  141.8200 C   0  0  1  0  0  3  0  0  0  0  0  0
  185.9420  178.7440  143.0380 C   0  0  1  0  0  0  0  0  0  0  0  0
  186.5220  177.6840  142.1290 C   0  0  1  0  0  3  0  0  0  0  0  0
  188.8950  178.6280  143.9700 C   0  0  2  0  0  3  0  0  0  0  0  0
  190.8170  175.6240  147.6210 C   0  0  0  0  0  3  0  0  0  0  0  0
  181.9230  178.6400  143.6580 C   0  0  0  0  0  3  0  0  0  0  0  0
  184.5810  179.2740  142.9360 C   0  0  2  0  0  0  0  0  0  0  0  0
  189.5110  176.0030  147.2960 C   0  0  0  0  0  3  0  0  0  0  0  0
  182.9780  178.7010  144.7270 C   0  0  0  0  0  2  0  0  0  0  0  0
  188.7770  177.6800  142.7520 C   0  0  2  0  0  3  0  0  0  0  0  0
  190.1630  178.4750  144.6130 O   0  0  0  0  0  0  0  0  0  0  0  0
  185.2880  179.5300  145.2640 C   0  0  0  0  0  2  0  0  0  0  0  0
  186.9300  176.9000  146.5600 O   0  0  0  0  0  0  0  0  0  0  0  0
  191.6800  177.1610  145.9600 C   0  0  0  0  0  3  0  0  0  0  0  0
  187.7280  178.5660  145.0120 C   0  0  1  0  0  3  0  0  0  0  0  0
  190.3760  177.5330  145.6220 C   0  0  0  0  0  0  0  0  0  0  0  0
  190.2710  176.1640  142.1480 C   0  0  0  0  0  1  0  0  0  0  0  0
  190.0140  177.5360  142.1200 O   0  0  0  0  0  0  0  0  0  0  0  0
  181.2170  178.5390  141.3780 O   0  0  0  0  0  0  0  0  0  0  0  0
  181.2060  177.5470  140.3580 C   0  0  0  0  0  2  0  0  0  0  0  0
  180.0160  176.6720  140.5260 C   0  0  0  0  0  0  0  0  0  0  0  0
  179.3060  176.7670  141.5620 O   0  0  0  0  0  0  0  0  0  0  0  0
  179.7030  175.6980  139.5380 N   0  0  0  0  0  1  0  0  0  0  0  0
  1 15  2  0  0  0  0
  2 24  1  0  0  0  0
  2 21  1  1  0  0  0
  4  5  1  0  0  0  0
  4 22  2  0  0  0  0
  5 17  1  0  0  0  0
  6 18  1  1  0  0  0
  6 21  1  0  0  0  0
  7 16  1  0  0  0  0
  8 14  1  0  0  0  0
  9  1  1  0  0  0  0
 10  3  1  6  0  0  0
 10 12  1  0  0  0  0
 10 19  1  0  0  0  0
 11  7  1  6  0  0  0
 11  2  1  0  0  0  0
 12  3  1  6  0  0  0
 12 11  1  0  0  0  0
 13 20  1  1  0  0  0
 13 24  1  0  0  0  0
 15 18  1  0  0  0  0
 16  9  1  6  0  0  0
 16 11  1  0  0  0  0
 16  6  1  0  0  0  0
 17 14  2  0  0  0  0
 19 27  1  6  0  0  0
 19 13  1  0  0  0  0
 20 25  1  0  0  0  0
 23  8  2  0  0  0  0
 24  4  1  6  0  0  0
 25 23  1  0  0  0  0
 25  5  2  0  0  0  0
 27 26  1  0  0  0  0
 28  1  1  0  0  0  0
 29 30  1  0  0  0  0
 29 28  1  0  0  0  0
 30 31  2  0  0  0  0
 32 30  1  0  0  0  0
M  END
>  <MODEL>
8

>  <REMARK>
 VINA RESULT:      -6.4      3.833      8.180
  Name = 
  4 active torsions:
  status: ('A' for Active; 'I' for Inactive)
    1  A    between atoms: C_1  and  C_10
    2  A    between atoms: C_2  and  O_24
    3  A    between atoms: C_10  and  O_24
    4  A    between atoms: O_25  and  C_26
                            x       y       z     vdW  Elec       q    Type
                         _______ _______ _______ _____ _____    ______ ____

>  <TORSDO>
F 4

$$$$
=
 OpenBabel11052417023D

 32 38  0  0  1  0  0  0  0  0999 V2000
  187.5720  177.5770  144.1670 C   0  0  0  0  0  0  0  0  0  0  0  0
  184.3940  178.5350  141.0110 C   0  0  2  0  0  3  0  0  0  0  0  0
  182.5650  178.6700  144.5330 C   0  0  0  0  0  2  0  0  0  0  0  0
  182.7690  177.6920  139.2640 C   0  0  0  0  0  0  0  0  0  0  0  0
  181.4400  177.6610  138.6300 C   0  0  0  0  0  0  0  0  0  0  0  0
  186.6970  178.8110  141.6800 C   0  0  1  0  0  3  0  0  0  0  0  0
  184.9680  179.9830  142.9960 O   0  0  0  0  0  0  0  0  0  0  0  0
  178.9390  177.7010  137.3660 C   0  0  0  0  0  3  0  0  0  0  0  0
  186.2000  178.2010  144.2420 C   0  0  0  0  0  2  0  0  0  0  0  0
  182.2910  179.2930  143.1950 C   0  0  1  0  0  3  0  0  0  0  0  0
  184.3970  178.7840  142.5000 C   0  0  1  0  0  0  0  0  0  0  0  0
  183.2880  178.1480  143.3090 C   0  0  1  0  0  3  0  0  0  0  0  0
  181.8830  179.4830  140.8280 C   0  0  2  0  0  3  0  0  0  0  0  0
  179.8570  176.6900  137.0670 C   0  0  0  0  0  3  0  0  0  0  0  0
  188.1370  177.2610  142.9860 C   0  0  0  0  0  3  0  0  0  0  0  0
  185.7980  178.8470  142.9160 C   0  0  2  0  0  0  0  0  0  0  0  0
  181.1060  176.6700  137.6950 C   0  0  0  0  0  3  0  0  0  0  0  0
  187.4370  177.4780  141.6730 C   0  0  0  0  0  2  0  0  0  0  0  0
  181.3800  178.7760  142.1100 C   0  0  2  0  0  3  0  0  0  0  0  0
  180.8200  179.6460  139.8850 O   0  0  0  0  0  0  0  0  0  0  0  0
  185.7620  178.9120  140.4700 C   0  0  0  0  0  2  0  0  0  0  0  0
  183.6080  176.7840  139.0130 O   0  0  0  0  0  0  0  0  0  0  0  0
  179.2660  178.6890  138.3000 C   0  0  0  0  0  3  0  0  0  0  0  0
  183.1480  178.8620  140.1440 C   0  0  1  0  0  3  0  0  0  0  0  0
  180.5080  178.6650  138.9400 C   0  0  0  0  0  0  0  0  0  0  0  0
  179.3500  177.9620  142.4430 C   0  0  0  0  0  1  0  0  0  0  0  0
  180.0680  179.1580  142.3980 O   0  0  0  0  0  0  0  0  0  0  0  0
  188.2390  177.3320  145.3710 O   0  0  0  0  0  0  0  0  0  0  0  0
  189.5180  177.8760  145.6760 C   0  0  0  0  0  2  0  0  0  0  0  0
  190.2000  177.0150  146.6780 C   0  0  0  0  0  0  0  0  0  0  0  0
  189.5250  176.4100  147.5520 O   0  0  0  0  0  0  0  0  0  0  0  0
  191.6180  176.9070  146.6760 N   0  0  0  0  0  1  0  0  0  0  0  0
  1  9  1  0  0  0  0
  1 28  1  0  0  0  0
  2 21  1  6  0  0  0
  2 11  1  0  0  0  0
  5 25  1  0  0  0  0
  5  4  1  0  0  0  0
  6 21  1  6  0  0  0
  6 16  1  0  0  0  0
  8 23  1  0  0  0  0
 10 12  1  0  0  0  0
 10  3  1  1  0  0  0
 11 16  1  0  0  0  0
 11  7  1  1  0  0  0
 11 12  1  0  0  0  0
 12  3  1  1  0  0  0
 13 20  1  6  0  0  0
 13 19  1  0  0  0  0
 14  8  2  0  0  0  0
 14 17  1  0  0  0  0
 15  1  2  0  0  0  0
 16  7  1  0  0  0  0
 16  9  1  1  0  0  0
 17  5  2  0  0  0  0
 18  6  1  0  0  0  0
 18 15  1  0  0  0  0
 19 27  1  1  0  0  0
 19 10  1  0  0  0  0
 22  4  2  0  0  0  0
 23 25  2  0  0  0  0
 24  4  1  1  0  0  0
 24 13  1  0  0  0  0
 24  2  1  0  0  0  0
 25 20  1  0  0  0  0
 27 26  1  0  0  0  0
 28 29  1  0  0  0  0
 29 30  1  0  0  0  0
 30 31  2  0  0  0  0
 32 30  1  0  0  0  0
M  END
>  <MODEL>
9

>  <REMARK>
 VINA RESULT:      -6.3      4.297      6.605
  Name = 
  4 active torsions:
  status: ('A' for Active; 'I' for Inactive)
    1  A    between atoms: C_1  and  C_10
    2  A    between atoms: C_2  and  O_24
    3  A    between atoms: C_10  and  O_24
    4  A    between atoms: O_25  and  C_26
                            x       y       z     vdW  Elec       q    Type
                         _______ _______ _______ _____ _____    ______ ____

>  <TORSDO>
F 4

$$$$
