=
 OpenBabel11052415563D

 34 39  0  0  1  0  0  0  0  0999 V2000
  180.2260  178.1880  140.1380 C   0  0  1  0  0  3  0  0  0  0  0  0
  182.4460  178.1190  137.0730 C   0  0  0  0  0  3  0  0  0  0  0  0
  185.5110  178.3430  138.5380 C   0  0  0  0  0  0  0  0  0  0  0  0
  180.3620  179.3010  137.4210 C   0  0  0  0  0  2  0  0  0  0  0  0
  180.9980  179.3990  142.1950 N   0  0  0  0  0  0  0  0  0  0  0  0
  180.5390  178.1090  141.6530 C   0  0  0  0  0  2  0  0  0  0  0  0
  179.6400  180.5670  140.6040 C   0  0  0  0  0  0  0  0  0  0  0  0
  179.6160  181.7260  139.9190 N   0  0  0  0  0  0  0  0  0  0  0  0
  186.0810  178.6730  137.3140 O   0  0  0  0  0  0  0  0  0  0  0  0
  179.9590  180.4290  142.0510 C   0  0  0  0  0  2  0  0  0  0  0  0
  179.8090  180.0630  138.5710 C   0  0  0  0  0  0  0  0  0  0  0  0
  179.7310  179.5150  139.7860 N   0  0  0  0  0  0  0  0  0  0  0  0
  179.7240  181.4080  138.6330 N   0  0  0  0  0  0  0  0  0  0  0  0
  183.6170  177.2280  137.3450 C   0  0  0  0  0  2  0  0  0  0  0  0
  186.0900  178.6920  139.6020 O   0  0  0  0  0  1  0  0  0  0  0  0
  184.2780  177.6140  138.5890 N   0  0  0  0  0  0  0  0  0  0  0  0
  183.6810  177.2790  139.8830 C   0  0  0  0  0  2  0  0  0  0  0  0
  181.4430  178.3750  137.9250 C   0  0  0  0  0  0  0  0  0  0  0  0
  182.2570  176.7580  139.7280 C   0  0  0  0  0  2  0  0  0  0  0  0
  181.3730  177.8330  139.2800 N   0  0  0  0  0  0  0  0  0  0  0  0
  181.3730  179.2530  143.6090 C   0  0  0  0  0  2  0  0  0  0  0  0
  184.9920  178.3010  142.9260 C   0  0  0  0  0  3  0  0  0  0  0  0
  183.3370  178.8350  145.1270 C   0  0  0  0  0  3  0  0  0  0  0  0
  187.3750  177.8370  145.7260 C   0  0  0  0  0  0  0  0  0  0  0  0
  186.8540  177.9020  144.4230 C   0  0  0  0  0  3  0  0  0  0  0  0
  185.5120  178.2330  144.2200 C   0  0  0  0  0  0  0  0  0  0  0  0
  185.1990  178.4360  146.6240 C   0  0  0  0  0  3  0  0  0  0  0  0
  184.6790  178.5030  145.3300 C   0  0  0  0  0  0  0  0  0  0  0  0
  186.5430  178.1040  146.8210 C   0  0  0  0  0  3  0  0  0  0  0  0
  182.8180  178.8970  143.8270 C   0  0  0  0  0  0  0  0  0  0  0  0
  183.6480  178.6330  142.7310 C   0  0  0  0  0  3  0  0  0  0  0  0
  188.8060  177.4780  145.9690 C   0  0  1  0  0  3  0  0  0  0  0  0
  189.7250  178.2770  145.0630 C   0  0  0  0  0  1  0  0  0  0  0  0
  189.1580  177.7090  147.3590 N   0  0  0  0  0  1  0  0  0  0  0  0
  1  6  1  1  0  0  0
  2 14  1  0  0  0  0
  2 18  2  0  0  0  0
  3 16  1  0  0  0  0
  3 15  1  0  0  0  0
  4 18  1  0  0  0  0
  4 11  1  0  0  0  0
  5 21  1  0  0  0  0
  6  5  1  0  0  0  0
  7 10  1  0  0  0  0
  8  7  2  0  0  0  0
  9  3  2  0  0  0  0
 10  5  1  0  0  0  0
 11 13  2  0  0  0  0
 11 12  1  0  0  0  0
 12  1  1  0  0  0  0
 12  7  1  0  0  0  0
 13  8  1  0  0  0  0
 14 16  1  0  0  0  0
 16 17  1  0  0  0  0
 18 20  1  0  0  0  0
 19 17  1  0  0  0  0
 20 19  1  0  0  0  0
 20  1  1  0  0  0  0
 21 30  1  0  0  0  0
 22 26  1  0  0  0  0
 23 28  1  0  0  0  0
 24 32  1  0  0  0  0
 24 29  1  0  0  0  0
 25 24  2  0  0  0  0
 26 25  1  0  0  0  0
 26 28  2  0  0  0  0
 27 29  2  0  0  0  0
 28 27  1  0  0  0  0
 30 23  2  0  0  0  0
 31 22  2  0  0  0  0
 31 30  1  0  0  0  0
 32 33  1  6  0  0  0
 32 34  1  0  0  0  0
M  END
>  <MODEL>
1

>  <REMARK>
 VINA RESULT:     -10.2      0.000      0.000
  Name = 
  3 active torsions:
  status: ('A' for Active; 'I' for Inactive)
    1  A    between atoms: C_7  and  C_11
    2  A    between atoms: N_8  and  C_18
    3  A    between atoms: C_18  and  C_30
                            x       y       z     vdW  Elec       q    Type
                         _______ _______ _______ _____ _____    ______ ____

>  <TORSDO>
F 3

$$$$
=
 OpenBabel11052415563D

 34 39  0  0  1  0  0  0  0  0999 V2000
  188.8150  176.8800  136.2080 C   0  0  1  0  0  3  0  0  0  0  0  0
  185.2180  176.0100  135.4140 C   0  0  0  0  0  3  0  0  0  0  0  0
  183.7070  176.9790  138.3080 C   0  0  0  0  0  0  0  0  0  0  0  0
  187.2320  174.7480  134.9490 C   0  0  0  0  0  2  0  0  0  0  0  0
  189.6030  176.8290  138.5900 N   0  0  0  0  0  0  0  0  0  0  0  0
  189.4660  177.6580  137.3790 C   0  0  0  0  0  2  0  0  0  0  0  0
  189.8790  174.8730  137.2360 C   0  0  0  0  0  0  0  0  0  0  0  0
  189.6450  173.5470  137.2750 N   0  0  0  0  0  0  0  0  0  0  0  0
  182.5690  176.2590  137.9630 O   0  0  0  0  0  0  0  0  0  0  0  0
  190.4760  175.6730  138.3390 C   0  0  0  0  0  2  0  0  0  0  0  0
  188.4610  174.4720  135.7390 C   0  0  0  0  0  0  0  0  0  0  0  0
  189.1750  175.4670  136.2690 N   0  0  0  0  0  0  0  0  0  0  0  0
  188.7460  173.2940  136.3290 N   0  0  0  0  0  0  0  0  0  0  0  0
  184.3370  177.1210  135.8920 C   0  0  0  0  0  2  0  0  0  0  0  0
  183.9350  177.2300  139.5220 O   0  0  0  0  0  1  0  0  0  0  0  0
  184.6130  177.4310  137.2920 N   0  0  0  0  0  0  0  0  0  0  0  0
  185.8130  178.1800  137.6650 C   0  0  0  0  0  2  0  0  0  0  0  0
  186.5550  175.9740  135.5130 C   0  0  0  0  0  0  0  0  0  0  0  0
  186.7740  178.3260  136.4910 C   0  0  0  0  0  2  0  0  0  0  0  0
  187.3490  177.0250  136.1460 N   0  0  0  0  0  0  0  0  0  0  0  0
  190.1340  177.6330  139.6990 C   0  0  0  0  0  2  0  0  0  0  0  0
  188.9120  176.9550  143.2380 C   0  0  0  0  0  3  0  0  0  0  0  0
  188.0330  178.2800  140.9270 C   0  0  0  0  0  3  0  0  0  0  0  0
  185.6310  178.2500  144.3750 C   0  0  0  0  0  0  0  0  0  0  0  0
  186.8730  177.5950  144.3790 C   0  0  0  0  0  3  0  0  0  0  0  0
  187.6750  177.6030  143.2350 C   0  0  0  0  0  0  0  0  0  0  0  0
  185.9950  178.9210  142.0690 C   0  0  0  0  0  3  0  0  0  0  0  0
  187.2320  178.2720  142.0710 C   0  0  0  0  0  0  0  0  0  0  0  0
  185.1980  178.9090  143.2180 C   0  0  0  0  0  3  0  0  0  0  0  0
  189.2710  177.6250  140.9320 C   0  0  0  0  0  0  0  0  0  0  0  0
  189.7080  176.9670  142.0880 C   0  0  0  0  0  3  0  0  0  0  0  0
  184.7530  178.2490  145.5850 C   0  0  1  0  0  3  0  0  0  0  0  0
  185.5180  178.7190  146.8080 C   0  0  0  0  0  1  0  0  0  0  0  0
  183.5930  179.0980  145.3710 N   0  0  0  0  0  1  0  0  0  0  0  0
  1 12  1  0  0  0  0
  1  6  1  1  0  0  0
  2 18  2  0  0  0  0
  2 14  1  0  0  0  0
  3 15  1  0  0  0  0
  4 18  1  0  0  0  0
  4 11  1  0  0  0  0
  5 21  1  0  0  0  0
  6  5  1  0  0  0  0
  7  8  2  0  0  0  0
  7 10  1  0  0  0  0
  9  3  2  0  0  0  0
 10  5  1  0  0  0  0
 11 12  1  0  0  0  0
 11 13  2  0  0  0  0
 12  7  1  0  0  0  0
 13  8  1  0  0  0  0
 14 16  1  0  0  0  0
 16 17  1  0  0  0  0
 16  3  1  0  0  0  0
 18 20  1  0  0  0  0
 19 17  1  0  0  0  0
 20  1  1  0  0  0  0
 20 19  1  0  0  0  0
 21 30  1  0  0  0  0
 23 30  2  0  0  0  0
 23 28  1  0  0  0  0
 24 25  1  0  0  0  0
 24 32  1  0  0  0  0
 26 22  1  0  0  0  0
 26 25  2  0  0  0  0
 27 28  2  0  0  0  0
 27 29  1  0  0  0  0
 28 26  1  0  0  0  0
 29 24  2  0  0  0  0
 30 31  1  0  0  0  0
 31 22  2  0  0  0  0
 32 33  1  1  0  0  0
 34 32  1  0  0  0  0
M  END
>  <MODEL>
2

>  <REMARK>
 VINA RESULT:      -9.6      3.768      7.221
  Name = 
  3 active torsions:
  status: ('A' for Active; 'I' for Inactive)
    1  A    between atoms: C_7  and  C_11
    2  A    between atoms: N_8  and  C_18
    3  A    between atoms: C_18  and  C_30
                            x       y       z     vdW  Elec       q    Type
                         _______ _______ _______ _____ _____    ______ ____

>  <TORSDO>
F 3

$$$$
=
 OpenBabel11052415563D

 34 39  0  0  1  0  0  0  0  0999 V2000
  189.1140  176.8120  136.1730 C   0  0  1  0  0  3  0  0  0  0  0  0
  185.4890  176.0430  135.4040 C   0  0  0  0  0  3  0  0  0  0  0  0
  184.0080  177.1990  138.2440 C   0  0  0  0  0  0  0  0  0  0  0  0
  187.4540  174.6870  135.0040 C   0  0  0  0  0  2  0  0  0  0  0  0
  189.8930  176.8390  138.5580 N   0  0  0  0  0  0  0  0  0  0  0  0
  189.7910  177.6160  137.3110 C   0  0  0  0  0  2  0  0  0  0  0  0
  190.0980  174.8140  137.2950 C   0  0  0  0  0  0  0  0  0  0  0  0
  189.8140  173.5010  137.3930 N   0  0  0  0  0  0  0  0  0  0  0  0
  182.8440  176.5080  137.9270 O   0  0  0  0  0  0  0  0  0  0  0  0
  190.7220  175.6400  138.3640 C   0  0  0  0  0  2  0  0  0  0  0  0
  188.6690  174.4000  135.8120 C   0  0  0  0  0  0  0  0  0  0  0  0
  189.4200  175.3900  136.2990 N   0  0  0  0  0  0  0  0  0  0  0  0
  188.9090  173.2390  136.4550 N   0  0  0  0  0  0  0  0  0  0  0  0
  184.6490  177.2070  135.8270 C   0  0  0  0  0  2  0  0  0  0  0  0
  184.2420  177.4950  139.4460 O   0  0  0  0  0  1  0  0  0  0  0  0
  184.9330  177.5700  137.2120 N   0  0  0  0  0  0  0  0  0  0  0  0
  186.1600  178.2890  137.5570 C   0  0  0  0  0  2  0  0  0  0  0  0
  186.8230  175.9610  135.5100 C   0  0  0  0  0  0  0  0  0  0  0  0
  187.1290  178.3450  136.3810 C   0  0  0  0  0  2  0  0  0  0  0  0
  187.6550  177.0090  136.0980 N   0  0  0  0  0  0  0  0  0  0  0  0
  190.4510  177.6710  139.6330 C   0  0  0  0  0  2  0  0  0  0  0  0
  187.4600  177.9220  141.9700 C   0  0  0  0  0  3  0  0  0  0  0  0
  190.2280  177.4980  142.1340 C   0  0  0  0  0  3  0  0  0  0  0  0
  187.8990  177.5620  145.6320 C   0  0  0  0  0  0  0  0  0  0  0  0
  187.2920  177.7550  144.3810 C   0  0  0  0  0  3  0  0  0  0  0  0
  188.0620  177.7340  143.2160 C   0  0  0  0  0  0  0  0  0  0  0  0
  190.0590  177.3300  144.5450 C   0  0  0  0  0  3  0  0  0  0  0  0
  189.4570  177.5190  143.3000 C   0  0  0  0  0  0  0  0  0  0  0  0
  189.2820  177.3520  145.7080 C   0  0  0  0  0  3  0  0  0  0  0  0
  189.6210  177.6930  140.8870 C   0  0  0  0  0  0  0  0  0  0  0  0
  188.2380  177.9010  140.8090 C   0  0  0  0  0  3  0  0  0  0  0  0
  187.0960  177.5860  146.8930 C   0  0  1  0  0  3  0  0  0  0  0  0
  187.9930  177.7780  148.1010 C   0  0  0  0  0  1  0  0  0  0  0  0
  186.1020  178.6440  146.8420 N   0  0  0  0  0  1  0  0  0  0  0  0
  1 12  1  0  0  0  0
  1  6  1  1  0  0  0
  2 18  2  0  0  0  0
  2 14  1  0  0  0  0
  3 15  1  0  0  0  0
  4 18  1  0  0  0  0
  4 11  1  0  0  0  0
  5 21  1  0  0  0  0
  6  5  1  0  0  0  0
  7  8  2  0  0  0  0
  7 10  1  0  0  0  0
  9  3  2  0  0  0  0
 10  5  1  0  0  0  0
 11 12  1  0  0  0  0
 11 13  2  0  0  0  0
 12  7  1  0  0  0  0
 13  8  1  0  0  0  0
 14 16  1  0  0  0  0
 16 17  1  0  0  0  0
 16  3  1  0  0  0  0
 18 20  1  0  0  0  0
 19 17  1  0  0  0  0
 20  1  1  0  0  0  0
 20 19  1  0  0  0  0
 21 30  1  0  0  0  0
 22 26  1  0  0  0  0
 23 28  1  0  0  0  0
 24 29  1  0  0  0  0
 24 32  1  0  0  0  0
 25 24  2  0  0  0  0
 26 28  2  0  0  0  0
 26 25  1  0  0  0  0
 27 29  2  0  0  0  0
 28 27  1  0  0  0  0
 30 23  2  0  0  0  0
 31 30  1  0  0  0  0
 31 22  2  0  0  0  0
 32 33  1  1  0  0  0
 34 32  1  0  0  0  0
M  END
>  <MODEL>
3

>  <REMARK>
 VINA RESULT:      -9.4      3.943      7.266
  Name = 
  3 active torsions:
  status: ('A' for Active; 'I' for Inactive)
    1  A    between atoms: C_7  and  C_11
    2  A    between atoms: N_8  and  C_18
    3  A    between atoms: C_18  and  C_30
                            x       y       z     vdW  Elec       q    Type
                         _______ _______ _______ _____ _____    ______ ____

>  <TORSDO>
F 3

$$$$
=
 OpenBabel11052415563D

 34 39  0  0  1  0  0  0  0  0999 V2000
  185.2960  177.1230  137.1600 C   0  0  1  0  0  3  0  0  0  0  0  0
  182.5630  177.2800  139.7740 C   0  0  0  0  0  3  0  0  0  0  0  0
  184.3540  178.3680  142.4580 C   0  0  0  0  0  0  0  0  0  0  0  0
  182.9740  175.5830  138.0970 C   0  0  0  0  0  2  0  0  0  0  0  0
  187.6610  176.6750  137.8690 N   0  0  0  0  0  0  0  0  0  0  0  0
  186.7670  177.6070  137.1600 C   0  0  0  0  0  2  0  0  0  0  0  0
  186.2780  174.8300  137.2180 C   0  0  0  0  0  0  0  0  0  0  0  0
  185.9060  173.6130  137.6540 N   0  0  0  0  0  0  0  0  0  0  0  0
  183.3180  177.9980  143.3090 O   0  0  0  0  0  1  0  0  0  0  0  0
  187.6700  175.3570  137.2190 C   0  0  0  0  0  2  0  0  0  0  0  0
  184.2130  174.9350  137.5930 C   0  0  0  0  0  0  0  0  0  0  0  0
  185.2370  175.6640  137.1430 N   0  0  0  0  0  0  0  0  0  0  0  0
  184.6000  173.6780  137.8930 N   0  0  0  0  0  0  0  0  0  0  0  0
  182.7260  178.5390  140.5670 C   0  0  0  0  0  2  0  0  0  0  0  0
  185.5250  178.4510  142.9140 O   0  0  0  0  0  0  0  0  0  0  0  0
  184.0900  178.6510  141.0780 N   0  0  0  0  0  0  0  0  0  0  0  0
  185.1880  179.0320  140.1880 C   0  0  0  0  0  2  0  0  0  0  0  0
  183.3410  176.8920  138.7530 C   0  0  0  0  0  0  0  0  0  0  0  0
  184.7590  179.0190  138.7260 C   0  0  0  0  0  2  0  0  0  0  0  0
  184.5030  177.6470  138.2870 N   0  0  0  0  0  0  0  0  0  0  0  0
  189.0240  177.2200  137.9270 C   0  0  0  0  0  2  0  0  0  0  0  0
  191.5780  177.3480  140.7430 C   0  0  0  0  0  3  0  0  0  0  0  0
  188.7990  177.1290  140.4330 C   0  0  0  0  0  3  0  0  0  0  0  0
  190.4900  177.1490  144.2800 C   0  0  0  0  0  0  0  0  0  0  0  0
  191.3170  177.2500  143.1500 C   0  0  0  0  0  3  0  0  0  0  0  0
  190.7590  177.2440  141.8690 C   0  0  0  0  0  0  0  0  0  0  0  0
  188.5380  177.0320  142.8390 C   0  0  0  0  0  3  0  0  0  0  0  0
  189.3580  177.1350  141.7130 C   0  0  0  0  0  0  0  0  0  0  0  0
  189.1030  177.0390  144.1180 C   0  0  0  0  0  3  0  0  0  0  0  0
  189.6250  177.2270  139.3060 C   0  0  0  0  0  0  0  0  0  0  0  0
  191.0120  177.3400  139.4650 C   0  0  0  0  0  3  0  0  0  0  0  0
  191.0650  177.1470  145.6600 C   0  0  1  0  0  3  0  0  0  0  0  0
  189.9640  177.1280  146.7040 C   0  0  0  0  0  1  0  0  0  0  0  0
  191.9410  176.0040  145.8440 N   0  0  0  0  0  1  0  0  0  0  0  0
  1  6  1  1  0  0  0
  1 20  1  0  0  0  0
  2 14  1  0  0  0  0
  3 15  2  0  0  0  0
  3  9  1  0  0  0  0
  4 18  1  0  0  0  0
  5 21  1  0  0  0  0
  6  5  1  0  0  0  0
  7 10  1  0  0  0  0
  7  8  2  0  0  0  0
  8 13  1  0  0  0  0
 10  5  1  0  0  0  0
 11 13  2  0  0  0  0
 11  4  1  0  0  0  0
 12  1  1  0  0  0  0
 12  7  1  0  0  0  0
 12 11  1  0  0  0  0
 14 16  1  0  0  0  0
 16  3  1  0  0  0  0
 17 16  1  0  0  0  0
 18  2  2  0  0  0  0
 19 17  1  0  0  0  0
 20 19  1  0  0  0  0
 20 18  1  0  0  0  0
 21 30  1  0  0  0  0
 22 26  1  0  0  0  0
 23 28  1  0  0  0  0
 24 32  1  0  0  0  0
 25 24  2  0  0  0  0
 26 25  1  0  0  0  0
 27 29  2  0  0  0  0
 28 26  2  0  0  0  0
 28 27  1  0  0  0  0
 29 24  1  0  0  0  0
 30 31  1  0  0  0  0
 30 23  2  0  0  0  0
 31 22  2  0  0  0  0
 32 34  1  0  0  0  0
 32 33  1  1  0  0  0
M  END
>  <MODEL>
4

>  <REMARK>
 VINA RESULT:      -9.2      3.131      6.224
  Name = 
  3 active torsions:
  status: ('A' for Active; 'I' for Inactive)
    1  A    between atoms: C_7  and  C_11
    2  A    between atoms: N_8  and  C_18
    3  A    between atoms: C_18  and  C_30
                            x       y       z     vdW  Elec       q    Type
                         _______ _______ _______ _____ _____    ______ ____

>  <TORSDO>
F 3

$$$$
=
 OpenBabel11052415563D

 34 39  0  0  1  0  0  0  0  0999 V2000
  181.8210  178.3680  138.2140 C   0  0  1  0  0  3  0  0  0  0  0  0
  179.0480  177.5170  140.6450 C   0  0  0  0  0  3  0  0  0  0  0  0
  180.5320  178.3850  143.5850 C   0  0  0  0  0  0  0  0  0  0  0  0
  179.8170  176.2760  138.7140 C   0  0  0  0  0  2  0  0  0  0  0  0
  184.2100  178.2390  138.9690 N   0  0  0  0  0  0  0  0  0  0  0  0
  183.1700  179.1070  138.3890 C   0  0  0  0  0  2  0  0  0  0  0  0
  183.2240  176.3290  137.9100 C   0  0  0  0  0  0  0  0  0  0  0  0
  183.0840  175.0030  138.0940 N   0  0  0  0  0  0  0  0  0  0  0  0
  179.5670  177.6750  144.2910 O   0  0  0  0  0  1  0  0  0  0  0  0
  184.4880  177.0940  138.0900 C   0  0  0  0  0  2  0  0  0  0  0  0
  181.1700  175.9760  138.1750 C   0  0  0  0  0  0  0  0  0  0  0  0
  182.0440  176.9550  137.9270 N   0  0  0  0  0  0  0  0  0  0  0  0
  181.7850  174.7790  138.2630 N   0  0  0  0  0  0  0  0  0  0  0  0
  178.9470  178.6090  141.6630 C   0  0  0  0  0  2  0  0  0  0  0  0
  181.6550  178.5950  144.1170 O   0  0  0  0  0  0  0  0  0  0  0  0
  180.2510  178.8730  142.2660 N   0  0  0  0  0  0  0  0  0  0  0  0
  181.2760  179.6120  141.5280 C   0  0  0  0  0  2  0  0  0  0  0  0
  179.9100  177.4810  139.6190 C   0  0  0  0  0  0  0  0  0  0  0  0
  180.8910  179.7990  140.0650 C   0  0  0  0  0  2  0  0  0  0  0  0
  180.9150  178.5120  139.3690 N   0  0  0  0  0  0  0  0  0  0  0  0
  185.4410  179.0060  139.2050 C   0  0  0  0  0  2  0  0  0  0  0  0
  188.2210  177.8830  141.5470 C   0  0  0  0  0  3  0  0  0  0  0  0
  185.5180  178.6190  141.6920 C   0  0  0  0  0  3  0  0  0  0  0  0
  187.5880  177.5200  145.1800 C   0  0  0  0  0  0  0  0  0  0  0  0
  188.2490  177.5170  143.9420 C   0  0  0  0  0  3  0  0  0  0  0  0
  187.5650  177.8820  142.7800 C   0  0  0  0  0  0  0  0  0  0  0  0
  185.5460  178.2540  144.0860 C   0  0  0  0  0  3  0  0  0  0  0  0
  186.2020  178.2540  142.8540 C   0  0  0  0  0  0  0  0  0  0  0  0
  186.2370  177.8880  145.2460 C   0  0  0  0  0  3  0  0  0  0  0  0
  186.1780  178.6130  140.4570 C   0  0  0  0  0  0  0  0  0  0  0  0
  187.5290  178.2490  140.3890 C   0  0  0  0  0  3  0  0  0  0  0  0
  188.2970  177.1280  146.4360 C   0  0  1  0  0  3  0  0  0  0  0  0
  189.7840  177.4120  146.3290 C   0  0  0  0  0  1  0  0  0  0  0  0
  187.7390  177.8340  147.5770 N   0  0  0  0  0  1  0  0  0  0  0  0
  1  6  1  1  0  0  0
  1 20  1  0  0  0  0
  2 14  1  0  0  0  0
  3 15  2  0  0  0  0
  3  9  1  0  0  0  0
  4 18  1  0  0  0  0
  5 21  1  0  0  0  0
  6  5  1  0  0  0  0
  7 12  1  0  0  0  0
  7 10  1  0  0  0  0
  7  8  2  0  0  0  0
  8 13  1  0  0  0  0
 10  5  1  0  0  0  0
 11 13  2  0  0  0  0
 11  4  1  0  0  0  0
 12 11  1  0  0  0  0
 12  1  1  0  0  0  0
 14 16  1  0  0  0  0
 16  3  1  0  0  0  0
 17 16  1  0  0  0  0
 18  2  2  0  0  0  0
 19 17  1  0  0  0  0
 20 18  1  0  0  0  0
 20 19  1  0  0  0  0
 21 30  1  0  0  0  0
 22 26  1  0  0  0  0
 23 28  1  0  0  0  0
 24 29  1  0  0  0  0
 24 32  1  0  0  0  0
 25 24  2  0  0  0  0
 26 28  2  0  0  0  0
 26 25  1  0  0  0  0
 27 29  2  0  0  0  0
 28 27  1  0  0  0  0
 30 23  2  0  0  0  0
 31 30  1  0  0  0  0
 31 22  2  0  0  0  0
 32 33  1  6  0  0  0
 32 34  1  0  0  0  0
M  END
>  <MODEL>
5

>  <REMARK>
 VINA RESULT:      -8.9      2.398      4.664
  Name = 
  3 active torsions:
  status: ('A' for Active; 'I' for Inactive)
    1  A    between atoms: C_7  and  C_11
    2  A    between atoms: N_8  and  C_18
    3  A    between atoms: C_18  and  C_30
                            x       y       z     vdW  Elec       q    Type
                         _______ _______ _______ _____ _____    ______ ____

>  <TORSDO>
F 3

$$$$
=
 OpenBabel11052415563D

 34 39  0  0  1  0  0  0  0  0999 V2000
  188.8260  176.1390  135.6090 C   0  0  1  0  0  3  0  0  0  0  0  0
  186.6340  173.1200  134.9740 C   0  0  0  0  0  3  0  0  0  0  0  0
  184.0830  173.7560  137.1390 C   0  0  0  0  0  0  0  0  0  0  0  0
  189.0430  173.2390  135.1850 C   0  0  0  0  0  2  0  0  0  0  0  0
  188.7990  177.2340  137.8670 N   0  0  0  0  0  0  0  0  0  0  0  0
  188.6000  177.4390  136.4220 C   0  0  0  0  0  2  0  0  0  0  0  0
  190.4390  175.5470  137.4170 C   0  0  0  0  0  0  0  0  0  0  0  0
  190.9380  174.4200  137.9580 N   0  0  0  0  0  0  0  0  0  0  0  0
  183.6500  172.4400  137.0280 O   0  0  0  0  0  0  0  0  0  0  0  0
  190.1780  176.8130  138.1540 C   0  0  0  0  0  2  0  0  0  0  0  0
  189.9440  173.9830  136.1040 C   0  0  0  0  0  0  0  0  0  0  0  0
  189.8400  175.3060  136.2470 N   0  0  0  0  0  0  0  0  0  0  0  0
  190.6240  173.4300  137.1290 N   0  0  0  0  0  0  0  0  0  0  0  0
  185.2060  173.5640  134.9130 C   0  0  0  0  0  2  0  0  0  0  0  0
  183.7840  174.4190  138.1680 O   0  0  0  0  0  1  0  0  0  0  0  0
  184.8620  174.3520  136.0930 N   0  0  0  0  0  0  0  0  0  0  0  0
  185.3200  175.7360  136.2230 C   0  0  0  0  0  2  0  0  0  0  0  0
  187.6940  173.9170  135.1720 C   0  0  0  0  0  0  0  0  0  0  0  0
  186.3500  176.0910  135.1560 C   0  0  0  0  0  2  0  0  0  0  0  0
  187.5940  175.3580  135.3930 N   0  0  0  0  0  0  0  0  0  0  0  0
  188.4810  178.4650  138.6040 C   0  0  0  0  0  2  0  0  0  0  0  0
  189.1010  177.6080  142.2590 C   0  0  0  0  0  3  0  0  0  0  0  0
  187.0030  178.5280  140.6410 C   0  0  0  0  0  3  0  0  0  0  0  0
  186.3840  177.9460  144.7560 C   0  0  0  0  0  0  0  0  0  0  0  0
  187.6410  177.6780  144.1910 C   0  0  0  0  0  3  0  0  0  0  0  0
  187.8510  177.8700  142.8230 C   0  0  0  0  0  0  0  0  0  0  0  0
  185.5430  178.5990  142.5730 C   0  0  0  0  0  3  0  0  0  0  0  0
  186.7930  178.3350  142.0080 C   0  0  0  0  0  0  0  0  0  0  0  0
  185.3400  178.4040  143.9430 C   0  0  0  0  0  3  0  0  0  0  0  0
  188.2560  178.2580  140.0780 C   0  0  0  0  0  0  0  0  0  0  0  0
  189.3020  177.8020  140.8890 C   0  0  0  0  0  3  0  0  0  0  0  0
  186.1340  177.7420  146.2160 C   0  0  1  0  0  3  0  0  0  0  0  0
  187.4360  177.5190  146.9620 C   0  0  0  0  0  1  0  0  0  0  0  0
  185.4320  178.8840  146.7760 N   0  0  0  0  0  1  0  0  0  0  0  0
  1 12  1  0  0  0  0
  1  6  1  1  0  0  0
  2 18  2  0  0  0  0
  3 15  1  0  0  0  0
  4 11  1  0  0  0  0
  5 10  1  0  0  0  0
  5 21  1  0  0  0  0
  6  5  1  0  0  0  0
  7  8  2  0  0  0  0
  7 10  1  0  0  0  0
  9  3  2  0  0  0  0
 11 12  1  0  0  0  0
 11 13  2  0  0  0  0
 12  7  1  0  0  0  0
 13  8  1  0  0  0  0
 14  2  1  0  0  0  0
 14 16  1  0  0  0  0
 16 17  1  0  0  0  0
 16  3  1  0  0  0  0
 18  4  1  0  0  0  0
 18 20  1  0  0  0  0
 19 20  1  0  0  0  0
 19 17  1  0  0  0  0
 20  1  1  0  0  0  0
 21 30  1  0  0  0  0
 22 26  1  0  0  0  0
 23 28  1  0  0  0  0
 24 32  1  0  0  0  0
 25 24  1  0  0  0  0
 26 25  2  0  0  0  0
 27 29  1  0  0  0  0
 28 27  2  0  0  0  0
 28 26  1  0  0  0  0
 29 24  2  0  0  0  0
 30 23  2  0  0  0  0
 30 31  1  0  0  0  0
 31 22  2  0  0  0  0
 32 34  1  0  0  0  0
 32 33  1  1  0  0  0
M  END
>  <MODEL>
6

>  <REMARK>
 VINA RESULT:      -8.7      4.715      7.636
  Name = 
  3 active torsions:
  status: ('A' for Active; 'I' for Inactive)
    1  A    between atoms: C_7  and  C_11
    2  A    between atoms: N_8  and  C_18
    3  A    between atoms: C_18  and  C_30
                            x       y       z     vdW  Elec       q    Type
                         _______ _______ _______ _____ _____    ______ ____

>  <TORSDO>
F 3

$$$$
=
 OpenBabel11052415563D

 34 39  0  0  1  0  0  0  0  0999 V2000
  188.6240  176.8030  136.0840 C   0  0  1  0  0  3  0  0  0  0  0  0
  186.0740  174.1830  135.1070 C   0  0  0  0  0  3  0  0  0  0  0  0
  183.6880  174.7480  137.4710 C   0  0  0  0  0  0  0  0  0  0  0  0
  188.4850  174.0000  135.2100 C   0  0  0  0  0  2  0  0  0  0  0  0
  188.8010  177.5230  138.4810 N   0  0  0  0  0  0  0  0  0  0  0  0
  188.5800  177.9750  137.0960 C   0  0  0  0  0  2  0  0  0  0  0  0
  190.2160  175.7580  137.6950 C   0  0  0  0  0  0  0  0  0  0  0  0
  190.5970  174.5110  138.0310 N   0  0  0  0  0  0  0  0  0  0  0  0
  183.1010  173.5210  137.1820 O   0  0  0  0  0  0  0  0  0  0  0  0
  190.1300  176.9120  138.6290 C   0  0  0  0  0  2  0  0  0  0  0  0
  189.4980  174.4850  136.1850 C   0  0  0  0  0  0  0  0  0  0  0  0
  189.5550  175.7720  136.5340 N   0  0  0  0  0  0  0  0  0  0  0  0
  190.1420  173.7050  137.0770 N   0  0  0  0  0  0  0  0  0  0  0  0
  184.7070  174.7870  135.1880 C   0  0  0  0  0  2  0  0  0  0  0  0
  183.5040  175.2680  138.6040 O   0  0  0  0  0  1  0  0  0  0  0  0
  184.4960  175.4120  136.4900 N   0  0  0  0  0  0  0  0  0  0  0  0
  185.1180  176.6980  136.8080 C   0  0  0  0  0  2  0  0  0  0  0  0
  187.2260  174.8160  135.3700 C   0  0  0  0  0  0  0  0  0  0  0  0
  186.1460  177.1010  135.7560 C   0  0  0  0  0  2  0  0  0  0  0  0
  187.3030  176.2060  135.8140 N   0  0  0  0  0  0  0  0  0  0  0  0
  188.6550  178.6500  139.4130 C   0  0  0  0  0  2  0  0  0  0  0  0
  187.4970  177.5220  142.8580 C   0  0  0  0  0  3  0  0  0  0  0  0
  189.8850  178.2370  141.5710 C   0  0  0  0  0  3  0  0  0  0  0  0
  189.9310  177.1280  145.6240 C   0  0  0  0  0  0  0  0  0  0  0  0
  188.7190  177.1430  144.9140 C   0  0  0  0  0  3  0  0  0  0  0  0
  188.7000  177.5100  143.5660 C   0  0  0  0  0  0  0  0  0  0  0  0
  191.1070  177.8560  143.6270 C   0  0  0  0  0  3  0  0  0  0  0  0
  189.9040  177.8690  142.9190 C   0  0  0  0  0  0  0  0  0  0  0  0
  191.1200  177.4870  144.9760 C   0  0  0  0  0  3  0  0  0  0  0  0
  188.6760  178.2530  140.8650 C   0  0  0  0  0  0  0  0  0  0  0  0
  187.4860  177.8930  141.5090 C   0  0  0  0  0  3  0  0  0  0  0  0
  189.9760  176.7440  147.0680 C   0  0  1  0  0  3  0  0  0  0  0  0
  191.3850  176.3650  147.4830 C   0  0  0  0  0  1  0  0  0  0  0  0
  189.4910  177.8330  147.8990 N   0  0  0  0  0  1  0  0  0  0  0  0
  1 12  1  0  0  0  0
  1  6  1  1  0  0  0
  2 14  1  0  0  0  0
  2 18  2  0  0  0  0
  3 15  1  0  0  0  0
  4 18  1  0  0  0  0
  4 11  1  0  0  0  0
  5 10  1  0  0  0  0
  5 21  1  0  0  0  0
  6  5  1  0  0  0  0
  7  8  2  0  0  0  0
  7 10  1  0  0  0  0
  9  3  2  0  0  0  0
 11 12  1  0  0  0  0
 11 13  2  0  0  0  0
 12  7  1  0  0  0  0
 13  8  1  0  0  0  0
 14 16  1  0  0  0  0
 16 17  1  0  0  0  0
 16  3  1  0  0  0  0
 18 20  1  0  0  0  0
 19 20  1  0  0  0  0
 19 17  1  0  0  0  0
 20  1  1  0  0  0  0
 21 30  1  0  0  0  0
 22 26  1  0  0  0  0
 23 28  1  0  0  0  0
 24 32  1  0  0  0  0
 25 24  2  0  0  0  0
 26 25  1  0  0  0  0
 27 29  2  0  0  0  0
 28 26  2  0  0  0  0
 28 27  1  0  0  0  0
 29 24  1  0  0  0  0
 30 31  1  0  0  0  0
 30 23  2  0  0  0  0
 31 22  2  0  0  0  0
 32 33  1  1  0  0  0
 32 34  1  0  0  0  0
M  END
>  <MODEL>
7

>  <REMARK>
 VINA RESULT:      -8.7      4.896      7.330
  Name = 
  3 active torsions:
  status: ('A' for Active; 'I' for Inactive)
    1  A    between atoms: C_7  and  C_11
    2  A    between atoms: N_8  and  C_18
    3  A    between atoms: C_18  and  C_30
                            x       y       z     vdW  Elec       q    Type
                         _______ _______ _______ _____ _____    ______ ____

>  <TORSDO>
F 3

$$$$
=
 OpenBabel11052415563D

 34 39  0  0  1  0  0  0  0  0999 V2000
  181.6040  177.3040  138.5280 C   0  0  1  0  0  3  0  0  0  0  0  0
  183.6270  177.4130  135.3310 C   0  0  0  0  0  3  0  0  0  0  0  0
  186.7200  178.0780  136.5920 C   0  0  0  0  0  0  0  0  0  0  0  0
  181.4320  178.3310  135.7790 C   0  0  0  0  0  2  0  0  0  0  0  0
  182.3330  178.6750  140.4990 N   0  0  0  0  0  0  0  0  0  0  0  0
  182.0140  177.3180  140.0220 C   0  0  0  0  0  2  0  0  0  0  0  0
  180.7430  179.6040  138.9670 C   0  0  0  0  0  0  0  0  0  0  0  0
  180.5290  180.7260  138.2540 N   0  0  0  0  0  0  0  0  0  0  0  0
  187.1680  178.4360  135.3260 O   0  0  0  0  0  0  0  0  0  0  0  0
  181.1630  179.5580  140.3940 C   0  0  0  0  0  2  0  0  0  0  0  0
  180.8550  179.0560  136.9420 C   0  0  0  0  0  0  0  0  0  0  0  0
  180.9210  178.5440  138.1730 N   0  0  0  0  0  0  0  0  0  0  0  0
  180.6000  180.3800  136.9730 N   0  0  0  0  0  0  0  0  0  0  0  0
  184.9180  176.6900  135.5520 C   0  0  0  0  0  2  0  0  0  0  0  0
  187.3110  178.5340  137.6070 O   0  0  0  0  0  1  0  0  0  0  0  0
  185.5960  177.1990  136.7410 N   0  0  0  0  0  0  0  0  0  0  0  0
  185.1260  176.8360  138.0790 C   0  0  0  0  0  2  0  0  0  0  0  0
  182.6520  177.5690  136.2380 C   0  0  0  0  0  0  0  0  0  0  0  0
  183.7750  176.1320  138.0290 C   0  0  0  0  0  2  0  0  0  0  0  0
  182.7330  177.0700  137.6090 N   0  0  0  0  0  0  0  0  0  0  0  0
  182.8080  178.6270  141.8890 C   0  0  0  0  0  2  0  0  0  0  0  0
  186.5210  178.7740  141.0730 C   0  0  0  0  0  3  0  0  0  0  0  0
  184.8660  178.0630  143.2240 C   0  0  0  0  0  3  0  0  0  0  0  0
  189.0410  177.7570  143.5920 C   0  0  0  0  0  0  0  0  0  0  0  0
  188.4740  178.2140  142.3920 C   0  0  0  0  0  3  0  0  0  0  0  0
  187.0870  178.3170  142.2650 C   0  0  0  0  0  0  0  0  0  0  0  0
  186.8200  177.5040  144.5430 C   0  0  0  0  0  3  0  0  0  0  0  0
  186.2540  177.9600  143.3510 C   0  0  0  0  0  0  0  0  0  0  0  0
  188.2100  177.4030  144.6630 C   0  0  0  0  0  3  0  0  0  0  0  0
  184.3020  178.5160  142.0250 C   0  0  0  0  0  0  0  0  0  0  0  0
  185.1310  178.8730  140.9550 C   0  0  0  0  0  3  0  0  0  0  0  0
  190.5230  177.6320  143.7490 C   0  0  1  0  0  3  0  0  0  0  0  0
  191.1600  178.9920  143.9660 C   0  0  0  0  0  1  0  0  0  0  0  0
  190.8440  176.7530  144.8600 N   0  0  0  0  0  1  0  0  0  0  0  0
  1  6  1  1  0  0  0
  2 14  1  0  0  0  0
  2 18  2  0  0  0  0
  3 16  1  0  0  0  0
  3 15  1  0  0  0  0
  4 18  1  0  0  0  0
  4 11  1  0  0  0  0
  5 21  1  0  0  0  0
  6  5  1  0  0  0  0
  7 10  1  0  0  0  0
  8  7  2  0  0  0  0
  9  3  2  0  0  0  0
 10  5  1  0  0  0  0
 11 13  2  0  0  0  0
 11 12  1  0  0  0  0
 12  1  1  0  0  0  0
 12  7  1  0  0  0  0
 13  8  1  0  0  0  0
 14 16  1  0  0  0  0
 16 17  1  0  0  0  0
 18 20  1  0  0  0  0
 19 17  1  0  0  0  0
 20 19  1  0  0  0  0
 20  1  1  0  0  0  0
 21 30  1  0  0  0  0
 22 26  1  0  0  0  0
 23 28  1  0  0  0  0
 24 32  1  0  0  0  0
 24 29  1  0  0  0  0
 25 24  2  0  0  0  0
 26 25  1  0  0  0  0
 26 28  2  0  0  0  0
 27 29  2  0  0  0  0
 28 27  1  0  0  0  0
 30 23  2  0  0  0  0
 31 22  2  0  0  0  0
 31 30  1  0  0  0  0
 32 33  1  1  0  0  0
 32 34  1  0  0  0  0
M  END
>  <MODEL>
8

>  <REMARK>
 VINA RESULT:      -8.6      1.787      2.399
  Name = 
  3 active torsions:
  status: ('A' for Active; 'I' for Inactive)
    1  A    between atoms: C_7  and  C_11
    2  A    between atoms: N_8  and  C_18
    3  A    between atoms: C_18  and  C_30
                            x       y       z     vdW  Elec       q    Type
                         _______ _______ _______ _____ _____    ______ ____

>  <TORSDO>
F 3

$$$$
=
 OpenBabel11052415563D

 34 39  0  0  1  0  0  0  0  0999 V2000
  187.4630  178.2290  137.1140 C   0  0  1  0  0  3  0  0  0  0  0  0
  187.9050  174.9440  135.2880 C   0  0  0  0  0  3  0  0  0  0  0  0
  185.5980  173.0340  136.9080 C   0  0  0  0  0  0  0  0  0  0  0  0
  189.5920  176.4990  136.0600 C   0  0  0  0  0  2  0  0  0  0  0  0
  186.6960  178.2220  139.5040 N   0  0  0  0  0  0  0  0  0  0  0  0
  186.4130  178.7160  138.1440 C   0  0  0  0  0  2  0  0  0  0  0  0
  189.0470  178.2530  139.0400 C   0  0  0  0  0  0  0  0  0  0  0  0
  190.1770  177.6120  139.3910 N   0  0  0  0  0  0  0  0  0  0  0  0
  186.1740  171.8810  136.3860 O   0  0  0  0  0  0  0  0  0  0  0  0
  187.9940  178.7190  139.9840 C   0  0  0  0  0  2  0  0  0  0  0  0
  189.7470  177.2880  137.3110 C   0  0  0  0  0  0  0  0  0  0  0  0
  188.7720  178.0900  137.7430 N   0  0  0  0  0  0  0  0  0  0  0  0
  190.6210  177.0000  138.2970 N   0  0  0  0  0  0  0  0  0  0  0  0
  186.5560  174.3580  135.0150 C   0  0  0  0  0  2  0  0  0  0  0  0
  184.9270  172.9600  137.9720 O   0  0  0  0  0  1  0  0  0  0  0  0
  185.7660  174.2920  136.2410 N   0  0  0  0  0  0  0  0  0  0  0  0
  185.1630  175.5010  136.8040 C   0  0  0  0  0  2  0  0  0  0  0  0
  188.1420  176.1090  135.9070 C   0  0  0  0  0  0  0  0  0  0  0  0
  185.6790  176.7600  136.1160 C   0  0  0  0  0  2  0  0  0  0  0  0
  187.0890  176.9700  136.4420 N   0  0  0  0  0  0  0  0  0  0  0  0
  185.6270  178.6270  140.4260 C   0  0  0  0  0  2  0  0  0  0  0  0
  185.2950  178.4990  144.2140 C   0  0  0  0  0  3  0  0  0  0  0  0
  187.2260  177.9610  142.2520 C   0  0  0  0  0  3  0  0  0  0  0  0
  188.1410  177.3940  146.3140 C   0  0  0  0  0  0  0  0  0  0  0  0
  186.8690  177.8550  145.9390 C   0  0  0  0  0  3  0  0  0  0  0  0
  186.5600  178.0440  144.5890 C   0  0  0  0  0  0  0  0  0  0  0  0
  188.7990  177.3160  143.9770 C   0  0  0  0  0  3  0  0  0  0  0  0
  187.5340  177.7720  143.6010 C   0  0  0  0  0  0  0  0  0  0  0  0
  189.1010  177.1280  145.3300 C   0  0  0  0  0  3  0  0  0  0  0  0
  185.9580  178.4230  141.8790 C   0  0  0  0  0  0  0  0  0  0  0  0
  184.9950  178.6870  142.8610 C   0  0  0  0  0  3  0  0  0  0  0  0
  188.4960  177.1890  147.7520 C   0  0  1  0  0  3  0  0  0  0  0  0
  189.9110  177.6580  148.0320 C   0  0  0  0  0  1  0  0  0  0  0  0
  187.5620  177.8960  148.6110 N   0  0  0  0  0  1  0  0  0  0  0  0
  1 12  1  0  0  0  0
  1  6  1  1  0  0  0
  2 18  2  0  0  0  0
  3 15  1  0  0  0  0
  4 11  1  0  0  0  0
  5 10  1  0  0  0  0
  5 21  1  0  0  0  0
  6  5  1  0  0  0  0
  7  8  2  0  0  0  0
  7 10  1  0  0  0  0
  9  3  2  0  0  0  0
 11 12  1  0  0  0  0
 11 13  2  0  0  0  0
 12  7  1  0  0  0  0
 13  8  1  0  0  0  0
 14  2  1  0  0  0  0
 14 16  1  0  0  0  0
 16 17  1  0  0  0  0
 16  3  1  0  0  0  0
 18  4  1  0  0  0  0
 18 20  1  0  0  0  0
 19 20  1  0  0  0  0
 19 17  1  0  0  0  0
 20  1  1  0  0  0  0
 21 30  1  0  0  0  0
 22 26  1  0  0  0  0
 23 28  1  0  0  0  0
 24 32  1  0  0  0  0
 25 24  1  0  0  0  0
 26 25  2  0  0  0  0
 27 29  1  0  0  0  0
 28 27  2  0  0  0  0
 28 26  1  0  0  0  0
 29 24  2  0  0  0  0
 30 23  2  0  0  0  0
 30 31  1  0  0  0  0
 31 22  2  0  0  0  0
 32 33  1  6  0  0  0
 32 34  1  0  0  0  0
M  END
>  <MODEL>
9

>  <REMARK>
 VINA RESULT:      -8.6      4.263      6.288
  Name = 
  3 active torsions:
  status: ('A' for Active; 'I' for Inactive)
    1  A    between atoms: C_7  and  C_11
    2  A    between atoms: N_8  and  C_18
    3  A    between atoms: C_18  and  C_30
                            x       y       z     vdW  Elec       q    Type
                         _______ _______ _______ _____ _____    ______ ____

>  <TORSDO>
F 3

$$$$
