=
 OpenBabel11052414273D

 32 38  0  0  1  0  0  0  0  0999 V2000
  181.7570  178.4790  139.0930 C   0  0  2  0  0  3  0  0  0  0  0  0
  181.8650  178.6330  141.5790 C   0  0  2  0  0  3  0  0  0  0  0  0
  181.6730  179.2530  137.7750 C   0  0  0  0  0  2  0  0  0  0  0  0
  181.6510  179.4260  140.2930 C   0  0  2  0  0  3  0  0  0  0  0  0
  181.5560  179.5230  142.7700 C   0  0  2  0  0  3  0  0  0  0  0  0
  186.1530  178.2490  144.2360 C   0  0  0  0  0  2  0  0  0  0  0  0
  183.2630  177.9820  141.6510 C   0  0  1  0  0  3  0  0  0  0  0  0
  183.9640  178.6720  145.1700 O   0  0  0  0  0  0  0  0  0  0  0  0
  183.4250  179.1750  143.9680 C   0  0  2  0  0  3  0  0  0  0  0  0
  180.3470  180.2700  140.2990 C   0  0  2  0  0  3  0  0  0  0  0  0
  182.0380  178.9270  143.9440 O   0  0  0  0  0  0  0  0  0  0  0  0
  179.3790  179.8800  141.4240 C   0  0  0  0  0  2  0  0  0  0  0  0
  179.6270  180.2450  138.9470 C   0  0  0  0  0  2  0  0  0  0  0  0
  183.9620  177.9460  140.2790 C   0  0  0  0  0  2  0  0  0  0  0  0
  183.0000  177.5620  139.1330 C   0  0  1  0  0  3  0  0  0  0  0  0
  184.1790  178.6210  142.7080 C   0  0  1  0  0  3  0  0  0  0  0  0
  180.0480  179.8600  142.8180 C   0  0  1  0  0  3  0  0  0  0  0  0
  180.6330  180.3870  137.8010 C   0  0  0  0  0  2  0  0  0  0  0  0
  185.3080  179.0800  145.2100 C   0  0  0  0  0  2  0  0  0  0  0  0
  185.3000  177.6600  143.1090 C   0  0  0  0  0  2  0  0  0  0  0  0
  180.6920  174.0380  136.9210 C   0  0  0  0  0  1  0  0  0  0  0  0
  181.8610  175.8990  135.0470 O   0  0  0  0  0  1  0  0  0  0  0  0
  180.4150  174.8780  139.7020 C   0  0  0  0  0  2  0  0  0  0  0  0
  183.4370  175.5030  136.8270 C   0  0  0  0  0  2  0  0  0  0  0  0
  182.6160  176.0650  139.2010 C   0  0  2  0  0  3  0  0  0  0  0  0
  180.9050  175.5180  137.2360 C   0  0  1  0  0  3  0  0  0  0  0  0
  183.5670  175.2210  138.3370 C   0  0  0  0  0  2  0  0  0  0  0  0
  181.1780  175.7640  138.7330 C   0  0  0  0  0  0  0  0  0  0  0  0
  180.0170  176.3290  139.5280 C   0  0  0  0  0  2  0  0  0  0  0  0
  182.0720  176.0820  136.4140 C   0  0  2  0  0  3  0  0  0  0  0  0
  179.2450  178.9890  143.7880 C   0  0  0  0  0  2  0  0  0  0  0  0
  178.9310  179.7140  145.0890 C   0  0  0  0  0  1  0  0  0  0  0  0
  1  3  1  6  0  0  0
  1 15  1  0  0  0  0
  1  4  1  0  0  0  0
  2  7  1  0  0  0  0
  2  5  1  0  0  0  0
  3 18  1  0  0  0  0
  4 10  1  0  0  0  0
  4  2  1  0  0  0  0
  5 17  1  0  0  0  0
  5 11  1  0  0  0  0
  6 19  1  0  0  0  0
  7 16  1  0  0  0  0
  8 19  1  0  0  0  0
  9  8  1  0  0  0  0
 10 12  1  0  0  0  0
 11  9  1  0  0  0  0
 12 17  1  0  0  0  0
 13 10  1  0  0  0  0
 14  7  1  0  0  0  0
 15 25  1  0  0  0  0
 15 14  1  0  0  0  0
 16 20  1  0  0  0  0
 16  9  1  0  0  0  0
 17 31  1  0  0  0  0
 18 13  1  0  0  0  0
 20  6  1  0  0  0  0
 21 26  1  0  0  0  0
 22 30  1  0  0  0  0
 24 27  1  0  0  0  0
 26 28  1  0  0  0  0
 27 25  1  0  0  0  0
 28 25  1  0  0  0  0
 28 29  1  0  0  0  0
 28 23  1  0  0  0  0
 29 23  1  0  0  0  0
 30 24  1  0  0  0  0
 30 26  1  0  0  0  0
 31 32  1  0  0  0  0
M  END
>  <MODEL>
1

>  <REMARK>
 VINA RESULT:      -6.7      0.000      0.000
  Name = 
  2 active torsions:
  status: ('A' for Active; 'I' for Inactive)
    1  A    between atoms: C_13  and  C_29
    2  A    between atoms: C_16  and  C_27
                            x       y       z     vdW  Elec       q    Type
                         _______ _______ _______ _____ _____    ______ ____

>  <TORSDO>
F 2

$$$$
=
 OpenBabel11052414273D

 32 38  0  0  1  0  0  0  0  0999 V2000
  182.1230  178.1950  141.2860 C   0  0  2  0  0  3  0  0  0  0  0  0
  184.5910  177.9820  141.5640 C   0  0  2  0  0  3  0  0  0  0  0  0
  180.9020  179.1070  141.4360 C   0  0  0  0  0  2  0  0  0  0  0  0
  183.3810  178.8660  141.8480 C   0  0  2  0  0  3  0  0  0  0  0  0
  185.7980  178.5410  142.2970 C   0  0  2  0  0  3  0  0  0  0  0  0
  187.9020  178.4820  137.7710 C   0  0  0  0  0  2  0  0  0  0  0  0
  184.8370  177.7740  140.0540 C   0  0  1  0  0  3  0  0  0  0  0  0
  188.4780  178.0800  140.0850 O   0  0  0  0  0  0  0  0  0  0  0  0
  187.2610  178.5820  140.5910 C   0  0  2  0  0  3  0  0  0  0  0  0
  183.2480  179.2720  143.3410 C   0  0  2  0  0  3  0  0  0  0  0  0
  186.9670  177.9390  141.8100 O   0  0  0  0  0  0  0  0  0  0  0  0
  184.1380  178.4390  144.2740 C   0  0  0  0  0  2  0  0  0  0  0  0
  181.7960  179.2460  143.8280 C   0  0  0  0  0  2  0  0  0  0  0  0
  183.6120  178.1650  139.2040 C   0  0  0  0  0  2  0  0  0  0  0  0
  182.2810  177.6960  139.8320 C   0  0  1  0  0  3  0  0  0  0  0  0
  186.1000  178.4830  139.5390 C   0  0  1  0  0  3  0  0  0  0  0  0
  185.6170  178.4000  143.8250 C   0  0  1  0  0  3  0  0  0  0  0  0
  180.8670  179.8600  142.7780 C   0  0  0  0  0  2  0  0  0  0  0  0
  188.7970  178.8580  138.9600 C   0  0  0  0  0  2  0  0  0  0  0  0
  186.5860  177.8500  138.2340 C   0  0  0  0  0  2  0  0  0  0  0  0
  180.0790  174.1770  137.5080 C   0  0  0  0  0  1  0  0  0  0  0  0
  180.6110  176.4330  135.7860 O   0  0  0  0  0  1  0  0  0  0  0  0
  180.2310  174.5830  140.3940 C   0  0  0  0  0  2  0  0  0  0  0  0
  182.5370  176.0590  137.1860 C   0  0  0  0  0  2  0  0  0  0  0  0
  182.1190  176.1610  139.7230 C   0  0  2  0  0  3  0  0  0  0  0  0
  180.1510  175.6170  138.0150 C   0  0  1  0  0  3  0  0  0  0  0  0
  182.9900  175.6020  138.5870 C   0  0  0  0  0  2  0  0  0  0  0  0
  180.6700  175.7010  139.4640 C   0  0  0  0  0  0  0  0  0  0  0  0
  179.6190  175.9630  140.5250 C   0  0  0  0  0  2  0  0  0  0  0  0
  181.0540  176.4630  137.1080 C   0  0  2  0  0  3  0  0  0  0  0  0
  186.3320  177.1890  144.4300 C   0  0  0  0  0  2  0  0  0  0  0  0
  187.4490  177.5930  145.3820 C   0  0  0  0  0  1  0  0  0  0  0  0
  1  3  1  6  0  0  0
  1  4  1  0  0  0  0
  2  4  1  0  0  0  0
  2  5  1  0  0  0  0
  3 18  1  0  0  0  0
  4 10  1  0  0  0  0
  5 17  1  0  0  0  0
  6 20  1  0  0  0  0
  6 19  1  0  0  0  0
  7  2  1  0  0  0  0
  8  9  1  0  0  0  0
  9 11  1  0  0  0  0
 10 13  1  0  0  0  0
 10 12  1  0  0  0  0
 11  5  1  0  0  0  0
 14 15  1  0  0  0  0
 14  7  1  0  0  0  0
 15  1  1  0  0  0  0
 16  7  1  0  0  0  0
 16  9  1  0  0  0  0
 17 12  1  0  0  0  0
 17 31  1  0  0  0  0
 18 13  1  0  0  0  0
 19  8  1  0  0  0  0
 20 16  1  0  0  0  0
 21 26  1  0  0  0  0
 22 30  1  0  0  0  0
 23 29  1  0  0  0  0
 24 27  1  0  0  0  0
 25 15  1  0  0  0  0
 26 28  1  0  0  0  0
 27 25  1  0  0  0  0
 28 25  1  0  0  0  0
 28 23  1  0  0  0  0
 28 29  1  0  0  0  0
 30 24  1  0  0  0  0
 30 26  1  0  0  0  0
 31 32  1  0  0  0  0
M  END
>  <MODEL>
2

>  <REMARK>
 VINA RESULT:      -6.5      2.303      4.257
  Name = 
  2 active torsions:
  status: ('A' for Active; 'I' for Inactive)
    1  A    between atoms: C_13  and  C_29
    2  A    between atoms: C_16  and  C_27
                            x       y       z     vdW  Elec       q    Type
                         _______ _______ _______ _____ _____    ______ ____

>  <TORSDO>
F 2

$$$$
=
 OpenBabel11052414273D

 32 38  0  0  1  0  0  0  0  0999 V2000
  181.0920  177.8500  140.8680 C   0  0  2  0  0  3  0  0  0  0  0  0
  183.5790  177.9680  140.9650 C   0  0  2  0  0  3  0  0  0  0  0  0
  179.7780  178.6280  140.9810 C   0  0  0  0  0  2  0  0  0  0  0  0
  182.2880  178.7420  141.2120 C   0  0  2  0  0  3  0  0  0  0  0  0
  184.7520  178.7730  141.4980 C   0  0  2  0  0  3  0  0  0  0  0  0
  186.5440  178.2230  136.8730 C   0  0  0  0  0  2  0  0  0  0  0  0
  183.7500  177.5480  139.4890 C   0  0  1  0  0  3  0  0  0  0  0  0
  187.3160  178.2700  139.1630 O   0  0  0  0  0  0  0  0  0  0  0  0
  186.0820  178.7040  139.6890 C   0  0  2  0  0  3  0  0  0  0  0  0
  182.2040  179.3670  142.6310 C   0  0  2  0  0  3  0  0  0  0  0  0
  185.9530  178.2380  141.0120 O   0  0  0  0  0  0  0  0  0  0  0  0
  183.2520  178.8030  143.6020 C   0  0  0  0  0  2  0  0  0  0  0  0
  180.8030  179.2540  143.2390 C   0  0  0  0  0  2  0  0  0  0  0  0
  182.4330  177.6530  138.6970 C   0  0  0  0  0  2  0  0  0  0  0  0
  181.2160  177.1430  139.5000 C   0  0  1  0  0  3  0  0  0  0  0  0
  184.8760  178.3040  138.7670 C   0  0  1  0  0  3  0  0  0  0  0  0
  184.6910  178.8620  143.0400 C   0  0  1  0  0  3  0  0  0  0  0  0
  179.7360  179.5790  142.1900 C   0  0  0  0  0  2  0  0  0  0  0  0
  187.4600  178.8870  137.9090 C   0  0  0  0  0  2  0  0  0  0  0  0
  185.3510  177.5280  137.5360 C   0  0  0  0  0  2  0  0  0  0  0  0
  179.1820  173.0780  138.0950 C   0  0  0  0  0  1  0  0  0  0  0  0
  179.1620  175.0670  136.0020 O   0  0  0  0  0  1  0  0  0  0  0  0
  179.6930  173.9610  140.8290 C   0  0  0  0  0  2  0  0  0  0  0  0
  181.3010  175.1350  137.1110 C   0  0  0  0  0  2  0  0  0  0  0  0
  181.2420  175.6030  139.6410 C   0  0  2  0  0  3  0  0  0  0  0  0
  179.1380  174.5800  138.3710 C   0  0  1  0  0  3  0  0  0  0  0  0
  182.0060  174.9630  138.4700 C   0  0  0  0  0  2  0  0  0  0  0  0
  179.8440  174.9540  139.6880 C   0  0  0  0  0  0  0  0  0  0  0  0
  178.9310  175.2700  140.8580 C   0  0  0  0  0  2  0  0  0  0  0  0
  179.7820  175.3600  137.2170 C   0  0  2  0  0  3  0  0  0  0  0  0
  185.5920  177.8540  143.7600 C   0  0  0  0  0  2  0  0  0  0  0  0
  185.8300  178.2280  145.2160 C   0  0  0  0  0  1  0  0  0  0  0  0
  1  3  1  6  0  0  0
  1  4  1  0  0  0  0
  2  4  1  0  0  0  0
  2  5  1  0  0  0  0
  3 18  1  0  0  0  0
  4 10  1  0  0  0  0
  5 17  1  0  0  0  0
  6 20  1  0  0  0  0
  6 19  1  0  0  0  0
  7  2  1  0  0  0  0
  8  9  1  0  0  0  0
  9 11  1  0  0  0  0
 10 13  1  0  0  0  0
 10 12  1  0  0  0  0
 11  5  1  0  0  0  0
 14  7  1  0  0  0  0
 14 15  1  0  0  0  0
 15 25  1  0  0  0  0
 15  1  1  0  0  0  0
 16  7  1  0  0  0  0
 16  9  1  0  0  0  0
 17 12  1  0  0  0  0
 17 31  1  0  0  0  0
 18 13  1  0  0  0  0
 19  8  1  0  0  0  0
 20 16  1  0  0  0  0
 21 26  1  0  0  0  0
 22 30  1  0  0  0  0
 23 29  1  0  0  0  0
 24 30  1  0  0  0  0
 24 27  1  0  0  0  0
 25 28  1  0  0  0  0
 26 28  1  0  0  0  0
 27 25  1  0  0  0  0
 28 23  1  0  0  0  0
 28 29  1  0  0  0  0
 30 26  1  0  0  0  0
 31 32  1  0  0  0  0
M  END
>  <MODEL>
3

>  <REMARK>
 VINA RESULT:      -6.5      2.255      4.099
  Name = 
  2 active torsions:
  status: ('A' for Active; 'I' for Inactive)
    1  A    between atoms: C_13  and  C_29
    2  A    between atoms: C_16  and  C_27
                            x       y       z     vdW  Elec       q    Type
                         _______ _______ _______ _____ _____    ______ ____

>  <TORSDO>
F 2

$$$$
=
 OpenBabel11052414273D

 32 38  0  0  1  0  0  0  0  0999 V2000
  181.5930  177.2040  137.4090 C   0  0  2  0  0  3  0  0  0  0  0  0
  183.9520  177.5380  138.1400 C   0  0  2  0  0  3  0  0  0  0  0  0
  180.3690  177.8350  136.7400 C   0  0  0  0  0  2  0  0  0  0  0  0
  182.7120  178.2350  137.5890 C   0  0  2  0  0  3  0  0  0  0  0  0
  184.9870  178.5860  138.5120 C   0  0  2  0  0  3  0  0  0  0  0  0
  187.9650  175.9420  135.5040 C   0  0  0  0  0  2  0  0  0  0  0  0
  184.4990  176.4530  137.1860 C   0  0  1  0  0  3  0  0  0  0  0  0
  188.0580  177.1790  137.5790 O   0  0  0  0  0  0  0  0  0  0  0  0
  186.7650  177.7240  137.4420 C   0  0  2  0  0  3  0  0  0  0  0  0
  182.2800  179.4740  138.4190 C   0  0  2  0  0  3  0  0  0  0  0  0
  186.2290  177.9700  138.7220 O   0  0  0  0  0  0  0  0  0  0  0  0
  182.9600  179.5470  139.7940 C   0  0  0  0  0  2  0  0  0  0  0  0
  180.7590  179.5750  138.5730 C   0  0  0  0  0  2  0  0  0  0  0  0
  183.4740  176.0530  136.1090 C   0  0  0  0  0  2  0  0  0  0  0  0
  182.0420  175.9220  136.6730 C   0  0  1  0  0  3  0  0  0  0  0  0
  185.8420  176.8310  136.5410 C   0  0  1  0  0  3  0  0  0  0  0  0
  184.4990  179.4250  139.7150 C   0  0  1  0  0  3  0  0  0  0  0  0
  180.0640  179.2550  137.2470 C   0  0  0  0  0  2  0  0  0  0  0  0
  188.6010  177.0990  136.2860 C   0  0  0  0  0  2  0  0  0  0  0  0
  186.5810  175.5830  136.0530 C   0  0  0  0  0  2  0  0  0  0  0  0
  179.5450  171.9370  137.3970 C   0  0  0  0  0  1  0  0  0  0  0  0
  179.6990  172.6130  134.5940 O   0  0  0  0  0  1  0  0  0  0  0  0
  180.2070  174.0030  139.3490 C   0  0  0  0  0  2  0  0  0  0  0  0
  181.8550  172.9960  135.6000 C   0  0  0  0  0  2  0  0  0  0  0  0
  181.9010  174.6620  137.5600 C   0  0  2  0  0  3  0  0  0  0  0  0
  179.6710  173.3730  136.8900 C   0  0  1  0  0  3  0  0  0  0  0  0
  182.5660  173.4490  136.8900 C   0  0  0  0  0  2  0  0  0  0  0  0
  180.4420  174.2750  137.8730 C   0  0  0  0  0  0  0  0  0  0  0  0
  179.5940  175.2250  138.6970 C   0  0  0  0  0  2  0  0  0  0  0  0
  180.3730  173.4030  135.5250 C   0  0  2  0  0  3  0  0  0  0  0  0
  185.0740  178.9780  141.0620 C   0  0  0  0  0  2  0  0  0  0  0  0
  184.0490  178.2380  141.9100 C   0  0  0  0  0  1  0  0  0  0  0  0
  1  3  1  6  0  0  0
  1  4  1  0  0  0  0
  2  5  1  0  0  0  0
  3 18  1  0  0  0  0
  4  2  1  0  0  0  0
  4 10  1  0  0  0  0
  5 11  1  0  0  0  0
  5 17  1  0  0  0  0
  6 20  1  0  0  0  0
  6 19  1  0  0  0  0
  7  2  1  0  0  0  0
  9  8  1  0  0  0  0
  9 11  1  0  0  0  0
 10 13  1  0  0  0  0
 10 12  1  0  0  0  0
 14 15  1  0  0  0  0
 14  7  1  0  0  0  0
 15  1  1  0  0  0  0
 15 25  1  0  0  0  0
 16  7  1  0  0  0  0
 16  9  1  0  0  0  0
 17 12  1  0  0  0  0
 17 31  1  0  0  0  0
 18 13  1  0  0  0  0
 19  8  1  0  0  0  0
 20 16  1  0  0  0  0
 22 30  1  0  0  0  0
 24 27  1  0  0  0  0
 25 28  1  0  0  0  0
 26 21  1  0  0  0  0
 26 28  1  0  0  0  0
 27 25  1  0  0  0  0
 28 29  1  0  0  0  0
 28 23  1  0  0  0  0
 29 23  1  0  0  0  0
 30 24  1  0  0  0  0
 30 26  1  0  0  0  0
 31 32  1  0  0  0  0
M  END
>  <MODEL>
4

>  <REMARK>
 VINA RESULT:      -5.3      2.976      4.946
  Name = 
  2 active torsions:
  status: ('A' for Active; 'I' for Inactive)
    1  A    between atoms: C_13  and  C_29
    2  A    between atoms: C_16  and  C_27
                            x       y       z     vdW  Elec       q    Type
                         _______ _______ _______ _____ _____    ______ ____

>  <TORSDO>
F 2

$$$$
=
 OpenBabel11052414273D

 32 38  0  0  1  0  0  0  0  0999 V2000
  190.3680  175.9870  137.8450 C   0  0  2  0  0  3  0  0  0  0  0  0
  188.2280  175.4610  136.6820 C   0  0  2  0  0  3  0  0  0  0  0  0
  191.0330  176.3630  139.1720 C   0  0  0  0  0  2  0  0  0  0  0  0
  188.8420  175.9600  137.9850 C   0  0  2  0  0  3  0  0  0  0  0  0
  186.7190  175.6290  136.7460 C   0  0  2  0  0  3  0  0  0  0  0  0
  186.6650  170.7570  135.6630 C   0  0  0  0  0  2  0  0  0  0  0  0
  188.6660  174.0220  136.3290 C   0  0  1  0  0  3  0  0  0  0  0  0
  185.4330  172.7780  135.1650 O   0  0  0  0  0  0  0  0  0  0  0  0
  186.1040  173.5580  136.1300 C   0  0  2  0  0  3  0  0  0  0  0  0
  188.2440  177.3070  138.4730 C   0  0  2  0  0  3  0  0  0  0  0  0
  186.1170  174.9020  135.7090 O   0  0  0  0  0  0  0  0  0  0  0  0
  187.4220  178.0290  137.3960 C   0  0  0  0  0  2  0  0  0  0  0  0
  189.3090  178.2480  139.0470 C   0  0  0  0  0  2  0  0  0  0  0  0
  189.8980  173.5730  137.1360 C   0  0  0  0  0  2  0  0  0  0  0  0
  190.9620  174.6860  137.2620 C   0  0  1  0  0  3  0  0  0  0  0  0
  187.5320  172.9920  136.4550 C   0  0  1  0  0  3  0  0  0  0  0  0
  186.3420  177.1280  136.7550 C   0  0  1  0  0  3  0  0  0  0  0  0
  190.2870  177.4720  139.9340 C   0  0  0  0  0  2  0  0  0  0  0  0
  185.3150  171.4860  135.7040 C   0  0  0  0  0  2  0  0  0  0  0  0
  187.8370  171.7430  135.6260 C   0  0  0  0  0  2  0  0  0  0  0  0
  194.8720  173.7360  134.7220 C   0  0  0  0  0  1  0  0  0  0  0  0
  194.1340  171.5240  136.4250 O   0  0  0  0  0  1  0  0  0  0  0  0
  193.7020  176.3510  135.2800 C   0  0  0  0  0  2  0  0  0  0  0  0
  192.1340  172.4390  135.4390 C   0  0  0  0  0  2  0  0  0  0  0  0
  191.6830  174.9280  135.9150 C   0  0  2  0  0  3  0  0  0  0  0  0
  194.1400  173.9130  136.0530 C   0  0  1  0  0  3  0  0  0  0  0  0
  191.4640  173.7420  134.9610 C   0  0  0  0  0  2  0  0  0  0  0  0
  193.2050  175.1380  136.0480 C   0  0  0  0  0  0  0  0  0  0  0  0
  193.7130  176.3560  136.7950 C   0  0  0  0  0  2  0  0  0  0  0  0
  193.3240  172.6590  136.3900 C   0  0  2  0  0  3  0  0  0  0  0  0
  185.9280  177.6750  135.3860 C   0  0  0  0  0  2  0  0  0  0  0  0
  187.1110  178.2230  134.6010 C   0  0  0  0  0  1  0  0  0  0  0  0
  1  4  1  0  0  0  0
  1  3  1  1  0  0  0
  2  5  1  0  0  0  0
  2  4  1  0  0  0  0
  3 18  1  0  0  0  0
  4 10  1  0  0  0  0
  5 17  1  0  0  0  0
  6 19  1  0  0  0  0
  7 16  1  0  0  0  0
  7  2  1  0  0  0  0
  7 14  1  0  0  0  0
  8 19  1  0  0  0  0
  8  9  1  0  0  0  0
  9 16  1  0  0  0  0
 10 13  1  0  0  0  0
 11  9  1  0  0  0  0
 11  5  1  0  0  0  0
 12 10  1  0  0  0  0
 13 18  1  0  0  0  0
 14 15  1  0  0  0  0
 15  1  1  0  0  0  0
 17 12  1  0  0  0  0
 20  6  1  0  0  0  0
 20 16  1  0  0  0  0
 21 26  1  0  0  0  0
 23 28  1  0  0  0  0
 23 29  1  0  0  0  0
 24 30  1  0  0  0  0
 25 28  1  0  0  0  0
 25 15  1  0  0  0  0
 26 30  1  0  0  0  0
 27 24  1  0  0  0  0
 27 25  1  0  0  0  0
 28 26  1  0  0  0  0
 28 29  1  0  0  0  0
 30 22  1  0  0  0  0
 31 17  1  0  0  0  0
 32 31  1  0  0  0  0
M  END
>  <MODEL>
5

>  <REMARK>
 VINA RESULT:      -5.3      7.257     10.680
  Name = 
  2 active torsions:
  status: ('A' for Active; 'I' for Inactive)
    1  A    between atoms: C_13  and  C_29
    2  A    between atoms: C_16  and  C_27
                            x       y       z     vdW  Elec       q    Type
                         _______ _______ _______ _____ _____    ______ ____

>  <TORSDO>
F 2

$$$$
=
 OpenBabel11052414273D

 32 38  0  0  1  0  0  0  0  0999 V2000
  181.2770  179.3340  138.2970 C   0  0  2  0  0  3  0  0  0  0  0  0
  181.5610  178.9130  140.7370 C   0  0  2  0  0  3  0  0  0  0  0  0
  181.0320  180.3840  137.2090 C   0  0  0  0  0  2  0  0  0  0  0  0
  181.1870  179.9600  139.6930 C   0  0  2  0  0  3  0  0  0  0  0  0
  181.2730  179.4670  142.1220 C   0  0  2  0  0  3  0  0  0  0  0  0
  186.0560  178.3320  142.9860 C   0  0  0  0  0  2  0  0  0  0  0  0
  183.0080  178.4000  140.5750 C   0  0  1  0  0  3  0  0  0  0  0  0
  183.9170  178.3130  144.1130 O   0  0  0  0  0  0  0  0  0  0  0  0
  183.2500  179.0290  143.0970 C   0  0  2  0  0  3  0  0  0  0  0  0
  179.8250  180.6510  139.9710 C   0  0  2  0  0  3  0  0  0  0  0  0
  181.8890  178.6620  143.0910 O   0  0  0  0  0  0  0  0  0  0  0  0
  178.9790  179.9180  141.0220 C   0  0  0  0  0  2  0  0  0  0  0  0
  179.0080  180.8740  138.6940 C   0  0  0  0  0  2  0  0  0  0  0  0
  183.6020  178.7530  139.1980 C   0  0  0  0  0  2  0  0  0  0  0  0
  182.5890  178.5570  138.0480 C   0  0  1  0  0  3  0  0  0  0  0  0
  183.9480  178.8590  141.7020 C   0  0  1  0  0  3  0  0  0  0  0  0
  179.7510  179.6370  142.3310 C   0  0  1  0  0  3  0  0  0  0  0  0
  179.9090  181.3750  137.5620 C   0  0  0  0  0  2  0  0  0  0  0  0
  185.2230  178.8270  144.1760 C   0  0  0  0  0  2  0  0  0  0  0  0
  185.1690  177.9430  141.7990 C   0  0  0  0  0  2  0  0  0  0  0  0
  183.1560  175.0230  134.9130 C   0  0  0  0  0  1  0  0  0  0  0  0
  185.3440  176.9050  134.8170 O   0  0  0  0  0  1  0  0  0  0  0  0
  180.6920  175.8440  136.2440 C   0  0  0  0  0  2  0  0  0  0  0  0
  184.7620  176.5150  137.1230 C   0  0  0  0  0  2  0  0  0  0  0  0
  182.3320  177.0550  137.7760 C   0  0  2  0  0  3  0  0  0  0  0  0
  183.0000  176.5030  135.2600 C   0  0  1  0  0  3  0  0  0  0  0  0
  183.5900  176.2250  138.0810 C   0  0  0  0  0  2  0  0  0  0  0  0
  181.9140  176.7430  136.3250 C   0  0  0  0  0  0  0  0  0  0  0  0
  180.5970  177.2920  135.8100 C   0  0  0  0  0  2  0  0  0  0  0  0
  184.3300  177.0820  135.7590 C   0  0  2  0  0  3  0  0  0  0  0  0
  179.0970  178.4910  143.1080 C   0  0  0  0  0  2  0  0  0  0  0  0
  179.1480  178.7100  144.6140 C   0  0  0  0  0  1  0  0  0  0  0  0
  1  3  1  6  0  0  0
  1  4  1  0  0  0  0
  2  5  1  0  0  0  0
  3 18  1  0  0  0  0
  4 10  1  0  0  0  0
  4  2  1  0  0  0  0
  5 17  1  0  0  0  0
  5 11  1  0  0  0  0
  6 19  1  0  0  0  0
  7  2  1  0  0  0  0
  7 16  1  0  0  0  0
  8 19  1  0  0  0  0
  9  8  1  0  0  0  0
 10 12  1  0  0  0  0
 11  9  1  0  0  0  0
 12 17  1  0  0  0  0
 13 10  1  0  0  0  0
 14  7  1  0  0  0  0
 15  1  1  0  0  0  0
 15 14  1  0  0  0  0
 16 20  1  0  0  0  0
 16  9  1  0  0  0  0
 17 31  1  0  0  0  0
 18 13  1  0  0  0  0
 20  6  1  0  0  0  0
 21 26  1  0  0  0  0
 22 30  1  0  0  0  0
 23 28  1  0  0  0  0
 24 27  1  0  0  0  0
 25 15  1  0  0  0  0
 25 27  1  0  0  0  0
 26 30  1  0  0  0  0
 26 28  1  0  0  0  0
 28 25  1  0  0  0  0
 29 23  1  0  0  0  0
 29 28  1  0  0  0  0
 30 24  1  0  0  0  0
 31 32  1  0  0  0  0
M  END
>  <MODEL>
6

>  <REMARK>
 VINA RESULT:      -5.2      1.469      1.838
  Name = 
  2 active torsions:
  status: ('A' for Active; 'I' for Inactive)
    1  A    between atoms: C_13  and  C_29
    2  A    between atoms: C_16  and  C_27
                            x       y       z     vdW  Elec       q    Type
                         _______ _______ _______ _____ _____    ______ ____

>  <TORSDO>
F 2

$$$$
=
 OpenBabel11052414273D

 32 38  0  0  1  0  0  0  0  0999 V2000
  180.8980  176.7160  139.8140 C   0  0  2  0  0  3  0  0  0  0  0  0
  182.1760  177.2140  137.7320 C   0  0  2  0  0  3  0  0  0  0  0  0
  180.1850  175.6420  140.6390 C   0  0  0  0  0  2  0  0  0  0  0  0
  181.3630  176.1520  138.4660 C   0  0  2  0  0  3  0  0  0  0  0  0
  182.4600  176.7350  136.3190 C   0  0  2  0  0  3  0  0  0  0  0  0
  187.2180  177.5990  137.5520 C   0  0  0  0  0  2  0  0  0  0  0  0
  183.4490  177.6280  138.5020 C   0  0  1  0  0  3  0  0  0  0  0  0
  185.7320  177.7970  135.6550 O   0  0  0  0  0  0  0  0  0  0  0  0
  184.6780  177.0860  136.2630 C   0  0  2  0  0  3  0  0  0  0  0  0
  180.2080  175.5600  137.6140 C   0  0  2  0  0  3  0  0  0  0  0  0
  183.4510  177.5370  135.7380 O   0  0  0  0  0  0  0  0  0  0  0  0
  179.8990  176.3870  136.3570 C   0  0  0  0  0  2  0  0  0  0  0  0
  178.9310  175.3400  138.4310 C   0  0  0  0  0  2  0  0  0  0  0  0
  183.4090  177.1840  139.9770 C   0  0  0  0  0  2  0  0  0  0  0  0
  182.0230  177.3980  140.6230 C   0  0  1  0  0  3  0  0  0  0  0  0
  184.7480  177.1550  137.8300 C   0  0  1  0  0  3  0  0  0  0  0  0
  181.1520  176.6700  135.4970 C   0  0  1  0  0  3  0  0  0  0  0  0
  179.2660  174.7380  139.7980 C   0  0  0  0  0  2  0  0  0  0  0  0
  186.9270  177.2050  136.0980 C   0  0  0  0  0  2  0  0  0  0  0  0
  185.9390  177.9960  138.2960 C   0  0  0  0  0  2  0  0  0  0  0  0
  179.1020  180.5210  142.7100 C   0  0  0  0  0  1  0  0  0  0  0  0
  179.3500  178.0890  144.2480 O   0  0  0  0  0  1  0  0  0  0  0  0
  179.9700  180.4820  139.9240 C   0  0  0  0  0  2  0  0  0  0  0  0
  181.5280  178.7020  143.4160 C   0  0  0  0  0  2  0  0  0  0  0  0
  181.7400  178.9010  140.8590 C   0  0  2  0  0  3  0  0  0  0  0  0
  179.3880  179.1590  142.0790 C   0  0  1  0  0  3  0  0  0  0  0  0
  182.2730  179.3450  142.2310 C   0  0  0  0  0  2  0  0  0  0  0  0
  180.2450  179.2730  140.8030 C   0  0  0  0  0  0  0  0  0  0  0  0
  179.4980  179.1090  139.4930 C   0  0  0  0  0  2  0  0  0  0  0  0
  180.0990  178.2390  143.0800 C   0  0  2  0  0  3  0  0  0  0  0  0
  180.9220  177.8850  134.5940 C   0  0  0  0  0  2  0  0  0  0  0  0
  180.2450  179.0320  135.3300 C   0  0  0  0  0  1  0  0  0  0  0  0
  1 15  1  0  0  0  0
  1  3  1  1  0  0  0
  2  4  1  0  0  0  0
  2  7  1  0  0  0  0
  4  1  1  0  0  0  0
  5  2  1  0  0  0  0
  6 20  1  0  0  0  0
  7 14  1  0  0  0  0
  8 19  1  0  0  0  0
  8  9  1  0  0  0  0
  9 16  1  0  0  0  0
 10 13  1  0  0  0  0
 10  4  1  0  0  0  0
 11  9  1  0  0  0  0
 11  5  1  0  0  0  0
 12 10  1  0  0  0  0
 13 18  1  0  0  0  0
 14 15  1  0  0  0  0
 15 25  1  0  0  0  0
 16 20  1  0  0  0  0
 16  7  1  0  0  0  0
 17  5  1  0  0  0  0
 17 12  1  0  0  0  0
 18  3  1  0  0  0  0
 19  6  1  0  0  0  0
 23 28  1  0  0  0  0
 25 27  1  0  0  0  0
 26 21  1  0  0  0  0
 26 30  1  0  0  0  0
 27 24  1  0  0  0  0
 28 25  1  0  0  0  0
 28 26  1  0  0  0  0
 29 23  1  0  0  0  0
 29 28  1  0  0  0  0
 30 24  1  0  0  0  0
 30 22  1  0  0  0  0
 31 32  1  0  0  0  0
 31 17  1  0  0  0  0
M  END
>  <MODEL>
7

>  <REMARK>
 VINA RESULT:      -5.2      2.119      6.487
  Name = 
  2 active torsions:
  status: ('A' for Active; 'I' for Inactive)
    1  A    between atoms: C_13  and  C_29
    2  A    between atoms: C_16  and  C_27
                            x       y       z     vdW  Elec       q    Type
                         _______ _______ _______ _____ _____    ______ ____

>  <TORSDO>
F 2

$$$$
=
 OpenBabel11052414273D

 32 38  0  0  1  0  0  0  0  0999 V2000
  190.9880  177.1160  140.6170 C   0  0  2  0  0  3  0  0  0  0  0  0
  188.9130  176.7840  139.2760 C   0  0  2  0  0  3  0  0  0  0  0  0
  192.3730  177.7660  140.6730 C   0  0  0  0  0  2  0  0  0  0  0  0
  190.3350  177.3330  139.2480 C   0  0  2  0  0  3  0  0  0  0  0  0
  188.3400  176.8100  137.8700 C   0  0  2  0  0  3  0  0  0  0  0  0
  184.6500  179.4120  139.9950 C   0  0  0  0  0  2  0  0  0  0  0  0
  188.0180  177.4990  140.3120 C   0  0  1  0  0  3  0  0  0  0  0  0
  184.9850  177.7340  138.2880 O   0  0  0  0  0  0  0  0  0  0  0  0
  186.3910  177.8430  138.2990 C   0  0  2  0  0  3  0  0  0  0  0  0
  191.1840  176.7890  138.0670 C   0  0  2  0  0  3  0  0  0  0  0  0
  186.9540  176.6080  137.9200 O   0  0  0  0  0  0  0  0  0  0  0  0
  190.5530  175.5680  137.3820 C   0  0  0  0  0  2  0  0  0  0  0  0
  192.6280  176.4800  138.4760 C   0  0  0  0  0  2  0  0  0  0  0  0
  188.8400  178.3110  141.3310 C   0  0  0  0  0  2  0  0  0  0  0  0
  190.1050  177.5620  141.8040 C   0  0  1  0  0  3  0  0  0  0  0  0
  186.9290  178.3770  139.6740 C   0  0  1  0  0  3  0  0  0  0  0  0
  189.0830  175.8010  136.9640 C   0  0  1  0  0  3  0  0  0  0  0  0
  193.1790  177.5910  139.3740 C   0  0  0  0  0  2  0  0  0  0  0  0
  184.4800  179.0240  138.5200 C   0  0  0  0  0  2  0  0  0  0  0  0
  185.7860  178.6280  140.6590 C   0  0  0  0  0  2  0  0  0  0  0  0
  189.8940  176.1040  146.3280 C   0  0  0  0  0  1  0  0  0  0  0  0
  189.3360  178.9270  146.0830 O   0  0  0  0  0  1  0  0  0  0  0  0
  191.1740  174.7530  144.0800 C   0  0  0  0  0  2  0  0  0  0  0  0
  188.2260  177.7610  144.2890 C   0  0  0  0  0  2  0  0  0  0  0  0
  189.7430  176.3810  142.7350 C   0  0  2  0  0  3  0  0  0  0  0  0
  190.4820  176.9780  145.2210 C   0  0  1  0  0  3  0  0  0  0  0  0
  188.3350  176.5650  143.3240 C   0  0  0  0  0  2  0  0  0  0  0  0
  190.7150  176.1930  143.9170 C   0  0  0  0  0  0  0  0  0  0  0  0
  192.1550  175.8150  143.6260 C   0  0  0  0  0  2  0  0  0  0  0  0
  189.5620  178.1720  144.9310 C   0  0  2  0  0  3  0  0  0  0  0  0
  188.3540  174.4660  136.7880 C   0  0  0  0  0  2  0  0  0  0  0  0
  189.3100  173.2820  136.7880 C   0  0  0  0  0  1  0  0  0  0  0  0
  1  3  1  6  0  0  0
  1 15  1  0  0  0  0
  2  7  1  0  0  0  0
  4  2  1  0  0  0  0
  4  1  1  0  0  0  0
  5 11  1  0  0  0  0
  5  2  1  0  0  0  0
  6 20  1  0  0  0  0
  7 14  1  0  0  0  0
  8  9  1  0  0  0  0
  8 19  1  0  0  0  0
  9 16  1  0  0  0  0
 10 13  1  0  0  0  0
 10  4  1  0  0  0  0
 11  9  1  0  0  0  0
 12 10  1  0  0  0  0
 13 18  1  0  0  0  0
 14 15  1  0  0  0  0
 15 25  1  0  0  0  0
 16  7  1  0  0  0  0
 16 20  1  0  0  0  0
 17 12  1  0  0  0  0
 17  5  1  0  0  0  0
 18  3  1  0  0  0  0
 19  6  1  0  0  0  0
 24 30  1  0  0  0  0
 25 27  1  0  0  0  0
 25 28  1  0  0  0  0
 26 21  1  0  0  0  0
 27 24  1  0  0  0  0
 28 23  1  0  0  0  0
 28 26  1  0  0  0  0
 29 28  1  0  0  0  0
 29 23  1  0  0  0  0
 30 26  1  0  0  0  0
 30 22  1  0  0  0  0
 31 17  1  0  0  0  0
 32 31  1  0  0  0  0
M  END
>  <MODEL>
8

>  <REMARK>
 VINA RESULT:      -5.1      5.306     10.007
  Name = 
  2 active torsions:
  status: ('A' for Active; 'I' for Inactive)
    1  A    between atoms: C_13  and  C_29
    2  A    between atoms: C_16  and  C_27
                            x       y       z     vdW  Elec       q    Type
                         _______ _______ _______ _____ _____    ______ ____

>  <TORSDO>
F 2

$$$$
=
 OpenBabel11052414273D

 32 38  0  0  1  0  0  0  0  0999 V2000
  187.9150  178.1600  140.1940 C   0  0  2  0  0  3  0  0  0  0  0  0
  185.4630  177.7110  140.2250 C   0  0  2  0  0  3  0  0  0  0  0  0
  189.0440  179.0050  139.5970 C   0  0  0  0  0  2  0  0  0  0  0  0
  186.5770  178.4770  139.5170 C   0  0  2  0  0  3  0  0  0  0  0  0
  184.1760  177.8600  139.4320 C   0  0  2  0  0  3  0  0  0  0  0  0
  182.3230  179.4920  143.7700 C   0  0  0  0  0  2  0  0  0  0  0  0
  185.3150  178.1100  141.7090 C   0  0  1  0  0  3  0  0  0  0  0  0
  181.6640  178.1670  141.8580 O   0  0  0  0  0  0  0  0  0  0  0  0
  182.8060  178.4940  141.0970 C   0  0  2  0  0  3  0  0  0  0  0  0
  186.5960  178.2590  137.9800 C   0  0  2  0  0  3  0  0  0  0  0  0
  183.0900  177.4360  140.2110 O   0  0  0  0  0  0  0  0  0  0  0  0
  185.7340  177.0720  137.5270 C   0  0  0  0  0  2  0  0  0  0  0  0
  188.0180  178.1250  137.4250 C   0  0  0  0  0  2  0  0  0  0  0  0
  186.5430  178.8770  142.2330 C   0  0  0  0  0  2  0  0  0  0  0  0
  187.8750  178.2750  141.7340 C   0  0  1  0  0  3  0  0  0  0  0  0
  184.0240  178.8910  142.0040 C   0  0  1  0  0  3  0  0  0  0  0  0
  184.2890  177.1310  138.0740 C   0  0  1  0  0  3  0  0  0  0  0  0
  188.9450  179.1590  138.0690 C   0  0  0  0  0  2  0  0  0  0  0  0
  181.3390  179.3100  142.6060 C   0  0  0  0  0  2  0  0  0  0  0  0
  183.6630  178.8050  143.4880 C   0  0  0  0  0  2  0  0  0  0  0  0
  190.0340  176.1950  145.4290 C   0  0  0  0  0  1  0  0  0  0  0  0
  189.0120  178.8070  146.1140 O   0  0  0  0  0  1  0  0  0  0  0  0
  190.2940  175.5170  142.6010 C   0  0  0  0  0  2  0  0  0  0  0  0
  187.3770  177.6700  144.7560 C   0  0  0  0  0  2  0  0  0  0  0  0
  188.1740  176.9240  142.4260 C   0  0  2  0  0  3  0  0  0  0  0  0
  189.8960  177.3300  144.4150 C   0  0  1  0  0  3  0  0  0  0  0  0
  187.1980  176.6810  143.5880 C   0  0  0  0  0  2  0  0  0  0  0  0
  189.6030  176.8130  142.9930 C   0  0  0  0  0  0  0  0  0  0  0  0
  190.7760  176.8350  142.0310 C   0  0  0  0  0  2  0  0  0  0  0  0
  188.7810  178.2960  144.8360 C   0  0  2  0  0  3  0  0  0  0  0  0
  183.6500  175.7400  138.0570 C   0  0  0  0  0  2  0  0  0  0  0  0
  184.5140  174.7150  137.3350 C   0  0  0  0  0  1  0  0  0  0  0  0
  1  3  1  6  0  0  0
  1 15  1  0  0  0  0
  2  7  1  0  0  0  0
  4  1  1  0  0  0  0
  4  2  1  0  0  0  0
  5 11  1  0  0  0  0
  5  2  1  0  0  0  0
  7 16  1  0  0  0  0
  7 14  1  0  0  0  0
  8 19  1  0  0  0  0
  9  8  1  0  0  0  0
  9 16  1  0  0  0  0
 10  4  1  0  0  0  0
 11  9  1  0  0  0  0
 12 10  1  0  0  0  0
 12 17  1  0  0  0  0
 13 10  1  0  0  0  0
 13 18  1  0  0  0  0
 15 14  1  0  0  0  0
 15 25  1  0  0  0  0
 16 20  1  0  0  0  0
 17  5  1  0  0  0  0
 18  3  1  0  0  0  0
 19  6  1  0  0  0  0
 20  6  1  0  0  0  0
 23 28  1  0  0  0  0
 24 30  1  0  0  0  0
 25 28  1  0  0  0  0
 25 27  1  0  0  0  0
 26 30  1  0  0  0  0
 26 21  1  0  0  0  0
 27 24  1  0  0  0  0
 28 26  1  0  0  0  0
 29 23  1  0  0  0  0
 29 28  1  0  0  0  0
 30 22  1  0  0  0  0
 31 17  1  0  0  0  0
 32 31  1  0  0  0  0
M  END
>  <MODEL>
9

>  <REMARK>
 VINA RESULT:      -5.0      3.218      7.642
  Name = 
  2 active torsions:
  status: ('A' for Active; 'I' for Inactive)
    1  A    between atoms: C_13  and  C_29
    2  A    between atoms: C_16  and  C_27
                            x       y       z     vdW  Elec       q    Type
                         _______ _______ _______ _____ _____    ______ ____

>  <TORSDO>
F 2

$$$$
