=
 OpenBabel11052413323D

 28 31  0  0  0  0  0  0  0  0999 V2000
  190.5490  176.6750  143.6070 N   0  0  0  0  0  0  0  0  0  0  0  0
  185.4820  178.0750  143.1700 C   0  0  0  0  0  3  0  0  0  0  0  0
  189.2620  177.6900  148.0310 O   0  0  0  0  0  1  0  0  0  0  0  0
  184.9500  178.5730  145.4890 C   0  0  0  0  0  0  0  0  0  0  0  0
  187.2020  177.8210  144.9080 C   0  0  0  0  0  0  0  0  0  0  0  0
  183.2610  178.8290  143.7700 C   0  0  0  0  0  0  0  0  0  0  0  0
  185.8870  178.1500  144.5130 C   0  0  0  0  0  0  0  0  0  0  0  0
  186.6180  178.3360  147.2270 C   0  0  0  0  0  3  0  0  0  0  0  0
  183.6470  178.9090  145.1120 C   0  0  0  0  0  3  0  0  0  0  0  0
  189.7910  177.1930  145.7230 C   0  0  0  0  0  0  0  0  0  0  0  0
  188.1610  177.4010  143.9620 C   0  0  0  0  0  3  0  0  0  0  0  0
  185.3210  178.6600  146.8320 C   0  0  0  0  0  3  0  0  0  0  0  0
  191.1910  176.8130  145.8250 C   0  0  0  0  0  0  0  0  0  0  0  0
  188.8790  177.6010  146.6970 C   0  0  0  0  0  0  0  0  0  0  0  0
  191.8650  176.7850  146.8880 O   0  0  0  0  0  0  0  0  0  0  0  0
  181.8750  179.1870  143.3750 C   0  0  0  0  0  1  0  0  0  0  0  0
  184.1780  178.4130  142.8020 C   0  0  0  0  0  3  0  0  0  0  0  0
  187.5670  177.9190  146.2870 C   0  0  0  0  0  0  0  0  0  0  0  0
  191.7150  176.4670  144.4630 C   0  0  0  0  0  2  0  0  0  0  0  0
  189.4460  177.0970  144.4040 C   0  0  0  0  0  0  0  0  0  0  0  0
  190.5320  176.4660  142.1680 C   0  0  0  0  0  2  0  0  0  0  0  0
  191.2830  177.4610  141.5390 O   0  0  0  0  0  0  0  0  0  0  0  0
  190.8710  177.4330  140.2040 C   0  0  0  0  0  2  0  0  0  0  0  0
  189.3810  177.1340  140.1140 C   0  0  0  0  0  2  0  0  0  0  0  0
  188.6180  178.3470  139.7030 C   0  0  0  0  0  0  0  0  0  0  0  0
  189.0430  179.0620  138.7570 O   0  0  0  0  0  0  0  0  0  0  0  0
  186.2770  178.7500  139.7470 O   0  0  0  0  0  1  0  0  0  0  0  0
  187.4550  178.6930  140.3850 O   0  0  0  0  0  0  0  0  0  0  0  0
  1 20  1  0  0  0  0
  1 19  1  0  0  0  0
  2  7  1  0  0  0  0
  4 12  1  0  0  0  0
  5 18  1  0  0  0  0
  6  9  2  0  0  0  0
  7  5  1  0  0  0  0
  7  4  2  0  0  0  0
  9  4  1  0  0  0  0
 10 13  1  0  0  0  0
 10 14  1  0  0  0  0
 11 20  1  0  0  0  0
 11  5  2  0  0  0  0
 12  8  2  0  0  0  0
 13 15  2  0  0  0  0
 14  3  1  0  0  0  0
 16  6  1  0  0  0  0
 17  2  2  0  0  0  0
 17  6  1  0  0  0  0
 18 14  2  0  0  0  0
 18  8  1  0  0  0  0
 19 13  1  0  0  0  0
 20 10  2  0  0  0  0
 21  1  1  0  0  0  0
 22 21  1  0  0  0  0
 23 22  1  0  0  0  0
 24 23  1  0  0  0  0
 25 24  1  0  0  0  0
 25 28  1  0  0  0  0
 26 25  2  0  0  0  0
 27 28  1  0  0  0  0
M  END
>  <MODEL>
1

>  <REMARK>
 VINA RESULT:     -11.1      0.000      0.000
  Name = 
  6 active torsions:
  status: ('A' for Active; 'I' for Inactive)
    1  A    between atoms: N_1  and  C_2
    2  A    between atoms: C_2  and  O_3
    3  A    between atoms: O_3  and  C_8
    4  A    between atoms: C_6  and  C_11
    5  A    between atoms: C_6  and  O_28
    6  A    between atoms: C_8  and  C_11
                            x       y       z     vdW  Elec       q    Type
                         _______ _______ _______ _____ _____    ______ ____

>  <TORSDO>
F 6

$$$$
=
 OpenBabel11052413323D

 28 31  0  0  0  0  0  0  0  0999 V2000
  190.3270  176.6550  143.1330 N   0  0  0  0  0  0  0  0  0  0  0  0
  185.2500  178.0820  143.0930 C   0  0  0  0  0  3  0  0  0  0  0  0
  189.3910  177.6660  147.6460 O   0  0  0  0  0  1  0  0  0  0  0  0
  184.9010  178.5770  145.4470 C   0  0  0  0  0  0  0  0  0  0  0  0
  187.0960  177.8150  144.6920 C   0  0  0  0  0  0  0  0  0  0  0  0
  183.0850  178.8470  143.8640 C   0  0  0  0  0  0  0  0  0  0  0  0
  185.7570  178.1520  144.4010 C   0  0  0  0  0  0  0  0  0  0  0  0
  186.6960  178.3270  147.0500 C   0  0  0  0  0  3  0  0  0  0  0  0
  183.5740  178.9210  145.1720 C   0  0  0  0  0  3  0  0  0  0  0  0
  189.7380  177.1720  145.3030 C   0  0  0  0  0  0  0  0  0  0  0  0
  187.9780  177.3930  143.6740 C   0  0  0  0  0  3  0  0  0  0  0  0
  185.3750  178.6590  146.7570 C   0  0  0  0  0  3  0  0  0  0  0  0
  191.1390  176.7840  145.2960 C   0  0  0  0  0  0  0  0  0  0  0  0
  188.9060  177.5820  146.3450 C   0  0  0  0  0  0  0  0  0  0  0  0
  191.8930  176.7500  146.3040 O   0  0  0  0  0  0  0  0  0  0  0  0
  181.6750  179.2130  143.5780 C   0  0  0  0  0  1  0  0  0  0  0  0
  183.9230  178.4280  142.8270 C   0  0  0  0  0  3  0  0  0  0  0  0
  187.5680  177.9080  146.0380 C   0  0  0  0  0  0  0  0  0  0  0  0
  191.5540  176.4390  143.8970 C   0  0  0  0  0  2  0  0  0  0  0  0
  189.2920  177.0810  144.0150 C   0  0  0  0  0  0  0  0  0  0  0  0
  190.1980  176.4490  141.6990 C   0  0  0  0  0  2  0  0  0  0  0  0
  190.0620  177.6820  141.0580 O   0  0  0  0  0  0  0  0  0  0  0  0
  190.1330  177.3870  139.6940 C   0  0  0  0  0  2  0  0  0  0  0  0
  191.5840  177.2390  139.2580 C   0  0  0  0  0  2  0  0  0  0  0  0
  191.7290  176.1500  138.2500 C   0  0  0  0  0  0  0  0  0  0  0  0
  191.0200  175.1130  138.3430 O   0  0  0  0  0  0  0  0  0  0  0  0
  193.9190  176.6690  137.4890 O   0  0  0  0  0  1  0  0  0  0  0  0
  192.6640  176.2780  137.2270 O   0  0  0  0  0  0  0  0  0  0  0  0
  1 19  1  0  0  0  0
  1 20  1  0  0  0  0
  2  7  1  0  0  0  0
  4 12  1  0  0  0  0
  5 18  1  0  0  0  0
  6  9  2  0  0  0  0
  7  5  1  0  0  0  0
  7  4  2  0  0  0  0
  9  4  1  0  0  0  0
 10 14  1  0  0  0  0
 11 20  1  0  0  0  0
 11  5  2  0  0  0  0
 12  8  2  0  0  0  0
 13 10  1  0  0  0  0
 13 15  2  0  0  0  0
 14  3  1  0  0  0  0
 16  6  1  0  0  0  0
 17  2  2  0  0  0  0
 17  6  1  0  0  0  0
 18 14  2  0  0  0  0
 18  8  1  0  0  0  0
 19 13  1  0  0  0  0
 20 10  2  0  0  0  0
 21  1  1  0  0  0  0
 22 21  1  0  0  0  0
 23 22  1  0  0  0  0
 24 23  1  0  0  0  0
 25 26  2  0  0  0  0
 25 24  1  0  0  0  0
 28 27  1  0  0  0  0
 28 25  1  0  0  0  0
M  END
>  <MODEL>
2

>  <REMARK>
 VINA RESULT:     -10.1      1.633      2.376
  Name = 
  6 active torsions:
  status: ('A' for Active; 'I' for Inactive)
    1  A    between atoms: N_1  and  C_2
    2  A    between atoms: C_2  and  O_3
    3  A    between atoms: O_3  and  C_8
    4  A    between atoms: C_6  and  C_11
    5  A    between atoms: C_6  and  O_28
    6  A    between atoms: C_8  and  C_11
                            x       y       z     vdW  Elec       q    Type
                         _______ _______ _______ _____ _____    ______ ____

>  <TORSDO>
F 6

$$$$
=
 OpenBabel11052413323D

 28 31  0  0  0  0  0  0  0  0999 V2000
  185.8790  178.4000  141.7910 N   0  0  0  0  0  0  0  0  0  0  0  0
  189.9330  176.9410  144.8330 C   0  0  0  0  0  3  0  0  0  0  0  0
  184.2440  178.9060  146.1880 O   0  0  0  0  0  1  0  0  0  0  0  0
  188.9680  177.2380  147.0440 C   0  0  0  0  0  0  0  0  0  0  0  0
  187.6250  177.7530  145.0690 C   0  0  0  0  0  0  0  0  0  0  0  0
  191.2400  176.4310  146.8060 C   0  0  0  0  0  0  0  0  0  0  0  0
  188.8410  177.3130  145.6350 C   0  0  0  0  0  0  0  0  0  0  0  0
  186.6980  178.0340  147.3150 C   0  0  0  0  0  3  0  0  0  0  0  0
  190.1640  176.7990  147.6180 C   0  0  0  0  0  3  0  0  0  0  0  0
  185.2050  178.6110  143.9870 C   0  0  0  0  0  0  0  0  0  0  0  0
  187.4630  177.8350  143.6690 C   0  0  0  0  0  3  0  0  0  0  0  0
  187.9010  177.6000  147.8680 C   0  0  0  0  0  3  0  0  0  0  0  0
  184.0940  179.0020  143.1340 C   0  0  0  0  0  0  0  0  0  0  0  0
  185.3160  178.5500  145.3760 C   0  0  0  0  0  0  0  0  0  0  0  0
  182.9620  179.3790  143.5360 O   0  0  0  0  0  0  0  0  0  0  0  0
  192.5080  175.9640  147.4220 C   0  0  0  0  0  1  0  0  0  0  0  0
  191.1240  176.5020  145.4160 C   0  0  0  0  0  3  0  0  0  0  0  0
  186.5410  178.1150  145.9270 C   0  0  0  0  0  0  0  0  0  0  0  0
  184.5010  178.8780  141.6960 C   0  0  0  0  0  2  0  0  0  0  0  0
  186.2390  178.2670  143.1630 C   0  0  0  0  0  0  0  0  0  0  0  0
  186.7380  178.1220  140.6510 C   0  0  0  0  0  2  0  0  0  0  0  0
  187.8000  179.0280  140.6310 O   0  0  0  0  0  0  0  0  0  0  0  0
  188.7890  178.4060  139.8660 C   0  0  0  0  0  2  0  0  0  0  0  0
  189.6230  177.4720  140.7340 C   0  0  0  0  0  2  0  0  0  0  0  0
  190.9600  177.2300  140.1230 C   0  0  0  0  0  0  0  0  0  0  0  0
  192.0030  177.5470  140.7540 O   0  0  0  0  0  0  0  0  0  0  0  0
  190.7780  175.3780  138.6450 O   0  0  0  0  0  1  0  0  0  0  0  0
  191.0460  176.6760  138.8480 O   0  0  0  0  0  0  0  0  0  0  0  0
  1 20  1  0  0  0  0
  2 17  2  0  0  0  0
  2  7  1  0  0  0  0
  4  9  1  0  0  0  0
  4 12  1  0  0  0  0
  5  7  1  0  0  0  0
  5 18  1  0  0  0  0
  6 16  1  0  0  0  0
  6  9  2  0  0  0  0
  7  4  2  0  0  0  0
  8 12  2  0  0  0  0
 10 14  1  0  0  0  0
 11  5  2  0  0  0  0
 13 15  2  0  0  0  0
 13 10  1  0  0  0  0
 14 18  2  0  0  0  0
 14  3  1  0  0  0  0
 17  6  1  0  0  0  0
 18  8  1  0  0  0  0
 19  1  1  0  0  0  0
 19 13  1  0  0  0  0
 20 11  1  0  0  0  0
 20 10  2  0  0  0  0
 21  1  1  0  0  0  0
 22 21  1  0  0  0  0
 23 22  1  0  0  0  0
 23 24  1  0  0  0  0
 25 24  1  0  0  0  0
 25 26  2  0  0  0  0
 27 28  1  0  0  0  0
 28 25  1  0  0  0  0
M  END
>  <MODEL>
3

>  <REMARK>
 VINA RESULT:      -9.6      2.162      5.507
  Name = 
  6 active torsions:
  status: ('A' for Active; 'I' for Inactive)
    1  A    between atoms: N_1  and  C_2
    2  A    between atoms: C_2  and  O_3
    3  A    between atoms: O_3  and  C_8
    4  A    between atoms: C_6  and  C_11
    5  A    between atoms: C_6  and  O_28
    6  A    between atoms: C_8  and  C_11
                            x       y       z     vdW  Elec       q    Type
                         _______ _______ _______ _____ _____    ______ ____

>  <TORSDO>
F 6

$$$$
=
 OpenBabel11052413323D

 28 31  0  0  0  0  0  0  0  0999 V2000
  186.1760  178.4910  141.6570 N   0  0  0  0  0  0  0  0  0  0  0  0
  190.0370  177.0100  144.9300 C   0  0  0  0  0  3  0  0  0  0  0  0
  184.2280  178.8230  145.9410 O   0  0  0  0  0  1  0  0  0  0  0  0
  188.9140  177.2160  147.0760 C   0  0  0  0  0  0  0  0  0  0  0  0
  187.7020  177.7700  145.0270 C   0  0  0  0  0  0  0  0  0  0  0  0
  191.2140  176.4590  146.9730 C   0  0  0  0  0  0  0  0  0  0  0  0
  188.8850  177.3350  145.6640 C   0  0  0  0  0  0  0  0  0  0  0  0
  186.6150  177.9610  147.2100 C   0  0  0  0  0  3  0  0  0  0  0  0
  190.0760  176.7810  147.7190 C   0  0  0  0  0  3  0  0  0  0  0  0
  185.3460  178.6180  143.8050 C   0  0  0  0  0  0  0  0  0  0  0  0
  187.6360  177.8950  143.6230 C   0  0  0  0  0  3  0  0  0  0  0  0
  187.7850  177.5310  147.8340 C   0  0  0  0  0  3  0  0  0  0  0  0
  184.2890  179.0160  142.8890 C   0  0  0  0  0  0  0  0  0  0  0  0
  185.3610  178.5130  145.1960 C   0  0  0  0  0  0  0  0  0  0  0  0
  183.1240  179.3580  143.2210 O   0  0  0  0  0  0  0  0  0  0  0  0
  192.4450  175.9970  147.6620 C   0  0  0  0  0  1  0  0  0  0  0  0
  191.1940  176.5740  145.5810 C   0  0  0  0  0  3  0  0  0  0  0  0
  186.5530  178.0840  145.8180 C   0  0  0  0  0  0  0  0  0  0  0  0
  184.7980  178.9460  141.4800 C   0  0  0  0  0  2  0  0  0  0  0  0
  186.4420  178.3200  143.0460 C   0  0  0  0  0  0  0  0  0  0  0  0
  187.1180  178.2660  140.5720 C   0  0  0  0  0  2  0  0  0  0  0  0
  186.5320  178.6280  139.3570 O   0  0  0  0  0  0  0  0  0  0  0  0
  187.3300  178.0280  138.3800 C   0  0  0  0  0  2  0  0  0  0  0  0
  188.8030  178.2760  138.6720 C   0  0  0  0  0  2  0  0  0  0  0  0
  189.6520  177.2090  138.0700 C   0  0  0  0  0  0  0  0  0  0  0  0
  189.8520  177.1960  136.8260 O   0  0  0  0  0  0  0  0  0  0  0  0
  190.9310  175.2280  138.3610 O   0  0  0  0  0  1  0  0  0  0  0  0
  190.1990  176.2210  138.8840 O   0  0  0  0  0  0  0  0  0  0  0  0
  1 20  1  0  0  0  0
  2 17  2  0  0  0  0
  2  7  1  0  0  0  0
  4  9  1  0  0  0  0
  4 12  1  0  0  0  0
  5  7  1  0  0  0  0
  5 18  1  0  0  0  0
  6 16  1  0  0  0  0
  6  9  2  0  0  0  0
  7  4  2  0  0  0  0
  8 12  2  0  0  0  0
 10 14  1  0  0  0  0
 11  5  2  0  0  0  0
 13 15  2  0  0  0  0
 13 10  1  0  0  0  0
 14 18  2  0  0  0  0
 14  3  1  0  0  0  0
 17  6  1  0  0  0  0
 18  8  1  0  0  0  0
 19  1  1  0  0  0  0
 19 13  1  0  0  0  0
 20 11  1  0  0  0  0
 20 10  2  0  0  0  0
 21  1  1  0  0  0  0
 22 21  1  0  0  0  0
 23 24  1  0  0  0  0
 23 22  1  0  0  0  0
 25 24  1  0  0  0  0
 25 28  1  0  0  0  0
 26 25  2  0  0  0  0
 27 28  1  0  0  0  0
M  END
>  <MODEL>
4

>  <REMARK>
 VINA RESULT:      -9.4      2.533      5.545
  Name = 
  6 active torsions:
  status: ('A' for Active; 'I' for Inactive)
    1  A    between atoms: N_1  and  C_2
    2  A    between atoms: C_2  and  O_3
    3  A    between atoms: O_3  and  C_8
    4  A    between atoms: C_6  and  C_11
    5  A    between atoms: C_6  and  O_28
    6  A    between atoms: C_8  and  C_11
                            x       y       z     vdW  Elec       q    Type
                         _______ _______ _______ _____ _____    ______ ____

>  <TORSDO>
F 6

$$$$
=
 OpenBabel11052413323D

 28 31  0  0  0  0  0  0  0  0999 V2000
  185.8920  178.4490  141.8070 N   0  0  0  0  0  0  0  0  0  0  0  0
  189.9550  176.9460  144.8150 C   0  0  0  0  0  3  0  0  0  0  0  0
  184.2690  178.8860  146.2160 O   0  0  0  0  0  1  0  0  0  0  0  0
  188.9960  177.2080  147.0330 C   0  0  0  0  0  0  0  0  0  0  0  0
  187.6480  177.7530  145.0690 C   0  0  0  0  0  0  0  0  0  0  0  0
  191.2680  176.4050  146.7760 C   0  0  0  0  0  0  0  0  0  0  0  0
  188.8660  177.3050  145.6260 C   0  0  0  0  0  0  0  0  0  0  0  0
  186.7270  177.9980  147.3220 C   0  0  0  0  0  3  0  0  0  0  0  0
  190.1940  176.7600  147.5970 C   0  0  0  0  0  3  0  0  0  0  0  0
  185.2240  178.6260  144.0080 C   0  0  0  0  0  0  0  0  0  0  0  0
  187.4810  177.8560  143.6720 C   0  0  0  0  0  3  0  0  0  0  0  0
  187.9320  177.5560  147.8660 C   0  0  0  0  0  3  0  0  0  0  0  0
  184.1100  179.0300  143.1640 C   0  0  0  0  0  0  0  0  0  0  0  0
  185.3390  178.5430  145.3960 C   0  0  0  0  0  0  0  0  0  0  0  0
  182.9790  179.4000  143.5750 O   0  0  0  0  0  0  0  0  0  0  0  0
  192.5380  175.9300  147.3810 C   0  0  0  0  0  1  0  0  0  0  0  0
  191.1480  176.4990  145.3870 C   0  0  0  0  0  3  0  0  0  0  0  0
  186.5660  178.1010  145.9360 C   0  0  0  0  0  0  0  0  0  0  0  0
  184.5140  178.9280  141.7230 C   0  0  0  0  0  2  0  0  0  0  0  0
  186.2560  178.2950  143.1760 C   0  0  0  0  0  0  0  0  0  0  0  0
  186.7490  178.1900  140.6600 C   0  0  0  0  0  2  0  0  0  0  0  0
  187.8940  178.9840  140.7400 O   0  0  0  0  0  0  0  0  0  0  0  0
  188.8710  178.2790  140.0320 C   0  0  0  0  0  2  0  0  0  0  0  0
  188.3140  177.7940  138.7000 C   0  0  0  0  0  2  0  0  0  0  0  0
  189.0250  178.4390  137.5600 C   0  0  0  0  0  0  0  0  0  0  0  0
  188.9700  179.6890  137.4140 O   0  0  0  0  0  0  0  0  0  0  0  0
  189.3510  176.3890  136.4040 O   0  0  0  0  0  1  0  0  0  0  0  0
  189.7260  177.6520  136.6500 O   0  0  0  0  0  0  0  0  0  0  0  0
  1 20  1  0  0  0  0
  2 17  2  0  0  0  0
  2  7  1  0  0  0  0
  4  9  1  0  0  0  0
  4 12  1  0  0  0  0
  5  7  1  0  0  0  0
  5 18  1  0  0  0  0
  6 16  1  0  0  0  0
  6  9  2  0  0  0  0
  7  4  2  0  0  0  0
  8 12  2  0  0  0  0
 10 14  1  0  0  0  0
 11  5  2  0  0  0  0
 13 15  2  0  0  0  0
 13 10  1  0  0  0  0
 14 18  2  0  0  0  0
 14  3  1  0  0  0  0
 17  6  1  0  0  0  0
 18  8  1  0  0  0  0
 19  1  1  0  0  0  0
 19 13  1  0  0  0  0
 20 11  1  0  0  0  0
 20 10  2  0  0  0  0
 21 22  1  0  0  0  0
 21  1  1  0  0  0  0
 23 22  1  0  0  0  0
 24 23  1  0  0  0  0
 25 24  1  0  0  0  0
 26 25  2  0  0  0  0
 27 28  1  0  0  0  0
 28 25  1  0  0  0  0
M  END
>  <MODEL>
5

>  <REMARK>
 VINA RESULT:      -9.3      2.463      5.446
  Name = 
  6 active torsions:
  status: ('A' for Active; 'I' for Inactive)
    1  A    between atoms: N_1  and  C_2
    2  A    between atoms: C_2  and  O_3
    3  A    between atoms: O_3  and  C_8
    4  A    between atoms: C_6  and  C_11
    5  A    between atoms: C_6  and  O_28
    6  A    between atoms: C_8  and  C_11
                            x       y       z     vdW  Elec       q    Type
                         _______ _______ _______ _____ _____    ______ ____

>  <TORSDO>
F 6

$$$$
=
 OpenBabel11052413323D

 28 31  0  0  0  0  0  0  0  0999 V2000
  187.2080  178.2530  139.6900 N   0  0  0  0  0  0  0  0  0  0  0  0
  187.5980  177.8630  144.9360 C   0  0  0  0  0  3  0  0  0  0  0  0
  191.7340  177.1300  140.4160 O   0  0  0  0  0  1  0  0  0  0  0  0
  189.9490  177.2940  145.1730 C   0  0  0  0  0  0  0  0  0  0  0  0
  189.0130  177.6280  142.9400 C   0  0  0  0  0  0  0  0  0  0  0  0
  188.5510  177.5350  147.1370 C   0  0  0  0  0  0  0  0  0  0  0  0
  188.8420  177.5960  144.3410 C   0  0  0  0  0  0  0  0  0  0  0  0
  191.3740  177.0560  143.2310 C   0  0  0  0  0  3  0  0  0  0  0  0
  189.7960  177.2660  146.5610 C   0  0  0  0  0  3  0  0  0  0  0  0
  189.3920  177.6950  140.1800 C   0  0  0  0  0  0  0  0  0  0  0  0
  187.9340  177.9290  142.0830 C   0  0  0  0  0  3  0  0  0  0  0  0
  191.1990  177.0260  144.6130 C   0  0  0  0  0  3  0  0  0  0  0  0
  189.2700  177.8150  138.7360 C   0  0  0  0  0  0  0  0  0  0  0  0
  190.4900  177.3900  140.9850 C   0  0  0  0  0  0  0  0  0  0  0  0
  190.2040  177.6510  137.9080 O   0  0  0  0  0  0  0  0  0  0  0  0
  188.3940  177.5030  148.6130 C   0  0  0  0  0  1  0  0  0  0  0  0
  187.4540  177.8330  146.3250 C   0  0  0  0  0  3  0  0  0  0  0  0
  190.3010  177.3550  142.3830 C   0  0  0  0  0  0  0  0  0  0  0  0
  187.8580  178.1760  138.3830 C   0  0  0  0  0  2  0  0  0  0  0  0
  188.1590  177.9560  140.7080 C   0  0  0  0  0  0  0  0  0  0  0  0
  185.8050  178.5720  139.8980 C   0  0  0  0  0  2  0  0  0  0  0  0
  185.6760  179.4410  140.9830 O   0  0  0  0  0  0  0  0  0  0  0  0
  184.6180  178.9240  141.7350 C   0  0  0  0  0  2  0  0  0  0  0  0
  184.7710  179.3080  143.2010 C   0  0  0  0  0  2  0  0  0  0  0  0
  183.4690  179.2000  143.9180 C   0  0  0  0  0  0  0  0  0  0  0  0
  182.4140  178.9690  143.2690 O   0  0  0  0  0  0  0  0  0  0  0  0
  184.1820  178.6280  146.1110 O   0  0  0  0  0  1  0  0  0  0  0  0
  183.4250  179.3780  145.2980 O   0  0  0  0  0  0  0  0  0  0  0  0
  1 21  1  0  0  0  0
  1 20  1  0  0  0  0
  2 17  1  0  0  0  0
  3 14  1  0  0  0  0
  4  9  2  0  0  0  0
  5  7  1  0  0  0  0
  6 16  1  0  0  0  0
  7  2  2  0  0  0  0
  7  4  1  0  0  0  0
  8 12  2  0  0  0  0
  9  6  1  0  0  0  0
 10 20  2  0  0  0  0
 10 14  1  0  0  0  0
 11  5  2  0  0  0  0
 12  4  1  0  0  0  0
 13 10  1  0  0  0  0
 14 18  2  0  0  0  0
 15 13  2  0  0  0  0
 17  6  2  0  0  0  0
 18  5  1  0  0  0  0
 18  8  1  0  0  0  0
 19 13  1  0  0  0  0
 19  1  1  0  0  0  0
 20 11  1  0  0  0  0
 21 22  1  0  0  0  0
 22 23  1  0  0  0  0
 23 24  1  0  0  0  0
 24 25  1  0  0  0  0
 25 28  1  0  0  0  0
 26 25  2  0  0  0  0
 28 27  1  0  0  0  0
M  END
>  <MODEL>
6

>  <REMARK>
 VINA RESULT:      -9.2      2.441      6.128
  Name = 
  6 active torsions:
  status: ('A' for Active; 'I' for Inactive)
    1  A    between atoms: N_1  and  C_2
    2  A    between atoms: C_2  and  O_3
    3  A    between atoms: O_3  and  C_8
    4  A    between atoms: C_6  and  C_11
    5  A    between atoms: C_6  and  O_28
    6  A    between atoms: C_8  and  C_11
                            x       y       z     vdW  Elec       q    Type
                         _______ _______ _______ _____ _____    ______ ____

>  <TORSDO>
F 6

$$$$
=
 OpenBabel11052413323D

 28 31  0  0  0  0  0  0  0  0999 V2000
  186.8350  177.9710  146.0970 N   0  0  0  0  0  0  0  0  0  0  0  0
  188.2550  177.8170  141.0200 C   0  0  0  0  0  3  0  0  0  0  0  0
  191.4930  177.2320  146.2390 O   0  0  0  0  0  1  0  0  0  0  0  0
  190.6460  177.4290  141.2320 C   0  0  0  0  0  0  0  0  0  0  0  0
  189.2790  177.6340  143.2470 C   0  0  0  0  0  0  0  0  0  0  0  0
  189.6300  177.6020  139.0380 C   0  0  0  0  0  0  0  0  0  0  0  0
  189.3820  177.6300  141.8390 C   0  0  0  0  0  0  0  0  0  0  0  0
  191.6880  177.2420  143.4080 C   0  0  0  0  0  3  0  0  0  0  0  0
  190.7610  177.4160  139.8390 C   0  0  0  0  0  3  0  0  0  0  0  0
  189.1140  177.6200  146.0290 C   0  0  0  0  0  0  0  0  0  0  0  0
  188.0350  177.8260  143.8850 C   0  0  0  0  0  3  0  0  0  0  0  0
  191.7830  177.2390  142.0170 C   0  0  0  0  0  3  0  0  0  0  0  0
  188.7050  177.6560  147.4230 C   0  0  0  0  0  0  0  0  0  0  0  0
  190.3670  177.4270  145.4460 C   0  0  0  0  0  0  0  0  0  0  0  0
  189.4690  177.5100  148.4130 O   0  0  0  0  0  0  0  0  0  0  0  0
  189.7580  177.5880  137.5590 C   0  0  0  0  0  1  0  0  0  0  0  0
  188.3790  177.8020  139.6290 C   0  0  0  0  0  3  0  0  0  0  0  0
  190.4530  177.4340  144.0370 C   0  0  0  0  0  0  0  0  0  0  0  0
  187.2250  177.8860  147.5030 C   0  0  0  0  0  2  0  0  0  0  0  0
  187.9890  177.8120  145.2770 C   0  0  0  0  0  0  0  0  0  0  0  0
  185.4770  178.1970  145.6280 C   0  0  0  0  0  2  0  0  0  0  0  0
  185.2350  179.5690  145.5340 O   0  0  0  0  0  0  0  0  0  0  0  0
  184.7280  179.7570  144.2450 C   0  0  0  0  0  2  0  0  0  0  0  0
  184.5400  178.4170  143.5480 C   0  0  0  0  0  2  0  0  0  0  0  0
  184.3120  178.6040  142.0870 C   0  0  0  0  0  0  0  0  0  0  0  0
  183.3300  178.0460  141.5300 O   0  0  0  0  0  0  0  0  0  0  0  0
  184.9340  179.6970  140.0710 O   0  0  0  0  0  1  0  0  0  0  0  0
  185.2020  179.3760  141.3440 O   0  0  0  0  0  0  0  0  0  0  0  0
  1 19  1  0  0  0  0
  2  7  1  0  0  0  0
  4  7  2  0  0  0  0
  4 12  1  0  0  0  0
  5 11  2  0  0  0  0
  5 18  1  0  0  0  0
  6 17  1  0  0  0  0
  6  9  2  0  0  0  0
  7  5  1  0  0  0  0
  8 18  1  0  0  0  0
  9  4  1  0  0  0  0
 10 13  1  0  0  0  0
 11 20  1  0  0  0  0
 12  8  2  0  0  0  0
 13 19  1  0  0  0  0
 13 15  2  0  0  0  0
 14 10  1  0  0  0  0
 14  3  1  0  0  0  0
 16  6  1  0  0  0  0
 17  2  2  0  0  0  0
 18 14  2  0  0  0  0
 20 10  2  0  0  0  0
 20  1  1  0  0  0  0
 21  1  1  0  0  0  0
 22 21  1  0  0  0  0
 23 22  1  0  0  0  0
 24 23  1  0  0  0  0
 25 24  1  0  0  0  0
 26 25  2  0  0  0  0
 27 28  1  0  0  0  0
 28 25  1  0  0  0  0
M  END
>  <MODEL>
7

>  <REMARK>
 VINA RESULT:      -9.0      1.911      5.481
  Name = 
  6 active torsions:
  status: ('A' for Active; 'I' for Inactive)
    1  A    between atoms: N_1  and  C_2
    2  A    between atoms: C_2  and  O_3
    3  A    between atoms: O_3  and  C_8
    4  A    between atoms: C_6  and  C_11
    5  A    between atoms: C_6  and  O_28
    6  A    between atoms: C_8  and  C_11
                            x       y       z     vdW  Elec       q    Type
                         _______ _______ _______ _____ _____    ______ ____

>  <TORSDO>
F 6

$$$$
=
 OpenBabel11052413323D

 28 31  0  0  0  0  0  0  0  0999 V2000
  189.6650  177.5680  145.9880 N   0  0  0  0  0  0  0  0  0  0  0  0
  186.7020  178.4200  141.7090 C   0  0  0  0  0  3  0  0  0  0  0  0
  185.3290  178.2420  147.7220 O   0  0  0  0  0  1  0  0  0  0  0  0
  184.5210  178.7550  142.7300 C   0  0  0  0  0  0  0  0  0  0  0  0
  186.4520  178.2810  144.1500 C   0  0  0  0  0  0  0  0  0  0  0  0
  184.7740  178.8980  140.3240 C   0  0  0  0  0  0  0  0  0  0  0  0
  185.9050  178.4810  142.8650 C   0  0  0  0  0  0  0  0  0  0  0  0
  184.2380  178.6270  145.1300 C   0  0  0  0  0  3  0  0  0  0  0  0
  183.9670  178.9610  141.4640 C   0  0  0  0  0  3  0  0  0  0  0  0
  187.5000  177.9070  146.7060 C   0  0  0  0  0  0  0  0  0  0  0  0
  187.8270  178.0110  144.3210 C   0  0  0  0  0  3  0  0  0  0  0  0
  183.7030  178.8240  143.8580 C   0  0  0  0  0  3  0  0  0  0  0  0
  188.3320  177.6790  147.8760 C   0  0  0  0  0  0  0  0  0  0  0  0
  186.1340  178.1690  146.5890 C   0  0  0  0  0  0  0  0  0  0  0  0
  187.9310  177.6790  149.0690 O   0  0  0  0  0  0  0  0  0  0  0  0
  184.1800  179.1180  138.9810 C   0  0  0  0  0  1  0  0  0  0  0  0
  186.1400  178.6280  140.4480 C   0  0  0  0  0  3  0  0  0  0  0  0
  185.6010  178.3590  145.2960 C   0  0  0  0  0  0  0  0  0  0  0  0
  189.7500  177.4520  147.4430 C   0  0  0  0  0  2  0  0  0  0  0  0
  188.3170  177.8310  145.6130 C   0  0  0  0  0  0  0  0  0  0  0  0
  190.7920  177.4210  145.0800 C   0  0  0  0  0  2  0  0  0  0  0  0
  191.0240  176.0660  144.8350 O   0  0  0  0  0  0  0  0  0  0  0  0
  191.4100  176.0040  143.4930 C   0  0  0  0  0  2  0  0  0  0  0  0
  190.1860  176.0240  142.5870 C   0  0  0  0  0  2  0  0  0  0  0  0
  190.4460  176.8270  141.3590 C   0  0  0  0  0  0  0  0  0  0  0  0
  189.6530  176.7510  140.3820 O   0  0  0  0  0  0  0  0  0  0  0  0
  192.4570  177.5040  140.2900 O   0  0  0  0  0  1  0  0  0  0  0  0
  191.5760  177.6370  141.2910 O   0  0  0  0  0  0  0  0  0  0  0  0
  1 19  1  0  0  0  0
  2  7  1  0  0  0  0
  4  7  2  0  0  0  0
  4 12  1  0  0  0  0
  5 11  2  0  0  0  0
  5 18  1  0  0  0  0
  6 17  1  0  0  0  0
  6  9  2  0  0  0  0
  7  5  1  0  0  0  0
  8 18  1  0  0  0  0
  9  4  1  0  0  0  0
 10 13  1  0  0  0  0
 11 20  1  0  0  0  0
 12  8  2  0  0  0  0
 13 15  2  0  0  0  0
 14 10  1  0  0  0  0
 14  3  1  0  0  0  0
 16  6  1  0  0  0  0
 17  2  2  0  0  0  0
 18 14  2  0  0  0  0
 19 13  1  0  0  0  0
 20  1  1  0  0  0  0
 20 10  2  0  0  0  0
 21  1  1  0  0  0  0
 22 21  1  0  0  0  0
 23 22  1  0  0  0  0
 24 23  1  0  0  0  0
 25 24  1  0  0  0  0
 26 25  2  0  0  0  0
 27 28  1  0  0  0  0
 28 25  1  0  0  0  0
M  END
>  <MODEL>
8

>  <REMARK>
 VINA RESULT:      -8.8      1.741      3.342
  Name = 
  6 active torsions:
  status: ('A' for Active; 'I' for Inactive)
    1  A    between atoms: N_1  and  C_2
    2  A    between atoms: C_2  and  O_3
    3  A    between atoms: O_3  and  C_8
    4  A    between atoms: C_6  and  C_11
    5  A    between atoms: C_6  and  O_28
    6  A    between atoms: C_8  and  C_11
                            x       y       z     vdW  Elec       q    Type
                         _______ _______ _______ _____ _____    ______ ____

>  <TORSDO>
F 6

$$$$
=
 OpenBabel11052413323D

 28 31  0  0  0  0  0  0  0  0999 V2000
  185.8830  178.4990  141.5620 N   0  0  0  0  0  0  0  0  0  0  0  0
  189.8790  177.0210  144.6710 C   0  0  0  0  0  3  0  0  0  0  0  0
  184.1130  178.8240  145.9240 O   0  0  0  0  0  1  0  0  0  0  0  0
  188.8450  177.2240  146.8620 C   0  0  0  0  0  0  0  0  0  0  0  0
  187.5490  177.7780  144.8660 C   0  0  0  0  0  0  0  0  0  0  0  0
  191.1400  176.4700  146.6640 C   0  0  0  0  0  0  0  0  0  0  0  0
  188.7570  177.3440  145.4530 C   0  0  0  0  0  0  0  0  0  0  0  0
  186.5530  177.9640  147.0930 C   0  0  0  0  0  3  0  0  0  0  0  0
  190.0340  176.7890  147.4560 C   0  0  0  0  0  3  0  0  0  0  0  0
  185.1430  178.6230  143.7430 C   0  0  0  0  0  0  0  0  0  0  0  0
  187.4250  177.9040  143.4660 C   0  0  0  0  0  3  0  0  0  0  0  0
  187.7490  177.5350  147.6660 C   0  0  0  0  0  3  0  0  0  0  0  0
  184.0480  179.0200  142.8720 C   0  0  0  0  0  0  0  0  0  0  0  0
  185.2160  178.5170  145.1330 C   0  0  0  0  0  0  0  0  0  0  0  0
  182.8980  179.3600  143.2530 O   0  0  0  0  0  0  0  0  0  0  0  0
  192.4000  176.0090  147.3000 C   0  0  0  0  0  1  0  0  0  0  0  0
  191.0620  176.5860  145.2730 C   0  0  0  0  0  3  0  0  0  0  0  0
  186.4330  178.0890  145.7040 C   0  0  0  0  0  0  0  0  0  0  0  0
  184.4990  178.9530  141.4430 C   0  0  0  0  0  2  0  0  0  0  0  0
  186.2070  178.3280  142.9390 C   0  0  0  0  0  0  0  0  0  0  0  0
  186.7800  178.2770  140.4390 C   0  0  0  0  0  2  0  0  0  0  0  0
  186.1530  178.6640  139.2530 O   0  0  0  0  0  0  0  0  0  0  0  0
  186.9010  178.0630  138.2380 C   0  0  0  0  0  2  0  0  0  0  0  0
  186.0020  177.6840  137.0690 C   0  0  0  0  0  2  0  0  0  0  0  0
  185.4930  176.2910  137.2200 C   0  0  0  0  0  0  0  0  0  0  0  0
  186.2910  175.3200  137.1320 O   0  0  0  0  0  0  0  0  0  0  0  0
  183.5070  176.6210  138.4820 O   0  0  0  0  0  1  0  0  0  0  0  0
  184.1340  176.0720  137.4320 O   0  0  0  0  0  0  0  0  0  0  0  0
  1 20  1  0  0  0  0
  2 17  2  0  0  0  0
  2  7  1  0  0  0  0
  4  9  1  0  0  0  0
  4 12  1  0  0  0  0
  5  7  1  0  0  0  0
  5 18  1  0  0  0  0
  6 16  1  0  0  0  0
  6  9  2  0  0  0  0
  7  4  2  0  0  0  0
  8 12  2  0  0  0  0
 10 14  1  0  0  0  0
 11  5  2  0  0  0  0
 13 15  2  0  0  0  0
 13 10  1  0  0  0  0
 14 18  2  0  0  0  0
 14  3  1  0  0  0  0
 17  6  1  0  0  0  0
 18  8  1  0  0  0  0
 19  1  1  0  0  0  0
 19 13  1  0  0  0  0
 20 11  1  0  0  0  0
 20 10  2  0  0  0  0
 21  1  1  0  0  0  0
 22 21  1  0  0  0  0
 23 22  1  0  0  0  0
 24 25  1  0  0  0  0
 24 23  1  0  0  0  0
 25 28  1  0  0  0  0
 26 25  2  0  0  0  0
 28 27  1  0  0  0  0
M  END
>  <MODEL>
9

>  <REMARK>
 VINA RESULT:      -8.8      2.851      5.711
  Name = 
  6 active torsions:
  status: ('A' for Active; 'I' for Inactive)
    1  A    between atoms: N_1  and  C_2
    2  A    between atoms: C_2  and  O_3
    3  A    between atoms: O_3  and  C_8
    4  A    between atoms: C_6  and  C_11
    5  A    between atoms: C_6  and  O_28
    6  A    between atoms: C_8  and  C_11
                            x       y       z     vdW  Elec       q    Type
                         _______ _______ _______ _____ _____    ______ ____

>  <TORSDO>
F 6

$$$$
